5dwr_ligand
     RDKit          3D

 56 59  0  0  0  0  0  0  0  0999 V2000
  -39.6140   -0.4000    4.5240 C   0  0  0  0  0  0  0  0  0  0  0  0
  -40.4860   -1.5870    4.9390 C   0  0  2  0  0  0  0  0  0  0  0  0
  -39.8520   -2.3460    6.1230 C   0  0  0  0  0  0  0  0  0  0  0  0
  -39.3140   -3.7210    5.7420 C   0  0  2  0  0  0  0  0  0  0  0  0
  -38.3130   -4.1580    6.7490 N   0  0  0  0  0  0  0  0  0  0  0  0
  -38.6610   -3.7100    4.3700 C   0  0  0  0  0  0  0  0  0  0  0  0
  -39.7090   -3.4580    3.2610 C   0  0  2  0  0  0  0  0  0  0  0  0
  -39.0040   -3.1270    1.9420 C   0  0  0  0  0  0  0  0  0  0  0  0
  -37.6540   -3.4560    1.7370 C   0  0  0  0  0  0  0  0  0  0  0  0
  -37.0620   -3.2250    0.5040 C   0  0  0  0  0  0  0  0  0  0  0  0
  -37.7130   -2.6960   -0.5430 N   0  0  0  0  0  0  0  0  0  0  0  0
  -39.0070   -2.3540   -0.3460 C   0  0  0  0  0  0  0  0  0  0  0  0
  -39.6970   -2.5290    0.8570 C   0  0  0  0  0  0  0  0  0  0  0  0
  -41.0400   -2.1230    1.0170 N   0  0  0  0  0  0  0  0  0  0  0  0
  -42.1280   -2.4500    0.2320 C   0  0  0  0  0  0  0  0  0  0  0  0
  -42.1320   -3.1500   -0.7690 O   0  0  0  0  0  0  0  0  0  0  0  0
  -43.4110   -1.8850    0.7710 C   0  0  0  0  0  0  0  0  0  0  0  0
  -44.2590   -1.1690   -0.0660 C   0  0  0  0  0  0  0  0  0  0  0  0
  -45.4450   -0.6800    0.4700 C   0  0  0  0  0  0  0  0  0  0  0  0
  -45.7260   -0.9130    1.8110 C   0  0  0  0  0  0  0  0  0  0  0  0
  -46.8760   -0.4540    2.3250 F   0  0  0  0  0  0  0  0  0  0  0  0
  -44.8230   -1.6320    2.5990 C   0  0  0  0  0  0  0  0  0  0  0  0
  -45.0470   -1.8510    4.0300 C   0  0  0  0  0  0  0  0  0  0  0  0
  -44.3510   -1.1000    4.9870 C   0  0  0  0  0  0  0  0  0  0  0  0
  -43.4440   -0.1910    4.5950 F   0  0  0  0  0  0  0  0  0  0  0  0
  -44.5500   -1.2760    6.3550 C   0  0  0  0  0  0  0  0  0  0  0  0
  -45.4660   -2.2230    6.8040 C   0  0  0  0  0  0  0  0  0  0  0  0
  -46.1670   -2.9910    5.8790 C   0  0  0  0  0  0  0  0  0  0  0  0
  -45.9520   -2.8060    4.5090 C   0  0  0  0  0  0  0  0  0  0  0  0
  -46.6540   -3.5770    3.6580 F   0  0  0  0  0  0  0  0  0  0  0  0
  -43.6690   -2.1520    2.0930 N   0  0  0  0  0  0  0  0  0  0  0  0
  -40.8390   -2.5100    3.7550 C   0  0  0  0  0  0  0  0  0  0  0  0
  -39.2385    0.1111    5.4228 H   0  0  0  0  0  0  0  0  0  0  0  0
  -38.7645   -0.7606    3.9254 H   0  0  0  0  0  0  0  0  0  0  0  0
  -40.2121    0.3028    3.9254 H   0  0  0  0  0  0  0  0  0  0  0  0
  -41.4487   -1.1840    5.2865 H   0  0  0  0  0  0  0  0  0  0  0  0
  -39.0209   -1.7436    6.5185 H   0  0  0  0  0  0  0  0  0  0  0  0
  -40.6441   -2.5026    6.8701 H   0  0  0  0  0  0  0  0  0  0  0  0
  -40.1648   -4.4177    5.7139 H   0  0  0  0  0  0  0  0  0  0  0  0
  -38.2910   -5.1790    6.8560 H   0  0  0  0  0  0  0  0  0  0  0  0
  -38.4880   -3.7490    7.6780 H   0  0  0  0  0  0  0  0  0  0  0  0
  -37.3650   -3.8650    6.4590 H   0  0  0  0  0  0  0  0  0  0  0  0
  -37.9041   -2.9124    4.3380 H   0  0  0  0  0  0  0  0  0  0  0  0
  -38.1941   -4.6906    4.1955 H   0  0  0  0  0  0  0  0  0  0  0  0
  -40.2754   -4.3702    3.0220 H   0  0  0  0  0  0  0  0  0  0  0  0
  -37.0656   -3.8973    2.5550 H   0  0  0  0  0  0  0  0  0  0  0  0
  -36.0018   -3.4898    0.3779 H   0  0  0  0  0  0  0  0  0  0  0  0
  -39.5534   -1.9078   -1.1900 H   0  0  0  0  0  0  0  0  0  0  0  0
  -41.2840   -1.5300    1.8010 H   0  0  0  0  0  0  0  0  0  0  0  0
  -43.9995   -0.9946   -1.1206 H   0  0  0  0  0  0  0  0  0  0  0  0
  -46.1508   -0.1168   -0.1583 H   0  0  0  0  0  0  0  0  0  0  0  0
  -43.9851   -0.6686    7.0775 H   0  0  0  0  0  0  0  0  0  0  0  0
  -45.6346   -2.3633    7.8819 H   0  0  0  0  0  0  0  0  0  0  0  0
  -46.8905   -3.7438    6.2252 H   0  0  0  0  0  0  0  0  0  0  0  0
  -41.1353   -1.8721    2.9092 H   0  0  0  0  0  0  0  0  0  0  0  0
  -41.6363   -3.1712    4.1254 H   0  0  0  0  0  0  0  0  0  0  0  0
  1  2  1  0
  2  3  1  0
  3  4  1  0
  4  5  1  0
  4  6  1  0
  6  7  1  0
  7  8  1  0
  8  9  2  0
  9 10  1  0
 10 11  2  0
 11 12  1  0
 12 13  2  0
 13 14  1  0
 14 15  1  0
 15 16  2  0
 15 17  1  0
 17 18  2  0
 18 19  1  0
 19 20  2  0
 20 21  1  0
 20 22  1  0
 22 23  1  0
 23 24  2  0
 24 25  1  0
 24 26  1  0
 26 27  2  0
 27 28  1  0
 28 29  2  0
 29 30  1  0
 22 31  2  0
  7 32  1  0
 32  2  1  0
 13  8  1  0
 31 17  1  0
 29 23  1  0
  1 33  1  0
  1 34  1  0
  1 35  1  0
  2 36  1  1
  3 37  1  0
  3 38  1  0
  4 39  1  6
  5 40  1  0
  5 41  1  0
  5 42  1  0
  6 43  1  0
  6 44  1  0
  7 45  1  6
  9 46  1  0
 10 47  1  0
 12 48  1  0
 14 49  1  0
 18 50  1  0
 19 51  1  0
 26 52  1  0
 27 53  1  0
 28 54  1  0
 32 55  1  0
 32 56  1  0
M  CHG  1   5   1
M  END
>  <meeko>  (1) 
{"is_sidechain": [false], "free_energy": -10.103, "intermolecular_energy": -12.76, "internal_energy": -1.14}

$$$$
5dwr_ligand
     RDKit          3D

 56 59  0  0  0  0  0  0  0  0999 V2000
  -37.7170   -4.8670    2.4050 C   0  0  0  0  0  0  0  0  0  0  0  0
  -38.0560   -3.6410    3.2560 C   0  0  2  0  0  0  0  0  0  0  0  0
  -39.1290   -3.9830    4.3090 C   0  0  0  0  0  0  0  0  0  0  0  0
  -40.4820   -3.3400    4.0250 C   0  0  2  0  0  0  0  0  0  0  0  0
  -41.5460   -4.0840    4.7490 N   0  0  0  0  0  0  0  0  0  0  0  0
  -40.8040   -3.3380    2.5410 C   0  0  0  0  0  0  0  0  0  0  0  0
  -39.8400   -2.4100    1.7660 C   0  0  2  0  0  0  0  0  0  0  0  0
  -39.9620   -2.6670    0.2610 C   0  0  0  0  0  0  0  0  0  0  0  0
  -38.8640   -3.1190   -0.4890 C   0  0  0  0  0  0  0  0  0  0  0  0
  -39.0210   -3.4280   -1.8320 C   0  0  0  0  0  0  0  0  0  0  0  0
  -40.1880   -3.3260   -2.4850 N   0  0  0  0  0  0  0  0  0  0  0  0
  -41.2450   -2.8690   -1.7750 C   0  0  0  0  0  0  0  0  0  0  0  0
  -41.1960   -2.5160   -0.4230 C   0  0  0  0  0  0  0  0  0  0  0  0
  -42.3230   -2.0100    0.2610 N   0  0  0  0  0  0  0  0  0  0  0  0
  -43.6310   -1.9530   -0.1790 C   0  0  0  0  0  0  0  0  0  0  0  0
  -44.0630   -2.3210   -1.2610 O   0  0  0  0  0  0  0  0  0  0  0  0
  -44.5630   -1.4170    0.8700 C   0  0  0  0  0  0  0  0  0  0  0  0
  -45.5530   -0.5070    0.5180 C   0  0  0  0  0  0  0  0  0  0  0  0
  -46.4050   -0.0500    1.5170 C   0  0  0  0  0  0  0  0  0  0  0  0
  -46.2270   -0.5070    2.8170 C   0  0  0  0  0  0  0  0  0  0  0  0
  -47.0570   -0.0790    3.7780 F   0  0  0  0  0  0  0  0  0  0  0  0
  -45.2040   -1.4150    3.1030 C   0  0  0  0  0  0  0  0  0  0  0  0
  -44.9390   -1.8790    4.4670 C   0  0  0  0  0  0  0  0  0  0  0  0
  -43.8700   -1.3540    5.2080 C   0  0  0  0  0  0  0  0  0  0  0  0
  -43.0580   -0.4400    4.6550 F   0  0  0  0  0  0  0  0  0  0  0  0
  -43.6000   -1.7660    6.5120 C   0  0  0  0  0  0  0  0  0  0  0  0
  -44.4050   -2.7280    7.1150 C   0  0  0  0  0  0  0  0  0  0  0  0
  -45.4700   -3.2750    6.4030 C   0  0  0  0  0  0  0  0  0  0  0  0
  -45.7250   -2.8540    5.0930 C   0  0  0  0  0  0  0  0  0  0  0  0
  -46.7640   -3.4180    4.4490 F   0  0  0  0  0  0  0  0  0  0  0  0
  -44.3740   -1.9050    2.1390 N   0  0  0  0  0  0  0  0  0  0  0  0
  -38.4220   -2.4080    2.4050 C   0  0  0  0  0  0  0  0  0  0  0  0
  -37.4821   -5.7166    3.0631 H   0  0  0  0  0  0  0  0  0  0  0  0
  -38.5783   -5.1222    1.7701 H   0  0  0  0  0  0  0  0  0  0  0  0
  -36.8470   -4.6435    1.7701 H   0  0  0  0  0  0  0  0  0  0  0  0
  -37.1440   -3.3547    3.8004 H   0  0  0  0  0  0  0  0  0  0  0  0
  -39.2597   -5.0750    4.3318 H   0  0  0  0  0  0  0  0  0  0  0  0
  -38.7766   -3.5865    5.2726 H   0  0  0  0  0  0  0  0  0  0  0  0
  -40.4362   -2.2963    4.3695 H   0  0  0  0  0  0  0  0  0  0  0  0
  -42.4880   -3.7840    4.4680 H   0  0  0  0  0  0  0  0  0  0  0  0
  -41.4740   -3.9750    5.7700 H   0  0  0  0  0  0  0  0  0  0  0  0
  -41.4770   -5.0950    4.5430 H   0  0  0  0  0  0  0  0  0  0  0  0
  -40.7088   -4.3621    2.1509 H   0  0  0  0  0  0  0  0  0  0  0  0
  -41.8310   -2.9680    2.4058 H   0  0  0  0  0  0  0  0  0  0  0  0
  -40.1277   -1.3528    1.8633 H   0  0  0  0  0  0  0  0  0  0  0  0
  -37.8792   -3.2280   -0.0112 H   0  0  0  0  0  0  0  0  0  0  0  0
  -38.1404   -3.7757   -2.3920 H   0  0  0  0  0  0  0  0  0  0  0  0
  -42.2082   -2.7683   -2.2967 H   0  0  0  0  0  0  0  0  0  0  0  0
  -42.2080   -1.6490    1.2000 H   0  0  0  0  0  0  0  0  0  0  0  0
  -45.6592   -0.1588   -0.5200 H   0  0  0  0  0  0  0  0  0  0  0  0
  -47.2086    0.6633    1.2816 H   0  0  0  0  0  0  0  0  0  0  0  0
  -42.7528   -1.3319    7.0631 H   0  0  0  0  0  0  0  0  0  0  0  0
  -44.2018   -3.0538    8.1458 H   0  0  0  0  0  0  0  0  0  0  0  0
  -46.1103   -4.0376    6.8703 H   0  0  0  0  0  0  0  0  0  0  0  0
  -37.6870   -2.3327    1.5901 H   0  0  0  0  0  0  0  0  0  0  0  0
  -38.4148   -1.5571    3.1020 H   0  0  0  0  0  0  0  0  0  0  0  0
  1  2  1  0
  2  3  1  0
  3  4  1  0
  4  5  1  0
  4  6  1  0
  6  7  1  0
  7  8  1  0
  8  9  2  0
  9 10  1  0
 10 11  2  0
 11 12  1  0
 12 13  2  0
 13 14  1  0
 14 15  1  0
 15 16  2  0
 15 17  1  0
 17 18  2  0
 18 19  1  0
 19 20  2  0
 20 21  1  0
 20 22  1  0
 22 23  1  0
 23 24  2  0
 24 25  1  0
 24 26  1  0
 26 27  2  0
 27 28  1  0
 28 29  2  0
 29 30  1  0
 22 31  2  0
  7 32  1  0
 32  2  1  0
 13  8  1  0
 31 17  1  0
 29 23  1  0
  1 33  1  0
  1 34  1  0
  1 35  1  0
  2 36  1  1
  3 37  1  0
  3 38  1  0
  4 39  1  1
  5 40  1  0
  5 41  1  0
  5 42  1  0
  6 43  1  0
  6 44  1  0
  7 45  1  6
  9 46  1  0
 10 47  1  0
 12 48  1  0
 14 49  1  0
 18 50  1  0
 19 51  1  0
 26 52  1  0
 27 53  1  0
 28 54  1  0
 32 55  1  0
 32 56  1  0
M  CHG  1   5   1
M  END
>  <meeko>  (2) 
{"is_sidechain": [false], "free_energy": -10.093, "intermolecular_energy": -12.869, "internal_energy": -1.019}

$$$$
5dwr_ligand
     RDKit          3D

 56 59  0  0  0  0  0  0  0  0999 V2000
  -39.5970   -0.3240    4.3600 C   0  0  0  0  0  0  0  0  0  0  0  0
  -40.6530   -1.3840    4.6820 C   0  0  2  0  0  0  0  0  0  0  0  0
  -40.2590   -2.1870    5.9380 C   0  0  0  0  0  0  0  0  0  0  0  0
  -39.8590   -3.6270    5.6360 C   0  0  2  0  0  0  0  0  0  0  0  0
  -39.0420   -4.1610    6.7570 N   0  0  0  0  0  0  0  0  0  0  0  0
  -39.0570   -3.7300    4.3500 C   0  0  0  0  0  0  0  0  0  0  0  0
  -39.9300   -3.3770    3.1230 C   0  0  2  0  0  0  0  0  0  0  0  0
  -39.0430   -3.1670    1.8930 C   0  0  0  0  0  0  0  0  0  0  0  0
  -37.6560   -3.3770    1.9530 C   0  0  0  0  0  0  0  0  0  0  0  0
  -36.8850   -3.2660    0.8050 C   0  0  0  0  0  0  0  0  0  0  0  0
  -37.3910   -2.9660   -0.4010 N   0  0  0  0  0  0  0  0  0  0  0  0
  -38.7240   -2.7380   -0.4630 C   0  0  0  0  0  0  0  0  0  0  0  0
  -39.5890   -2.8100    0.6330 C   0  0  0  0  0  0  0  0  0  0  0  0
  -40.9680   -2.5280    0.5180 N   0  0  0  0  0  0  0  0  0  0  0  0
  -41.6040   -1.7610   -0.4390 C   0  0  0  0  0  0  0  0  0  0  0  0
  -41.0840   -1.1630   -1.3700 O   0  0  0  0  0  0  0  0  0  0  0  0
  -43.0960   -1.7620   -0.2720 C   0  0  0  0  0  0  0  0  0  0  0  0
  -43.9180   -1.9120   -1.3830 C   0  0  0  0  0  0  0  0  0  0  0  0
  -45.2940   -1.9250   -1.1800 C   0  0  0  0  0  0  0  0  0  0  0  0
  -45.7870   -1.7760    0.1100 C   0  0  0  0  0  0  0  0  0  0  0  0
  -47.1120   -1.8030    0.3080 F   0  0  0  0  0  0  0  0  0  0  0  0
  -44.9030   -1.6180    1.1820 C   0  0  0  0  0  0  0  0  0  0  0  0
  -45.3760   -1.3970    2.5500 C   0  0  0  0  0  0  0  0  0  0  0  0
  -46.2400   -0.3330    2.8470 C   0  0  0  0  0  0  0  0  0  0  0  0
  -46.6150    0.5140    1.8770 F   0  0  0  0  0  0  0  0  0  0  0  0
  -46.7170   -0.1040    4.1360 C   0  0  0  0  0  0  0  0  0  0  0  0
  -46.3350   -0.9470    5.1750 C   0  0  0  0  0  0  0  0  0  0  0  0
  -45.4710   -2.0080    4.9150 C   0  0  0  0  0  0  0  0  0  0  0  0
  -44.9970   -2.2220    3.6160 C   0  0  0  0  0  0  0  0  0  0  0  0
  -44.1630   -3.2590    3.4210 F   0  0  0  0  0  0  0  0  0  0  0  0
  -43.5500   -1.6340    1.0170 N   0  0  0  0  0  0  0  0  0  0  0  0
  -40.9810   -2.2850    3.4730 C   0  0  0  0  0  0  0  0  0  0  0  0
  -39.1900    0.0845    5.2967 H   0  0  0  0  0  0  0  0  0  0  0  0
  -38.7847   -0.7812    3.7759 H   0  0  0  0  0  0  0  0  0  0  0  0
  -40.0573    0.4865    3.7759 H   0  0  0  0  0  0  0  0  0  0  0  0
  -41.5907   -0.8568    4.9114 H   0  0  0  0  0  0  0  0  0  0  0  0
  -39.4090   -1.6832    6.4214 H   0  0  0  0  0  0  0  0  0  0  0  0
  -41.1447   -2.2260    6.5892 H   0  0  0  0  0  0  0  0  0  0  0  0
  -40.7823   -4.2129    5.5163 H   0  0  0  0  0  0  0  0  0  0  0  0
  -38.3100   -4.8030    6.4320 H   0  0  0  0  0  0  0  0  0  0  0  0
  -39.6130   -4.6620    7.4520 H   0  0  0  0  0  0  0  0  0  0  0  0
  -38.5670   -3.3860    7.2510 H   0  0  0  0  0  0  0  0  0  0  0  0
  -38.2071   -3.0334    4.3992 H   0  0  0  0  0  0  0  0  0  0  0  0
  -38.7009   -4.7650    4.2408 H   0  0  0  0  0  0  0  0  0  0  0  0
  -40.5744   -4.2180    2.8272 H   0  0  0  0  0  0  0  0  0  0  0  0
  -37.1799   -3.6299    2.9118 H   0  0  0  0  0  0  0  0  0  0  0  0
  -35.8009   -3.4328    0.8878 H   0  0  0  0  0  0  0  0  0  0  0  0
  -39.1554   -2.4788   -1.4411 H   0  0  0  0  0  0  0  0  0  0  0  0
  -41.6100   -2.9310    1.1890 H   0  0  0  0  0  0  0  0  0  0  0  0
  -43.4931   -2.0172   -2.3922 H   0  0  0  0  0  0  0  0  0  0  0  0
  -45.9819   -2.0515   -2.0290 H   0  0  0  0  0  0  0  0  0  0  0  0
  -47.3937    0.7409    4.3317 H   0  0  0  0  0  0  0  0  0  0  0  0
  -46.7125   -0.7767    6.1941 H   0  0  0  0  0  0  0  0  0  0  0  0
  -45.1613   -2.6777    5.7308 H   0  0  0  0  0  0  0  0  0  0  0  0
  -41.0959   -1.6358    2.5925 H   0  0  0  0  0  0  0  0  0  0  0  0
  -41.8920   -2.8337    3.7543 H   0  0  0  0  0  0  0  0  0  0  0  0
  1  2  1  0
  2  3  1  0
  3  4  1  0
  4  5  1  0
  4  6  1  0
  6  7  1  0
  7  8  1  0
  8  9  2  0
  9 10  1  0
 10 11  2  0
 11 12  1  0
 12 13  2  0
 13 14  1  0
 14 15  1  0
 15 16  2  0
 15 17  1  0
 17 18  2  0
 18 19  1  0
 19 20  2  0
 20 21  1  0
 20 22  1  0
 22 23  1  0
 23 24  2  0
 24 25  1  0
 24 26  1  0
 26 27  2  0
 27 28  1  0
 28 29  2  0
 29 30  1  0
 22 31  2  0
  7 32  1  0
 32  2  1  0
 13  8  1  0
 31 17  1  0
 29 23  1  0
  1 33  1  0
  1 34  1  0
  1 35  1  0
  2 36  1  1
  3 37  1  0
  3 38  1  0
  4 39  1  6
  5 40  1  0
  5 41  1  0
  5 42  1  0
  6 43  1  0
  6 44  1  0
  7 45  1  6
  9 46  1  0
 10 47  1  0
 12 48  1  0
 14 49  1  0
 18 50  1  0
 19 51  1  0
 26 52  1  0
 27 53  1  0
 28 54  1  0
 32 55  1  0
 32 56  1  0
M  CHG  1   5   1
M  END
>  <meeko>  (3) 
{"is_sidechain": [false], "free_energy": -10.017, "intermolecular_energy": -13.154, "internal_energy": -0.638}

$$$$
5dwr_ligand
     RDKit          3D

 56 59  0  0  0  0  0  0  0  0999 V2000
  -40.0570   -0.1890   -1.4740 C   0  0  0  0  0  0  0  0  0  0  0  0
  -39.5210   -1.5210   -0.9430 C   0  0  2  0  0  0  0  0  0  0  0  0
  -38.9870   -2.3960   -2.0950 C   0  0  0  0  0  0  0  0  0  0  0  0
  -39.8560   -3.6160   -2.3810 C   0  0  2  0  0  0  0  0  0  0  0  0
  -39.5850   -4.1040   -3.7590 N   0  0  0  0  0  0  0  0  0  0  0  0
  -41.3350   -3.2950   -2.2540 C   0  0  0  0  0  0  0  0  0  0  0  0
  -41.7070   -2.9750   -0.7870 C   0  0  2  0  0  0  0  0  0  0  0  0
  -43.1020   -2.3450   -0.7270 C   0  0  0  0  0  0  0  0  0  0  0  0
  -43.9360   -2.3190   -1.8560 C   0  0  0  0  0  0  0  0  0  0  0  0
  -45.2280   -1.8220   -1.7550 C   0  0  0  0  0  0  0  0  0  0  0  0
  -45.7530   -1.3530   -0.6140 N   0  0  0  0  0  0  0  0  0  0  0  0
  -44.9480   -1.3520    0.4730 C   0  0  0  0  0  0  0  0  0  0  0  0
  -43.6290   -1.8160    0.4800 C   0  0  0  0  0  0  0  0  0  0  0  0
  -42.8200   -1.7600    1.6360 N   0  0  0  0  0  0  0  0  0  0  0  0
  -43.1200   -2.2110    2.9070 C   0  0  0  0  0  0  0  0  0  0  0  0
  -44.1580   -2.7380    3.2770 O   0  0  0  0  0  0  0  0  0  0  0  0
  -41.9680   -2.0450    3.8570 C   0  0  0  0  0  0  0  0  0  0  0  0
  -41.9700   -0.9990    4.7710 C   0  0  0  0  0  0  0  0  0  0  0  0
  -40.8930   -0.8940    5.6450 C   0  0  0  0  0  0  0  0  0  0  0  0
  -39.8630   -1.8220    5.5610 C   0  0  0  0  0  0  0  0  0  0  0  0
  -38.8310   -1.7300    6.4120 F   0  0  0  0  0  0  0  0  0  0  0  0
  -39.9210   -2.8450    4.6100 C   0  0  0  0  0  0  0  0  0  0  0  0
  -38.8320   -3.8100    4.4430 C   0  0  0  0  0  0  0  0  0  0  0  0
  -38.0350   -3.8000    3.2890 C   0  0  0  0  0  0  0  0  0  0  0  0
  -38.2880   -2.9200    2.3090 F   0  0  0  0  0  0  0  0  0  0  0  0
  -36.9850   -4.6980    3.1070 C   0  0  0  0  0  0  0  0  0  0  0  0
  -36.7020   -5.6410    4.0900 C   0  0  0  0  0  0  0  0  0  0  0  0
  -37.4800   -5.6830    5.2440 C   0  0  0  0  0  0  0  0  0  0  0  0
  -38.5340   -4.7780    5.4100 C   0  0  0  0  0  0  0  0  0  0  0  0
  -39.2570   -4.8640    6.5420 F   0  0  0  0  0  0  0  0  0  0  0  0
  -40.9790   -2.9920    3.7620 N   0  0  0  0  0  0  0  0  0  0  0  0
  -40.5390   -2.2600   -0.0510 C   0  0  0  0  0  0  0  0  0  0  0  0
  -40.3197    0.4638   -0.6285 H   0  0  0  0  0  0  0  0  0  0  0  0
  -39.2850    0.2985   -2.0875 H   0  0  0  0  0  0  0  0  0  0  0  0
  -40.9515   -0.3721   -2.0875 H   0  0  0  0  0  0  0  0  0  0  0  0
  -38.6707   -1.2949   -0.2828 H   0  0  0  0  0  0  0  0  0  0  0  0
  -38.9380   -1.7814   -3.0060 H   0  0  0  0  0  0  0  0  0  0  0  0
  -37.9972   -2.7663   -1.7899 H   0  0  0  0  0  0  0  0  0  0  0  0
  -39.6053   -4.3887   -1.6394 H   0  0  0  0  0  0  0  0  0  0  0  0
  -38.7520   -3.6660   -4.1690 H   0  0  0  0  0  0  0  0  0  0  0  0
  -40.3750   -3.9330   -4.3960 H   0  0  0  0  0  0  0  0  0  0  0  0
  -39.4150   -5.1240   -3.7480 H   0  0  0  0  0  0  0  0  0  0  0  0
  -41.5697   -2.4238   -2.8832 H   0  0  0  0  0  0  0  0  0  0  0  0
  -41.9139   -4.1717   -2.5799 H   0  0  0  0  0  0  0  0  0  0  0  0
  -41.8187   -3.8900   -0.1867 H   0  0  0  0  0  0  0  0  0  0  0  0
  -43.5651   -2.6929   -2.8217 H   0  0  0  0  0  0  0  0  0  0  0  0
  -45.8545   -1.8124   -2.6591 H   0  0  0  0  0  0  0  0  0  0  0  0
  -45.3587   -0.9597    1.4150 H   0  0  0  0  0  0  0  0  0  0  0  0
  -41.8920   -1.3620    1.5690 H   0  0  0  0  0  0  0  0  0  0  0  0
  -42.7981   -0.2757    4.8027 H   0  0  0  0  0  0  0  0  0  0  0  0
  -40.8575   -0.0874    6.3921 H   0  0  0  0  0  0  0  0  0  0  0  0
  -36.3813   -4.6613    2.1882 H   0  0  0  0  0  0  0  0  0  0  0  0
  -35.8699   -6.3480    3.9566 H   0  0  0  0  0  0  0  0  0  0  0  0
  -37.2660   -6.4275    6.0250 H   0  0  0  0  0  0  0  0  0  0  0  0
  -40.9778   -1.5234    0.6381 H   0  0  0  0  0  0  0  0  0  0  0  0
  -39.9694   -3.0607    0.4434 H   0  0  0  0  0  0  0  0  0  0  0  0
  1  2  1  0
  2  3  1  0
  3  4  1  0
  4  5  1  0
  4  6  1  0
  6  7  1  0
  7  8  1  0
  8  9  2  0
  9 10  1  0
 10 11  2  0
 11 12  1  0
 12 13  2  0
 13 14  1  0
 14 15  1  0
 15 16  2  0
 15 17  1  0
 17 18  2  0
 18 19  1  0
 19 20  2  0
 20 21  1  0
 20 22  1  0
 22 23  1  0
 23 24  2  0
 24 25  1  0
 24 26  1  0
 26 27  2  0
 27 28  1  0
 28 29  2  0
 29 30  1  0
 22 31  2  0
  7 32  1  0
 32  2  1  0
 13  8  1  0
 31 17  1  0
 29 23  1  0
  1 33  1  0
  1 34  1  0
  1 35  1  0
  2 36  1  1
  3 37  1  0
  3 38  1  0
  4 39  1  1
  5 40  1  0
  5 41  1  0
  5 42  1  0
  6 43  1  0
  6 44  1  0
  7 45  1  1
  9 46  1  0
 10 47  1  0
 12 48  1  0
 14 49  1  0
 18 50  1  0
 19 51  1  0
 26 52  1  0
 27 53  1  0
 28 54  1  0
 32 55  1  0
 32 56  1  0
M  CHG  1   5   1
M  END
>  <meeko>  (4) 
{"is_sidechain": [false], "free_energy": -9.956, "intermolecular_energy": -12.746, "internal_energy": -0.968}

$$$$
5dwr_ligand
     RDKit          3D

 56 59  0  0  0  0  0  0  0  0999 V2000
  -46.3820   -3.4710    4.7090 C   0  0  0  0  0  0  0  0  0  0  0  0
  -44.9490   -3.2710    5.2070 C   0  0  2  0  0  0  0  0  0  0  0  0
  -44.8830   -2.1300    6.2420 C   0  0  0  0  0  0  0  0  0  0  0  0
  -44.1750   -0.8820    5.7230 C   0  0  2  0  0  0  0  0  0  0  0  0
  -44.5780    0.2920    6.5400 N   0  0  0  0  0  0  0  0  0  0  0  0
  -44.5110   -0.6100    4.2670 C   0  0  0  0  0  0  0  0  0  0  0  0
  -43.9310   -1.7110    3.3500 C   0  0  2  0  0  0  0  0  0  0  0  0
  -44.5450   -1.6030    1.9510 C   0  0  0  0  0  0  0  0  0  0  0  0
  -45.8970   -1.2680    1.7750 C   0  0  0  0  0  0  0  0  0  0  0  0
  -46.4090   -1.0910    0.4980 C   0  0  0  0  0  0  0  0  0  0  0  0
  -45.6760   -1.2180   -0.6180 N   0  0  0  0  0  0  0  0  0  0  0  0
  -44.3770   -1.5640   -0.4590 C   0  0  0  0  0  0  0  0  0  0  0  0
  -43.7640   -1.7800    0.7790 C   0  0  0  0  0  0  0  0  0  0  0  0
  -42.4120   -2.1750    0.8870 N   0  0  0  0  0  0  0  0  0  0  0  0
  -41.3680   -1.8770    0.0320 C   0  0  0  0  0  0  0  0  0  0  0  0
  -41.4210   -1.2200   -0.9970 O   0  0  0  0  0  0  0  0  0  0  0  0
  -40.0550   -2.4130    0.5280 C   0  0  0  0  0  0  0  0  0  0  0  0
  -38.9970   -2.5810   -0.3570 C   0  0  0  0  0  0  0  0  0  0  0  0
  -37.7940   -3.0630    0.1480 C   0  0  0  0  0  0  0  0  0  0  0  0
  -37.7040   -3.3660    1.5000 C   0  0  0  0  0  0  0  0  0  0  0  0
  -36.5400   -3.8170    1.9900 F   0  0  0  0  0  0  0  0  0  0  0  0
  -38.8110   -3.1830    2.3330 C   0  0  0  0  0  0  0  0  0  0  0  0
  -38.7820   -3.5450    3.7520 C   0  0  0  0  0  0  0  0  0  0  0  0
  -39.1260   -2.6090    4.7380 C   0  0  0  0  0  0  0  0  0  0  0  0
  -39.4550   -1.3570    4.3860 F   0  0  0  0  0  0  0  0  0  0  0  0
  -39.1190   -2.9260    6.0950 C   0  0  0  0  0  0  0  0  0  0  0  0
  -38.7620   -4.2080    6.5040 C   0  0  0  0  0  0  0  0  0  0  0  0
  -38.4080   -5.1580    5.5500 C   0  0  0  0  0  0  0  0  0  0  0  0
  -38.4150   -4.8220    4.1920 C   0  0  0  0  0  0  0  0  0  0  0  0
  -38.0600   -5.7770    3.3120 F   0  0  0  0  0  0  0  0  0  0  0  0
  -39.9930   -2.6820    1.8720 N   0  0  0  0  0  0  0  0  0  0  0  0
  -43.9370   -3.0960    4.0560 C   0  0  0  0  0  0  0  0  0  0  0  0
  -47.0597   -3.5656    5.5703 H   0  0  0  0  0  0  0  0  0  0  0  0
  -46.6824   -2.6061    4.0994 H   0  0  0  0  0  0  0  0  0  0  0  0
  -46.4341   -4.3851    4.0994 H   0  0  0  0  0  0  0  0  0  0  0  0
  -44.6449   -4.1957    5.7192 H   0  0  0  0  0  0  0  0  0  0  0  0
  -45.9100   -1.8560    6.5251 H   0  0  0  0  0  0  0  0  0  0  0  0
  -44.3010   -2.5013    7.0984 H   0  0  0  0  0  0  0  0  0  0  0  0
  -43.0912   -1.0533    5.8008 H   0  0  0  0  0  0  0  0  0  0  0  0
  -43.7770    0.7340    7.0050 H   0  0  0  0  0  0  0  0  0  0  0  0
  -45.2650    0.0460    7.2660 H   0  0  0  0  0  0  0  0  0  0  0  0
  -45.0130    1.0120    5.9370 H   0  0  0  0  0  0  0  0  0  0  0  0
  -45.6043   -0.5826    4.1491 H   0  0  0  0  0  0  0  0  0  0  0  0
  -44.0683    0.3550    3.9794 H   0  0  0  0  0  0  0  0  0  0  0  0
  -42.8569   -1.5621    3.1655 H   0  0  0  0  0  0  0  0  0  0  0  0
  -46.5511   -1.1457    2.6509 H   0  0  0  0  0  0  0  0  0  0  0  0
  -47.4733   -0.8326    0.3951 H   0  0  0  0  0  0  0  0  0  0  0  0
  -43.7629   -1.6831   -1.3638 H   0  0  0  0  0  0  0  0  0  0  0  0
  -42.1240   -2.7320    1.6810 H   0  0  0  0  0  0  0  0  0  0  0  0
  -39.1075   -2.3401   -1.4246 H   0  0  0  0  0  0  0  0  0  0  0  0
  -36.9266   -3.2021   -0.5140 H   0  0  0  0  0  0  0  0  0  0  0  0
  -39.3947   -2.1657    6.8406 H   0  0  0  0  0  0  0  0  0  0  0  0
  -38.7597   -4.4683    7.5728 H   0  0  0  0  0  0  0  0  0  0  0  0
  -38.1228   -6.1729    5.8640 H   0  0  0  0  0  0  0  0  0  0  0  0
  -44.1589   -3.8591    3.2955 H   0  0  0  0  0  0  0  0  0  0  0  0
  -42.9445   -3.1933    4.5202 H   0  0  0  0  0  0  0  0  0  0  0  0
  1  2  1  0
  2  3  1  0
  3  4  1  0
  4  5  1  0
  4  6  1  0
  6  7  1  0
  7  8  1  0
  8  9  2  0
  9 10  1  0
 10 11  2  0
 11 12  1  0
 12 13  2  0
 13 14  1  0
 14 15  1  0
 15 16  2  0
 15 17  1  0
 17 18  2  0
 18 19  1  0
 19 20  2  0
 20 21  1  0
 20 22  1  0
 22 23  1  0
 23 24  2  0
 24 25  1  0
 24 26  1  0
 26 27  2  0
 27 28  1  0
 28 29  2  0
 29 30  1  0
 22 31  2  0
  7 32  1  0
 32  2  1  0
 13  8  1  0
 31 17  1  0
 29 23  1  0
  1 33  1  0
  1 34  1  0
  1 35  1  0
  2 36  1  1
  3 37  1  0
  3 38  1  0
  4 39  1  6
  5 40  1  0
  5 41  1  0
  5 42  1  0
  6 43  1  0
  6 44  1  0
  7 45  1  6
  9 46  1  0
 10 47  1  0
 12 48  1  0
 14 49  1  0
 18 50  1  0
 19 51  1  0
 26 52  1  0
 27 53  1  0
 28 54  1  0
 32 55  1  0
 32 56  1  0
M  CHG  1   5   1
M  END
>  <meeko>  (5) 
{"is_sidechain": [false], "free_energy": -9.897, "intermolecular_energy": -12.697, "internal_energy": -0.943}

$$$$
5dwr_ligand
     RDKit          3D

 56 59  0  0  0  0  0  0  0  0999 V2000
  -43.6170   -1.7980    7.5740 C   0  0  0  0  0  0  0  0  0  0  0  0
  -43.2780   -0.8310    6.4380 C   0  0  2  0  0  0  0  0  0  0  0  0
  -44.1660   -1.0990    5.2060 C   0  0  0  0  0  0  0  0  0  0  0  0
  -43.4050   -1.7050    4.0310 C   0  0  2  0  0  0  0  0  0  0  0  0
  -44.3630   -2.3790    3.1150 N   0  0  0  0  0  0  0  0  0  0  0  0
  -42.3700   -2.7170    4.4930 C   0  0  0  0  0  0  0  0  0  0  0  0
  -41.2360   -2.0250    5.2850 C   0  0  2  0  0  0  0  0  0  0  0  0
  -40.3910   -3.0750    6.0130 C   0  0  0  0  0  0  0  0  0  0  0  0
  -40.6020   -3.3630    7.3710 C   0  0  0  0  0  0  0  0  0  0  0  0
  -39.8840   -4.3780    7.9860 C   0  0  0  0  0  0  0  0  0  0  0  0
  -38.9740   -5.1320    7.3500 N   0  0  0  0  0  0  0  0  0  0  0  0
  -38.7470   -4.8440    6.0470 C   0  0  0  0  0  0  0  0  0  0  0  0
  -39.4030   -3.8360    5.3350 C   0  0  0  0  0  0  0  0  0  0  0  0
  -39.1030   -3.5550    3.9840 N   0  0  0  0  0  0  0  0  0  0  0  0
  -38.1160   -4.1170    3.1970 C   0  0  0  0  0  0  0  0  0  0  0  0
  -37.2990   -4.9630    3.5290 O   0  0  0  0  0  0  0  0  0  0  0  0
  -38.1600   -3.6160    1.7820 C   0  0  0  0  0  0  0  0  0  0  0  0
  -36.9780   -3.4280    1.0760 C   0  0  0  0  0  0  0  0  0  0  0  0
  -37.0660   -2.9800   -0.2380 C   0  0  0  0  0  0  0  0  0  0  0  0
  -38.3200   -2.7270   -0.7820 C   0  0  0  0  0  0  0  0  0  0  0  0
  -38.4060   -2.3090   -2.0520 F   0  0  0  0  0  0  0  0  0  0  0  0
  -39.4690   -2.9280   -0.0110 C   0  0  0  0  0  0  0  0  0  0  0  0
  -40.8060   -2.6190   -0.5210 C   0  0  0  0  0  0  0  0  0  0  0  0
  -41.7080   -1.8650    0.2440 C   0  0  0  0  0  0  0  0  0  0  0  0
  -41.3580   -1.4450    1.4690 F   0  0  0  0  0  0  0  0  0  0  0  0
  -42.9830   -1.5440   -0.2180 C   0  0  0  0  0  0  0  0  0  0  0  0
  -43.3930   -1.9780   -1.4760 C   0  0  0  0  0  0  0  0  0  0  0  0
  -42.5240   -2.7370   -2.2560 C   0  0  0  0  0  0  0  0  0  0  0  0
  -41.2490   -3.0540   -1.7760 C   0  0  0  0  0  0  0  0  0  0  0  0
  -40.4510   -3.7920   -2.5690 F   0  0  0  0  0  0  0  0  0  0  0  0
  -39.4140   -3.3980    1.2680 N   0  0  0  0  0  0  0  0  0  0  0  0
  -41.7730   -0.8130    6.0990 C   0  0  0  0  0  0  0  0  0  0  0  0
  -43.4435   -1.3030    8.5409 H   0  0  0  0  0  0  0  0  0  0  0  0
  -44.6732   -2.0960    7.4989 H   0  0  0  0  0  0  0  0  0  0  0  0
  -42.9781   -2.6903    7.4989 H   0  0  0  0  0  0  0  0  0  0  0  0
  -43.5059    0.1855    6.7913 H   0  0  0  0  0  0  0  0  0  0  0  0
  -44.9672   -1.7938    5.4982 H   0  0  0  0  0  0  0  0  0  0  0  0
  -44.5594   -0.1277    4.8718 H   0  0  0  0  0  0  0  0  0  0  0  0
  -42.8822   -0.8879    3.5123 H   0  0  0  0  0  0  0  0  0  0  0  0
  -43.9390   -3.1820    2.6350 H   0  0  0  0  0  0  0  0  0  0  0  0
  -44.7300   -1.7420    2.3960 H   0  0  0  0  0  0  0  0  0  0  0  0
  -45.1720   -2.7390    3.6490 H   0  0  0  0  0  0  0  0  0  0  0  0
  -42.8579   -3.4617    5.1391 H   0  0  0  0  0  0  0  0  0  0  0  0
  -41.9342   -3.2029    3.6076 H   0  0  0  0  0  0  0  0  0  0  0  0
  -40.5113   -1.5383    4.6158 H   0  0  0  0  0  0  0  0  0  0  0  0
  -41.3375   -2.7830    7.9478 H   0  0  0  0  0  0  0  0  0  0  0  0
  -40.0704   -4.5755    9.0519 H   0  0  0  0  0  0  0  0  0  0  0  0
  -37.9956   -5.4437    5.5125 H   0  0  0  0  0  0  0  0  0  0  0  0
  -39.6640   -2.8760    3.4850 H   0  0  0  0  0  0  0  0  0  0  0  0
  -36.0019   -3.6275    1.5423 H   0  0  0  0  0  0  0  0  0  0  0  0
  -36.1566   -2.8281   -0.8379 H   0  0  0  0  0  0  0  0  0  0  0  0
  -43.6635   -0.9495    0.4093 H   0  0  0  0  0  0  0  0  0  0  0  0
  -44.3954   -1.7234   -1.8508 H   0  0  0  0  0  0  0  0  0  0  0  0
  -42.8403   -3.0872   -3.2496 H   0  0  0  0  0  0  0  0  0  0  0  0
  -41.2163   -0.7726    7.0469 H   0  0  0  0  0  0  0  0  0  0  0  0
  -41.6286    0.0635    5.4502 H   0  0  0  0  0  0  0  0  0  0  0  0
  1  2  1  0
  2  3  1  0
  3  4  1  0
  4  5  1  0
  4  6  1  0
  6  7  1  0
  7  8  1  0
  8  9  2  0
  9 10  1  0
 10 11  2  0
 11 12  1  0
 12 13  2  0
 13 14  1  0
 14 15  1  0
 15 16  2  0
 15 17  1  0
 17 18  2  0
 18 19  1  0
 19 20  2  0
 20 21  1  0
 20 22  1  0
 22 23  1  0
 23 24  2  0
 24 25  1  0
 24 26  1  0
 26 27  2  0
 27 28  1  0
 28 29  2  0
 29 30  1  0
 22 31  2  0
  7 32  1  0
 32  2  1  0
 13  8  1  0
 31 17  1  0
 29 23  1  0
  1 33  1  0
  1 34  1  0
  1 35  1  0
  2 36  1  1
  3 37  1  0
  3 38  1  0
  4 39  1  6
  5 40  1  0
  5 41  1  0
  5 42  1  0
  6 43  1  0
  6 44  1  0
  7 45  1  6
  9 46  1  0
 10 47  1  0
 12 48  1  0
 14 49  1  0
 18 50  1  0
 19 51  1  0
 26 52  1  0
 27 53  1  0
 28 54  1  0
 32 55  1  0
 32 56  1  0
M  CHG  1   5   1
M  END
>  <meeko>  (6) 
{"is_sidechain": [false], "free_energy": -9.355, "intermolecular_energy": -12.496, "internal_energy": -0.46}

$$$$
5dwr_ligand
     RDKit          3D

 56 59  0  0  0  0  0  0  0  0999 V2000
  -45.9790   -1.8110    7.7770 C   0  0  0  0  0  0  0  0  0  0  0  0
  -44.9750   -2.7320    7.0800 C   0  0  2  0  0  0  0  0  0  0  0  0
  -43.5280   -2.2920    7.3790 C   0  0  0  0  0  0  0  0  0  0  0  0
  -42.8150   -1.6940    6.1710 C   0  0  2  0  0  0  0  0  0  0  0  0
  -41.6710   -0.8640    6.6310 N   0  0  0  0  0  0  0  0  0  0  0  0
  -43.7480   -0.8300    5.3390 C   0  0  0  0  0  0  0  0  0  0  0  0
  -44.8460   -1.6880    4.6690 C   0  0  2  0  0  0  0  0  0  0  0  0
  -45.9500   -0.7830    4.1140 C   0  0  0  0  0  0  0  0  0  0  0  0
  -46.9270   -0.2290    4.9560 C   0  0  0  0  0  0  0  0  0  0  0  0
  -47.8650    0.6560    4.4450 C   0  0  0  0  0  0  0  0  0  0  0  0
  -47.9010    1.0360    3.1590 N   0  0  0  0  0  0  0  0  0  0  0  0
  -46.9770    0.4890    2.3360 C   0  0  0  0  0  0  0  0  0  0  0  0
  -45.9980   -0.4230    2.7420 C   0  0  0  0  0  0  0  0  0  0  0  0
  -45.0790   -0.9910    1.8320 N   0  0  0  0  0  0  0  0  0  0  0  0
  -45.2800   -1.2990    0.5010 C   0  0  0  0  0  0  0  0  0  0  0  0
  -46.3070   -1.1490   -0.1450 O   0  0  0  0  0  0  0  0  0  0  0  0
  -44.0350   -1.8190   -0.1590 C   0  0  0  0  0  0  0  0  0  0  0  0
  -44.0590   -2.1770   -1.5010 C   0  0  0  0  0  0  0  0  0  0  0  0
  -42.8790   -2.6360   -2.0760 C   0  0  0  0  0  0  0  0  0  0  0  0
  -41.7370   -2.7300   -1.2890 C   0  0  0  0  0  0  0  0  0  0  0  0
  -40.5960   -3.1580   -1.8460 F   0  0  0  0  0  0  0  0  0  0  0  0
  -41.7860   -2.3610    0.0590 C   0  0  0  0  0  0  0  0  0  0  0  0
  -40.6250   -2.4990    0.9410 C   0  0  0  0  0  0  0  0  0  0  0  0
  -40.7830   -2.9020    2.2750 C   0  0  0  0  0  0  0  0  0  0  0  0
  -42.0100   -3.1360    2.7620 F   0  0  0  0  0  0  0  0  0  0  0  0
  -39.6970   -3.0540    3.1360 C   0  0  0  0  0  0  0  0  0  0  0  0
  -38.4080   -2.8010    2.6750 C   0  0  0  0  0  0  0  0  0  0  0  0
  -38.2190   -2.3900    1.3590 C   0  0  0  0  0  0  0  0  0  0  0  0
  -39.3190   -2.2380    0.5080 C   0  0  0  0  0  0  0  0  0  0  0  0
  -39.0810   -1.8360   -0.7540 F   0  0  0  0  0  0  0  0  0  0  0  0
  -42.9200   -1.8780    0.6400 N   0  0  0  0  0  0  0  0  0  0  0  0
  -45.2550   -2.8870    5.5710 C   0  0  0  0  0  0  0  0  0  0  0  0
  -45.8715   -1.9096    8.8673 H   0  0  0  0  0  0  0  0  0  0  0  0
  -45.7864   -0.7688    7.4824 H   0  0  0  0  0  0  0  0  0  0  0  0
  -47.0007   -2.0925    7.4824 H   0  0  0  0  0  0  0  0  0  0  0  0
  -45.1044   -3.7399    7.5013 H   0  0  0  0  0  0  0  0  0  0  0  0
  -43.5513   -1.5374    8.1790 H   0  0  0  0  0  0  0  0  0  0  0  0
  -42.9690   -3.1925    7.6731 H   0  0  0  0  0  0  0  0  0  0  0  0
  -42.4620   -2.5258    5.5437 H   0  0  0  0  0  0  0  0  0  0  0  0
  -41.9780    0.0280    7.0370 H   0  0  0  0  0  0  0  0  0  0  0  0
  -41.0120   -0.6510    5.8700 H   0  0  0  0  0  0  0  0  0  0  0  0
  -41.1410   -1.3640    7.3650 H   0  0  0  0  0  0  0  0  0  0  0  0
  -44.2233   -0.0824    5.9910 H   0  0  0  0  0  0  0  0  0  0  0  0
  -43.1598   -0.3358    4.5518 H   0  0  0  0  0  0  0  0  0  0  0  0
  -44.4695   -2.2037    3.7733 H   0  0  0  0  0  0  0  0  0  0  0  0
  -46.9488   -0.4971    6.0226 H   0  0  0  0  0  0  0  0  0  0  0  0
  -48.6197    1.0682    5.1310 H   0  0  0  0  0  0  0  0  0  0  0  0
  -46.9973    0.7815    1.2758 H   0  0  0  0  0  0  0  0  0  0  0  0
  -44.1400   -1.2000    2.1470 H   0  0  0  0  0  0  0  0  0  0  0  0
  -44.9840   -2.0997   -2.0913 H   0  0  0  0  0  0  0  0  0  0  0  0
  -42.8497   -2.9206   -3.1382 H   0  0  0  0  0  0  0  0  0  0  0  0
  -39.8582   -3.3729    4.1764 H   0  0  0  0  0  0  0  0  0  0  0  0
  -37.5453   -2.9251    3.3460 H   0  0  0  0  0  0  0  0  0  0  0  0
  -37.2042   -2.1845    0.9876 H   0  0  0  0  0  0  0  0  0  0  0  0
  -46.3359   -3.0479    5.4452 H   0  0  0  0  0  0  0  0  0  0  0  0
  -44.6297   -3.7297    5.2411 H   0  0  0  0  0  0  0  0  0  0  0  0
  1  2  1  0
  2  3  1  0
  3  4  1  0
  4  5  1  0
  4  6  1  0
  6  7  1  0
  7  8  1  0
  8  9  2  0
  9 10  1  0
 10 11  2  0
 11 12  1  0
 12 13  2  0
 13 14  1  0
 14 15  1  0
 15 16  2  0
 15 17  1  0
 17 18  2  0
 18 19  1  0
 19 20  2  0
 20 21  1  0
 20 22  1  0
 22 23  1  0
 23 24  2  0
 24 25  1  0
 24 26  1  0
 26 27  2  0
 27 28  1  0
 28 29  2  0
 29 30  1  0
 22 31  2  0
  7 32  1  0
 32  2  1  0
 13  8  1  0
 31 17  1  0
 29 23  1  0
  1 33  1  0
  1 34  1  0
  1 35  1  0
  2 36  1  1
  3 37  1  0
  3 38  1  0
  4 39  1  6
  5 40  1  0
  5 41  1  0
  5 42  1  0
  6 43  1  0
  6 44  1  0
  7 45  1  6
  9 46  1  0
 10 47  1  0
 12 48  1  0
 14 49  1  0
 18 50  1  0
 19 51  1  0
 26 52  1  0
 27 53  1  0
 28 54  1  0
 32 55  1  0
 32 56  1  0
M  CHG  1   5   1
M  END
>  <meeko>  (7) 
{"is_sidechain": [false], "free_energy": -9.0, "intermolecular_energy": -12.58, "internal_energy": 0.073}

$$$$
5dwr_ligand
     RDKit          3D

 56 59  0  0  0  0  0  0  0  0999 V2000
  -38.5040   -3.4640   -1.9990 C   0  0  0  0  0  0  0  0  0  0  0  0
  -38.0400   -2.4950   -0.9090 C   0  0  2  0  0  0  0  0  0  0  0  0
  -37.6070   -3.2620    0.3580 C   0  0  0  0  0  0  0  0  0  0  0  0
  -38.5660   -3.0840    1.5300 C   0  0  2  0  0  0  0  0  0  0  0  0
  -38.3780   -4.1970    2.4970 N   0  0  0  0  0  0  0  0  0  0  0  0
  -40.0150   -3.0660    1.0750 C   0  0  0  0  0  0  0  0  0  0  0  0
  -40.3120   -1.8090    0.2250 C   0  0  2  0  0  0  0  0  0  0  0  0
  -41.6590   -1.9660   -0.4880 C   0  0  0  0  0  0  0  0  0  0  0  0
  -41.7290   -2.0920   -1.8850 C   0  0  0  0  0  0  0  0  0  0  0  0
  -42.9510   -2.3200   -2.5010 C   0  0  0  0  0  0  0  0  0  0  0  0
  -44.1080   -2.4380   -1.8320 N   0  0  0  0  0  0  0  0  0  0  0  0
  -44.0510   -2.2940   -0.4880 C   0  0  0  0  0  0  0  0  0  0  0  0
  -42.8780   -2.0480    0.2320 C   0  0  0  0  0  0  0  0  0  0  0  0
  -42.8820   -1.8720    1.6330 N   0  0  0  0  0  0  0  0  0  0  0  0
  -43.8330   -1.2390    2.4090 C   0  0  0  0  0  0  0  0  0  0  0  0
  -44.8560   -0.6930    2.0240 O   0  0  0  0  0  0  0  0  0  0  0  0
  -43.5220   -1.3250    3.8760 C   0  0  0  0  0  0  0  0  0  0  0  0
  -44.3480   -0.6930    4.7980 C   0  0  0  0  0  0  0  0  0  0  0  0
  -44.0340   -0.8140    6.1470 C   0  0  0  0  0  0  0  0  0  0  0  0
  -42.9100   -1.5440    6.5150 C   0  0  0  0  0  0  0  0  0  0  0  0
  -42.6150   -1.6730    7.8160 F   0  0  0  0  0  0  0  0  0  0  0  0
  -42.1170   -2.1460    5.5340 C   0  0  0  0  0  0  0  0  0  0  0  0
  -40.8910   -2.8750    5.8690 C   0  0  0  0  0  0  0  0  0  0  0  0
  -39.8640   -2.2530    6.5930 C   0  0  0  0  0  0  0  0  0  0  0  0
  -39.9860   -0.9680    6.9590 F   0  0  0  0  0  0  0  0  0  0  0  0
  -38.6910   -2.9230    6.9380 C   0  0  0  0  0  0  0  0  0  0  0  0
  -38.5160   -4.2510    6.5590 C   0  0  0  0  0  0  0  0  0  0  0  0
  -39.5140   -4.8930    5.8320 C   0  0  0  0  0  0  0  0  0  0  0  0
  -40.6830   -4.2060    5.4900 C   0  0  0  0  0  0  0  0  0  0  0  0
  -41.6140   -4.8730    4.7830 F   0  0  0  0  0  0  0  0  0  0  0  0
  -42.4190   -2.0720    4.2070 N   0  0  0  0  0  0  0  0  0  0  0  0
  -39.0740   -1.3880   -0.6150 C   0  0  0  0  0  0  0  0  0  0  0  0
  -38.9342   -4.3623   -1.5321 H   0  0  0  0  0  0  0  0  0  0  0  0
  -39.2657   -2.9752   -2.6241 H   0  0  0  0  0  0  0  0  0  0  0  0
  -37.6456   -3.7510   -2.6241 H   0  0  0  0  0  0  0  0  0  0  0  0
  -37.1542   -1.9671   -1.2919 H   0  0  0  0  0  0  0  0  0  0  0  0
  -37.5487   -4.3331    0.1145 H   0  0  0  0  0  0  0  0  0  0  0  0
  -36.6343   -2.8532    0.6689 H   0  0  0  0  0  0  0  0  0  0  0  0
  -38.3410   -2.1168    2.0031 H   0  0  0  0  0  0  0  0  0  0  0  0
  -38.1080   -3.8600    3.4290 H   0  0  0  0  0  0  0  0  0  0  0  0
  -37.6610   -4.8680    2.1870 H   0  0  0  0  0  0  0  0  0  0  0  0
  -39.2610   -4.7230    2.6110 H   0  0  0  0  0  0  0  0  0  0  0  0
  -40.2139   -3.9639    0.4715 H   0  0  0  0  0  0  0  0  0  0  0  0
  -40.6620   -3.0491    1.9645 H   0  0  0  0  0  0  0  0  0  0  0  0
  -40.4631   -0.9196    0.8544 H   0  0  0  0  0  0  0  0  0  0  0  0
  -40.8146   -2.0099   -2.4910 H   0  0  0  0  0  0  0  0  0  0  0  0
  -42.9725   -2.4088   -3.5972 H   0  0  0  0  0  0  0  0  0  0  0  0
  -44.9914   -2.3760    0.0767 H   0  0  0  0  0  0  0  0  0  0  0  0
  -42.1200   -2.2550    2.1790 H   0  0  0  0  0  0  0  0  0  0  0  0
  -45.2241   -0.1143    4.4701 H   0  0  0  0  0  0  0  0  0  0  0  0
  -44.6659   -0.3389    6.9118 H   0  0  0  0  0  0  0  0  0  0  0  0
  -37.9063   -2.4039    7.5079 H   0  0  0  0  0  0  0  0  0  0  0  0
  -37.5960   -4.7887    6.8320 H   0  0  0  0  0  0  0  0  0  0  0  0
  -39.3832   -5.9415    5.5262 H   0  0  0  0  0  0  0  0  0  0  0  0
  -39.4380   -1.0044   -1.5796 H   0  0  0  0  0  0  0  0  0  0  0  0
  -38.5425   -0.6447   -0.0026 H   0  0  0  0  0  0  0  0  0  0  0  0
  1  2  1  0
  2  3  1  0
  3  4  1  0
  4  5  1  0
  4  6  1  0
  6  7  1  0
  7  8  1  0
  8  9  2  0
  9 10  1  0
 10 11  2  0
 11 12  1  0
 12 13  2  0
 13 14  1  0
 14 15  1  0
 15 16  2  0
 15 17  1  0
 17 18  2  0
 18 19  1  0
 19 20  2  0
 20 21  1  0
 20 22  1  0
 22 23  1  0
 23 24  2  0
 24 25  1  0
 24 26  1  0
 26 27  2  0
 27 28  1  0
 28 29  2  0
 29 30  1  0
 22 31  2  0
  7 32  1  0
 32  2  1  0
 13  8  1  0
 31 17  1  0
 29 23  1  0
  1 33  1  0
  1 34  1  0
  1 35  1  0
  2 36  1  6
  3 37  1  0
  3 38  1  0
  4 39  1  1
  5 40  1  0
  5 41  1  0
  5 42  1  0
  6 43  1  0
  6 44  1  0
  7 45  1  1
  9 46  1  0
 10 47  1  0
 12 48  1  0
 14 49  1  0
 18 50  1  0
 19 51  1  0
 26 52  1  0
 27 53  1  0
 28 54  1  0
 32 55  1  0
 32 56  1  0
M  CHG  1   5   1
M  END
>  <meeko>  (8) 
{"is_sidechain": [false], "free_energy": -8.768, "intermolecular_energy": -11.381, "internal_energy": -0.833}

$$$$
5dwr_ligand
     RDKit          3D

 56 59  0  0  0  0  0  0  0  0999 V2000
  -43.1230   -1.8400   -2.8240 C   0  0  0  0  0  0  0  0  0  0  0  0
  -43.7420   -2.5200   -1.6010 C   0  0  2  0  0  0  0  0  0  0  0  0
  -44.2030   -1.4740   -0.5660 C   0  0  0  0  0  0  0  0  0  0  0  0
  -43.3490   -1.4570    0.6980 C   0  0  2  0  0  0  0  0  0  0  0  0
  -43.5160   -0.1520    1.3910 N   0  0  0  0  0  0  0  0  0  0  0  0
  -41.8770   -1.6650    0.3860 C   0  0  0  0  0  0  0  0  0  0  0  0
  -41.6220   -3.0910   -0.1530 C   0  0  2  0  0  0  0  0  0  0  0  0
  -40.2190   -3.1770   -0.7620 C   0  0  0  0  0  0  0  0  0  0  0  0
  -40.0190   -3.0370   -2.1450 C   0  0  0  0  0  0  0  0  0  0  0  0
  -38.7320   -3.0320   -2.6640 C   0  0  0  0  0  0  0  0  0  0  0  0
  -37.6290   -3.1500   -1.9090 N   0  0  0  0  0  0  0  0  0  0  0  0
  -37.8150   -3.3100   -0.5780 C   0  0  0  0  0  0  0  0  0  0  0  0
  -39.0650   -3.3440    0.0460 C   0  0  0  0  0  0  0  0  0  0  0  0
  -39.2030   -3.5470    1.4370 N   0  0  0  0  0  0  0  0  0  0  0  0
  -38.2320   -3.9330    2.3410 C   0  0  0  0  0  0  0  0  0  0  0  0
  -37.0600   -4.1860    2.1030 O   0  0  0  0  0  0  0  0  0  0  0  0
  -38.7470   -3.9660    3.7510 C   0  0  0  0  0  0  0  0  0  0  0  0
  -38.0300   -4.6360    4.7350 C   0  0  0  0  0  0  0  0  0  0  0  0
  -38.5340   -4.6260    6.0310 C   0  0  0  0  0  0  0  0  0  0  0  0
  -39.7290   -3.9640    6.2860 C   0  0  0  0  0  0  0  0  0  0  0  0
  -40.2080   -3.9410    7.5370 F   0  0  0  0  0  0  0  0  0  0  0  0
  -40.4040   -3.3180    5.2460 C   0  0  0  0  0  0  0  0  0  0  0  0
  -41.6960   -2.6590    5.4530 C   0  0  0  0  0  0  0  0  0  0  0  0
  -42.8850   -3.2610    5.0170 C   0  0  0  0  0  0  0  0  0  0  0  0
  -42.8440   -4.4380    4.3760 F   0  0  0  0  0  0  0  0  0  0  0  0
  -44.1300   -2.6640    5.2100 C   0  0  0  0  0  0  0  0  0  0  0  0
  -44.2150   -1.4330    5.8530 C   0  0  0  0  0  0  0  0  0  0  0  0
  -43.0510   -0.8050    6.2890 C   0  0  0  0  0  0  0  0  0  0  0  0
  -41.8090   -1.4140    6.0840 C   0  0  0  0  0  0  0  0  0  0  0  0
  -40.7160   -0.7640    6.5220 F   0  0  0  0  0  0  0  0  0  0  0  0
  -39.9170   -3.2840    3.9730 N   0  0  0  0  0  0  0  0  0  0  0  0
  -42.8260   -3.6020   -0.9930 C   0  0  0  0  0  0  0  0  0  0  0  0
  -42.4167   -1.0641   -2.4938 H   0  0  0  0  0  0  0  0  0  0  0  0
  -42.5895   -2.5881   -3.4287 H   0  0  0  0  0  0  0  0  0  0  0  0
  -43.9178   -1.3789   -3.4287 H   0  0  0  0  0  0  0  0  0  0  0  0
  -44.6379   -3.0596   -1.9418 H   0  0  0  0  0  0  0  0  0  0  0  0
  -44.1569   -0.4785   -1.0317 H   0  0  0  0  0  0  0  0  0  0  0  0
  -45.2257   -1.7440   -0.2640 H   0  0  0  0  0  0  0  0  0  0  0  0
  -43.6854   -2.2834    1.3413 H   0  0  0  0  0  0  0  0  0  0  0  0
  -43.2700    0.6410    0.7880 H   0  0  0  0  0  0  0  0  0  0  0  0
  -42.9420   -0.0870    2.2440 H   0  0  0  0  0  0  0  0  0  0  0  0
  -44.5020   -0.0230    1.6740 H   0  0  0  0  0  0  0  0  0  0  0  0
  -41.5627   -0.9323   -0.3719 H   0  0  0  0  0  0  0  0  0  0  0  0
  -41.2997   -1.5319    1.3128 H   0  0  0  0  0  0  0  0  0  0  0  0
  -41.5894   -3.8322    0.6592 H   0  0  0  0  0  0  0  0  0  0  0  0
  -40.8832   -2.9312   -2.8174 H   0  0  0  0  0  0  0  0  0  0  0  0
  -38.6095   -2.9257   -3.7520 H   0  0  0  0  0  0  0  0  0  0  0  0
  -36.9223   -3.4207    0.0551 H   0  0  0  0  0  0  0  0  0  0  0  0
  -40.1030   -3.3880    1.8710 H   0  0  0  0  0  0  0  0  0  0  0  0
  -37.0920   -5.1585    4.4959 H   0  0  0  0  0  0  0  0  0  0  0  0
  -37.9943   -5.1351    6.8431 H   0  0  0  0  0  0  0  0  0  0  0  0
  -45.0427   -3.1648    4.8549 H   0  0  0  0  0  0  0  0  0  0  0  0
  -45.1944   -0.9594    6.0157 H   0  0  0  0  0  0  0  0  0  0  0  0
  -43.1086    0.1702    6.7947 H   0  0  0  0  0  0  0  0  0  0  0  0
  -42.4253   -4.2059   -1.8205 H   0  0  0  0  0  0  0  0  0  0  0  0
  -43.4594   -4.1612   -0.2886 H   0  0  0  0  0  0  0  0  0  0  0  0
  1  2  1  0
  2  3  1  0
  3  4  1  0
  4  5  1  0
  4  6  1  0
  6  7  1  0
  7  8  1  0
  8  9  2  0
  9 10  1  0
 10 11  2  0
 11 12  1  0
 12 13  2  0
 13 14  1  0
 14 15  1  0
 15 16  2  0
 15 17  1  0
 17 18  2  0
 18 19  1  0
 19 20  2  0
 20 21  1  0
 20 22  1  0
 22 23  1  0
 23 24  2  0
 24 25  1  0
 24 26  1  0
 26 27  2  0
 27 28  1  0
 28 29  2  0
 29 30  1  0
 22 31  2  0
  7 32  1  0
 32  2  1  0
 13  8  1  0
 31 17  1  0
 29 23  1  0
  1 33  1  0
  1 34  1  0
  1 35  1  0
  2 36  1  6
  3 37  1  0
  3 38  1  0
  4 39  1  1
  5 40  1  0
  5 41  1  0
  5 42  1  0
  6 43  1  0
  6 44  1  0
  7 45  1  1
  9 46  1  0
 10 47  1  0
 12 48  1  0
 14 49  1  0
 18 50  1  0
 19 51  1  0
 26 52  1  0
 27 53  1  0
 28 54  1  0
 32 55  1  0
 32 56  1  0
M  CHG  1   5   1
M  END
>  <meeko>  (9) 
{"is_sidechain": [false], "free_energy": -8.737, "intermolecular_energy": -11.16, "internal_energy": -1.015}

$$$$
