4llx_ligand
     RDKit          3D

 18 18  0  0  0  0  0  0  0  0999 V2000
    5.6410   11.3970   45.2580 C   0  0  0  0  0  0  0  0  0  0  0  0
    4.8310   12.4150   44.5130 C   0  0  0  0  0  0  0  0  0  0  0  0
    4.8300   12.4320   43.1340 C   0  0  0  0  0  0  0  0  0  0  0  0
    4.0530   13.4010   42.5340 C   0  0  0  0  0  0  0  0  0  0  0  0
    3.9850   13.4990   41.0400 C   0  0  0  0  0  0  0  0  0  0  0  0
    3.3310   14.2890   43.2450 N   0  0  0  0  0  0  0  0  0  0  0  0
    3.4090   14.2070   44.5760 C   0  0  0  0  0  0  0  0  0  0  0  0
    2.6610   15.0980   45.3150 N   0  0  0  0  0  0  0  0  0  0  0  0
    4.1160   13.2920   45.2460 N   0  0  0  0  0  0  0  0  0  0  0  0
    5.5182   11.5513   46.3402 H   0  0  0  0  0  0  0  0  0  0  0  0
    5.2967   10.3872   44.9902 H   0  0  0  0  0  0  0  0  0  0  0  0
    6.7024   11.5056   44.9902 H   0  0  0  0  0  0  0  0  0  0  0  0
    5.4168   11.7121   42.5447 H   0  0  0  0  0  0  0  0  0  0  0  0
    3.3790   14.3723   40.7570 H   0  0  0  0  0  0  0  0  0  0  0  0
    5.0009   13.6103   40.6332 H   0  0  0  0  0  0  0  0  0  0  0  0
    3.5251   12.5863   40.6332 H   0  0  0  0  0  0  0  0  0  0  0  0
    1.8210   15.3300   44.8050 H   0  0  0  0  0  0  0  0  0  0  0  0
    3.2520   15.8610   45.6130 H   0  0  0  0  0  0  0  0  0  0  0  0
  1  2  1  0
  2  3  2  0
  3  4  1  0
  4  5  1  0
  4  6  2  0
  6  7  1  0
  7  8  1  0
  7  9  2  0
  9  2  1  0
  1 10  1  0
  1 11  1  0
  1 12  1  0
  3 13  1  0
  5 14  1  0
  5 15  1  0
  5 16  1  0
  8 17  1  0
  8 18  1  0
M  END
>  <meeko>  (1) 
{"is_sidechain": [false], "free_energy": -5.154, "intermolecular_energy": -5.305, "internal_energy": 0.0}

$$$$
4llx_ligand
     RDKit          3D

 18 18  0  0  0  0  0  0  0  0999 V2000
    4.0050   13.4960   41.0190 C   0  0  0  0  0  0  0  0  0  0  0  0
    4.0500   13.3890   42.5130 C   0  0  0  0  0  0  0  0  0  0  0  0
    4.7920   12.3970   43.1180 C   0  0  0  0  0  0  0  0  0  0  0  0
    4.7780   12.3760   44.4980 C   0  0  0  0  0  0  0  0  0  0  0  0
    5.5560   11.3380   45.2480 C   0  0  0  0  0  0  0  0  0  0  0  0
    4.0790   13.2700   45.2250 N   0  0  0  0  0  0  0  0  0  0  0  0
    3.3750   14.1830   44.5500 C   0  0  0  0  0  0  0  0  0  0  0  0
    2.6710   15.1140   45.2840 N   0  0  0  0  0  0  0  0  0  0  0  0
    3.3440   14.2950   43.2200 N   0  0  0  0  0  0  0  0  0  0  0  0
    3.5931   14.4753   40.7338 H   0  0  0  0  0  0  0  0  0  0  0  0
    5.0223   13.3938   40.6133 H   0  0  0  0  0  0  0  0  0  0  0  0
    3.3665   12.6974   40.6133 H   0  0  0  0  0  0  0  0  0  0  0  0
    5.3641   11.6621   42.5327 H   0  0  0  0  0  0  0  0  0  0  0  0
    5.4350   11.4994   46.3294 H   0  0  0  0  0  0  0  0  0  0  0  0
    5.1834   10.3376   44.9826 H   0  0  0  0  0  0  0  0  0  0  0  0
    6.6207   11.4150   44.9826 H   0  0  0  0  0  0  0  0  0  0  0  0
    1.9420   14.6470   45.8020 H   0  0  0  0  0  0  0  0  0  0  0  0
    2.3990   15.8770   44.6790 H   0  0  0  0  0  0  0  0  0  0  0  0
  1  2  1  0
  2  3  2  0
  3  4  1  0
  4  5  1  0
  4  6  2  0
  6  7  1  0
  7  8  1  0
  7  9  2  0
  9  2  1  0
  1 10  1  0
  1 11  1  0
  1 12  1  0
  3 13  1  0
  5 14  1  0
  5 15  1  0
  5 16  1  0
  8 17  1  0
  8 18  1  0
M  END
>  <meeko>  (2) 
{"is_sidechain": [false], "free_energy": -5.144, "intermolecular_energy": -5.294, "internal_energy": 0.0}

$$$$
4llx_ligand
     RDKit          3D

 18 18  0  0  0  0  0  0  0  0999 V2000
    7.0920   10.3730   44.6770 C   0  0  0  0  0  0  0  0  0  0  0  0
    5.9670   11.3240   44.9540 C   0  0  0  0  0  0  0  0  0  0  0  0
    5.4390   12.0930   43.9380 C   0  0  0  0  0  0  0  0  0  0  0  0
    4.4040   12.9380   44.2840 C   0  0  0  0  0  0  0  0  0  0  0  0
    3.7610   13.8110   43.2500 C   0  0  0  0  0  0  0  0  0  0  0  0
    3.9270   13.0170   45.5420 N   0  0  0  0  0  0  0  0  0  0  0  0
    4.5150   12.2470   46.4630 C   0  0  0  0  0  0  0  0  0  0  0  0
    4.0240   12.3060   47.7500 N   0  0  0  0  0  0  0  0  0  0  0  0
    5.5060   11.3860   46.2200 N   0  0  0  0  0  0  0  0  0  0  0  0
    7.5136   10.0166   45.6285 H   0  0  0  0  0  0  0  0  0  0  0  0
    6.7142    9.5163   44.0996 H   0  0  0  0  0  0  0  0  0  0  0  0
    7.8738   10.8881   44.0996 H   0  0  0  0  0  0  0  0  0  0  0  0
    5.8218   12.0360   42.9083 H   0  0  0  0  0  0  0  0  0  0  0  0
    3.1792   14.6009   43.7475 H   0  0  0  0  0  0  0  0  0  0  0  0
    4.5390   14.2691   42.6217 H   0  0  0  0  0  0  0  0  0  0  0  0
    3.0927   13.2039   42.6217 H   0  0  0  0  0  0  0  0  0  0  0  0
    4.7070   12.7510   48.3460 H   0  0  0  0  0  0  0  0  0  0  0  0
    3.6920   11.3910   48.0210 H   0  0  0  0  0  0  0  0  0  0  0  0
  1  2  1  0
  2  3  2  0
  3  4  1  0
  4  5  1  0
  4  6  2  0
  6  7  1  0
  7  8  1  0
  7  9  2  0
  9  2  1  0
  1 10  1  0
  1 11  1  0
  1 12  1  0
  3 13  1  0
  5 14  1  0
  5 15  1  0
  5 16  1  0
  8 17  1  0
  8 18  1  0
M  END
>  <meeko>  (3) 
{"is_sidechain": [false], "free_energy": -4.953, "intermolecular_energy": -5.098, "internal_energy": 0.0}

$$$$
4llx_ligand
     RDKit          3D

 18 18  0  0  0  0  0  0  0  0999 V2000
    3.7270   13.9270   43.2790 C   0  0  0  0  0  0  0  0  0  0  0  0
    4.3840   13.0430   44.2960 C   0  0  0  0  0  0  0  0  0  0  0  0
    5.4460   12.2400   43.9380 C   0  0  0  0  0  0  0  0  0  0  0  0
    5.9910   11.4620   44.9390 C   0  0  0  0  0  0  0  0  0  0  0  0
    7.1510   10.5580   44.6500 C   0  0  0  0  0  0  0  0  0  0  0  0
    5.5180   11.4760   46.2010 N   0  0  0  0  0  0  0  0  0  0  0  0
    4.4740   12.2720   46.4480 C   0  0  0  0  0  0  0  0  0  0  0  0
    3.9920   12.3080   47.7400 N   0  0  0  0  0  0  0  0  0  0  0  0
    3.8940   13.0740   45.5520 N   0  0  0  0  0  0  0  0  0  0  0  0
    3.1466   14.7079   43.7922 H   0  0  0  0  0  0  0  0  0  0  0  0
    4.4970   14.3966   42.6493 H   0  0  0  0  0  0  0  0  0  0  0  0
    3.0553   13.3251   42.6493 H   0  0  0  0  0  0  0  0  0  0  0  0
    5.8376   12.2205   42.9103 H   0  0  0  0  0  0  0  0  0  0  0  0
    7.5925   10.2139   45.5969 H   0  0  0  0  0  0  0  0  0  0  0  0
    6.8038    9.6899   44.0705 H   0  0  0  0  0  0  0  0  0  0  0  0
    7.9080   11.1067   44.0705 H   0  0  0  0  0  0  0  0  0  0  0  0
    4.7610   12.2000   48.3840 H   0  0  0  0  0  0  0  0  0  0  0  0
    3.2180   11.6650   47.8240 H   0  0  0  0  0  0  0  0  0  0  0  0
  1  2  1  0
  2  3  2  0
  3  4  1  0
  4  5  1  0
  4  6  2  0
  6  7  1  0
  7  8  1  0
  7  9  2  0
  9  2  1  0
  1 10  1  0
  1 11  1  0
  1 12  1  0
  3 13  1  0
  5 14  1  0
  5 15  1  0
  5 16  1  0
  8 17  1  0
  8 18  1  0
M  END
>  <meeko>  (4) 
{"is_sidechain": [false], "free_energy": -4.945, "intermolecular_energy": -5.089, "internal_energy": 0.0}

$$$$
4llx_ligand
     RDKit          3D

 18 18  0  0  0  0  0  0  0  0999 V2000
    3.2480   14.6950   45.3130 C   0  0  0  0  0  0  0  0  0  0  0  0
    3.7010   13.8460   44.1640 C   0  0  0  0  0  0  0  0  0  0  0  0
    4.3350   12.6430   44.3950 C   0  0  0  0  0  0  0  0  0  0  0  0
    4.7150   11.9270   43.2780 C   0  0  0  0  0  0  0  0  0  0  0  0
    5.4080   10.6060   43.4250 C   0  0  0  0  0  0  0  0  0  0  0  0
    4.4850   12.3690   42.0260 N   0  0  0  0  0  0  0  0  0  0  0  0
    3.8820   13.5540   41.9020 C   0  0  0  0  0  0  0  0  0  0  0  0
    3.6260   14.0080   40.6260 N   0  0  0  0  0  0  0  0  0  0  0  0
    3.4600   14.3080   42.9200 N   0  0  0  0  0  0  0  0  0  0  0  0
    3.5115   14.2012   46.2600 H   0  0  0  0  0  0  0  0  0  0  0  0
    3.7424   15.6762   45.2612 H   0  0  0  0  0  0  0  0  0  0  0  0
    2.1576   14.8306   45.2612 H   0  0  0  0  0  0  0  0  0  0  0  0
    4.5272   12.2746   45.4135 H   0  0  0  0  0  0  0  0  0  0  0  0
    5.5303   10.3729   44.4930 H   0  0  0  0  0  0  0  0  0  0  0  0
    4.8058    9.8206   42.9449 H   0  0  0  0  0  0  0  0  0  0  0  0
    6.3965   10.6551   42.9449 H   0  0  0  0  0  0  0  0  0  0  0  0
    2.6500   14.2550   40.5500 H   0  0  0  0  0  0  0  0  0  0  0  0
    3.9930   13.3460   39.9570 H   0  0  0  0  0  0  0  0  0  0  0  0
  1  2  1  0
  2  3  2  0
  3  4  1  0
  4  5  1  0
  4  6  2  0
  6  7  1  0
  7  8  1  0
  7  9  2  0
  9  2  1  0
  1 10  1  0
  1 11  1  0
  1 12  1  0
  3 13  1  0
  5 14  1  0
  5 15  1  0
  5 16  1  0
  8 17  1  0
  8 18  1  0
M  END
>  <meeko>  (5) 
{"is_sidechain": [false], "free_energy": -4.692, "intermolecular_energy": -4.829, "internal_energy": 0.0}

$$$$
4llx_ligand
     RDKit          3D

 18 18  0  0  0  0  0  0  0  0999 V2000
    3.7380   13.7440   42.8110 C   0  0  0  0  0  0  0  0  0  0  0  0
    4.5690   13.0090   43.8200 C   0  0  0  0  0  0  0  0  0  0  0  0
    4.0930   12.8060   45.0980 C   0  0  0  0  0  0  0  0  0  0  0  0
    4.9240   12.1180   45.9590 C   0  0  0  0  0  0  0  0  0  0  0  0
    4.4960   11.8450   47.3680 C   0  0  0  0  0  0  0  0  0  0  0  0
    6.1360   11.6640   45.5820 N   0  0  0  0  0  0  0  0  0  0  0  0
    6.5180   11.9250   44.3290 C   0  0  0  0  0  0  0  0  0  0  0  0
    7.7490   11.4510   43.9260 N   0  0  0  0  0  0  0  0  0  0  0  0
    5.7770   12.5640   43.4200 N   0  0  0  0  0  0  0  0  0  0  0  0
    3.0121   14.3860   43.3315 H   0  0  0  0  0  0  0  0  0  0  0  0
    4.3912   14.3653   42.1807 H   0  0  0  0  0  0  0  0  0  0  0  0
    3.2011   13.0198   42.1807 H   0  0  0  0  0  0  0  0  0  0  0  0
    3.1051   13.1723   45.4141 H   0  0  0  0  0  0  0  0  0  0  0  0
    5.2138   12.3029   48.0645 H   0  0  0  0  0  0  0  0  0  0  0  0
    3.4969   12.2730   47.5372 H   0  0  0  0  0  0  0  0  0  0  0  0
    4.4629   10.7586   47.5372 H   0  0  0  0  0  0  0  0  0  0  0  0
    8.2870   11.1910   44.7390 H   0  0  0  0  0  0  0  0  0  0  0  0
    8.1640   12.1090   43.2810 H   0  0  0  0  0  0  0  0  0  0  0  0
  1  2  1  0
  2  3  2  0
  3  4  1  0
  4  5  1  0
  4  6  2  0
  6  7  1  0
  7  8  1  0
  7  9  2  0
  9  2  1  0
  1 10  1  0
  1 11  1  0
  1 12  1  0
  3 13  1  0
  5 14  1  0
  5 15  1  0
  5 16  1  0
  8 17  1  0
  8 18  1  0
M  END
>  <meeko>  (6) 
{"is_sidechain": [false], "free_energy": -4.682, "intermolecular_energy": -4.819, "internal_energy": 0.0}

$$$$
4llx_ligand
     RDKit          3D

 18 18  0  0  0  0  0  0  0  0999 V2000
    4.4780   12.6740   45.4050 C   0  0  0  0  0  0  0  0  0  0  0  0
    5.5480   11.6490   45.1760 C   0  0  0  0  0  0  0  0  0  0  0  0
    6.2760   11.6520   44.0050 C   0  0  0  0  0  0  0  0  0  0  0  0
    7.2420   10.6740   43.8810 C   0  0  0  0  0  0  0  0  0  0  0  0
    8.0870   10.5960   42.6460 C   0  0  0  0  0  0  0  0  0  0  0  0
    7.4710    9.7610   44.8450 N   0  0  0  0  0  0  0  0  0  0  0  0
    6.7030    9.8260   45.9370 C   0  0  0  0  0  0  0  0  0  0  0  0
    6.9390    8.9080   46.9380 N   0  0  0  0  0  0  0  0  0  0  0  0
    5.7590   10.7460   46.1550 N   0  0  0  0  0  0  0  0  0  0  0  0
    4.3307   12.8151   46.4859 H   0  0  0  0  0  0  0  0  0  0  0  0
    4.7804   13.6280   44.9485 H   0  0  0  0  0  0  0  0  0  0  0  0
    3.5378   12.3309   44.9485 H   0  0  0  0  0  0  0  0  0  0  0  0
    6.0966   12.3936   43.2126 H   0  0  0  0  0  0  0  0  0  0  0  0
    9.1449   10.4983   42.9311 H   0  0  0  0  0  0  0  0  0  0  0  0
    7.7856    9.7219   42.0501 H   0  0  0  0  0  0  0  0  0  0  0  0
    7.9508   11.5105   42.0501 H   0  0  0  0  0  0  0  0  0  0  0  0
    6.0760    8.4400   47.1700 H   0  0  0  0  0  0  0  0  0  0  0  0
    7.4440    9.3570   47.6880 H   0  0  0  0  0  0  0  0  0  0  0  0
  1  2  1  0
  2  3  2  0
  3  4  1  0
  4  5  1  0
  4  6  2  0
  6  7  1  0
  7  8  1  0
  7  9  2  0
  9  2  1  0
  1 10  1  0
  1 11  1  0
  1 12  1  0
  3 13  1  0
  5 14  1  0
  5 15  1  0
  5 16  1  0
  8 17  1  0
  8 18  1  0
M  END
>  <meeko>  (7) 
{"is_sidechain": [false], "free_energy": -4.584, "intermolecular_energy": -4.718, "internal_energy": 0.0}

$$$$
4llx_ligand
     RDKit          3D

 18 18  0  0  0  0  0  0  0  0999 V2000
    4.1110   12.1830   46.8760 C   0  0  0  0  0  0  0  0  0  0  0  0
    4.6910   12.3110   45.4990 C   0  0  0  0  0  0  0  0  0  0  0  0
    3.9940   12.9720   44.5090 C   0  0  0  0  0  0  0  0  0  0  0  0
    4.6050   13.0440   43.2740 C   0  0  0  0  0  0  0  0  0  0  0  0
    3.9300   13.7440   42.1340 C   0  0  0  0  0  0  0  0  0  0  0  0
    5.8160   12.5010   43.0360 N   0  0  0  0  0  0  0  0  0  0  0  0
    6.4050   11.8640   44.0520 C   0  0  0  0  0  0  0  0  0  0  0  0
    7.6520   11.3200   43.8250 N   0  0  0  0  0  0  0  0  0  0  0  0
    5.9030   11.7610   45.2850 N   0  0  0  0  0  0  0  0  0  0  0  0
    4.8991   12.3569   47.6234 H   0  0  0  0  0  0  0  0  0  0  0  0
    3.3107   12.9261   47.0073 H   0  0  0  0  0  0  0  0  0  0  0  0
    3.6978   11.1721   47.0073 H   0  0  0  0  0  0  0  0  0  0  0  0
    3.0053   13.4173   44.6940 H   0  0  0  0  0  0  0  0  0  0  0  0
    3.2171   14.4833   42.5281 H   0  0  0  0  0  0  0  0  0  0  0  0
    4.6852   14.2547   41.5185 H   0  0  0  0  0  0  0  0  0  0  0  0
    3.3921   13.0079   41.5185 H   0  0  0  0  0  0  0  0  0  0  0  0
    7.5770   10.3140   43.8060 H   0  0  0  0  0  0  0  0  0  0  0  0
    8.3140   11.7270   44.4700 H   0  0  0  0  0  0  0  0  0  0  0  0
  1  2  1  0
  2  3  2  0
  3  4  1  0
  4  5  1  0
  4  6  2  0
  6  7  1  0
  7  8  1  0
  7  9  2  0
  9  2  1  0
  1 10  1  0
  1 11  1  0
  1 12  1  0
  3 13  1  0
  5 14  1  0
  5 15  1  0
  5 16  1  0
  8 17  1  0
  8 18  1  0
M  END
>  <meeko>  (8) 
{"is_sidechain": [false], "free_energy": -4.493, "intermolecular_energy": -4.624, "internal_energy": 0.0}

$$$$
4llx_ligand
     RDKit          3D

 18 18  0  0  0  0  0  0  0  0999 V2000
    8.0530    9.5780   42.3830 C   0  0  0  0  0  0  0  0  0  0  0  0
    7.2750   10.0220   43.5850 C   0  0  0  0  0  0  0  0  0  0  0  0
    6.4250   11.1050   43.5020 C   0  0  0  0  0  0  0  0  0  0  0  0
    5.7470   11.4420   44.6570 C   0  0  0  0  0  0  0  0  0  0  0  0
    4.7980   12.6010   44.6680 C   0  0  0  0  0  0  0  0  0  0  0  0
    5.9000   10.7570   45.8080 N   0  0  0  0  0  0  0  0  0  0  0  0
    6.7600    9.7350   45.7960 C   0  0  0  0  0  0  0  0  0  0  0  0
    6.9120    9.0160   46.9630 N   0  0  0  0  0  0  0  0  0  0  0  0
    7.4440    9.3220   44.7250 N   0  0  0  0  0  0  0  0  0  0  0  0
    8.9655    9.0572   42.7087 H   0  0  0  0  0  0  0  0  0  0  0  0
    7.4370    8.8954   41.7791 H   0  0  0  0  0  0  0  0  0  0  0  0
    8.3274   10.4555   41.7791 H   0  0  0  0  0  0  0  0  0  0  0  0
    6.2943   11.6695   42.5670 H   0  0  0  0  0  0  0  0  0  0  0  0
    4.5705   12.8788   45.7078 H   0  0  0  0  0  0  0  0  0  0  0  0
    5.2582   13.4566   44.1522 H   0  0  0  0  0  0  0  0  0  0  0  0
    3.8684   12.3186   44.1522 H   0  0  0  0  0  0  0  0  0  0  0  0
    7.7170    8.4130   46.8790 H   0  0  0  0  0  0  0  0  0  0  0  0
    6.0300    8.5880   47.2060 H   0  0  0  0  0  0  0  0  0  0  0  0
  1  2  1  0
  2  3  2  0
  3  4  1  0
  4  5  1  0
  4  6  2  0
  6  7  1  0
  7  8  1  0
  7  9  2  0
  9  2  1  0
  1 10  1  0
  1 11  1  0
  1 12  1  0
  3 13  1  0
  5 14  1  0
  5 15  1  0
  5 16  1  0
  8 17  1  0
  8 18  1  0
M  END
>  <meeko>  (9) 
{"is_sidechain": [false], "free_energy": -4.455, "intermolecular_energy": -4.586, "internal_energy": 0.0}

$$$$
