1ydt_ligand
     RDKit          3D

 48 50  0  0  0  0  0  0  0  0999 V2000
   11.0900    9.3410    2.3160 O   0  0  0  0  0  0  0  0  0  0  0  0
   10.2590    8.2770    2.8580 S   0  0  0  0  0  0  0  0  0  0  0  0
    9.9730    7.0890    2.0950 O   0  0  0  0  0  0  0  0  0  0  0  0
   11.1160    7.7930    4.2090 N   0  0  0  0  0  0  0  0  0  0  0  0
   12.5710    7.5980    4.1810 C   0  0  0  0  0  0  0  0  0  0  0  0
   13.2820    8.7040    4.9860 C   0  0  0  0  0  0  0  0  0  0  0  0
   14.3530    9.3620    4.1690 N   0  0  0  0  0  0  0  0  0  0  0  0
   15.4620    8.4970    3.6960 C   0  0  0  0  0  0  0  0  0  0  0  0
   15.7230    8.6600    2.2360 C   0  0  0  0  0  0  0  0  0  0  0  0
   14.8550    9.2190    1.3760 C   0  0  0  0  0  0  0  0  0  0  0  0
   15.1040    9.3380   -0.0680 C   0  0  0  0  0  0  0  0  0  0  0  0
   14.4550   10.2910   -0.8630 C   0  0  0  0  0  0  0  0  0  0  0  0
   14.7090   10.3620   -2.2370 C   0  0  0  0  0  0  0  0  0  0  0  0
   15.6040    9.4700   -2.8230 C   0  0  0  0  0  0  0  0  0  0  0  0
   15.9480    9.5660   -4.6780 Br  0  0  0  0  0  0  0  0  0  0  0  0
   16.2430    8.5050   -2.0490 C   0  0  0  0  0  0  0  0  0  0  0  0
   15.9890    8.4360   -0.6760 C   0  0  0  0  0  0  0  0  0  0  0  0
    8.7630    8.9590    3.5150 C   0  0  0  0  0  0  0  0  0  0  0  0
    8.5650    8.8450    4.9010 C   0  0  0  0  0  0  0  0  0  0  0  0
    7.3870    9.3060    5.4760 C   0  0  0  0  0  0  0  0  0  0  0  0
    6.4050    9.8770    4.6730 C   0  0  0  0  0  0  0  0  0  0  0  0
    6.5960   10.0140    3.2870 C   0  0  0  0  0  0  0  0  0  0  0  0
    5.6120   10.5950    2.4840 C   0  0  0  0  0  0  0  0  0  0  0  0
    5.7170   10.7750    1.1500 N   0  0  0  0  0  0  0  0  0  0  0  0
    6.8670   10.3850    0.5800 C   0  0  0  0  0  0  0  0  0  0  0  0
    7.9070    9.7890    1.2780 C   0  0  0  0  0  0  0  0  0  0  0  0
    7.7910    9.5720    2.6730 C   0  0  0  0  0  0  0  0  0  0  0  0
   10.6020    7.7880    5.0940 H   0  0  0  0  0  0  0  0  0  0  0  0
   12.8131    6.6189    4.6200 H   0  0  0  0  0  0  0  0  0  0  0  0
   12.9148    7.6423    3.1371 H   0  0  0  0  0  0  0  0  0  0  0  0
   12.5429    9.4613    5.2864 H   0  0  0  0  0  0  0  0  0  0  0  0
   13.7487    8.2470    5.8711 H   0  0  0  0  0  0  0  0  0  0  0  0
   13.9300    9.7930    3.3220 H   0  0  0  0  0  0  0  0  0  0  0  0
   14.7420   10.1690    4.6700 H   0  0  0  0  0  0  0  0  0  0  0  0
   16.3756    8.7582    4.2502 H   0  0  0  0  0  0  0  0  0  0  0  0
   15.1715    7.4507    3.8715 H   0  0  0  0  0  0  0  0  0  0  0  0
   16.6842    8.3008    1.8397 H   0  0  0  0  0  0  0  0  0  0  0  0
   13.9065    9.6088    1.7741 H   0  0  0  0  0  0  0  0  0  0  0  0
   13.7399   10.9892   -0.4035 H   0  0  0  0  0  0  0  0  0  0  0  0
   14.2032   11.1202   -2.8528 H   0  0  0  0  0  0  0  0  0  0  0  0
   16.9454    7.7992   -2.5163 H   0  0  0  0  0  0  0  0  0  0  0  0
   16.4877    7.6674   -0.0673 H   0  0  0  0  0  0  0  0  0  0  0  0
    9.3432    8.3904    5.5317 H   0  0  0  0  0  0  0  0  0  0  0  0
    7.2316    9.2198    6.5616 H   0  0  0  0  0  0  0  0  0  0  0  0
    5.4666   10.2260    5.1286 H   0  0  0  0  0  0  0  0  0  0  0  0
    4.6854   10.9298    2.9732 H   0  0  0  0  0  0  0  0  0  0  0  0
    6.9922   10.5468   -0.5008 H   0  0  0  0  0  0  0  0  0  0  0  0
    8.8218    9.4849    0.7483 H   0  0  0  0  0  0  0  0  0  0  0  0
  1  2  2  0
  2  3  2  0
  2  4  1  0
  4  5  1  0
  5  6  1  0
  6  7  1  0
  7  8  1  0
  8  9  1  0
  9 10  2  0
 10 11  1  0
 11 12  2  0
 12 13  1  0
 13 14  2  0
 14 15  1  0
 14 16  1  0
 16 17  2  0
  2 18  1  0
 18 19  2  0
 19 20  1  0
 20 21  2  0
 21 22  1  0
 22 23  2  0
 23 24  1  0
 24 25  2  0
 25 26  1  0
 26 27  2  0
 17 11  1  0
 27 18  1  0
 27 22  1  0
  4 28  1  0
  5 29  1  0
  5 30  1  0
  6 31  1  0
  6 32  1  0
  7 33  1  0
  7 34  1  0
  8 35  1  0
  8 36  1  0
  9 37  1  0
 10 38  1  0
 12 39  1  0
 13 40  1  0
 16 41  1  0
 17 42  1  0
 19 43  1  0
 20 44  1  0
 21 45  1  0
 23 46  1  0
 25 47  1  0
 26 48  1  0
M  CHG  1   7   1
M  END
>  <meeko>  (1) 
{"is_sidechain": [false], "free_energy": -8.89, "intermolecular_energy": -13.048, "internal_energy": -0.793}

$$$$
1ydt_ligand
     RDKit          3D

 48 50  0  0  0  0  0  0  0  0999 V2000
   16.2080    8.3670    2.2720 O   0  0  0  0  0  0  0  0  0  0  0  0
   15.1620    7.7810    1.4480 S   0  0  0  0  0  0  0  0  0  0  0  0
   15.4730    6.8550    0.3890 O   0  0  0  0  0  0  0  0  0  0  0  0
   14.2360    6.9510    2.5650 N   0  0  0  0  0  0  0  0  0  0  0  0
   14.3840    7.1610    4.0100 C   0  0  0  0  0  0  0  0  0  0  0  0
   13.0050    7.1830    4.6990 C   0  0  0  0  0  0  0  0  0  0  0  0
   12.7450    8.5130    5.3420 N   0  0  0  0  0  0  0  0  0  0  0  0
   12.1180    9.5560    4.4930 C   0  0  0  0  0  0  0  0  0  0  0  0
   10.6270    9.4890    4.5240 C   0  0  0  0  0  0  0  0  0  0  0  0
    9.8220   10.3690    3.9050 C   0  0  0  0  0  0  0  0  0  0  0  0
    8.3550   10.3170    3.9750 C   0  0  0  0  0  0  0  0  0  0  0  0
    7.5510   10.3120    2.8280 C   0  0  0  0  0  0  0  0  0  0  0  0
    6.1570   10.2780    2.9380 C   0  0  0  0  0  0  0  0  0  0  0  0
    5.5620   10.2610    4.1970 C   0  0  0  0  0  0  0  0  0  0  0  0
    3.6790   10.2130    4.3450 Br  0  0  0  0  0  0  0  0  0  0  0  0
    6.3470   10.2840    5.3460 C   0  0  0  0  0  0  0  0  0  0  0  0
    7.7400   10.3180    5.2350 C   0  0  0  0  0  0  0  0  0  0  0  0
   14.0840    9.0540    0.8520 C   0  0  0  0  0  0  0  0  0  0  0  0
   12.7190    8.9310    1.1610 C   0  0  0  0  0  0  0  0  0  0  0  0
   11.8090    9.8610    0.6760 C   0  0  0  0  0  0  0  0  0  0  0  0
   12.2550   10.9120   -0.1190 C   0  0  0  0  0  0  0  0  0  0  0  0
   13.6190   11.0580   -0.4230 C   0  0  0  0  0  0  0  0  0  0  0  0
   14.0650   12.1190   -1.2150 C   0  0  0  0  0  0  0  0  0  0  0  0
   15.3550   12.3400   -1.5470 N   0  0  0  0  0  0  0  0  0  0  0  0
   16.2590   11.4840   -1.0470 C   0  0  0  0  0  0  0  0  0  0  0  0
   15.9290   10.3920   -0.2580 C   0  0  0  0  0  0  0  0  0  0  0  0
   14.5740   10.1390    0.0690 C   0  0  0  0  0  0  0  0  0  0  0  0
   13.4560    6.4040    2.1900 H   0  0  0  0  0  0  0  0  0  0  0  0
   14.9871    6.3446    4.4341 H   0  0  0  0  0  0  0  0  0  0  0  0
   14.8804    8.1280    4.1789 H   0  0  0  0  0  0  0  0  0  0  0  0
   12.2250    6.9880    3.9483 H   0  0  0  0  0  0  0  0  0  0  0  0
   12.9916    6.4083    5.4798 H   0  0  0  0  0  0  0  0  0  0  0  0
   12.1230    8.3850    6.1660 H   0  0  0  0  0  0  0  0  0  0  0  0
   13.6060    8.8850    5.7570 H   0  0  0  0  0  0  0  0  0  0  0  0
   12.4355   10.5451    4.8549 H   0  0  0  0  0  0  0  0  0  0  0  0
   12.4416    9.3857    3.4556 H   0  0  0  0  0  0  0  0  0  0  0  0
   10.1586    8.6690    5.0881 H   0  0  0  0  0  0  0  0  0  0  0  0
   10.2863   11.1720    3.3137 H   0  0  0  0  0  0  0  0  0  0  0  0
    8.0195   10.3350    1.8330 H   0  0  0  0  0  0  0  0  0  0  0  0
    5.5325   10.2647    2.0326 H   0  0  0  0  0  0  0  0  0  0  0  0
    5.8727   10.2755    6.3385 H   0  0  0  0  0  0  0  0  0  0  0  0
    8.3590   10.3458    6.1439 H   0  0  0  0  0  0  0  0  0  0  0  0
   12.3707    8.0969    1.7879 H   0  0  0  0  0  0  0  0  0  0  0  0
   10.7404    9.7672    0.9193 H   0  0  0  0  0  0  0  0  0  0  0  0
   11.5301   11.6384   -0.5149 H   0  0  0  0  0  0  0  0  0  0  0  0
   13.3116   12.8246   -1.5952 H   0  0  0  0  0  0  0  0  0  0  0  0
   17.3209   11.6578   -1.2755 H   0  0  0  0  0  0  0  0  0  0  0  0
   16.7190    9.7228    0.1136 H   0  0  0  0  0  0  0  0  0  0  0  0
  1  2  2  0
  2  3  2  0
  2  4  1  0
  4  5  1  0
  5  6  1  0
  6  7  1  0
  7  8  1  0
  8  9  1  0
  9 10  2  0
 10 11  1  0
 11 12  2  0
 12 13  1  0
 13 14  2  0
 14 15  1  0
 14 16  1  0
 16 17  2  0
  2 18  1  0
 18 19  2  0
 19 20  1  0
 20 21  2  0
 21 22  1  0
 22 23  2  0
 23 24  1  0
 24 25  2  0
 25 26  1  0
 26 27  2  0
 17 11  1  0
 27 18  1  0
 27 22  1  0
  4 28  1  0
  5 29  1  0
  5 30  1  0
  6 31  1  0
  6 32  1  0
  7 33  1  0
  7 34  1  0
  8 35  1  0
  8 36  1  0
  9 37  1  0
 10 38  1  0
 12 39  1  0
 13 40  1  0
 16 41  1  0
 17 42  1  0
 19 43  1  0
 20 44  1  0
 21 45  1  0
 23 46  1  0
 25 47  1  0
 26 48  1  0
M  CHG  1   7   1
M  END
>  <meeko>  (2) 
{"is_sidechain": [false], "free_energy": -8.88, "intermolecular_energy": -12.853, "internal_energy": -0.973}

$$$$
1ydt_ligand
     RDKit          3D

 48 50  0  0  0  0  0  0  0  0999 V2000
   15.2360    6.9500    1.4640 O   0  0  0  0  0  0  0  0  0  0  0  0
   14.2870    7.6860    2.2850 S   0  0  0  0  0  0  0  0  0  0  0  0
   13.2400    7.0100    3.0070 O   0  0  0  0  0  0  0  0  0  0  0  0
   15.2720    8.4140    3.4230 N   0  0  0  0  0  0  0  0  0  0  0  0
   15.0900    8.1980    4.8630 C   0  0  0  0  0  0  0  0  0  0  0  0
   14.2650    9.3440    5.4830 C   0  0  0  0  0  0  0  0  0  0  0  0
   12.7950    9.0960    5.3260 N   0  0  0  0  0  0  0  0  0  0  0  0
   12.0680    9.9570    4.3600 C   0  0  0  0  0  0  0  0  0  0  0  0
   10.5870    9.8240    4.4880 C   0  0  0  0  0  0  0  0  0  0  0  0
    9.7040   10.5140    3.7470 C   0  0  0  0  0  0  0  0  0  0  0  0
    8.2470   10.4050    3.9090 C   0  0  0  0  0  0  0  0  0  0  0  0
    7.3700   10.4230    2.8170 C   0  0  0  0  0  0  0  0  0  0  0  0
    5.9870   10.3340    3.0140 C   0  0  0  0  0  0  0  0  0  0  0  0
    5.4780   10.2380    4.3060 C   0  0  0  0  0  0  0  0  0  0  0  0
    3.6120   10.1140    4.5730 Br  0  0  0  0  0  0  0  0  0  0  0  0
    6.3360   10.2360    5.4030 C   0  0  0  0  0  0  0  0  0  0  0  0
    7.7170   10.3260    5.2040 C   0  0  0  0  0  0  0  0  0  0  0  0
   13.6180    9.0410    1.3610 C   0  0  0  0  0  0  0  0  0  0  0  0
   14.4980   10.0850    1.0300 C   0  0  0  0  0  0  0  0  0  0  0  0
   14.0280   11.2060    0.3580 C   0  0  0  0  0  0  0  0  0  0  0  0
   12.6820   11.2910    0.0170 C   0  0  0  0  0  0  0  0  0  0  0  0
   11.7920   10.2470    0.3260 C   0  0  0  0  0  0  0  0  0  0  0  0
   10.4430   10.3320   -0.0240 C   0  0  0  0  0  0  0  0  0  0  0  0
    9.5230    9.3750    0.2240 N   0  0  0  0  0  0  0  0  0  0  0  0
    9.9640    8.2600    0.8270 C   0  0  0  0  0  0  0  0  0  0  0  0
   11.2800    8.0720    1.2260 C   0  0  0  0  0  0  0  0  0  0  0  0
   12.2420    9.0840    0.9940 C   0  0  0  0  0  0  0  0  0  0  0  0
   16.1010    8.8950    3.0630 H   0  0  0  0  0  0  0  0  0  0  0  0
   14.5628    7.2458    5.0221 H   0  0  0  0  0  0  0  0  0  0  0  0
   16.0782    8.1707    5.3455 H   0  0  0  0  0  0  0  0  0  0  0  0
   14.5042    9.4204    6.5540 H   0  0  0  0  0  0  0  0  0  0  0  0
   14.5194   10.2792    4.9627 H   0  0  0  0  0  0  0  0  0  0  0  0
   12.6380    8.1120    5.0250 H   0  0  0  0  0  0  0  0  0  0  0  0
   12.3250    9.1370    6.2380 H   0  0  0  0  0  0  0  0  0  0  0  0
   12.3463   11.0057    4.5413 H   0  0  0  0  0  0  0  0  0  0  0  0
   12.3488    9.6373    3.3456 H   0  0  0  0  0  0  0  0  0  0  0  0
   10.1945    9.1179    5.2346 H   0  0  0  0  0  0  0  0  0  0  0  0
   10.0922   11.1975    2.9775 H   0  0  0  0  0  0  0  0  0  0  0  0
    7.7713   10.5078    1.7963 H   0  0  0  0  0  0  0  0  0  0  0  0
    5.3050   10.3399    2.1510 H   0  0  0  0  0  0  0  0  0  0  0  0
    5.9287   10.1639    6.4223 H   0  0  0  0  0  0  0  0  0  0  0  0
    8.3934   10.3349    6.0714 H   0  0  0  0  0  0  0  0  0  0  0  0
   15.5611   10.0145    1.3035 H   0  0  0  0  0  0  0  0  0  0  0  0
   14.7169   12.0228    0.0966 H   0  0  0  0  0  0  0  0  0  0  0  0
   12.3089   12.1867   -0.5012 H   0  0  0  0  0  0  0  0  0  0  0  0
   10.1054   11.2437   -0.5386 H   0  0  0  0  0  0  0  0  0  0  0  0
    9.2430    7.4509    1.0153 H   0  0  0  0  0  0  0  0  0  0  0  0
   11.5755    7.1361    1.7228 H   0  0  0  0  0  0  0  0  0  0  0  0
  1  2  2  0
  2  3  2  0
  2  4  1  0
  4  5  1  0
  5  6  1  0
  6  7  1  0
  7  8  1  0
  8  9  1  0
  9 10  2  0
 10 11  1  0
 11 12  2  0
 12 13  1  0
 13 14  2  0
 14 15  1  0
 14 16  1  0
 16 17  2  0
  2 18  1  0
 18 19  2  0
 19 20  1  0
 20 21  2  0
 21 22  1  0
 22 23  2  0
 23 24  1  0
 24 25  2  0
 25 26  1  0
 26 27  2  0
 17 11  1  0
 27 18  1  0
 27 22  1  0
  4 28  1  0
  5 29  1  0
  5 30  1  0
  6 31  1  0
  6 32  1  0
  7 33  1  0
  7 34  1  0
  8 35  1  0
  8 36  1  0
  9 37  1  0
 10 38  1  0
 12 39  1  0
 13 40  1  0
 16 41  1  0
 17 42  1  0
 19 43  1  0
 20 44  1  0
 21 45  1  0
 23 46  1  0
 25 47  1  0
 26 48  1  0
M  CHG  1   7   1
M  END
>  <meeko>  (3) 
{"is_sidechain": [false], "free_energy": -8.797, "intermolecular_energy": -12.382, "internal_energy": -1.323}

$$$$
1ydt_ligand
     RDKit          3D

 48 50  0  0  0  0  0  0  0  0999 V2000
    8.7150    8.7310    4.8430 O   0  0  0  0  0  0  0  0  0  0  0  0
    8.6850   10.0270    4.1840 S   0  0  0  0  0  0  0  0  0  0  0  0
    8.8280   11.2510    4.9300 O   0  0  0  0  0  0  0  0  0  0  0  0
    9.9870    9.9390    3.1390 N   0  0  0  0  0  0  0  0  0  0  0  0
   11.3440   10.3170    3.5520 C   0  0  0  0  0  0  0  0  0  0  0  0
   11.8230    9.4300    4.7190 C   0  0  0  0  0  0  0  0  0  0  0  0
   11.8130    7.9810    4.3320 N   0  0  0  0  0  0  0  0  0  0  0  0
   13.1290    7.2980    4.2560 C   0  0  0  0  0  0  0  0  0  0  0  0
   13.7430    7.4040    2.9000 C   0  0  0  0  0  0  0  0  0  0  0  0
   14.3030    8.5250    2.4150 C   0  0  0  0  0  0  0  0  0  0  0  0
   14.8690    8.6310    1.0620 C   0  0  0  0  0  0  0  0  0  0  0  0
   15.8280    7.7310    0.5800 C   0  0  0  0  0  0  0  0  0  0  0  0
   16.3550    7.8750   -0.7080 C   0  0  0  0  0  0  0  0  0  0  0  0
   15.9310    8.9280   -1.5140 C   0  0  0  0  0  0  0  0  0  0  0  0
   16.6400    9.1230   -3.2550 Br  0  0  0  0  0  0  0  0  0  0  0  0
   14.9920    9.8420   -1.0430 C   0  0  0  0  0  0  0  0  0  0  0  0
   14.4670    9.6960    0.2440 C   0  0  0  0  0  0  0  0  0  0  0  0
    7.2770   10.1230    3.1130 C   0  0  0  0  0  0  0  0  0  0  0  0
    7.5290   10.3030    1.7420 C   0  0  0  0  0  0  0  0  0  0  0  0
    6.4710   10.4450    0.8530 C   0  0  0  0  0  0  0  0  0  0  0  0
    5.1640   10.4130    1.3270 C   0  0  0  0  0  0  0  0  0  0  0  0
    4.8950   10.2170    2.6930 C   0  0  0  0  0  0  0  0  0  0  0  0
    3.5810   10.1770    3.1640 C   0  0  0  0  0  0  0  0  0  0  0  0
    3.2340    9.9830    4.4540 N   0  0  0  0  0  0  0  0  0  0  0  0
    4.2370    9.7910    5.3250 C   0  0  0  0  0  0  0  0  0  0  0  0
    5.5780    9.8190    4.9690 C   0  0  0  0  0  0  0  0  0  0  0  0
    5.9480   10.0500    3.6220 C   0  0  0  0  0  0  0  0  0  0  0  0
    9.8210    9.4650    2.2480 H   0  0  0  0  0  0  0  0  0  0  0  0
   12.0287   10.1941    2.6999 H   0  0  0  0  0  0  0  0  0  0  0  0
   11.3344   11.3656    3.8843 H   0  0  0  0  0  0  0  0  0  0  0  0
   12.8470    9.7214    4.9955 H   0  0  0  0  0  0  0  0  0  0  0  0
   11.1395    9.5704    5.5693 H   0  0  0  0  0  0  0  0  0  0  0  0
   11.2370    7.4420    5.0100 H   0  0  0  0  0  0  0  0  0  0  0  0
   11.3120    7.8490    3.4460 H   0  0  0  0  0  0  0  0  0  0  0  0
   13.8087    7.7566    4.9892 H   0  0  0  0  0  0  0  0  0  0  0  0
   12.9681    6.2312    4.4708 H   0  0  0  0  0  0  0  0  0  0  0  0
   13.7368    6.5103    2.2587 H   0  0  0  0  0  0  0  0  0  0  0  0
   14.3400    9.4114    3.0653 H   0  0  0  0  0  0  0  0  0  0  0  0
   16.1697    6.9039    1.2196 H   0  0  0  0  0  0  0  0  0  0  0  0
   17.1015    7.1590   -1.0824 H   0  0  0  0  0  0  0  0  0  0  0  0
   14.6647   10.6758   -1.6815 H   0  0  0  0  0  0  0  0  0  0  0  0
   13.7317   10.4234    0.6184 H   0  0  0  0  0  0  0  0  0  0  0  0
    8.5648   10.3315    1.3727 H   0  0  0  0  0  0  0  0  0  0  0  0
    6.6662   10.5821   -0.2208 H   0  0  0  0  0  0  0  0  0  0  0  0
    4.3287   10.5429    0.6231 H   0  0  0  0  0  0  0  0  0  0  0  0
    2.7713   10.3132    2.4319 H   0  0  0  0  0  0  0  0  0  0  0  0
    3.9822    9.6012    6.3781 H   0  0  0  0  0  0  0  0  0  0  0  0
    6.3534    9.6617    5.7332 H   0  0  0  0  0  0  0  0  0  0  0  0
  1  2  2  0
  2  3  2  0
  2  4  1  0
  4  5  1  0
  5  6  1  0
  6  7  1  0
  7  8  1  0
  8  9  1  0
  9 10  2  0
 10 11  1  0
 11 12  2  0
 12 13  1  0
 13 14  2  0
 14 15  1  0
 14 16  1  0
 16 17  2  0
  2 18  1  0
 18 19  2  0
 19 20  1  0
 20 21  2  0
 21 22  1  0
 22 23  2  0
 23 24  1  0
 24 25  2  0
 25 26  1  0
 26 27  2  0
 17 11  1  0
 27 18  1  0
 27 22  1  0
  4 28  1  0
  5 29  1  0
  5 30  1  0
  6 31  1  0
  6 32  1  0
  7 33  1  0
  7 34  1  0
  8 35  1  0
  8 36  1  0
  9 37  1  0
 10 38  1  0
 12 39  1  0
 13 40  1  0
 16 41  1  0
 17 42  1  0
 19 43  1  0
 20 44  1  0
 21 45  1  0
 23 46  1  0
 25 47  1  0
 26 48  1  0
M  CHG  1   7   1
M  END
>  <meeko>  (4) 
{"is_sidechain": [false], "free_energy": -8.755, "intermolecular_energy": -13.0, "internal_energy": -0.642}

$$$$
1ydt_ligand
     RDKit          3D

 48 50  0  0  0  0  0  0  0  0999 V2000
   11.0840    9.2880    2.3000 O   0  0  0  0  0  0  0  0  0  0  0  0
   10.2300    8.2200    2.7960 S   0  0  0  0  0  0  0  0  0  0  0  0
    9.9180    7.0720    1.9840 O   0  0  0  0  0  0  0  0  0  0  0  0
   11.0780    7.6600    4.1240 N   0  0  0  0  0  0  0  0  0  0  0  0
   12.3210    8.2950    4.5800 C   0  0  0  0  0  0  0  0  0  0  0  0
   13.4170    7.2350    4.8100 C   0  0  0  0  0  0  0  0  0  0  0  0
   14.1570    6.9400    3.5390 N   0  0  0  0  0  0  0  0  0  0  0  0
   15.4960    7.5600    3.3830 C   0  0  0  0  0  0  0  0  0  0  0  0
   15.4470    8.8210    2.5880 C   0  0  0  0  0  0  0  0  0  0  0  0
   14.5280    9.0760    1.6410 C   0  0  0  0  0  0  0  0  0  0  0  0
   14.5120   10.3050    0.8350 C   0  0  0  0  0  0  0  0  0  0  0  0
   15.4610   10.5570   -0.1640 C   0  0  0  0  0  0  0  0  0  0  0  0
   15.4210   11.7470   -0.8990 C   0  0  0  0  0  0  0  0  0  0  0  0
   14.4370   12.6950   -0.6280 C   0  0  0  0  0  0  0  0  0  0  0  0
   14.3820   14.3010   -1.6210 Br  0  0  0  0  0  0  0  0  0  0  0  0
   13.4980   12.4670    0.3740 C   0  0  0  0  0  0  0  0  0  0  0  0
   13.5390   11.2780    1.1070 C   0  0  0  0  0  0  0  0  0  0  0  0
    8.7500    8.9050    3.4850 C   0  0  0  0  0  0  0  0  0  0  0  0
    8.5450    8.7260    4.8640 C   0  0  0  0  0  0  0  0  0  0  0  0
    7.3770    9.1860    5.4590 C   0  0  0  0  0  0  0  0  0  0  0  0
    6.4120    9.8210    4.6840 C   0  0  0  0  0  0  0  0  0  0  0  0
    6.6110   10.0240    3.3080 C   0  0  0  0  0  0  0  0  0  0  0  0
    5.6440   10.6690    2.5340 C   0  0  0  0  0  0  0  0  0  0  0  0
    5.7570   10.9140    1.2110 N   0  0  0  0  0  0  0  0  0  0  0  0
    6.8980   10.5250    0.6230 C   0  0  0  0  0  0  0  0  0  0  0  0
    7.9210    9.8680    1.2920 C   0  0  0  0  0  0  0  0  0  0  0  0
    7.7960    9.5840    2.6740 C   0  0  0  0  0  0  0  0  0  0  0  0
   10.6090    6.9510    4.6940 H   0  0  0  0  0  0  0  0  0  0  0  0
   12.6632    9.0097    3.8171 H   0  0  0  0  0  0  0  0  0  0  0  0
   12.1264    8.8167    5.5287 H   0  0  0  0  0  0  0  0  0  0  0  0
   14.1279    7.6101    5.5610 H   0  0  0  0  0  0  0  0  0  0  0  0
   12.9391    6.3080    5.1597 H   0  0  0  0  0  0  0  0  0  0  0  0
   14.2900    5.9130    3.4430 H   0  0  0  0  0  0  0  0  0  0  0  0
   13.5780    7.1750    2.7240 H   0  0  0  0  0  0  0  0  0  0  0  0
   15.8993    7.7865    4.3810 H   0  0  0  0  0  0  0  0  0  0  0  0
   16.1362    6.8467    2.8432 H   0  0  0  0  0  0  0  0  0  0  0  0
   16.2089    9.5886    2.7888 H   0  0  0  0  0  0  0  0  0  0  0  0
   13.7456    8.3244    1.4594 H   0  0  0  0  0  0  0  0  0  0  0  0
   16.2442    9.8132   -0.3724 H   0  0  0  0  0  0  0  0  0  0  0  0
   16.1642   11.9333   -1.6883 H   0  0  0  0  0  0  0  0  0  0  0  0
   12.7259   13.2207    0.5882 H   0  0  0  0  0  0  0  0  0  0  0  0
   12.8017   11.1035    1.9044 H   0  0  0  0  0  0  0  0  0  0  0  0
    9.3099    8.2213    5.4724 H   0  0  0  0  0  0  0  0  0  0  0  0
    7.2159    9.0487    6.5384 H   0  0  0  0  0  0  0  0  0  0  0  0
    5.4806   10.1689    5.1547 H   0  0  0  0  0  0  0  0  0  0  0  0
    4.7245   11.0012    3.0382 H   0  0  0  0  0  0  0  0  0  0  0  0
    7.0301   10.7384   -0.4480 H   0  0  0  0  0  0  0  0  0  0  0  0
    8.8292    9.5677    0.7489 H   0  0  0  0  0  0  0  0  0  0  0  0
  1  2  2  0
  2  3  2  0
  2  4  1  0
  4  5  1  0
  5  6  1  0
  6  7  1  0
  7  8  1  0
  8  9  1  0
  9 10  2  0
 10 11  1  0
 11 12  2  0
 12 13  1  0
 13 14  2  0
 14 15  1  0
 14 16  1  0
 16 17  2  0
  2 18  1  0
 18 19  2  0
 19 20  1  0
 20 21  2  0
 21 22  1  0
 22 23  2  0
 23 24  1  0
 24 25  2  0
 25 26  1  0
 26 27  2  0
 17 11  1  0
 27 18  1  0
 27 22  1  0
  4 28  1  0
  5 29  1  0
  5 30  1  0
  6 31  1  0
  6 32  1  0
  7 33  1  0
  7 34  1  0
  8 35  1  0
  8 36  1  0
  9 37  1  0
 10 38  1  0
 12 39  1  0
 13 40  1  0
 16 41  1  0
 17 42  1  0
 19 43  1  0
 20 44  1  0
 21 45  1  0
 23 46  1  0
 25 47  1  0
 26 48  1  0
M  CHG  1   7   1
M  END
>  <meeko>  (5) 
{"is_sidechain": [false], "free_energy": -8.698, "intermolecular_energy": -12.676, "internal_energy": -0.882}

$$$$
1ydt_ligand
     RDKit          3D

 48 50  0  0  0  0  0  0  0  0999 V2000
   16.1680    8.9770    1.6620 O   0  0  0  0  0  0  0  0  0  0  0  0
   15.7580    8.2150    0.4930 S   0  0  0  0  0  0  0  0  0  0  0  0
   16.4790    7.0420    0.0710 O   0  0  0  0  0  0  0  0  0  0  0  0
   14.2150    7.7180    0.9010 N   0  0  0  0  0  0  0  0  0  0  0  0
   13.7700    7.6250    2.2970 C   0  0  0  0  0  0  0  0  0  0  0  0
   12.3080    8.0960    2.4320 C   0  0  0  0  0  0  0  0  0  0  0  0
   11.5860    7.9960    1.1210 N   0  0  0  0  0  0  0  0  0  0  0  0
   10.8180    9.1890    0.6860 C   0  0  0  0  0  0  0  0  0  0  0  0
    9.4910    9.2840    1.3630 C   0  0  0  0  0  0  0  0  0  0  0  0
    9.2210   10.1280    2.3730 C   0  0  0  0  0  0  0  0  0  0  0  0
    7.9230   10.1850    3.0590 C   0  0  0  0  0  0  0  0  0  0  0  0
    7.8130   10.1740    4.4550 C   0  0  0  0  0  0  0  0  0  0  0  0
    6.5570   10.2130    5.0700 C   0  0  0  0  0  0  0  0  0  0  0  0
    5.4050   10.2500    4.2890 C   0  0  0  0  0  0  0  0  0  0  0  0
    3.7090   10.3040    5.1180 Br  0  0  0  0  0  0  0  0  0  0  0  0
    5.4970   10.2430    2.9000 C   0  0  0  0  0  0  0  0  0  0  0  0
    6.7530   10.2040    2.2870 C   0  0  0  0  0  0  0  0  0  0  0  0
   15.5110    9.3080   -0.8790 C   0  0  0  0  0  0  0  0  0  0  0  0
   15.9570    8.8660   -2.1360 C   0  0  0  0  0  0  0  0  0  0  0  0
   15.8490    9.6960   -3.2450 C   0  0  0  0  0  0  0  0  0  0  0  0
   15.3010   10.9670   -3.1030 C   0  0  0  0  0  0  0  0  0  0  0  0
   14.8340   11.4170   -1.8560 C   0  0  0  0  0  0  0  0  0  0  0  0
   14.2770   12.6900   -1.7190 C   0  0  0  0  0  0  0  0  0  0  0  0
   13.7960   13.1980   -0.5640 N   0  0  0  0  0  0  0  0  0  0  0  0
   13.8420   12.3950    0.5100 C   0  0  0  0  0  0  0  0  0  0  0  0
   14.3810   11.1170    0.4910 C   0  0  0  0  0  0  0  0  0  0  0  0
   14.9130   10.5900   -0.7110 C   0  0  0  0  0  0  0  0  0  0  0  0
   13.5490    7.6290    0.1290 H   0  0  0  0  0  0  0  0  0  0  0  0
   13.8457    6.5800    2.6319 H   0  0  0  0  0  0  0  0  0  0  0  0
   14.4096    8.2701    2.9173 H   0  0  0  0  0  0  0  0  0  0  0  0
   11.7947    7.4666    3.1739 H   0  0  0  0  0  0  0  0  0  0  0  0
   12.3078    9.1484    2.7520 H   0  0  0  0  0  0  0  0  0  0  0  0
   12.2680    7.7880    0.3630 H   0  0  0  0  0  0  0  0  0  0  0  0
   10.9710    7.1750    1.1120 H   0  0  0  0  0  0  0  0  0  0  0  0
   11.4014   10.0911    0.9222 H   0  0  0  0  0  0  0  0  0  0  0  0
   10.6392    9.0991   -0.3956 H   0  0  0  0  0  0  0  0  0  0  0  0
    8.6847    8.6224    1.0136 H   0  0  0  0  0  0  0  0  0  0  0  0
   10.0149   10.8135    2.7043 H   0  0  0  0  0  0  0  0  0  0  0  0
    8.7219   10.1344    5.0733 H   0  0  0  0  0  0  0  0  0  0  0  0
    6.4799   10.2144    6.1673 H   0  0  0  0  0  0  0  0  0  0  0  0
    4.5843   10.2681    2.2865 H   0  0  0  0  0  0  0  0  0  0  0  0
    6.8237   10.1881    1.1894 H   0  0  0  0  0  0  0  0  0  0  0  0
   16.3923    7.8614   -2.2422 H   0  0  0  0  0  0  0  0  0  0  0  0
   16.1950    9.3501   -4.2302 H   0  0  0  0  0  0  0  0  0  0  0  0
   15.2323   11.6289   -3.9789 H   0  0  0  0  0  0  0  0  0  0  0  0
   14.2264   13.3245   -2.6161 H   0  0  0  0  0  0  0  0  0  0  0  0
   13.4295   12.7709    1.4579 H   0  0  0  0  0  0  0  0  0  0  0  0
   14.3952   10.5126    1.4100 H   0  0  0  0  0  0  0  0  0  0  0  0
  1  2  2  0
  2  3  2  0
  2  4  1  0
  4  5  1  0
  5  6  1  0
  6  7  1  0
  7  8  1  0
  8  9  1  0
  9 10  2  0
 10 11  1  0
 11 12  2  0
 12 13  1  0
 13 14  2  0
 14 15  1  0
 14 16  1  0
 16 17  2  0
  2 18  1  0
 18 19  2  0
 19 20  1  0
 20 21  2  0
 21 22  1  0
 22 23  2  0
 23 24  1  0
 24 25  2  0
 25 26  1  0
 26 27  2  0
 17 11  1  0
 27 18  1  0
 27 22  1  0
  4 28  1  0
  5 29  1  0
  5 30  1  0
  6 31  1  0
  6 32  1  0
  7 33  1  0
  7 34  1  0
  8 35  1  0
  8 36  1  0
  9 37  1  0
 10 38  1  0
 12 39  1  0
 13 40  1  0
 16 41  1  0
 17 42  1  0
 19 43  1  0
 20 44  1  0
 21 45  1  0
 23 46  1  0
 25 47  1  0
 26 48  1  0
M  CHG  1   7   1
M  END
>  <meeko>  (6) 
{"is_sidechain": [false], "free_energy": -8.655, "intermolecular_energy": -13.052, "internal_energy": -0.445}

$$$$
1ydt_ligand
     RDKit          3D

 48 50  0  0  0  0  0  0  0  0999 V2000
   11.7780    9.9510   -0.0430 O   0  0  0  0  0  0  0  0  0  0  0  0
   12.9740    9.9740    0.7840 S   0  0  0  0  0  0  0  0  0  0  0  0
   13.0210   10.7280    2.0110 O   0  0  0  0  0  0  0  0  0  0  0  0
   13.1700    8.3650    1.1930 N   0  0  0  0  0  0  0  0  0  0  0  0
   13.7440    7.9530    2.4800 C   0  0  0  0  0  0  0  0  0  0  0  0
   12.6620    7.3180    3.3770 C   0  0  0  0  0  0  0  0  0  0  0  0
   12.5790    8.0190    4.7000 N   0  0  0  0  0  0  0  0  0  0  0  0
   12.0090    9.3890    4.6980 C   0  0  0  0  0  0  0  0  0  0  0  0
   10.5170    9.3810    4.7110 C   0  0  0  0  0  0  0  0  0  0  0  0
    9.7540   10.1540    3.9200 C   0  0  0  0  0  0  0  0  0  0  0  0
    8.2850   10.1670    3.9690 C   0  0  0  0  0  0  0  0  0  0  0  0
    7.4980   10.1890    2.8110 C   0  0  0  0  0  0  0  0  0  0  0  0
    6.1020   10.2170    2.9010 C   0  0  0  0  0  0  0  0  0  0  0  0
    5.4890   10.2360    4.1510 C   0  0  0  0  0  0  0  0  0  0  0  0
    3.6050   10.2720    4.2730 Br  0  0  0  0  0  0  0  0  0  0  0  0
    6.2580   10.2320    5.3110 C   0  0  0  0  0  0  0  0  0  0  0  0
    7.6530   10.2040    5.2200 C   0  0  0  0  0  0  0  0  0  0  0  0
   14.3890   10.3420   -0.2150 C   0  0  0  0  0  0  0  0  0  0  0  0
   15.1870    9.2570   -0.6160 C   0  0  0  0  0  0  0  0  0  0  0  0
   16.3440    9.4780   -1.3520 C   0  0  0  0  0  0  0  0  0  0  0  0
   16.7100   10.7780   -1.6870 C   0  0  0  0  0  0  0  0  0  0  0  0
   15.9130   11.8720   -1.3080 C   0  0  0  0  0  0  0  0  0  0  0  0
   16.2800   13.1750   -1.6520 C   0  0  0  0  0  0  0  0  0  0  0  0
   15.5700   14.2800   -1.3400 N   0  0  0  0  0  0  0  0  0  0  0  0
   14.4210   14.0880   -0.6730 C   0  0  0  0  0  0  0  0  0  0  0  0
   13.9650   12.8400   -0.2730 C   0  0  0  0  0  0  0  0  0  0  0  0
   14.7200   11.6800   -0.5740 C   0  0  0  0  0  0  0  0  0  0  0  0
   12.7300    7.6830    0.5700 H   0  0  0  0  0  0  0  0  0  0  0  0
   14.5427    7.2181    2.3012 H   0  0  0  0  0  0  0  0  0  0  0  0
   14.1507    8.8400    2.9878 H   0  0  0  0  0  0  0  0  0  0  0  0
   11.6881    7.3894    2.8707 H   0  0  0  0  0  0  0  0  0  0  0  0
   12.9286    6.2657    3.5549 H   0  0  0  0  0  0  0  0  0  0  0  0
   12.0000    7.4570    5.3560 H   0  0  0  0  0  0  0  0  0  0  0  0
   13.4980    8.0340    5.1560 H   0  0  0  0  0  0  0  0  0  0  0  0
   12.3678    9.9228    5.5904 H   0  0  0  0  0  0  0  0  0  0  0  0
   12.3350    9.8880    3.7735 H   0  0  0  0  0  0  0  0  0  0  0  0
   10.0106    8.7004    5.4112 H   0  0  0  0  0  0  0  0  0  0  0  0
   10.2560   10.8130    3.1963 H   0  0  0  0  0  0  0  0  0  0  0  0
    7.9811   10.1842    1.8228 H   0  0  0  0  0  0  0  0  0  0  0  0
    5.4904   10.2240    1.9867 H   0  0  0  0  0  0  0  0  0  0  0  0
    5.7698   10.2508    6.2965 H   0  0  0  0  0  0  0  0  0  0  0  0
    8.2597   10.2111    6.1375 H   0  0  0  0  0  0  0  0  0  0  0  0
   14.8949    8.2313   -0.3466 H   0  0  0  0  0  0  0  0  0  0  0  0
   16.9681    8.6293   -1.6686 H   0  0  0  0  0  0  0  0  0  0  0  0
   17.6353   10.9518   -2.2559 H   0  0  0  0  0  0  0  0  0  0  0  0
   17.2139   13.3104   -2.2173 H   0  0  0  0  0  0  0  0  0  0  0  0
   13.8074   14.9681   -0.4303 H   0  0  0  0  0  0  0  0  0  0  0  0
   13.0170   12.7515    0.2779 H   0  0  0  0  0  0  0  0  0  0  0  0
  1  2  2  0
  2  3  2  0
  2  4  1  0
  4  5  1  0
  5  6  1  0
  6  7  1  0
  7  8  1  0
  8  9  1  0
  9 10  2  0
 10 11  1  0
 11 12  2  0
 12 13  1  0
 13 14  2  0
 14 15  1  0
 14 16  1  0
 16 17  2  0
  2 18  1  0
 18 19  2  0
 19 20  1  0
 20 21  2  0
 21 22  1  0
 22 23  2  0
 23 24  1  0
 24 25  2  0
 25 26  1  0
 26 27  2  0
 17 11  1  0
 27 18  1  0
 27 22  1  0
  4 28  1  0
  5 29  1  0
  5 30  1  0
  6 31  1  0
  6 32  1  0
  7 33  1  0
  7 34  1  0
  8 35  1  0
  8 36  1  0
  9 37  1  0
 10 38  1  0
 12 39  1  0
 13 40  1  0
 16 41  1  0
 17 42  1  0
 19 43  1  0
 20 44  1  0
 21 45  1  0
 23 46  1  0
 25 47  1  0
 26 48  1  0
M  CHG  1   7   1
M  END
>  <meeko>  (7) 
{"is_sidechain": [false], "free_energy": -8.621, "intermolecular_energy": -12.834, "internal_energy": -0.612}

$$$$
1ydt_ligand
     RDKit          3D

 48 50  0  0  0  0  0  0  0  0999 V2000
    9.1620    7.2350    3.1600 O   0  0  0  0  0  0  0  0  0  0  0  0
    8.7760    8.4800    3.8060 S   0  0  0  0  0  0  0  0  0  0  0  0
    8.2540    8.4970    5.1480 O   0  0  0  0  0  0  0  0  0  0  0  0
   10.2100    9.3400    3.8300 N   0  0  0  0  0  0  0  0  0  0  0  0
   10.9720    9.5480    5.0670 C   0  0  0  0  0  0  0  0  0  0  0  0
   12.3260    8.8130    4.9990 C   0  0  0  0  0  0  0  0  0  0  0  0
   12.1750    7.4640    4.3610 N   0  0  0  0  0  0  0  0  0  0  0  0
   13.0640    7.1630    3.2110 C   0  0  0  0  0  0  0  0  0  0  0  0
   13.4790    8.3960    2.4800 C   0  0  0  0  0  0  0  0  0  0  0  0
   12.8260    8.8950    1.4170 C   0  0  0  0  0  0  0  0  0  0  0  0
   13.2660   10.0880    0.6790 C   0  0  0  0  0  0  0  0  0  0  0  0
   14.4090   10.0870   -0.1300 C   0  0  0  0  0  0  0  0  0  0  0  0
   14.8040   11.2480   -0.8030 C   0  0  0  0  0  0  0  0  0  0  0  0
   14.0630   12.4180   -0.6590 C   0  0  0  0  0  0  0  0  0  0  0  0
   14.5940   13.9860   -1.5690 Br  0  0  0  0  0  0  0  0  0  0  0  0
   12.9340   12.4390    0.1570 C   0  0  0  0  0  0  0  0  0  0  0  0
   12.5410   11.2780    0.8280 C   0  0  0  0  0  0  0  0  0  0  0  0
    7.7280    9.4160    2.7280 C   0  0  0  0  0  0  0  0  0  0  0  0
    6.5060    9.8640    3.2570 C   0  0  0  0  0  0  0  0  0  0  0  0
    5.6090   10.5540    2.4510 C   0  0  0  0  0  0  0  0  0  0  0  0
    5.9260   10.7950    1.1180 C   0  0  0  0  0  0  0  0  0  0  0  0
    7.1520   10.3680    0.5790 C   0  0  0  0  0  0  0  0  0  0  0  0
    7.4700   10.6190   -0.7580 C   0  0  0  0  0  0  0  0  0  0  0  0
    8.6260   10.2550   -1.3530 N   0  0  0  0  0  0  0  0  0  0  0  0
    9.5300    9.6330   -0.5810 C   0  0  0  0  0  0  0  0  0  0  0  0
    9.3170    9.3260    0.7550 C   0  0  0  0  0  0  0  0  0  0  0  0
    8.0950    9.6800    1.3770 C   0  0  0  0  0  0  0  0  0  0  0  0
   10.6070    9.5830    2.9190 H   0  0  0  0  0  0  0  0  0  0  0  0
   11.1513   10.6245    5.2047 H   0  0  0  0  0  0  0  0  0  0  0  0
   10.3929    9.1481    5.9124 H   0  0  0  0  0  0  0  0  0  0  0  0
   13.0319    9.4138    4.4068 H   0  0  0  0  0  0  0  0  0  0  0  0
   12.7015    8.6755    6.0238 H   0  0  0  0  0  0  0  0  0  0  0  0
   12.3430    6.7220    5.0700 H   0  0  0  0  0  0  0  0  0  0  0  0
   11.1990    7.3050    4.0860 H   0  0  0  0  0  0  0  0  0  0  0  0
   13.9643    6.6524    3.5836 H   0  0  0  0  0  0  0  0  0  0  0  0
   12.5040    6.5274    2.5093 H   0  0  0  0  0  0  0  0  0  0  0  0
   14.3742    8.9289    2.8330 H   0  0  0  0  0  0  0  0  0  0  0  0
   11.9124    8.3830    1.0806 H   0  0  0  0  0  0  0  0  0  0  0  0
   15.0009    9.1660   -0.2371 H   0  0  0  0  0  0  0  0  0  0  0  0
   15.6977   11.2367   -1.4443 H   0  0  0  0  0  0  0  0  0  0  0  0
   12.3539   13.3664    0.2727 H   0  0  0  0  0  0  0  0  0  0  0  0
   11.6546   11.2983    1.4790 H   0  0  0  0  0  0  0  0  0  0  0  0
    6.2590    9.6682    4.3109 H   0  0  0  0  0  0  0  0  0  0  0  0
    4.6532   10.9079    2.8647 H   0  0  0  0  0  0  0  0  0  0  0  0
    5.2075   11.3269    0.4771 H   0  0  0  0  0  0  0  0  0  0  0  0
    6.7259   11.1508   -1.3692 H   0  0  0  0  0  0  0  0  0  0  0  0
   10.4928    9.3510   -1.0321 H   0  0  0  0  0  0  0  0  0  0  0  0
   10.0974    8.8075    1.3313 H   0  0  0  0  0  0  0  0  0  0  0  0
  1  2  2  0
  2  3  2  0
  2  4  1  0
  4  5  1  0
  5  6  1  0
  6  7  1  0
  7  8  1  0
  8  9  1  0
  9 10  2  0
 10 11  1  0
 11 12  2  0
 12 13  1  0
 13 14  2  0
 14 15  1  0
 14 16  1  0
 16 17  2  0
  2 18  1  0
 18 19  2  0
 19 20  1  0
 20 21  2  0
 21 22  1  0
 22 23  2  0
 23 24  1  0
 24 25  2  0
 25 26  1  0
 26 27  2  0
 17 11  1  0
 27 18  1  0
 27 22  1  0
  4 28  1  0
  5 29  1  0
  5 30  1  0
  6 31  1  0
  6 32  1  0
  7 33  1  0
  7 34  1  0
  8 35  1  0
  8 36  1  0
  9 37  1  0
 10 38  1  0
 12 39  1  0
 13 40  1  0
 16 41  1  0
 17 42  1  0
 19 43  1  0
 20 44  1  0
 21 45  1  0
 23 46  1  0
 25 47  1  0
 26 48  1  0
M  CHG  1   7   1
M  END
>  <meeko>  (8) 
{"is_sidechain": [false], "free_energy": -8.606, "intermolecular_energy": -12.21, "internal_energy": -1.214}

$$$$
1ydt_ligand
     RDKit          3D

 48 50  0  0  0  0  0  0  0  0999 V2000
   16.7290    8.0380    0.9990 O   0  0  0  0  0  0  0  0  0  0  0  0
   15.3650    8.5320    1.1030 S   0  0  0  0  0  0  0  0  0  0  0  0
   14.2430    7.6290    1.1500 O   0  0  0  0  0  0  0  0  0  0  0  0
   15.3840    9.3610    2.5540 N   0  0  0  0  0  0  0  0  0  0  0  0
   15.1960    8.6830    3.8420 C   0  0  0  0  0  0  0  0  0  0  0  0
   13.8960    9.1600    4.5210 C   0  0  0  0  0  0  0  0  0  0  0  0
   12.7310    9.0670    3.5800 N   0  0  0  0  0  0  0  0  0  0  0  0
   12.0980   10.3450    3.1690 C   0  0  0  0  0  0  0  0  0  0  0  0
   10.6670   10.4240    3.5810 C   0  0  0  0  0  0  0  0  0  0  0  0
    9.6640    9.8040    2.9370 C   0  0  0  0  0  0  0  0  0  0  0  0
    8.2520    9.9210    3.3280 C   0  0  0  0  0  0  0  0  0  0  0  0
    7.2230   10.0540    2.3870 C   0  0  0  0  0  0  0  0  0  0  0  0
    5.8930   10.1800    2.8000 C   0  0  0  0  0  0  0  0  0  0  0  0
    5.5880   10.1850    4.1590 C   0  0  0  0  0  0  0  0  0  0  0  0
    3.7910   10.3530    4.7180 Br  0  0  0  0  0  0  0  0  0  0  0  0
    6.6010   10.0720    5.1070 C   0  0  0  0  0  0  0  0  0  0  0  0
    7.9300    9.9460    4.6930 C   0  0  0  0  0  0  0  0  0  0  0  0
   15.0880    9.7910   -0.1120 C   0  0  0  0  0  0  0  0  0  0  0  0
   14.5410   11.0040    0.3390 C   0  0  0  0  0  0  0  0  0  0  0  0
   14.2430   12.0130   -0.5670 C   0  0  0  0  0  0  0  0  0  0  0  0
   14.4860   11.8150   -1.9230 C   0  0  0  0  0  0  0  0  0  0  0  0
   15.0490   10.6140   -2.3880 C   0  0  0  0  0  0  0  0  0  0  0  0
   15.2990   10.4220   -3.7480 C   0  0  0  0  0  0  0  0  0  0  0  0
   15.8460    9.3070   -4.2780 N   0  0  0  0  0  0  0  0  0  0  0  0
   16.1900    8.3380   -3.4160 C   0  0  0  0  0  0  0  0  0  0  0  0
   15.9790    8.4180   -2.0470 C   0  0  0  0  0  0  0  0  0  0  0  0
   15.3810    9.5740   -1.4890 C   0  0  0  0  0  0  0  0  0  0  0  0
   15.6850   10.3380    2.5130 H   0  0  0  0  0  0  0  0  0  0  0  0
   15.1391    7.5973    3.6743 H   0  0  0  0  0  0  0  0  0  0  0  0
   16.0469    8.9224    4.4967 H   0  0  0  0  0  0  0  0  0  0  0  0
   13.6983    8.5306    5.4012 H   0  0  0  0  0  0  0  0  0  0  0  0
   14.0222   10.2114    4.8188 H   0  0  0  0  0  0  0  0  0  0  0  0
   13.0260    8.5850    2.7070 H   0  0  0  0  0  0  0  0  0  0  0  0
   12.0130    8.4400    3.9600 H   0  0  0  0  0  0  0  0  0  0  0  0
   12.6467   11.1774    3.6337 H   0  0  0  0  0  0  0  0  0  0  0  0
   12.1366   10.4028    2.0712 H   0  0  0  0  0  0  0  0  0  0  0  0
   10.4173   11.0269    4.4665 H   0  0  0  0  0  0  0  0  0  0  0  0
    9.9131    9.1746    2.0699 H   0  0  0  0  0  0  0  0  0  0  0  0
    7.4633   10.0594    1.3136 H   0  0  0  0  0  0  0  0  0  0  0  0
    5.0902   10.2749    2.0540 H   0  0  0  0  0  0  0  0  0  0  0  0
    6.3562   10.0818    6.1794 H   0  0  0  0  0  0  0  0  0  0  0  0
    8.7300    9.8658    5.4437 H   0  0  0  0  0  0  0  0  0  0  0  0
   14.3485   11.1545    1.4115 H   0  0  0  0  0  0  0  0  0  0  0  0
   13.8170   12.9641   -0.2148 H   0  0  0  0  0  0  0  0  0  0  0  0
   14.2339   12.6095   -2.6408 H   0  0  0  0  0  0  0  0  0  0  0  0
   15.0314   11.2369   -4.4367 H   0  0  0  0  0  0  0  0  0  0  0  0
   16.6653    7.4305   -3.8166 H   0  0  0  0  0  0  0  0  0  0  0  0
   16.2763    7.5834   -1.3950 H   0  0  0  0  0  0  0  0  0  0  0  0
  1  2  2  0
  2  3  2  0
  2  4  1  0
  4  5  1  0
  5  6  1  0
  6  7  1  0
  7  8  1  0
  8  9  1  0
  9 10  2  0
 10 11  1  0
 11 12  2  0
 12 13  1  0
 13 14  2  0
 14 15  1  0
 14 16  1  0
 16 17  2  0
  2 18  1  0
 18 19  2  0
 19 20  1  0
 20 21  2  0
 21 22  1  0
 22 23  2  0
 23 24  1  0
 24 25  2  0
 25 26  1  0
 26 27  2  0
 17 11  1  0
 27 18  1  0
 27 22  1  0
  4 28  1  0
  5 29  1  0
  5 30  1  0
  6 31  1  0
  6 32  1  0
  7 33  1  0
  7 34  1  0
  8 35  1  0
  8 36  1  0
  9 37  1  0
 10 38  1  0
 12 39  1  0
 13 40  1  0
 16 41  1  0
 17 42  1  0
 19 43  1  0
 20 44  1  0
 21 45  1  0
 23 46  1  0
 25 47  1  0
 26 48  1  0
M  CHG  1   7   1
M  END
>  <meeko>  (9) 
{"is_sidechain": [false], "free_energy": -8.478, "intermolecular_energy": -12.481, "internal_energy": -0.755}

$$$$
