1nvq_ligand
     RDKit          3D

 63 70  0  0  0  0  0  0  0  0999 V2000
    2.6010    3.5390   12.2220 C   0  0  0  0  0  0  0  0  0  0  0  0
    2.5440    4.4090   13.4240 N   0  0  0  0  0  0  0  0  0  0  0  0
    3.3390    3.9440   14.6420 C   0  0  2  0  0  0  0  0  0  0  0  0
    2.5650    4.4240   15.8680 C   0  0  0  0  0  0  0  0  0  0  0  0
    3.4230    4.4490   17.1340 C   0  0  1  0  0  0  0  0  0  0  0  0
    4.6540    3.7570   16.9850 O   0  0  0  0  0  0  0  0  0  0  0  0
    5.5230    4.0950   15.8790 C   0  0  1  0  0  0  0  0  0  0  0  0
    6.1280    2.7030   15.5890 C   0  0  0  0  0  0  0  0  0  0  0  0
    4.7440    4.5690   14.5970 C   0  0  2  0  0  0  0  0  0  0  0  0
    4.4770    5.9830   14.4880 O   0  0  0  0  0  0  0  0  0  0  0  0
    5.3100    6.6640   13.5500 C   0  0  0  0  0  0  0  0  0  0  0  0
    6.5040    5.0820   16.3470 N   0  0  0  0  0  0  0  0  0  0  0  0
    7.8500    5.2210   16.0050 C   0  0  0  0  0  0  0  0  0  0  0  0
    8.7330    4.4460   15.2260 C   0  0  0  0  0  0  0  0  0  0  0  0
   10.0540    4.8710   15.0540 C   0  0  0  0  0  0  0  0  0  0  0  0
   10.5070    6.0470   15.6280 C   0  0  0  0  0  0  0  0  0  0  0  0
    9.6420    6.8280   16.3940 C   0  0  0  0  0  0  0  0  0  0  0  0
    8.3040    6.4210   16.5930 C   0  0  0  0  0  0  0  0  0  0  0  0
    7.2130    7.0110   17.2850 C   0  0  0  0  0  0  0  0  0  0  0  0
    6.9810    8.1810   18.0260 C   0  0  0  0  0  0  0  0  0  0  0  0
    5.6970    8.4800   18.5740 C   0  0  0  0  0  0  0  0  0  0  0  0
    4.5590    7.6680   18.4520 C   0  0  0  0  0  0  0  0  0  0  0  0
    3.1880    7.6690   18.8490 C   0  0  0  0  0  0  0  0  0  0  0  0
    2.3680    8.5650   19.5680 C   0  0  0  0  0  0  0  0  0  0  0  0
    1.0270    8.2540   19.8100 C   0  0  0  0  0  0  0  0  0  0  0  0
    0.4860    7.0590   19.3520 C   0  0  0  0  0  0  0  0  0  0  0  0
    1.2660    6.1500   18.6360 C   0  0  0  0  0  0  0  0  0  0  0  0
    2.6130    6.4730   18.3860 C   0  0  0  0  0  0  0  0  0  0  0  0
    3.6060    5.7740   17.7150 N   0  0  0  0  0  0  0  0  0  0  0  0
    4.7570    6.4960   17.7420 C   0  0  0  0  0  0  0  0  0  0  0  0
    6.1440    6.1560   17.1220 C   0  0  0  0  0  0  0  0  0  0  0  0
    5.8260    9.7590   19.2840 C   0  0  0  0  0  0  0  0  0  0  0  0
    4.9880   10.3180   19.9620 O   0  0  0  0  0  0  0  0  0  0  0  0
    7.1070   10.2280   19.0800 N   0  0  0  0  0  0  0  0  0  0  0  0
    7.9250    9.2880   18.3950 C   0  0  2  0  0  0  0  0  0  0  0  0
    8.4110    9.9420   17.2550 O   0  0  0  0  0  0  0  0  0  0  0  0
    2.6700    2.4865   12.5341 H   0  0  0  0  0  0  0  0  0  0  0  0
    1.6914    3.6843   11.6207 H   0  0  0  0  0  0  0  0  0  0  0  0
    3.4839    3.8017   11.6207 H   0  0  0  0  0  0  0  0  0  0  0  0
    2.9090    5.3500   13.1870 H   0  0  0  0  0  0  0  0  0  0  0  0
    1.5570    4.5570   13.6750 H   0  0  0  0  0  0  0  0  0  0  0  0
    3.4607    2.8511   14.6677 H   0  0  0  0  0  0  0  0  0  0  0  0
    2.1938    5.4412   15.6741 H   0  0  0  0  0  0  0  0  0  0  0  0
    1.7404    3.7163   16.0389 H   0  0  0  0  0  0  0  0  0  0  0  0
    2.8277    3.8903   17.8712 H   0  0  0  0  0  0  0  0  0  0  0  0
    6.3491    2.1942   16.5389 H   0  0  0  0  0  0  0  0  0  0  0  0
    5.4091    2.1039   15.0109 H   0  0  0  0  0  0  0  0  0  0  0  0
    7.0565    2.8200   15.0109 H   0  0  0  0  0  0  0  0  0  0  0  0
    5.3981    4.2737   13.7634 H   0  0  0  0  0  0  0  0  0  0  0  0
    6.0516    7.2703   14.0908 H   0  0  0  0  0  0  0  0  0  0  0  0
    5.8286    5.9279   12.9182 H   0  0  0  0  0  0  0  0  0  0  0  0
    4.6917    7.3186   12.9182 H   0  0  0  0  0  0  0  0  0  0  0  0
    8.3854    3.5138   14.7569 H   0  0  0  0  0  0  0  0  0  0  0  0
   10.7446    4.2613   14.4529 H   0  0  0  0  0  0  0  0  0  0  0  0
   11.5495    6.3652   15.4797 H   0  0  0  0  0  0  0  0  0  0  0  0
   10.0029    7.7642   16.8448 H   0  0  0  0  0  0  0  0  0  0  0  0
    2.7861    9.5122   19.9395 H   0  0  0  0  0  0  0  0  0  0  0  0
    0.3949    8.9609   20.3675 H   0  0  0  0  0  0  0  0  0  0  0  0
   -0.5696    6.8267   19.5562 H   0  0  0  0  0  0  0  0  0  0  0  0
    0.8381    5.2030   18.2753 H   0  0  0  0  0  0  0  0  0  0  0  0
    7.4580   10.9570   19.6850 H   0  0  0  0  0  0  0  0  0  0  0  0
    8.7785    8.8995   18.9700 H   0  0  0  0  0  0  0  0  0  0  0  0
    9.1760   10.4460   17.5790 H   0  0  0  0  0  0  0  0  0  0  0  0
  1  2  1  0
  2  3  1  0
  3  4  1  0
  4  5  1  0
  5  6  1  0
  6  7  1  0
  7  8  1  6
  7  9  1  0
  9 10  1  0
 10 11  1  0
  7 12  1  0
 12 13  1  0
 13 14  2  0
 14 15  1  0
 15 16  2  0
 16 17  1  0
 17 18  2  0
 18 19  1  0
 19 20  2  0
 20 21  1  0
 21 22  2  0
 22 23  1  0
 23 24  2  0
 24 25  1  0
 25 26  2  0
 26 27  1  0
 27 28  2  0
 28 29  1  0
 29 30  1  0
 30 31  2  0
 21 32  1  0
 32 33  2  0
 32 34  1  0
 34 35  1  0
 35 36  1  0
  9  3  1  0
 31 12  1  0
 29  5  1  0
 18 13  1  0
 31 19  1  0
 35 20  1  0
 30 22  1  0
 28 23  1  0
  1 37  1  0
  1 38  1  0
  1 39  1  0
  2 40  1  0
  2 41  1  0
  3 42  1  1
  4 43  1  0
  4 44  1  0
  5 45  1  1
  8 46  1  0
  8 47  1  0
  8 48  1  0
  9 49  1  6
 11 50  1  0
 11 51  1  0
 11 52  1  0
 14 53  1  0
 15 54  1  0
 16 55  1  0
 17 56  1  0
 24 57  1  0
 25 58  1  0
 26 59  1  0
 27 60  1  0
 34 61  1  0
 35 62  1  1
 36 63  1  0
M  CHG  1   2   1
M  END
>  <meeko>  (1) 
{"is_sidechain": [false], "free_energy": -14.028, "intermolecular_energy": -16.078, "internal_energy": -0.32}

$$$$
1nvq_ligand
     RDKit          3D

 63 70  0  0  0  0  0  0  0  0999 V2000
    3.2010    3.2870   11.4750 C   0  0  0  0  0  0  0  0  0  0  0  0
    3.7910    4.3270   12.3550 N   0  0  0  0  0  0  0  0  0  0  0  0
    4.2320    3.8750   13.7460 C   0  0  2  0  0  0  0  0  0  0  0  0
    2.9520    3.5630   14.5200 C   0  0  0  0  0  0  0  0  0  0  0  0
    3.1710    3.5370   16.0340 C   0  0  1  0  0  0  0  0  0  0  0  0
    4.5440    3.5150   16.3970 O   0  0  0  0  0  0  0  0  0  0  0  0
    5.4310    4.5240   15.8590 C   0  0  1  0  0  0  0  0  0  0  0  0
    6.7260    3.6890   15.7350 C   0  0  0  0  0  0  0  0  0  0  0  0
    5.0210    5.0100   14.4200 C   0  0  2  0  0  0  0  0  0  0  0  0
    4.1170    6.1330   14.3500 O   0  0  0  0  0  0  0  0  0  0  0  0
    4.6950    7.3150   13.7960 C   0  0  0  0  0  0  0  0  0  0  0  0
    5.5240    5.6220   16.8270 N   0  0  0  0  0  0  0  0  0  0  0  0
    6.6220    6.4170   17.1620 C   0  0  0  0  0  0  0  0  0  0  0  0
    7.9840    6.3800   16.8010 C   0  0  0  0  0  0  0  0  0  0  0  0
    8.8560    7.3520   17.3030 C   0  0  0  0  0  0  0  0  0  0  0  0
    8.4010    8.3560   18.1420 C   0  0  0  0  0  0  0  0  0  0  0  0
    7.0540    8.4080   18.5000 C   0  0  0  0  0  0  0  0  0  0  0  0
    6.1500    7.4360   18.0150 C   0  0  0  0  0  0  0  0  0  0  0  0
    4.7510    7.2550   18.1850 C   0  0  0  0  0  0  0  0  0  0  0  0
    3.7060    7.9120   18.8540 C   0  0  0  0  0  0  0  0  0  0  0  0
    2.3580    7.4500   18.7760 C   0  0  0  0  0  0  0  0  0  0  0  0
    1.9320    6.3220   18.0590 C   0  0  0  0  0  0  0  0  0  0  0  0
    0.7220    5.6180   17.7760 C   0  0  0  0  0  0  0  0  0  0  0  0
   -0.6320    5.8030   18.1260 C   0  0  0  0  0  0  0  0  0  0  0  0
   -1.6020    4.8970   17.6880 C   0  0  0  0  0  0  0  0  0  0  0  0
   -1.2470    3.8040   16.9090 C   0  0  0  0  0  0  0  0  0  0  0  0
    0.0830    3.5900   16.5420 C   0  0  0  0  0  0  0  0  0  0  0  0
    1.0540    4.5110   16.9770 C   0  0  0  0  0  0  0  0  0  0  0  0
    2.4260    4.5510   16.7700 N   0  0  0  0  0  0  0  0  0  0  0  0
    2.9410    5.6390   17.4000 C   0  0  0  0  0  0  0  0  0  0  0  0
    4.4170    6.1330   17.4580 C   0  0  0  0  0  0  0  0  0  0  0  0
    1.5490    8.3610   19.5970 C   0  0  0  0  0  0  0  0  0  0  0  0
    0.3700    8.2650   19.8660 O   0  0  0  0  0  0  0  0  0  0  0  0
    2.3780    9.3630   20.0570 N   0  0  0  0  0  0  0  0  0  0  0  0
    3.7420    9.1290   19.7310 C   0  0  2  0  0  0  0  0  0  0  0  0
    4.1780   10.2560   19.0200 O   0  0  0  0  0  0  0  0  0  0  0  0
    2.7520    2.4955   12.0929 H   0  0  0  0  0  0  0  0  0  0  0  0
    2.4258    3.7407   10.8400 H   0  0  0  0  0  0  0  0  0  0  0  0
    3.9881    2.8543   10.8400 H   0  0  0  0  0  0  0  0  0  0  0  0
    4.6360    4.7240   11.9030 H   0  0  0  0  0  0  0  0  0  0  0  0
    3.1280    5.1110   12.4270 H   0  0  0  0  0  0  0  0  0  0  0  0
    4.8855    2.9909   13.7095 H   0  0  0  0  0  0  0  0  0  0  0  0
    2.2022    4.3330   14.2857 H   0  0  0  0  0  0  0  0  0  0  0  0
    2.6143    2.5615   14.2152 H   0  0  0  0  0  0  0  0  0  0  0  0
    2.7401    2.5755   16.3500 H   0  0  0  0  0  0  0  0  0  0  0  0
    7.1031    3.4459   16.7393 H   0  0  0  0  0  0  0  0  0  0  0  0
    6.5115    2.7586   15.1887 H   0  0  0  0  0  0  0  0  0  0  0  0
    7.4849    4.2683   15.1887 H   0  0  0  0  0  0  0  0  0  0  0  0
    5.9745    5.3018   13.9557 H   0  0  0  0  0  0  0  0  0  0  0  0
    5.0202    7.9801   14.6095 H   0  0  0  0  0  0  0  0  0  0  0  0
    5.5619    7.0433   13.1758 H   0  0  0  0  0  0  0  0  0  0  0  0
    3.9482    7.8324   13.1758 H   0  0  0  0  0  0  0  0  0  0  0  0
    8.3584    5.5930   16.1298 H   0  0  0  0  0  0  0  0  0  0  0  0
    9.9203    7.3185   17.0270 H   0  0  0  0  0  0  0  0  0  0  0  0
    9.1018    9.1120   18.5258 H   0  0  0  0  0  0  0  0  0  0  0  0
    6.6938    9.2088   19.1625 H   0  0  0  0  0  0  0  0  0  0  0  0
   -0.9254    6.6632   18.7457 H   0  0  0  0  0  0  0  0  0  0  0  0
   -2.6559    5.0513   17.9629 H   0  0  0  0  0  0  0  0  0  0  0  0
   -2.0227    3.0983   16.5770 H   0  0  0  0  0  0  0  0  0  0  0  0
    0.3651    2.7223   15.9276 H   0  0  0  0  0  0  0  0  0  0  0  0
    2.0640    9.9350   20.8290 H   0  0  0  0  0  0  0  0  0  0  0  0
    4.4115    8.9723   20.5896 H   0  0  0  0  0  0  0  0  0  0  0  0
    5.1410   10.1430   18.9650 H   0  0  0  0  0  0  0  0  0  0  0  0
  1  2  1  0
  2  3  1  0
  3  4  1  0
  4  5  1  0
  5  6  1  0
  6  7  1  0
  7  8  1  6
  7  9  1  0
  9 10  1  0
 10 11  1  0
  7 12  1  0
 12 13  1  0
 13 14  2  0
 14 15  1  0
 15 16  2  0
 16 17  1  0
 17 18  2  0
 18 19  1  0
 19 20  2  0
 20 21  1  0
 21 22  2  0
 22 23  1  0
 23 24  2  0
 24 25  1  0
 25 26  2  0
 26 27  1  0
 27 28  2  0
 28 29  1  0
 29 30  1  0
 30 31  2  0
 21 32  1  0
 32 33  2  0
 32 34  1  0
 34 35  1  0
 35 36  1  0
  9  3  1  0
 31 12  1  0
 29  5  1  0
 18 13  1  0
 31 19  1  0
 35 20  1  0
 30 22  1  0
 28 23  1  0
  1 37  1  0
  1 38  1  0
  1 39  1  0
  2 40  1  0
  2 41  1  0
  3 42  1  6
  4 43  1  0
  4 44  1  0
  5 45  1  1
  8 46  1  0
  8 47  1  0
  8 48  1  0
  9 49  1  6
 11 50  1  0
 11 51  1  0
 11 52  1  0
 14 53  1  0
 15 54  1  0
 16 55  1  0
 17 56  1  0
 24 57  1  0
 25 58  1  0
 26 59  1  0
 27 60  1  0
 34 61  1  0
 35 62  1  1
 36 63  1  0
M  CHG  1   2   1
M  END
>  <meeko>  (2) 
{"is_sidechain": [false], "free_energy": -11.728, "intermolecular_energy": -13.485, "internal_energy": -0.277}

$$$$
