3dx1_ligand
     RDKit          3D

 21 21  0  0  0  0  0  0  0  0999 V2000
   49.0000   73.0060  -26.6790 N   0  0  0  0  0  0  0  0  0  0  0  0
   48.6300   73.1190  -25.2310 C   0  0  2  0  0  0  0  0  0  0  0  0
   48.7770   71.7530  -24.5660 C   0  0  0  0  0  0  0  0  0  0  0  0
   47.4930   71.0500  -24.9910 C   0  0  2  0  0  0  0  0  0  0  0  0
   47.6010   70.7560  -26.3910 O   0  0  0  0  0  0  0  0  0  0  0  0
   46.4280   72.1290  -24.7570 C   0  0  2  0  0  0  0  0  0  0  0  0
   45.2620   71.9090  -25.5420 O   0  0  0  0  0  0  0  0  0  0  0  0
   47.1200   73.4480  -25.1660 C   0  0  2  0  0  0  0  0  0  0  0  0
   46.6860   73.9060  -26.4570 O   0  0  0  0  0  0  0  0  0  0  0  0
   48.2870   73.3110  -27.3460 H   0  0  0  0  0  0  0  0  0  0  0  0
   49.2620   72.0180  -26.8520 H   0  0  0  0  0  0  0  0  0  0  0  0
   49.8800   73.5340  -26.8420 H   0  0  0  0  0  0  0  0  0  0  0  0
   49.2622   73.8756  -24.7433 H   0  0  0  0  0  0  0  0  0  0  0  0
   49.6651   71.2214  -24.9383 H   0  0  0  0  0  0  0  0  0  0  0  0
   48.9130   71.8043  -23.4756 H   0  0  0  0  0  0  0  0  0  0  0  0
   47.2747   70.1123  -24.4589 H   0  0  0  0  0  0  0  0  0  0  0  0
   46.9800   71.3700  -26.8420 H   0  0  0  0  0  0  0  0  0  0  0  0
   46.0805   72.1334  -23.7134 H   0  0  0  0  0  0  0  0  0  0  0  0
   45.3510   71.0410  -25.9850 H   0  0  0  0  0  0  0  0  0  0  0  0
   46.8791   74.2444  -24.4465 H   0  0  0  0  0  0  0  0  0  0  0  0
   47.4740   73.8090  -27.0410 H   0  0  0  0  0  0  0  0  0  0  0  0
  1  2  1  0
  2  3  1  0
  3  4  1  0
  4  5  1  0
  4  6  1  0
  6  7  1  0
  6  8  1  0
  8  9  1  0
  8  2  1  0
  1 10  1  0
  1 11  1  0
  1 12  1  0
  2 13  1  1
  3 14  1  0
  3 15  1  0
  4 16  1  1
  5 17  1  0
  6 18  1  1
  7 19  1  0
  8 20  1  1
  9 21  1  0
M  CHG  1   1   1
M  END
>  <meeko>  (1) 
{"is_sidechain": [false], "free_energy": -4.979, "intermolecular_energy": -5.561, "internal_energy": 0.0}

$$$$
3dx1_ligand
     RDKit          3D

 21 21  0  0  0  0  0  0  0  0999 V2000
   50.3090   71.3030  -22.9170 N   0  0  0  0  0  0  0  0  0  0  0  0
   49.5250   72.5610  -23.1370 C   0  0  2  0  0  0  0  0  0  0  0  0
   48.0550   72.3000  -22.8180 C   0  0  0  0  0  0  0  0  0  0  0  0
   47.5720   71.6030  -24.0850 C   0  0  2  0  0  0  0  0  0  0  0  0
   48.1510   70.2890  -24.1060 O   0  0  0  0  0  0  0  0  0  0  0  0
   48.1810   72.4670  -25.1960 C   0  0  2  0  0  0  0  0  0  0  0  0
   48.3100   71.7530  -26.4200 O   0  0  0  0  0  0  0  0  0  0  0  0
   49.5690   72.8710  -24.6520 C   0  0  2  0  0  0  0  0  0  0  0  0
   50.6270   72.1090  -25.2540 O   0  0  0  0  0  0  0  0  0  0  0  0
   50.1920   70.8600  -22.0020 H   0  0  0  0  0  0  0  0  0  0  0  0
   51.3060   71.5300  -23.0870 H   0  0  0  0  0  0  0  0  0  0  0  0
   50.0710   70.6240  -23.6670 H   0  0  0  0  0  0  0  0  0  0  0  0
   49.9356   73.3697  -22.5145 H   0  0  0  0  0  0  0  0  0  0  0  0
   47.9469   71.6488  -21.9381 H   0  0  0  0  0  0  0  0  0  0  0  0
   47.4879   73.2092  -22.5695 H   0  0  0  0  0  0  0  0  0  0  0  0
   46.4805   71.4998  -24.1748 H   0  0  0  0  0  0  0  0  0  0  0  0
   47.4090   69.6670  -23.9370 H   0  0  0  0  0  0  0  0  0  0  0  0
   47.5433   73.3324  -25.4291 H   0  0  0  0  0  0  0  0  0  0  0  0
   48.9790   72.2090  -26.9700 H   0  0  0  0  0  0  0  0  0  0  0  0
   49.7719   73.9292  -24.8737 H   0  0  0  0  0  0  0  0  0  0  0  0
   50.2610   71.7980  -26.1140 H   0  0  0  0  0  0  0  0  0  0  0  0
  1  2  1  0
  2  3  1  0
  3  4  1  0
  4  5  1  0
  4  6  1  0
  6  7  1  0
  6  8  1  0
  8  9  1  0
  8  2  1  0
  1 10  1  0
  1 11  1  0
  1 12  1  0
  2 13  1  1
  3 14  1  0
  3 15  1  0
  4 16  1  6
  5 17  1  0
  6 18  1  6
  7 19  1  0
  8 20  1  1
  9 21  1  0
M  CHG  1   1   1
M  END
>  <meeko>  (2) 
{"is_sidechain": [false], "free_energy": -4.941, "intermolecular_energy": -5.519, "internal_energy": 0.0}

$$$$
3dx1_ligand
     RDKit          3D

 21 21  0  0  0  0  0  0  0  0999 V2000
   39.9510   79.9980  -28.3420 N   0  0  0  0  0  0  0  0  0  0  0  0
   41.0790   80.9420  -28.0510 C   0  0  2  0  0  0  0  0  0  0  0  0
   40.5980   82.3770  -28.2500 C   0  0  0  0  0  0  0  0  0  0  0  0
   40.6650   82.5300  -29.7650 C   0  0  2  0  0  0  0  0  0  0  0  0
   39.6090   81.7390  -30.3300 O   0  0  0  0  0  0  0  0  0  0  0  0
   42.0280   81.9130  -30.1040 C   0  0  2  0  0  0  0  0  0  0  0  0
   42.0960   81.4740  -31.4550 O   0  0  0  0  0  0  0  0  0  0  0  0
   42.1590   80.7170  -29.1350 C   0  0  2  0  0  0  0  0  0  0  0  0
   41.9080   79.4620  -29.7900 O   0  0  0  0  0  0  0  0  0  0  0  0
   39.1270   80.0920  -27.7440 H   0  0  0  0  0  0  0  0  0  0  0  0
   40.3350   79.0370  -28.2860 H   0  0  0  0  0  0  0  0  0  0  0  0
   39.6750   80.1040  -29.3380 H   0  0  0  0  0  0  0  0  0  0  0  0
   41.4474   80.7773  -27.0277 H   0  0  0  0  0  0  0  0  0  0  0  0
   39.5702   82.5083  -27.8807 H   0  0  0  0  0  0  0  0  0  0  0  0
   41.1937   83.1229  -27.7034 H   0  0  0  0  0  0  0  0  0  0  0  0
   40.5587   83.5601  -30.1359 H   0  0  0  0  0  0  0  0  0  0  0  0
   39.8730   80.8030  -30.1920 H   0  0  0  0  0  0  0  0  0  0  0  0
   42.8414   82.6454  -29.9945 H   0  0  0  0  0  0  0  0  0  0  0  0
   41.3700   81.9010  -31.9520 H   0  0  0  0  0  0  0  0  0  0  0  0
   43.1797   80.6672  -28.7279 H   0  0  0  0  0  0  0  0  0  0  0  0
   41.6670   78.8390  -29.0650 H   0  0  0  0  0  0  0  0  0  0  0  0
  1  2  1  0
  2  3  1  0
  3  4  1  0
  4  5  1  0
  4  6  1  0
  6  7  1  0
  6  8  1  0
  8  9  1  0
  8  2  1  0
  1 10  1  0
  1 11  1  0
  1 12  1  0
  2 13  1  1
  3 14  1  0
  3 15  1  0
  4 16  1  1
  5 17  1  0
  6 18  1  1
  7 19  1  0
  8 20  1  1
  9 21  1  0
M  CHG  1   1   1
M  END
>  <meeko>  (3) 
{"is_sidechain": [false], "free_energy": -4.904, "intermolecular_energy": -5.477, "internal_energy": 0.0}

$$$$
3dx1_ligand
     RDKit          3D

 21 21  0  0  0  0  0  0  0  0999 V2000
   39.8630   82.2720  -30.6890 N   0  0  0  0  0  0  0  0  0  0  0  0
   41.1280   82.4810  -29.9130 C   0  0  2  0  0  0  0  0  0  0  0  0
   41.8540   81.1470  -29.7650 C   0  0  0  0  0  0  0  0  0  0  0  0
   41.0880   80.4910  -28.6220 C   0  0  2  0  0  0  0  0  0  0  0  0
   39.7960   80.1180  -29.1220 O   0  0  0  0  0  0  0  0  0  0  0  0
   40.9530   81.6350  -27.6090 C   0  0  2  0  0  0  0  0  0  0  0  0
   39.8630   81.4360  -26.7170 O   0  0  0  0  0  0  0  0  0  0  0  0
   40.7250   82.8920  -28.4770 C   0  0  2  0  0  0  0  0  0  0  0  0
   39.3480   83.3030  -28.4780 O   0  0  0  0  0  0  0  0  0  0  0  0
   39.1440   81.7120  -30.2250 H   0  0  0  0  0  0  0  0  0  0  0  0
   40.1270   81.8470  -31.5960 H   0  0  0  0  0  0  0  0  0  0  0  0
   39.4720   83.1990  -30.9480 H   0  0  0  0  0  0  0  0  0  0  0  0
   41.7562   83.2283  -30.4199 H   0  0  0  0  0  0  0  0  0  0  0  0
   41.7844   80.5503  -30.6865 H   0  0  0  0  0  0  0  0  0  0  0  0
   42.9324   81.2491  -29.5736 H   0  0  0  0  0  0  0  0  0  0  0  0
   41.5629   79.5958  -28.1940 H   0  0  0  0  0  0  0  0  0  0  0  0
   39.2490   79.9210  -28.3300 H   0  0  0  0  0  0  0  0  0  0  0  0
   41.8432   81.7124  -26.9674 H   0  0  0  0  0  0  0  0  0  0  0  0
   40.1270   81.7620  -25.8340 H   0  0  0  0  0  0  0  0  0  0  0  0
   41.3108   83.7370  -28.0863 H   0  0  0  0  0  0  0  0  0  0  0  0
   39.3300   84.1380  -27.9550 H   0  0  0  0  0  0  0  0  0  0  0  0
  1  2  1  0
  2  3  1  0
  3  4  1  0
  4  5  1  0
  4  6  1  0
  6  7  1  0
  6  8  1  0
  8  9  1  0
  8  2  1  0
  1 10  1  0
  1 11  1  0
  1 12  1  0
  2 13  1  6
  3 14  1  0
  3 15  1  0
  4 16  1  1
  5 17  1  0
  6 18  1  1
  7 19  1  0
  8 20  1  1
  9 21  1  0
M  CHG  1   1   1
M  END
>  <meeko>  (4) 
{"is_sidechain": [false], "free_energy": -4.893, "intermolecular_energy": -5.465, "internal_energy": 0.0}

$$$$
3dx1_ligand
     RDKit          3D

 21 21  0  0  0  0  0  0  0  0999 V2000
   40.8880   79.8210  -29.1060 N   0  0  0  0  0  0  0  0  0  0  0  0
   41.8120   80.9970  -29.0220 C   0  0  2  0  0  0  0  0  0  0  0  0
   42.1510   81.2690  -27.5590 C   0  0  0  0  0  0  0  0  0  0  0  0
   40.9140   82.0210  -27.0800 C   0  0  2  0  0  0  0  0  0  0  0  0
   39.8330   81.0790  -27.0070 O   0  0  0  0  0  0  0  0  0  0  0  0
   40.6690   83.0210  -28.2170 C   0  0  2  0  0  0  0  0  0  0  0  0
   39.3180   83.4660  -28.2570 O   0  0  0  0  0  0  0  0  0  0  0  0
   41.0230   82.2390  -29.5000 C   0  0  2  0  0  0  0  0  0  0  0  0
   39.8500   81.8020  -30.2070 O   0  0  0  0  0  0  0  0  0  0  0  0
   40.7770   79.4070  -30.0340 H   0  0  0  0  0  0  0  0  0  0  0  0
   39.9700   80.1260  -28.7310 H   0  0  0  0  0  0  0  0  0  0  0  0
   41.2080   79.0950  -28.4340 H   0  0  0  0  0  0  0  0  0  0  0  0
   42.7170   80.8010  -29.6158 H   0  0  0  0  0  0  0  0  0  0  0  0
   42.2900   80.3317  -27.0002 H   0  0  0  0  0  0  0  0  0  0  0  0
   43.0897   81.8248  -27.4177 H   0  0  0  0  0  0  0  0  0  0  0  0
   41.0131   82.5071  -26.0982 H   0  0  0  0  0  0  0  0  0  0  0  0
   39.1950   81.3510  -27.7030 H   0  0  0  0  0  0  0  0  0  0  0  0
   41.2725   83.9319  -28.0899 H   0  0  0  0  0  0  0  0  0  0  0  0
   39.2710   84.2460  -28.8450 H   0  0  0  0  0  0  0  0  0  0  0  0
   41.5930   82.8781  -30.1904 H   0  0  0  0  0  0  0  0  0  0  0  0
   39.9090   80.8180  -30.2180 H   0  0  0  0  0  0  0  0  0  0  0  0
  1  2  1  0
  2  3  1  0
  3  4  1  0
  4  5  1  0
  4  6  1  0
  6  7  1  0
  6  8  1  0
  8  9  1  0
  8  2  1  0
  1 10  1  0
  1 11  1  0
  1 12  1  0
  2 13  1  6
  3 14  1  0
  3 15  1  0
  4 16  1  1
  5 17  1  0
  6 18  1  1
  7 19  1  0
  8 20  1  6
  9 21  1  0
M  CHG  1   1   1
M  END
>  <meeko>  (5) 
{"is_sidechain": [false], "free_energy": -4.795, "intermolecular_energy": -5.356, "internal_energy": 0.0}

$$$$
3dx1_ligand
     RDKit          3D

 21 21  0  0  0  0  0  0  0  0999 V2000
   47.1530   71.2310  -26.0280 N   0  0  0  0  0  0  0  0  0  0  0  0
   47.0900   71.9590  -24.7190 C   0  0  2  0  0  0  0  0  0  0  0  0
   47.8400   73.2820  -24.8420 C   0  0  0  0  0  0  0  0  0  0  0  0
   49.2920   72.8410  -24.6940 C   0  0  2  0  0  0  0  0  0  0  0  0
   49.6560   72.1350  -25.8890 O   0  0  0  0  0  0  0  0  0  0  0  0
   49.2280   71.8730  -23.5050 C   0  0  2  0  0  0  0  0  0  0  0  0
   50.3170   70.9580  -23.5010 O   0  0  0  0  0  0  0  0  0  0  0  0
   47.8890   71.1260  -23.6900 C   0  0  2  0  0  0  0  0  0  0  0  0
   48.0790   69.8000  -24.2090 O   0  0  0  0  0  0  0  0  0  0  0  0
   47.1660   70.2100  -25.9690 H   0  0  0  0  0  0  0  0  0  0  0  0
   47.9910   71.5780  -26.5310 H   0  0  0  0  0  0  0  0  0  0  0  0
   46.3570   71.5380  -26.6210 H   0  0  0  0  0  0  0  0  0  0  0  0
   46.0401   72.1161  -24.4308 H   0  0  0  0  0  0  0  0  0  0  0  0
   47.6632   73.7517  -25.8208 H   0  0  0  0  0  0  0  0  0  0  0  0
   47.5294   74.0370  -24.1048 H   0  0  0  0  0  0  0  0  0  0  0  0
   50.0155   73.6556  -24.5425 H   0  0  0  0  0  0  0  0  0  0  0  0
   49.4610   71.1880  -25.7100 H   0  0  0  0  0  0  0  0  0  0  0  0
   49.2922   72.4069  -22.5454 H   0  0  0  0  0  0  0  0  0  0  0  0
   51.1330   71.4540  -23.7160 H   0  0  0  0  0  0  0  0  0  0  0  0
   47.3747   71.0201  -22.7234 H   0  0  0  0  0  0  0  0  0  0  0  0
   48.8720   69.4520  -23.7390 H   0  0  0  0  0  0  0  0  0  0  0  0
  1  2  1  0
  2  3  1  0
  3  4  1  0
  4  5  1  0
  4  6  1  0
  6  7  1  0
  6  8  1  0
  8  9  1  0
  8  2  1  0
  1 10  1  0
  1 11  1  0
  1 12  1  0
  2 13  1  1
  3 14  1  0
  3 15  1  0
  4 16  1  1
  5 17  1  0
  6 18  1  1
  7 19  1  0
  8 20  1  1
  9 21  1  0
M  CHG  1   1   1
M  END
>  <meeko>  (6) 
{"is_sidechain": [false], "free_energy": -4.785, "intermolecular_energy": -5.345, "internal_energy": 0.0}

$$$$
3dx1_ligand
     RDKit          3D

 21 21  0  0  0  0  0  0  0  0999 V2000
   40.0620   81.8880  -25.9270 N   0  0  0  0  0  0  0  0  0  0  0  0
   41.3450   81.6860  -26.6750 C   0  0  2  0  0  0  0  0  0  0  0  0
   41.7580   83.0000  -27.3330 C   0  0  0  0  0  0  0  0  0  0  0  0
   40.8700   83.0290  -28.5720 C   0  0  2  0  0  0  0  0  0  0  0  0
   39.5240   83.2770  -28.1370 O   0  0  0  0  0  0  0  0  0  0  0  0
   40.9970   81.5970  -29.1090 C   0  0  2  0  0  0  0  0  0  0  0  0
   39.8930   81.2320  -29.9290 O   0  0  0  0  0  0  0  0  0  0  0  0
   41.0500   80.7150  -27.8420 C   0  0  2  0  0  0  0  0  0  0  0  0
   39.7990   80.0530  -27.5930 O   0  0  0  0  0  0  0  0  0  0  0  0
   39.8090   81.1470  -25.2690 H   0  0  0  0  0  0  0  0  0  0  0  0
   39.3140   82.0210  -26.6330 H   0  0  0  0  0  0  0  0  0  0  0  0
   40.1060   82.7990  -25.4290 H   0  0  0  0  0  0  0  0  0  0  0  0
   42.1215   81.3181  -25.9882 H   0  0  0  0  0  0  0  0  0  0  0  0
   41.5538   83.8576  -26.6751 H   0  0  0  0  0  0  0  0  0  0  0  0
   42.8330   83.0643  -27.5571 H   0  0  0  0  0  0  0  0  0  0  0  0
   41.1358   83.7905  -29.3200 H   0  0  0  0  0  0  0  0  0  0  0  0
   39.5860   83.4710  -27.1760 H   0  0  0  0  0  0  0  0  0  0  0  0
   41.8848   81.4833  -29.7485 H   0  0  0  0  0  0  0  0  0  0  0  0
   39.5450   80.3760  -29.6090 H   0  0  0  0  0  0  0  0  0  0  0  0
   41.8106   79.9287  -27.9566 H   0  0  0  0  0  0  0  0  0  0  0  0
   39.9880   79.4140  -26.8670 H   0  0  0  0  0  0  0  0  0  0  0  0
  1  2  1  0
  2  3  1  0
  3  4  1  0
  4  5  1  0
  4  6  1  0
  6  7  1  0
  6  8  1  0
  8  9  1  0
  8  2  1  0
  1 10  1  0
  1 11  1  0
  1 12  1  0
  2 13  1  1
  3 14  1  0
  3 15  1  0
  4 16  1  6
  5 17  1  0
  6 18  1  6
  7 19  1  0
  8 20  1  6
  9 21  1  0
M  CHG  1   1   1
M  END
>  <meeko>  (7) 
{"is_sidechain": [false], "free_energy": -4.768, "intermolecular_energy": -5.326, "internal_energy": 0.0}

$$$$
3dx1_ligand
     RDKit          3D

 21 21  0  0  0  0  0  0  0  0999 V2000
   49.0800   73.5200  -24.2400 N   0  0  0  0  0  0  0  0  0  0  0  0
   49.0260   72.3330  -25.1540 C   0  0  2  0  0  0  0  0  0  0  0  0
   48.7830   72.8100  -26.5840 C   0  0  0  0  0  0  0  0  0  0  0  0
   47.2800   73.0650  -26.5850 C   0  0  2  0  0  0  0  0  0  0  0  0
   47.0370   74.2370  -25.7930 O   0  0  0  0  0  0  0  0  0  0  0  0
   46.7290   71.8220  -25.8740 C   0  0  2  0  0  0  0  0  0  0  0  0
   45.4470   72.0560  -25.3030 O   0  0  0  0  0  0  0  0  0  0  0  0
   47.7690   71.5170  -24.7740 C   0  0  2  0  0  0  0  0  0  0  0  0
   47.3170   71.9330  -23.4750 O   0  0  0  0  0  0  0  0  0  0  0  0
   48.8020   74.4130  -24.6530 H   0  0  0  0  0  0  0  0  0  0  0  0
   50.0470   73.5760  -23.8690 H   0  0  0  0  0  0  0  0  0  0  0  0
   48.4970   73.3240  -23.4030 H   0  0  0  0  0  0  0  0  0  0  0  0
   49.9602   71.7578  -25.0731 H   0  0  0  0  0  0  0  0  0  0  0  0
   49.3444   73.7314  -26.7983 H   0  0  0  0  0  0  0  0  0  0  0  0
   49.1106   72.0930  -27.3512 H   0  0  0  0  0  0  0  0  0  0  0  0
   46.8329   73.2221  -27.5777 H   0  0  0  0  0  0  0  0  0  0  0  0
   47.5490   74.1100  -24.9630 H   0  0  0  0  0  0  0  0  0  0  0  0
   46.5874   70.9854  -26.5741 H   0  0  0  0  0  0  0  0  0  0  0  0
   44.9330   71.2260  -25.3570 H   0  0  0  0  0  0  0  0  0  0  0  0
   47.9557   70.4345  -24.7163 H   0  0  0  0  0  0  0  0  0  0  0  0
   47.4170   71.1370  -22.9020 H   0  0  0  0  0  0  0  0  0  0  0  0
  1  2  1  0
  2  3  1  0
  3  4  1  0
  4  5  1  0
  4  6  1  0
  6  7  1  0
  6  8  1  0
  8  9  1  0
  8  2  1  0
  1 10  1  0
  1 11  1  0
  1 12  1  0
  2 13  1  6
  3 14  1  0
  3 15  1  0
  4 16  1  6
  5 17  1  0
  6 18  1  6
  7 19  1  0
  8 20  1  1
  9 21  1  0
M  CHG  1   1   1
M  END
>  <meeko>  (8) 
{"is_sidechain": [false], "free_energy": -4.749, "intermolecular_energy": -5.305, "internal_energy": 0.0}

$$$$
3dx1_ligand
     RDKit          3D

 21 21  0  0  0  0  0  0  0  0999 V2000
   48.7680   72.9910  -26.6840 N   0  0  0  0  0  0  0  0  0  0  0  0
   47.4120   72.9580  -26.0460 C   0  0  2  0  0  0  0  0  0  0  0  0
   47.5430   73.3100  -24.5660 C   0  0  0  0  0  0  0  0  0  0  0  0
   48.0210   71.9920  -23.9650 C   0  0  2  0  0  0  0  0  0  0  0  0
   49.3780   71.7890  -24.3850 O   0  0  0  0  0  0  0  0  0  0  0  0
   47.1000   70.9650  -24.6360 C   0  0  2  0  0  0  0  0  0  0  0  0
   47.6670   69.6610  -24.6420 O   0  0  0  0  0  0  0  0  0  0  0  0
   46.9240   71.4900  -26.0780 C   0  0  2  0  0  0  0  0  0  0  0  0
   47.7210   70.7540  -27.0210 O   0  0  0  0  0  0  0  0  0  0  0  0
   49.5030   72.4770  -26.1940 H   0  0  0  0  0  0  0  0  0  0  0  0
   49.0300   73.9880  -26.7930 H   0  0  0  0  0  0  0  0  0  0  0  0
   48.6870   72.6420  -27.6590 H   0  0  0  0  0  0  0  0  0  0  0  0
   46.7380   73.6531  -26.5681 H   0  0  0  0  0  0  0  0  0  0  0  0
   48.2808   74.1108  -24.4099 H   0  0  0  0  0  0  0  0  0  0  0  0
   46.6131   73.6895  -24.1174 H   0  0  0  0  0  0  0  0  0  0  0  0
   47.9898   71.9401  -22.8667 H   0  0  0  0  0  0  0  0  0  0  0  0
   49.4140   70.8740  -24.7400 H   0  0  0  0  0  0  0  0  0  0  0  0
   46.1463   70.8655  -24.0969 H   0  0  0  0  0  0  0  0  0  0  0  0
   48.2520   69.5860  -25.4230 H   0  0  0  0  0  0  0  0  0  0  0  0
   45.8759   71.3868  -26.3957 H   0  0  0  0  0  0  0  0  0  0  0  0
   47.9320   69.9040  -26.5680 H   0  0  0  0  0  0  0  0  0  0  0  0
  1  2  1  0
  2  3  1  0
  3  4  1  0
  4  5  1  0
  4  6  1  0
  6  7  1  0
  6  8  1  0
  8  9  1  0
  8  2  1  0
  1 10  1  0
  1 11  1  0
  1 12  1  0
  2 13  1  6
  3 14  1  0
  3 15  1  0
  4 16  1  1
  5 17  1  0
  6 18  1  1
  7 19  1  0
  8 20  1  6
  9 21  1  0
M  CHG  1   1   1
M  END
>  <meeko>  (9) 
{"is_sidechain": [false], "free_energy": -4.744, "intermolecular_energy": -5.299, "internal_energy": 0.0}

$$$$
