1g2k_ligand
     RDKit          3D

 82 86  0  0  0  0  0  0  0  0999 V2000
   15.8190   16.9800   10.8720 C   0  0  0  0  0  0  0  0  0  0  0  0
   16.2570   18.0330    9.9900 N   0  0  0  0  0  0  0  0  0  0  0  0
   15.6780   19.2850   10.0610 C   0  0  0  0  0  0  0  0  0  0  0  0
   14.7220   19.5560   10.7780 O   0  0  0  0  0  0  0  0  0  0  0  0
   16.3140   20.3420    9.2310 C   0  0  0  0  0  0  0  0  0  0  0  0
   17.6960   20.5240    9.3240 C   0  0  0  0  0  0  0  0  0  0  0  0
   18.3230   21.4890    8.5380 C   0  0  0  0  0  0  0  0  0  0  0  0
   17.5710   22.2800    7.6680 C   0  0  0  0  0  0  0  0  0  0  0  0
   16.1780   22.1330    7.5830 C   0  0  0  0  0  0  0  0  0  0  0  0
   15.3790   22.9860    6.6220 C   0  0  0  0  0  0  0  0  0  0  0  0
   14.0330   22.4500    6.3740 N   0  0  0  0  0  0  0  0  0  0  0  0
   13.8520   21.4940    5.2670 C   0  0  2  0  0  0  0  0  0  0  0  0
   15.1050   20.6170    5.0530 C   0  0  0  0  0  0  0  0  0  0  0  0
   15.0860   20.1750    3.6840 O   0  0  0  0  0  0  0  0  0  0  0  0
   16.0340   19.2600    3.3170 C   0  0  0  0  0  0  0  0  0  0  0  0
   17.0080   19.0090    4.2880 C   0  0  0  0  0  0  0  0  0  0  0  0
   18.0450   18.1090    4.0370 C   0  0  0  0  0  0  0  0  0  0  0  0
   18.1120   17.4520    2.8110 C   0  0  0  0  0  0  0  0  0  0  0  0
   17.1390   17.6920    1.8420 C   0  0  0  0  0  0  0  0  0  0  0  0
   16.1000   18.5940    2.0940 C   0  0  0  0  0  0  0  0  0  0  0  0
   13.2800   22.1160    3.9720 C   0  0  2  0  0  0  0  0  0  0  0  0
   14.3180   22.7350    3.1730 O   0  0  0  0  0  0  0  0  0  0  0  0
   12.1710   23.1940    4.1020 C   0  0  1  0  0  0  0  0  0  0  0  0
   11.0160   22.5400    4.6910 O   0  0  0  0  0  0  0  0  0  0  0  0
   12.5110   24.4010    5.0080 C   0  0  1  0  0  0  0  0  0  0  0  0
   11.8380   25.7060    4.5150 C   0  0  0  0  0  0  0  0  0  0  0  0
   10.8420   25.3910    3.5330 O   0  0  0  0  0  0  0  0  0  0  0  0
    9.5360   25.5780    3.8930 C   0  0  0  0  0  0  0  0  0  0  0  0
    8.4600   24.7710    3.5240 C   0  0  0  0  0  0  0  0  0  0  0  0
    7.1680   25.0790    3.9630 C   0  0  0  0  0  0  0  0  0  0  0  0
    6.9480   26.1950    4.7670 C   0  0  0  0  0  0  0  0  0  0  0  0
    8.0180   27.0100    5.1310 C   0  0  0  0  0  0  0  0  0  0  0  0
    9.3060   26.7010    4.6930 C   0  0  0  0  0  0  0  0  0  0  0  0
   12.2310   24.2290    6.4670 N   0  0  0  0  0  0  0  0  0  0  0  0
   12.0900   25.5020    7.2210 C   0  0  0  0  0  0  0  0  0  0  0  0
   10.7690   25.7020    7.9310 C   0  0  0  0  0  0  0  0  0  0  0  0
   10.5980   26.7670    8.8280 C   0  0  0  0  0  0  0  0  0  0  0  0
    9.3790   26.9620    9.4790 C   0  0  0  0  0  0  0  0  0  0  0  0
    8.3160   26.0930    9.2440 C   0  0  0  0  0  0  0  0  0  0  0  0
    8.4720   25.0290    8.3590 C   0  0  0  0  0  0  0  0  0  0  0  0
    9.6910   24.8330    7.7070 C   0  0  0  0  0  0  0  0  0  0  0  0
   12.7670   22.9220    7.3400 S   0  0  0  0  0  0  0  0  0  0  0  0
   13.3050   23.3840    8.5940 O   0  0  0  0  0  0  0  0  0  0  0  0
   11.7460   21.9040    7.2920 O   0  0  0  0  0  0  0  0  0  0  0  0
   15.5550   21.1590    8.3810 C   0  0  0  0  0  0  0  0  0  0  0  0
   15.9513   17.2980   11.9167 H   0  0  0  0  0  0  0  0  0  0  0  0
   14.7565   16.7642   10.6861 H   0  0  0  0  0  0  0  0  0  0  0  0
   16.4150   16.0744   10.6861 H   0  0  0  0  0  0  0  0  0  0  0  0
   17.1990   17.9640    9.6250 H   0  0  0  0  0  0  0  0  0  0  0  0
   18.2879   19.9070   10.0161 H   0  0  0  0  0  0  0  0  0  0  0  0
   19.4123   21.6275    8.6034 H   0  0  0  0  0  0  0  0  0  0  0  0
   18.0770   23.0286    7.0406 H   0  0  0  0  0  0  0  0  0  0  0  0
   15.2831   23.9970    7.0447 H   0  0  0  0  0  0  0  0  0  0  0  0
   15.9152   22.9965    5.6616 H   0  0  0  0  0  0  0  0  0  0  0  0
   13.0522   20.8094    5.5858 H   0  0  0  0  0  0  0  0  0  0  0  0
   16.0142   21.2051    5.2466 H   0  0  0  0  0  0  0  0  0  0  0  0
   15.1028   19.7584    5.7406 H   0  0  0  0  0  0  0  0  0  0  0  0
   16.9567   19.5251    5.2580 H   0  0  0  0  0  0  0  0  0  0  0  0
   18.8080   17.9191    4.8063 H   0  0  0  0  0  0  0  0  0  0  0  0
   18.9304   16.7456    2.6078 H   0  0  0  0  0  0  0  0  0  0  0  0
   17.1885   17.1698    0.8751 H   0  0  0  0  0  0  0  0  0  0  0  0
   15.3341   18.7781    1.3262 H   0  0  0  0  0  0  0  0  0  0  0  0
   12.8206   21.2270    3.5152 H   0  0  0  0  0  0  0  0  0  0  0  0
   14.9820   23.1330    3.7700 H   0  0  0  0  0  0  0  0  0  0  0  0
   12.0163   23.6001    3.0915 H   0  0  0  0  0  0  0  0  0  0  0  0
   11.3630   21.6850    5.0260 H   0  0  0  0  0  0  0  0  0  0  0  0
   13.6049   24.4695    4.9149 H   0  0  0  0  0  0  0  0  0  0  0  0
   11.3646   26.2180    5.3657 H   0  0  0  0  0  0  0  0  0  0  0  0
   12.5982   26.3630    4.0672 H   0  0  0  0  0  0  0  0  0  0  0  0
    8.6277   23.8905    2.8864 H   0  0  0  0  0  0  0  0  0  0  0  0
    6.3229   24.4377    3.6723 H   0  0  0  0  0  0  0  0  0  0  0  0
    5.9315   26.4325    5.1139 H   0  0  0  0  0  0  0  0  0  0  0  0
    7.8476   27.8947    5.7621 H   0  0  0  0  0  0  0  0  0  0  0  0
   10.1486   27.3472    4.9799 H   0  0  0  0  0  0  0  0  0  0  0  0
   12.8885   25.5372    7.9768 H   0  0  0  0  0  0  0  0  0  0  0  0
   12.1506   26.3033    6.4698 H   0  0  0  0  0  0  0  0  0  0  0  0
   11.4338   27.4558    9.0203 H   0  0  0  0  0  0  0  0  0  0  0  0
    9.2576   27.8025   10.1782 H   0  0  0  0  0  0  0  0  0  0  0  0
    7.3550   26.2469    9.7566 H   0  0  0  0  0  0  0  0  0  0  0  0
    7.6334   24.3418    8.1733 H   0  0  0  0  0  0  0  0  0  0  0  0
    9.8071   23.9891    7.0111 H   0  0  0  0  0  0  0  0  0  0  0  0
   14.4627   21.0363    8.3387 H   0  0  0  0  0  0  0  0  0  0  0  0
  1  2  1  0
  2  3  1  0
  3  4  2  0
  3  5  1  0
  5  6  2  0
  6  7  1  0
  7  8  2  0
  8  9  1  0
  9 10  1  0
 10 11  1  0
 11 12  1  0
 12 13  1  0
 13 14  1  0
 14 15  1  0
 15 16  2  0
 16 17  1  0
 17 18  2  0
 18 19  1  0
 19 20  2  0
 12 21  1  0
 21 22  1  0
 21 23  1  0
 23 24  1  0
 23 25  1  0
 25 26  1  0
 26 27  1  0
 27 28  1  0
 28 29  2  0
 29 30  1  0
 30 31  2  0
 31 32  1  0
 32 33  2  0
 25 34  1  0
 34 35  1  0
 35 36  1  0
 36 37  2  0
 37 38  1  0
 38 39  2  0
 39 40  1  0
 40 41  2  0
 34 42  1  0
 42 43  2  0
 42 44  2  0
  9 45  2  0
 45  5  1  0
 42 11  1  0
 20 15  1  0
 33 28  1  0
 41 36  1  0
  1 46  1  0
  1 47  1  0
  1 48  1  0
  2 49  1  0
  6 50  1  0
  7 51  1  0
  8 52  1  0
 10 53  1  0
 10 54  1  0
 12 55  1  1
 13 56  1  0
 13 57  1  0
 16 58  1  0
 17 59  1  0
 18 60  1  0
 19 61  1  0
 20 62  1  0
 21 63  1  6
 22 64  1  0
 23 65  1  6
 24 66  1  0
 25 67  1  1
 26 68  1  0
 26 69  1  0
 29 70  1  0
 30 71  1  0
 31 72  1  0
 32 73  1  0
 33 74  1  0
 35 75  1  0
 35 76  1  0
 37 77  1  0
 38 78  1  0
 39 79  1  0
 40 80  1  0
 41 81  1  0
 45 82  1  0
M  END
>  <meeko>  (1) 
{"is_sidechain": [false], "free_energy": -8.401, "intermolecular_energy": -17.241, "internal_energy": -2.786}

$$$$
1g2k_ligand
     RDKit          3D

 82 86  0  0  0  0  0  0  0  0999 V2000
   18.0640   17.0240    5.7890 C   0  0  0  0  0  0  0  0  0  0  0  0
   17.0610   17.9180    5.2650 N   0  0  0  0  0  0  0  0  0  0  0  0
   17.3220   19.2710    5.1620 C   0  0  0  0  0  0  0  0  0  0  0  0
   18.3420   19.8040    5.5820 O   0  0  0  0  0  0  0  0  0  0  0  0
   16.2930   20.0780    4.4560 C   0  0  0  0  0  0  0  0  0  0  0  0
   15.6820   19.5380    3.3210 C   0  0  0  0  0  0  0  0  0  0  0  0
   14.6950   20.2610    2.6550 C   0  0  0  0  0  0  0  0  0  0  0  0
   14.3240   21.5260    3.1130 C   0  0  0  0  0  0  0  0  0  0  0  0
   14.9470   22.0980    4.2330 C   0  0  0  0  0  0  0  0  0  0  0  0
   14.5200   23.4630    4.7280 C   0  0  0  0  0  0  0  0  0  0  0  0
   13.1730   23.4570    5.3130 N   0  0  0  0  0  0  0  0  0  0  0  0
   13.0420   23.2840    6.7710 C   0  0  2  0  0  0  0  0  0  0  0  0
   14.4110   23.0560    7.4480 C   0  0  0  0  0  0  0  0  0  0  0  0
   14.2350   22.0120    8.4230 O   0  0  0  0  0  0  0  0  0  0  0  0
   15.3630   21.3660    8.8470 C   0  0  0  0  0  0  0  0  0  0  0  0
   16.5620   21.9680    8.4560 C   0  0  0  0  0  0  0  0  0  0  0  0
   17.7880   21.4020    8.8060 C   0  0  0  0  0  0  0  0  0  0  0  0
   17.8220   20.2280    9.5540 C   0  0  0  0  0  0  0  0  0  0  0  0
   16.6300   19.6260    9.9530 C   0  0  0  0  0  0  0  0  0  0  0  0
   15.4010   20.1940    9.6020 C   0  0  0  0  0  0  0  0  0  0  0  0
   11.9440   22.2840    7.2010 C   0  0  2  0  0  0  0  0  0  0  0  0
   12.1510   20.9770    6.6130 O   0  0  0  0  0  0  0  0  0  0  0  0
   10.4710   22.6590    6.9120 C   0  0  1  0  0  0  0  0  0  0  0  0
    9.7560   22.4270    8.1550 O   0  0  0  0  0  0  0  0  0  0  0  0
   10.1670   24.1160    6.4890 C   0  0  1  0  0  0  0  0  0  0  0  0
   10.3320   25.1100    7.6650 C   0  0  0  0  0  0  0  0  0  0  0  0
    9.1270   25.1400    8.4410 O   0  0  0  0  0  0  0  0  0  0  0  0
    8.5600   26.3660    8.6560 C   0  0  0  0  0  0  0  0  0  0  0  0
    7.4930   26.9120    7.9420 C   0  0  0  0  0  0  0  0  0  0  0  0
    7.0100   28.1840    8.2670 C   0  0  0  0  0  0  0  0  0  0  0  0
    7.5940   28.9140    9.3000 C   0  0  0  0  0  0  0  0  0  0  0  0
    8.6650   28.3760   10.0100 C   0  0  0  0  0  0  0  0  0  0  0  0
    9.1460   27.1070    9.6850 C   0  0  0  0  0  0  0  0  0  0  0  0
   10.9260   24.6290    5.3060 N   0  0  0  0  0  0  0  0  0  0  0  0
   10.3100   25.8110    4.6460 C   0  0  0  0  0  0  0  0  0  0  0  0
    8.9740   25.5670    3.9800 C   0  0  0  0  0  0  0  0  0  0  0  0
    7.7910   26.0430    4.5650 C   0  0  0  0  0  0  0  0  0  0  0  0
    6.5560   25.8300    3.9510 C   0  0  0  0  0  0  0  0  0  0  0  0
    6.4880   25.1360    2.7440 C   0  0  0  0  0  0  0  0  0  0  0  0
    7.6530   24.6550    2.1530 C   0  0  0  0  0  0  0  0  0  0  0  0
    8.8890   24.8680    2.7680 C   0  0  0  0  0  0  0  0  0  0  0  0
   11.8470   23.6500    4.3320 S   0  0  0  0  0  0  0  0  0  0  0  0
   11.1940   22.3730    4.1990 O   0  0  0  0  0  0  0  0  0  0  0  0
   12.2390   24.4150    3.1730 O   0  0  0  0  0  0  0  0  0  0  0  0
   15.9430   21.3620    4.8970 C   0  0  0  0  0  0  0  0  0  0  0  0
   18.0377   17.0474    6.8884 H   0  0  0  0  0  0  0  0  0  0  0  0
   17.8621   16.0009    5.4391 H   0  0  0  0  0  0  0  0  0  0  0  0
   19.0573   17.3418    5.4391 H   0  0  0  0  0  0  0  0  0  0  0  0
   16.3680   17.5190    4.6450 H   0  0  0  0  0  0  0  0  0  0  0  0
   15.9797   18.5445    2.9545 H   0  0  0  0  0  0  0  0  0  0  0  0
   14.2071   19.8340    1.7664 H   0  0  0  0  0  0  0  0  0  0  0  0
   13.5327   22.0822    2.5891 H   0  0  0  0  0  0  0  0  0  0  0  0
   15.2348   23.7994    5.4935 H   0  0  0  0  0  0  0  0  0  0  0  0
   14.5034   24.1407    3.8617 H   0  0  0  0  0  0  0  0  0  0  0  0
   12.6663   24.2430    7.1571 H   0  0  0  0  0  0  0  0  0  0  0  0
   15.1558   22.7501    6.6985 H   0  0  0  0  0  0  0  0  0  0  0  0
   14.7692   23.9799    7.9255 H   0  0  0  0  0  0  0  0  0  0  0  0
   16.5388   22.8966    7.8669 H   0  0  0  0  0  0  0  0  0  0  0  0
   18.7263   21.8823    8.4916 H   0  0  0  0  0  0  0  0  0  0  0  0
   18.7868   19.7770    9.8292 H   0  0  0  0  0  0  0  0  0  0  0  0
   16.6559   18.7002   10.5465 H   0  0  0  0  0  0  0  0  0  0  0  0
   14.4634   19.7158    9.9218 H   0  0  0  0  0  0  0  0  0  0  0  0
   12.0681   22.3009    8.2938 H   0  0  0  0  0  0  0  0  0  0  0  0
   11.4170   20.7870    5.9950 H   0  0  0  0  0  0  0  0  0  0  0  0
   10.1741   22.0507    6.0449 H   0  0  0  0  0  0  0  0  0  0  0  0
    9.9330   23.2290    8.6920 H   0  0  0  0  0  0  0  0  0  0  0  0
    9.1144   24.0600    6.1745 H   0  0  0  0  0  0  0  0  0  0  0  0
   11.1696   24.7885    8.3015 H   0  0  0  0  0  0  0  0  0  0  0  0
   10.5364   26.1153    7.2681 H   0  0  0  0  0  0  0  0  0  0  0  0
    7.0310   26.3417    7.1226 H   0  0  0  0  0  0  0  0  0  0  0  0
    6.1658   28.6095    7.7047 H   0  0  0  0  0  0  0  0  0  0  0  0
    7.2102   29.9130    9.5544 H   0  0  0  0  0  0  0  0  0  0  0  0
    9.1304   28.9500   10.8248 H   0  0  0  0  0  0  0  0  0  0  0  0
    9.9946   26.6863   10.2444 H   0  0  0  0  0  0  0  0  0  0  0  0
   10.1698   26.5900    5.4099 H   0  0  0  0  0  0  0  0  0  0  0  0
   11.0000   26.0977    3.8387 H   0  0  0  0  0  0  0  0  0  0  0  0
    7.8374   26.5901    5.5181 H   0  0  0  0  0  0  0  0  0  0  0  0
    5.6361   26.2098    4.4196 H   0  0  0  0  0  0  0  0  0  0  0  0
    5.5149   24.9686    2.2591 H   0  0  0  0  0  0  0  0  0  0  0  0
    7.6002   24.1067    1.2009 H   0  0  0  0  0  0  0  0  0  0  0  0
    9.8052   24.4832    2.2962 H   0  0  0  0  0  0  0  0  0  0  0  0
   16.4522   21.7968    5.7698 H   0  0  0  0  0  0  0  0  0  0  0  0
  1  2  1  0
  2  3  1  0
  3  4  2  0
  3  5  1  0
  5  6  2  0
  6  7  1  0
  7  8  2  0
  8  9  1  0
  9 10  1  0
 10 11  1  0
 11 12  1  0
 12 13  1  0
 13 14  1  0
 14 15  1  0
 15 16  2  0
 16 17  1  0
 17 18  2  0
 18 19  1  0
 19 20  2  0
 12 21  1  0
 21 22  1  0
 21 23  1  0
 23 24  1  0
 23 25  1  0
 25 26  1  0
 26 27  1  0
 27 28  1  0
 28 29  2  0
 29 30  1  0
 30 31  2  0
 31 32  1  0
 32 33  2  0
 25 34  1  0
 34 35  1  0
 35 36  1  0
 36 37  2  0
 37 38  1  0
 38 39  2  0
 39 40  1  0
 40 41  2  0
 34 42  1  0
 42 43  2  0
 42 44  2  0
  9 45  2  0
 45  5  1  0
 42 11  1  0
 20 15  1  0
 33 28  1  0
 41 36  1  0
  1 46  1  0
  1 47  1  0
  1 48  1  0
  2 49  1  0
  6 50  1  0
  7 51  1  0
  8 52  1  0
 10 53  1  0
 10 54  1  0
 12 55  1  1
 13 56  1  0
 13 57  1  0
 16 58  1  0
 17 59  1  0
 18 60  1  0
 19 61  1  0
 20 62  1  0
 21 63  1  1
 22 64  1  0
 23 65  1  6
 24 66  1  0
 25 67  1  6
 26 68  1  0
 26 69  1  0
 29 70  1  0
 30 71  1  0
 31 72  1  0
 32 73  1  0
 33 74  1  0
 35 75  1  0
 35 76  1  0
 37 77  1  0
 38 78  1  0
 39 79  1  0
 40 80  1  0
 41 81  1  0
 45 82  1  0
M  END
>  <meeko>  (2) 
{"is_sidechain": [false], "free_energy": -7.885, "intermolecular_energy": -17.109, "internal_energy": -1.859}

$$$$
1g2k_ligand
     RDKit          3D

 82 86  0  0  0  0  0  0  0  0999 V2000
    5.1850   28.3860    6.8460 C   0  0  0  0  0  0  0  0  0  0  0  0
    6.3960   27.6220    7.0080 N   0  0  0  0  0  0  0  0  0  0  0  0
    7.5920   28.2620    7.2680 C   0  0  0  0  0  0  0  0  0  0  0  0
    7.7270   29.4800    7.2810 O   0  0  0  0  0  0  0  0  0  0  0  0
    8.7450   27.3790    7.5850 C   0  0  0  0  0  0  0  0  0  0  0  0
    9.6510   27.7890    8.5670 C   0  0  0  0  0  0  0  0  0  0  0  0
   10.7260   26.9690    8.9040 C   0  0  0  0  0  0  0  0  0  0  0  0
   10.9040   25.7460    8.2570 C   0  0  0  0  0  0  0  0  0  0  0  0
   10.0220   25.3300    7.2480 C   0  0  0  0  0  0  0  0  0  0  0  0
   10.2180   23.9930    6.5680 C   0  0  0  0  0  0  0  0  0  0  0  0
   11.6100   23.7670    6.1530 N   0  0  0  0  0  0  0  0  0  0  0  0
   11.9990   24.1280    4.7780 C   0  0  2  0  0  0  0  0  0  0  0  0
   11.2460   25.3800    4.2770 C   0  0  0  0  0  0  0  0  0  0  0  0
   10.4500   24.9740    3.1490 O   0  0  0  0  0  0  0  0  0  0  0  0
    9.0990   25.1650    3.2450 C   0  0  0  0  0  0  0  0  0  0  0  0
    8.7090   26.4970    3.4080 C   0  0  0  0  0  0  0  0  0  0  0  0
    7.3600   26.8310    3.5370 C   0  0  0  0  0  0  0  0  0  0  0  0
    6.3910   25.8320    3.5010 C   0  0  0  0  0  0  0  0  0  0  0  0
    6.7730   24.5020    3.3320 C   0  0  0  0  0  0  0  0  0  0  0  0
    8.1250   24.1670    3.2020 C   0  0  0  0  0  0  0  0  0  0  0  0
   12.0040   22.9460    3.7830 C   0  0  2  0  0  0  0  0  0  0  0  0
   10.8400   22.1000    3.9520 O   0  0  0  0  0  0  0  0  0  0  0  0
   13.2150   22.0140    3.8010 C   0  0  1  0  0  0  0  0  0  0  0  0
   14.2600   22.7360    3.0950 O   0  0  0  0  0  0  0  0  0  0  0  0
   13.7980   21.6210    5.1790 C   0  0  1  0  0  0  0  0  0  0  0  0
   15.1650   20.9040    5.0500 C   0  0  0  0  0  0  0  0  0  0  0  0
   15.1940   20.1400    3.8360 O   0  0  0  0  0  0  0  0  0  0  0  0
   16.2240   19.2530    3.6880 C   0  0  0  0  0  0  0  0  0  0  0  0
   16.4080   18.3830    2.6130 C   0  0  0  0  0  0  0  0  0  0  0  0
   17.5090   17.5210    2.5880 C   0  0  0  0  0  0  0  0  0  0  0  0
   18.4260   17.5250    3.6370 C   0  0  0  0  0  0  0  0  0  0  0  0
   18.2420   18.3860    4.7160 C   0  0  0  0  0  0  0  0  0  0  0  0
   17.1430   19.2440    4.7400 C   0  0  0  0  0  0  0  0  0  0  0  0
   13.9190   22.7240    6.1820 N   0  0  0  0  0  0  0  0  0  0  0  0
   15.3030   22.9620    6.6700 C   0  0  0  0  0  0  0  0  0  0  0  0
   15.8210   21.9640    7.6830 C   0  0  0  0  0  0  0  0  0  0  0  0
   17.1910   21.6680    7.7520 C   0  0  0  0  0  0  0  0  0  0  0  0
   17.6760   20.7560    8.6900 C   0  0  0  0  0  0  0  0  0  0  0  0
   16.7980   20.1260    9.5690 C   0  0  0  0  0  0  0  0  0  0  0  0
   15.4360   20.4070    9.5100 C   0  0  0  0  0  0  0  0  0  0  0  0
   14.9490   21.3190    8.5720 C   0  0  0  0  0  0  0  0  0  0  0  0
   12.6980   23.1260    7.2320 S   0  0  0  0  0  0  0  0  0  0  0  0
   12.1330   21.9180    7.7780 O   0  0  0  0  0  0  0  0  0  0  0  0
   13.1750   24.1840    8.0880 O   0  0  0  0  0  0  0  0  0  0  0  0
    8.9430   26.1650    6.9130 C   0  0  0  0  0  0  0  0  0  0  0  0
    4.7783   28.6426    7.8353 H   0  0  0  0  0  0  0  0  0  0  0  0
    5.4054   29.3089    6.2895 H   0  0  0  0  0  0  0  0  0  0  0  0
    4.4469   27.7897    6.2895 H   0  0  0  0  0  0  0  0  0  0  0  0
    6.2960   26.6600    7.3080 H   0  0  0  0  0  0  0  0  0  0  0  0
    9.5158   28.7565    9.0726 H   0  0  0  0  0  0  0  0  0  0  0  0
   11.4358   27.2867    9.6819 H   0  0  0  0  0  0  0  0  0  0  0  0
   11.7470   25.0991    8.5416 H   0  0  0  0  0  0  0  0  0  0  0  0
    9.9254   23.1960    7.2675 H   0  0  0  0  0  0  0  0  0  0  0  0
    9.5954   23.9867    5.6612 H   0  0  0  0  0  0  0  0  0  0  0  0
   13.0608   24.4109    4.8283 H   0  0  0  0  0  0  0  0  0  0  0  0
   10.5978   25.7740    5.0736 H   0  0  0  0  0  0  0  0  0  0  0  0
   11.9529   26.1729    3.9913 H   0  0  0  0  0  0  0  0  0  0  0  0
    9.4718   27.2891    3.4349 H   0  0  0  0  0  0  0  0  0  0  0  0
    7.0628   27.8821    3.6669 H   0  0  0  0  0  0  0  0  0  0  0  0
    5.3271   26.0914    3.6056 H   0  0  0  0  0  0  0  0  0  0  0  0
    6.0078   23.7124    3.3007 H   0  0  0  0  0  0  0  0  0  0  0  0
    8.4203   23.1162    3.0658 H   0  0  0  0  0  0  0  0  0  0  0  0
   12.0217   23.4798    2.8214 H   0  0  0  0  0  0  0  0  0  0  0  0
   10.7950   21.4700    3.2050 H   0  0  0  0  0  0  0  0  0  0  0  0
   12.8766   21.0635    3.3627 H   0  0  0  0  0  0  0  0  0  0  0  0
   15.0950   22.3250    3.4070 H   0  0  0  0  0  0  0  0  0  0  0  0
   13.0353   20.9336    5.5736 H   0  0  0  0  0  0  0  0  0  0  0  0
   15.9708   21.6525    5.0310 H   0  0  0  0  0  0  0  0  0  0  0  0
   15.3078   20.2316    5.9088 H   0  0  0  0  0  0  0  0  0  0  0  0
   15.6857   18.3750    1.7834 H   0  0  0  0  0  0  0  0  0  0  0  0
   17.6514   16.8379    1.7377 H   0  0  0  0  0  0  0  0  0  0  0  0
   19.2937   16.8493    3.6129 H   0  0  0  0  0  0  0  0  0  0  0  0
   18.9621   18.3893    5.5476 H   0  0  0  0  0  0  0  0  0  0  0  0
   16.9984   19.9202    5.5955 H   0  0  0  0  0  0  0  0  0  0  0  0
   15.9764   22.9418    5.8004 H   0  0  0  0  0  0  0  0  0  0  0  0
   15.2758   23.9311    7.1898 H   0  0  0  0  0  0  0  0  0  0  0  0
   17.8897   22.1601    7.0594 H   0  0  0  0  0  0  0  0  0  0  0  0
   18.7525   20.5343    8.7354 H   0  0  0  0  0  0  0  0  0  0  0  0
   17.1805   19.4074   10.3088 H   0  0  0  0  0  0  0  0  0  0  0  0
   14.7422   19.9096   10.2037 H   0  0  0  0  0  0  0  0  0  0  0  0
   13.8710   21.5338    8.5298 H   0  0  0  0  0  0  0  0  0  0  0  0
    8.2473   25.8633    6.1161 H   0  0  0  0  0  0  0  0  0  0  0  0
  1  2  1  0
  2  3  1  0
  3  4  2  0
  3  5  1  0
  5  6  2  0
  6  7  1  0
  7  8  2  0
  8  9  1  0
  9 10  1  0
 10 11  1  0
 11 12  1  0
 12 13  1  0
 13 14  1  0
 14 15  1  0
 15 16  2  0
 16 17  1  0
 17 18  2  0
 18 19  1  0
 19 20  2  0
 12 21  1  0
 21 22  1  0
 21 23  1  0
 23 24  1  0
 23 25  1  0
 25 26  1  0
 26 27  1  0
 27 28  1  0
 28 29  2  0
 29 30  1  0
 30 31  2  0
 31 32  1  0
 32 33  2  0
 25 34  1  0
 34 35  1  0
 35 36  1  0
 36 37  2  0
 37 38  1  0
 38 39  2  0
 39 40  1  0
 40 41  2  0
 34 42  1  0
 42 43  2  0
 42 44  2  0
  9 45  2  0
 45  5  1  0
 42 11  1  0
 20 15  1  0
 33 28  1  0
 41 36  1  0
  1 46  1  0
  1 47  1  0
  1 48  1  0
  2 49  1  0
  6 50  1  0
  7 51  1  0
  8 52  1  0
 10 53  1  0
 10 54  1  0
 12 55  1  1
 13 56  1  0
 13 57  1  0
 16 58  1  0
 17 59  1  0
 18 60  1  0
 19 61  1  0
 20 62  1  0
 21 63  1  6
 22 64  1  0
 23 65  1  6
 24 66  1  0
 25 67  1  1
 26 68  1  0
 26 69  1  0
 29 70  1  0
 30 71  1  0
 31 72  1  0
 32 73  1  0
 33 74  1  0
 35 75  1  0
 35 76  1  0
 37 77  1  0
 38 78  1  0
 39 79  1  0
 40 80  1  0
 41 81  1  0
 45 82  1  0
M  END
>  <meeko>  (3) 
{"is_sidechain": [false], "free_energy": -7.767, "intermolecular_energy": -17.842, "internal_energy": -0.883}

$$$$
1g2k_ligand
     RDKit          3D

 82 86  0  0  0  0  0  0  0  0999 V2000
    3.8440   25.6210    5.4330 C   0  0  0  0  0  0  0  0  0  0  0  0
    5.1110   25.3550    4.7980 N   0  0  0  0  0  0  0  0  0  0  0  0
    5.3280   25.7430    3.4910 C   0  0  0  0  0  0  0  0  0  0  0  0
    4.4660   26.2320    2.7710 O   0  0  0  0  0  0  0  0  0  0  0  0
    6.7160   25.5760    2.9860 C   0  0  0  0  0  0  0  0  0  0  0  0
    7.1520   26.3960    1.9420 C   0  0  0  0  0  0  0  0  0  0  0  0
    8.4570   26.2810    1.4680 C   0  0  0  0  0  0  0  0  0  0  0  0
    9.3250   25.3410    2.0270 C   0  0  0  0  0  0  0  0  0  0  0  0
    8.8970   24.4880    3.0550 C   0  0  0  0  0  0  0  0  0  0  0  0
    9.8550   23.4870    3.6630 C   0  0  0  0  0  0  0  0  0  0  0  0
   10.6110   24.0420    4.7940 N   0  0  0  0  0  0  0  0  0  0  0  0
   10.0350   23.9280    6.1460 C   0  0  2  0  0  0  0  0  0  0  0  0
   10.2150   25.2290    6.9590 C   0  0  0  0  0  0  0  0  0  0  0  0
    9.2810   25.1800    8.0520 O   0  0  0  0  0  0  0  0  0  0  0  0
    8.7840   26.3740    8.4950 C   0  0  0  0  0  0  0  0  0  0  0  0
    9.4370   26.8990    9.6130 C   0  0  0  0  0  0  0  0  0  0  0  0
    9.0200   28.1050   10.1790 C   0  0  0  0  0  0  0  0  0  0  0  0
    7.9460   28.7960    9.6250 C   0  0  0  0  0  0  0  0  0  0  0  0
    7.2940   28.2810    8.5050 C   0  0  0  0  0  0  0  0  0  0  0  0
    7.7130   27.0730    7.9380 C   0  0  0  0  0  0  0  0  0  0  0  0
   10.4340   22.6420    6.9050 C   0  0  2  0  0  0  0  0  0  0  0  0
    9.6570   22.4740    8.1170 O   0  0  0  0  0  0  0  0  0  0  0  0
   11.8990   22.4650    7.3350 C   0  0  1  0  0  0  0  0  0  0  0  0
   12.3580   21.2310    6.7220 O   0  0  0  0  0  0  0  0  0  0  0  0
   12.8850   23.5740    6.8960 C   0  0  1  0  0  0  0  0  0  0  0  0
   14.2810   23.4000    7.5430 C   0  0  0  0  0  0  0  0  0  0  0  0
   14.2330   22.3480    8.5150 O   0  0  0  0  0  0  0  0  0  0  0  0
   15.4040   21.6940    8.7780 C   0  0  0  0  0  0  0  0  0  0  0  0
   16.6870   22.1620    8.4920 C   0  0  0  0  0  0  0  0  0  0  0  0
   17.8050   21.3870    8.8130 C   0  0  0  0  0  0  0  0  0  0  0  0
   17.6460   20.1420    9.4170 C   0  0  0  0  0  0  0  0  0  0  0  0
   16.3670   19.6650    9.6970 C   0  0  0  0  0  0  0  0  0  0  0  0
   15.2520   20.4400    9.3760 C   0  0  0  0  0  0  0  0  0  0  0  0
   13.0510   23.7620    5.4210 N   0  0  0  0  0  0  0  0  0  0  0  0
   14.4450   23.5970    4.9330 C   0  0  0  0  0  0  0  0  0  0  0  0
   14.7960   22.2260    4.3990 C   0  0  0  0  0  0  0  0  0  0  0  0
   15.6560   21.3820    5.1180 C   0  0  0  0  0  0  0  0  0  0  0  0
   15.9750   20.1120    4.6350 C   0  0  0  0  0  0  0  0  0  0  0  0
   15.4430   19.6710    3.4260 C   0  0  0  0  0  0  0  0  0  0  0  0
   14.5910   20.4990    2.7000 C   0  0  0  0  0  0  0  0  0  0  0  0
   14.2700   21.7700    3.1820 C   0  0  0  0  0  0  0  0  0  0  0  0
   12.0800   24.7690    4.5260 S   0  0  0  0  0  0  0  0  0  0  0  0
   12.0590   26.0700    5.1440 O   0  0  0  0  0  0  0  0  0  0  0  0
   12.4290   24.6040    3.1360 O   0  0  0  0  0  0  0  0  0  0  0  0
    7.5780   24.6100    3.5250 C   0  0  0  0  0  0  0  0  0  0  0  0
    3.9688   25.5948    6.5256 H   0  0  0  0  0  0  0  0  0  0  0  0
    3.4829   26.6145    5.1289 H   0  0  0  0  0  0  0  0  0  0  0  0
    3.1138   24.8566    5.1289 H   0  0  0  0  0  0  0  0  0  0  0  0
    5.9150   25.2520    5.4040 H   0  0  0  0  0  0  0  0  0  0  0  0
    6.4662   27.1309    1.4953 H   0  0  0  0  0  0  0  0  0  0  0  0
    8.8041   26.9319    0.6520 H   0  0  0  0  0  0  0  0  0  0  0  0
   10.3581   25.2684    1.6563 H   0  0  0  0  0  0  0  0  0  0  0  0
    9.2796   22.6186    4.0163 H   0  0  0  0  0  0  0  0  0  0  0  0
   10.5795   23.2049    2.8849 H   0  0  0  0  0  0  0  0  0  0  0  0
    8.9513   23.8040    6.0042 H   0  0  0  0  0  0  0  0  0  0  0  0
   11.2432   25.2934    7.3445 H   0  0  0  0  0  0  0  0  0  0  0  0
   10.0326   26.1118    6.3287 H   0  0  0  0  0  0  0  0  0  0  0  0
   10.2878   26.3569   10.0514 H   0  0  0  0  0  0  0  0  0  0  0  0
    9.5390   28.5085   11.0610 H   0  0  0  0  0  0  0  0  0  0  0  0
    7.6126   29.7454   10.0694 H   0  0  0  0  0  0  0  0  0  0  0  0
    6.4464   28.8273    8.0655 H   0  0  0  0  0  0  0  0  0  0  0  0
    7.1975   26.6738    7.0520 H   0  0  0  0  0  0  0  0  0  0  0  0
   10.2357   21.8920    6.1251 H   0  0  0  0  0  0  0  0  0  0  0  0
    8.7530   22.1910    7.8760 H   0  0  0  0  0  0  0  0  0  0  0  0
   11.8989   22.4850    8.4348 H   0  0  0  0  0  0  0  0  0  0  0  0
   11.5940   20.6190    6.8020 H   0  0  0  0  0  0  0  0  0  0  0  0
   12.3972   24.4881    7.2655 H   0  0  0  0  0  0  0  0  0  0  0  0
   15.0160   23.1462    6.7649 H   0  0  0  0  0  0  0  0  0  0  0  0
   14.5749   24.3388    8.0352 H   0  0  0  0  0  0  0  0  0  0  0  0
   16.8189   23.1433    8.0127 H   0  0  0  0  0  0  0  0  0  0  0  0
   18.8144   21.7617    8.5878 H   0  0  0  0  0  0  0  0  0  0  0  0
   18.5282   19.5366    9.6724 H   0  0  0  0  0  0  0  0  0  0  0  0
   16.2368   18.6803   10.1697 H   0  0  0  0  0  0  0  0  0  0  0  0
   14.2433   20.0602    9.5958 H   0  0  0  0  0  0  0  0  0  0  0  0
   14.6088   24.3260    4.1257 H   0  0  0  0  0  0  0  0  0  0  0  0
   15.0897   23.7505    5.8109 H   0  0  0  0  0  0  0  0  0  0  0  0
   16.0831   21.7248    6.0720 H   0  0  0  0  0  0  0  0  0  0  0  0
   16.6475   19.4586    5.2101 H   0  0  0  0  0  0  0  0  0  0  0  0
   15.6954   18.6703    3.0453 H   0  0  0  0  0  0  0  0  0  0  0  0
   14.1699   20.1515    1.7450 H   0  0  0  0  0  0  0  0  0  0  0  0
   13.5982   22.4193    2.6014 H   0  0  0  0  0  0  0  0  0  0  0  0
    7.2189   23.9424    4.3221 H   0  0  0  0  0  0  0  0  0  0  0  0
  1  2  1  0
  2  3  1  0
  3  4  2  0
  3  5  1  0
  5  6  2  0
  6  7  1  0
  7  8  2  0
  8  9  1  0
  9 10  1  0
 10 11  1  0
 11 12  1  0
 12 13  1  0
 13 14  1  0
 14 15  1  0
 15 16  2  0
 16 17  1  0
 17 18  2  0
 18 19  1  0
 19 20  2  0
 12 21  1  0
 21 22  1  0
 21 23  1  0
 23 24  1  0
 23 25  1  0
 25 26  1  0
 26 27  1  0
 27 28  1  0
 28 29  2  0
 29 30  1  0
 30 31  2  0
 31 32  1  0
 32 33  2  0
 25 34  1  0
 34 35  1  0
 35 36  1  0
 36 37  2  0
 37 38  1  0
 38 39  2  0
 39 40  1  0
 40 41  2  0
 34 42  1  0
 42 43  2  0
 42 44  2  0
  9 45  2  0
 45  5  1  0
 42 11  1  0
 20 15  1  0
 33 28  1  0
 41 36  1  0
  1 46  1  0
  1 47  1  0
  1 48  1  0
  2 49  1  0
  6 50  1  0
  7 51  1  0
  8 52  1  0
 10 53  1  0
 10 54  1  0
 12 55  1  6
 13 56  1  0
 13 57  1  0
 16 58  1  0
 17 59  1  0
 18 60  1  0
 19 61  1  0
 20 62  1  0
 21 63  1  6
 22 64  1  0
 23 65  1  1
 24 66  1  0
 25 67  1  1
 26 68  1  0
 26 69  1  0
 29 70  1  0
 30 71  1  0
 31 72  1  0
 32 73  1  0
 33 74  1  0
 35 75  1  0
 35 76  1  0
 37 77  1  0
 38 78  1  0
 39 79  1  0
 40 80  1  0
 41 81  1  0
 45 82  1  0
M  END
>  <meeko>  (4) 
{"is_sidechain": [false], "free_energy": -7.607, "intermolecular_energy": -16.802, "internal_energy": -1.596}

$$$$
1g2k_ligand
     RDKit          3D

 82 86  0  0  0  0  0  0  0  0999 V2000
   16.5500   18.0160   10.1920 C   0  0  0  0  0  0  0  0  0  0  0  0
   15.9650   19.2610    9.7580 N   0  0  0  0  0  0  0  0  0  0  0  0
   16.6240   20.0550    8.8400 C   0  0  0  0  0  0  0  0  0  0  0  0
   17.7500   19.8210    8.4170 O   0  0  0  0  0  0  0  0  0  0  0  0
   15.8640   21.2270    8.3320 C   0  0  0  0  0  0  0  0  0  0  0  0
   16.5560   22.4150    8.0790 C   0  0  0  0  0  0  0  0  0  0  0  0
   15.8730   23.5210    7.5770 C   0  0  0  0  0  0  0  0  0  0  0  0
   14.5010   23.4480    7.3370 C   0  0  0  0  0  0  0  0  0  0  0  0
   13.7830   22.2740    7.6120 C   0  0  0  0  0  0  0  0  0  0  0  0
   12.2980   22.2040    7.3290 C   0  0  0  0  0  0  0  0  0  0  0  0
   11.8590   23.2150    6.3570 N   0  0  0  0  0  0  0  0  0  0  0  0
   12.0300   22.9300    4.9220 C   0  0  2  0  0  0  0  0  0  0  0  0
   12.7630   21.5900    4.6850 C   0  0  0  0  0  0  0  0  0  0  0  0
   13.8660   21.8600    3.8020 O   0  0  0  0  0  0  0  0  0  0  0  0
   14.8810   20.9430    3.7850 C   0  0  0  0  0  0  0  0  0  0  0  0
   14.9290   20.1480    2.6370 C   0  0  0  0  0  0  0  0  0  0  0  0
   15.9050   19.1600    2.4970 C   0  0  0  0  0  0  0  0  0  0  0  0
   16.8430   18.9640    3.5070 C   0  0  0  0  0  0  0  0  0  0  0  0
   16.8050   19.7590    4.6520 C   0  0  0  0  0  0  0  0  0  0  0  0
   15.8270   20.7490    4.7910 C   0  0  0  0  0  0  0  0  0  0  0  0
   12.5830   24.1130    4.0950 C   0  0  2  0  0  0  0  0  0  0  0  0
   13.8640   24.5650    4.5980 O   0  0  0  0  0  0  0  0  0  0  0  0
   11.6940   25.3830    3.9430 C   0  0  1  0  0  0  0  0  0  0  0  0
   11.6940   25.6910    2.5240 O   0  0  0  0  0  0  0  0  0  0  0  0
   10.2120   25.2660    4.3740 C   0  0  1  0  0  0  0  0  0  0  0  0
    9.3900   24.3880    3.3990 C   0  0  0  0  0  0  0  0  0  0  0  0
    8.7320   25.2240    2.4380 O   0  0  0  0  0  0  0  0  0  0  0  0
    7.3650   25.2020    2.4320 C   0  0  0  0  0  0  0  0  0  0  0  0
    6.5340   26.0440    1.6920 C   0  0  0  0  0  0  0  0  0  0  0  0
    5.1450   25.9150    1.7810 C   0  0  0  0  0  0  0  0  0  0  0  0
    4.5820   24.9480    2.6100 C   0  0  0  0  0  0  0  0  0  0  0  0
    5.4060   24.1100    3.3580 C   0  0  0  0  0  0  0  0  0  0  0  0
    6.7930   24.2400    3.2690 C   0  0  0  0  0  0  0  0  0  0  0  0
    9.9690   24.7990    5.7740 N   0  0  0  0  0  0  0  0  0  0  0  0
    8.6280   25.1480    6.3140 C   0  0  0  0  0  0  0  0  0  0  0  0
    8.5880   26.3340    7.2520 C   0  0  0  0  0  0  0  0  0  0  0  0
    8.3970   26.1440    8.6290 C   0  0  0  0  0  0  0  0  0  0  0  0
    8.3680   27.2330    9.5020 C   0  0  0  0  0  0  0  0  0  0  0  0
    8.5260   28.5260    9.0080 C   0  0  0  0  0  0  0  0  0  0  0  0
    8.7120   28.7300    7.6440 C   0  0  0  0  0  0  0  0  0  0  0  0
    8.7410   27.6410    6.7700 C   0  0  0  0  0  0  0  0  0  0  0  0
   11.1840   24.6350    6.8940 S   0  0  0  0  0  0  0  0  0  0  0  0
   12.1440   25.6920    6.7020 O   0  0  0  0  0  0  0  0  0  0  0  0
   10.5760   24.3980    8.1810 O   0  0  0  0  0  0  0  0  0  0  0  0
   14.4790   21.1640    8.1200 C   0  0  0  0  0  0  0  0  0  0  0  0
   16.5660   17.9819   11.2914 H   0  0  0  0  0  0  0  0  0  0  0  0
   15.9522   17.1764    9.8078 H   0  0  0  0  0  0  0  0  0  0  0  0
   17.5779   17.9403    9.8078 H   0  0  0  0  0  0  0  0  0  0  0  0
   14.9590   19.3430    9.8230 H   0  0  0  0  0  0  0  0  0  0  0  0
   17.6365   22.4766    8.2756 H   0  0  0  0  0  0  0  0  0  0  0  0
   16.4173   24.4541    7.3695 H   0  0  0  0  0  0  0  0  0  0  0  0
   13.9747   24.3224    6.9266 H   0  0  0  0  0  0  0  0  0  0  0  0
   12.0621   21.2063    6.9303 H   0  0  0  0  0  0  0  0  0  0  0  0
   11.7695   22.3991    8.2738 H   0  0  0  0  0  0  0  0  0  0  0  0
   11.0156   22.7998    4.5170 H   0  0  0  0  0  0  0  0  0  0  0  0
   13.1338   21.1890    5.6398 H   0  0  0  0  0  0  0  0  0  0  0  0
   12.0834   20.8452    4.2452 H   0  0  0  0  0  0  0  0  0  0  0  0
   14.1908   20.3021    1.8362 H   0  0  0  0  0  0  0  0  0  0  0  0
   15.9330   18.5375    1.5905 H   0  0  0  0  0  0  0  0  0  0  0  0
   17.6118   18.1843    3.4021 H   0  0  0  0  0  0  0  0  0  0  0  0
   17.5474   19.6068    5.4493 H   0  0  0  0  0  0  0  0  0  0  0  0
   15.8040   21.3754    5.6949 H   0  0  0  0  0  0  0  0  0  0  0  0
   12.6391   23.6528    3.0975 H   0  0  0  0  0  0  0  0  0  0  0  0
   14.0590   24.0970    5.4340 H   0  0  0  0  0  0  0  0  0  0  0  0
   12.1256   26.1404    4.6139 H   0  0  0  0  0  0  0  0  0  0  0  0
   11.2280   24.9330    2.1090 H   0  0  0  0  0  0  0  0  0  0  0  0
    9.8688   26.3105    4.3378 H   0  0  0  0  0  0  0  0  0  0  0  0
   10.0628   23.6908    2.8781 H   0  0  0  0  0  0  0  0  0  0  0  0
    8.6374   23.8195    3.9650 H   0  0  0  0  0  0  0  0  0  0  0  0
    6.9730   26.8111    1.0371 H   0  0  0  0  0  0  0  0  0  0  0  0
    4.4942   26.5798    1.1940 H   0  0  0  0  0  0  0  0  0  0  0  0
    3.4886   24.8460    2.6741 H   0  0  0  0  0  0  0  0  0  0  0  0
    4.9648   23.3478    4.0171 H   0  0  0  0  0  0  0  0  0  0  0  0
    7.4416   23.5793    3.8630 H   0  0  0  0  0  0  0  0  0  0  0  0
    7.9673   25.3679    5.4624 H   0  0  0  0  0  0  0  0  0  0  0  0
    8.3103   24.2812    6.9122 H   0  0  0  0  0  0  0  0  0  0  0  0
    8.2687   25.1258    9.0250 H   0  0  0  0  0  0  0  0  0  0  0  0
    8.2204   27.0702   10.5798 H   0  0  0  0  0  0  0  0  0  0  0  0
    8.5038   29.3846    9.6952 H   0  0  0  0  0  0  0  0  0  0  0  0
    8.8364   29.7508    7.2535 H   0  0  0  0  0  0  0  0  0  0  0  0
    8.8853   27.8108    5.6928 H   0  0  0  0  0  0  0  0  0  0  0  0
   13.9331   20.2380    8.3533 H   0  0  0  0  0  0  0  0  0  0  0  0
  1  2  1  0
  2  3  1  0
  3  4  2  0
  3  5  1  0
  5  6  2  0
  6  7  1  0
  7  8  2  0
  8  9  1  0
  9 10  1  0
 10 11  1  0
 11 12  1  0
 12 13  1  0
 13 14  1  0
 14 15  1  0
 15 16  2  0
 16 17  1  0
 17 18  2  0
 18 19  1  0
 19 20  2  0
 12 21  1  0
 21 22  1  0
 21 23  1  0
 23 24  1  0
 23 25  1  0
 25 26  1  0
 26 27  1  0
 27 28  1  0
 28 29  2  0
 29 30  1  0
 30 31  2  0
 31 32  1  0
 32 33  2  0
 25 34  1  0
 34 35  1  0
 35 36  1  0
 36 37  2  0
 37 38  1  0
 38 39  2  0
 39 40  1  0
 40 41  2  0
 34 42  1  0
 42 43  2  0
 42 44  2  0
  9 45  2  0
 45  5  1  0
 42 11  1  0
 20 15  1  0
 33 28  1  0
 41 36  1  0
  1 46  1  0
  1 47  1  0
  1 48  1  0
  2 49  1  0
  6 50  1  0
  7 51  1  0
  8 52  1  0
 10 53  1  0
 10 54  1  0
 12 55  1  6
 13 56  1  0
 13 57  1  0
 16 58  1  0
 17 59  1  0
 18 60  1  0
 19 61  1  0
 20 62  1  0
 21 63  1  6
 22 64  1  0
 23 65  1  1
 24 66  1  0
 25 67  1  1
 26 68  1  0
 26 69  1  0
 29 70  1  0
 30 71  1  0
 31 72  1  0
 32 73  1  0
 33 74  1  0
 35 75  1  0
 35 76  1  0
 37 77  1  0
 38 78  1  0
 39 79  1  0
 40 80  1  0
 41 81  1  0
 45 82  1  0
M  END
>  <meeko>  (5) 
{"is_sidechain": [false], "free_energy": -7.56, "intermolecular_energy": -17.443, "internal_energy": -0.857}

$$$$
1g2k_ligand
     RDKit          3D

 82 86  0  0  0  0  0  0  0  0999 V2000
    5.0450   26.4750    6.3850 C   0  0  0  0  0  0  0  0  0  0  0  0
    6.4220   26.4380    6.8110 N   0  0  0  0  0  0  0  0  0  0  0  0
    6.9270   27.4400    7.6170 C   0  0  0  0  0  0  0  0  0  0  0  0
    6.2990   28.4430    7.9350 O   0  0  0  0  0  0  0  0  0  0  0  0
    8.3020   27.2220    8.1390 C   0  0  0  0  0  0  0  0  0  0  0  0
    8.5920   27.6220    9.4460 C   0  0  0  0  0  0  0  0  0  0  0  0
    9.8650   27.4050    9.9700 C   0  0  0  0  0  0  0  0  0  0  0  0
   10.8510   26.8000    9.1890 C   0  0  0  0  0  0  0  0  0  0  0  0
   10.5870   26.4190    7.8650 C   0  0  0  0  0  0  0  0  0  0  0  0
   11.6610   25.7480    7.0370 C   0  0  0  0  0  0  0  0  0  0  0  0
   11.1070   24.8740    5.9930 N   0  0  0  0  0  0  0  0  0  0  0  0
   10.7550   25.4700    4.6920 C   0  0  2  0  0  0  0  0  0  0  0  0
    9.2410   25.7500    4.5790 C   0  0  0  0  0  0  0  0  0  0  0  0
    8.9380   25.8890    3.1790 O   0  0  0  0  0  0  0  0  0  0  0  0
    7.6650   25.5740    2.7890 C   0  0  0  0  0  0  0  0  0  0  0  0
    7.0310   24.6160    3.5840 C   0  0  0  0  0  0  0  0  0  0  0  0
    5.7360   24.1900    3.2870 C   0  0  0  0  0  0  0  0  0  0  0  0
    5.0640   24.7250    2.1910 C   0  0  0  0  0  0  0  0  0  0  0  0
    5.6880   25.6870    1.3970 C   0  0  0  0  0  0  0  0  0  0  0  0
    6.9860   26.1130    1.6960 C   0  0  0  0  0  0  0  0  0  0  0  0
   11.3630   24.7450    3.4700 C   0  0  2  0  0  0  0  0  0  0  0  0
   10.4870   23.7010    2.9780 O   0  0  0  0  0  0  0  0  0  0  0  0
   12.7480   24.0760    3.6340 C   0  0  1  0  0  0  0  0  0  0  0  0
   13.5720   24.9740    4.4240 O   0  0  0  0  0  0  0  0  0  0  0  0
   12.7850   22.7000    4.3410 C   0  0  1  0  0  0  0  0  0  0  0  0
   14.1670   22.0130    4.2070 C   0  0  0  0  0  0  0  0  0  0  0  0
   14.1230   21.0500    3.1470 O   0  0  0  0  0  0  0  0  0  0  0  0
   15.1290   20.1250    3.1090 C   0  0  0  0  0  0  0  0  0  0  0  0
   15.4720   19.3310    2.0140 C   0  0  0  0  0  0  0  0  0  0  0  0
   16.5270   18.4180    2.1120 C   0  0  0  0  0  0  0  0  0  0  0  0
   17.2390   18.2940    3.3030 C   0  0  0  0  0  0  0  0  0  0  0  0
   16.8950   19.0780    4.4020 C   0  0  0  0  0  0  0  0  0  0  0  0
   15.8420   19.9880    4.3030 C   0  0  0  0  0  0  0  0  0  0  0  0
   12.3720   22.6880    5.7790 N   0  0  0  0  0  0  0  0  0  0  0  0
   12.9660   21.5850    6.5800 C   0  0  0  0  0  0  0  0  0  0  0  0
   14.2730   21.9060    7.2690 C   0  0  0  0  0  0  0  0  0  0  0  0
   15.0480   20.8820    7.8340 C   0  0  0  0  0  0  0  0  0  0  0  0
   16.2610   21.1700    8.4630 C   0  0  0  0  0  0  0  0  0  0  0  0
   16.7120   22.4860    8.5380 C   0  0  0  0  0  0  0  0  0  0  0  0
   15.9520   23.5130    7.9860 C   0  0  0  0  0  0  0  0  0  0  0  0
   14.7390   23.2260    7.3560 C   0  0  0  0  0  0  0  0  0  0  0  0
   10.9000   23.2540    6.2990 S   0  0  0  0  0  0  0  0  0  0  0  0
    9.8710   22.7580    5.4220 O   0  0  0  0  0  0  0  0  0  0  0  0
   10.8270   23.0610    7.7270 O   0  0  0  0  0  0  0  0  0  0  0  0
    9.3010   26.6440    7.3440 C   0  0  0  0  0  0  0  0  0  0  0  0
    4.3885   26.4926    7.2675 H   0  0  0  0  0  0  0  0  0  0  0  0
    4.8721   27.3781    5.7813 H   0  0  0  0  0  0  0  0  0  0  0  0
    4.8239   25.5825    5.7813 H   0  0  0  0  0  0  0  0  0  0  0  0
    6.8680   25.5300    6.8440 H   0  0  0  0  0  0  0  0  0  0  0  0
    7.8181   28.1066   10.0593 H   0  0  0  0  0  0  0  0  0  0  0  0
   10.0933   27.7112   11.0016 H   0  0  0  0  0  0  0  0  0  0  0  0
   11.8480   26.6196    9.6173 H   0  0  0  0  0  0  0  0  0  0  0  0
   12.2731   26.5258    6.5570 H   0  0  0  0  0  0  0  0  0  0  0  0
   12.2596   25.1204    7.7136 H   0  0  0  0  0  0  0  0  0  0  0  0
   11.2495   26.4522    4.6651 H   0  0  0  0  0  0  0  0  0  0  0  0
    8.6698   24.9130    5.0071 H   0  0  0  0  0  0  0  0  0  0  0  0
    8.9702   26.6628    5.1299 H   0  0  0  0  0  0  0  0  0  0  0  0
    7.5578   24.1935    4.4524 H   0  0  0  0  0  0  0  0  0  0  0  0
    5.2468   23.4329    3.9175 H   0  0  0  0  0  0  0  0  0  0  0  0
    4.0439   24.3899    1.9521 H   0  0  0  0  0  0  0  0  0  0  0  0
    5.1572   26.1122    0.5324 H   0  0  0  0  0  0  0  0  0  0  0  0
    7.4724   26.8743    1.0684 H   0  0  0  0  0  0  0  0  0  0  0  0
   11.4901   25.5921    2.7799 H   0  0  0  0  0  0  0  0  0  0  0  0
   10.8130   22.8370    3.2980 H   0  0  0  0  0  0  0  0  0  0  0  0
   13.0969   23.8906    2.6074 H   0  0  0  0  0  0  0  0  0  0  0  0
   13.0680   25.0980    5.2570 H   0  0  0  0  0  0  0  0  0  0  0  0
   12.0156   22.1313    3.7982 H   0  0  0  0  0  0  0  0  0  0  0  0
   14.9323   22.7704    3.9822 H   0  0  0  0  0  0  0  0  0  0  0  0
   14.4169   21.5067    5.1510 H   0  0  0  0  0  0  0  0  0  0  0  0
   14.9116   19.4233    1.0720 H   0  0  0  0  0  0  0  0  0  0  0  0
   16.7955   17.7957    1.2456 H   0  0  0  0  0  0  0  0  0  0  0  0
   18.0713   17.5784    3.3755 H   0  0  0  0  0  0  0  0  0  0  0  0
   17.4521   18.9799    5.3454 H   0  0  0  0  0  0  0  0  0  0  0  0
   15.5704   20.6036    5.1733 H   0  0  0  0  0  0  0  0  0  0  0  0
   12.2378   21.2985    7.3530 H   0  0  0  0  0  0  0  0  0  0  0  0
   13.1940   20.7826    5.8630 H   0  0  0  0  0  0  0  0  0  0  0  0
   14.6963   19.8411    7.7809 H   0  0  0  0  0  0  0  0  0  0  0  0
   16.8606   20.3576    8.8994 H   0  0  0  0  0  0  0  0  0  0  0  0
   17.6677   22.7131    9.0330 H   0  0  0  0  0  0  0  0  0  0  0  0
   16.3072   24.5523    8.0460 H   0  0  0  0  0  0  0  0  0  0  0  0
   14.1432   24.0434    6.9237 H   0  0  0  0  0  0  0  0  0  0  0  0
    9.0770   26.3642    6.3040 H   0  0  0  0  0  0  0  0  0  0  0  0
  1  2  1  0
  2  3  1  0
  3  4  2  0
  3  5  1  0
  5  6  2  0
  6  7  1  0
  7  8  2  0
  8  9  1  0
  9 10  1  0
 10 11  1  0
 11 12  1  0
 12 13  1  0
 13 14  1  0
 14 15  1  0
 15 16  2  0
 16 17  1  0
 17 18  2  0
 18 19  1  0
 19 20  2  0
 12 21  1  0
 21 22  1  0
 21 23  1  0
 23 24  1  0
 23 25  1  0
 25 26  1  0
 26 27  1  0
 27 28  1  0
 28 29  2  0
 29 30  1  0
 30 31  2  0
 31 32  1  0
 32 33  2  0
 25 34  1  0
 34 35  1  0
 35 36  1  0
 36 37  2  0
 37 38  1  0
 38 39  2  0
 39 40  1  0
 40 41  2  0
 34 42  1  0
 42 43  2  0
 42 44  2  0
  9 45  2  0
 45  5  1  0
 42 11  1  0
 20 15  1  0
 33 28  1  0
 41 36  1  0
  1 46  1  0
  1 47  1  0
  1 48  1  0
  2 49  1  0
  6 50  1  0
  7 51  1  0
  8 52  1  0
 10 53  1  0
 10 54  1  0
 12 55  1  1
 13 56  1  0
 13 57  1  0
 16 58  1  0
 17 59  1  0
 18 60  1  0
 19 61  1  0
 20 62  1  0
 21 63  1  6
 22 64  1  0
 23 65  1  6
 24 66  1  0
 25 67  1  6
 26 68  1  0
 26 69  1  0
 29 70  1  0
 30 71  1  0
 31 72  1  0
 32 73  1  0
 33 74  1  0
 35 75  1  0
 35 76  1  0
 37 77  1  0
 38 78  1  0
 39 79  1  0
 40 80  1  0
 41 81  1  0
 45 82  1  0
M  END
>  <meeko>  (6) 
{"is_sidechain": [false], "free_energy": -7.511, "intermolecular_energy": -16.783, "internal_energy": -1.416}

$$$$
1g2k_ligand
     RDKit          3D

 82 86  0  0  0  0  0  0  0  0999 V2000
   20.0190   15.9190    6.6560 C   0  0  0  0  0  0  0  0  0  0  0  0
   19.1610   16.8230    5.9310 N   0  0  0  0  0  0  0  0  0  0  0  0
   18.8030   16.5450    4.6260 C   0  0  0  0  0  0  0  0  0  0  0  0
   19.2480   15.6030    3.9820 O   0  0  0  0  0  0  0  0  0  0  0  0
   17.7840   17.4460    4.0270 C   0  0  0  0  0  0  0  0  0  0  0  0
   17.8330   17.6900    2.6510 C   0  0  0  0  0  0  0  0  0  0  0  0
   16.8740   18.5090    2.0580 C   0  0  0  0  0  0  0  0  0  0  0  0
   15.8740   19.0930    2.8360 C   0  0  0  0  0  0  0  0  0  0  0  0
   15.8260   18.8840    4.2230 C   0  0  0  0  0  0  0  0  0  0  0  0
   14.7240   19.5100    5.0500 C   0  0  0  0  0  0  0  0  0  0  0  0
   14.8880   20.9630    5.2040 N   0  0  0  0  0  0  0  0  0  0  0  0
   15.7940   21.4590    6.2550 C   0  0  2  0  0  0  0  0  0  0  0  0
   16.9700   20.4890    6.5050 C   0  0  0  0  0  0  0  0  0  0  0  0
   17.5700   20.8620    7.7580 O   0  0  0  0  0  0  0  0  0  0  0  0
   17.6840   19.8820    8.7050 C   0  0  0  0  0  0  0  0  0  0  0  0
   18.0340   20.3400    9.9790 C   0  0  0  0  0  0  0  0  0  0  0  0
   18.2010   19.4440   11.0350 C   0  0  0  0  0  0  0  0  0  0  0  0
   18.0150   18.0800   10.8230 C   0  0  0  0  0  0  0  0  0  0  0  0
   17.6590   17.6170    9.5570 C   0  0  0  0  0  0  0  0  0  0  0  0
   17.4920   18.5170    8.4990 C   0  0  0  0  0  0  0  0  0  0  0  0
   15.0820   21.9420    7.5390 C   0  0  2  0  0  0  0  0  0  0  0  0
   14.7730   20.8400    8.4270 O   0  0  0  0  0  0  0  0  0  0  0  0
   13.7730   22.7190    7.3900 C   0  0  1  0  0  0  0  0  0  0  0  0
   14.0980   23.9440    6.6800 O   0  0  0  0  0  0  0  0  0  0  0  0
   12.6490   22.0240    6.5860 C   0  0  1  0  0  0  0  0  0  0  0  0
   11.2410   22.4000    7.1080 C   0  0  0  0  0  0  0  0  0  0  0  0
   11.3050   23.6520    7.8030 O   0  0  0  0  0  0  0  0  0  0  0  0
   10.4970   24.6560    7.3460 C   0  0  0  0  0  0  0  0  0  0  0  0
   10.7610   25.4920    6.2610 C   0  0  0  0  0  0  0  0  0  0  0  0
    9.8440   26.4850    5.9010 C   0  0  0  0  0  0  0  0  0  0  0  0
    8.6660   26.6480    6.6250 C   0  0  0  0  0  0  0  0  0  0  0  0
    8.4010   25.8220    7.7150 C   0  0  0  0  0  0  0  0  0  0  0  0
    9.3170   24.8320    8.0740 C   0  0  0  0  0  0  0  0  0  0  0  0
   12.6860   22.2140    5.1020 N   0  0  0  0  0  0  0  0  0  0  0  0
   11.4020   21.9230    4.4120 C   0  0  0  0  0  0  0  0  0  0  0  0
   10.7570   23.0950    3.7060 C   0  0  0  0  0  0  0  0  0  0  0  0
    9.3620   23.1670    3.5780 C   0  0  0  0  0  0  0  0  0  0  0  0
    8.7600   24.2500    2.9360 C   0  0  0  0  0  0  0  0  0  0  0  0
    9.5460   25.2730    2.4090 C   0  0  0  0  0  0  0  0  0  0  0  0
   10.9320   25.2130    2.5240 C   0  0  0  0  0  0  0  0  0  0  0  0
   11.5350   24.1300    3.1670 C   0  0  0  0  0  0  0  0  0  0  0  0
   14.0620   21.9960    4.2000 S   0  0  0  0  0  0  0  0  0  0  0  0
   13.7250   21.2810    2.9950 O   0  0  0  0  0  0  0  0  0  0  0  0
   14.7690   23.2530    4.1520 O   0  0  0  0  0  0  0  0  0  0  0  0
   16.7980   18.0590    4.8130 C   0  0  0  0  0  0  0  0  0  0  0  0
   19.8782   16.0673    7.7368 H   0  0  0  0  0  0  0  0  0  0  0  0
   19.7652   14.8817    6.3921 H   0  0  0  0  0  0  0  0  0  0  0  0
   21.0681   16.1183    6.3921 H   0  0  0  0  0  0  0  0  0  0  0  0
   18.5450   17.4100    6.4790 H   0  0  0  0  0  0  0  0  0  0  0  0
   18.6263   17.2368    2.0384 H   0  0  0  0  0  0  0  0  0  0  0  0
   16.9056   18.6954    0.9744 H   0  0  0  0  0  0  0  0  0  0  0  0
   15.1130   19.7257    2.3559 H   0  0  0  0  0  0  0  0  0  0  0  0
   13.7599   19.3146    4.5578 H   0  0  0  0  0  0  0  0  0  0  0  0
   14.7655   19.0620    6.0538 H   0  0  0  0  0  0  0  0  0  0  0  0
   16.2395   22.3835    5.8589 H   0  0  0  0  0  0  0  0  0  0  0  0
   16.6005   19.4543    6.5573 H   0  0  0  0  0  0  0  0  0  0  0  0
   17.7042   20.5467    5.6880 H   0  0  0  0  0  0  0  0  0  0  0  0
   18.1790   21.4169   10.1501 H   0  0  0  0  0  0  0  0  0  0  0  0
   18.4790   19.8138   12.0330 H   0  0  0  0  0  0  0  0  0  0  0  0
   18.1486   17.3698   11.6523 H   0  0  0  0  0  0  0  0  0  0  0  0
   17.5089   16.5402    9.3894 H   0  0  0  0  0  0  0  0  0  0  0  0
   17.2086   18.1467    7.5027 H   0  0  0  0  0  0  0  0  0  0  0  0
   15.8355   22.6419    7.9293 H   0  0  0  0  0  0  0  0  0  0  0  0
   14.0380   20.3220    8.0440 H   0  0  0  0  0  0  0  0  0  0  0  0
   13.3783   22.8465    8.4088 H   0  0  0  0  0  0  0  0  0  0  0  0
   13.9110   23.7380    5.7390 H   0  0  0  0  0  0  0  0  0  0  0  0
   12.8549   20.9578    6.7612 H   0  0  0  0  0  0  0  0  0  0  0  0
   10.5470   22.4875    6.2590 H   0  0  0  0  0  0  0  0  0  0  0  0
   10.8851   21.6182    7.7951 H   0  0  0  0  0  0  0  0  0  0  0  0
   11.6918   25.3702    5.6876 H   0  0  0  0  0  0  0  0  0  0  0  0
   10.0544   27.1397    5.0425 H   0  0  0  0  0  0  0  0  0  0  0  0
    7.9457   27.4278    6.3368 H   0  0  0  0  0  0  0  0  0  0  0  0
    7.4726   25.9496    8.2910 H   0  0  0  0  0  0  0  0  0  0  0  0
    9.1082   24.1841    8.9381 H   0  0  0  0  0  0  0  0  0  0  0  0
   11.5906   21.1395    3.6633 H   0  0  0  0  0  0  0  0  0  0  0  0
   10.6977   21.6242    5.2023 H   0  0  0  0  0  0  0  0  0  0  0  0
    8.7357   22.3610    3.9881 H   0  0  0  0  0  0  0  0  0  0  0  0
    7.6647   24.2962    2.8459 H   0  0  0  0  0  0  0  0  0  0  0  0
    9.0718   26.1268    1.9028 H   0  0  0  0  0  0  0  0  0  0  0  0
   11.5531   26.0198    2.1078 H   0  0  0  0  0  0  0  0  0  0  0  0
   12.6309   24.0882    3.2516 H   0  0  0  0  0  0  0  0  0  0  0  0
   16.7854   17.8926    5.9003 H   0  0  0  0  0  0  0  0  0  0  0  0
  1  2  1  0
  2  3  1  0
  3  4  2  0
  3  5  1  0
  5  6  2  0
  6  7  1  0
  7  8  2  0
  8  9  1  0
  9 10  1  0
 10 11  1  0
 11 12  1  0
 12 13  1  0
 13 14  1  0
 14 15  1  0
 15 16  2  0
 16 17  1  0
 17 18  2  0
 18 19  1  0
 19 20  2  0
 12 21  1  0
 21 22  1  0
 21 23  1  0
 23 24  1  0
 23 25  1  0
 25 26  1  0
 26 27  1  0
 27 28  1  0
 28 29  2  0
 29 30  1  0
 30 31  2  0
 31 32  1  0
 32 33  2  0
 25 34  1  0
 34 35  1  0
 35 36  1  0
 36 37  2  0
 37 38  1  0
 38 39  2  0
 39 40  1  0
 40 41  2  0
 34 42  1  0
 42 43  2  0
 42 44  2  0
  9 45  2  0
 45  5  1  0
 42 11  1  0
 20 15  1  0
 33 28  1  0
 41 36  1  0
  1 46  1  0
  1 47  1  0
  1 48  1  0
  2 49  1  0
  6 50  1  0
  7 51  1  0
  8 52  1  0
 10 53  1  0
 10 54  1  0
 12 55  1  6
 13 56  1  0
 13 57  1  0
 16 58  1  0
 17 59  1  0
 18 60  1  0
 19 61  1  0
 20 62  1  0
 21 63  1  1
 22 64  1  0
 23 65  1  1
 24 66  1  0
 25 67  1  6
 26 68  1  0
 26 69  1  0
 29 70  1  0
 30 71  1  0
 31 72  1  0
 32 73  1  0
 33 74  1  0
 35 75  1  0
 35 76  1  0
 37 77  1  0
 38 78  1  0
 39 79  1  0
 40 80  1  0
 41 81  1  0
 45 82  1  0
M  END
>  <meeko>  (7) 
{"is_sidechain": [false], "free_energy": -7.364, "intermolecular_energy": -15.835, "internal_energy": -2.064}

$$$$
1g2k_ligand
     RDKit          3D

 82 86  0  0  0  0  0  0  0  0999 V2000
   18.4940   17.3220    6.6690 C   0  0  0  0  0  0  0  0  0  0  0  0
   17.4770   17.8620    5.8030 N   0  0  0  0  0  0  0  0  0  0  0  0
   17.6840   19.0640    5.1530 C   0  0  0  0  0  0  0  0  0  0  0  0
   18.6630   19.7780    5.3340 O   0  0  0  0  0  0  0  0  0  0  0  0
   16.6510   19.4490    4.1550 C   0  0  0  0  0  0  0  0  0  0  0  0
   16.5320   18.6880    2.9890 C   0  0  0  0  0  0  0  0  0  0  0  0
   15.5550   19.0090    2.0490 C   0  0  0  0  0  0  0  0  0  0  0  0
   14.7050   20.0940    2.2650 C   0  0  0  0  0  0  0  0  0  0  0  0
   14.8290   20.8880    3.4160 C   0  0  0  0  0  0  0  0  0  0  0  0
   13.8870   22.0500    3.6450 C   0  0  0  0  0  0  0  0  0  0  0  0
   13.2760   22.0290    4.9810 N   0  0  0  0  0  0  0  0  0  0  0  0
   14.1100   22.3970    6.1390 C   0  0  2  0  0  0  0  0  0  0  0  0
   13.8410   21.4840    7.3550 C   0  0  0  0  0  0  0  0  0  0  0  0
   14.6330   21.9860    8.4470 O   0  0  0  0  0  0  0  0  0  0  0  0
   15.5850   21.1470    8.9570 C   0  0  0  0  0  0  0  0  0  0  0  0
   16.8770   21.3700    8.4740 C   0  0  0  0  0  0  0  0  0  0  0  0
   17.9410   20.5730    8.8980 C   0  0  0  0  0  0  0  0  0  0  0  0
   17.7180   19.5480    9.8130 C   0  0  0  0  0  0  0  0  0  0  0  0
   16.4330   19.3240   10.3040 C   0  0  0  0  0  0  0  0  0  0  0  0
   15.3670   20.1240    9.8790 C   0  0  0  0  0  0  0  0  0  0  0  0
   14.1200   23.9080    6.4660 C   0  0  2  0  0  0  0  0  0  0  0  0
   15.1170   24.2330    7.4650 O   0  0  0  0  0  0  0  0  0  0  0  0
   12.7950   24.5600    6.9260 C   0  0  1  0  0  0  0  0  0  0  0  0
   12.4740   25.5750    5.9380 O   0  0  0  0  0  0  0  0  0  0  0  0
   11.5590   23.6360    7.0330 C   0  0  1  0  0  0  0  0  0  0  0  0
   10.3700   24.3340    7.7380 C   0  0  0  0  0  0  0  0  0  0  0  0
   10.7820   25.6220    8.2140 O   0  0  0  0  0  0  0  0  0  0  0  0
    9.8000   26.5510    8.4140 C   0  0  0  0  0  0  0  0  0  0  0  0
    9.6560   27.3620    9.5400 C   0  0  0  0  0  0  0  0  0  0  0  0
    8.5980   28.2740    9.6180 C   0  0  0  0  0  0  0  0  0  0  0  0
    7.6810   28.3750    8.5750 C   0  0  0  0  0  0  0  0  0  0  0  0
    7.8150   27.5610    7.4520 C   0  0  0  0  0  0  0  0  0  0  0  0
    8.8700   26.6520    7.3760 C   0  0  0  0  0  0  0  0  0  0  0  0
   11.0790   23.0280    5.7540 N   0  0  0  0  0  0  0  0  0  0  0  0
    9.6600   23.3270    5.4250 C   0  0  0  0  0  0  0  0  0  0  0  0
    9.4320   24.0880    4.1380 C   0  0  0  0  0  0  0  0  0  0  0  0
    8.1530   24.1460    3.5640 C   0  0  0  0  0  0  0  0  0  0  0  0
    7.9330   24.8540    2.3820 C   0  0  0  0  0  0  0  0  0  0  0  0
    8.9900   25.5110    1.7560 C   0  0  0  0  0  0  0  0  0  0  0  0
   10.2660   25.4600    2.3120 C   0  0  0  0  0  0  0  0  0  0  0  0
   10.4860   24.7510    3.4940 C   0  0  0  0  0  0  0  0  0  0  0  0
   11.6800   21.6020    5.1520 S   0  0  0  0  0  0  0  0  0  0  0  0
   11.5910   20.5880    6.1720 O   0  0  0  0  0  0  0  0  0  0  0  0
   11.1150   21.3970    3.8400 O   0  0  0  0  0  0  0  0  0  0  0  0
   15.8180   20.5580    4.3570 C   0  0  0  0  0  0  0  0  0  0  0  0
   18.2023   17.4769    7.7182 H   0  0  0  0  0  0  0  0  0  0  0  0
   18.6069   16.2452    6.4750 H   0  0  0  0  0  0  0  0  0  0  0  0
   19.4493   17.8317    6.4750 H   0  0  0  0  0  0  0  0  0  0  0  0
   16.8270   17.2050    5.3910 H   0  0  0  0  0  0  0  0  0  0  0  0
   17.2078   17.8379    2.8138 H   0  0  0  0  0  0  0  0  0  0  0  0
   15.4536   18.4058    1.1348 H   0  0  0  0  0  0  0  0  0  0  0  0
   13.9275   20.3304    1.5237 H   0  0  0  0  0  0  0  0  0  0  0  0
   14.4504   22.9878    3.5303 H   0  0  0  0  0  0  0  0  0  0  0  0
   13.0753   21.9705    2.9068 H   0  0  0  0  0  0  0  0  0  0  0  0
   15.1498   22.2037    5.8368 H   0  0  0  0  0  0  0  0  0  0  0  0
   12.7736   21.5127    7.6191 H   0  0  0  0  0  0  0  0  0  0  0  0
   14.1065   20.4412    7.1269 H   0  0  0  0  0  0  0  0  0  0  0  0
   17.0570   22.1811    7.7531 H   0  0  0  0  0  0  0  0  0  0  0  0
   18.9541   20.7544    8.5099 H   0  0  0  0  0  0  0  0  0  0  0  0
   18.5540   18.9163   10.1478 H   0  0  0  0  0  0  0  0  0  0  0  0
   16.2564   18.5152   11.0283 H   0  0  0  0  0  0  0  0  0  0  0  0
   14.3555   19.9458   10.2727 H   0  0  0  0  0  0  0  0  0  0  0  0
   14.3431   24.3312    5.4755 H   0  0  0  0  0  0  0  0  0  0  0  0
   14.6720   24.3700    8.3240 H   0  0  0  0  0  0  0  0  0  0  0  0
   12.9790   24.9203    7.9489 H   0  0  0  0  0  0  0  0  0  0  0  0
   11.6390   25.9760    6.2620 H   0  0  0  0  0  0  0  0  0  0  0  0
   11.9358   22.8019    7.6432 H   0  0  0  0  0  0  0  0  0  0  0  0
    9.5414   24.4552    7.0247 H   0  0  0  0  0  0  0  0  0  0  0  0
   10.0375   23.7197    8.5878 H   0  0  0  0  0  0  0  0  0  0  0  0
   10.3758   27.2842   10.3682 H   0  0  0  0  0  0  0  0  0  0  0  0
    8.4901   28.9136   10.5064 H   0  0  0  0  0  0  0  0  0  0  0  0
    6.8525   29.0959    8.6374 H   0  0  0  0  0  0  0  0  0  0  0  0
    7.0906   27.6352    6.6276 H   0  0  0  0  0  0  0  0  0  0  0  0
    8.9710   26.0080    6.4899 H   0  0  0  0  0  0  0  0  0  0  0  0
    9.1211   22.3708    5.3524 H   0  0  0  0  0  0  0  0  0  0  0  0
    9.2972   23.9832    6.2299 H   0  0  0  0  0  0  0  0  0  0  0  0
    7.3142   23.6274    4.0514 H   0  0  0  0  0  0  0  0  0  0  0  0
    6.9246   24.8934    1.9443 H   0  0  0  0  0  0  0  0  0  0  0  0
    8.8171   26.0692    0.8240 H   0  0  0  0  0  0  0  0  0  0  0  0
   11.1012   25.9790    1.8191 H   0  0  0  0  0  0  0  0  0  0  0  0
   11.4974   24.7121    3.9249 H   0  0  0  0  0  0  0  0  0  0  0  0
   15.9398   21.1747    5.2597 H   0  0  0  0  0  0  0  0  0  0  0  0
  1  2  1  0
  2  3  1  0
  3  4  2  0
  3  5  1  0
  5  6  2  0
  6  7  1  0
  7  8  2  0
  8  9  1  0
  9 10  1  0
 10 11  1  0
 11 12  1  0
 12 13  1  0
 13 14  1  0
 14 15  1  0
 15 16  2  0
 16 17  1  0
 17 18  2  0
 18 19  1  0
 19 20  2  0
 12 21  1  0
 21 22  1  0
 21 23  1  0
 23 24  1  0
 23 25  1  0
 25 26  1  0
 26 27  1  0
 27 28  1  0
 28 29  2  0
 29 30  1  0
 30 31  2  0
 31 32  1  0
 32 33  2  0
 25 34  1  0
 34 35  1  0
 35 36  1  0
 36 37  2  0
 37 38  1  0
 38 39  2  0
 39 40  1  0
 40 41  2  0
 34 42  1  0
 42 43  2  0
 42 44  2  0
  9 45  2  0
 45  5  1  0
 42 11  1  0
 20 15  1  0
 33 28  1  0
 41 36  1  0
  1 46  1  0
  1 47  1  0
  1 48  1  0
  2 49  1  0
  6 50  1  0
  7 51  1  0
  8 52  1  0
 10 53  1  0
 10 54  1  0
 12 55  1  6
 13 56  1  0
 13 57  1  0
 16 58  1  0
 17 59  1  0
 18 60  1  0
 19 61  1  0
 20 62  1  0
 21 63  1  6
 22 64  1  0
 23 65  1  1
 24 66  1  0
 25 67  1  1
 26 68  1  0
 26 69  1  0
 29 70  1  0
 30 71  1  0
 31 72  1  0
 32 73  1  0
 33 74  1  0
 35 75  1  0
 35 76  1  0
 37 77  1  0
 38 78  1  0
 39 79  1  0
 40 80  1  0
 41 81  1  0
 45 82  1  0
M  END
>  <meeko>  (8) 
{"is_sidechain": [false], "free_energy": -7.237, "intermolecular_energy": -16.478, "internal_energy": -1.16}

$$$$
1g2k_ligand
     RDKit          3D

 82 86  0  0  0  0  0  0  0  0999 V2000
    5.0400   26.8150    7.3630 C   0  0  0  0  0  0  0  0  0  0  0  0
    6.4190   26.4040    7.4540 N   0  0  0  0  0  0  0  0  0  0  0  0
    7.3980   27.3230    7.7760 C   0  0  0  0  0  0  0  0  0  0  0  0
    7.1920   28.5240    7.9050 O   0  0  0  0  0  0  0  0  0  0  0  0
    8.7570   26.7680    8.0110 C   0  0  0  0  0  0  0  0  0  0  0  0
    9.7240   27.5920    8.5920 C   0  0  0  0  0  0  0  0  0  0  0  0
   10.9990   27.0900    8.8490 C   0  0  0  0  0  0  0  0  0  0  0  0
   11.3120   25.7710    8.5170 C   0  0  0  0  0  0  0  0  0  0  0  0
   10.3630   24.9380    7.9060 C   0  0  0  0  0  0  0  0  0  0  0  0
   10.7130   23.5050    7.5680 C   0  0  0  0  0  0  0  0  0  0  0  0
   11.2390   23.3560    6.2040 N   0  0  0  0  0  0  0  0  0  0  0  0
   11.3570   24.5610    5.3640 C   0  0  2  0  0  0  0  0  0  0  0  0
   10.4460   24.4860    4.1190 C   0  0  0  0  0  0  0  0  0  0  0  0
    9.8210   25.7730    3.9710 O   0  0  0  0  0  0  0  0  0  0  0  0
    8.5450   25.7880    3.4800 C   0  0  0  0  0  0  0  0  0  0  0  0
    7.6640   26.6250    4.1700 C   0  0  0  0  0  0  0  0  0  0  0  0
    6.3260   26.7210    3.7840 C   0  0  0  0  0  0  0  0  0  0  0  0
    5.8620   25.9800    2.7010 C   0  0  0  0  0  0  0  0  0  0  0  0
    6.7360   25.1480    2.0040 C   0  0  0  0  0  0  0  0  0  0  0  0
    8.0770   25.0530    2.3900 C   0  0  0  0  0  0  0  0  0  0  0  0
   12.8110   24.9920    5.0630 C   0  0  2  0  0  0  0  0  0  0  0  0
   12.8740   25.9370    3.9680 O   0  0  0  0  0  0  0  0  0  0  0  0
   13.8430   23.8950    4.7390 C   0  0  1  0  0  0  0  0  0  0  0  0
   15.0550   24.5930    4.3470 O   0  0  0  0  0  0  0  0  0  0  0  0
   14.2350   22.9280    5.8820 C   0  0  1  0  0  0  0  0  0  0  0  0
   14.5620   23.6810    7.1950 C   0  0  0  0  0  0  0  0  0  0  0  0
   15.9280   23.4410    7.5580 O   0  0  0  0  0  0  0  0  0  0  0  0
   16.1820   22.3310    8.3150 C   0  0  0  0  0  0  0  0  0  0  0  0
   17.3810   21.6200    8.3510 C   0  0  0  0  0  0  0  0  0  0  0  0
   17.5060   20.4950    9.1730 C   0  0  0  0  0  0  0  0  0  0  0  0
   16.4330   20.0770    9.9570 C   0  0  0  0  0  0  0  0  0  0  0  0
   15.2300   20.7790    9.9180 C   0  0  0  0  0  0  0  0  0  0  0  0
   15.1070   21.9010    9.0980 C   0  0  0  0  0  0  0  0  0  0  0  0
   13.2620   21.8310    6.1780 N   0  0  0  0  0  0  0  0  0  0  0  0
   13.8790   20.4860    6.3260 C   0  0  0  0  0  0  0  0  0  0  0  0
   14.8830   20.1050    5.2610 C   0  0  0  0  0  0  0  0  0  0  0  0
   16.2060   19.7940    5.6110 C   0  0  0  0  0  0  0  0  0  0  0  0
   17.1360   19.4330    4.6350 C   0  0  0  0  0  0  0  0  0  0  0  0
   16.7560   19.3810    3.2950 C   0  0  0  0  0  0  0  0  0  0  0  0
   15.4480   19.6910    2.9320 C   0  0  0  0  0  0  0  0  0  0  0  0
   14.5170   20.0520    3.9080 C   0  0  0  0  0  0  0  0  0  0  0  0
   11.6880   21.8550    5.6520 S   0  0  0  0  0  0  0  0  0  0  0  0
   11.6740   21.8820    4.2120 O   0  0  0  0  0  0  0  0  0  0  0  0
   10.9550   20.8550    6.3900 O   0  0  0  0  0  0  0  0  0  0  0  0
    9.0820   25.4540    7.6480 C   0  0  0  0  0  0  0  0  0  0  0  0
    4.6266   26.9382    8.3749 H   0  0  0  0  0  0  0  0  0  0  0  0
    4.9772   27.7709    6.8223 H   0  0  0  0  0  0  0  0  0  0  0  0
    4.4641   26.0494    6.8223 H   0  0  0  0  0  0  0  0  0  0  0  0
    6.5940   25.4290    7.6610 H   0  0  0  0  0  0  0  0  0  0  0  0
    9.4801   28.6341    8.8460 H   0  0  0  0  0  0  0  0  0  0  0  0
   11.7595   27.7345    9.3142 H   0  0  0  0  0  0  0  0  0  0  0  0
   12.3161   25.3795    8.7374 H   0  0  0  0  0  0  0  0  0  0  0  0
   11.4741   23.1516    8.2792 H   0  0  0  0  0  0  0  0  0  0  0  0
    9.7883   22.9129    7.6339 H   0  0  0  0  0  0  0  0  0  0  0  0
   10.9741   25.3926    5.9737 H   0  0  0  0  0  0  0  0  0  0  0  0
   11.0457   24.2534    3.2267 H   0  0  0  0  0  0  0  0  0  0  0  0
    9.6897   23.6958    4.2356 H   0  0  0  0  0  0  0  0  0  0  0  0
    8.0282   27.2135    5.0250 H   0  0  0  0  0  0  0  0  0  0  0  0
    5.6396   27.3810    4.3347 H   0  0  0  0  0  0  0  0  0  0  0  0
    4.8075   26.0510    2.3959 H   0  0  0  0  0  0  0  0  0  0  0  0
    6.3699   24.5637    1.1469 H   0  0  0  0  0  0  0  0  0  0  0  0
    8.7636   24.3980    1.8336 H   0  0  0  0  0  0  0  0  0  0  0  0
   13.0971   25.4181    6.0359 H   0  0  0  0  0  0  0  0  0  0  0  0
   12.1570   25.7360    3.3350 H   0  0  0  0  0  0  0  0  0  0  0  0
   13.3734   23.2569    3.9759 H   0  0  0  0  0  0  0  0  0  0  0  0
   15.2960   24.1960    3.4820 H   0  0  0  0  0  0  0  0  0  0  0  0
   15.1348   22.4372    5.4828 H   0  0  0  0  0  0  0  0  0  0  0  0
   14.4064   24.7598    7.0471 H   0  0  0  0  0  0  0  0  0  0  0  0
   13.9014   23.3210    7.9975 H   0  0  0  0  0  0  0  0  0  0  0  0
   18.2303   21.9444    7.7318 H   0  0  0  0  0  0  0  0  0  0  0  0
   18.4546   19.9387    9.2004 H   0  0  0  0  0  0  0  0  0  0  0  0
   16.5353   19.1945   10.6056 H   0  0  0  0  0  0  0  0  0  0  0  0
   14.3792   20.4493   10.5324 H   0  0  0  0  0  0  0  0  0  0  0  0
   14.1555   22.4521    9.0674 H   0  0  0  0  0  0  0  0  0  0  0  0
   14.3901   20.4538    7.2995 H   0  0  0  0  0  0  0  0  0  0  0  0
   13.0535   19.7651    6.2319 H   0  0  0  0  0  0  0  0  0  0  0  0
   16.5134   19.8352    6.6664 H   0  0  0  0  0  0  0  0  0  0  0  0
   18.1692   19.1894    4.9234 H   0  0  0  0  0  0  0  0  0  0  0  0
   17.4883   19.0955    2.5254 H   0  0  0  0  0  0  0  0  0  0  0  0
   15.1476   19.6514    1.8746 H   0  0  0  0  0  0  0  0  0  0  0  0
   13.4861   20.2973    3.6128 H   0  0  0  0  0  0  0  0  0  0  0  0
    8.3279   24.8214    7.1570 H   0  0  0  0  0  0  0  0  0  0  0  0
  1  2  1  0
  2  3  1  0
  3  4  2  0
  3  5  1  0
  5  6  2  0
  6  7  1  0
  7  8  2  0
  8  9  1  0
  9 10  1  0
 10 11  1  0
 11 12  1  0
 12 13  1  0
 13 14  1  0
 14 15  1  0
 15 16  2  0
 16 17  1  0
 17 18  2  0
 18 19  1  0
 19 20  2  0
 12 21  1  0
 21 22  1  0
 21 23  1  0
 23 24  1  0
 23 25  1  0
 25 26  1  0
 26 27  1  0
 27 28  1  0
 28 29  2  0
 29 30  1  0
 30 31  2  0
 31 32  1  0
 32 33  2  0
 25 34  1  0
 34 35  1  0
 35 36  1  0
 36 37  2  0
 37 38  1  0
 38 39  2  0
 39 40  1  0
 40 41  2  0
 34 42  1  0
 42 43  2  0
 42 44  2  0
  9 45  2  0
 45  5  1  0
 42 11  1  0
 20 15  1  0
 33 28  1  0
 41 36  1  0
  1 46  1  0
  1 47  1  0
  1 48  1  0
  2 49  1  0
  6 50  1  0
  7 51  1  0
  8 52  1  0
 10 53  1  0
 10 54  1  0
 12 55  1  1
 13 56  1  0
 13 57  1  0
 16 58  1  0
 17 59  1  0
 18 60  1  0
 19 61  1  0
 20 62  1  0
 21 63  1  1
 22 64  1  0
 23 65  1  6
 24 66  1  0
 25 67  1  6
 26 68  1  0
 26 69  1  0
 29 70  1  0
 30 71  1  0
 31 72  1  0
 32 73  1  0
 33 74  1  0
 35 75  1  0
 35 76  1  0
 37 77  1  0
 38 78  1  0
 39 79  1  0
 40 80  1  0
 41 81  1  0
 45 82  1  0
M  END
>  <meeko>  (9) 
{"is_sidechain": [false], "free_energy": -6.991, "intermolecular_energy": -15.644, "internal_energy": -1.489}

$$$$
