3e92_ligand
     RDKit          3D

 47 50  0  0  0  0  0  0  0  0999 V2000
   48.7440   34.6400   30.4110 C   0  0  0  0  0  0  0  0  0  0  0  0
   47.4980   34.7240   31.1890 C   0  0  0  0  0  0  0  0  0  0  0  0
   47.1220   35.6110   32.0830 N   0  0  0  0  0  0  0  0  0  0  0  0
   45.8690   35.2230   32.5080 N   0  0  0  0  0  0  0  0  0  0  0  0
   45.5660   34.1250   31.8430 C   0  0  0  0  0  0  0  0  0  0  0  0
   44.3690   33.2940   31.8970 C   0  0  0  0  0  0  0  0  0  0  0  0
   43.2830   33.6980   32.6810 C   0  0  0  0  0  0  0  0  0  0  0  0
   42.1250   32.9190   32.7510 C   0  0  0  0  0  0  0  0  0  0  0  0
   42.0150   31.7140   32.0360 C   0  0  0  0  0  0  0  0  0  0  0  0
   40.7750   30.9260   32.1500 C   0  0  0  0  0  0  0  0  0  0  0  0
   40.6110   30.0740   33.2570 C   0  0  0  0  0  0  0  0  0  0  0  0
   39.4480   29.3110   33.4180 C   0  0  0  0  0  0  0  0  0  0  0  0
   39.3420   28.4240   34.6070 C   0  0  0  0  0  0  0  0  0  0  0  0
   40.1460   28.5340   35.5280 O   0  0  0  0  0  0  0  0  0  0  0  0
   38.2890   27.5290   34.6030 N   0  0  0  0  0  0  0  0  0  0  0  0
   38.0410   26.6500   35.7020 C   0  0  0  0  0  0  0  0  0  0  0  0
   36.6890   26.0180   35.8770 C   0  0  0  0  0  0  0  0  0  0  0  0
   37.1480   27.0760   36.8360 C   0  0  0  0  0  0  0  0  0  0  0  0
   38.4380   29.3780   32.4550 C   0  0  0  0  0  0  0  0  0  0  0  0
   38.5850   30.2210   31.3510 C   0  0  0  0  0  0  0  0  0  0  0  0
   39.7430   30.9980   31.1870 C   0  0  0  0  0  0  0  0  0  0  0  0
   39.8590   31.8930   29.9800 C   0  0  0  0  0  0  0  0  0  0  0  0
   43.1030   31.2980   31.2400 C   0  0  0  0  0  0  0  0  0  0  0  0
   43.0580   30.0100   30.4600 C   0  0  0  0  0  0  0  0  0  0  0  0
   44.2660   32.0900   31.1830 C   0  0  0  0  0  0  0  0  0  0  0  0
   46.5630   33.7460   30.9780 O   0  0  0  0  0  0  0  0  0  0  0  0
   49.6016   34.5822   31.0974 H   0  0  0  0  0  0  0  0  0  0  0  0
   48.7205   33.7414   29.7770 H   0  0  0  0  0  0  0  0  0  0  0  0
   48.8414   35.5336   29.7770 H   0  0  0  0  0  0  0  0  0  0  0  0
   43.3413   34.6387   33.2482 H   0  0  0  0  0  0  0  0  0  0  0  0
   41.2849   33.2548   33.3766 H   0  0  0  0  0  0  0  0  0  0  0  0
   41.4104   30.0059   34.0095 H   0  0  0  0  0  0  0  0  0  0  0  0
   37.5650   27.6260   33.9010 H   0  0  0  0  0  0  0  0  0  0  0  0
   39.0727   26.2766   35.6231 H   0  0  0  0  0  0  0  0  0  0  0  0
   35.8830   26.2373   35.1612 H   0  0  0  0  0  0  0  0  0  0  0  0
   36.3207   24.9863   35.9765 H   0  0  0  0  0  0  0  0  0  0  0  0
   36.6791   28.0710   36.8229 H   0  0  0  0  0  0  0  0  0  0  0  0
   37.2560   27.1413   37.9287 H   0  0  0  0  0  0  0  0  0  0  0  0
   37.5292   28.7683   32.5660 H   0  0  0  0  0  0  0  0  0  0  0  0
   37.7830   30.2769   30.6002 H   0  0  0  0  0  0  0  0  0  0  0  0
   39.9940   32.9344   30.3074 H   0  0  0  0  0  0  0  0  0  0  0  0
   40.7245   31.5835   29.3758 H   0  0  0  0  0  0  0  0  0  0  0  0
   38.9431   31.8143   29.3758 H   0  0  0  0  0  0  0  0  0  0  0  0
   43.0283   29.1599   31.1574 H   0  0  0  0  0  0  0  0  0  0  0  0
   42.1588   29.9962   29.8265 H   0  0  0  0  0  0  0  0  0  0  0  0
   43.9540   29.9335   29.8265 H   0  0  0  0  0  0  0  0  0  0  0  0
   45.1130   31.7575   30.5649 H   0  0  0  0  0  0  0  0  0  0  0  0
  1  2  1  0
  2  3  2  0
  3  4  1  0
  4  5  2  0
  5  6  1  0
  6  7  2  0
  7  8  1  0
  8  9  2  0
  9 10  1  0
 10 11  2  0
 11 12  1  0
 12 13  1  0
 13 14  2  0
 13 15  1  0
 15 16  1  0
 16 17  1  0
 17 18  1  0
 12 19  2  0
 19 20  1  0
 20 21  2  0
 21 22  1  0
  9 23  1  0
 23 24  1  0
 23 25  2  0
  5 26  1  0
 26  2  1  0
 25  6  1  0
 21 10  1  0
 18 16  1  0
  1 27  1  0
  1 28  1  0
  1 29  1  0
  7 30  1  0
  8 31  1  0
 11 32  1  0
 15 33  1  0
 16 34  1  0
 17 35  1  0
 17 36  1  0
 18 37  1  0
 18 38  1  0
 19 39  1  0
 20 40  1  0
 22 41  1  0
 22 42  1  0
 22 43  1  0
 24 44  1  0
 24 45  1  0
 24 46  1  0
 25 47  1  0
M  END
>  <meeko>  (1) 
{"is_sidechain": [false], "free_energy": -12.845, "intermolecular_energy": -15.849, "internal_energy": -1.013}

$$$$
