4dli_ligand
     RDKit          3D

 38 41  0  0  0  0  0  0  0  0999 V2000
   25.9800  -13.6680   -5.5060 N   0  0  0  0  0  0  0  0  0  0  0  0
   25.4950  -14.0250   -6.7620 C   0  0  0  0  0  0  0  0  0  0  0  0
   25.6410  -13.1570   -7.8430 C   0  0  0  0  0  0  0  0  0  0  0  0
   25.2840  -13.5490   -9.1380 C   0  0  0  0  0  0  0  0  0  0  0  0
   24.8150  -14.8560   -9.3950 C   0  0  0  0  0  0  0  0  0  0  0  0
   24.4490  -15.3570  -10.6650 C   0  0  0  0  0  0  0  0  0  0  0  0
   24.5040  -14.5110  -11.7940 N   0  0  0  0  0  0  0  0  0  0  0  0
   24.5520  -15.1170  -13.1310 C   0  0  0  0  0  0  0  0  0  0  0  0
   24.5260  -14.2650  -14.3680 C   0  0  0  0  0  0  0  0  0  0  0  0
   25.7890  -14.9740  -13.9730 C   0  0  0  0  0  0  0  0  0  0  0  0
   23.9890  -16.6150  -10.8240 N   0  0  0  0  0  0  0  0  0  0  0  0
   23.9000  -17.3810   -9.7260 C   0  0  0  0  0  0  0  0  0  0  0  0
   23.4330  -18.7620   -9.8440 C   0  0  0  0  0  0  0  0  0  0  0  0
   23.3920  -19.5960   -8.7120 C   0  0  0  0  0  0  0  0  0  0  0  0
   22.9270  -20.9100   -8.7980 C   0  0  0  0  0  0  0  0  0  0  0  0
   22.5040  -21.4200  -10.0220 C   0  0  0  0  0  0  0  0  0  0  0  0
   22.5560  -20.6230  -11.1620 C   0  0  0  0  0  0  0  0  0  0  0  0
   23.0190  -19.3060  -11.0770 C   0  0  0  0  0  0  0  0  0  0  0  0
   24.2610  -16.9850   -8.5060 N   0  0  0  0  0  0  0  0  0  0  0  0
   24.7080  -15.7380   -8.3010 C   0  0  0  0  0  0  0  0  0  0  0  0
   25.0660  -15.3300   -7.0060 C   0  0  0  0  0  0  0  0  0  0  0  0
   26.9640  -13.8370   -5.3240 H   0  0  0  0  0  0  0  0  0  0  0  0
   25.4010  -13.9540   -4.7170 H   0  0  0  0  0  0  0  0  0  0  0  0
   26.0435  -12.1471   -7.6752 H   0  0  0  0  0  0  0  0  0  0  0  0
   25.3698  -12.8301   -9.9661 H   0  0  0  0  0  0  0  0  0  0  0  0
   25.1850  -13.7660  -11.6590 H   0  0  0  0  0  0  0  0  0  0  0  0
   23.9473  -15.9580  -12.7607 H   0  0  0  0  0  0  0  0  0  0  0  0
   23.9627  -14.5970  -15.2526 H   0  0  0  0  0  0  0  0  0  0  0  0
   24.2564  -13.2214  -14.5877 H   0  0  0  0  0  0  0  0  0  0  0  0
   26.1508  -15.8255  -14.5680 H   0  0  0  0  0  0  0  0  0  0  0  0
   26.8276  -14.6652  -13.7833 H   0  0  0  0  0  0  0  0  0  0  0  0
   23.7324  -19.2061   -7.7414 H   0  0  0  0  0  0  0  0  0  0  0  0
   22.8950  -21.5420   -7.8983 H   0  0  0  0  0  0  0  0  0  0  0  0
   22.1289  -22.4520  -10.0884 H   0  0  0  0  0  0  0  0  0  0  0  0
   22.2324  -21.0297  -12.1315 H   0  0  0  0  0  0  0  0  0  0  0  0
   23.0607  -18.6861  -11.9847 H   0  0  0  0  0  0  0  0  0  0  0  0
   24.2110  -17.6470   -7.7390 H   0  0  0  0  0  0  0  0  0  0  0  0
   25.0075  -16.0475   -6.1743 H   0  0  0  0  0  0  0  0  0  0  0  0
  1  2  1  0
  2  3  2  0
  3  4  1  0
  4  5  2  0
  5  6  1  0
  6  7  1  0
  7  8  1  0
  8  9  1  0
  9 10  1  0
  6 11  2  0
 11 12  1  0
 12 13  1  0
 13 14  2  0
 14 15  1  0
 15 16  2  0
 16 17  1  0
 17 18  2  0
 12 19  2  0
 19 20  1  0
 20 21  2  0
 21  2  1  0
 20  5  1  0
 10  8  1  0
 18 13  1  0
  1 22  1  0
  1 23  1  0
  3 24  1  0
  4 25  1  0
  7 26  1  0
  8 27  1  0
  9 28  1  0
  9 29  1  0
 10 30  1  0
 10 31  1  0
 14 32  1  0
 15 33  1  0
 16 34  1  0
 17 35  1  0
 18 36  1  0
 19 37  1  0
 21 38  1  0
M  CHG  1  19   1
M  END
>  <meeko>  (1) 
{"is_sidechain": [false], "free_energy": -9.863, "intermolecular_energy": -11.882, "internal_energy": -0.508}

$$$$
4dli_ligand
     RDKit          3D

 38 41  0  0  0  0  0  0  0  0999 V2000
   25.2280  -12.1870   -8.1700 N   0  0  0  0  0  0  0  0  0  0  0  0
   24.9250  -13.0510   -9.2190 C   0  0  0  0  0  0  0  0  0  0  0  0
   25.2050  -12.6840  -10.5340 C   0  0  0  0  0  0  0  0  0  0  0  0
   25.0350  -13.5880  -11.5880 C   0  0  0  0  0  0  0  0  0  0  0  0
   24.6260  -14.9170  -11.3440 C   0  0  0  0  0  0  0  0  0  0  0  0
   24.4440  -15.9110  -12.3320 C   0  0  0  0  0  0  0  0  0  0  0  0
   24.6410  -15.5890  -13.6930 N   0  0  0  0  0  0  0  0  0  0  0  0
   26.0130  -15.5230  -14.2130 C   0  0  0  0  0  0  0  0  0  0  0  0
   26.8490  -16.7640  -14.3460 C   0  0  0  0  0  0  0  0  0  0  0  0
   26.3230  -16.0800  -15.5740 C   0  0  0  0  0  0  0  0  0  0  0  0
   24.0300  -17.1550  -12.0170 N   0  0  0  0  0  0  0  0  0  0  0  0
   23.8030  -17.4190  -10.7210 C   0  0  0  0  0  0  0  0  0  0  0  0
   23.3770  -18.7590  -10.3200 C   0  0  0  0  0  0  0  0  0  0  0  0
   23.5290  -19.1820   -8.9860 C   0  0  0  0  0  0  0  0  0  0  0  0
   23.1070  -20.4490   -8.5780 C   0  0  0  0  0  0  0  0  0  0  0  0
   22.5360  -21.3230   -9.4980 C   0  0  0  0  0  0  0  0  0  0  0  0
   22.3960  -20.9380  -10.8270 C   0  0  0  0  0  0  0  0  0  0  0  0
   22.8150  -19.6690  -11.2380 C   0  0  0  0  0  0  0  0  0  0  0  0
   23.9870  -16.5410   -9.7360 N   0  0  0  0  0  0  0  0  0  0  0  0
   24.3830  -15.2890  -10.0060 C   0  0  0  0  0  0  0  0  0  0  0  0
   24.5540  -14.3700   -8.9580 C   0  0  0  0  0  0  0  0  0  0  0  0
   24.4770  -11.6010   -7.8200 H   0  0  0  0  0  0  0  0  0  0  0  0
   26.0930  -11.6580   -8.2760 H   0  0  0  0  0  0  0  0  0  0  0  0
   25.5656  -11.6668  -10.7466 H   0  0  0  0  0  0  0  0  0  0  0  0
   25.2225  -13.2589  -12.6207 H   0  0  0  0  0  0  0  0  0  0  0  0
   24.0610  -14.7980  -13.9680 H   0  0  0  0  0  0  0  0  0  0  0  0
   26.1469  -14.5525  -13.7127 H   0  0  0  0  0  0  0  0  0  0  0  0
   27.9241  -16.7301  -14.1156 H   0  0  0  0  0  0  0  0  0  0  0  0
   26.7943  -17.7854  -13.9413 H   0  0  0  0  0  0  0  0  0  0  0  0
   27.0125  -15.5447  -16.2433 H   0  0  0  0  0  0  0  0  0  0  0  0
   25.7232  -16.3923  -16.4416 H   0  0  0  0  0  0  0  0  0  0  0  0
   23.9880  -18.5029   -8.2525 H   0  0  0  0  0  0  0  0  0  0  0  0
   23.2260  -20.7564   -7.5286 H   0  0  0  0  0  0  0  0  0  0  0  0
   22.1956  -22.3177   -9.1743 H   0  0  0  0  0  0  0  0  0  0  0  0
   21.9547  -21.6333  -11.5563 H   0  0  0  0  0  0  0  0  0  0  0  0
   22.7045  -19.3767  -12.2927 H   0  0  0  0  0  0  0  0  0  0  0  0
   23.8430  -16.8400   -8.7770 H   0  0  0  0  0  0  0  0  0  0  0  0
   24.3935  -14.6941   -7.9192 H   0  0  0  0  0  0  0  0  0  0  0  0
  1  2  1  0
  2  3  2  0
  3  4  1  0
  4  5  2  0
  5  6  1  0
  6  7  1  0
  7  8  1  0
  8  9  1  0
  9 10  1  0
  6 11  2  0
 11 12  1  0
 12 13  1  0
 13 14  2  0
 14 15  1  0
 15 16  2  0
 16 17  1  0
 17 18  2  0
 12 19  2  0
 19 20  1  0
 20 21  2  0
 21  2  1  0
 20  5  1  0
 10  8  1  0
 18 13  1  0
  1 22  1  0
  1 23  1  0
  3 24  1  0
  4 25  1  0
  7 26  1  0
  8 27  1  0
  9 28  1  0
  9 29  1  0
 10 30  1  0
 10 31  1  0
 14 32  1  0
 15 33  1  0
 16 34  1  0
 17 35  1  0
 18 36  1  0
 19 37  1  0
 21 38  1  0
M  CHG  1  19   1
M  END
>  <meeko>  (2) 
{"is_sidechain": [false], "free_energy": -9.752, "intermolecular_energy": -11.769, "internal_energy": -0.487}

$$$$
4dli_ligand
     RDKit          3D

 38 41  0  0  0  0  0  0  0  0999 V2000
   21.8770  -21.6000   -9.7630 N   0  0  0  0  0  0  0  0  0  0  0  0
   22.7220  -20.6110  -10.2600 C   0  0  0  0  0  0  0  0  0  0  0  0
   23.1260  -20.6370  -11.5930 C   0  0  0  0  0  0  0  0  0  0  0  0
   23.8620  -19.5840  -12.1460 C   0  0  0  0  0  0  0  0  0  0  0  0
   24.1700  -18.4370  -11.3830 C   0  0  0  0  0  0  0  0  0  0  0  0
   24.8880  -17.3120  -11.8510 C   0  0  0  0  0  0  0  0  0  0  0  0
   25.3900  -17.3020  -13.1710 N   0  0  0  0  0  0  0  0  0  0  0  0
   26.2760  -16.2040  -13.5820 C   0  0  0  0  0  0  0  0  0  0  0  0
   26.8830  -16.1750  -14.9560 C   0  0  0  0  0  0  0  0  0  0  0  0
   25.8000  -15.2010  -14.5950 C   0  0  0  0  0  0  0  0  0  0  0  0
   25.1590  -16.2620  -11.0500 N   0  0  0  0  0  0  0  0  0  0  0  0
   24.7130  -16.3200   -9.7860 C   0  0  0  0  0  0  0  0  0  0  0  0
   24.9560  -15.1980   -8.8810 C   0  0  0  0  0  0  0  0  0  0  0  0
   25.2780  -15.4320   -7.5310 C   0  0  0  0  0  0  0  0  0  0  0  0
   25.5370  -14.3750   -6.6560 C   0  0  0  0  0  0  0  0  0  0  0  0
   25.4690  -13.0620   -7.1100 C   0  0  0  0  0  0  0  0  0  0  0  0
   25.1310  -12.8020   -8.4350 C   0  0  0  0  0  0  0  0  0  0  0  0
   24.8730  -13.8590   -9.3140 C   0  0  0  0  0  0  0  0  0  0  0  0
   24.0010  -17.3320   -9.2900 N   0  0  0  0  0  0  0  0  0  0  0  0
   23.7230  -18.4030  -10.0470 C   0  0  0  0  0  0  0  0  0  0  0  0
   22.9880  -19.4690   -9.5030 C   0  0  0  0  0  0  0  0  0  0  0  0
   20.8980  -21.3580   -9.6450 H   0  0  0  0  0  0  0  0  0  0  0  0
   22.2320  -22.1150   -8.9590 H   0  0  0  0  0  0  0  0  0  0  0  0
   22.8617  -21.5003  -12.2213 H   0  0  0  0  0  0  0  0  0  0  0  0
   24.2053  -19.6505  -13.1890 H   0  0  0  0  0  0  0  0  0  0  0  0
   24.6530  -17.5060  -13.8430 H   0  0  0  0  0  0  0  0  0  0  0  0
   26.6788  -16.1567  -12.5595 H   0  0  0  0  0  0  0  0  0  0  0  0
   27.9159  -15.8226  -15.0934 H   0  0  0  0  0  0  0  0  0  0  0  0
   27.0283  -16.9142  -15.7575 H   0  0  0  0  0  0  0  0  0  0  0  0
   26.0392  -14.1349  -14.4677 H   0  0  0  0  0  0  0  0  0  0  0  0
   24.8230  -14.9309  -15.0222 H   0  0  0  0  0  0  0  0  0  0  0  0
   25.3265  -16.4659   -7.1586 H   0  0  0  0  0  0  0  0  0  0  0  0
   25.7950  -14.5809   -5.6067 H   0  0  0  0  0  0  0  0  0  0  0  0
   25.6821  -12.2300   -6.4227 H   0  0  0  0  0  0  0  0  0  0  0  0
   25.0667  -11.7634   -8.7915 H   0  0  0  0  0  0  0  0  0  0  0  0
   24.6015  -13.6424  -10.3577 H   0  0  0  0  0  0  0  0  0  0  0  0
   23.6570  -17.2710   -8.3370 H   0  0  0  0  0  0  0  0  0  0  0  0
   22.6180  -19.4031   -8.4692 H   0  0  0  0  0  0  0  0  0  0  0  0
  1  2  1  0
  2  3  2  0
  3  4  1  0
  4  5  2  0
  5  6  1  0
  6  7  1  0
  7  8  1  0
  8  9  1  0
  9 10  1  0
  6 11  2  0
 11 12  1  0
 12 13  1  0
 13 14  2  0
 14 15  1  0
 15 16  2  0
 16 17  1  0
 17 18  2  0
 12 19  2  0
 19 20  1  0
 20 21  2  0
 21  2  1  0
 20  5  1  0
 10  8  1  0
 18 13  1  0
  1 22  1  0
  1 23  1  0
  3 24  1  0
  4 25  1  0
  7 26  1  0
  8 27  1  0
  9 28  1  0
  9 29  1  0
 10 30  1  0
 10 31  1  0
 14 32  1  0
 15 33  1  0
 16 34  1  0
 17 35  1  0
 18 36  1  0
 19 37  1  0
 21 38  1  0
M  CHG  1  19   1
M  END
>  <meeko>  (3) 
{"is_sidechain": [false], "free_energy": -9.614, "intermolecular_energy": -11.604, "internal_energy": -0.486}

$$$$
4dli_ligand
     RDKit          3D

 38 41  0  0  0  0  0  0  0  0999 V2000
   26.7770  -16.0510  -15.7860 N   0  0  0  0  0  0  0  0  0  0  0  0
   26.2640  -15.8340  -14.5100 C   0  0  0  0  0  0  0  0  0  0  0  0
   26.0900  -14.5350  -14.0340 C   0  0  0  0  0  0  0  0  0  0  0  0
   25.4520  -14.2930  -12.8120 C   0  0  0  0  0  0  0  0  0  0  0  0
   24.9180  -15.3550  -12.0510 C   0  0  0  0  0  0  0  0  0  0  0  0
   24.2390  -15.2160  -10.8190 C   0  0  0  0  0  0  0  0  0  0  0  0
   24.0900  -13.9360  -10.2420 N   0  0  0  0  0  0  0  0  0  0  0  0
   25.1930  -13.3880   -9.4410 C   0  0  0  0  0  0  0  0  0  0  0  0
   24.9410  -12.3420   -8.3930 C   0  0  0  0  0  0  0  0  0  0  0  0
   25.3040  -13.7400   -7.9840 C   0  0  0  0  0  0  0  0  0  0  0  0
   23.7750  -16.2860  -10.1420 N   0  0  0  0  0  0  0  0  0  0  0  0
   23.9740  -17.4950  -10.6890 C   0  0  0  0  0  0  0  0  0  0  0  0
   23.4690  -18.6870  -10.0110 C   0  0  0  0  0  0  0  0  0  0  0  0
   22.6490  -19.6010  -10.6990 C   0  0  0  0  0  0  0  0  0  0  0  0
   22.1750  -20.7580  -10.0760 C   0  0  0  0  0  0  0  0  0  0  0  0
   22.5030  -21.0190   -8.7500 C   0  0  0  0  0  0  0  0  0  0  0  0
   23.2940  -20.1210   -8.0400 C   0  0  0  0  0  0  0  0  0  0  0  0
   23.7710  -18.9620   -8.6610 C   0  0  0  0  0  0  0  0  0  0  0  0
   24.5740  -17.6950  -11.8620 N   0  0  0  0  0  0  0  0  0  0  0  0
   25.0640  -16.6610  -12.5600 C   0  0  0  0  0  0  0  0  0  0  0  0
   25.7100  -16.8910  -13.7860 C   0  0  0  0  0  0  0  0  0  0  0  0
   27.3280  -15.3040  -16.1970 H   0  0  0  0  0  0  0  0  0  0  0  0
   26.1210  -16.4430  -16.4600 H   0  0  0  0  0  0  0  0  0  0  0  0
   26.4601  -13.6867  -14.6285 H   0  0  0  0  0  0  0  0  0  0  0  0
   25.3656  -13.2615  -12.4398 H   0  0  0  0  0  0  0  0  0  0  0  0
   23.1770  -13.8390   -9.8010 H   0  0  0  0  0  0  0  0  0  0  0  0
   25.8533  -13.4577  -10.3180 H   0  0  0  0  0  0  0  0  0  0  0  0
   25.6609  -11.5227   -8.2496 H   0  0  0  0  0  0  0  0  0  0  0  0
   24.1131  -11.6550   -8.1635 H   0  0  0  0  0  0  0  0  0  0  0  0
   26.2899  -13.9451   -7.5413 H   0  0  0  0  0  0  0  0  0  0  0  0
   24.8524  -14.5015   -7.3312 H   0  0  0  0  0  0  0  0  0  0  0  0
   22.3766  -19.4007  -11.7457 H   0  0  0  0  0  0  0  0  0  0  0  0
   21.5419  -21.4631  -10.6346 H   0  0  0  0  0  0  0  0  0  0  0  0
   22.1373  -21.9349   -8.2627 H   0  0  0  0  0  0  0  0  0  0  0  0
   23.5447  -20.3230   -6.9882 H   0  0  0  0  0  0  0  0  0  0  0  0
   24.3901  -18.2554   -8.0887 H   0  0  0  0  0  0  0  0  0  0  0  0
   24.6360  -18.6390  -12.2280 H   0  0  0  0  0  0  0  0  0  0  0  0
   25.7801  -17.9157  -14.1799 H   0  0  0  0  0  0  0  0  0  0  0  0
  1  2  1  0
  2  3  2  0
  3  4  1  0
  4  5  2  0
  5  6  1  0
  6  7  1  0
  7  8  1  0
  8  9  1  0
  9 10  1  0
  6 11  2  0
 11 12  1  0
 12 13  1  0
 13 14  2  0
 14 15  1  0
 15 16  2  0
 16 17  1  0
 17 18  2  0
 12 19  2  0
 19 20  1  0
 20 21  2  0
 21  2  1  0
 20  5  1  0
 10  8  1  0
 18 13  1  0
  1 22  1  0
  1 23  1  0
  3 24  1  0
  4 25  1  0
  7 26  1  0
  8 27  1  0
  9 28  1  0
  9 29  1  0
 10 30  1  0
 10 31  1  0
 14 32  1  0
 15 33  1  0
 16 34  1  0
 17 35  1  0
 18 36  1  0
 19 37  1  0
 21 38  1  0
M  CHG  1  19   1
M  END
>  <meeko>  (4) 
{"is_sidechain": [false], "free_energy": -9.064, "intermolecular_energy": -11.105, "internal_energy": -0.321}

$$$$
4dli_ligand
     RDKit          3D

 38 41  0  0  0  0  0  0  0  0999 V2000
   25.7550  -13.4670   -6.4550 N   0  0  0  0  0  0  0  0  0  0  0  0
   25.5100  -14.5480   -7.2970 C   0  0  0  0  0  0  0  0  0  0  0  0
   24.8950  -15.6980   -6.8030 C   0  0  0  0  0  0  0  0  0  0  0  0
   24.5170  -16.7390   -7.6580 C   0  0  0  0  0  0  0  0  0  0  0  0
   24.7000  -16.6330   -9.0530 C   0  0  0  0  0  0  0  0  0  0  0  0
   24.3360  -17.6150  -10.0030 C   0  0  0  0  0  0  0  0  0  0  0  0
   23.7730  -18.8350   -9.5660 N   0  0  0  0  0  0  0  0  0  0  0  0
   22.6440  -19.4010  -10.3160 C   0  0  0  0  0  0  0  0  0  0  0  0
   22.8490  -20.5260  -11.2900 C   0  0  0  0  0  0  0  0  0  0  0  0
   22.1470  -20.7810   -9.9890 C   0  0  0  0  0  0  0  0  0  0  0  0
   24.5630  -17.4450  -11.3200 N   0  0  0  0  0  0  0  0  0  0  0  0
   25.1440  -16.2970  -11.7020 C   0  0  0  0  0  0  0  0  0  0  0  0
   25.3910  -16.0490  -13.1210 C   0  0  0  0  0  0  0  0  0  0  0  0
   26.5320  -16.5850  -13.7470 C   0  0  0  0  0  0  0  0  0  0  0  0
   26.7740  -16.3790  -15.1070 C   0  0  0  0  0  0  0  0  0  0  0  0
   25.8850  -15.6230  -15.8660 C   0  0  0  0  0  0  0  0  0  0  0  0
   24.7610  -15.0640  -15.2670 C   0  0  0  0  0  0  0  0  0  0  0  0
   24.5160  -15.2700  -13.9060 C   0  0  0  0  0  0  0  0  0  0  0  0
   25.4810  -15.3150  -10.8660 N   0  0  0  0  0  0  0  0  0  0  0  0
   25.2870  -15.4500   -9.5460 C   0  0  0  0  0  0  0  0  0  0  0  0
   25.6640  -14.4140   -8.6770 C   0  0  0  0  0  0  0  0  0  0  0  0
   25.2800  -12.5950   -6.6680 H   0  0  0  0  0  0  0  0  0  0  0  0
   26.7340  -13.3100   -6.2190 H   0  0  0  0  0  0  0  0  0  0  0  0
   24.7040  -15.7881   -5.7235 H   0  0  0  0  0  0  0  0  0  0  0  0
   24.0712  -17.6523   -7.2370 H   0  0  0  0  0  0  0  0  0  0  0  0
   23.6340  -18.8320   -8.5570 H   0  0  0  0  0  0  0  0  0  0  0  0
   22.1949  -18.3988  -10.3784 H   0  0  0  0  0  0  0  0  0  0  0  0
   22.2834  -20.5466  -12.2332 H   0  0  0  0  0  0  0  0  0  0  0  0
   23.7194  -20.9619  -11.8022 H   0  0  0  0  0  0  0  0  0  0  0  0
   21.0668  -20.9883   -9.9784 H   0  0  0  0  0  0  0  0  0  0  0  0
   22.2896  -21.4810   -9.1526 H   0  0  0  0  0  0  0  0  0  0  0  0
   27.2456  -17.1765  -13.1547 H   0  0  0  0  0  0  0  0  0  0  0  0
   27.6674  -16.8143  -15.5786 H   0  0  0  0  0  0  0  0  0  0  0  0
   26.0714  -15.4678  -16.9389 H   0  0  0  0  0  0  0  0  0  0  0  0
   24.0637  -14.4589  -15.8650 H   0  0  0  0  0  0  0  0  0  0  0  0
   23.6277  -14.8178  -13.4407 H   0  0  0  0  0  0  0  0  0  0  0  0
   25.8670  -14.4570  -11.2450 H   0  0  0  0  0  0  0  0  0  0  0  0
   26.0859  -13.4855   -9.0891 H   0  0  0  0  0  0  0  0  0  0  0  0
  1  2  1  0
  2  3  2  0
  3  4  1  0
  4  5  2  0
  5  6  1  0
  6  7  1  0
  7  8  1  0
  8  9  1  0
  9 10  1  0
  6 11  2  0
 11 12  1  0
 12 13  1  0
 13 14  2  0
 14 15  1  0
 15 16  2  0
 16 17  1  0
 17 18  2  0
 12 19  2  0
 19 20  1  0
 20 21  2  0
 21  2  1  0
 20  5  1  0
 10  8  1  0
 18 13  1  0
  1 22  1  0
  1 23  1  0
  3 24  1  0
  4 25  1  0
  7 26  1  0
  8 27  1  0
  9 28  1  0
  9 29  1  0
 10 30  1  0
 10 31  1  0
 14 32  1  0
 15 33  1  0
 16 34  1  0
 17 35  1  0
 18 36  1  0
 19 37  1  0
 21 38  1  0
M  CHG  1  19   1
M  END
>  <meeko>  (5) 
{"is_sidechain": [false], "free_energy": -9.059, "intermolecular_energy": -10.948, "internal_energy": -0.474}

$$$$
4dli_ligand
     RDKit          3D

 38 41  0  0  0  0  0  0  0  0999 V2000
   24.1080  -12.2980  -12.1720 N   0  0  0  0  0  0  0  0  0  0  0  0
   24.4360  -13.2230  -11.1850 C   0  0  0  0  0  0  0  0  0  0  0  0
   25.0590  -12.8050  -10.0100 C   0  0  0  0  0  0  0  0  0  0  0  0
   25.2740  -13.6940   -8.9510 C   0  0  0  0  0  0  0  0  0  0  0  0
   24.8160  -15.0270   -9.0200 C   0  0  0  0  0  0  0  0  0  0  0  0
   24.9640  -15.9960   -8.0010 C   0  0  0  0  0  0  0  0  0  0  0  0
   25.6490  -15.6620   -6.8110 N   0  0  0  0  0  0  0  0  0  0  0  0
   24.9180  -14.9610   -5.7470 C   0  0  0  0  0  0  0  0  0  0  0  0
   25.2070  -15.2380   -4.2990 C   0  0  0  0  0  0  0  0  0  0  0  0
   25.6230  -13.9310   -4.9100 C   0  0  0  0  0  0  0  0  0  0  0  0
   24.5150  -17.2580   -8.1530 N   0  0  0  0  0  0  0  0  0  0  0  0
   23.9120  -17.5610   -9.3130 C   0  0  0  0  0  0  0  0  0  0  0  0
   23.3840  -18.9080   -9.5220 C   0  0  0  0  0  0  0  0  0  0  0  0
   22.9590  -19.3130  -10.8010 C   0  0  0  0  0  0  0  0  0  0  0  0
   22.4730  -20.6020  -11.0270 C   0  0  0  0  0  0  0  0  0  0  0  0
   22.3910  -21.5100   -9.9760 C   0  0  0  0  0  0  0  0  0  0  0  0
   22.7840  -21.1290   -8.6970 C   0  0  0  0  0  0  0  0  0  0  0  0
   23.2730  -19.8380   -8.4680 C   0  0  0  0  0  0  0  0  0  0  0  0
   23.7090  -16.6900  -10.3010 N   0  0  0  0  0  0  0  0  0  0  0  0
   24.1520  -15.4290  -10.1960 C   0  0  0  0  0  0  0  0  0  0  0  0
   23.9470  -14.5280  -11.2540 C   0  0  0  0  0  0  0  0  0  0  0  0
   24.8720  -11.9150  -12.7210 H   0  0  0  0  0  0  0  0  0  0  0  0
   23.4520  -11.5710  -11.8900 H   0  0  0  0  0  0  0  0  0  0  0  0
   25.3869  -11.7594   -9.9138 H   0  0  0  0  0  0  0  0  0  0  0  0
   25.8071  -13.3492   -8.0527 H   0  0  0  0  0  0  0  0  0  0  0  0
   26.5590  -15.2550   -7.0180 H   0  0  0  0  0  0  0  0  0  0  0  0
   24.0115  -14.9796   -6.3699 H   0  0  0  0  0  0  0  0  0  0  0  0
   24.3840  -15.2669   -3.5697 H   0  0  0  0  0  0  0  0  0  0  0  0
   25.7232  -16.0382   -3.7484 H   0  0  0  0  0  0  0  0  0  0  0  0
   25.1046  -13.0025   -4.6284 H   0  0  0  0  0  0  0  0  0  0  0  0
   26.5699  -13.3774   -4.9924 H   0  0  0  0  0  0  0  0  0  0  0  0
   23.0107  -18.6009  -11.6378 H   0  0  0  0  0  0  0  0  0  0  0  0
   22.1546  -20.9001  -12.0368 H   0  0  0  0  0  0  0  0  0  0  0  0
   22.0158  -22.5282  -10.1562 H   0  0  0  0  0  0  0  0  0  0  0  0
   22.7102  -21.8439   -7.8642 H   0  0  0  0  0  0  0  0  0  0  0  0
   23.5749  -19.5447   -7.4517 H   0  0  0  0  0  0  0  0  0  0  0  0
   23.1960  -16.9890  -11.1230 H   0  0  0  0  0  0  0  0  0  0  0  0
   23.3946  -14.8550  -12.1472 H   0  0  0  0  0  0  0  0  0  0  0  0
  1  2  1  0
  2  3  2  0
  3  4  1  0
  4  5  2  0
  5  6  1  0
  6  7  1  0
  7  8  1  0
  8  9  1  0
  9 10  1  0
  6 11  2  0
 11 12  1  0
 12 13  1  0
 13 14  2  0
 14 15  1  0
 15 16  2  0
 16 17  1  0
 17 18  2  0
 12 19  2  0
 19 20  1  0
 20 21  2  0
 21  2  1  0
 20  5  1  0
 10  8  1  0
 18 13  1  0
  1 22  1  0
  1 23  1  0
  3 24  1  0
  4 25  1  0
  7 26  1  0
  8 27  1  0
  9 28  1  0
  9 29  1  0
 10 30  1  0
 10 31  1  0
 14 32  1  0
 15 33  1  0
 16 34  1  0
 17 35  1  0
 18 36  1  0
 19 37  1  0
 21 38  1  0
M  CHG  1  19   1
M  END
>  <meeko>  (6) 
{"is_sidechain": [false], "free_energy": -8.681, "intermolecular_energy": -10.459, "internal_energy": -0.507}

$$$$
4dli_ligand
     RDKit          3D

 38 41  0  0  0  0  0  0  0  0999 V2000
   24.4960  -14.0800  -14.4300 N   0  0  0  0  0  0  0  0  0  0  0  0
   24.7260  -14.6890  -13.2000 C   0  0  0  0  0  0  0  0  0  0  0  0
   25.4140  -14.0080  -12.1970 C   0  0  0  0  0  0  0  0  0  0  0  0
   25.5380  -14.5470  -10.9110 C   0  0  0  0  0  0  0  0  0  0  0  0
   24.9220  -15.7720  -10.5780 C   0  0  0  0  0  0  0  0  0  0  0  0
   24.9690  -16.3920   -9.3080 C   0  0  0  0  0  0  0  0  0  0  0  0
   25.7080  -15.7930   -8.2640 N   0  0  0  0  0  0  0  0  0  0  0  0
   25.0570  -14.7730   -7.4310 C   0  0  0  0  0  0  0  0  0  0  0  0
   25.6680  -14.3320   -6.1320 C   0  0  0  0  0  0  0  0  0  0  0  0
   25.6680  -13.4050   -7.3120 C   0  0  0  0  0  0  0  0  0  0  0  0
   24.3700  -17.5770   -9.0760 N   0  0  0  0  0  0  0  0  0  0  0  0
   23.7160  -18.1480  -10.0990 C   0  0  0  0  0  0  0  0  0  0  0  0
   23.0270  -19.4210   -9.8960 C   0  0  0  0  0  0  0  0  0  0  0  0
   23.0600  -20.0530   -8.6390 C   0  0  0  0  0  0  0  0  0  0  0  0
   22.3890  -21.2580   -8.4190 C   0  0  0  0  0  0  0  0  0  0  0  0
   21.6810  -21.8600   -9.4530 C   0  0  0  0  0  0  0  0  0  0  0  0
   21.6500  -21.2670  -10.7120 C   0  0  0  0  0  0  0  0  0  0  0  0
   22.3200  -20.0600  -10.9350 C   0  0  0  0  0  0  0  0  0  0  0  0
   23.6030  -17.6040  -11.3110 N   0  0  0  0  0  0  0  0  0  0  0  0
   24.1960  -16.4340  -11.5890 C   0  0  0  0  0  0  0  0  0  0  0  0
   24.0830  -15.8840  -12.8760 C   0  0  0  0  0  0  0  0  0  0  0  0
   25.2840  -13.6210  -14.8750 H   0  0  0  0  0  0  0  0  0  0  0  0
   23.6540  -13.5070  -14.4840 H   0  0  0  0  0  0  0  0  0  0  0  0
   25.8671  -13.0307  -12.4198 H   0  0  0  0  0  0  0  0  0  0  0  0
   26.1230  -14.0088  -10.1506 H   0  0  0  0  0  0  0  0  0  0  0  0
   26.6390  -15.5280   -8.5820 H   0  0  0  0  0  0  0  0  0  0  0  0
   24.0749  -15.1712   -7.7258 H   0  0  0  0  0  0  0  0  0  0  0  0
   25.0242  -14.1193   -5.2658 H   0  0  0  0  0  0  0  0  0  0  0  0
   26.4400  -14.7346   -5.4598 H   0  0  0  0  0  0  0  0  0  0  0  0
   25.0240  -12.5132   -7.3108 H   0  0  0  0  0  0  0  0  0  0  0  0
   26.4396  -12.8471   -7.8629 H   0  0  0  0  0  0  0  0  0  0  0  0
   23.6239  -19.5901   -7.8158 H   0  0  0  0  0  0  0  0  0  0  0  0
   22.4207  -21.7313   -7.4265 H   0  0  0  0  0  0  0  0  0  0  0  0
   21.1456  -22.8045   -9.2763 H   0  0  0  0  0  0  0  0  0  0  0  0
   21.0978  -21.7485  -11.5325 H   0  0  0  0  0  0  0  0  0  0  0  0
   22.2951  -19.6027  -11.9351 H   0  0  0  0  0  0  0  0  0  0  0  0
   23.0450  -18.0780  -12.0130 H   0  0  0  0  0  0  0  0  0  0  0  0
   23.4807  -16.4012  -13.6374 H   0  0  0  0  0  0  0  0  0  0  0  0
  1  2  1  0
  2  3  2  0
  3  4  1  0
  4  5  2  0
  5  6  1  0
  6  7  1  0
  7  8  1  0
  8  9  1  0
  9 10  1  0
  6 11  2  0
 11 12  1  0
 12 13  1  0
 13 14  2  0
 14 15  1  0
 15 16  2  0
 16 17  1  0
 17 18  2  0
 12 19  2  0
 19 20  1  0
 20 21  2  0
 21  2  1  0
 20  5  1  0
 10  8  1  0
 18 13  1  0
  1 22  1  0
  1 23  1  0
  3 24  1  0
  4 25  1  0
  7 26  1  0
  8 27  1  0
  9 28  1  0
  9 29  1  0
 10 30  1  0
 10 31  1  0
 14 32  1  0
 15 33  1  0
 16 34  1  0
 17 35  1  0
 18 36  1  0
 19 37  1  0
 21 38  1  0
M  CHG  1  19   1
M  END
>  <meeko>  (7) 
{"is_sidechain": [false], "free_energy": -8.32, "intermolecular_energy": -9.98, "internal_energy": -0.551}

$$$$
4dli_ligand
     RDKit          3D

 38 41  0  0  0  0  0  0  0  0999 V2000
   24.5120  -13.4280  -14.0640 N   0  0  0  0  0  0  0  0  0  0  0  0
   24.3530  -14.4150  -13.0950 C   0  0  0  0  0  0  0  0  0  0  0  0
   24.1630  -15.7440  -13.4720 C   0  0  0  0  0  0  0  0  0  0  0  0
   24.1370  -16.7680  -12.5190 C   0  0  0  0  0  0  0  0  0  0  0  0
   24.3560  -16.4910  -11.1520 C   0  0  0  0  0  0  0  0  0  0  0  0
   24.3700  -17.4520  -10.1150 C   0  0  0  0  0  0  0  0  0  0  0  0
   24.1140  -18.8090  -10.4150 N   0  0  0  0  0  0  0  0  0  0  0  0
   22.9220  -19.4480   -9.8390 C   0  0  0  0  0  0  0  0  0  0  0  0
   22.2100  -20.5510  -10.5680 C   0  0  0  0  0  0  0  0  0  0  0  0
   23.0040  -20.8600   -9.3320 C   0  0  0  0  0  0  0  0  0  0  0  0
   24.5660  -17.1030   -8.8280 N   0  0  0  0  0  0  0  0  0  0  0  0
   24.7570  -15.8010   -8.5660 C   0  0  0  0  0  0  0  0  0  0  0  0
   25.0000  -15.3680   -7.1910 C   0  0  0  0  0  0  0  0  0  0  0  0
   25.5630  -14.1040   -6.9340 C   0  0  0  0  0  0  0  0  0  0  0  0
   25.7820  -13.6630   -5.6270 C   0  0  0  0  0  0  0  0  0  0  0  0
   25.4520  -14.4810   -4.5510 C   0  0  0  0  0  0  0  0  0  0  0  0
   24.9150  -15.7440   -4.7780 C   0  0  0  0  0  0  0  0  0  0  0  0
   24.6930  -16.1880   -6.0860 C   0  0  0  0  0  0  0  0  0  0  0  0
   24.7910  -14.8470   -9.4970 N   0  0  0  0  0  0  0  0  0  0  0  0
   24.5850  -15.1490  -10.7870 C   0  0  0  0  0  0  0  0  0  0  0  0
   24.6050  -14.1300  -11.7530 C   0  0  0  0  0  0  0  0  0  0  0  0
   25.2310  -13.5780  -14.7650 H   0  0  0  0  0  0  0  0  0  0  0  0
   24.5280  -12.4710  -13.7140 H   0  0  0  0  0  0  0  0  0  0  0  0
   24.0314  -15.9913  -14.5357 H   0  0  0  0  0  0  0  0  0  0  0  0
   23.9434  -17.8025  -12.8390 H   0  0  0  0  0  0  0  0  0  0  0  0
   24.9600  -19.3680  -10.3260 H   0  0  0  0  0  0  0  0  0  0  0  0
   22.6162  -18.4792   -9.4171 H   0  0  0  0  0  0  0  0  0  0  0  0
   21.1117  -20.6064  -10.5441 H   0  0  0  0  0  0  0  0  0  0  0  0
   22.2065  -20.9231  -11.6031 H   0  0  0  0  0  0  0  0  0  0  0  0
   22.4875  -21.1415   -8.4025 H   0  0  0  0  0  0  0  0  0  0  0  0
   23.8231  -21.5520   -9.0864 H   0  0  0  0  0  0  0  0  0  0  0  0
   25.8353  -13.4521   -7.7771 H   0  0  0  0  0  0  0  0  0  0  0  0
   26.2158  -12.6681   -5.4482 H   0  0  0  0  0  0  0  0  0  0  0  0
   25.6156  -14.1293   -3.5217 H   0  0  0  0  0  0  0  0  0  0  0  0
   24.6644  -16.3949   -3.9274 H   0  0  0  0  0  0  0  0  0  0  0  0
   24.2732  -17.1907   -6.2546 H   0  0  0  0  0  0  0  0  0  0  0  0
   24.9950  -13.8940   -9.2170 H   0  0  0  0  0  0  0  0  0  0  0  0
   24.8218  -13.0956  -11.4480 H   0  0  0  0  0  0  0  0  0  0  0  0
  1  2  1  0
  2  3  2  0
  3  4  1  0
  4  5  2  0
  5  6  1  0
  6  7  1  0
  7  8  1  0
  8  9  1  0
  9 10  1  0
  6 11  2  0
 11 12  1  0
 12 13  1  0
 13 14  2  0
 14 15  1  0
 15 16  2  0
 16 17  1  0
 17 18  2  0
 12 19  2  0
 19 20  1  0
 20 21  2  0
 21  2  1  0
 20  5  1  0
 10  8  1  0
 18 13  1  0
  1 22  1  0
  1 23  1  0
  3 24  1  0
  4 25  1  0
  7 26  1  0
  8 27  1  0
  9 28  1  0
  9 29  1  0
 10 30  1  0
 10 31  1  0
 14 32  1  0
 15 33  1  0
 16 34  1  0
 17 35  1  0
 18 36  1  0
 19 37  1  0
 21 38  1  0
M  CHG  1  19   1
M  END
>  <meeko>  (8) 
{"is_sidechain": [false], "free_energy": -7.748, "intermolecular_energy": -9.28, "internal_energy": -0.561}

$$$$
