3uuo_ligand
     RDKit          3D

 45 48  0  0  0  0  0  0  0  0999 V2000
    3.2200   14.8040   41.5310 C   0  0  0  0  0  0  0  0  0  0  0  0
    4.1880   13.8150   41.8710 O   0  0  0  0  0  0  0  0  0  0  0  0
    4.3410   13.5350   43.1990 C   0  0  0  0  0  0  0  0  0  0  0  0
    3.7790   14.2280   44.2590 C   0  0  0  0  0  0  0  0  0  0  0  0
    4.0290   13.8230   45.5830 C   0  0  0  0  0  0  0  0  0  0  0  0
    3.4040   14.6040   46.7130 C   0  0  0  0  0  0  0  0  0  0  0  0
    4.8410   12.7170   45.8660 C   0  0  0  0  0  0  0  0  0  0  0  0
    5.0390   12.3900   47.1460 N   0  0  0  0  0  0  0  0  0  0  0  0
    5.8210   11.3250   47.3560 C   0  0  0  0  0  0  0  0  0  0  0  0
    6.1400   10.8360   48.5850 N   0  0  0  0  0  0  0  0  0  0  0  0
    6.9310    9.7540   48.5420 N   0  0  0  0  0  0  0  0  0  0  0  0
    7.1190    9.5430   47.2310 C   0  0  0  0  0  0  0  0  0  0  0  0
    7.9640    8.3870   46.8510 C   0  0  0  0  0  0  0  0  0  0  0  0
    6.4490   10.5170   46.4210 C   0  0  0  0  0  0  0  0  0  0  0  0
    6.2520   10.8540   45.0580 C   0  0  0  0  0  0  0  0  0  0  0  0
    6.7900   10.1660   43.9480 N   0  0  0  0  0  0  0  0  0  0  0  0
    8.2330   10.2970   43.7270 C   0  0  0  0  0  0  0  0  0  0  0  0
    8.5680    9.8710   42.2810 C   0  0  0  0  0  0  0  0  0  0  0  0
    8.0040    8.4940   41.9960 N   0  0  0  0  0  0  0  0  0  0  0  0
    6.5120    8.4140   42.2410 C   0  0  0  0  0  0  0  0  0  0  0  0
    6.1730    8.8580   43.6800 C   0  0  0  0  0  0  0  0  0  0  0  0
    5.4160   11.9960   44.7930 C   0  0  0  0  0  0  0  0  0  0  0  0
    5.1490   12.4340   43.4740 C   0  0  0  0  0  0  0  0  0  0  0  0
    2.7979   15.2353   42.4507 H   0  0  0  0  0  0  0  0  0  0  0  0
    3.6993   15.5983   40.9399 H   0  0  0  0  0  0  0  0  0  0  0  0
    2.4156   14.3418   40.9399 H   0  0  0  0  0  0  0  0  0  0  0  0
    3.1348   15.0982   44.0646 H   0  0  0  0  0  0  0  0  0  0  0  0
    3.7373   14.1874   47.6750 H   0  0  0  0  0  0  0  0  0  0  0  0
    3.7108   15.6581   46.6438 H   0  0  0  0  0  0  0  0  0  0  0  0
    2.3083   14.5357   46.6438 H   0  0  0  0  0  0  0  0  0  0  0  0
    5.8440   11.2020   49.4810 H   0  0  0  0  0  0  0  0  0  0  0  0
    8.3301    7.8861   47.7593 H   0  0  0  0  0  0  0  0  0  0  0  0
    7.3696    7.6783   46.2558 H   0  0  0  0  0  0  0  0  0  0  0  0
    8.8197    8.7383   46.2558 H   0  0  0  0  0  0  0  0  0  0  0  0
    8.5349   11.3434   43.8812 H   0  0  0  0  0  0  0  0  0  0  0  0
    8.7745    9.6534   44.4359 H   0  0  0  0  0  0  0  0  0  0  0  0
    8.1302   10.5953   41.5784 H   0  0  0  0  0  0  0  0  0  0  0  0
    9.6609    9.8428   42.1597 H   0  0  0  0  0  0  0  0  0  0  0  0
    8.2010    8.2420   41.0200 H   0  0  0  0  0  0  0  0  0  0  0  0
    8.4820    7.8000   42.5840 H   0  0  0  0  0  0  0  0  0  0  0  0
    5.9928    9.0714   41.5281 H   0  0  0  0  0  0  0  0  0  0  0  0
    6.1857    7.3723   42.1052 H   0  0  0  0  0  0  0  0  0  0  0  0
    5.0816    8.9377   43.7916 H   0  0  0  0  0  0  0  0  0  0  0  0
    6.5614    8.1164   44.3935 H   0  0  0  0  0  0  0  0  0  0  0  0
    5.5968   11.8837   42.6334 H   0  0  0  0  0  0  0  0  0  0  0  0
  1  2  1  0
  2  3  1  0
  3  4  2  0
  4  5  1  0
  5  6  1  0
  5  7  2  0
  7  8  1  0
  8  9  2  0
  9 10  1  0
 10 11  1  0
 11 12  2  0
 12 13  1  0
 12 14  1  0
 14 15  2  0
 15 16  1  0
 16 17  1  0
 17 18  1  0
 18 19  1  0
 19 20  1  0
 20 21  1  0
 15 22  1  0
 22 23  2  0
 23  3  1  0
 22  7  1  0
 14  9  1  0
 21 16  1  0
  1 24  1  0
  1 25  1  0
  1 26  1  0
  4 27  1  0
  6 28  1  0
  6 29  1  0
  6 30  1  0
 10 31  1  0
 13 32  1  0
 13 33  1  0
 13 34  1  0
 17 35  1  0
 17 36  1  0
 18 37  1  0
 18 38  1  0
 19 39  1  0
 19 40  1  0
 20 41  1  0
 20 42  1  0
 21 43  1  0
 21 44  1  0
 23 45  1  0
M  CHG  1  19   1
M  END
>  <meeko>  (1) 
{"is_sidechain": [false], "free_energy": -8.173, "intermolecular_energy": -9.129, "internal_energy": -0.51}

$$$$
3uuo_ligand
     RDKit          3D

 45 48  0  0  0  0  0  0  0  0999 V2000
    6.2180   10.4640   40.4060 C   0  0  0  0  0  0  0  0  0  0  0  0
    5.5020   11.5220   39.7760 O   0  0  0  0  0  0  0  0  0  0  0  0
    4.9010   12.4330   40.5980 C   0  0  0  0  0  0  0  0  0  0  0  0
    4.1380   13.5200   40.2080 C   0  0  0  0  0  0  0  0  0  0  0  0
    3.5800   14.3790   41.1750 C   0  0  0  0  0  0  0  0  0  0  0  0
    2.7580   15.5570   40.7130 C   0  0  0  0  0  0  0  0  0  0  0  0
    3.7760   14.1590   42.5440 C   0  0  0  0  0  0  0  0  0  0  0  0
    3.2210   15.0150   43.4060 N   0  0  0  0  0  0  0  0  0  0  0  0
    3.4390   14.7550   44.7000 C   0  0  0  0  0  0  0  0  0  0  0  0
    2.9590   15.5070   45.7270 N   0  0  0  0  0  0  0  0  0  0  0  0
    3.3010   15.0430   46.9370 N   0  0  0  0  0  0  0  0  0  0  0  0
    4.0250   13.9460   46.6690 C   0  0  0  0  0  0  0  0  0  0  0  0
    4.5530   13.1890   47.8290 C   0  0  0  0  0  0  0  0  0  0  0  0
    4.1610   13.7140   45.2620 C   0  0  0  0  0  0  0  0  0  0  0  0
    4.7610   12.7990   44.3590 C   0  0  0  0  0  0  0  0  0  0  0  0
    5.5300   11.6680   44.7140 N   0  0  0  0  0  0  0  0  0  0  0  0
    6.8390   11.9260   45.3220 C   0  0  0  0  0  0  0  0  0  0  0  0
    7.6990   10.6480   45.2380 C   0  0  0  0  0  0  0  0  0  0  0  0
    6.9480    9.4690   45.8220 N   0  0  0  0  0  0  0  0  0  0  0  0
    5.6050    9.2490   45.1590 C   0  0  0  0  0  0  0  0  0  0  0  0
    4.7500   10.5320   45.2250 C   0  0  0  0  0  0  0  0  0  0  0  0
    4.5480   13.0470   42.9570 C   0  0  0  0  0  0  0  0  0  0  0  0
    5.0980   12.2080   41.9600 C   0  0  0  0  0  0  0  0  0  0  0  0
    6.1452   10.5715   41.4983 H   0  0  0  0  0  0  0  0  0  0  0  0
    5.7870    9.4983   40.1031 H   0  0  0  0  0  0  0  0  0  0  0  0
    7.2747   10.5051   40.1031 H   0  0  0  0  0  0  0  0  0  0  0  0
    3.9667   13.7138   39.1388 H   0  0  0  0  0  0  0  0  0  0  0  0
    2.3765   16.1037   41.5880 H   0  0  0  0  0  0  0  0  0  0  0  0
    3.3857   16.2270   40.1071 H   0  0  0  0  0  0  0  0  0  0  0  0
    1.9126   15.1991   40.1071 H   0  0  0  0  0  0  0  0  0  0  0  0
    2.3940   16.3440   45.6560 H   0  0  0  0  0  0  0  0  0  0  0  0
    4.2193   13.6674   48.7616 H   0  0  0  0  0  0  0  0  0  0  0  0
    4.1791   12.1551   47.7931 H   0  0  0  0  0  0  0  0  0  0  0  0
    5.6524   13.1827   47.7931 H   0  0  0  0  0  0  0  0  0  0  0  0
    7.3405   12.7429   44.7824 H   0  0  0  0  0  0  0  0  0  0  0  0
    6.7066   12.2133   46.3755 H   0  0  0  0  0  0  0  0  0  0  0  0
    7.9380   10.4401   44.1846 H   0  0  0  0  0  0  0  0  0  0  0  0
    8.6250   10.8017   45.8115 H   0  0  0  0  0  0  0  0  0  0  0  0
    7.5190    8.6210   45.7230 H   0  0  0  0  0  0  0  0  0  0  0  0
    6.8090    9.6180   46.8290 H   0  0  0  0  0  0  0  0  0  0  0  0
    5.7626    8.9734   44.1058 H   0  0  0  0  0  0  0  0  0  0  0  0
    5.0761    8.4427   45.6883 H   0  0  0  0  0  0  0  0  0  0  0  0
    3.8463   10.4022   44.6114 H   0  0  0  0  0  0  0  0  0  0  0  0
    4.4604   10.7261   46.2683 H   0  0  0  0  0  0  0  0  0  0  0  0
    5.7046   11.3447   42.2710 H   0  0  0  0  0  0  0  0  0  0  0  0
  1  2  1  0
  2  3  1  0
  3  4  2  0
  4  5  1  0
  5  6  1  0
  5  7  2  0
  7  8  1  0
  8  9  2  0
  9 10  1  0
 10 11  1  0
 11 12  2  0
 12 13  1  0
 12 14  1  0
 14 15  2  0
 15 16  1  0
 16 17  1  0
 17 18  1  0
 18 19  1  0
 19 20  1  0
 20 21  1  0
 15 22  1  0
 22 23  2  0
 23  3  1  0
 22  7  1  0
 14  9  1  0
 21 16  1  0
  1 24  1  0
  1 25  1  0
  1 26  1  0
  4 27  1  0
  6 28  1  0
  6 29  1  0
  6 30  1  0
 10 31  1  0
 13 32  1  0
 13 33  1  0
 13 34  1  0
 17 35  1  0
 17 36  1  0
 18 37  1  0
 18 38  1  0
 19 39  1  0
 19 40  1  0
 20 41  1  0
 20 42  1  0
 21 43  1  0
 21 44  1  0
 23 45  1  0
M  CHG  1  19   1
M  END
>  <meeko>  (2) 
{"is_sidechain": [false], "free_energy": -8.136, "intermolecular_energy": -9.09, "internal_energy": -0.507}

$$$$
3uuo_ligand
     RDKit          3D

 45 48  0  0  0  0  0  0  0  0999 V2000
    4.8190   12.0130   42.0890 C   0  0  0  0  0  0  0  0  0  0  0  0
    4.4620   12.6900   43.2900 O   0  0  0  0  0  0  0  0  0  0  0  0
    5.0220   12.2250   44.4470 C   0  0  0  0  0  0  0  0  0  0  0  0
    4.7320   12.6480   45.7330 C   0  0  0  0  0  0  0  0  0  0  0  0
    5.3950   12.0760   46.8340 C   0  0  0  0  0  0  0  0  0  0  0  0
    5.0570   12.5660   48.2220 C   0  0  0  0  0  0  0  0  0  0  0  0
    6.3540   11.0690   46.6650 C   0  0  0  0  0  0  0  0  0  0  0  0
    6.9470   10.5720   47.7540 N   0  0  0  0  0  0  0  0  0  0  0  0
    7.8510    9.6130   47.5320 C   0  0  0  0  0  0  0  0  0  0  0  0
    8.5600    8.9830   48.5090 N   0  0  0  0  0  0  0  0  0  0  0  0
    9.4020    8.0490   48.0430 N   0  0  0  0  0  0  0  0  0  0  0  0
    9.2170    8.0820   46.7150 C   0  0  0  0  0  0  0  0  0  0  0  0
   10.0190    7.1380   45.9020 C   0  0  0  0  0  0  0  0  0  0  0  0
    8.2520    9.0660   46.3240 C   0  0  0  0  0  0  0  0  0  0  0  0
    7.6350    9.5860   45.1570 C   0  0  0  0  0  0  0  0  0  0  0  0
    7.8870    9.1710   43.8310 N   0  0  0  0  0  0  0  0  0  0  0  0
    9.1740    9.5650   43.2500 C   0  0  0  0  0  0  0  0  0  0  0  0
    9.1050    9.4240   41.7150 C   0  0  0  0  0  0  0  0  0  0  0  0
    8.6360    8.0350   41.3350 N   0  0  0  0  0  0  0  0  0  0  0  0
    7.3030    7.6790   41.9620 C   0  0  0  0  0  0  0  0  0  0  0  0
    7.3650    7.8380   43.4960 C   0  0  0  0  0  0  0  0  0  0  0  0
    6.6550   10.6210   45.3570 C   0  0  0  0  0  0  0  0  0  0  0  0
    5.9750   11.2230   44.2720 C   0  0  0  0  0  0  0  0  0  0  0  0
    5.3189   11.0651   42.3371 H   0  0  0  0  0  0  0  0  0  0  0  0
    3.9125   11.8066   41.5011 H   0  0  0  0  0  0  0  0  0  0  0  0
    5.5014   12.6444   41.5011 H   0  0  0  0  0  0  0  0  0  0  0  0
    3.9801   13.4345   45.8945 H   0  0  0  0  0  0  0  0  0  0  0  0
    5.5161   11.9004   48.9677 H   0  0  0  0  0  0  0  0  0  0  0  0
    5.4437   13.5872   48.3546 H   0  0  0  0  0  0  0  0  0  0  0  0
    3.9650   12.5673   48.3546 H   0  0  0  0  0  0  0  0  0  0  0  0
    8.5060    9.1530   49.5050 H   0  0  0  0  0  0  0  0  0  0  0  0
   10.5859    6.4707   46.5678 H   0  0  0  0  0  0  0  0  0  0  0  0
    9.3488    6.5397   45.2673 H   0  0  0  0  0  0  0  0  0  0  0  0
   10.7177    7.7027   45.2673 H   0  0  0  0  0  0  0  0  0  0  0  0
    9.3915   10.6106   43.5136 H   0  0  0  0  0  0  0  0  0  0  0  0
    9.9703    8.9165   43.6442 H   0  0  0  0  0  0  0  0  0  0  0  0
    8.4004   10.1673   41.3137 H   0  0  0  0  0  0  0  0  0  0  0  0
   10.1080    9.5902   41.2951 H   0  0  0  0  0  0  0  0  0  0  0  0
    8.5570    7.9710   40.3130 H   0  0  0  0  0  0  0  0  0  0  0  0
    9.3410    7.3460   41.6230 H   0  0  0  0  0  0  0  0  0  0  0  0
    6.5252    8.3452   41.5606 H   0  0  0  0  0  0  0  0  0  0  0  0
    7.0670    6.6315   41.7231 H   0  0  0  0  0  0  0  0  0  0  0  0
    6.3554    7.7233   43.9174 H   0  0  0  0  0  0  0  0  0  0  0  0
    8.0285    7.0684   43.9174 H   0  0  0  0  0  0  0  0  0  0  0  0
    6.2075   10.8872   43.2506 H   0  0  0  0  0  0  0  0  0  0  0  0
  1  2  1  0
  2  3  1  0
  3  4  2  0
  4  5  1  0
  5  6  1  0
  5  7  2  0
  7  8  1  0
  8  9  2  0
  9 10  1  0
 10 11  1  0
 11 12  2  0
 12 13  1  0
 12 14  1  0
 14 15  2  0
 15 16  1  0
 16 17  1  0
 17 18  1  0
 18 19  1  0
 19 20  1  0
 20 21  1  0
 15 22  1  0
 22 23  2  0
 23  3  1  0
 22  7  1  0
 14  9  1  0
 21 16  1  0
  1 24  1  0
  1 25  1  0
  1 26  1  0
  4 27  1  0
  6 28  1  0
  6 29  1  0
  6 30  1  0
 10 31  1  0
 13 32  1  0
 13 33  1  0
 13 34  1  0
 17 35  1  0
 17 36  1  0
 18 37  1  0
 18 38  1  0
 19 39  1  0
 19 40  1  0
 20 41  1  0
 20 42  1  0
 21 43  1  0
 21 44  1  0
 23 45  1  0
M  CHG  1  19   1
M  END
>  <meeko>  (3) 
{"is_sidechain": [false], "free_energy": -7.714, "intermolecular_energy": -8.61, "internal_energy": -0.516}

$$$$
3uuo_ligand
     RDKit          3D

 45 48  0  0  0  0  0  0  0  0999 V2000
    3.7170   13.3500   39.9350 C   0  0  0  0  0  0  0  0  0  0  0  0
    4.7790   12.8130   40.7180 O   0  0  0  0  0  0  0  0  0  0  0  0
    4.6780   12.9560   42.0730 C   0  0  0  0  0  0  0  0  0  0  0  0
    3.9490   13.9200   42.7490 C   0  0  0  0  0  0  0  0  0  0  0  0
    3.9410   13.9450   44.1560 C   0  0  0  0  0  0  0  0  0  0  0  0
    3.1390   15.0130   44.8600 C   0  0  0  0  0  0  0  0  0  0  0  0
    4.6570   13.0030   44.9060 C   0  0  0  0  0  0  0  0  0  0  0  0
    4.6080   13.0880   46.2380 N   0  0  0  0  0  0  0  0  0  0  0  0
    5.3090   12.1630   46.9020 C   0  0  0  0  0  0  0  0  0  0  0  0
    5.3840   12.0810   48.2580 N   0  0  0  0  0  0  0  0  0  0  0  0
    6.1410   11.0630   48.6930 N   0  0  0  0  0  0  0  0  0  0  0  0
    6.5610   10.4690   47.5660 C   0  0  0  0  0  0  0  0  0  0  0  0
    7.4310    9.2790   47.7180 C   0  0  0  0  0  0  0  0  0  0  0  0
    6.0770   11.1290   46.3900 C   0  0  0  0  0  0  0  0  0  0  0  0
    6.1440   11.0290   44.9770 C   0  0  0  0  0  0  0  0  0  0  0  0
    6.8580   10.0520   44.2480 N   0  0  0  0  0  0  0  0  0  0  0  0
    8.3210   10.1360   44.2920 C   0  0  0  0  0  0  0  0  0  0  0  0
    8.9140    9.3080   43.1330 C   0  0  0  0  0  0  0  0  0  0  0  0
    8.3570    7.9000   43.1540 N   0  0  0  0  0  0  0  0  0  0  0  0
    6.8440    7.8710   43.1070 C   0  0  0  0  0  0  0  0  0  0  0  0
    6.2490    8.7140   44.2550 C   0  0  0  0  0  0  0  0  0  0  0  0
    5.4010   12.0080   44.2280 C   0  0  0  0  0  0  0  0  0  0  0  0
    5.3920   12.0160   42.8130 C   0  0  0  0  0  0  0  0  0  0  0  0
    2.9349   13.7454   40.5998 H   0  0  0  0  0  0  0  0  0  0  0  0
    4.1033   14.1611   39.3003 H   0  0  0  0  0  0  0  0  0  0  0  0
    3.2927   12.5581   39.3003 H   0  0  0  0  0  0  0  0  0  0  0  0
    3.3742   14.6688   42.1842 H   0  0  0  0  0  0  0  0  0  0  0  0
    3.2346   14.8857   45.9484 H   0  0  0  0  0  0  0  0  0  0  0  0
    3.5172   16.0050   44.5723 H   0  0  0  0  0  0  0  0  0  0  0  0
    2.0808   14.9264   44.5723 H   0  0  0  0  0  0  0  0  0  0  0  0
    4.9380   12.6930   48.9300 H   0  0  0  0  0  0  0  0  0  0  0  0
    7.5835    9.0704   48.7872 H   0  0  0  0  0  0  0  0  0  0  0  0
    6.9526    8.4116   47.2398 H   0  0  0  0  0  0  0  0  0  0  0  0
    8.4027    9.4717   47.2398 H   0  0  0  0  0  0  0  0  0  0  0  0
    8.6321   11.1862   44.1901 H   0  0  0  0  0  0  0  0  0  0  0  0
    8.6843    9.7398   45.2517 H   0  0  0  0  0  0  0  0  0  0  0  0
    8.6560    9.7860   42.1765 H   0  0  0  0  0  0  0  0  0  0  0  0
   10.0069    9.2621   43.2488 H   0  0  0  0  0  0  0  0  0  0  0  0
    8.7310    7.3750   42.3540 H   0  0  0  0  0  0  0  0  0  0  0  0
    8.6790    7.4180   44.0030 H   0  0  0  0  0  0  0  0  0  0  0  0
    6.5042    8.2803   42.1442 H   0  0  0  0  0  0  0  0  0  0  0  0
    6.5054    6.8304   43.2186 H   0  0  0  0  0  0  0  0  0  0  0  0
    5.1615    8.8055   44.1170 H   0  0  0  0  0  0  0  0  0  0  0  0
    6.4568    8.2219   45.2166 H   0  0  0  0  0  0  0  0  0  0  0  0
    5.9713   11.2502   42.2764 H   0  0  0  0  0  0  0  0  0  0  0  0
  1  2  1  0
  2  3  1  0
  3  4  2  0
  4  5  1  0
  5  6  1  0
  5  7  2  0
  7  8  1  0
  8  9  2  0
  9 10  1  0
 10 11  1  0
 11 12  2  0
 12 13  1  0
 12 14  1  0
 14 15  2  0
 15 16  1  0
 16 17  1  0
 17 18  1  0
 18 19  1  0
 19 20  1  0
 20 21  1  0
 15 22  1  0
 22 23  2  0
 23  3  1  0
 22  7  1  0
 14  9  1  0
 21 16  1  0
  1 24  1  0
  1 25  1  0
  1 26  1  0
  4 27  1  0
  6 28  1  0
  6 29  1  0
  6 30  1  0
 10 31  1  0
 13 32  1  0
 13 33  1  0
 13 34  1  0
 17 35  1  0
 17 36  1  0
 18 37  1  0
 18 38  1  0
 19 39  1  0
 19 40  1  0
 20 41  1  0
 20 42  1  0
 21 43  1  0
 21 44  1  0
 23 45  1  0
M  CHG  1  19   1
M  END
>  <meeko>  (4) 
{"is_sidechain": [false], "free_energy": -7.628, "intermolecular_energy": -8.525, "internal_energy": -0.505}

$$$$
3uuo_ligand
     RDKit          3D

 45 48  0  0  0  0  0  0  0  0999 V2000
    3.7380   12.7400   47.9690 C   0  0  0  0  0  0  0  0  0  0  0  0
    4.2440   13.7670   47.1210 O   0  0  0  0  0  0  0  0  0  0  0  0
    4.3360   13.4760   45.7890 C   0  0  0  0  0  0  0  0  0  0  0  0
    3.8250   14.2250   44.7430 C   0  0  0  0  0  0  0  0  0  0  0  0
    3.9960   13.7950   43.4140 C   0  0  0  0  0  0  0  0  0  0  0  0
    3.4210   14.6350   42.2990 C   0  0  0  0  0  0  0  0  0  0  0  0
    4.6840   12.6130   43.1120 C   0  0  0  0  0  0  0  0  0  0  0  0
    4.8050   12.2630   41.8290 N   0  0  0  0  0  0  0  0  0  0  0  0
    5.4720   11.1260   41.6010 C   0  0  0  0  0  0  0  0  0  0  0  0
    5.7020   10.6040   40.3660 N   0  0  0  0  0  0  0  0  0  0  0  0
    6.4020    9.4600   40.3890 N   0  0  0  0  0  0  0  0  0  0  0  0
    6.6320    9.2490   41.6940 C   0  0  0  0  0  0  0  0  0  0  0  0
    7.4070    8.0380   42.0520 C   0  0  0  0  0  0  0  0  0  0  0  0
    6.0540   10.2670   42.5200 C   0  0  0  0  0  0  0  0  0  0  0  0
    5.9290   10.6220   43.8870 C   0  0  0  0  0  0  0  0  0  0  0  0
    6.4500    9.8990   44.9830 N   0  0  0  0  0  0  0  0  0  0  0  0
    5.8370    8.5960   45.2630 C   0  0  0  0  0  0  0  0  0  0  0  0
    6.2020    8.1600   46.6980 C   0  0  0  0  0  0  0  0  0  0  0  0
    7.7030    8.2130   46.8970 N   0  0  0  0  0  0  0  0  0  0  0  0
    8.2830    9.5790   46.5940 C   0  0  0  0  0  0  0  0  0  0  0  0
    7.9030   10.0250   45.1670 C   0  0  0  0  0  0  0  0  0  0  0  0
    5.2170   11.8400   44.1720 C   0  0  0  0  0  0  0  0  0  0  0  0
    5.0210   12.2980   45.4960 C   0  0  0  0  0  0  0  0  0  0  0  0
    3.8806   13.0294   49.0206 H   0  0  0  0  0  0  0  0  0  0  0  0
    2.6657   12.5958   47.7706 H   0  0  0  0  0  0  0  0  0  0  0  0
    4.2770   11.8019   47.7706 H   0  0  0  0  0  0  0  0  0  0  0  0
    3.2834   15.1595   44.9514 H   0  0  0  0  0  0  0  0  0  0  0  0
    2.8487   15.4710   42.7275 H   0  0  0  0  0  0  0  0  0  0  0  0
    4.2388   15.0303   41.6786 H   0  0  0  0  0  0  0  0  0  0  0  0
    2.7565   14.0157   41.6786 H   0  0  0  0  0  0  0  0  0  0  0  0
    5.4050   10.9880   39.4780 H   0  0  0  0  0  0  0  0  0  0  0  0
    7.4637    7.9494   43.1470 H   0  0  0  0  0  0  0  0  0  0  0  0
    6.9098    7.1487   41.6374 H   0  0  0  0  0  0  0  0  0  0  0  0
    8.4228    8.1169   41.6374 H   0  0  0  0  0  0  0  0  0  0  0  0
    4.7439    8.6763   45.1699 H   0  0  0  0  0  0  0  0  0  0  0  0
    6.2096    7.8508   44.5448 H   0  0  0  0  0  0  0  0  0  0  0  0
    5.7163    8.8358   47.4173 H   0  0  0  0  0  0  0  0  0  0  0  0
    5.8557    7.1282   46.8579 H   0  0  0  0  0  0  0  0  0  0  0  0
    7.9250    7.9580   47.8680 H   0  0  0  0  0  0  0  0  0  0  0  0
    8.1520    7.5120   46.2950 H   0  0  0  0  0  0  0  0  0  0  0  0
    7.8890   10.3078   47.3176 H   0  0  0  0  0  0  0  0  0  0  0  0
    9.3791    9.5237   46.6686 H   0  0  0  0  0  0  0  0  0  0  0  0
    8.2015   11.0734   45.0192 H   0  0  0  0  0  0  0  0  0  0  0  0
    8.4211    9.3886   44.4345 H   0  0  0  0  0  0  0  0  0  0  0  0
    5.4250   11.7010   46.3269 H   0  0  0  0  0  0  0  0  0  0  0  0
  1  2  1  0
  2  3  1  0
  3  4  2  0
  4  5  1  0
  5  6  1  0
  5  7  2  0
  7  8  1  0
  8  9  2  0
  9 10  1  0
 10 11  1  0
 11 12  2  0
 12 13  1  0
 12 14  1  0
 14 15  2  0
 15 16  1  0
 16 17  1  0
 17 18  1  0
 18 19  1  0
 19 20  1  0
 20 21  1  0
 15 22  1  0
 22 23  2  0
 23  3  1  0
 22  7  1  0
 14  9  1  0
 21 16  1  0
  1 24  1  0
  1 25  1  0
  1 26  1  0
  4 27  1  0
  6 28  1  0
  6 29  1  0
  6 30  1  0
 10 31  1  0
 13 32  1  0
 13 33  1  0
 13 34  1  0
 17 35  1  0
 17 36  1  0
 18 37  1  0
 18 38  1  0
 19 39  1  0
 19 40  1  0
 20 41  1  0
 20 42  1  0
 21 43  1  0
 21 44  1  0
 23 45  1  0
M  CHG  1  19   1
M  END
>  <meeko>  (5) 
{"is_sidechain": [false], "free_energy": -7.267, "intermolecular_energy": -8.129, "internal_energy": -0.498}

$$$$
3uuo_ligand
     RDKit          3D

 45 48  0  0  0  0  0  0  0  0999 V2000
    3.5780   15.3540   45.6520 C   0  0  0  0  0  0  0  0  0  0  0  0
    4.1840   15.6750   44.4040 O   0  0  0  0  0  0  0  0  0  0  0  0
    4.1790   14.6980   43.4490 C   0  0  0  0  0  0  0  0  0  0  0  0
    3.5770   14.7630   42.2030 C   0  0  0  0  0  0  0  0  0  0  0  0
    3.6550   13.6700   41.3210 C   0  0  0  0  0  0  0  0  0  0  0  0
    2.9820   13.7740   39.9730 C   0  0  0  0  0  0  0  0  0  0  0  0
    4.3390   12.4980   41.6700 C   0  0  0  0  0  0  0  0  0  0  0  0
    4.3700   11.4980   40.7850 N   0  0  0  0  0  0  0  0  0  0  0  0
    5.0380   10.4060   41.1710 C   0  0  0  0  0  0  0  0  0  0  0  0
    5.1830    9.2850   40.4120 N   0  0  0  0  0  0  0  0  0  0  0  0
    5.9030    8.3240   41.0090 N   0  0  0  0  0  0  0  0  0  0  0  0
    6.2350    8.8580   42.1940 C   0  0  0  0  0  0  0  0  0  0  0  0
    7.0560    8.0220   43.1010 C   0  0  0  0  0  0  0  0  0  0  0  0
    5.7030   10.1770   42.3650 C   0  0  0  0  0  0  0  0  0  0  0  0
    5.6760   11.2280   43.3170 C   0  0  0  0  0  0  0  0  0  0  0  0
    6.2910   11.2110   44.5880 N   0  0  0  0  0  0  0  0  0  0  0  0
    5.6630   10.3710   45.6130 C   0  0  0  0  0  0  0  0  0  0  0  0
    6.1750   10.7980   47.0050 C   0  0  0  0  0  0  0  0  0  0  0  0
    7.6890   10.8040   47.0290 N   0  0  0  0  0  0  0  0  0  0  0  0
    8.2850   11.6850   45.9510 C   0  0  0  0  0  0  0  0  0  0  0  0
    7.7600   11.2720   44.5600 C   0  0  0  0  0  0  0  0  0  0  0  0
    4.9650   12.4210   42.9370 C   0  0  0  0  0  0  0  0  0  0  0  0
    4.8620   13.5350   43.8020 C   0  0  0  0  0  0  0  0  0  0  0  0
    4.2252   15.6968   46.4728 H   0  0  0  0  0  0  0  0  0  0  0  0
    2.6000   15.8523   45.7236 H   0  0  0  0  0  0  0  0  0  0  0  0
    3.4408   14.2649   45.7236 H   0  0  0  0  0  0  0  0  0  0  0  0
    3.0362   15.6724   41.9023 H   0  0  0  0  0  0  0  0  0  0  0  0
    1.9038   13.9406   40.1134 H   0  0  0  0  0  0  0  0  0  0  0  0
    3.4132   14.6162   39.4119 H   0  0  0  0  0  0  0  0  0  0  0  0
    3.1388   12.8410   39.4119 H   0  0  0  0  0  0  0  0  0  0  0  0
    4.8120    9.1270   39.4840 H   0  0  0  0  0  0  0  0  0  0  0  0
    6.8144    8.2681   44.1455 H   0  0  0  0  0  0  0  0  0  0  0  0
    6.8408    6.9594   42.9154 H   0  0  0  0  0  0  0  0  0  0  0  0
    8.1224    8.2180   42.9154 H   0  0  0  0  0  0  0  0  0  0  0  0
    4.5706   10.4931   45.5697 H   0  0  0  0  0  0  0  0  0  0  0  0
    5.9189    9.3164   45.4333 H   0  0  0  0  0  0  0  0  0  0  0  0
    5.8045   11.8081   47.2338 H   0  0  0  0  0  0  0  0  0  0  0  0
    5.8081   10.0829   47.7560 H   0  0  0  0  0  0  0  0  0  0  0  0
    8.0130   11.1280   47.9490 H   0  0  0  0  0  0  0  0  0  0  0  0
    8.0360    9.8440   46.9120 H   0  0  0  0  0  0  0  0  0  0  0  0
    8.0083   12.7317   46.1456 H   0  0  0  0  0  0  0  0  0  0  0  0
    9.3790   11.5716   45.9651 H   0  0  0  0  0  0  0  0  0  0  0  0
    8.0819   12.0117   43.8122 H   0  0  0  0  0  0  0  0  0  0  0  0
    8.1628   10.2832   44.2952 H   0  0  0  0  0  0  0  0  0  0  0  0
    5.3392   13.4819   44.7917 H   0  0  0  0  0  0  0  0  0  0  0  0
  1  2  1  0
  2  3  1  0
  3  4  2  0
  4  5  1  0
  5  6  1  0
  5  7  2  0
  7  8  1  0
  8  9  2  0
  9 10  1  0
 10 11  1  0
 11 12  2  0
 12 13  1  0
 12 14  1  0
 14 15  2  0
 15 16  1  0
 16 17  1  0
 17 18  1  0
 18 19  1  0
 19 20  1  0
 20 21  1  0
 15 22  1  0
 22 23  2  0
 23  3  1  0
 22  7  1  0
 14  9  1  0
 21 16  1  0
  1 24  1  0
  1 25  1  0
  1 26  1  0
  4 27  1  0
  6 28  1  0
  6 29  1  0
  6 30  1  0
 10 31  1  0
 13 32  1  0
 13 33  1  0
 13 34  1  0
 17 35  1  0
 17 36  1  0
 18 37  1  0
 18 38  1  0
 19 39  1  0
 19 40  1  0
 20 41  1  0
 20 42  1  0
 21 43  1  0
 21 44  1  0
 23 45  1  0
M  CHG  1  19   1
M  END
>  <meeko>  (6) 
{"is_sidechain": [false], "free_energy": -7.107, "intermolecular_energy": -7.942, "internal_energy": -0.505}

$$$$
3uuo_ligand
     RDKit          3D

 45 48  0  0  0  0  0  0  0  0999 V2000
    3.1880   14.8730   41.4400 C   0  0  0  0  0  0  0  0  0  0  0  0
    3.3940   15.1790   42.8160 O   0  0  0  0  0  0  0  0  0  0  0  0
    3.8830   14.1750   43.6030 C   0  0  0  0  0  0  0  0  0  0  0  0
    3.9390   14.1620   44.9870 C   0  0  0  0  0  0  0  0  0  0  0  0
    4.4750   13.0520   45.6650 C   0  0  0  0  0  0  0  0  0  0  0  0
    4.5250   13.0750   47.1730 C   0  0  0  0  0  0  0  0  0  0  0  0
    4.9590   11.9370   44.9680 C   0  0  0  0  0  0  0  0  0  0  0  0
    5.4580   10.9200   45.6750 N   0  0  0  0  0  0  0  0  0  0  0  0
    5.9030    9.8820   44.9590 C   0  0  0  0  0  0  0  0  0  0  0  0
    6.4450    8.7540   45.4930 N   0  0  0  0  0  0  0  0  0  0  0  0
    6.8100    7.8470   44.5750 N   0  0  0  0  0  0  0  0  0  0  0  0
    6.4830    8.4210   43.4070 C   0  0  0  0  0  0  0  0  0  0  0  0
    6.7640    7.6450   42.1760 C   0  0  0  0  0  0  0  0  0  0  0  0
    5.9130    9.7240   43.5820 C   0  0  0  0  0  0  0  0  0  0  0  0
    5.3910   10.7980   42.8170 C   0  0  0  0  0  0  0  0  0  0  0  0
    5.2980   10.8440   41.4080 N   0  0  0  0  0  0  0  0  0  0  0  0
    6.5610   10.8390   40.6640 C   0  0  0  0  0  0  0  0  0  0  0  0
    6.3040   11.3260   39.2220 C   0  0  0  0  0  0  0  0  0  0  0  0
    5.1890   10.5220   38.5860 N   0  0  0  0  0  0  0  0  0  0  0  0
    3.9100   10.5600   39.3960 C   0  0  0  0  0  0  0  0  0  0  0  0
    4.1680   10.0920   40.8430 C   0  0  0  0  0  0  0  0  0  0  0  0
    4.9020   11.9330   43.5540 C   0  0  0  0  0  0  0  0  0  0  0  0
    4.3620   13.0680   42.9050 C   0  0  0  0  0  0  0  0  0  0  0  0
    2.5756   13.9633   41.3544 H   0  0  0  0  0  0  0  0  0  0  0  0
    2.6696   15.7113   40.9516 H   0  0  0  0  0  0  0  0  0  0  0  0
    4.1597   14.7082   40.9516 H   0  0  0  0  0  0  0  0  0  0  0  0
    3.5627   15.0234   45.5584 H   0  0  0  0  0  0  0  0  0  0  0  0
    3.5956   12.6475   47.5772 H   0  0  0  0  0  0  0  0  0  0  0  0
    5.3833   12.4812   47.5205 H   0  0  0  0  0  0  0  0  0  0  0  0
    4.6326   14.1131   47.5205 H   0  0  0  0  0  0  0  0  0  0  0  0
    6.5860    8.5530   46.4750 H   0  0  0  0  0  0  0  0  0  0  0  0
    7.1268    6.6431   42.4490 H   0  0  0  0  0  0  0  0  0  0  0  0
    5.8424    7.5522   41.5827 H   0  0  0  0  0  0  0  0  0  0  0  0
    7.5314    8.1638   41.5827 H   0  0  0  0  0  0  0  0  0  0  0  0
    7.2803   11.5102   41.1561 H   0  0  0  0  0  0  0  0  0  0  0  0
    6.9719    9.8189   40.6413 H   0  0  0  0  0  0  0  0  0  0  0  0
    6.0188   12.3882   39.2432 H   0  0  0  0  0  0  0  0  0  0  0  0
    7.2222   11.1939   38.6309 H   0  0  0  0  0  0  0  0  0  0  0  0
    5.0050   10.8840   37.6430 H   0  0  0  0  0  0  0  0  0  0  0  0
    5.4920    9.5460   38.4760 H   0  0  0  0  0  0  0  0  0  0  0  0
    3.5235   11.5897   39.4128 H   0  0  0  0  0  0  0  0  0  0  0  0
    3.1763    9.8850   38.9311 H   0  0  0  0  0  0  0  0  0  0  0  0
    3.2689   10.2694   41.4514 H   0  0  0  0  0  0  0  0  0  0  0  0
    4.4057    9.0180   40.8438 H   0  0  0  0  0  0  0  0  0  0  0  0
    4.3185   13.0772   41.8059 H   0  0  0  0  0  0  0  0  0  0  0  0
  1  2  1  0
  2  3  1  0
  3  4  2  0
  4  5  1  0
  5  6  1  0
  5  7  2  0
  7  8  1  0
  8  9  2  0
  9 10  1  0
 10 11  1  0
 11 12  2  0
 12 13  1  0
 12 14  1  0
 14 15  2  0
 15 16  1  0
 16 17  1  0
 17 18  1  0
 18 19  1  0
 19 20  1  0
 20 21  1  0
 15 22  1  0
 22 23  2  0
 23  3  1  0
 22  7  1  0
 14  9  1  0
 21 16  1  0
  1 24  1  0
  1 25  1  0
  1 26  1  0
  4 27  1  0
  6 28  1  0
  6 29  1  0
  6 30  1  0
 10 31  1  0
 13 32  1  0
 13 33  1  0
 13 34  1  0
 17 35  1  0
 17 36  1  0
 18 37  1  0
 18 38  1  0
 19 39  1  0
 19 40  1  0
 20 41  1  0
 20 42  1  0
 21 43  1  0
 21 44  1  0
 23 45  1  0
M  CHG  1  19   1
M  END
>  <meeko>  (7) 
{"is_sidechain": [false], "free_energy": -6.955, "intermolecular_energy": -7.83, "internal_energy": -0.449}

$$$$
3uuo_ligand
     RDKit          3D

 45 48  0  0  0  0  0  0  0  0999 V2000
    2.8260   16.4810   39.2940 C   0  0  0  0  0  0  0  0  0  0  0  0
    2.9420   16.2660   40.6970 O   0  0  0  0  0  0  0  0  0  0  0  0
    3.3950   15.0410   41.0960 C   0  0  0  0  0  0  0  0  0  0  0  0
    3.5120   13.9070   40.3080 C   0  0  0  0  0  0  0  0  0  0  0  0
    3.9950   12.7070   40.8610 C   0  0  0  0  0  0  0  0  0  0  0  0
    4.1030   11.4900   39.9750 C   0  0  0  0  0  0  0  0  0  0  0  0
    4.3730   12.6240   42.2080 C   0  0  0  0  0  0  0  0  0  0  0  0
    4.8200   11.4520   42.6670 N   0  0  0  0  0  0  0  0  0  0  0  0
    5.1680   11.4330   43.9580 C   0  0  0  0  0  0  0  0  0  0  0  0
    5.6450   10.3380   44.6090 N   0  0  0  0  0  0  0  0  0  0  0  0
    5.9350   10.5650   45.8990 N   0  0  0  0  0  0  0  0  0  0  0  0
    5.6330   11.8600   46.0740 C   0  0  0  0  0  0  0  0  0  0  0  0
    5.8560   12.4250   47.4260 C   0  0  0  0  0  0  0  0  0  0  0  0
    5.1270   12.4670   44.8790 C   0  0  0  0  0  0  0  0  0  0  0  0
    4.6510   13.7170   44.4080 C   0  0  0  0  0  0  0  0  0  0  0  0
    4.5340   14.9010   45.1700 N   0  0  0  0  0  0  0  0  0  0  0  0
    4.9860   16.1420   44.5330 C   0  0  0  0  0  0  0  0  0  0  0  0
    5.1980   17.2210   45.6160 C   0  0  0  0  0  0  0  0  0  0  0  0
    3.9540   17.3610   46.4690 N   0  0  0  0  0  0  0  0  0  0  0  0
    3.5320   16.0510   47.1010 C   0  0  0  0  0  0  0  0  0  0  0  0
    3.3370   14.9660   46.0230 C   0  0  0  0  0  0  0  0  0  0  0  0
    4.2660   13.7770   43.0220 C   0  0  0  0  0  0  0  0  0  0  0  0
    3.7700   14.9650   42.4360 C   0  0  0  0  0  0  0  0  0  0  0  0
    2.3110   17.4355   39.1107 H   0  0  0  0  0  0  0  0  0  0  0  0
    3.8291   16.5132   38.8438 H   0  0  0  0  0  0  0  0  0  0  0  0
    2.2483   15.6603   38.8438 H   0  0  0  0  0  0  0  0  0  0  0  0
    3.2262   13.9453   39.2465 H   0  0  0  0  0  0  0  0  0  0  0  0
    4.1831   10.5879   40.5993 H   0  0  0  0  0  0  0  0  0  0  0  0
    3.2077   11.4182   39.3400 H   0  0  0  0  0  0  0  0  0  0  0  0
    4.9970   11.5769   39.3400 H   0  0  0  0  0  0  0  0  0  0  0  0
    5.7930    9.4150   44.2210 H   0  0  0  0  0  0  0  0  0  0  0  0
    5.5639   11.6848   48.1855 H   0  0  0  0  0  0  0  0  0  0  0  0
    6.9202   12.6750   47.5480 H   0  0  0  0  0  0  0  0  0  0  0  0
    5.2494   13.3345   47.5480 H   0  0  0  0  0  0  0  0  0  0  0  0
    5.9334   15.9602   44.0045 H   0  0  0  0  0  0  0  0  0  0  0  0
    4.2281   16.4850   43.8133 H   0  0  0  0  0  0  0  0  0  0  0  0
    6.0456   16.9322   46.2550 H   0  0  0  0  0  0  0  0  0  0  0  0
    5.4063   18.1836   45.1262 H   0  0  0  0  0  0  0  0  0  0  0  0
    4.1260   18.0550   47.2080 H   0  0  0  0  0  0  0  0  0  0  0  0
    3.1840   17.7240   45.8940 H   0  0  0  0  0  0  0  0  0  0  0  0
    4.3092   15.7234   47.8071 H   0  0  0  0  0  0  0  0  0  0  0  0
    2.5784   16.2026   47.6280 H   0  0  0  0  0  0  0  0  0  0  0  0
    3.1791   13.9914   46.5081 H   0  0  0  0  0  0  0  0  0  0  0  0
    2.4607   15.2151   45.4065 H   0  0  0  0  0  0  0  0  0  0  0  0
    3.6766   15.8642   43.0626 H   0  0  0  0  0  0  0  0  0  0  0  0
  1  2  1  0
  2  3  1  0
  3  4  2  0
  4  5  1  0
  5  6  1  0
  5  7  2  0
  7  8  1  0
  8  9  2  0
  9 10  1  0
 10 11  1  0
 11 12  2  0
 12 13  1  0
 12 14  1  0
 14 15  2  0
 15 16  1  0
 16 17  1  0
 17 18  1  0
 18 19  1  0
 19 20  1  0
 20 21  1  0
 15 22  1  0
 22 23  2  0
 23  3  1  0
 22  7  1  0
 14  9  1  0
 21 16  1  0
  1 24  1  0
  1 25  1  0
  1 26  1  0
  4 27  1  0
  6 28  1  0
  6 29  1  0
  6 30  1  0
 10 31  1  0
 13 32  1  0
 13 33  1  0
 13 34  1  0
 17 35  1  0
 17 36  1  0
 18 37  1  0
 18 38  1  0
 19 39  1  0
 19 40  1  0
 20 41  1  0
 20 42  1  0
 21 43  1  0
 21 44  1  0
 23 45  1  0
M  CHG  1  19   1
M  END
>  <meeko>  (8) 
{"is_sidechain": [false], "free_energy": -6.922, "intermolecular_energy": -8.786, "internal_energy": 0.544}

$$$$
3uuo_ligand
     RDKit          3D

 45 48  0  0  0  0  0  0  0  0999 V2000
    6.7100   10.0610   47.7410 C   0  0  0  0  0  0  0  0  0  0  0  0
    6.3240   11.4320   47.7650 O   0  0  0  0  0  0  0  0  0  0  0  0
    5.7760   11.9360   46.6200 C   0  0  0  0  0  0  0  0  0  0  0  0
    4.9220   13.0220   46.5210 C   0  0  0  0  0  0  0  0  0  0  0  0
    4.4320   13.4280   45.2660 C   0  0  0  0  0  0  0  0  0  0  0  0
    3.4990   14.6120   45.1980 C   0  0  0  0  0  0  0  0  0  0  0  0
    4.7920   12.7550   44.0910 C   0  0  0  0  0  0  0  0  0  0  0  0
    4.2860   13.1910   42.9350 N   0  0  0  0  0  0  0  0  0  0  0  0
    4.6660   12.5130   41.8460 C   0  0  0  0  0  0  0  0  0  0  0  0
    4.2610   12.8020   40.5790 N   0  0  0  0  0  0  0  0  0  0  0  0
    4.7820   11.9870   39.6510 N   0  0  0  0  0  0  0  0  0  0  0  0
    5.5550   11.1470   40.3560 C   0  0  0  0  0  0  0  0  0  0  0  0
    6.2870   10.1080   39.5930 C   0  0  0  0  0  0  0  0  0  0  0  0
    5.5140   11.4200   41.7620 C   0  0  0  0  0  0  0  0  0  0  0  0
    6.0550   10.9420   42.9820 C   0  0  0  0  0  0  0  0  0  0  0  0
    6.9420    9.8520   43.1250 N   0  0  0  0  0  0  0  0  0  0  0  0
    6.3860    8.5150   42.8910 C   0  0  0  0  0  0  0  0  0  0  0  0
    7.3310    7.4580   43.5010 C   0  0  0  0  0  0  0  0  0  0  0  0
    8.7430    7.6570   42.9910 N   0  0  0  0  0  0  0  0  0  0  0  0
    9.2660    9.0530   43.2580 C   0  0  0  0  0  0  0  0  0  0  0  0
    8.3140   10.1120   42.6650 C   0  0  0  0  0  0  0  0  0  0  0  0
    5.6690   11.6480   44.1760 C   0  0  0  0  0  0  0  0  0  0  0  0
    6.1380   11.2630   45.4540 C   0  0  0  0  0  0  0  0  0  0  0  0
    6.8141    9.6913   48.7718 H   0  0  0  0  0  0  0  0  0  0  0  0
    5.9425    9.4731   47.2164 H   0  0  0  0  0  0  0  0  0  0  0  0
    7.6715    9.9599   47.2164 H   0  0  0  0  0  0  0  0  0  0  0  0
    4.6254   13.5696   47.4277 H   0  0  0  0  0  0  0  0  0  0  0  0
    3.2434   14.9364   46.2175 H   0  0  0  0  0  0  0  0  0  0  0  0
    3.9922   15.4372   44.6635 H   0  0  0  0  0  0  0  0  0  0  0  0
    2.5813   14.3255   44.6635 H   0  0  0  0  0  0  0  0  0  0  0  0
    3.6330   13.5440   40.2960 H   0  0  0  0  0  0  0  0  0  0  0  0
    6.7755    9.4146   40.2934 H   0  0  0  0  0  0  0  0  0  0  0  0
    5.5801    9.5519   38.9597 H   0  0  0  0  0  0  0  0  0  0  0  0
    7.0486   10.5865   38.9597 H   0  0  0  0  0  0  0  0  0  0  0  0
    5.3960    8.4403   43.3646 H   0  0  0  0  0  0  0  0  0  0  0  0
    6.2858    8.3407   41.8095 H   0  0  0  0  0  0  0  0  0  0  0  0
    7.3242    7.5546   44.5967 H   0  0  0  0  0  0  0  0  0  0  0  0
    6.9832    6.4563   43.2083 H   0  0  0  0  0  0  0  0  0  0  0  0
    9.3640    6.9710   43.4360 H   0  0  0  0  0  0  0  0  0  0  0  0
    8.7700    7.4720   41.9810 H   0  0  0  0  0  0  0  0  0  0  0  0
    9.3468    9.2072   44.3441 H   0  0  0  0  0  0  0  0  0  0  0  0
   10.2531    9.1585   42.7843 H   0  0  0  0  0  0  0  0  0  0  0  0
    8.6278   11.1131   42.9957 H   0  0  0  0  0  0  0  0  0  0  0  0
    8.3478   10.0606   41.5667 H   0  0  0  0  0  0  0  0  0  0  0  0
    6.8146   10.3991   45.5306 H   0  0  0  0  0  0  0  0  0  0  0  0
  1  2  1  0
  2  3  1  0
  3  4  2  0
  4  5  1  0
  5  6  1  0
  5  7  2  0
  7  8  1  0
  8  9  2  0
  9 10  1  0
 10 11  1  0
 11 12  2  0
 12 13  1  0
 12 14  1  0
 14 15  2  0
 15 16  1  0
 16 17  1  0
 17 18  1  0
 18 19  1  0
 19 20  1  0
 20 21  1  0
 15 22  1  0
 22 23  2  0
 23  3  1  0
 22  7  1  0
 14  9  1  0
 21 16  1  0
  1 24  1  0
  1 25  1  0
  1 26  1  0
  4 27  1  0
  6 28  1  0
  6 29  1  0
  6 30  1  0
 10 31  1  0
 13 32  1  0
 13 33  1  0
 13 34  1  0
 17 35  1  0
 17 36  1  0
 18 37  1  0
 18 38  1  0
 19 39  1  0
 19 40  1  0
 20 41  1  0
 20 42  1  0
 21 43  1  0
 21 44  1  0
 23 45  1  0
M  CHG  1  19   1
M  END
>  <meeko>  (9) 
{"is_sidechain": [false], "free_energy": -6.697, "intermolecular_energy": -7.475, "internal_energy": -0.515}

$$$$
