3uo4_ligand
     RDKit          3D

 46 49  0  0  0  0  0  0  0  0999 V2000
    9.5180   27.5340   11.1340 O   0  0  0  0  0  0  0  0  0  0  0  0
    9.0250   26.5100   10.5640 C   0  0  0  0  0  0  0  0  0  0  0  0
    8.7850   25.3910   11.1210 O   0  0  0  0  0  0  0  0  0  0  0  0
    8.6930   26.6300    9.0880 C   0  0  0  0  0  0  0  0  0  0  0  0
    9.1420   25.6780    8.1620 C   0  0  0  0  0  0  0  0  0  0  0  0
    8.8360   25.7900    6.7980 C   0  0  0  0  0  0  0  0  0  0  0  0
    8.0730   26.8550    6.3130 C   0  0  0  0  0  0  0  0  0  0  0  0
    7.7280   27.0250    4.9670 N   0  0  0  0  0  0  0  0  0  0  0  0
    6.9790   27.9640    4.2650 C   0  0  0  0  0  0  0  0  0  0  0  0
    7.3120   28.3680    3.0320 N   0  0  0  0  0  0  0  0  0  0  0  0
    6.5210   29.2780    2.4480 C   0  0  0  0  0  0  0  0  0  0  0  0
    5.4120   29.8080    3.0510 C   0  0  0  0  0  0  0  0  0  0  0  0
    5.1300   29.3510    4.3220 C   0  0  0  0  0  0  0  0  0  0  0  0
    3.9840   29.8800    4.9670 N   0  0  0  0  0  0  0  0  0  0  0  0
    3.8840   30.3910    6.2890 C   0  0  0  0  0  0  0  0  0  0  0  0
    4.3850   29.6630    7.3820 C   0  0  0  0  0  0  0  0  0  0  0  0
    4.2390   30.1250    8.6930 C   0  0  0  0  0  0  0  0  0  0  0  0
    3.5700   31.3180    8.9380 C   0  0  0  0  0  0  0  0  0  0  0  0
    3.0420   32.0450    7.8730 C   0  0  0  0  0  0  0  0  0  0  0  0
    3.1810   31.5960    6.5460 C   0  0  0  0  0  0  0  0  0  0  0  0
    2.6050   32.4100    5.4640 C   0  0  0  0  0  0  0  0  0  0  0  0
    1.4430   33.1660    5.6760 C   0  0  0  0  0  0  0  0  0  0  0  0
    0.8880   33.9240    4.6420 C   0  0  0  0  0  0  0  0  0  0  0  0
    1.4900   33.9340    3.3850 C   0  0  0  0  0  0  0  0  0  0  0  0
    2.6460   33.1890    3.1600 C   0  0  0  0  0  0  0  0  0  0  0  0
    3.2000   32.4330    4.1930 C   0  0  0  0  0  0  0  0  0  0  0  0
    5.9040   28.4300    4.9210 N   0  0  0  0  0  0  0  0  0  0  0  0
    7.6210   27.8050    7.2430 C   0  0  0  0  0  0  0  0  0  0  0  0
    7.9260   27.6970    8.6060 C   0  0  0  0  0  0  0  0  0  0  0  0
    9.7455   24.8274    8.5118 H   0  0  0  0  0  0  0  0  0  0  0  0
    9.2033   25.0256    6.0975 H   0  0  0  0  0  0  0  0  0  0  0  0
    8.0440   26.3100    4.3300 H   0  0  0  0  0  0  0  0  0  0  0  0
    6.7754   29.6164    1.4327 H   0  0  0  0  0  0  0  0  0  0  0  0
    4.7808   30.5567    2.5500 H   0  0  0  0  0  0  0  0  0  0  0  0
    3.4660   30.4530    4.3080 H   0  0  0  0  0  0  0  0  0  0  0  0
    4.9030   28.7095    7.2018 H   0  0  0  0  0  0  0  0  0  0  0  0
    4.6535   29.5445    9.5304 H   0  0  0  0  0  0  0  0  0  0  0  0
    3.4577   31.6869    9.9682 H   0  0  0  0  0  0  0  0  0  0  0  0
    2.5076   32.9855    8.0725 H   0  0  0  0  0  0  0  0  0  0  0  0
    0.9639   33.1621    6.6662 H   0  0  0  0  0  0  0  0  0  0  0  0
   -0.0239   34.5128    4.8199 H   0  0  0  0  0  0  0  0  0  0  0  0
    1.0526   34.5300    2.5705 H   0  0  0  0  0  0  0  0  0  0  0  0
    3.1214   33.1971    2.1681 H   0  0  0  0  0  0  0  0  0  0  0  0
    4.1135   31.8483    4.0095 H   0  0  0  0  0  0  0  0  0  0  0  0
    7.0138   28.6530    6.8935 H   0  0  0  0  0  0  0  0  0  0  0  0
    7.5578   28.4608    9.3067 H   0  0  0  0  0  0  0  0  0  0  0  0
  1  2  2  0
  2  3  1  0
  2  4  1  0
  4  5  2  0
  5  6  1  0
  6  7  2  0
  7  8  1  0
  8  9  1  0
  9 10  2  0
 10 11  1  0
 11 12  2  0
 12 13  1  0
 13 14  1  0
 14 15  1  0
 15 16  2  0
 16 17  1  0
 17 18  2  0
 18 19  1  0
 19 20  2  0
 20 21  1  0
 21 22  2  0
 22 23  1  0
 23 24  2  0
 24 25  1  0
 25 26  2  0
 13 27  2  0
  7 28  1  0
 28 29  2  0
 29  4  1  0
 27  9  1  0
 20 15  1  0
 26 21  1  0
  5 30  1  0
  6 31  1  0
  8 32  1  0
 11 33  1  0
 12 34  1  0
 14 35  1  0
 16 36  1  0
 17 37  1  0
 18 38  1  0
 19 39  1  0
 22 40  1  0
 23 41  1  0
 24 42  1  0
 25 43  1  0
 26 44  1  0
 28 45  1  0
 29 46  1  0
M  CHG  1   3  -1
M  END
>  <meeko>  (1) 
{"is_sidechain": [false], "free_energy": -10.78, "intermolecular_energy": -14.561, "internal_energy": -0.047}

$$$$
3uo4_ligand
     RDKit          3D

 46 49  0  0  0  0  0  0  0  0999 V2000
    2.2330   33.4510    0.7380 O   0  0  0  0  0  0  0  0  0  0  0  0
    1.3630   33.6650    1.6400 C   0  0  0  0  0  0  0  0  0  0  0  0
    0.1870   34.1120    1.4480 O   0  0  0  0  0  0  0  0  0  0  0  0
    1.7600   33.3620    3.0720 C   0  0  0  0  0  0  0  0  0  0  0  0
    2.9710   32.7230    3.3710 C   0  0  0  0  0  0  0  0  0  0  0  0
    3.3370   32.4410    4.6960 C   0  0  0  0  0  0  0  0  0  0  0  0
    2.5070   32.7870    5.7650 C   0  0  0  0  0  0  0  0  0  0  0  0
    2.8120   32.5380    7.1090 N   0  0  0  0  0  0  0  0  0  0  0  0
    3.4370   31.4990    7.7890 C   0  0  0  0  0  0  0  0  0  0  0  0
    3.4020   31.3930    9.1230 N   0  0  0  0  0  0  0  0  0  0  0  0
    4.0400   30.3530    9.6760 C   0  0  0  0  0  0  0  0  0  0  0  0
    4.7210   29.4150    8.9470 C   0  0  0  0  0  0  0  0  0  0  0  0
    4.7200   29.5860    7.5780 C   0  0  0  0  0  0  0  0  0  0  0  0
    5.4140   28.6260    6.7990 N   0  0  0  0  0  0  0  0  0  0  0  0
    6.3980   28.8580    5.8000 C   0  0  0  0  0  0  0  0  0  0  0  0
    6.0690   29.5190    4.6050 C   0  0  0  0  0  0  0  0  0  0  0  0
    7.0120   29.6990    3.5900 C   0  0  0  0  0  0  0  0  0  0  0  0
    8.3010   29.2020    3.7430 C   0  0  0  0  0  0  0  0  0  0  0  0
    8.6440   28.5200    4.9080 C   0  0  0  0  0  0  0  0  0  0  0  0
    7.7070   28.3300    5.9430 C   0  0  0  0  0  0  0  0  0  0  0  0
    8.1310   27.6060    7.1510 C   0  0  0  0  0  0  0  0  0  0  0  0
    8.0690   28.2170    8.4110 C   0  0  0  0  0  0  0  0  0  0  0  0
    8.4880   27.5330    9.5550 C   0  0  0  0  0  0  0  0  0  0  0  0
    8.9730   26.2310    9.4510 C   0  0  0  0  0  0  0  0  0  0  0  0
    9.0380   25.6100    8.2040 C   0  0  0  0  0  0  0  0  0  0  0  0
    8.6190   26.2930    7.0620 C   0  0  0  0  0  0  0  0  0  0  0  0
    4.0770   30.6170    7.0030 N   0  0  0  0  0  0  0  0  0  0  0  0
    1.2960   33.4300    5.4640 C   0  0  0  0  0  0  0  0  0  0  0  0
    0.9270   33.7120    4.1420 C   0  0  0  0  0  0  0  0  0  0  0  0
    3.6471   32.4372    2.5518 H   0  0  0  0  0  0  0  0  0  0  0  0
    4.2947   31.9384    4.8965 H   0  0  0  0  0  0  0  0  0  0  0  0
    2.4950   33.2260    7.7740 H   0  0  0  0  0  0  0  0  0  0  0  0
    4.0156   30.2472   10.7706 H   0  0  0  0  0  0  0  0  0  0  0  0
    5.2401   28.5719    9.4263 H   0  0  0  0  0  0  0  0  0  0  0  0
    5.6610   27.8360    7.3870 H   0  0  0  0  0  0  0  0  0  0  0  0
    5.0476   29.9029    4.4655 H   0  0  0  0  0  0  0  0  0  0  0  0
    6.7344   30.2340    2.6698 H   0  0  0  0  0  0  0  0  0  0  0  0
    9.0469   29.3466    2.9476 H   0  0  0  0  0  0  0  0  0  0  0  0
    9.6635   28.1230    5.0220 H   0  0  0  0  0  0  0  0  0  0  0  0
    7.6869   29.2447    8.5000 H   0  0  0  0  0  0  0  0  0  0  0  0
    8.4349   28.0228   10.5385 H   0  0  0  0  0  0  0  0  0  0  0  0
    9.3043   25.6934   10.3517 H   0  0  0  0  0  0  0  0  0  0  0  0
    9.4196   24.5817    8.1209 H   0  0  0  0  0  0  0  0  0  0  0  0
    8.6716   25.7973    6.0814 H   0  0  0  0  0  0  0  0  0  0  0  0
    0.6220   33.7188    6.2839 H   0  0  0  0  0  0  0  0  0  0  0  0
   -0.0304   34.2153    3.9418 H   0  0  0  0  0  0  0  0  0  0  0  0
  1  2  2  0
  2  3  1  0
  2  4  1  0
  4  5  2  0
  5  6  1  0
  6  7  2  0
  7  8  1  0
  8  9  1  0
  9 10  2  0
 10 11  1  0
 11 12  2  0
 12 13  1  0
 13 14  1  0
 14 15  1  0
 15 16  2  0
 16 17  1  0
 17 18  2  0
 18 19  1  0
 19 20  2  0
 20 21  1  0
 21 22  2  0
 22 23  1  0
 23 24  2  0
 24 25  1  0
 25 26  2  0
 13 27  2  0
  7 28  1  0
 28 29  2  0
 29  4  1  0
 27  9  1  0
 20 15  1  0
 26 21  1  0
  5 30  1  0
  6 31  1  0
  8 32  1  0
 11 33  1  0
 12 34  1  0
 14 35  1  0
 16 36  1  0
 17 37  1  0
 18 38  1  0
 19 39  1  0
 22 40  1  0
 23 41  1  0
 24 42  1  0
 25 43  1  0
 26 44  1  0
 28 45  1  0
 29 46  1  0
M  CHG  1   3  -1
M  END
>  <meeko>  (2) 
{"is_sidechain": [false], "free_energy": -10.755, "intermolecular_energy": -13.942, "internal_energy": -0.633}

$$$$
3uo4_ligand
     RDKit          3D

 46 49  0  0  0  0  0  0  0  0999 V2000
    1.1890   32.4450    0.7590 O   0  0  0  0  0  0  0  0  0  0  0  0
    0.9390   33.3390    1.6280 C   0  0  0  0  0  0  0  0  0  0  0  0
    0.1890   34.3520    1.4580 O   0  0  0  0  0  0  0  0  0  0  0  0
    1.5930   33.1850    2.9880 C   0  0  0  0  0  0  0  0  0  0  0  0
    2.8810   32.6480    3.1190 C   0  0  0  0  0  0  0  0  0  0  0  0
    3.4840   32.5050    4.3770 C   0  0  0  0  0  0  0  0  0  0  0  0
    2.8230   32.8910    5.5450 C   0  0  0  0  0  0  0  0  0  0  0  0
    3.3670   32.7780    6.8300 N   0  0  0  0  0  0  0  0  0  0  0  0
    3.7040   31.7100    7.6550 C   0  0  0  0  0  0  0  0  0  0  0  0
    3.4610   31.7190    8.9720 N   0  0  0  0  0  0  0  0  0  0  0  0
    3.8280   30.6380    9.6730 C   0  0  0  0  0  0  0  0  0  0  0  0
    4.4380   29.5480    9.1100 C   0  0  0  0  0  0  0  0  0  0  0  0
    4.6610   29.6070    7.7500 C   0  0  0  0  0  0  0  0  0  0  0  0
    5.2860   28.4900    7.1420 N   0  0  0  0  0  0  0  0  0  0  0  0
    6.6740   28.1870    7.0880 C   0  0  0  0  0  0  0  0  0  0  0  0
    7.4040   27.9430    8.2630 C   0  0  0  0  0  0  0  0  0  0  0  0
    8.7800   27.7040    8.2290 C   0  0  0  0  0  0  0  0  0  0  0  0
    9.4590   27.7250    7.0170 C   0  0  0  0  0  0  0  0  0  0  0  0
    8.7620   27.9920    5.8400 C   0  0  0  0  0  0  0  0  0  0  0  0
    7.3740   28.2320    5.8550 C   0  0  0  0  0  0  0  0  0  0  0  0
    6.6930   28.5030    4.5790 C   0  0  0  0  0  0  0  0  0  0  0  0
    6.3470   27.4540    3.7150 C   0  0  0  0  0  0  0  0  0  0  0  0
    5.7160   27.7140    2.4970 C   0  0  0  0  0  0  0  0  0  0  0  0
    5.4250   29.0260    2.1280 C   0  0  0  0  0  0  0  0  0  0  0  0
    5.7620   30.0790    2.9780 C   0  0  0  0  0  0  0  0  0  0  0  0
    6.3910   29.8180    4.1950 C   0  0  0  0  0  0  0  0  0  0  0  0
    4.2900   30.6780    7.0270 N   0  0  0  0  0  0  0  0  0  0  0  0
    1.5340   33.4310    5.4120 C   0  0  0  0  0  0  0  0  0  0  0  0
    0.9280   33.5750    4.1570 C   0  0  0  0  0  0  0  0  0  0  0  0
    3.4288   32.3330    2.2186 H   0  0  0  0  0  0  0  0  0  0  0  0
    4.4966   32.0808    4.4450 H   0  0  0  0  0  0  0  0  0  0  0  0
    3.5380   33.6420    7.3210 H   0  0  0  0  0  0  0  0  0  0  0  0
    3.6297   30.6248   10.7549 H   0  0  0  0  0  0  0  0  0  0  0  0
    4.7335   28.6742    9.7093 H   0  0  0  0  0  0  0  0  0  0  0  0
    4.7320   27.6590    7.3230 H   0  0  0  0  0  0  0  0  0  0  0  0
    6.8810   27.9400    9.2307 H   0  0  0  0  0  0  0  0  0  0  0  0
    9.3259   27.4992    9.1618 H   0  0  0  0  0  0  0  0  0  0  0  0
   10.5415   27.5318    6.9866 H   0  0  0  0  0  0  0  0  0  0  0  0
    9.3047   28.0157    4.8835 H   0  0  0  0  0  0  0  0  0  0  0  0
    6.5750   26.4162    3.9997 H   0  0  0  0  0  0  0  0  0  0  0  0
    5.4484   26.8827    1.8282 H   0  0  0  0  0  0  0  0  0  0  0  0
    4.9300   29.2308    1.1673 H   0  0  0  0  0  0  0  0  0  0  0  0
    5.5318   31.1150    2.6886 H   0  0  0  0  0  0  0  0  0  0  0  0
    6.6533   30.6529    4.8615 H   0  0  0  0  0  0  0  0  0  0  0  0
    0.9879   33.7480    6.3127 H   0  0  0  0  0  0  0  0  0  0  0  0
   -0.0842   34.0003    4.0890 H   0  0  0  0  0  0  0  0  0  0  0  0
  1  2  2  0
  2  3  1  0
  2  4  1  0
  4  5  2  0
  5  6  1  0
  6  7  2  0
  7  8  1  0
  8  9  1  0
  9 10  2  0
 10 11  1  0
 11 12  2  0
 12 13  1  0
 13 14  1  0
 14 15  1  0
 15 16  2  0
 16 17  1  0
 17 18  2  0
 18 19  1  0
 19 20  2  0
 20 21  1  0
 21 22  2  0
 22 23  1  0
 23 24  2  0
 24 25  1  0
 25 26  2  0
 13 27  2  0
  7 28  1  0
 28 29  2  0
 29  4  1  0
 27  9  1  0
 20 15  1  0
 26 21  1  0
  5 30  1  0
  6 31  1  0
  8 32  1  0
 11 33  1  0
 12 34  1  0
 14 35  1  0
 16 36  1  0
 17 37  1  0
 18 38  1  0
 19 39  1  0
 22 40  1  0
 23 41  1  0
 24 42  1  0
 25 43  1  0
 26 44  1  0
 28 45  1  0
 29 46  1  0
M  CHG  1   3  -1
M  END
>  <meeko>  (3) 
{"is_sidechain": [false], "free_energy": -10.665, "intermolecular_energy": -13.1, "internal_energy": -1.352}

$$$$
3uo4_ligand
     RDKit          3D

 46 49  0  0  0  0  0  0  0  0999 V2000
    9.3800   27.5250   11.2130 O   0  0  0  0  0  0  0  0  0  0  0  0
    8.9860   26.5150   10.5500 C   0  0  0  0  0  0  0  0  0  0  0  0
    8.8060   25.3440   11.0150 O   0  0  0  0  0  0  0  0  0  0  0  0
    8.7030   26.7210    9.0740 C   0  0  0  0  0  0  0  0  0  0  0  0
    9.1200   25.7850    8.1160 C   0  0  0  0  0  0  0  0  0  0  0  0
    8.8600   25.9770    6.7520 C   0  0  0  0  0  0  0  0  0  0  0  0
    8.1770   27.1070    6.2970 C   0  0  0  0  0  0  0  0  0  0  0  0
    7.8820   27.3580    4.9510 N   0  0  0  0  0  0  0  0  0  0  0  0
    6.8150   27.9480    4.2830 C   0  0  0  0  0  0  0  0  0  0  0  0
    6.1010   27.2940    3.3570 N   0  0  0  0  0  0  0  0  0  0  0  0
    5.0950   27.9580    2.7720 C   0  0  0  0  0  0  0  0  0  0  0  0
    4.7770   29.2560    3.0710 C   0  0  0  0  0  0  0  0  0  0  0  0
    5.5550   29.8710    4.0310 C   0  0  0  0  0  0  0  0  0  0  0  0
    5.2430   31.2130    4.3630 N   0  0  0  0  0  0  0  0  0  0  0  0
    3.9750   31.8530    4.3110 C   0  0  0  0  0  0  0  0  0  0  0  0
    3.5340   32.4840    3.1350 C   0  0  0  0  0  0  0  0  0  0  0  0
    2.3170   33.1690    3.0900 C   0  0  0  0  0  0  0  0  0  0  0  0
    1.5240   33.2530    4.2280 C   0  0  0  0  0  0  0  0  0  0  0  0
    1.9510   32.6580    5.4130 C   0  0  0  0  0  0  0  0  0  0  0  0
    3.1740   31.9620    5.4770 C   0  0  0  0  0  0  0  0  0  0  0  0
    3.5690   31.3500    6.7550 C   0  0  0  0  0  0  0  0  0  0  0  0
    4.0140   30.0210    6.8070 C   0  0  0  0  0  0  0  0  0  0  0  0
    4.3720   29.4370    8.0240 C   0  0  0  0  0  0  0  0  0  0  0  0
    4.2890   30.1750    9.2030 C   0  0  0  0  0  0  0  0  0  0  0  0
    3.8500   31.4980    9.1670 C   0  0  0  0  0  0  0  0  0  0  0  0
    3.4940   32.0820    7.9510 C   0  0  0  0  0  0  0  0  0  0  0  0
    6.5610   29.2190    4.6370 N   0  0  0  0  0  0  0  0  0  0  0  0
    7.7580   28.0410    7.2570 C   0  0  0  0  0  0  0  0  0  0  0  0
    8.0160   27.8540    8.6210 C   0  0  0  0  0  0  0  0  0  0  0  0
    9.6609   24.8840    8.4410 H   0  0  0  0  0  0  0  0  0  0  0  0
    9.2003   25.2235    6.0264 H   0  0  0  0  0  0  0  0  0  0  0  0
    8.5510   27.0210    4.2760 H   0  0  0  0  0  0  0  0  0  0  0  0
    4.4945   27.4343    2.0136 H   0  0  0  0  0  0  0  0  0  0  0  0
    3.9473   29.7796    2.5735 H   0  0  0  0  0  0  0  0  0  0  0  0
    5.7590   31.4790    5.1950 H   0  0  0  0  0  0  0  0  0  0  0  0
    4.1598   32.4376    2.2316 H   0  0  0  0  0  0  0  0  0  0  0  0
    1.9865   33.6419    2.1534 H   0  0  0  0  0  0  0  0  0  0  0  0
    0.5630   33.7871    4.1933 H   0  0  0  0  0  0  0  0  0  0  0  0
    1.3231   32.7329    6.3131 H   0  0  0  0  0  0  0  0  0  0  0  0
    4.0817   29.4328    5.8800 H   0  0  0  0  0  0  0  0  0  0  0  0
    4.7197   28.3938    8.0519 H   0  0  0  0  0  0  0  0  0  0  0  0
    4.5696   29.7142   10.1616 H   0  0  0  0  0  0  0  0  0  0  0  0
    3.7844   32.0812   10.0973 H   0  0  0  0  0  0  0  0  0  0  0  0
    3.1509   33.1269    7.9289 H   0  0  0  0  0  0  0  0  0  0  0  0
    7.2147   28.9402    6.9310 H   0  0  0  0  0  0  0  0  0  0  0  0
    7.6743   28.6073    9.3461 H   0  0  0  0  0  0  0  0  0  0  0  0
  1  2  2  0
  2  3  1  0
  2  4  1  0
  4  5  2  0
  5  6  1  0
  6  7  2  0
  7  8  1  0
  8  9  1  0
  9 10  2  0
 10 11  1  0
 11 12  2  0
 12 13  1  0
 13 14  1  0
 14 15  1  0
 15 16  2  0
 16 17  1  0
 17 18  2  0
 18 19  1  0
 19 20  2  0
 20 21  1  0
 21 22  2  0
 22 23  1  0
 23 24  2  0
 24 25  1  0
 25 26  2  0
 13 27  2  0
  7 28  1  0
 28 29  2  0
 29  4  1  0
 27  9  1  0
 20 15  1  0
 26 21  1  0
  5 30  1  0
  6 31  1  0
  8 32  1  0
 11 33  1  0
 12 34  1  0
 14 35  1  0
 16 36  1  0
 17 37  1  0
 18 38  1  0
 19 39  1  0
 22 40  1  0
 23 41  1  0
 24 42  1  0
 25 43  1  0
 26 44  1  0
 28 45  1  0
 29 46  1  0
M  CHG  1   3  -1
M  END
>  <meeko>  (4) 
{"is_sidechain": [false], "free_energy": -10.61, "intermolecular_energy": -13.859, "internal_energy": -0.521}

$$$$
3uo4_ligand
     RDKit          3D

 46 49  0  0  0  0  0  0  0  0999 V2000
    9.4950   24.9510    8.4270 O   0  0  0  0  0  0  0  0  0  0  0  0
    9.3460   26.2130    8.4800 C   0  0  0  0  0  0  0  0  0  0  0  0
    9.2970   26.9120    9.5410 O   0  0  0  0  0  0  0  0  0  0  0  0
    9.2140   26.9510    7.1610 C   0  0  0  0  0  0  0  0  0  0  0  0
    9.6150   28.2880    7.0330 C   0  0  0  0  0  0  0  0  0  0  0  0
    9.4920   28.9710    5.8140 C   0  0  0  0  0  0  0  0  0  0  0  0
    8.9640   28.3440    4.6840 C   0  0  0  0  0  0  0  0  0  0  0  0
    8.8160   28.9650    3.4370 N   0  0  0  0  0  0  0  0  0  0  0  0
    7.7270   29.3820    2.6810 C   0  0  0  0  0  0  0  0  0  0  0  0
    7.8360   29.7040    1.3850 N   0  0  0  0  0  0  0  0  0  0  0  0
    6.7220   30.0950    0.7520 C   0  0  0  0  0  0  0  0  0  0  0  0
    5.5010   30.1860    1.3650 C   0  0  0  0  0  0  0  0  0  0  0  0
    5.4600   29.8430    2.7010 C   0  0  0  0  0  0  0  0  0  0  0  0
    4.2070   29.9230    3.3580 N   0  0  0  0  0  0  0  0  0  0  0  0
    3.5390   31.0880    3.8240 C   0  0  0  0  0  0  0  0  0  0  0  0
    2.9690   32.0020    2.9220 C   0  0  0  0  0  0  0  0  0  0  0  0
    2.3620   33.1800    3.3640 C   0  0  0  0  0  0  0  0  0  0  0  0
    2.3310   33.4780    4.7210 C   0  0  0  0  0  0  0  0  0  0  0  0
    2.9130   32.6000    5.6340 C   0  0  0  0  0  0  0  0  0  0  0  0
    3.5270   31.4070    5.2070 C   0  0  0  0  0  0  0  0  0  0  0  0
    4.1190   30.5190    6.2190 C   0  0  0  0  0  0  0  0  0  0  0  0
    3.5650   30.4260    7.5030 C   0  0  0  0  0  0  0  0  0  0  0  0
    4.1390   29.5950    8.4680 C   0  0  0  0  0  0  0  0  0  0  0  0
    5.2740   28.8490    8.1590 C   0  0  0  0  0  0  0  0  0  0  0  0
    5.8350   28.9290    6.8850 C   0  0  0  0  0  0  0  0  0  0  0  0
    5.2600   29.7580    5.9220 C   0  0  0  0  0  0  0  0  0  0  0  0
    6.5640   29.4370    3.3510 N   0  0  0  0  0  0  0  0  0  0  0  0
    8.5660   27.0030    4.8130 C   0  0  0  0  0  0  0  0  0  0  0  0
    8.6870   26.3190    6.0280 C   0  0  0  0  0  0  0  0  0  0  0  0
   10.0341   28.8115    7.9050 H   0  0  0  0  0  0  0  0  0  0  0  0
    9.8175   30.0196    5.7473 H   0  0  0  0  0  0  0  0  0  0  0  0
    9.6640   29.1360    2.9190 H   0  0  0  0  0  0  0  0  0  0  0  0
    6.7917   30.3562   -0.3143 H   0  0  0  0  0  0  0  0  0  0  0  0
    4.6023   30.5144    0.8224 H   0  0  0  0  0  0  0  0  0  0  0  0
    3.5600   29.2740    2.9220 H   0  0  0  0  0  0  0  0  0  0  0  0
    3.0014   31.7853    1.8441 H   0  0  0  0  0  0  0  0  0  0  0  0
    1.9088   33.8713    2.6383 H   0  0  0  0  0  0  0  0  0  0  0  0
    1.8495   34.4023    5.0730 H   0  0  0  0  0  0  0  0  0  0  0  0
    2.8922   32.8434    6.7065 H   0  0  0  0  0  0  0  0  0  0  0  0
    2.6692   31.0133    7.7534 H   0  0  0  0  0  0  0  0  0  0  0  0
    3.6946   29.5297    9.4721 H   0  0  0  0  0  0  0  0  0  0  0  0
    5.7277   28.1969    8.9199 H   0  0  0  0  0  0  0  0  0  0  0  0
    6.7303   28.3388    6.6397 H   0  0  0  0  0  0  0  0  0  0  0  0
    5.7060   29.8160    4.9182 H   0  0  0  0  0  0  0  0  0  0  0  0
    8.1501   26.4790    3.9398 H   0  0  0  0  0  0  0  0  0  0  0  0
    8.3634   25.2697    6.0939 H   0  0  0  0  0  0  0  0  0  0  0  0
  1  2  2  0
  2  3  1  0
  2  4  1  0
  4  5  2  0
  5  6  1  0
  6  7  2  0
  7  8  1  0
  8  9  1  0
  9 10  2  0
 10 11  1  0
 11 12  2  0
 12 13  1  0
 13 14  1  0
 14 15  1  0
 15 16  2  0
 16 17  1  0
 17 18  2  0
 18 19  1  0
 19 20  2  0
 20 21  1  0
 21 22  2  0
 22 23  1  0
 23 24  2  0
 24 25  1  0
 25 26  2  0
 13 27  2  0
  7 28  1  0
 28 29  2  0
 29  4  1  0
 27  9  1  0
 20 15  1  0
 26 21  1  0
  5 30  1  0
  6 31  1  0
  8 32  1  0
 11 33  1  0
 12 34  1  0
 14 35  1  0
 16 36  1  0
 17 37  1  0
 18 38  1  0
 19 39  1  0
 22 40  1  0
 23 41  1  0
 24 42  1  0
 25 43  1  0
 26 44  1  0
 28 45  1  0
 29 46  1  0
M  CHG  1   3  -1
M  END
>  <meeko>  (5) 
{"is_sidechain": [false], "free_energy": -10.33, "intermolecular_energy": -13.555, "internal_energy": -0.446}

$$$$
3uo4_ligand
     RDKit          3D

 46 49  0  0  0  0  0  0  0  0999 V2000
    1.8190   33.5360    0.6710 O   0  0  0  0  0  0  0  0  0  0  0  0
    1.1180   33.9210    1.6590 C   0  0  0  0  0  0  0  0  0  0  0  0
    0.0460   34.6020    1.5900 O   0  0  0  0  0  0  0  0  0  0  0  0
    1.6000   33.5330    3.0440 C   0  0  0  0  0  0  0  0  0  0  0  0
    0.8780   33.8900    4.1920 C   0  0  0  0  0  0  0  0  0  0  0  0
    1.3250   33.5320    5.4720 C   0  0  0  0  0  0  0  0  0  0  0  0
    2.5060   32.8080    5.6510 C   0  0  0  0  0  0  0  0  0  0  0  0
    3.0060   32.4160    6.8980 N   0  0  0  0  0  0  0  0  0  0  0  0
    3.6790   31.2940    7.3680 C   0  0  0  0  0  0  0  0  0  0  0  0
    3.7200   30.9750    8.6680 N   0  0  0  0  0  0  0  0  0  0  0  0
    4.3990   29.8730    9.0120 C   0  0  0  0  0  0  0  0  0  0  0  0
    5.0490   29.0770    8.1060 C   0  0  0  0  0  0  0  0  0  0  0  0
    4.9700   29.4660    6.7840 C   0  0  0  0  0  0  0  0  0  0  0  0
    5.6300   28.6560    5.8260 N   0  0  0  0  0  0  0  0  0  0  0  0
    5.7910   28.9050    4.4360 C   0  0  0  0  0  0  0  0  0  0  0  0
    4.6920   28.8530    3.5620 C   0  0  0  0  0  0  0  0  0  0  0  0
    4.8480   29.0350    2.1850 C   0  0  0  0  0  0  0  0  0  0  0  0
    6.1120   29.2560    1.6520 C   0  0  0  0  0  0  0  0  0  0  0  0
    7.2210   29.2860    2.4950 C   0  0  0  0  0  0  0  0  0  0  0  0
    7.0830   29.1060    3.8850 C   0  0  0  0  0  0  0  0  0  0  0  0
    8.2910   29.1530    4.7230 C   0  0  0  0  0  0  0  0  0  0  0  0
    9.1990   28.0840    4.7340 C   0  0  0  0  0  0  0  0  0  0  0  0
   10.3360   28.1230    5.5440 C   0  0  0  0  0  0  0  0  0  0  0  0
   10.5780   29.2320    6.3520 C   0  0  0  0  0  0  0  0  0  0  0  0
    9.6860   30.3030    6.3510 C   0  0  0  0  0  0  0  0  0  0  0  0
    8.5510   30.2640    5.5410 C   0  0  0  0  0  0  0  0  0  0  0  0
    4.2840   30.5620    6.4180 N   0  0  0  0  0  0  0  0  0  0  0  0
    3.2250   32.4480    4.5000 C   0  0  0  0  0  0  0  0  0  0  0  0
    2.7830   32.8040    3.2200 C   0  0  0  0  0  0  0  0  0  0  0  0
   -0.0561   34.4613    4.0865 H   0  0  0  0  0  0  0  0  0  0  0  0
    0.7343   33.8270    6.3518 H   0  0  0  0  0  0  0  0  0  0  0  0
    2.8310   33.0430    7.6680 H   0  0  0  0  0  0  0  0  0  0  0  0
    4.4367   29.5930   10.0751 H   0  0  0  0  0  0  0  0  0  0  0  0
    5.6029   28.1782    8.4148 H   0  0  0  0  0  0  0  0  0  0  0  0
    6.4780   28.2780    6.2360 H   0  0  0  0  0  0  0  0  0  0  0  0
    3.6879   28.6651    3.9700 H   0  0  0  0  0  0  0  0  0  0  0  0
    3.9700   29.0033    1.5232 H   0  0  0  0  0  0  0  0  0  0  0  0
    6.2366   29.4066    0.5695 H   0  0  0  0  0  0  0  0  0  0  0  0
    8.2208   29.4530    2.0678 H   0  0  0  0  0  0  0  0  0  0  0  0
    9.0136   27.2058    4.0980 H   0  0  0  0  0  0  0  0  0  0  0  0
   11.0405   27.2782    5.5441 H   0  0  0  0  0  0  0  0  0  0  0  0
   11.4731   29.2623    6.9907 H   0  0  0  0  0  0  0  0  0  0  0  0
    9.8770   31.1787    6.9887 H   0  0  0  0  0  0  0  0  0  0  0  0
    7.8519   31.1132    5.5432 H   0  0  0  0  0  0  0  0  0  0  0  0
    4.1568   31.8732    4.6063 H   0  0  0  0  0  0  0  0  0  0  0  0
    3.3730   32.5070    2.3404 H   0  0  0  0  0  0  0  0  0  0  0  0
  1  2  2  0
  2  3  1  0
  2  4  1  0
  4  5  2  0
  5  6  1  0
  6  7  2  0
  7  8  1  0
  8  9  1  0
  9 10  2  0
 10 11  1  0
 11 12  2  0
 12 13  1  0
 13 14  1  0
 14 15  1  0
 15 16  2  0
 16 17  1  0
 17 18  2  0
 18 19  1  0
 19 20  2  0
 20 21  1  0
 21 22  2  0
 22 23  1  0
 23 24  2  0
 24 25  1  0
 25 26  2  0
 13 27  2  0
  7 28  1  0
 28 29  2  0
 29  4  1  0
 27  9  1  0
 20 15  1  0
 26 21  1  0
  5 30  1  0
  6 31  1  0
  8 32  1  0
 11 33  1  0
 12 34  1  0
 14 35  1  0
 16 36  1  0
 17 37  1  0
 18 38  1  0
 19 39  1  0
 22 40  1  0
 23 41  1  0
 24 42  1  0
 25 43  1  0
 26 44  1  0
 28 45  1  0
 29 46  1  0
M  CHG  1   3  -1
M  END
>  <meeko>  (6) 
{"is_sidechain": [false], "free_energy": -10.238, "intermolecular_energy": -13.064, "internal_energy": -0.812}

$$$$
3uo4_ligand
     RDKit          3D

 46 49  0  0  0  0  0  0  0  0999 V2000
    2.9220   32.4240    8.2240 O   0  0  0  0  0  0  0  0  0  0  0  0
    3.5200   31.3250    8.0000 C   0  0  0  0  0  0  0  0  0  0  0  0
    3.9030   30.4930    8.8830 O   0  0  0  0  0  0  0  0  0  0  0  0
    3.8010   30.9710    6.5510 C   0  0  0  0  0  0  0  0  0  0  0  0
    4.5840   29.8590    6.2130 C   0  0  0  0  0  0  0  0  0  0  0  0
    4.8440   29.5330    4.8740 C   0  0  0  0  0  0  0  0  0  0  0  0
    4.3340   30.3060    3.8290 C   0  0  0  0  0  0  0  0  0  0  0  0
    4.5520   30.0350    2.4730 N   0  0  0  0  0  0  0  0  0  0  0  0
    5.6260   30.2080    1.6070 C   0  0  0  0  0  0  0  0  0  0  0  0
    5.4790   30.7160    0.3760 N   0  0  0  0  0  0  0  0  0  0  0  0
    6.5800   30.8380   -0.3770 C   0  0  0  0  0  0  0  0  0  0  0  0
    7.8270   30.4640    0.0500 C   0  0  0  0  0  0  0  0  0  0  0  0
    7.9060   29.9450    1.3260 C   0  0  0  0  0  0  0  0  0  0  0  0
    9.1860   29.5540    1.7930 N   0  0  0  0  0  0  0  0  0  0  0  0
    9.8490   28.3140    1.5900 C   0  0  0  0  0  0  0  0  0  0  0  0
   10.3320   27.9540    0.3200 C   0  0  0  0  0  0  0  0  0  0  0  0
   10.9300   26.7120    0.0930 C   0  0  0  0  0  0  0  0  0  0  0  0
   11.0410   25.7950    1.1310 C   0  0  0  0  0  0  0  0  0  0  0  0
   10.5470   26.1180    2.3940 C   0  0  0  0  0  0  0  0  0  0  0  0
    9.9420   27.3650    2.6410 C   0  0  0  0  0  0  0  0  0  0  0  0
    9.4440   27.6500    3.9960 C   0  0  0  0  0  0  0  0  0  0  0  0
   10.2520   28.3110    4.9320 C   0  0  0  0  0  0  0  0  0  0  0  0
    9.7840   28.5650    6.2230 C   0  0  0  0  0  0  0  0  0  0  0  0
    8.5030   28.1590    6.5920 C   0  0  0  0  0  0  0  0  0  0  0  0
    7.6880   27.5020    5.6720 C   0  0  0  0  0  0  0  0  0  0  0  0
    8.1560   27.2500    4.3820 C   0  0  0  0  0  0  0  0  0  0  0  0
    6.8150   29.8250    2.1000 N   0  0  0  0  0  0  0  0  0  0  0  0
    3.5470   31.4180    4.1700 C   0  0  0  0  0  0  0  0  0  0  0  0
    3.2850   31.7460    5.5060 C   0  0  0  0  0  0  0  0  0  0  0  0
    5.0024   29.2302    7.0127 H   0  0  0  0  0  0  0  0  0  0  0  0
    5.4610   28.6522    4.6428 H   0  0  0  0  0  0  0  0  0  0  0  0
    3.7690   29.6630    1.9590 H   0  0  0  0  0  0  0  0  0  0  0  0
    6.4780   31.2592   -1.3880 H   0  0  0  0  0  0  0  0  0  0  0  0
    8.7159   30.5715   -0.5890 H   0  0  0  0  0  0  0  0  0  0  0  0
    9.8270   30.3360    1.7020 H   0  0  0  0  0  0  0  0  0  0  0  0
   10.2371   28.6657   -0.5133 H   0  0  0  0  0  0  0  0  0  0  0  0
   11.3128   26.4601   -0.9070 H   0  0  0  0  0  0  0  0  0  0  0  0
   11.5166   24.8185    0.9570 H   0  0  0  0  0  0  0  0  0  0  0  0
   10.6313   25.3864    3.2111 H   0  0  0  0  0  0  0  0  0  0  0  0
   11.2645   28.6327    4.6466 H   0  0  0  0  0  0  0  0  0  0  0  0
   10.4264   29.0855    6.9485 H   0  0  0  0  0  0  0  0  0  0  0  0
    8.1351   28.3571    7.6095 H   0  0  0  0  0  0  0  0  0  0  0  0
    6.6764   27.1823    5.9627 H   0  0  0  0  0  0  0  0  0  0  0  0
    7.5079   26.7320    3.6597 H   0  0  0  0  0  0  0  0  0  0  0  0
    3.1270   32.0453    3.3699 H   0  0  0  0  0  0  0  0  0  0  0  0
    2.6652   32.6248    5.7373 H   0  0  0  0  0  0  0  0  0  0  0  0
  1  2  2  0
  2  3  1  0
  2  4  1  0
  4  5  2  0
  5  6  1  0
  6  7  2  0
  7  8  1  0
  8  9  1  0
  9 10  2  0
 10 11  1  0
 11 12  2  0
 12 13  1  0
 13 14  1  0
 14 15  1  0
 15 16  2  0
 16 17  1  0
 17 18  2  0
 18 19  1  0
 19 20  2  0
 20 21  1  0
 21 22  2  0
 22 23  1  0
 23 24  2  0
 24 25  1  0
 25 26  2  0
 13 27  2  0
  7 28  1  0
 28 29  2  0
 29  4  1  0
 27  9  1  0
 20 15  1  0
 26 21  1  0
  5 30  1  0
  6 31  1  0
  8 32  1  0
 11 33  1  0
 12 34  1  0
 14 35  1  0
 16 36  1  0
 17 37  1  0
 18 38  1  0
 19 39  1  0
 22 40  1  0
 23 41  1  0
 24 42  1  0
 25 43  1  0
 26 44  1  0
 28 45  1  0
 29 46  1  0
M  CHG  1   3  -1
M  END
>  <meeko>  (7) 
{"is_sidechain": [false], "free_energy": -9.895, "intermolecular_energy": -11.874, "internal_energy": -1.54}

$$$$
3uo4_ligand
     RDKit          3D

 46 49  0  0  0  0  0  0  0  0999 V2000
    9.6720   26.0180   10.0000 O   0  0  0  0  0  0  0  0  0  0  0  0
    9.1620   25.8270    8.8510 C   0  0  0  0  0  0  0  0  0  0  0  0
    9.5180   24.9340    8.0180 O   0  0  0  0  0  0  0  0  0  0  0  0
    8.0280   26.7450    8.4360 C   0  0  0  0  0  0  0  0  0  0  0  0
    6.9070   26.2530    7.7520 C   0  0  0  0  0  0  0  0  0  0  0  0
    5.8590   27.1010    7.3670 C   0  0  0  0  0  0  0  0  0  0  0  0
    5.8950   28.4690    7.6500 C   0  0  0  0  0  0  0  0  0  0  0  0
    4.8830   29.3700    7.2980 N   0  0  0  0  0  0  0  0  0  0  0  0
    4.5230   30.0180    6.1210 C   0  0  0  0  0  0  0  0  0  0  0  0
    3.8410   31.1710    6.1180 N   0  0  0  0  0  0  0  0  0  0  0  0
    3.5440   31.7090    4.9280 C   0  0  0  0  0  0  0  0  0  0  0  0
    3.8950   31.1340    3.7350 C   0  0  0  0  0  0  0  0  0  0  0  0
    4.5920   29.9460    3.8110 C   0  0  0  0  0  0  0  0  0  0  0  0
    4.9730   29.3330    2.5900 N   0  0  0  0  0  0  0  0  0  0  0  0
    5.8780   29.8250    1.6110 C   0  0  0  0  0  0  0  0  0  0  0  0
    5.4090   30.4710    0.4550 C   0  0  0  0  0  0  0  0  0  0  0  0
    6.2850   30.9050   -0.5430 C   0  0  0  0  0  0  0  0  0  0  0  0
    7.6500   30.6830   -0.4130 C   0  0  0  0  0  0  0  0  0  0  0  0
    8.1390   30.0210    0.7120 C   0  0  0  0  0  0  0  0  0  0  0  0
    7.2710   29.5790    1.7290 C   0  0  0  0  0  0  0  0  0  0  0  0
    7.8460   28.8900    2.8940 C   0  0  0  0  0  0  0  0  0  0  0  0
    8.2890   29.6170    4.0090 C   0  0  0  0  0  0  0  0  0  0  0  0
    8.8520   28.9630    5.1080 C   0  0  0  0  0  0  0  0  0  0  0  0
    8.9770   27.5750    5.1030 C   0  0  0  0  0  0  0  0  0  0  0  0
    8.5400   26.8390    4.0030 C   0  0  0  0  0  0  0  0  0  0  0  0
    7.9770   27.4930    2.9070 C   0  0  0  0  0  0  0  0  0  0  0  0
    4.9100   29.3960    4.9950 N   0  0  0  0  0  0  0  0  0  0  0  0
    7.0160   28.9600    8.3380 C   0  0  0  0  0  0  0  0  0  0  0  0
    8.0650   28.1150    8.7230 C   0  0  0  0  0  0  0  0  0  0  0  0
    6.8488   25.1809    7.5129 H   0  0  0  0  0  0  0  0  0  0  0  0
    4.9934   26.6822    6.8329 H   0  0  0  0  0  0  0  0  0  0  0  0
    4.2750   29.6740    8.0420 H   0  0  0  0  0  0  0  0  0  0  0  0
    2.9909   32.6596    4.9075 H   0  0  0  0  0  0  0  0  0  0  0  0
    3.6354   31.5941    2.7702 H   0  0  0  0  0  0  0  0  0  0  0  0
    5.0950   28.3370    2.7410 H   0  0  0  0  0  0  0  0  0  0  0  0
    4.3287   30.6387    0.3330 H   0  0  0  0  0  0  0  0  0  0  0  0
    5.8939   31.4224   -1.4315 H   0  0  0  0  0  0  0  0  0  0  0  0
    8.3424   31.0283   -1.1949 H   0  0  0  0  0  0  0  0  0  0  0  0
    9.2200   29.8410    0.8069 H   0  0  0  0  0  0  0  0  0  0  0  0
    8.1922   30.7127    4.0182 H   0  0  0  0  0  0  0  0  0  0  0  0
    9.1964   29.5434    5.9766 H   0  0  0  0  0  0  0  0  0  0  0  0
    9.4208   27.0600    5.9677 H   0  0  0  0  0  0  0  0  0  0  0  0
    8.6390   25.7435    3.9991 H   0  0  0  0  0  0  0  0  0  0  0  0
    7.6317   26.9067    2.0427 H   0  0  0  0  0  0  0  0  0  0  0  0
    7.0719   30.0316    8.5800 H   0  0  0  0  0  0  0  0  0  0  0  0
    8.9299   28.5337    9.2583 H   0  0  0  0  0  0  0  0  0  0  0  0
  1  2  2  0
  2  3  1  0
  2  4  1  0
  4  5  2  0
  5  6  1  0
  6  7  2  0
  7  8  1  0
  8  9  1  0
  9 10  2  0
 10 11  1  0
 11 12  2  0
 12 13  1  0
 13 14  1  0
 14 15  1  0
 15 16  2  0
 16 17  1  0
 17 18  2  0
 18 19  1  0
 19 20  2  0
 20 21  1  0
 21 22  2  0
 22 23  1  0
 23 24  2  0
 24 25  1  0
 25 26  2  0
 13 27  2  0
  7 28  1  0
 28 29  2  0
 29  4  1  0
 27  9  1  0
 20 15  1  0
 26 21  1  0
  5 30  1  0
  6 31  1  0
  8 32  1  0
 11 33  1  0
 12 34  1  0
 14 35  1  0
 16 36  1  0
 17 37  1  0
 18 38  1  0
 19 39  1  0
 22 40  1  0
 23 41  1  0
 24 42  1  0
 25 43  1  0
 26 44  1  0
 28 45  1  0
 29 46  1  0
M  CHG  1   3  -1
M  END
>  <meeko>  (8) 
{"is_sidechain": [false], "free_energy": -9.874, "intermolecular_energy": -11.19, "internal_energy": -2.195}

$$$$
3uo4_ligand
     RDKit          3D

 46 49  0  0  0  0  0  0  0  0999 V2000
    9.8380   29.0670    0.1360 O   0  0  0  0  0  0  0  0  0  0  0  0
    8.8940   28.7180   -0.6400 C   0  0  0  0  0  0  0  0  0  0  0  0
    8.9560   27.8030   -1.5230 O   0  0  0  0  0  0  0  0  0  0  0  0
    7.5750   29.4560   -0.5040 C   0  0  0  0  0  0  0  0  0  0  0  0
    7.5260   30.8560   -0.4640 C   0  0  0  0  0  0  0  0  0  0  0  0
    6.3080   31.5380   -0.3370 C   0  0  0  0  0  0  0  0  0  0  0  0
    5.0980   30.8460   -0.2450 C   0  0  0  0  0  0  0  0  0  0  0  0
    3.8470   31.4640   -0.1190 N   0  0  0  0  0  0  0  0  0  0  0  0
    3.1340   32.0110    0.9410 C   0  0  0  0  0  0  0  0  0  0  0  0
    1.8740   32.4460    0.8080 N   0  0  0  0  0  0  0  0  0  0  0  0
    1.2800   32.9580    1.8950 C   0  0  0  0  0  0  0  0  0  0  0  0
    1.9000   33.0590    3.1120 C   0  0  0  0  0  0  0  0  0  0  0  0
    3.1980   32.5960    3.1780 C   0  0  0  0  0  0  0  0  0  0  0  0
    3.8600   32.6850    4.4280 N   0  0  0  0  0  0  0  0  0  0  0  0
    3.5260   32.0250    5.6420 C   0  0  0  0  0  0  0  0  0  0  0  0
    2.7440   32.6650    6.6180 C   0  0  0  0  0  0  0  0  0  0  0  0
    2.4600   32.0510    7.8410 C   0  0  0  0  0  0  0  0  0  0  0  0
    2.9700   30.7890    8.1190 C   0  0  0  0  0  0  0  0  0  0  0  0
    3.7700   30.1440    7.1780 C   0  0  0  0  0  0  0  0  0  0  0  0
    4.0660   30.7470    5.9400 C   0  0  0  0  0  0  0  0  0  0  0  0
    4.9120   30.0150    4.9850 C   0  0  0  0  0  0  0  0  0  0  0  0
    4.3480   29.1040    4.0790 C   0  0  0  0  0  0  0  0  0  0  0  0
    5.1550   28.3970    3.1850 C   0  0  0  0  0  0  0  0  0  0  0  0
    6.5350   28.5920    3.1880 C   0  0  0  0  0  0  0  0  0  0  0  0
    7.1090   29.4950    4.0810 C   0  0  0  0  0  0  0  0  0  0  0  0
    6.3030   30.2020    4.9730 C   0  0  0  0  0  0  0  0  0  0  0  0
    3.8070   32.0690    2.1020 N   0  0  0  0  0  0  0  0  0  0  0  0
    5.1480   29.4440   -0.2880 C   0  0  0  0  0  0  0  0  0  0  0  0
    6.3640   28.7600   -0.4150 C   0  0  0  0  0  0  0  0  0  0  0  0
    8.4613   31.4307   -0.5336 H   0  0  0  0  0  0  0  0  0  0  0  0
    6.3049   32.6376   -0.3093 H   0  0  0  0  0  0  0  0  0  0  0  0
    3.2870   31.5130   -0.9560 H   0  0  0  0  0  0  0  0  0  0  0  0
    0.2433   33.3147    1.8052 H   0  0  0  0  0  0  0  0  0  0  0  0
    1.3910   33.4859    3.9888 H   0  0  0  0  0  0  0  0  0  0  0  0
    4.8630   32.6920    4.2740 H   0  0  0  0  0  0  0  0  0  0  0  0
    2.3468   33.6706    6.4154 H   0  0  0  0  0  0  0  0  0  0  0  0
    1.8329   32.5668    8.5831 H   0  0  0  0  0  0  0  0  0  0  0  0
    2.7431   30.3008    9.0783 H   0  0  0  0  0  0  0  0  0  0  0  0
    4.1770   29.1477    7.4057 H   0  0  0  0  0  0  0  0  0  0  0  0
    3.2595   28.9451    4.0729 H   0  0  0  0  0  0  0  0  0  0  0  0
    4.7015   27.6862    2.4785 H   0  0  0  0  0  0  0  0  0  0  0  0
    7.1710   28.0333    2.4857 H   0  0  0  0  0  0  0  0  0  0  0  0
    8.1980   29.6501    4.0823 H   0  0  0  0  0  0  0  0  0  0  0  0
    6.7624   30.9138    5.6746 H   0  0  0  0  0  0  0  0  0  0  0  0
    4.2122   28.8699   -0.2205 H   0  0  0  0  0  0  0  0  0  0  0  0
    6.3671   27.6604   -0.4452 H   0  0  0  0  0  0  0  0  0  0  0  0
  1  2  2  0
  2  3  1  0
  2  4  1  0
  4  5  2  0
  5  6  1  0
  6  7  2  0
  7  8  1  0
  8  9  1  0
  9 10  2  0
 10 11  1  0
 11 12  2  0
 12 13  1  0
 13 14  1  0
 14 15  1  0
 15 16  2  0
 16 17  1  0
 17 18  2  0
 18 19  1  0
 19 20  2  0
 20 21  1  0
 21 22  2  0
 22 23  1  0
 23 24  2  0
 24 25  1  0
 25 26  2  0
 13 27  2  0
  7 28  1  0
 28 29  2  0
 29  4  1  0
 27  9  1  0
 20 15  1  0
 26 21  1  0
  5 30  1  0
  6 31  1  0
  8 32  1  0
 11 33  1  0
 12 34  1  0
 14 35  1  0
 16 36  1  0
 17 37  1  0
 18 38  1  0
 19 39  1  0
 22 40  1  0
 23 41  1  0
 24 42  1  0
 25 43  1  0
 26 44  1  0
 28 45  1  0
 29 46  1  0
M  CHG  1   3  -1
M  END
>  <meeko>  (9) 
{"is_sidechain": [false], "free_energy": -9.824, "intermolecular_energy": -11.36, "internal_energy": -1.957}

$$$$
