4e6q_ligand
     RDKit          3D

 47 51  0  0  0  0  0  0  0  0999 V2000
    7.9480   20.7770    6.2880 C   0  0  0  0  0  0  0  0  0  0  0  0
    9.2940   20.7420    5.9310 C   0  0  0  0  0  0  0  0  0  0  0  0
   10.0560   21.9110    5.9610 C   0  0  0  0  0  0  0  0  0  0  0  0
    9.4750   23.1280    6.3540 C   0  0  0  0  0  0  0  0  0  0  0  0
   10.3040   24.3810    6.4190 C   0  0  0  0  0  0  0  0  0  0  0  0
   10.5810   24.8340    7.8460 N   0  0  2  0  0  0  0  0  0  0  0  0
   10.6880   26.3380    7.9570 C   0  0  0  0  0  0  0  0  0  0  0  0
   10.8260   26.7400    9.4170 C   0  0  0  0  0  0  0  0  0  0  0  0
   11.9660   25.9890   10.1080 C   0  0  1  0  0  0  0  0  0  0  0  0
   12.1340   26.3580   11.5070 N   0  0  0  0  0  0  0  0  0  0  0  0
   12.0170   25.4140   12.5110 C   0  0  0  0  0  0  0  0  0  0  0  0
   12.1890   25.9270   13.7060 N   0  0  0  0  0  0  0  0  0  0  0  0
   12.4310   27.2570   13.4870 C   0  0  0  0  0  0  0  0  0  0  0  0
   12.6880   28.3060   14.3880 C   0  0  0  0  0  0  0  0  0  0  0  0
   12.9090   29.5900   13.9780 N   0  0  0  0  0  0  0  0  0  0  0  0
   12.8650   29.7770   12.6510 C   0  0  0  0  0  0  0  0  0  0  0  0
   13.0540   30.9570   11.9910 N   0  0  0  0  0  0  0  0  0  0  0  0
   12.9330   30.7450   10.6330 C   0  0  0  0  0  0  0  0  0  0  0  0
   12.6610   29.4040   10.4190 C   0  0  0  0  0  0  0  0  0  0  0  0
   12.6210   28.8070   11.7030 C   0  0  0  0  0  0  0  0  0  0  0  0
   12.4000   27.5280   12.1240 C   0  0  0  0  0  0  0  0  0  0  0  0
   11.9490   24.4740    9.8810 C   0  0  0  0  0  0  0  0  0  0  0  0
   11.7900   24.1320    8.4090 C   0  0  0  0  0  0  0  0  0  0  0  0
    8.1170   23.1500    6.7040 C   0  0  0  0  0  0  0  0  0  0  0  0
    7.3590   21.9790    6.6720 C   0  0  0  0  0  0  0  0  0  0  0  0
    7.3497   19.8542    6.2666 H   0  0  0  0  0  0  0  0  0  0  0  0
    9.7568   19.7921    5.6251 H   0  0  0  0  0  0  0  0  0  0  0  0
   11.1177   21.8791    5.6752 H   0  0  0  0  0  0  0  0  0  0  0  0
   11.2648   24.1927    5.9176 H   0  0  0  0  0  0  0  0  0  0  0  0
    9.7338   25.1805    5.9234 H   0  0  0  0  0  0  0  0  0  0  0  0
    9.7530   24.5410    8.3810 H   0  0  0  0  0  0  0  0  0  0  0  0
   11.5706   26.6832    7.3985 H   0  0  0  0  0  0  0  0  0  0  0  0
    9.7805   26.7978    7.5387 H   0  0  0  0  0  0  0  0  0  0  0  0
   11.0268   27.8202    9.4714 H   0  0  0  0  0  0  0  0  0  0  0  0
    9.8877   26.4857    9.9317 H   0  0  0  0  0  0  0  0  0  0  0  0
   12.8755   26.3364    9.5961 H   0  0  0  0  0  0  0  0  0  0  0  0
   11.8033   24.3506   12.3277 H   0  0  0  0  0  0  0  0  0  0  0  0
   12.7120   28.0836   15.4650 H   0  0  0  0  0  0  0  0  0  0  0  0
   13.2530   31.8350   12.4510 H   0  0  0  0  0  0  0  0  0  0  0  0
   13.0354   31.5123    9.8515 H   0  0  0  0  0  0  0  0  0  0  0  0
   12.5075   28.9050    9.4508 H   0  0  0  0  0  0  0  0  0  0  0  0
   12.8946   24.0474   10.2467 H   0  0  0  0  0  0  0  0  0  0  0  0
   11.0918   24.0533   10.4271 H   0  0  0  0  0  0  0  0  0  0  0  0
   12.6873   24.4549    7.8607 H   0  0  0  0  0  0  0  0  0  0  0  0
   11.6595   23.0450    8.3022 H   0  0  0  0  0  0  0  0  0  0  0  0
    7.6462   24.0972    7.0059 H   0  0  0  0  0  0  0  0  0  0  0  0
    6.2951   22.0053    6.9504 H   0  0  0  0  0  0  0  0  0  0  0  0
  1  2  2  0
  2  3  1  0
  3  4  2  0
  4  5  1  0
  5  6  1  0
  6  7  1  0
  7  8  1  0
  8  9  1  0
  9 10  1  0
 10 11  1  0
 11 12  2  0
 12 13  1  0
 13 14  2  0
 14 15  1  0
 15 16  2  0
 16 17  1  0
 17 18  1  0
 18 19  2  0
 19 20  1  0
 20 21  2  0
  9 22  1  0
 22 23  1  0
  4 24  1  0
 24 25  2  0
 25  1  1  0
 23  6  1  0
 21 10  1  0
 21 13  1  0
 20 16  1  0
  1 26  1  0
  2 27  1  0
  3 28  1  0
  5 29  1  0
  5 30  1  0
  6 31  1  6
  7 32  1  0
  7 33  1  0
  8 34  1  0
  8 35  1  0
  9 36  1  1
 11 37  1  0
 14 38  1  0
 17 39  1  0
 18 40  1  0
 19 41  1  0
 22 42  1  0
 22 43  1  0
 23 44  1  0
 23 45  1  0
 24 46  1  0
 25 47  1  0
M  CHG  1   6   1
M  END
>  <meeko>  (1) 
{"is_sidechain": [false], "free_energy": -9.963, "intermolecular_energy": -11.71, "internal_energy": -0.482}

$$$$
4e6q_ligand
     RDKit          3D

 47 51  0  0  0  0  0  0  0  0999 V2000
    7.5560   22.0370    6.6920 C   0  0  0  0  0  0  0  0  0  0  0  0
    7.3310   23.3250    6.2120 C   0  0  0  0  0  0  0  0  0  0  0  0
    8.4090   24.1420    5.8680 C   0  0  0  0  0  0  0  0  0  0  0  0
    9.7260   23.6720    5.9980 C   0  0  0  0  0  0  0  0  0  0  0  0
   10.8870   24.5400    5.5970 C   0  0  0  0  0  0  0  0  0  0  0  0
   11.1650   25.6550    6.5960 N   0  0  2  0  0  0  0  0  0  0  0  0
   12.6300   26.0230    6.6480 C   0  0  0  0  0  0  0  0  0  0  0  0
   12.8290   27.2280    7.5540 C   0  0  0  0  0  0  0  0  0  0  0  0
   12.2000   27.0130    8.9330 C   0  0  1  0  0  0  0  0  0  0  0  0
   12.3810   28.1440    9.8320 N   0  0  0  0  0  0  0  0  0  0  0  0
   12.5330   29.4270    9.3390 C   0  0  0  0  0  0  0  0  0  0  0  0
   12.6950   30.3140   10.2920 N   0  0  0  0  0  0  0  0  0  0  0  0
   12.6460   29.5960   11.4560 C   0  0  0  0  0  0  0  0  0  0  0  0
   12.7590   30.0060   12.7970 C   0  0  0  0  0  0  0  0  0  0  0  0
   12.6830   29.1320   13.8420 N   0  0  0  0  0  0  0  0  0  0  0  0
   12.4930   27.8500   13.4970 C   0  0  0  0  0  0  0  0  0  0  0  0
   12.3800   26.7880   14.3480 N   0  0  0  0  0  0  0  0  0  0  0  0
   12.1890   25.6350   13.6150 C   0  0  0  0  0  0  0  0  0  0  0  0
   12.1780   25.9630   12.2700 C   0  0  0  0  0  0  0  0  0  0  0  0
   12.3710   27.3650   12.2130 C   0  0  0  0  0  0  0  0  0  0  0  0
   12.4500   28.2490   11.1750 C   0  0  0  0  0  0  0  0  0  0  0  0
   10.7570   26.4990    8.8910 C   0  0  0  0  0  0  0  0  0  0  0  0
   10.6150   25.3090    7.9560 C   0  0  0  0  0  0  0  0  0  0  0  0
    9.9400   22.3760    6.4890 C   0  0  0  0  0  0  0  0  0  0  0  0
    8.8590   21.5630    6.8320 C   0  0  0  0  0  0  0  0  0  0  0  0
    6.7050   21.3938    6.9606 H   0  0  0  0  0  0  0  0  0  0  0  0
    6.3021   23.6989    6.1039 H   0  0  0  0  0  0  0  0  0  0  0  0
    8.2260   25.1598    5.4929 H   0  0  0  0  0  0  0  0  0  0  0  0
   11.7849   23.9098    5.5153 H   0  0  0  0  0  0  0  0  0  0  0  0
   10.6304   25.0125    4.6374 H   0  0  0  0  0  0  0  0  0  0  0  0
   10.6520   26.4680    6.2330 H   0  0  0  0  0  0  0  0  0  0  0  0
   13.2061   25.1722    7.0408 H   0  0  0  0  0  0  0  0  0  0  0  0
   12.9774   26.2708    5.6341 H   0  0  0  0  0  0  0  0  0  0  0  0
   13.9074   27.4056    7.6784 H   0  0  0  0  0  0  0  0  0  0  0  0
   12.3371   28.0930    7.0851 H   0  0  0  0  0  0  0  0  0  0  0  0
   12.7771   26.1870    9.3743 H   0  0  0  0  0  0  0  0  0  0  0  0
   12.5196   29.6760    8.2676 H   0  0  0  0  0  0  0  0  0  0  0  0
   12.9148   31.0736   13.0116 H   0  0  0  0  0  0  0  0  0  0  0  0
   12.4310   26.8650   15.3550 H   0  0  0  0  0  0  0  0  0  0  0  0
   12.0660   24.6237   14.0300 H   0  0  0  0  0  0  0  0  0  0  0  0
   12.0465   25.2764   11.4207 H   0  0  0  0  0  0  0  0  0  0  0  0
   10.4566   26.1948    9.9045 H   0  0  0  0  0  0  0  0  0  0  0  0
   10.1134   27.3092    8.5176 H   0  0  0  0  0  0  0  0  0  0  0  0
   11.1713   24.4538    8.3674 H   0  0  0  0  0  0  0  0  0  0  0  0
    9.5504   25.0495    7.8602 H   0  0  0  0  0  0  0  0  0  0  0  0
   10.9665   21.9979    6.6045 H   0  0  0  0  0  0  0  0  0  0  0  0
    9.0356   20.5465    7.2135 H   0  0  0  0  0  0  0  0  0  0  0  0
  1  2  2  0
  2  3  1  0
  3  4  2  0
  4  5  1  0
  5  6  1  0
  6  7  1  0
  7  8  1  0
  8  9  1  0
  9 10  1  0
 10 11  1  0
 11 12  2  0
 12 13  1  0
 13 14  2  0
 14 15  1  0
 15 16  2  0
 16 17  1  0
 17 18  1  0
 18 19  2  0
 19 20  1  0
 20 21  2  0
  9 22  1  0
 22 23  1  0
  4 24  1  0
 24 25  2  0
 25  1  1  0
 23  6  1  0
 21 10  1  0
 21 13  1  0
 20 16  1  0
  1 26  1  0
  2 27  1  0
  3 28  1  0
  5 29  1  0
  5 30  1  0
  6 31  1  1
  7 32  1  0
  7 33  1  0
  8 34  1  0
  8 35  1  0
  9 36  1  6
 11 37  1  0
 14 38  1  0
 17 39  1  0
 18 40  1  0
 19 41  1  0
 22 42  1  0
 22 43  1  0
 23 44  1  0
 23 45  1  0
 24 46  1  0
 25 47  1  0
M  CHG  1   6   1
M  END
>  <meeko>  (2) 
{"is_sidechain": [false], "free_energy": -9.597, "intermolecular_energy": -11.425, "internal_energy": -0.338}

$$$$
4e6q_ligand
     RDKit          3D

 47 51  0  0  0  0  0  0  0  0999 V2000
    8.6020   22.3360    5.3550 C   0  0  0  0  0  0  0  0  0  0  0  0
    9.7430   21.8390    5.9790 C   0  0  0  0  0  0  0  0  0  0  0  0
   10.8640   22.6560    6.1410 C   0  0  0  0  0  0  0  0  0  0  0  0
   10.8480   23.9830    5.6810 C   0  0  0  0  0  0  0  0  0  0  0  0
   12.0430   24.8730    5.8850 C   0  0  0  0  0  0  0  0  0  0  0  0
   12.1580   25.3920    7.3120 N   0  0  2  0  0  0  0  0  0  0  0  0
   13.0580   24.5260    8.1640 C   0  0  0  0  0  0  0  0  0  0  0  0
   13.2460   25.1640    9.5310 C   0  0  0  0  0  0  0  0  0  0  0  0
   11.9070   25.4950   10.1930 C   0  0  1  0  0  0  0  0  0  0  0  0
   12.0490   26.0980   11.5110 N   0  0  0  0  0  0  0  0  0  0  0  0
   11.8880   25.3440   12.6590 C   0  0  0  0  0  0  0  0  0  0  0  0
   12.0410   26.0530   13.7520 N   0  0  0  0  0  0  0  0  0  0  0  0
   12.3150   27.3210   13.3140 C   0  0  0  0  0  0  0  0  0  0  0  0
   12.5720   28.5070   14.0260 C   0  0  0  0  0  0  0  0  0  0  0  0
   12.8290   29.6960   13.4080 N   0  0  0  0  0  0  0  0  0  0  0  0
   12.8210   29.6510   12.0670 C   0  0  0  0  0  0  0  0  0  0  0  0
   13.0500   30.6970   11.2190 N   0  0  0  0  0  0  0  0  0  0  0  0
   12.9570   30.2540    9.9150 C   0  0  0  0  0  0  0  0  0  0  0  0
   12.6630   28.9010    9.9280 C   0  0  0  0  0  0  0  0  0  0  0  0
   12.5800   28.5360   11.2940 C   0  0  0  0  0  0  0  0  0  0  0  0
   12.3230   27.3520   11.9240 C   0  0  0  0  0  0  0  0  0  0  0  0
   10.9280   26.2480    9.2870 C   0  0  0  0  0  0  0  0  0  0  0  0
   10.7950   25.5780    7.9290 C   0  0  0  0  0  0  0  0  0  0  0  0
    9.6940   24.4690    5.0480 C   0  0  0  0  0  0  0  0  0  0  0  0
    8.5770   23.6480    4.8880 C   0  0  0  0  0  0  0  0  0  0  0  0
    7.7191   21.6917    5.2306 H   0  0  0  0  0  0  0  0  0  0  0  0
    9.7616   20.8018    6.3448 H   0  0  0  0  0  0  0  0  0  0  0  0
   11.7645   22.2580    6.6316 H   0  0  0  0  0  0  0  0  0  0  0  0
   12.9516   24.3013    5.6451 H   0  0  0  0  0  0  0  0  0  0  0  0
   11.9221   25.7448    5.2252 H   0  0  0  0  0  0  0  0  0  0  0  0
   12.6050   26.3130    7.2220 H   0  0  0  0  0  0  0  0  0  0  0  0
   12.6009   23.5328    8.2847 H   0  0  0  0  0  0  0  0  0  0  0  0
   14.0371   24.4272    7.6724 H   0  0  0  0  0  0  0  0  0  0  0  0
   13.7993   24.4661   10.1765 H   0  0  0  0  0  0  0  0  0  0  0  0
   13.8020   26.1035    9.3961 H   0  0  0  0  0  0  0  0  0  0  0  0
   11.4335   24.5166   10.3621 H   0  0  0  0  0  0  0  0  0  0  0  0
   11.6571   24.2685   12.6560 H   0  0  0  0  0  0  0  0  0  0  0  0
   12.5655   28.4743   15.1255 H   0  0  0  0  0  0  0  0  0  0  0  0
   13.2550   31.6370   11.5260 H   0  0  0  0  0  0  0  0  0  0  0  0
   13.0936   30.8725    9.0157 H   0  0  0  0  0  0  0  0  0  0  0  0
   12.5227   28.2445    9.0566 H   0  0  0  0  0  0  0  0  0  0  0  0
    9.9406   26.2731    9.7711 H   0  0  0  0  0  0  0  0  0  0  0  0
   11.3152   27.2659    9.1323 H   0  0  0  0  0  0  0  0  0  0  0  0
   10.3136   24.5966    8.0522 H   0  0  0  0  0  0  0  0  0  0  0  0
   10.1834   26.2126    7.2708 H   0  0  0  0  0  0  0  0  0  0  0  0
    9.6696   25.5037    4.6755 H   0  0  0  0  0  0  0  0  0  0  0  0
    7.6755   24.0375    4.3924 H   0  0  0  0  0  0  0  0  0  0  0  0
  1  2  2  0
  2  3  1  0
  3  4  2  0
  4  5  1  0
  5  6  1  0
  6  7  1  0
  7  8  1  0
  8  9  1  0
  9 10  1  0
 10 11  1  0
 11 12  2  0
 12 13  1  0
 13 14  2  0
 14 15  1  0
 15 16  2  0
 16 17  1  0
 17 18  1  0
 18 19  2  0
 19 20  1  0
 20 21  2  0
  9 22  1  0
 22 23  1  0
  4 24  1  0
 24 25  2  0
 25  1  1  0
 23  6  1  0
 21 10  1  0
 21 13  1  0
 20 16  1  0
  1 26  1  0
  2 27  1  0
  3 28  1  0
  5 29  1  0
  5 30  1  0
  6 31  1  1
  7 32  1  0
  7 33  1  0
  8 34  1  0
  8 35  1  0
  9 36  1  6
 11 37  1  0
 14 38  1  0
 17 39  1  0
 18 40  1  0
 19 41  1  0
 22 42  1  0
 22 43  1  0
 23 44  1  0
 23 45  1  0
 24 46  1  0
 25 47  1  0
M  CHG  1   6   1
M  END
>  <meeko>  (3) 
{"is_sidechain": [false], "free_energy": -9.143, "intermolecular_energy": -11.125, "internal_energy": -0.104}

$$$$
4e6q_ligand
     RDKit          3D

 47 51  0  0  0  0  0  0  0  0999 V2000
   11.5710   27.5900    3.2050 C   0  0  0  0  0  0  0  0  0  0  0  0
   12.7410   27.2620    3.8850 C   0  0  0  0  0  0  0  0  0  0  0  0
   12.7500   26.2000    4.7900 C   0  0  0  0  0  0  0  0  0  0  0  0
   11.5830   25.4520    5.0190 C   0  0  0  0  0  0  0  0  0  0  0  0
   11.6000   24.2860    5.9690 C   0  0  0  0  0  0  0  0  0  0  0  0
   11.6580   24.7150    7.4290 N   0  0  2  0  0  0  0  0  0  0  0  0
   10.9510   26.0290    7.6680 C   0  0  0  0  0  0  0  0  0  0  0  0
   10.9200   26.3370    9.1560 C   0  0  0  0  0  0  0  0  0  0  0  0
   12.3160   26.2680    9.7800 C   0  0  1  0  0  0  0  0  0  0  0  0
   12.3260   26.5690   11.2050 N   0  0  0  0  0  0  0  0  0  0  0  0
   12.1590   25.5680   12.1440 C   0  0  0  0  0  0  0  0  0  0  0  0
   12.1850   26.0240   13.3740 N   0  0  0  0  0  0  0  0  0  0  0  0
   12.3780   27.3740   13.2460 C   0  0  0  0  0  0  0  0  0  0  0  0
   12.4900   28.3840   14.2180 C   0  0  0  0  0  0  0  0  0  0  0  0
   12.6840   29.6970   13.8960 N   0  0  0  0  0  0  0  0  0  0  0  0
   12.7610   29.9520   12.5820 C   0  0  0  0  0  0  0  0  0  0  0  0
   12.9530   31.1740   12.0020 N   0  0  0  0  0  0  0  0  0  0  0  0
   12.9770   31.0290   10.6300 C   0  0  0  0  0  0  0  0  0  0  0  0
   12.7980   29.6900   10.3240 C   0  0  0  0  0  0  0  0  0  0  0  0
   12.6630   29.0240   11.5680 C   0  0  0  0  0  0  0  0  0  0  0  0
   12.4670   27.7150   11.9020 C   0  0  0  0  0  0  0  0  0  0  0  0
   13.1000   25.0010    9.4250 C   0  0  0  0  0  0  0  0  0  0  0  0
   13.0800   24.7330    7.9300 C   0  0  0  0  0  0  0  0  0  0  0  0
   10.4090   25.7970    4.3330 C   0  0  0  0  0  0  0  0  0  0  0  0
   10.4060   26.8610    3.4290 C   0  0  0  0  0  0  0  0  0  0  0  0
   11.5671   28.4260    2.4900 H   0  0  0  0  0  0  0  0  0  0  0  0
   13.6595   27.8409    3.7085 H   0  0  0  0  0  0  0  0  0  0  0  0
   13.6760   25.9470    5.3272 H   0  0  0  0  0  0  0  0  0  0  0  0
   10.6871   23.6924    5.8131 H   0  0  0  0  0  0  0  0  0  0  0  0
   12.5078   23.7013    5.7594 H   0  0  0  0  0  0  0  0  0  0  0  0
   11.1420   23.9860    7.9380 H   0  0  0  0  0  0  0  0  0  0  0  0
   11.4862   26.8323    7.1404 H   0  0  0  0  0  0  0  0  0  0  0  0
    9.9199   25.9590    7.2913 H   0  0  0  0  0  0  0  0  0  0  0  0
   10.5145   27.3491    9.3017 H   0  0  0  0  0  0  0  0  0  0  0  0
   10.2879   25.5831    9.6481 H   0  0  0  0  0  0  0  0  0  0  0  0
   12.8742   27.0847    9.2990 H   0  0  0  0  0  0  0  0  0  0  0  0
   12.0198   24.5072   11.8883 H   0  0  0  0  0  0  0  0  0  0  0  0
   12.4185   28.1055   15.2798 H   0  0  0  0  0  0  0  0  0  0  0  0
   13.0590   32.0340   12.5220 H   0  0  0  0  0  0  0  0  0  0  0  0
   13.1152   31.8411    9.9010 H   0  0  0  0  0  0  0  0  0  0  0  0
   12.7670   29.2369    9.3221 H   0  0  0  0  0  0  0  0  0  0  0  0
   14.1431   25.1230    9.7521 H   0  0  0  0  0  0  0  0  0  0  0  0
   12.6264   24.1487    9.9342 H   0  0  0  0  0  0  0  0  0  0  0  0
   13.6394   25.5248    7.4103 H   0  0  0  0  0  0  0  0  0  0  0  0
   13.5454   23.7562    7.7317 H   0  0  0  0  0  0  0  0  0  0  0  0
    9.4854   25.2259    4.5083 H   0  0  0  0  0  0  0  0  0  0  0  0
    9.4821   27.1237    2.8930 H   0  0  0  0  0  0  0  0  0  0  0  0
  1  2  2  0
  2  3  1  0
  3  4  2  0
  4  5  1  0
  5  6  1  0
  6  7  1  0
  7  8  1  0
  8  9  1  0
  9 10  1  0
 10 11  1  0
 11 12  2  0
 12 13  1  0
 13 14  2  0
 14 15  1  0
 15 16  2  0
 16 17  1  0
 17 18  1  0
 18 19  2  0
 19 20  1  0
 20 21  2  0
  9 22  1  0
 22 23  1  0
  4 24  1  0
 24 25  2  0
 25  1  1  0
 23  6  1  0
 21 10  1  0
 21 13  1  0
 20 16  1  0
  1 26  1  0
  2 27  1  0
  3 28  1  0
  5 29  1  0
  5 30  1  0
  6 31  1  6
  7 32  1  0
  7 33  1  0
  8 34  1  0
  8 35  1  0
  9 36  1  1
 11 37  1  0
 14 38  1  0
 17 39  1  0
 18 40  1  0
 19 41  1  0
 22 42  1  0
 22 43  1  0
 23 44  1  0
 23 45  1  0
 24 46  1  0
 25 47  1  0
M  CHG  1   6   1
M  END
>  <meeko>  (4) 
{"is_sidechain": [false], "free_energy": -9.075, "intermolecular_energy": -10.706, "internal_energy": -0.443}

$$$$
4e6q_ligand
     RDKit          3D

 47 51  0  0  0  0  0  0  0  0999 V2000
   12.9420   30.3700   12.4870 C   0  0  0  0  0  0  0  0  0  0  0  0
   12.6810   29.4770   13.5240 C   0  0  0  0  0  0  0  0  0  0  0  0
   12.4030   28.1390   13.2420 C   0  0  0  0  0  0  0  0  0  0  0  0
   12.3880   27.6820   11.9130 C   0  0  0  0  0  0  0  0  0  0  0  0
   12.1210   26.2330   11.6100 C   0  0  0  0  0  0  0  0  0  0  0  0
   11.8800   25.9730   10.1290 N   0  0  2  0  0  0  0  0  0  0  0  0
   10.8310   26.8950    9.5510 C   0  0  0  0  0  0  0  0  0  0  0  0
   10.7320   26.6860    8.0480 C   0  0  0  0  0  0  0  0  0  0  0  0
   10.5210   25.2130    7.6910 C   0  0  1  0  0  0  0  0  0  0  0  0
   10.4100   24.9780    6.2580 N   0  0  0  0  0  0  0  0  0  0  0  0
   11.1660   25.7060    5.3570 C   0  0  0  0  0  0  0  0  0  0  0  0
   10.9280   25.3660    4.1120 N   0  0  0  0  0  0  0  0  0  0  0  0
    9.9840   24.3780    4.1900 C   0  0  0  0  0  0  0  0  0  0  0  0
    9.3450   23.6330    3.1820 C   0  0  0  0  0  0  0  0  0  0  0  0
    8.4140   22.6730    3.4560 N   0  0  0  0  0  0  0  0  0  0  0  0
    8.1540   22.4900    4.7590 C   0  0  0  0  0  0  0  0  0  0  0  0
    7.2710   21.5950    5.2920 N   0  0  0  0  0  0  0  0  0  0  0  0
    7.2860   21.7050    6.6680 C   0  0  0  0  0  0  0  0  0  0  0  0
    8.1950   22.6880    7.0220 C   0  0  0  0  0  0  0  0  0  0  0  0
    8.7330   23.1730    5.8050 C   0  0  0  0  0  0  0  0  0  0  0  0
    9.6610   24.1330    5.5200 C   0  0  0  0  0  0  0  0  0  0  0  0
   11.4910   24.2530    8.3870 C   0  0  0  0  0  0  0  0  0  0  0  0
   11.5640   24.5200    9.8810 C   0  0  0  0  0  0  0  0  0  0  0  0
   12.6450   28.5920   10.8780 C   0  0  0  0  0  0  0  0  0  0  0  0
   12.9220   29.9290   11.1660 C   0  0  0  0  0  0  0  0  0  0  0  0
   13.1639   31.4237   12.7116 H   0  0  0  0  0  0  0  0  0  0  0  0
   12.6941   29.8272   14.5667 H   0  0  0  0  0  0  0  0  0  0  0  0
   12.1945   27.4384   14.0640 H   0  0  0  0  0  0  0  0  0  0  0  0
   12.9895   25.6407   11.9338 H   0  0  0  0  0  0  0  0  0  0  0  0
   11.2063   25.9456   12.1492 H   0  0  0  0  0  0  0  0  0  0  0  0
   12.7750   26.1950    9.6750 H   0  0  0  0  0  0  0  0  0  0  0  0
    9.8577   26.6768   10.0148 H   0  0  0  0  0  0  0  0  0  0  0  0
   11.1133   27.9385    9.7544 H   0  0  0  0  0  0  0  0  0  0  0  0
    9.8838   27.2707    7.6625 H   0  0  0  0  0  0  0  0  0  0  0  0
   11.6784   27.0153    7.5943 H   0  0  0  0  0  0  0  0  0  0  0  0
    9.5352   24.9653    8.1114 H   0  0  0  0  0  0  0  0  0  0  0  0
   11.8865   26.4834    5.6513 H   0  0  0  0  0  0  0  0  0  0  0  0
    9.6058   23.8319    2.1320 H   0  0  0  0  0  0  0  0  0  0  0  0
    6.7090   20.9600    4.7410 H   0  0  0  0  0  0  0  0  0  0  0  0
    6.6778   21.1113    7.3663 H   0  0  0  0  0  0  0  0  0  0  0  0
    8.4472   23.0231    8.0389 H   0  0  0  0  0  0  0  0  0  0  0  0
   11.1493   23.2201    8.2249 H   0  0  0  0  0  0  0  0  0  0  0  0
   12.4932   24.4059    7.9601 H   0  0  0  0  0  0  0  0  0  0  0  0
   10.5967   24.2733   10.3430 H   0  0  0  0  0  0  0  0  0  0  0  0
   12.3567   23.8973   10.3213 H   0  0  0  0  0  0  0  0  0  0  0  0
   12.6282   28.2500    9.8326 H   0  0  0  0  0  0  0  0  0  0  0  0
   13.1250   30.6360   10.3481 H   0  0  0  0  0  0  0  0  0  0  0  0
  1  2  2  0
  2  3  1  0
  3  4  2  0
  4  5  1  0
  5  6  1  0
  6  7  1  0
  7  8  1  0
  8  9  1  0
  9 10  1  0
 10 11  1  0
 11 12  2  0
 12 13  1  0
 13 14  2  0
 14 15  1  0
 15 16  2  0
 16 17  1  0
 17 18  1  0
 18 19  2  0
 19 20  1  0
 20 21  2  0
  9 22  1  0
 22 23  1  0
  4 24  1  0
 24 25  2  0
 25  1  1  0
 23  6  1  0
 21 10  1  0
 21 13  1  0
 20 16  1  0
  1 26  1  0
  2 27  1  0
  3 28  1  0
  5 29  1  0
  5 30  1  0
  6 31  1  1
  7 32  1  0
  7 33  1  0
  8 34  1  0
  8 35  1  0
  9 36  1  6
 11 37  1  0
 14 38  1  0
 17 39  1  0
 18 40  1  0
 19 41  1  0
 22 42  1  0
 22 43  1  0
 23 44  1  0
 23 45  1  0
 24 46  1  0
 25 47  1  0
M  CHG  1   6   1
M  END
>  <meeko>  (5) 
{"is_sidechain": [false], "free_energy": -9.002, "intermolecular_energy": -11.096, "internal_energy": 0.034}

$$$$
4e6q_ligand
     RDKit          3D

 47 51  0  0  0  0  0  0  0  0999 V2000
   12.9380   28.8460   14.1290 C   0  0  0  0  0  0  0  0  0  0  0  0
   12.8130   28.9830   12.7490 C   0  0  0  0  0  0  0  0  0  0  0  0
   12.4970   27.8750   11.9610 C   0  0  0  0  0  0  0  0  0  0  0  0
   12.3010   26.6160   12.5530 C   0  0  0  0  0  0  0  0  0  0  0  0
   11.9300   25.4280   11.7080 C   0  0  0  0  0  0  0  0  0  0  0  0
   11.9850   25.7230   10.2150 N   0  0  2  0  0  0  0  0  0  0  0  0
   10.6170   26.0120    9.6390 C   0  0  0  0  0  0  0  0  0  0  0  0
   10.7470   26.4340    8.1850 C   0  0  0  0  0  0  0  0  0  0  0  0
   11.5570   25.4220    7.3700 C   0  0  1  0  0  0  0  0  0  0  0  0
   11.6920   25.7890    5.9670 N   0  0  0  0  0  0  0  0  0  0  0  0
   11.2620   24.9390    4.9650 C   0  0  0  0  0  0  0  0  0  0  0  0
   11.4730   25.4280    3.7660 N   0  0  0  0  0  0  0  0  0  0  0  0
   12.0620   26.6450    3.9800 C   0  0  0  0  0  0  0  0  0  0  0  0
   12.5130   27.6220    3.0740 C   0  0  0  0  0  0  0  0  0  0  0  0
   13.0830   28.7940    3.4800 N   0  0  0  0  0  0  0  0  0  0  0  0
   13.1810   28.9470    4.8080 C   0  0  0  0  0  0  0  0  0  0  0  0
   13.7070   30.0230    5.4660 N   0  0  0  0  0  0  0  0  0  0  0  0
   13.6280   29.8090    6.8260 C   0  0  0  0  0  0  0  0  0  0  0  0
   13.0410   28.5740    7.0460 C   0  0  0  0  0  0  0  0  0  0  0  0
   12.7650   28.0430    5.7620 C   0  0  0  0  0  0  0  0  0  0  0  0
   12.1980   26.8730    5.3450 C   0  0  0  0  0  0  0  0  0  0  0  0
   12.8830   25.0120    8.0180 C   0  0  0  0  0  0  0  0  0  0  0  0
   12.6950   24.6200    9.4740 C   0  0  0  0  0  0  0  0  0  0  0  0
   12.4380   26.4890   13.9430 C   0  0  0  0  0  0  0  0  0  0  0  0
   12.7540   27.6010   14.7260 C   0  0  0  0  0  0  0  0  0  0  0  0
   13.1823   29.7217   14.7483 H   0  0  0  0  0  0  0  0  0  0  0  0
   12.9635   29.9661   12.2790 H   0  0  0  0  0  0  0  0  0  0  0  0
   12.4010   27.9881   10.8711 H   0  0  0  0  0  0  0  0  0  0  0  0
   12.6284   24.6076   11.9297 H   0  0  0  0  0  0  0  0  0  0  0  0
   10.8920   25.1592   11.9536 H   0  0  0  0  0  0  0  0  0  0  0  0
   12.5430   26.5830   10.1380 H   0  0  0  0  0  0  0  0  0  0  0  0
    9.9960   25.1063    9.7018 H   0  0  0  0  0  0  0  0  0  0  0  0
   10.1472   26.8253   10.2117 H   0  0  0  0  0  0  0  0  0  0  0  0
    9.7413   26.5200    7.7478 H   0  0  0  0  0  0  0  0  0  0  0  0
   11.2748   27.3986    8.1546 H   0  0  0  0  0  0  0  0  0  0  0  0
   10.9477   24.5063    7.3813 H   0  0  0  0  0  0  0  0  0  0  0  0
   10.7947   23.9610    5.1523 H   0  0  0  0  0  0  0  0  0  0  0  0
   12.4020   27.4341    1.9959 H   0  0  0  0  0  0  0  0  0  0  0  0
   14.0860   30.8360    5.0010 H   0  0  0  0  0  0  0  0  0  0  0  0
   13.9736   30.5034    7.6060 H   0  0  0  0  0  0  0  0  0  0  0  0
   12.8321   28.1025    8.0176 H   0  0  0  0  0  0  0  0  0  0  0  0
   13.2993   24.1550    7.4682 H   0  0  0  0  0  0  0  0  0  0  0  0
   13.5666   25.8729    7.9784 H   0  0  0  0  0  0  0  0  0  0  0  0
   12.0958   23.6992    9.5293 H   0  0  0  0  0  0  0  0  0  0  0  0
   13.6801   24.4511    9.9334 H   0  0  0  0  0  0  0  0  0  0  0  0
   12.2957   25.5076   14.4191 H   0  0  0  0  0  0  0  0  0  0  0  0
   12.8578   27.4937   15.8158 H   0  0  0  0  0  0  0  0  0  0  0  0
  1  2  2  0
  2  3  1  0
  3  4  2  0
  4  5  1  0
  5  6  1  0
  6  7  1  0
  7  8  1  0
  8  9  1  0
  9 10  1  0
 10 11  1  0
 11 12  2  0
 12 13  1  0
 13 14  2  0
 14 15  1  0
 15 16  2  0
 16 17  1  0
 17 18  1  0
 18 19  2  0
 19 20  1  0
 20 21  2  0
  9 22  1  0
 22 23  1  0
  4 24  1  0
 24 25  2  0
 25  1  1  0
 23  6  1  0
 21 10  1  0
 21 13  1  0
 20 16  1  0
  1 26  1  0
  2 27  1  0
  3 28  1  0
  5 29  1  0
  5 30  1  0
  6 31  1  6
  7 32  1  0
  7 33  1  0
  8 34  1  0
  8 35  1  0
  9 36  1  1
 11 37  1  0
 14 38  1  0
 17 39  1  0
 18 40  1  0
 19 41  1  0
 22 42  1  0
 22 43  1  0
 23 44  1  0
 23 45  1  0
 24 46  1  0
 25 47  1  0
M  CHG  1   6   1
M  END
>  <meeko>  (6) 
{"is_sidechain": [false], "free_energy": -7.888, "intermolecular_energy": -9.176, "internal_energy": -0.578}

$$$$
4e6q_ligand
     RDKit          3D

 47 51  0  0  0  0  0  0  0  0999 V2000
   14.0040   31.1060    3.7240 C   0  0  0  0  0  0  0  0  0  0  0  0
   14.5970   29.8460    3.6990 C   0  0  0  0  0  0  0  0  0  0  0  0
   13.8470   28.7130    4.0200 C   0  0  0  0  0  0  0  0  0  0  0  0
   12.4910   28.8340    4.3660 C   0  0  0  0  0  0  0  0  0  0  0  0
   11.6740   27.6100    4.6800 C   0  0  0  0  0  0  0  0  0  0  0  0
   11.5790   27.3300    6.1740 N   0  0  2  0  0  0  0  0  0  0  0  0
   12.2950   28.3760    6.9980 C   0  0  0  0  0  0  0  0  0  0  0  0
   12.0510   28.1240    8.4780 C   0  0  0  0  0  0  0  0  0  0  0  0
   12.3950   26.6870    8.8740 C   0  0  1  0  0  0  0  0  0  0  0  0
   12.1840   26.4130   10.2890 N   0  0  0  0  0  0  0  0  0  0  0  0
   11.7390   25.1750   10.7150 C   0  0  0  0  0  0  0  0  0  0  0  0
   11.5960   25.1130   12.0170 N   0  0  0  0  0  0  0  0  0  0  0  0
   11.9620   26.3520   12.4710 C   0  0  0  0  0  0  0  0  0  0  0  0
   12.0120   26.8770   13.7750 C   0  0  0  0  0  0  0  0  0  0  0  0
   12.4100   28.1560   14.0380 N   0  0  0  0  0  0  0  0  0  0  0  0
   12.7500   28.8770   12.9600 C   0  0  0  0  0  0  0  0  0  0  0  0
   13.1810   30.1730   12.9530 N   0  0  0  0  0  0  0  0  0  0  0  0
   13.4340   30.5620   11.6540 C   0  0  0  0  0  0  0  0  0  0  0  0
   13.1610   29.4970   10.8130 C   0  0  0  0  0  0  0  0  0  0  0  0
   12.7300   28.4410   11.6530 C   0  0  0  0  0  0  0  0  0  0  0  0
   12.3290   27.1600   11.4020 C   0  0  0  0  0  0  0  0  0  0  0  0
   11.7910   25.6200    7.9550 C   0  0  0  0  0  0  0  0  0  0  0  0
   12.0490   25.9330    6.4910 C   0  0  0  0  0  0  0  0  0  0  0  0
   11.9080   30.1090    4.3950 C   0  0  0  0  0  0  0  0  0  0  0  0
   12.6620   31.2380    4.0740 C   0  0  0  0  0  0  0  0  0  0  0  0
   14.5955   31.9972    3.4673 H   0  0  0  0  0  0  0  0  0  0  0  0
   15.6576   29.7434    3.4260 H   0  0  0  0  0  0  0  0  0  0  0  0
   14.3205   27.7203    4.0019 H   0  0  0  0  0  0  0  0  0  0  0  0
   10.6579   27.7549    4.2845 H   0  0  0  0  0  0  0  0  0  0  0  0
   12.1751   26.7491    4.2133 H   0  0  0  0  0  0  0  0  0  0  0  0
   10.5760   27.3950    6.3900 H   0  0  0  0  0  0  0  0  0  0  0  0
   13.3745   28.3264    6.7925 H   0  0  0  0  0  0  0  0  0  0  0  0
   11.9117   29.3721    6.7318 H   0  0  0  0  0  0  0  0  0  0  0  0
   12.6755   28.8141    9.0643 H   0  0  0  0  0  0  0  0  0  0  0  0
   10.9824   28.2881    8.6811 H   0  0  0  0  0  0  0  0  0  0  0  0
   13.4805   26.6090    8.7137 H   0  0  0  0  0  0  0  0  0  0  0  0
   11.5283   24.3351   10.0367 H   0  0  0  0  0  0  0  0  0  0  0  0
   11.7188   26.2314   14.6160 H   0  0  0  0  0  0  0  0  0  0  0  0
   13.2900   30.7350   13.7860 H   0  0  0  0  0  0  0  0  0  0  0  0
   13.7928   31.5530   11.3390 H   0  0  0  0  0  0  0  0  0  0  0  0
   13.2587   29.4752    9.7176 H   0  0  0  0  0  0  0  0  0  0  0  0
   12.2399   24.6452    8.1963 H   0  0  0  0  0  0  0  0  0  0  0  0
   10.7031   25.6019    8.1168 H   0  0  0  0  0  0  0  0  0  0  0  0
   13.1270   25.8556    6.2860 H   0  0  0  0  0  0  0  0  0  0  0  0
   11.4988   25.2152    5.8649 H   0  0  0  0  0  0  0  0  0  0  0  0
   10.8494   30.2197    4.6726 H   0  0  0  0  0  0  0  0  0  0  0  0
   12.1961   32.2342    4.0973 H   0  0  0  0  0  0  0  0  0  0  0  0
  1  2  2  0
  2  3  1  0
  3  4  2  0
  4  5  1  0
  5  6  1  0
  6  7  1  0
  7  8  1  0
  8  9  1  0
  9 10  1  0
 10 11  1  0
 11 12  2  0
 12 13  1  0
 13 14  2  0
 14 15  1  0
 15 16  2  0
 16 17  1  0
 17 18  1  0
 18 19  2  0
 19 20  1  0
 20 21  2  0
  9 22  1  0
 22 23  1  0
  4 24  1  0
 24 25  2  0
 25  1  1  0
 23  6  1  0
 21 10  1  0
 21 13  1  0
 20 16  1  0
  1 26  1  0
  2 27  1  0
  3 28  1  0
  5 29  1  0
  5 30  1  0
  6 31  1  6
  7 32  1  0
  7 33  1  0
  8 34  1  0
  8 35  1  0
  9 36  1  6
 11 37  1  0
 14 38  1  0
 17 39  1  0
 18 40  1  0
 19 41  1  0
 22 42  1  0
 22 43  1  0
 23 44  1  0
 23 45  1  0
 24 46  1  0
 25 47  1  0
M  CHG  1   6   1
M  END
>  <meeko>  (7) 
{"is_sidechain": [false], "free_energy": -7.271, "intermolecular_energy": -9.595, "internal_energy": 0.567}

$$$$
