3b27_ligand
     RDKit          3D

 25 26  0  0  0  0  0  0  0  0999 V2000
   13.0540    4.6930   12.6910 C   0  0  0  0  0  0  0  0  0  0  0  0
   11.6640    5.4770   11.8390 S   0  0  0  0  0  0  0  0  0  0  0  0
   10.3070    4.5530   12.5240 C   0  0  0  0  0  0  0  0  0  0  0  0
    9.0990    5.1080   12.5470 N   0  0  0  0  0  0  0  0  0  0  0  0
    8.1530    4.3590   13.0860 C   0  0  0  0  0  0  0  0  0  0  0  0
    6.8770    4.8830   13.1390 N   0  0  0  0  0  0  0  0  0  0  0  0
    8.3250    3.1360   13.5540 N   0  0  0  0  0  0  0  0  0  0  0  0
    9.5630    2.6590   13.4560 C   0  0  0  0  0  0  0  0  0  0  0  0
    9.8320    1.3170   13.9870 C   0  0  0  0  0  0  0  0  0  0  0  0
   10.5680    1.1860   15.1850 C   0  0  0  0  0  0  0  0  0  0  0  0
   10.8410   -0.0640   15.7470 C   0  0  0  0  0  0  0  0  0  0  0  0
   10.3870   -1.2190   15.1210 C   0  0  0  0  0  0  0  0  0  0  0  0
    9.6690   -1.1220   13.9300 C   0  0  0  0  0  0  0  0  0  0  0  0
    9.3960    0.1320   13.3640 C   0  0  0  0  0  0  0  0  0  0  0  0
    8.5560    0.1250   11.8470 Cl  0  0  0  0  0  0  0  0  0  0  0  0
   10.6000    3.3350   12.9670 N   0  0  0  0  0  0  0  0  0  0  0  0
   12.9103    4.7741   13.7786 H   0  0  0  0  0  0  0  0  0  0  0  0
   13.1072    3.6318   12.4063 H   0  0  0  0  0  0  0  0  0  0  0  0
   13.9897    5.1964   12.4063 H   0  0  0  0  0  0  0  0  0  0  0  0
    6.4260    4.6150   14.0050 H   0  0  0  0  0  0  0  0  0  0  0  0
    6.3770    4.6960   12.2820 H   0  0  0  0  0  0  0  0  0  0  0  0
   10.9361    2.0917   15.6891 H   0  0  0  0  0  0  0  0  0  0  0  0
   11.4142   -0.1338   16.6832 H   0  0  0  0  0  0  0  0  0  0  0  0
   10.5933   -2.2048   15.5632 H   0  0  0  0  0  0  0  0  0  0  0  0
    9.3140   -2.0355   13.4305 H   0  0  0  0  0  0  0  0  0  0  0  0
  1  2  1  0
  2  3  1  0
  3  4  2  0
  4  5  1  0
  5  6  1  0
  5  7  2  0
  7  8  1  0
  8  9  1  0
  9 10  2  0
 10 11  1  0
 11 12  2  0
 12 13  1  0
 13 14  2  0
 14 15  1  0
  8 16  2  0
 16  3  1  0
 14  9  1  0
  1 17  1  0
  1 18  1  0
  1 19  1  0
  6 20  1  0
  6 21  1  0
 10 22  1  0
 11 23  1  0
 12 24  1  0
 13 25  1  0
M  END
>  <meeko>  (1) 
{"is_sidechain": [false], "free_energy": -7.18, "intermolecular_energy": -8.23, "internal_energy": -0.27}

$$$$
3b27_ligand
     RDKit          3D

 25 26  0  0  0  0  0  0  0  0999 V2000
   13.1810    4.6740   12.8020 C   0  0  0  0  0  0  0  0  0  0  0  0
   11.8100    5.3800   11.8540 S   0  0  0  0  0  0  0  0  0  0  0  0
   10.4410    4.4900   12.5620 C   0  0  0  0  0  0  0  0  0  0  0  0
    9.2390    5.0580   12.5660 N   0  0  0  0  0  0  0  0  0  0  0  0
    8.2840    4.3350   13.1240 C   0  0  0  0  0  0  0  0  0  0  0  0
    7.0130    4.8730   13.1570 N   0  0  0  0  0  0  0  0  0  0  0  0
    8.4420    3.1250   13.6270 N   0  0  0  0  0  0  0  0  0  0  0  0
    9.6750    2.6320   13.5470 C   0  0  0  0  0  0  0  0  0  0  0  0
    9.9280    1.3030   14.1180 C   0  0  0  0  0  0  0  0  0  0  0  0
    9.4770    0.1590   13.4250 C   0  0  0  0  0  0  0  0  0  0  0  0
    9.7020   -1.1320   13.9110 C   0  0  0  0  0  0  0  0  0  0  0  0
   10.3820   -1.3120   15.1100 C   0  0  0  0  0  0  0  0  0  0  0  0
   10.8270   -0.2000   15.8240 C   0  0  0  0  0  0  0  0  0  0  0  0
   10.6010    1.0960   15.3380 C   0  0  0  0  0  0  0  0  0  0  0  0
   11.1390    2.4010   16.3450 Cl  0  0  0  0  0  0  0  0  0  0  0  0
   10.7200    3.2830   13.0420 N   0  0  0  0  0  0  0  0  0  0  0  0
   12.9758    4.7796   13.8775 H   0  0  0  0  0  0  0  0  0  0  0  0
   13.2890    3.6082   12.5523 H   0  0  0  0  0  0  0  0  0  0  0  0
   14.1113    5.2052   12.5523 H   0  0  0  0  0  0  0  0  0  0  0  0
    6.6660    5.0050   12.2160 H   0  0  0  0  0  0  0  0  0  0  0  0
    6.9760    5.6680   13.7770 H   0  0  0  0  0  0  0  0  0  0  0  0
    8.9339    0.2870   12.4770 H   0  0  0  0  0  0  0  0  0  0  0  0
    9.3416   -2.0041   13.3457 H   0  0  0  0  0  0  0  0  0  0  0  0
   10.5680   -2.3261   15.4934 H   0  0  0  0  0  0  0  0  0  0  0  0
   11.3596   -0.3404   16.7762 H   0  0  0  0  0  0  0  0  0  0  0  0
  1  2  1  0
  2  3  1  0
  3  4  2  0
  4  5  1  0
  5  6  1  0
  5  7  2  0
  7  8  1  0
  8  9  1  0
  9 10  2  0
 10 11  1  0
 11 12  2  0
 12 13  1  0
 13 14  2  0
 14 15  1  0
  8 16  2  0
 16  3  1  0
 14  9  1  0
  1 17  1  0
  1 18  1  0
  1 19  1  0
  6 20  1  0
  6 21  1  0
 10 22  1  0
 11 23  1  0
 12 24  1  0
 13 25  1  0
M  END
>  <meeko>  (2) 
{"is_sidechain": [false], "free_energy": -6.86, "intermolecular_energy": -7.87, "internal_energy": -0.263}

$$$$
3b27_ligand
     RDKit          3D

 25 26  0  0  0  0  0  0  0  0999 V2000
    9.3050   -0.4690   13.4900 C   0  0  0  0  0  0  0  0  0  0  0  0
    8.5480    0.3670   12.0750 S   0  0  0  0  0  0  0  0  0  0  0  0
    8.5140    2.0420   12.6730 C   0  0  0  0  0  0  0  0  0  0  0  0
    7.3740    2.7230   12.6120 N   0  0  0  0  0  0  0  0  0  0  0  0
    7.4410    3.9630   13.0630 C   0  0  0  0  0  0  0  0  0  0  0  0
    6.2880    4.7200   13.0250 N   0  0  0  0  0  0  0  0  0  0  0  0
    8.5190    4.5280   13.5760 N   0  0  0  0  0  0  0  0  0  0  0  0
    9.6000    3.7540   13.6220 C   0  0  0  0  0  0  0  0  0  0  0  0
   10.8430    4.3300   14.1500 C   0  0  0  0  0  0  0  0  0  0  0  0
   11.0620    4.3330   15.5450 C   0  0  0  0  0  0  0  0  0  0  0  0
   12.2330    4.8530   16.1040 C   0  0  0  0  0  0  0  0  0  0  0  0
   13.2150    5.3910   15.2800 C   0  0  0  0  0  0  0  0  0  0  0  0
   13.0200    5.4160   13.9010 C   0  0  0  0  0  0  0  0  0  0  0  0
   11.8450    4.8950   13.3380 C   0  0  0  0  0  0  0  0  0  0  0  0
   11.6850    5.0430   11.6180 Cl  0  0  0  0  0  0  0  0  0  0  0  0
    9.6590    2.5060   13.1630 N   0  0  0  0  0  0  0  0  0  0  0  0
    8.9140   -0.0372   14.4231 H   0  0  0  0  0  0  0  0  0  0  0  0
    9.0648   -1.5418   13.4535 H   0  0  0  0  0  0  0  0  0  0  0  0
   10.3963   -0.3361   13.4535 H   0  0  0  0  0  0  0  0  0  0  0  0
    6.1460    5.1830   13.9140 H   0  0  0  0  0  0  0  0  0  0  0  0
    5.5180    4.1820   12.6570 H   0  0  0  0  0  0  0  0  0  0  0  0
   10.2910    3.9153   16.2091 H   0  0  0  0  0  0  0  0  0  0  0  0
   12.3773    4.8365   17.1944 H   0  0  0  0  0  0  0  0  0  0  0  0
   14.1412    5.7949   15.7148 H   0  0  0  0  0  0  0  0  0  0  0  0
   13.7931    5.8475   13.2483 H   0  0  0  0  0  0  0  0  0  0  0  0
  1  2  1  0
  2  3  1  0
  3  4  2  0
  4  5  1  0
  5  6  1  0
  5  7  2  0
  7  8  1  0
  8  9  1  0
  9 10  2  0
 10 11  1  0
 11 12  2  0
 12 13  1  0
 13 14  2  0
 14 15  1  0
  8 16  2  0
 16  3  1  0
 14  9  1  0
  1 17  1  0
  1 18  1  0
  1 19  1  0
  6 20  1  0
  6 21  1  0
 10 22  1  0
 11 23  1  0
 12 24  1  0
 13 25  1  0
M  END
>  <meeko>  (3) 
{"is_sidechain": [false], "free_energy": -6.828, "intermolecular_energy": -7.809, "internal_energy": -0.287}

$$$$
3b27_ligand
     RDKit          3D

 25 26  0  0  0  0  0  0  0  0999 V2000
    5.5970    2.7120   13.9660 C   0  0  0  0  0  0  0  0  0  0  0  0
    6.3030    4.1450   13.1170 S   0  0  0  0  0  0  0  0  0  0  0  0
    8.0140    3.6620   13.0430 C   0  0  0  0  0  0  0  0  0  0  0  0
    8.8750    4.4430   12.3980 N   0  0  0  0  0  0  0  0  0  0  0  0
   10.1200    4.0020   12.3790 C   0  0  0  0  0  0  0  0  0  0  0  0
   11.0600    4.7710   11.7230 N   0  0  0  0  0  0  0  0  0  0  0  0
   10.5450    2.8960   12.9640 N   0  0  0  0  0  0  0  0  0  0  0  0
    9.6120    2.2010   13.6110 C   0  0  0  0  0  0  0  0  0  0  0  0
   10.0090    0.9440   14.2550 C   0  0  0  0  0  0  0  0  0  0  0  0
    9.6300   -0.2820   13.6650 C   0  0  0  0  0  0  0  0  0  0  0  0
    9.9920   -1.5110   14.2240 C   0  0  0  0  0  0  0  0  0  0  0  0
   10.7420   -1.5450   15.3940 C   0  0  0  0  0  0  0  0  0  0  0  0
   11.1180   -0.3510   16.0070 C   0  0  0  0  0  0  0  0  0  0  0  0
   10.7540    0.8830   15.4480 C   0  0  0  0  0  0  0  0  0  0  0  0
   11.2200    2.2970   16.3360 Cl  0  0  0  0  0  0  0  0  0  0  0  0
    8.3230    2.5290   13.6640 N   0  0  0  0  0  0  0  0  0  0  0  0
    5.6690    2.8582   15.0539 H   0  0  0  0  0  0  0  0  0  0  0  0
    4.5407    2.6002   13.6802 H   0  0  0  0  0  0  0  0  0  0  0  0
    6.1520    1.8063   13.6802 H   0  0  0  0  0  0  0  0  0  0  0  0
   11.1590    4.4570   10.7650 H   0  0  0  0  0  0  0  0  0  0  0  0
   11.9040    4.8520   12.2710 H   0  0  0  0  0  0  0  0  0  0  0  0
    9.0339   -0.2694   12.7406 H   0  0  0  0  0  0  0  0  0  0  0  0
    9.6841   -2.4492   13.7392 H   0  0  0  0  0  0  0  0  0  0  0  0
   11.0372   -2.5091   15.8337 H   0  0  0  0  0  0  0  0  0  0  0  0
   11.7051   -0.3766   16.9369 H   0  0  0  0  0  0  0  0  0  0  0  0
  1  2  1  0
  2  3  1  0
  3  4  2  0
  4  5  1  0
  5  6  1  0
  5  7  2  0
  7  8  1  0
  8  9  1  0
  9 10  2  0
 10 11  1  0
 11 12  2  0
 12 13  1  0
 13 14  2  0
 14 15  1  0
  8 16  2  0
 16  3  1  0
 14  9  1  0
  1 17  1  0
  1 18  1  0
  1 19  1  0
  6 20  1  0
  6 21  1  0
 10 22  1  0
 11 23  1  0
 12 24  1  0
 13 25  1  0
M  END
>  <meeko>  (4) 
{"is_sidechain": [false], "free_energy": -6.224, "intermolecular_energy": -7.126, "internal_energy": -0.277}

$$$$
3b27_ligand
     RDKit          3D

 25 26  0  0  0  0  0  0  0  0999 V2000
   11.2970    3.6820   17.6210 C   0  0  0  0  0  0  0  0  0  0  0  0
   12.8450    4.1930   16.8380 S   0  0  0  0  0  0  0  0  0  0  0  0
   12.3780    4.1110   15.1230 C   0  0  0  0  0  0  0  0  0  0  0  0
   13.1110    4.7620   14.2250 N   0  0  0  0  0  0  0  0  0  0  0  0
   12.6850    4.6600   12.9790 C   0  0  0  0  0  0  0  0  0  0  0  0
   13.4060    5.3160   12.0020 N   0  0  0  0  0  0  0  0  0  0  0  0
   11.6390    3.9550   12.5880 N   0  0  0  0  0  0  0  0  0  0  0  0
   10.9910    3.3140   13.5570 C   0  0  0  0  0  0  0  0  0  0  0  0
    9.7980    2.5380   13.1970 C   0  0  0  0  0  0  0  0  0  0  0  0
    9.9180    1.1460   12.9930 C   0  0  0  0  0  0  0  0  0  0  0  0
    8.8150    0.3530   12.6630 C   0  0  0  0  0  0  0  0  0  0  0  0
    7.5610    0.9350   12.5240 C   0  0  0  0  0  0  0  0  0  0  0  0
    7.4140    2.3090   12.7050 C   0  0  0  0  0  0  0  0  0  0  0  0
    8.5200    3.1070   13.0350 C   0  0  0  0  0  0  0  0  0  0  0  0
    8.2280    4.8100   13.1670 Cl  0  0  0  0  0  0  0  0  0  0  0  0
   11.3060    3.3750   14.8490 N   0  0  0  0  0  0  0  0  0  0  0  0
   11.4095    3.7191   18.7146 H   0  0  0  0  0  0  0  0  0  0  0  0
   10.4884    4.3609   17.3123 H   0  0  0  0  0  0  0  0  0  0  0  0
   11.0515    2.6551   17.3123 H   0  0  0  0  0  0  0  0  0  0  0  0
   13.8730    4.6450   11.4040 H   0  0  0  0  0  0  0  0  0  0  0  0
   13.9730    6.0480   12.4040 H   0  0  0  0  0  0  0  0  0  0  0  0
   10.9057    0.6729   13.0965 H   0  0  0  0  0  0  0  0  0  0  0  0
    8.9396   -0.7297   12.5137 H   0  0  0  0  0  0  0  0  0  0  0  0
    6.6885    0.3143   12.2723 H   0  0  0  0  0  0  0  0  0  0  0  0
    6.4229    2.7717   12.5882 H   0  0  0  0  0  0  0  0  0  0  0  0
  1  2  1  0
  2  3  1  0
  3  4  2  0
  4  5  1  0
  5  6  1  0
  5  7  2  0
  7  8  1  0
  8  9  1  0
  9 10  2  0
 10 11  1  0
 11 12  2  0
 12 13  1  0
 13 14  2  0
 14 15  1  0
  8 16  2  0
 16  3  1  0
 14  9  1  0
  1 17  1  0
  1 18  1  0
  1 19  1  0
  6 20  1  0
  6 21  1  0
 10 22  1  0
 11 23  1  0
 12 24  1  0
 13 25  1  0
M  END
>  <meeko>  (5) 
{"is_sidechain": [false], "free_energy": -6.124, "intermolecular_energy": -6.999, "internal_energy": -0.29}

$$$$
3b27_ligand
     RDKit          3D

 25 26  0  0  0  0  0  0  0  0999 V2000
   12.6300    5.2140   12.3250 C   0  0  0  0  0  0  0  0  0  0  0  0
   13.3890    4.9290   13.9430 S   0  0  0  0  0  0  0  0  0  0  0  0
   12.2320    3.7710   14.6400 C   0  0  0  0  0  0  0  0  0  0  0  0
   12.3180    3.4760   15.9330 N   0  0  0  0  0  0  0  0  0  0  0  0
   11.4310    2.5960   16.3640 C   0  0  0  0  0  0  0  0  0  0  0  0
   11.4710    2.2500   17.6990 N   0  0  0  0  0  0  0  0  0  0  0  0
   10.4880    2.0430   15.6230 N   0  0  0  0  0  0  0  0  0  0  0  0
   10.4660    2.4270   14.3500 C   0  0  0  0  0  0  0  0  0  0  0  0
    9.4630    1.8250   13.4620 C   0  0  0  0  0  0  0  0  0  0  0  0
    9.6280    0.4850   13.0480 C   0  0  0  0  0  0  0  0  0  0  0  0
    8.6980   -0.1470   12.2170 C   0  0  0  0  0  0  0  0  0  0  0  0
    7.5790    0.5490   11.7740 C   0  0  0  0  0  0  0  0  0  0  0  0
    7.3980    1.8770   12.1550 C   0  0  0  0  0  0  0  0  0  0  0  0
    8.3300    2.5130   12.9880 C   0  0  0  0  0  0  0  0  0  0  0  0
    8.0340    4.1850   13.3380 Cl  0  0  0  0  0  0  0  0  0  0  0  0
   11.3310    3.2750   13.7990 N   0  0  0  0  0  0  0  0  0  0  0  0
   11.6082    5.5977   12.4618 H   0  0  0  0  0  0  0  0  0  0  0  0
   13.2260    5.9496   11.7649 H   0  0  0  0  0  0  0  0  0  0  0  0
   12.5945    4.2680   11.7649 H   0  0  0  0  0  0  0  0  0  0  0  0
   10.6300    1.7480   17.9540 H   0  0  0  0  0  0  0  0  0  0  0  0
   11.7250    3.0440   18.2680 H   0  0  0  0  0  0  0  0  0  0  0  0
   10.5110   -0.0760   13.3881 H   0  0  0  0  0  0  0  0  0  0  0  0
    8.8515   -1.1933   11.9142 H   0  0  0  0  0  0  0  0  0  0  0  0
    6.8405    0.0540   11.1262 H   0  0  0  0  0  0  0  0  0  0  0  0
    6.5168    2.4312   11.7995 H   0  0  0  0  0  0  0  0  0  0  0  0
  1  2  1  0
  2  3  1  0
  3  4  2  0
  4  5  1  0
  5  6  1  0
  5  7  2  0
  7  8  1  0
  8  9  1  0
  9 10  2  0
 10 11  1  0
 11 12  2  0
 12 13  1  0
 13 14  2  0
 14 15  1  0
  8 16  2  0
 16  3  1  0
 14  9  1  0
  1 17  1  0
  1 18  1  0
  1 19  1  0
  6 20  1  0
  6 21  1  0
 10 22  1  0
 11 23  1  0
 12 24  1  0
 13 25  1  0
M  END
>  <meeko>  (6) 
{"is_sidechain": [false], "free_energy": -6.075, "intermolecular_energy": -6.971, "internal_energy": -0.262}

$$$$
3b27_ligand
     RDKit          3D

 25 26  0  0  0  0  0  0  0  0999 V2000
   14.6460    0.5670   17.9180 C   0  0  0  0  0  0  0  0  0  0  0  0
   14.3760   -0.3800   16.4010 S   0  0  0  0  0  0  0  0  0  0  0  0
   12.6020   -0.5200   16.4230 C   0  0  0  0  0  0  0  0  0  0  0  0
   12.0180   -1.1160   17.4580 N   0  0  0  0  0  0  0  0  0  0  0  0
   10.7000   -1.1910   17.3870 C   0  0  0  0  0  0  0  0  0  0  0  0
   10.0370   -1.8000   18.4320 N   0  0  0  0  0  0  0  0  0  0  0  0
    9.9630   -0.7010   16.4060 N   0  0  0  0  0  0  0  0  0  0  0  0
   10.6400   -0.0960   15.4340 C   0  0  0  0  0  0  0  0  0  0  0  0
    9.8840    0.4420   14.2950 C   0  0  0  0  0  0  0  0  0  0  0  0
    9.2780   -0.4540   13.3880 C   0  0  0  0  0  0  0  0  0  0  0  0
    8.5320   -0.0020   12.2950 C   0  0  0  0  0  0  0  0  0  0  0  0
    8.3780    1.3630   12.0790 C   0  0  0  0  0  0  0  0  0  0  0  0
    8.9770    2.2710   12.9500 C   0  0  0  0  0  0  0  0  0  0  0  0
    9.7270    1.8180   14.0470 C   0  0  0  0  0  0  0  0  0  0  0  0
   10.4810    3.0390   15.0200 Cl  0  0  0  0  0  0  0  0  0  0  0  0
   11.9660    0.0050   15.3820 N   0  0  0  0  0  0  0  0  0  0  0  0
   14.4622   -0.0776   18.7902 H   0  0  0  0  0  0  0  0  0  0  0  0
   15.6837    0.9310   17.9432 H   0  0  0  0  0  0  0  0  0  0  0  0
   13.9563    1.4235   17.9432 H   0  0  0  0  0  0  0  0  0  0  0  0
   10.6870   -2.3400   18.9890 H   0  0  0  0  0  0  0  0  0  0  0  0
    9.2070   -2.2720   18.1050 H   0  0  0  0  0  0  0  0  0  0  0  0
    9.3957   -1.5363   13.5452 H   0  0  0  0  0  0  0  0  0  0  0  0
    8.0680   -0.7246   11.6076 H   0  0  0  0  0  0  0  0  0  0  0  0
    7.7863    1.7242   11.2249 H   0  0  0  0  0  0  0  0  0  0  0  0
    8.8613    3.3511   12.7767 H   0  0  0  0  0  0  0  0  0  0  0  0
  1  2  1  0
  2  3  1  0
  3  4  2  0
  4  5  1  0
  5  6  1  0
  5  7  2  0
  7  8  1  0
  8  9  1  0
  9 10  2  0
 10 11  1  0
 11 12  2  0
 12 13  1  0
 13 14  2  0
 14 15  1  0
  8 16  2  0
 16  3  1  0
 14  9  1  0
  1 17  1  0
  1 18  1  0
  1 19  1  0
  6 20  1  0
  6 21  1  0
 10 22  1  0
 11 23  1  0
 12 24  1  0
 13 25  1  0
M  END
>  <meeko>  (7) 
{"is_sidechain": [false], "free_energy": -5.978, "intermolecular_energy": -6.899, "internal_energy": -0.223}

$$$$
3b27_ligand
     RDKit          3D

 25 26  0  0  0  0  0  0  0  0999 V2000
    5.1410    3.1150   13.9400 C   0  0  0  0  0  0  0  0  0  0  0  0
    6.1730    4.1000   12.8280 S   0  0  0  0  0  0  0  0  0  0  0  0
    7.7360    3.2730   13.0260 C   0  0  0  0  0  0  0  0  0  0  0  0
    7.8430    2.0020   12.6520 N   0  0  0  0  0  0  0  0  0  0  0  0
    9.0320    1.4610   12.8480 C   0  0  0  0  0  0  0  0  0  0  0  0
    9.2030    0.1430   12.4780 N   0  0  0  0  0  0  0  0  0  0  0  0
   10.0820    2.0920   13.3440 N   0  0  0  0  0  0  0  0  0  0  0  0
    9.8810    3.3690   13.6590 C   0  0  0  0  0  0  0  0  0  0  0  0
   10.9970    4.1200   14.2470 C   0  0  0  0  0  0  0  0  0  0  0  0
   11.1360    4.1590   15.6520 C   0  0  0  0  0  0  0  0  0  0  0  0
   12.1870    4.8440   16.2680 C   0  0  0  0  0  0  0  0  0  0  0  0
   13.1260    5.5140   15.4930 C   0  0  0  0  0  0  0  0  0  0  0  0
   13.0070    5.5050   14.1040 C   0  0  0  0  0  0  0  0  0  0  0  0
   11.9520    4.8190   13.4840 C   0  0  0  0  0  0  0  0  0  0  0  0
   11.8690    4.9350   11.7560 Cl  0  0  0  0  0  0  0  0  0  0  0  0
    8.7190    4.0060   13.5400 N   0  0  0  0  0  0  0  0  0  0  0  0
    5.3930    3.3555   14.9834 H   0  0  0  0  0  0  0  0  0  0  0  0
    4.0811    3.3449   13.7564 H   0  0  0  0  0  0  0  0  0  0  0  0
    5.3213    2.0455   13.7564 H   0  0  0  0  0  0  0  0  0  0  0  0
    9.4720    0.0870   11.5050 H   0  0  0  0  0  0  0  0  0  0  0  0
    8.4170   -0.4170   12.7730 H   0  0  0  0  0  0  0  0  0  0  0  0
   10.3976    3.6365   16.2779 H   0  0  0  0  0  0  0  0  0  0  0  0
   12.2708    4.8528   17.3648 H   0  0  0  0  0  0  0  0  0  0  0  0
   13.9589    6.0487   15.9730 H   0  0  0  0  0  0  0  0  0  0  0  0
   13.7460    6.0399   13.4894 H   0  0  0  0  0  0  0  0  0  0  0  0
  1  2  1  0
  2  3  1  0
  3  4  2  0
  4  5  1  0
  5  6  1  0
  5  7  2  0
  7  8  1  0
  8  9  1  0
  9 10  2  0
 10 11  1  0
 11 12  2  0
 12 13  1  0
 13 14  2  0
 14 15  1  0
  8 16  2  0
 16  3  1  0
 14  9  1  0
  1 17  1  0
  1 18  1  0
  1 19  1  0
  6 20  1  0
  6 21  1  0
 10 22  1  0
 11 23  1  0
 12 24  1  0
 13 25  1  0
M  END
>  <meeko>  (8) 
{"is_sidechain": [false], "free_energy": -5.893, "intermolecular_energy": -6.754, "internal_energy": -0.27}

$$$$
3b27_ligand
     RDKit          3D

 25 26  0  0  0  0  0  0  0  0999 V2000
   12.0890    0.0700   20.0330 C   0  0  0  0  0  0  0  0  0  0  0  0
   10.5510   -0.4330   19.2250 S   0  0  0  0  0  0  0  0  0  0  0  0
   11.1210   -0.6360   17.5520 C   0  0  0  0  0  0  0  0  0  0  0  0
   12.2530   -1.2990   17.3340 N   0  0  0  0  0  0  0  0  0  0  0  0
   12.6100   -1.3890   16.0650 C   0  0  0  0  0  0  0  0  0  0  0  0
   13.7780   -2.0660   15.7780 N   0  0  0  0  0  0  0  0  0  0  0  0
   11.9220   -0.9080   15.0460 N   0  0  0  0  0  0  0  0  0  0  0  0
   10.7880   -0.2900   15.3660 C   0  0  0  0  0  0  0  0  0  0  0  0
    9.9920    0.2990   14.2820 C   0  0  0  0  0  0  0  0  0  0  0  0
    9.3060   -0.5550   13.3910 C   0  0  0  0  0  0  0  0  0  0  0  0
    8.5190   -0.0530   12.3500 C   0  0  0  0  0  0  0  0  0  0  0  0
    8.4020    1.3200   12.1710 C   0  0  0  0  0  0  0  0  0  0  0  0
    9.0790    2.1880   13.0260 C   0  0  0  0  0  0  0  0  0  0  0  0
    9.8700    1.6850   14.0700 C   0  0  0  0  0  0  0  0  0  0  0  0
   10.7190    2.8570   15.0250 Cl  0  0  0  0  0  0  0  0  0  0  0  0
   10.3490   -0.1060   16.6080 N   0  0  0  0  0  0  0  0  0  0  0  0
   11.9604    0.0280   21.1247 H   0  0  0  0  0  0  0  0  0  0  0  0
   12.9002   -0.6097   19.7329 H   0  0  0  0  0  0  0  0  0  0  0  0
   12.3418    1.0976   19.7329 H   0  0  0  0  0  0  0  0  0  0  0  0
   13.8010   -2.3190   14.7980 H   0  0  0  0  0  0  0  0  0  0  0  0
   13.9400   -2.8030   16.4480 H   0  0  0  0  0  0  0  0  0  0  0  0
    9.3930   -1.6440   13.5192 H   0  0  0  0  0  0  0  0  0  0  0  0
    7.9935   -0.7436   11.6741 H   0  0  0  0  0  0  0  0  0  0  0  0
    7.7780    1.7200   11.3583 H   0  0  0  0  0  0  0  0  0  0  0  0
    8.9925    3.2750   12.8813 H   0  0  0  0  0  0  0  0  0  0  0  0
  1  2  1  0
  2  3  1  0
  3  4  2  0
  4  5  1  0
  5  6  1  0
  5  7  2  0
  7  8  1  0
  8  9  1  0
  9 10  2  0
 10 11  1  0
 11 12  2  0
 12 13  1  0
 13 14  2  0
 14 15  1  0
  8 16  2  0
 16  3  1  0
 14  9  1  0
  1 17  1  0
  1 18  1  0
  1 19  1  0
  6 20  1  0
  6 21  1  0
 10 22  1  0
 11 23  1  0
 12 24  1  0
 13 25  1  0
M  END
>  <meeko>  (9) 
{"is_sidechain": [false], "free_energy": -5.873, "intermolecular_energy": -6.776, "internal_energy": -0.225}

$$$$
