3bgz_ligand
     RDKit          3D

 38 41  0  0  0  0  0  0  0  0999 V2000
  -15.9760   35.0860    1.4340 O   0  0  0  0  0  0  0  0  0  0  0  0
  -16.7240   35.4010    2.4190 C   0  0  0  0  0  0  0  0  0  0  0  0
  -16.7410   34.8310    3.5540 O   0  0  0  0  0  0  0  0  0  0  0  0
  -17.6710   36.5600    2.2100 C   0  0  0  0  0  0  0  0  0  0  0  0
  -18.0520   37.4310    3.2460 C   0  0  0  0  0  0  0  0  0  0  0  0
  -18.9200   38.5010    3.0200 C   0  0  0  0  0  0  0  0  0  0  0  0
  -19.4430   38.7400    1.7430 C   0  0  0  0  0  0  0  0  0  0  0  0
  -19.0910   37.8840    0.6790 C   0  0  0  0  0  0  0  0  0  0  0  0
  -19.4110   37.8210   -0.7200 C   0  0  0  0  0  0  0  0  0  0  0  0
  -20.2670   38.7240   -1.4740 C   0  0  0  0  0  0  0  0  0  0  0  0
  -21.6080   38.8860   -1.1050 C   0  0  0  0  0  0  0  0  0  0  0  0
  -22.4350   39.7550   -1.8200 C   0  0  0  0  0  0  0  0  0  0  0  0
  -21.9260   40.4700   -2.9040 C   0  0  0  0  0  0  0  0  0  0  0  0
  -20.5900   40.3170   -3.2740 C   0  0  0  0  0  0  0  0  0  0  0  0
  -19.7610   39.4490   -2.5600 C   0  0  0  0  0  0  0  0  0  0  0  0
  -18.7310   36.7350   -1.2730 C   0  0  0  0  0  0  0  0  0  0  0  0
  -18.6790   36.1710   -2.6250 C   0  0  0  0  0  0  0  0  0  0  0  0
  -17.4450   35.8870   -3.2280 C   0  0  0  0  0  0  0  0  0  0  0  0
  -17.3880   35.3470   -4.5160 C   0  0  0  0  0  0  0  0  0  0  0  0
  -18.5640   35.0830   -5.2150 C   0  0  0  0  0  0  0  0  0  0  0  0
  -19.7970   35.3560   -4.6260 C   0  0  0  0  0  0  0  0  0  0  0  0
  -19.8530   35.8940   -3.3370 C   0  0  0  0  0  0  0  0  0  0  0  0
  -18.0280   36.1580   -0.2370 N   0  0  0  0  0  0  0  0  0  0  0  0
  -18.2240   36.8340    0.9450 C   0  0  0  0  0  0  0  0  0  0  0  0
  -17.6566   37.2654    4.2590 H   0  0  0  0  0  0  0  0  0  0  0  0
  -19.1960   39.1633    3.8538 H   0  0  0  0  0  0  0  0  0  0  0  0
  -20.1224   39.5880    1.5714 H   0  0  0  0  0  0  0  0  0  0  0  0
  -22.0118   38.3264   -0.2483 H   0  0  0  0  0  0  0  0  0  0  0  0
  -23.4887   39.8757   -1.5280 H   0  0  0  0  0  0  0  0  0  0  0  0
  -22.5780   41.1542   -3.4668 H   0  0  0  0  0  0  0  0  0  0  0  0
  -20.1888   40.8806   -4.1292 H   0  0  0  0  0  0  0  0  0  0  0  0
  -18.7066   39.3344   -2.8518 H   0  0  0  0  0  0  0  0  0  0  0  0
  -16.5124   36.0913   -2.6817 H   0  0  0  0  0  0  0  0  0  0  0  0
  -16.4137   35.1302   -4.9782 H   0  0  0  0  0  0  0  0  0  0  0  0
  -18.5192   34.6601   -6.2295 H   0  0  0  0  0  0  0  0  0  0  0  0
  -20.7268   35.1480   -5.1757 H   0  0  0  0  0  0  0  0  0  0  0  0
  -20.8301   36.1022   -2.8766 H   0  0  0  0  0  0  0  0  0  0  0  0
  -17.4310   35.3350   -0.2720 H   0  0  0  0  0  0  0  0  0  0  0  0
  1  2  2  0
  2  3  1  0
  2  4  1  0
  4  5  2  0
  5  6  1  0
  6  7  2  0
  7  8  1  0
  8  9  1  0
  9 10  1  0
 10 11  2  0
 11 12  1  0
 12 13  2  0
 13 14  1  0
 14 15  2  0
  9 16  2  0
 16 17  1  0
 17 18  2  0
 18 19  1  0
 19 20  2  0
 20 21  1  0
 21 22  2  0
 16 23  1  0
 23 24  1  0
 24  4  1  0
 24  8  2  0
 15 10  1  0
 22 17  1  0
  5 25  1  0
  6 26  1  0
  7 27  1  0
 11 28  1  0
 12 29  1  0
 13 30  1  0
 14 31  1  0
 15 32  1  0
 18 33  1  0
 19 34  1  0
 20 35  1  0
 21 36  1  0
 22 37  1  0
 23 38  1  0
M  CHG  1   3  -1
M  END
>  <meeko>  (1) 
{"is_sidechain": [false], "free_energy": -10.848, "intermolecular_energy": -12.75, "internal_energy": -1.231}

$$$$
3bgz_ligand
     RDKit          3D

 38 41  0  0  0  0  0  0  0  0999 V2000
  -19.9600   40.8740   -4.2140 O   0  0  0  0  0  0  0  0  0  0  0  0
  -21.0580   40.4410   -3.7270 C   0  0  0  0  0  0  0  0  0  0  0  0
  -22.1600   40.3390   -4.3490 O   0  0  0  0  0  0  0  0  0  0  0  0
  -21.0360   40.0100   -2.2780 C   0  0  0  0  0  0  0  0  0  0  0  0
  -21.8760   40.5720   -1.3010 C   0  0  0  0  0  0  0  0  0  0  0  0
  -21.8440   40.1440    0.0270 C   0  0  0  0  0  0  0  0  0  0  0  0
  -20.9620   39.1330    0.4310 C   0  0  0  0  0  0  0  0  0  0  0  0
  -20.0960   38.5500   -0.5180 C   0  0  0  0  0  0  0  0  0  0  0  0
  -19.0970   37.5190   -0.4800 C   0  0  0  0  0  0  0  0  0  0  0  0
  -18.6840   36.7280    0.6700 C   0  0  0  0  0  0  0  0  0  0  0  0
  -19.4290   35.6050    1.0500 C   0  0  0  0  0  0  0  0  0  0  0  0
  -19.0370   34.8380    2.1480 C   0  0  0  0  0  0  0  0  0  0  0  0
  -17.8960   35.1870    2.8710 C   0  0  0  0  0  0  0  0  0  0  0  0
  -17.1470   36.3010    2.4970 C   0  0  0  0  0  0  0  0  0  0  0  0
  -17.5370   37.0700    1.3970 C   0  0  0  0  0  0  0  0  0  0  0  0
  -18.5800   37.3670   -1.7670 C   0  0  0  0  0  0  0  0  0  0  0  0
  -17.5430   36.4970   -2.3320 C   0  0  0  0  0  0  0  0  0  0  0  0
  -16.9330   36.8210   -3.5520 C   0  0  0  0  0  0  0  0  0  0  0  0
  -15.9420   35.9980   -4.0950 C   0  0  0  0  0  0  0  0  0  0  0  0
  -15.5480   34.8440   -3.4230 C   0  0  0  0  0  0  0  0  0  0  0  0
  -16.1430   34.5120   -2.2070 C   0  0  0  0  0  0  0  0  0  0  0  0
  -17.1320   35.3360   -1.6640 C   0  0  0  0  0  0  0  0  0  0  0  0
  -19.2430   38.2830   -2.5550 N   0  0  0  0  0  0  0  0  0  0  0  0
  -20.1630   39.0010   -1.8290 C   0  0  0  0  0  0  0  0  0  0  0  0
  -22.5763   41.3693   -1.5905 H   0  0  0  0  0  0  0  0  0  0  0  0
  -22.5180   40.6050    0.7640 H   0  0  0  0  0  0  0  0  0  0  0  0
  -20.9449   38.7970    1.4783 H   0  0  0  0  0  0  0  0  0  0  0  0
  -20.3276   35.3260    0.4803 H   0  0  0  0  0  0  0  0  0  0  0  0
  -19.6276   33.9583    2.4434 H   0  0  0  0  0  0  0  0  0  0  0  0
  -17.5875   34.5825    3.7367 H   0  0  0  0  0  0  0  0  0  0  0  0
  -16.2478   36.5754    3.0681 H   0  0  0  0  0  0  0  0  0  0  0  0
  -16.9413   37.9463    1.1015 H   0  0  0  0  0  0  0  0  0  0  0  0
  -17.2374   37.7323   -4.0876 H   0  0  0  0  0  0  0  0  0  0  0  0
  -15.4730   36.2624   -5.0542 H   0  0  0  0  0  0  0  0  0  0  0  0
  -14.7690   34.1958   -3.8507 H   0  0  0  0  0  0  0  0  0  0  0  0
  -15.8336   33.6006   -1.6745 H   0  0  0  0  0  0  0  0  0  0  0  0
  -17.5931   35.0703   -0.7013 H   0  0  0  0  0  0  0  0  0  0  0  0
  -19.1120   38.4600   -3.5480 H   0  0  0  0  0  0  0  0  0  0  0  0
  1  2  2  0
  2  3  1  0
  2  4  1  0
  4  5  2  0
  5  6  1  0
  6  7  2  0
  7  8  1  0
  8  9  1  0
  9 10  1  0
 10 11  2  0
 11 12  1  0
 12 13  2  0
 13 14  1  0
 14 15  2  0
  9 16  2  0
 16 17  1  0
 17 18  2  0
 18 19  1  0
 19 20  2  0
 20 21  1  0
 21 22  2  0
 16 23  1  0
 23 24  1  0
 24  4  1  0
 24  8  2  0
 15 10  1  0
 22 17  1  0
  5 25  1  0
  6 26  1  0
  7 27  1  0
 11 28  1  0
 12 29  1  0
 13 30  1  0
 14 31  1  0
 15 32  1  0
 18 33  1  0
 19 34  1  0
 20 35  1  0
 21 36  1  0
 22 37  1  0
 23 38  1  0
M  CHG  1   3  -1
M  END
>  <meeko>  (2) 
{"is_sidechain": [false], "free_energy": -9.767, "intermolecular_energy": -11.587, "internal_energy": -1.124}

$$$$
3bgz_ligand
     RDKit          3D

 38 41  0  0  0  0  0  0  0  0999 V2000
  -16.1820   35.3040    2.6320 O   0  0  0  0  0  0  0  0  0  0  0  0
  -17.2250   35.2800    1.8970 C   0  0  0  0  0  0  0  0  0  0  0  0
  -18.4260   35.3640    2.3040 O   0  0  0  0  0  0  0  0  0  0  0  0
  -17.0060   35.1410    0.4070 C   0  0  0  0  0  0  0  0  0  0  0  0
  -16.0750   34.2450   -0.1470 C   0  0  0  0  0  0  0  0  0  0  0  0
  -15.9040   34.1290   -1.5280 C   0  0  0  0  0  0  0  0  0  0  0  0
  -16.6600   34.9110   -2.4100 C   0  0  0  0  0  0  0  0  0  0  0  0
  -17.5980   35.8280   -1.8920 C   0  0  0  0  0  0  0  0  0  0  0  0
  -18.5280   36.7610   -2.4660 C   0  0  0  0  0  0  0  0  0  0  0  0
  -18.7640   37.0190   -3.8790 C   0  0  0  0  0  0  0  0  0  0  0  0
  -19.8540   36.4230   -4.5250 C   0  0  0  0  0  0  0  0  0  0  0  0
  -20.0910   36.6700   -5.8790 C   0  0  0  0  0  0  0  0  0  0  0  0
  -19.2430   37.5170   -6.5930 C   0  0  0  0  0  0  0  0  0  0  0  0
  -18.1590   38.1180   -5.9540 C   0  0  0  0  0  0  0  0  0  0  0  0
  -17.9210   37.8720   -4.6000 C   0  0  0  0  0  0  0  0  0  0  0  0
  -19.2140   37.3880   -1.4250 C   0  0  0  0  0  0  0  0  0  0  0  0
  -20.2510   38.4230   -1.3920 C   0  0  0  0  0  0  0  0  0  0  0  0
  -21.3730   38.2780   -0.5630 C   0  0  0  0  0  0  0  0  0  0  0  0
  -22.3640   39.2620   -0.5240 C   0  0  0  0  0  0  0  0  0  0  0  0
  -22.2450   40.4040   -1.3120 C   0  0  0  0  0  0  0  0  0  0  0  0
  -21.1330   40.5640   -2.1380 C   0  0  0  0  0  0  0  0  0  0  0  0
  -20.1420   39.5800   -2.1740 C   0  0  0  0  0  0  0  0  0  0  0  0
  -18.7080   36.8530   -0.2600 N   0  0  0  0  0  0  0  0  0  0  0  0
  -17.7410   35.9100   -0.5140 C   0  0  0  0  0  0  0  0  0  0  0  0
  -15.4666   33.6203    0.5236 H   0  0  0  0  0  0  0  0  0  0  0  0
  -15.1677   33.4159   -1.9272 H   0  0  0  0  0  0  0  0  0  0  0  0
  -16.5235   34.8110   -3.4969 H   0  0  0  0  0  0  0  0  0  0  0  0
  -20.5264   35.7575   -3.9637 H   0  0  0  0  0  0  0  0  0  0  0  0
  -20.9466   36.1965   -6.3827 H   0  0  0  0  0  0  0  0  0  0  0  0
  -19.4294   37.7107   -7.6597 H   0  0  0  0  0  0  0  0  0  0  0  0
  -17.4908   38.7864   -6.5169 H   0  0  0  0  0  0  0  0  0  0  0  0
  -17.0672   38.3508   -4.0982 H   0  0  0  0  0  0  0  0  0  0  0  0
  -21.4738   37.3795    0.0635 H   0  0  0  0  0  0  0  0  0  0  0  0
  -23.2393   39.1345    0.1299 H   0  0  0  0  0  0  0  0  0  0  0  0
  -23.0262   41.1779   -1.2829 H   0  0  0  0  0  0  0  0  0  0  0  0
  -21.0361   41.4651   -2.7613 H   0  0  0  0  0  0  0  0  0  0  0  0
  -19.2653   39.7155   -2.8244 H   0  0  0  0  0  0  0  0  0  0  0  0
  -18.9670   37.0870    0.6960 H   0  0  0  0  0  0  0  0  0  0  0  0
  1  2  2  0
  2  3  1  0
  2  4  1  0
  4  5  2  0
  5  6  1  0
  6  7  2  0
  7  8  1  0
  8  9  1  0
  9 10  1  0
 10 11  2  0
 11 12  1  0
 12 13  2  0
 13 14  1  0
 14 15  2  0
  9 16  2  0
 16 17  1  0
 17 18  2  0
 18 19  1  0
 19 20  2  0
 20 21  1  0
 21 22  2  0
 16 23  1  0
 23 24  1  0
 24  4  1  0
 24  8  2  0
 15 10  1  0
 22 17  1  0
  5 25  1  0
  6 26  1  0
  7 27  1  0
 11 28  1  0
 12 29  1  0
 13 30  1  0
 14 31  1  0
 15 32  1  0
 18 33  1  0
 19 34  1  0
 20 35  1  0
 21 36  1  0
 22 37  1  0
 23 38  1  0
M  CHG  1   3  -1
M  END
>  <meeko>  (3) 
{"is_sidechain": [false], "free_energy": -9.752, "intermolecular_energy": -11.303, "internal_energy": -1.39}

$$$$
3bgz_ligand
     RDKit          3D

 38 41  0  0  0  0  0  0  0  0999 V2000
  -15.8920   36.7290   -6.6530 O   0  0  0  0  0  0  0  0  0  0  0  0
  -16.8930   36.7390   -5.8620 C   0  0  0  0  0  0  0  0  0  0  0  0
  -18.0550   37.1740   -6.1350 O   0  0  0  0  0  0  0  0  0  0  0  0
  -16.6700   36.1780   -4.4760 C   0  0  0  0  0  0  0  0  0  0  0  0
  -15.6870   35.2150   -4.1900 C   0  0  0  0  0  0  0  0  0  0  0  0
  -15.4960   34.7260   -2.8970 C   0  0  0  0  0  0  0  0  0  0  0  0
  -16.2880   35.1820   -1.8350 C   0  0  0  0  0  0  0  0  0  0  0  0
  -17.2910   36.1420   -2.0830 C   0  0  0  0  0  0  0  0  0  0  0  0
  -18.2590   36.8290   -1.2730 C   0  0  0  0  0  0  0  0  0  0  0  0
  -18.4680   36.6970    0.1600 C   0  0  0  0  0  0  0  0  0  0  0  0
  -18.2850   37.8040    0.9980 C   0  0  0  0  0  0  0  0  0  0  0  0
  -18.4890   37.6870    2.3750 C   0  0  0  0  0  0  0  0  0  0  0  0
  -18.8810   36.4640    2.9210 C   0  0  0  0  0  0  0  0  0  0  0  0
  -19.0690   35.3590    2.0920 C   0  0  0  0  0  0  0  0  0  0  0  0
  -18.8660   35.4740    0.7150 C   0  0  0  0  0  0  0  0  0  0  0  0
  -18.9790   37.6950   -2.0980 C   0  0  0  0  0  0  0  0  0  0  0  0
  -20.0850   38.6240   -1.8490 C   0  0  0  0  0  0  0  0  0  0  0  0
  -20.0970   39.8910   -2.4490 C   0  0  0  0  0  0  0  0  0  0  0  0
  -21.1490   40.7810   -2.2180 C   0  0  0  0  0  0  0  0  0  0  0  0
  -22.2030   40.4140   -1.3850 C   0  0  0  0  0  0  0  0  0  0  0  0
  -22.2070   39.1570   -0.7850 C   0  0  0  0  0  0  0  0  0  0  0  0
  -21.1550   38.2670   -1.0180 C   0  0  0  0  0  0  0  0  0  0  0  0
  -18.4650   37.5290   -3.3660 N   0  0  0  0  0  0  0  0  0  0  0  0
  -17.4460   36.6060   -3.3810 C   0  0  0  0  0  0  0  0  0  0  0  0
  -15.0526   34.8375   -5.0055 H   0  0  0  0  0  0  0  0  0  0  0  0
  -14.7151   33.9743   -2.7095 H   0  0  0  0  0  0  0  0  0  0  0  0
  -16.1291   34.7950   -0.8177 H   0  0  0  0  0  0  0  0  0  0  0  0
  -17.9792   38.7701    0.5700 H   0  0  0  0  0  0  0  0  0  0  0  0
  -18.3406   38.5589    3.0290 H   0  0  0  0  0  0  0  0  0  0  0  0
  -19.0416   36.3719    4.0053 H   0  0  0  0  0  0  0  0  0  0  0  0
  -19.3777   34.3952    2.5231 H   0  0  0  0  0  0  0  0  0  0  0  0
  -19.0192   34.6008    0.0638 H   0  0  0  0  0  0  0  0  0  0  0  0
  -19.2687   40.1878   -3.1092 H   0  0  0  0  0  0  0  0  0  0  0  0
  -21.1447   41.7724   -2.6945 H   0  0  0  0  0  0  0  0  0  0  0  0
  -23.0304   41.1152   -1.2013 H   0  0  0  0  0  0  0  0  0  0  0  0
  -23.0388   38.8646   -0.1273 H   0  0  0  0  0  0  0  0  0  0  0  0
  -21.1672   37.2747   -0.5435 H   0  0  0  0  0  0  0  0  0  0  0  0
  -18.7600   37.9920   -4.2230 H   0  0  0  0  0  0  0  0  0  0  0  0
  1  2  2  0
  2  3  1  0
  2  4  1  0
  4  5  2  0
  5  6  1  0
  6  7  2  0
  7  8  1  0
  8  9  1  0
  9 10  1  0
 10 11  2  0
 11 12  1  0
 12 13  2  0
 13 14  1  0
 14 15  2  0
  9 16  2  0
 16 17  1  0
 17 18  2  0
 18 19  1  0
 19 20  2  0
 20 21  1  0
 21 22  2  0
 16 23  1  0
 23 24  1  0
 24  4  1  0
 24  8  2  0
 15 10  1  0
 22 17  1  0
  5 25  1  0
  6 26  1  0
  7 27  1  0
 11 28  1  0
 12 29  1  0
 13 30  1  0
 14 31  1  0
 15 32  1  0
 18 33  1  0
 19 34  1  0
 20 35  1  0
 21 36  1  0
 22 37  1  0
 23 38  1  0
M  CHG  1   3  -1
M  END
>  <meeko>  (4) 
{"is_sidechain": [false], "free_energy": -9.668, "intermolecular_energy": -11.427, "internal_energy": -1.167}

$$$$
3bgz_ligand
     RDKit          3D

 38 41  0  0  0  0  0  0  0  0999 V2000
  -17.4580   37.4600    3.7890 O   0  0  0  0  0  0  0  0  0  0  0  0
  -18.2710   37.3030    2.8180 C   0  0  0  0  0  0  0  0  0  0  0  0
  -19.4670   37.7280    2.7720 O   0  0  0  0  0  0  0  0  0  0  0  0
  -17.7580   36.5430    1.6160 C   0  0  0  0  0  0  0  0  0  0  0  0
  -16.7500   35.5670    1.7040 C   0  0  0  0  0  0  0  0  0  0  0  0
  -16.3060   34.8710    0.5780 C   0  0  0  0  0  0  0  0  0  0  0  0
  -16.8540   35.1300   -0.6850 C   0  0  0  0  0  0  0  0  0  0  0  0
  -17.8610   36.1080   -0.8150 C   0  0  0  0  0  0  0  0  0  0  0  0
  -18.6390   36.6230   -1.9080 C   0  0  0  0  0  0  0  0  0  0  0  0
  -18.5810   36.2190   -3.3040 C   0  0  0  0  0  0  0  0  0  0  0  0
  -19.3970   35.1780   -3.7650 C   0  0  0  0  0  0  0  0  0  0  0  0
  -19.3510   34.7880   -5.1050 C   0  0  0  0  0  0  0  0  0  0  0  0
  -18.4920   35.4380   -5.9920 C   0  0  0  0  0  0  0  0  0  0  0  0
  -17.6810   36.4780   -5.5410 C   0  0  0  0  0  0  0  0  0  0  0  0
  -17.7260   36.8700   -4.2010 C   0  0  0  0  0  0  0  0  0  0  0  0
  -19.5110   37.5900   -1.4030 C   0  0  0  0  0  0  0  0  0  0  0  0
  -20.5150   38.4550   -2.0290 C   0  0  0  0  0  0  0  0  0  0  0  0
  -21.1510   39.4580   -1.2840 C   0  0  0  0  0  0  0  0  0  0  0  0
  -22.1080   40.2880   -1.8750 C   0  0  0  0  0  0  0  0  0  0  0  0
  -22.4370   40.1270   -3.2180 C   0  0  0  0  0  0  0  0  0  0  0  0
  -21.8100   39.1370   -3.9720 C   0  0  0  0  0  0  0  0  0  0  0  0
  -20.8520   38.3090   -3.3810 C   0  0  0  0  0  0  0  0  0  0  0  0
  -19.2600   37.6580   -0.0490 N   0  0  0  0  0  0  0  0  0  0  0  0
  -18.2780   36.7740    0.3290 C   0  0  0  0  0  0  0  0  0  0  0  0
  -16.3003   35.3464    2.6834 H   0  0  0  0  0  0  0  0  0  0  0  0
  -15.5176   34.1113    0.6837 H   0  0  0  0  0  0  0  0  0  0  0  0
  -16.5018   34.5753   -1.5672 H   0  0  0  0  0  0  0  0  0  0  0  0
  -20.0769   34.6656   -3.0685 H   0  0  0  0  0  0  0  0  0  0  0  0
  -19.9920   33.9682   -5.4614 H   0  0  0  0  0  0  0  0  0  0  0  0
  -18.4549   35.1296   -7.0472 H   0  0  0  0  0  0  0  0  0  0  0  0
  -17.0048   36.9906   -6.2410 H   0  0  0  0  0  0  0  0  0  0  0  0
  -17.0871   37.6935   -3.8493 H   0  0  0  0  0  0  0  0  0  0  0  0
  -20.8942   39.5933   -0.2230 H   0  0  0  0  0  0  0  0  0  0  0  0
  -22.6016   41.0692   -1.2782 H   0  0  0  0  0  0  0  0  0  0  0  0
  -23.1903   40.7799   -3.6830 H   0  0  0  0  0  0  0  0  0  0  0  0
  -22.0693   39.0072   -5.0331 H   0  0  0  0  0  0  0  0  0  0  0  0
  -20.3568   37.5337   -3.9842 H   0  0  0  0  0  0  0  0  0  0  0  0
  -19.7030   38.2670    0.6350 H   0  0  0  0  0  0  0  0  0  0  0  0
  1  2  2  0
  2  3  1  0
  2  4  1  0
  4  5  2  0
  5  6  1  0
  6  7  2  0
  7  8  1  0
  8  9  1  0
  9 10  1  0
 10 11  2  0
 11 12  1  0
 12 13  2  0
 13 14  1  0
 14 15  2  0
  9 16  2  0
 16 17  1  0
 17 18  2  0
 18 19  1  0
 19 20  2  0
 20 21  1  0
 21 22  2  0
 16 23  1  0
 23 24  1  0
 24  4  1  0
 24  8  2  0
 15 10  1  0
 22 17  1  0
  5 25  1  0
  6 26  1  0
  7 27  1  0
 11 28  1  0
 12 29  1  0
 13 30  1  0
 14 31  1  0
 15 32  1  0
 18 33  1  0
 19 34  1  0
 20 35  1  0
 21 36  1  0
 22 37  1  0
 23 38  1  0
M  CHG  1   3  -1
M  END
>  <meeko>  (5) 
{"is_sidechain": [false], "free_energy": -9.447, "intermolecular_energy": -11.319, "internal_energy": -1.015}

$$$$
3bgz_ligand
     RDKit          3D

 38 41  0  0  0  0  0  0  0  0999 V2000
  -19.6340   38.7220    2.1430 O   0  0  0  0  0  0  0  0  0  0  0  0
  -18.7220   37.9060    2.5050 C   0  0  0  0  0  0  0  0  0  0  0  0
  -18.1060   37.9220    3.6160 O   0  0  0  0  0  0  0  0  0  0  0  0
  -18.3470   36.8230    1.5190 C   0  0  0  0  0  0  0  0  0  0  0  0
  -17.8870   35.5550    1.9160 C   0  0  0  0  0  0  0  0  0  0  0  0
  -17.5600   34.5700    0.9830 C   0  0  0  0  0  0  0  0  0  0  0  0
  -17.6810   34.8180   -0.3910 C   0  0  0  0  0  0  0  0  0  0  0  0
  -18.1320   36.0800   -0.8290 C   0  0  0  0  0  0  0  0  0  0  0  0
  -18.3820   36.6790   -2.1110 C   0  0  0  0  0  0  0  0  0  0  0  0
  -18.2200   36.0660   -3.4210 C   0  0  0  0  0  0  0  0  0  0  0  0
  -16.9520   36.0090   -4.0130 C   0  0  0  0  0  0  0  0  0  0  0  0
  -16.7850   35.4170   -5.2670 C   0  0  0  0  0  0  0  0  0  0  0  0
  -17.8850   34.8770   -5.9340 C   0  0  0  0  0  0  0  0  0  0  0  0
  -19.1490   34.9260   -5.3490 C   0  0  0  0  0  0  0  0  0  0  0  0
  -19.3170   35.5160   -4.0940 C   0  0  0  0  0  0  0  0  0  0  0  0
  -18.8460   37.9780   -1.9010 C   0  0  0  0  0  0  0  0  0  0  0  0
  -19.2420   39.0570   -2.8110 C   0  0  0  0  0  0  0  0  0  0  0  0
  -18.5990   39.2160   -4.0470 C   0  0  0  0  0  0  0  0  0  0  0  0
  -18.9730   40.2400   -4.9200 C   0  0  0  0  0  0  0  0  0  0  0  0
  -19.9970   41.1170   -4.5690 C   0  0  0  0  0  0  0  0  0  0  0  0
  -20.6480   40.9690   -3.3470 C   0  0  0  0  0  0  0  0  0  0  0  0
  -20.2750   39.9420   -2.4750 C   0  0  0  0  0  0  0  0  0  0  0  0
  -18.8690   38.1580   -0.5350 N   0  0  0  0  0  0  0  0  0  0  0  0
  -18.4500   37.0310    0.1310 C   0  0  0  0  0  0  0  0  0  0  0  0
  -17.7823   35.3339    2.9885 H   0  0  0  0  0  0  0  0  0  0  0  0
  -17.2036   33.5888    1.3297 H   0  0  0  0  0  0  0  0  0  0  0  0
  -17.4265   34.0354   -1.1209 H   0  0  0  0  0  0  0  0  0  0  0  0
  -16.0833   36.4326   -3.4877 H   0  0  0  0  0  0  0  0  0  0  0  0
  -15.7872   35.3766   -5.7282 H   0  0  0  0  0  0  0  0  0  0  0  0
  -17.7545   34.4122   -6.9224 H   0  0  0  0  0  0  0  0  0  0  0  0
  -20.0153   34.4996   -5.8761 H   0  0  0  0  0  0  0  0  0  0  0  0
  -20.3152   35.5484   -3.6330 H   0  0  0  0  0  0  0  0  0  0  0  0
  -17.7909   38.5264   -4.3322 H   0  0  0  0  0  0  0  0  0  0  0  0
  -18.4586   40.3542   -5.8856 H   0  0  0  0  0  0  0  0  0  0  0  0
  -20.2906   41.9246   -5.2557 H   0  0  0  0  0  0  0  0  0  0  0  0
  -21.4564   41.6607   -3.0676 H   0  0  0  0  0  0  0  0  0  0  0  0
  -20.7983   39.8274   -1.5143 H   0  0  0  0  0  0  0  0  0  0  0  0
  -19.1410   38.9940   -0.0220 H   0  0  0  0  0  0  0  0  0  0  0  0
  1  2  2  0
  2  3  1  0
  2  4  1  0
  4  5  2  0
  5  6  1  0
  6  7  2  0
  7  8  1  0
  8  9  1  0
  9 10  1  0
 10 11  2  0
 11 12  1  0
 12 13  2  0
 13 14  1  0
 14 15  2  0
  9 16  2  0
 16 17  1  0
 17 18  2  0
 18 19  1  0
 19 20  2  0
 20 21  1  0
 21 22  2  0
 16 23  1  0
 23 24  1  0
 24  4  1  0
 24  8  2  0
 15 10  1  0
 22 17  1  0
  5 25  1  0
  6 26  1  0
  7 27  1  0
 11 28  1  0
 12 29  1  0
 13 30  1  0
 14 31  1  0
 15 32  1  0
 18 33  1  0
 19 34  1  0
 20 35  1  0
 21 36  1  0
 22 37  1  0
 23 38  1  0
M  CHG  1   3  -1
M  END
>  <meeko>  (6) 
{"is_sidechain": [false], "free_energy": -9.298, "intermolecular_energy": -10.912, "internal_energy": -1.248}

$$$$
3bgz_ligand
     RDKit          3D

 38 41  0  0  0  0  0  0  0  0999 V2000
  -22.5830   40.4060   -1.3760 O   0  0  0  0  0  0  0  0  0  0  0  0
  -22.8540   40.1450   -2.5950 C   0  0  0  0  0  0  0  0  0  0  0  0
  -23.9150   40.4760   -3.2100 O   0  0  0  0  0  0  0  0  0  0  0  0
  -21.8120   39.3740   -3.3740 C   0  0  0  0  0  0  0  0  0  0  0  0
  -21.7530   39.3760   -4.7790 C   0  0  0  0  0  0  0  0  0  0  0  0
  -20.7710   38.6650   -5.4710 C   0  0  0  0  0  0  0  0  0  0  0  0
  -19.8080   37.9180   -4.7790 C   0  0  0  0  0  0  0  0  0  0  0  0
  -19.8400   37.8840   -3.3690 C   0  0  0  0  0  0  0  0  0  0  0  0
  -19.0420   37.2580   -2.3520 C   0  0  0  0  0  0  0  0  0  0  0  0
  -17.8710   36.4140   -2.5400 C   0  0  0  0  0  0  0  0  0  0  0  0
  -16.9170   36.7480   -3.5090 C   0  0  0  0  0  0  0  0  0  0  0  0
  -15.7880   35.9470   -3.6920 C   0  0  0  0  0  0  0  0  0  0  0  0
  -15.6050   34.8100   -2.9050 C   0  0  0  0  0  0  0  0  0  0  0  0
  -16.5480   34.4730   -1.9350 C   0  0  0  0  0  0  0  0  0  0  0  0
  -17.6780   35.2740   -1.7500 C   0  0  0  0  0  0  0  0  0  0  0  0
  -19.5640   37.6160   -1.1080 C   0  0  0  0  0  0  0  0  0  0  0  0
  -19.1900   37.2770    0.2680 C   0  0  0  0  0  0  0  0  0  0  0  0
  -19.3830   35.9760    0.7560 C   0  0  0  0  0  0  0  0  0  0  0  0
  -19.0260   35.6450    2.0660 C   0  0  0  0  0  0  0  0  0  0  0  0
  -18.4690   36.6100    2.9030 C   0  0  0  0  0  0  0  0  0  0  0  0
  -18.2670   37.9050    2.4300 C   0  0  0  0  0  0  0  0  0  0  0  0
  -18.6230   38.2350    1.1190 C   0  0  0  0  0  0  0  0  0  0  0  0
  -20.6470   38.4270   -1.3690 N   0  0  0  0  0  0  0  0  0  0  0  0
  -20.8290   38.6080   -2.7200 C   0  0  0  0  0  0  0  0  0  0  0  0
  -22.4988   39.9519   -5.3466 H   0  0  0  0  0  0  0  0  0  0  0  0
  -20.7528   38.6913   -6.5705 H   0  0  0  0  0  0  0  0  0  0  0  0
  -19.0344   37.3633   -5.3302 H   0  0  0  0  0  0  0  0  0  0  0  0
  -17.0576   37.6457   -4.1290 H   0  0  0  0  0  0  0  0  0  0  0  0
  -15.0431   36.2126   -4.4566 H   0  0  0  0  0  0  0  0  0  0  0  0
  -14.7159   34.1787   -3.0498 H   0  0  0  0  0  0  0  0  0  0  0  0
  -16.4024   33.5761   -1.3150 H   0  0  0  0  0  0  0  0  0  0  0  0
  -18.4184   35.0081   -0.9812 H   0  0  0  0  0  0  0  0  0  0  0  0
  -19.8200   35.2082    0.1006 H   0  0  0  0  0  0  0  0  0  0  0  0
  -19.1848   34.6216    2.4368 H   0  0  0  0  0  0  0  0  0  0  0  0
  -18.1895   36.3500    3.9346 H   0  0  0  0  0  0  0  0  0  0  0  0
  -17.8271   38.6683    3.0887 H   0  0  0  0  0  0  0  0  0  0  0  0
  -18.4561   39.2582    0.7514 H   0  0  0  0  0  0  0  0  0  0  0  0
  -21.2750   38.8610   -0.6970 H   0  0  0  0  0  0  0  0  0  0  0  0
  1  2  2  0
  2  3  1  0
  2  4  1  0
  4  5  2  0
  5  6  1  0
  6  7  2  0
  7  8  1  0
  8  9  1  0
  9 10  1  0
 10 11  2  0
 11 12  1  0
 12 13  2  0
 13 14  1  0
 14 15  2  0
  9 16  2  0
 16 17  1  0
 17 18  2  0
 18 19  1  0
 19 20  2  0
 20 21  1  0
 21 22  2  0
 16 23  1  0
 23 24  1  0
 24  4  1  0
 24  8  2  0
 15 10  1  0
 22 17  1  0
  5 25  1  0
  6 26  1  0
  7 27  1  0
 11 28  1  0
 12 29  1  0
 13 30  1  0
 14 31  1  0
 15 32  1  0
 18 33  1  0
 19 34  1  0
 20 35  1  0
 21 36  1  0
 22 37  1  0
 23 38  1  0
M  CHG  1   3  -1
M  END
>  <meeko>  (7) 
{"is_sidechain": [false], "free_energy": -9.025, "intermolecular_energy": -11.234, "internal_energy": -0.604}

$$$$
3bgz_ligand
     RDKit          3D

 38 41  0  0  0  0  0  0  0  0999 V2000
  -21.6630   41.3960   -0.1520 O   0  0  0  0  0  0  0  0  0  0  0  0
  -21.6640   40.1380   -0.3650 C   0  0  0  0  0  0  0  0  0  0  0  0
  -21.7410   39.2320    0.5230 O   0  0  0  0  0  0  0  0  0  0  0  0
  -21.5680   39.6900   -1.8050 C   0  0  0  0  0  0  0  0  0  0  0  0
  -22.3310   40.2660   -2.8360 C   0  0  0  0  0  0  0  0  0  0  0  0
  -22.2110   39.8400   -4.1610 C   0  0  0  0  0  0  0  0  0  0  0  0
  -21.3200   38.8160   -4.5040 C   0  0  0  0  0  0  0  0  0  0  0  0
  -20.5430   38.2070   -3.4970 C   0  0  0  0  0  0  0  0  0  0  0  0
  -19.5510   37.1680   -3.4700 C   0  0  0  0  0  0  0  0  0  0  0  0
  -19.0390   36.4030   -4.5970 C   0  0  0  0  0  0  0  0  0  0  0  0
  -18.0600   36.9570   -5.4310 C   0  0  0  0  0  0  0  0  0  0  0  0
  -17.5600   36.2280   -6.5110 C   0  0  0  0  0  0  0  0  0  0  0  0
  -18.0330   34.9390   -6.7620 C   0  0  0  0  0  0  0  0  0  0  0  0
  -19.0040   34.3790   -5.9330 C   0  0  0  0  0  0  0  0  0  0  0  0
  -19.5050   35.1070   -4.8510 C   0  0  0  0  0  0  0  0  0  0  0  0
  -19.1170   37.0160   -2.1520 C   0  0  0  0  0  0  0  0  0  0  0  0
  -18.1480   36.1180   -1.5160 C   0  0  0  0  0  0  0  0  0  0  0  0
  -17.2110   35.4200   -2.2920 C   0  0  0  0  0  0  0  0  0  0  0  0
  -16.2830   34.5650   -1.6930 C   0  0  0  0  0  0  0  0  0  0  0  0
  -16.2790   34.3980   -0.3100 C   0  0  0  0  0  0  0  0  0  0  0  0
  -17.2010   35.0880    0.4740 C   0  0  0  0  0  0  0  0  0  0  0  0
  -18.1280   35.9450   -0.1260 C   0  0  0  0  0  0  0  0  0  0  0  0
  -19.8300   37.9300   -1.4080 N   0  0  0  0  0  0  0  0  0  0  0  0
  -20.6890   38.6610   -2.1940 C   0  0  0  0  0  0  0  0  0  0  0  0
  -23.0396   41.0716   -2.5934 H   0  0  0  0  0  0  0  0  0  0  0  0
  -22.8228   40.3139   -4.9428 H   0  0  0  0  0  0  0  0  0  0  0  0
  -21.2268   38.4892   -5.5502 H   0  0  0  0  0  0  0  0  0  0  0  0
  -17.6833   37.9715   -5.2340 H   0  0  0  0  0  0  0  0  0  0  0  0
  -16.7931   36.6693   -7.1645 H   0  0  0  0  0  0  0  0  0  0  0  0
  -17.6396   34.3650   -7.6139 H   0  0  0  0  0  0  0  0  0  0  0  0
  -19.3760   33.3629   -6.1311 H   0  0  0  0  0  0  0  0  0  0  0  0
  -20.2681   34.6608   -4.1963 H   0  0  0  0  0  0  0  0  0  0  0  0
  -17.2069   35.5474   -3.3846 H   0  0  0  0  0  0  0  0  0  0  0  0
  -15.5546   34.0230   -2.3140 H   0  0  0  0  0  0  0  0  0  0  0  0
  -15.5497   33.7231    0.1618 H   0  0  0  0  0  0  0  0  0  0  0  0
  -17.1995   34.9583    1.5663 H   0  0  0  0  0  0  0  0  0  0  0  0
  -18.8499   36.4897    0.5003 H   0  0  0  0  0  0  0  0  0  0  0  0
  -19.7820   38.0890   -0.4040 H   0  0  0  0  0  0  0  0  0  0  0  0
  1  2  2  0
  2  3  1  0
  2  4  1  0
  4  5  2  0
  5  6  1  0
  6  7  2  0
  7  8  1  0
  8  9  1  0
  9 10  1  0
 10 11  2  0
 11 12  1  0
 12 13  2  0
 13 14  1  0
 14 15  2  0
  9 16  2  0
 16 17  1  0
 17 18  2  0
 18 19  1  0
 19 20  2  0
 20 21  1  0
 21 22  2  0
 16 23  1  0
 23 24  1  0
 24  4  1  0
 24  8  2  0
 15 10  1  0
 22 17  1  0
  5 25  1  0
  6 26  1  0
  7 27  1  0
 11 28  1  0
 12 29  1  0
 13 30  1  0
 14 31  1  0
 15 32  1  0
 18 33  1  0
 19 34  1  0
 20 35  1  0
 21 36  1  0
 22 37  1  0
 23 38  1  0
M  CHG  1   3  -1
M  END
>  <meeko>  (8) 
{"is_sidechain": [false], "free_energy": -8.978, "intermolecular_energy": -10.717, "internal_energy": -1.066}

$$$$
3bgz_ligand
     RDKit          3D

 38 41  0  0  0  0  0  0  0  0999 V2000
  -14.5100   35.8440   -6.0310 O   0  0  0  0  0  0  0  0  0  0  0  0
  -14.0300   35.3830   -4.9420 C   0  0  0  0  0  0  0  0  0  0  0  0
  -12.8440   34.9590   -4.7710 O   0  0  0  0  0  0  0  0  0  0  0  0
  -14.9600   35.3420   -3.7510 C   0  0  0  0  0  0  0  0  0  0  0  0
  -14.7410   34.5090   -2.6400 C   0  0  0  0  0  0  0  0  0  0  0  0
  -15.6100   34.5030   -1.5470 C   0  0  0  0  0  0  0  0  0  0  0  0
  -16.7400   35.3320   -1.5280 C   0  0  0  0  0  0  0  0  0  0  0  0
  -16.9980   36.1750   -2.6280 C   0  0  0  0  0  0  0  0  0  0  0  0
  -18.0160   37.1360   -2.9520 C   0  0  0  0  0  0  0  0  0  0  0  0
  -19.1560   37.5270   -2.1360 C   0  0  0  0  0  0  0  0  0  0  0  0
  -18.9500   38.0790   -0.8660 C   0  0  0  0  0  0  0  0  0  0  0  0
  -20.0390   38.4610   -0.0790 C   0  0  0  0  0  0  0  0  0  0  0  0
  -21.3380   38.2980   -0.5590 C   0  0  0  0  0  0  0  0  0  0  0  0
  -21.5500   37.7530   -1.8250 C   0  0  0  0  0  0  0  0  0  0  0  0
  -20.4630   37.3700   -2.6140 C   0  0  0  0  0  0  0  0  0  0  0  0
  -17.7200   37.6780   -4.2040 C   0  0  0  0  0  0  0  0  0  0  0  0
  -18.3910   38.6720   -5.0460 C   0  0  0  0  0  0  0  0  0  0  0  0
  -18.6680   38.3910   -6.3920 C   0  0  0  0  0  0  0  0  0  0  0  0
  -19.3090   39.3330   -7.2010 C   0  0  0  0  0  0  0  0  0  0  0  0
  -19.6840   40.5660   -6.6730 C   0  0  0  0  0  0  0  0  0  0  0  0
  -19.4190   40.8580   -5.3360 C   0  0  0  0  0  0  0  0  0  0  0  0
  -18.7790   39.9140   -4.5280 C   0  0  0  0  0  0  0  0  0  0  0  0
  -16.5630   37.0570   -4.6230 N   0  0  0  0  0  0  0  0  0  0  0  0
  -16.1070   36.1550   -3.6920 C   0  0  0  0  0  0  0  0  0  0  0  0
  -13.8636   33.8456   -2.6315 H   0  0  0  0  0  0  0  0  0  0  0  0
  -15.4057   33.8411   -0.6925 H   0  0  0  0  0  0  0  0  0  0  0  0
  -17.4192   35.3249   -0.6628 H   0  0  0  0  0  0  0  0  0  0  0  0
  -17.9263   38.2125   -0.4863 H   0  0  0  0  0  0  0  0  0  0  0  0
  -19.8718   38.8906    0.9198 H   0  0  0  0  0  0  0  0  0  0  0  0
  -22.1953   38.5993    0.0608 H   0  0  0  0  0  0  0  0  0  0  0  0
  -22.5750   37.6245   -2.2029 H   0  0  0  0  0  0  0  0  0  0  0  0
  -20.6340   36.9439   -3.6136 H   0  0  0  0  0  0  0  0  0  0  0  0
  -18.3774   37.4183   -6.8155 H   0  0  0  0  0  0  0  0  0  0  0  0
  -19.5176   39.1005   -8.2557 H   0  0  0  0  0  0  0  0  0  0  0  0
  -20.1882   41.3079   -7.3097 H   0  0  0  0  0  0  0  0  0  0  0  0
  -19.7136   41.8314   -4.9168 H   0  0  0  0  0  0  0  0  0  0  0  0
  -18.5776   40.1494   -3.4725 H   0  0  0  0  0  0  0  0  0  0  0  0
  -16.0650   37.1960   -5.4990 H   0  0  0  0  0  0  0  0  0  0  0  0
  1  2  2  0
  2  3  1  0
  2  4  1  0
  4  5  2  0
  5  6  1  0
  6  7  2  0
  7  8  1  0
  8  9  1  0
  9 10  1  0
 10 11  2  0
 11 12  1  0
 12 13  2  0
 13 14  1  0
 14 15  2  0
  9 16  2  0
 16 17  1  0
 17 18  2  0
 18 19  1  0
 19 20  2  0
 20 21  1  0
 21 22  2  0
 16 23  1  0
 23 24  1  0
 24  4  1  0
 24  8  2  0
 15 10  1  0
 22 17  1  0
  5 25  1  0
  6 26  1  0
  7 27  1  0
 11 28  1  0
 12 29  1  0
 13 30  1  0
 14 31  1  0
 15 32  1  0
 18 33  1  0
 19 34  1  0
 20 35  1  0
 21 36  1  0
 22 37  1  0
 23 38  1  0
M  CHG  1   3  -1
M  END
>  <meeko>  (9) 
{"is_sidechain": [false], "free_energy": -8.767, "intermolecular_energy": -10.364, "internal_energy": -1.172}

$$$$
