3g2z_ligand
     RDKit          3D

 23 24  0  0  0  0  0  0  0  0999 V2000
   -6.3660   56.2810   15.0890 O   0  0  0  0  0  0  0  0  0  0  0  0
   -6.4500   55.5960   13.9970 C   0  0  0  0  0  0  0  0  0  0  0  0
   -5.3820   54.7120   13.4930 C   0  0  0  0  0  0  0  0  0  0  0  0
   -5.4910   54.0670   12.3140 C   0  0  0  0  0  0  0  0  0  0  0  0
   -4.5390   53.1900   11.7960 N   0  0  0  0  0  0  0  0  0  0  0  0
   -3.2060   53.1530   12.0580 C   0  0  0  0  0  0  0  0  0  0  0  0
   -2.1950   53.7330   11.4430 N   0  0  0  0  0  0  0  0  0  0  0  0
   -1.0600   53.3630   12.1200 N   0  0  0  0  0  0  0  0  0  0  0  0
   -1.3540   52.5680   13.1370 N   0  0  0  0  0  0  0  0  0  0  0  0
   -2.6860   52.4340   13.1030 N   0  0  0  0  0  0  0  0  0  0  0  0
   -6.7130   54.2800   11.4270 C   0  0  0  0  0  0  0  0  0  0  0  0
   -7.4740   55.5680   11.7420 C   0  0  0  0  0  0  0  0  0  0  0  0
   -7.7400   55.7010   13.2310 C   0  0  0  0  0  0  0  0  0  0  0  0
   -5.5010   56.1640   15.5510 H   0  0  0  0  0  0  0  0  0  0  0  0
   -4.4719   54.5753   14.0955 H   0  0  0  0  0  0  0  0  0  0  0  0
   -4.9230   52.4990   11.1500 H   0  0  0  0  0  0  0  0  0  0  0  0
   -3.1440   51.8600   13.7990 H   0  0  0  0  0  0  0  0  0  0  0  0
   -6.3809   54.3185   10.3790 H   0  0  0  0  0  0  0  0  0  0  0  0
   -7.4006   53.4421   11.6144 H   0  0  0  0  0  0  0  0  0  0  0  0
   -6.8766   56.4285   11.4064 H   0  0  0  0  0  0  0  0  0  0  0  0
   -8.4406   55.5374   11.2178 H   0  0  0  0  0  0  0  0  0  0  0  0
   -8.2042   56.6778   13.4320 H   0  0  0  0  0  0  0  0  0  0  0  0
   -8.4153   54.8934   13.5500 H   0  0  0  0  0  0  0  0  0  0  0  0
  1  2  2  3
  2  3  1  0
  3  4  2  0
  4  5  1  0
  5  6  1  0
  6  7  2  0
  7  8  1  0
  8  9  2  0
  9 10  1  0
  4 11  1  0
 11 12  1  0
 12 13  1  0
 13  2  1  0
 10  6  1  0
  1 14  1  0
  3 15  1  0
  5 16  1  0
 10 17  1  0
 11 18  1  0
 11 19  1  0
 12 20  1  0
 12 21  1  0
 13 22  1  0
 13 23  1  0
M  CHG  1   1   1
M  END
>  <meeko>  (1) 
{"is_sidechain": [false], "free_energy": -6.97, "intermolecular_energy": -7.785, "internal_energy": -0.162}

$$$$
3g2z_ligand
     RDKit          3D

 23 24  0  0  0  0  0  0  0  0999 V2000
   -1.1060   52.8610   12.5140 O   0  0  0  0  0  0  0  0  0  0  0  0
   -2.3860   52.9860   12.6290 C   0  0  0  0  0  0  0  0  0  0  0  0
   -3.0710   54.2620   12.9060 C   0  0  0  0  0  0  0  0  0  0  0  0
   -4.4060   54.3300   13.0810 C   0  0  0  0  0  0  0  0  0  0  0  0
   -5.1190   55.5060   13.3090 N   0  0  0  0  0  0  0  0  0  0  0  0
   -6.4650   55.6880   13.2750 C   0  0  0  0  0  0  0  0  0  0  0  0
   -7.3410   55.7900   14.2530 N   0  0  0  0  0  0  0  0  0  0  0  0
   -8.5680   55.9640   13.6640 N   0  0  0  0  0  0  0  0  0  0  0  0
   -8.4630   55.9710   12.3450 N   0  0  0  0  0  0  0  0  0  0  0  0
   -7.1590   55.7990   12.0970 N   0  0  0  0  0  0  0  0  0  0  0  0
   -5.2530   53.0630   13.0540 C   0  0  0  0  0  0  0  0  0  0  0  0
   -4.4470   51.7890   13.3050 C   0  0  0  0  0  0  0  0  0  0  0  0
   -3.2070   51.7400   12.4290 C   0  0  0  0  0  0  0  0  0  0  0  0
   -0.6230   53.7130   12.6450 H   0  0  0  0  0  0  0  0  0  0  0  0
   -2.4758   55.1847   12.9717 H   0  0  0  0  0  0  0  0  0  0  0  0
   -4.5290   56.3090   13.5330 H   0  0  0  0  0  0  0  0  0  0  0  0
   -6.8360   55.7710   11.1390 H   0  0  0  0  0  0  0  0  0  0  0  0
   -6.0273   53.1445   13.8310 H   0  0  0  0  0  0  0  0  0  0  0  0
   -5.6836   52.9815   12.0451 H   0  0  0  0  0  0  0  0  0  0  0  0
   -4.1411   51.7606   14.3612 H   0  0  0  0  0  0  0  0  0  0  0  0
   -5.0800   50.9233   13.0602 H   0  0  0  0  0  0  0  0  0  0  0  0
   -2.6049   50.8598   12.6987 H   0  0  0  0  0  0  0  0  0  0  0  0
   -3.5123   51.6740   11.3743 H   0  0  0  0  0  0  0  0  0  0  0  0
  1  2  2  3
  2  3  1  0
  3  4  2  0
  4  5  1  0
  5  6  1  0
  6  7  2  0
  7  8  1  0
  8  9  2  0
  9 10  1  0
  4 11  1  0
 11 12  1  0
 12 13  1  0
 13  2  1  0
 10  6  1  0
  1 14  1  0
  3 15  1  0
  5 16  1  0
 10 17  1  0
 11 18  1  0
 11 19  1  0
 12 20  1  0
 12 21  1  0
 13 22  1  0
 13 23  1  0
M  CHG  1   1   1
M  END
>  <meeko>  (2) 
{"is_sidechain": [false], "free_energy": -6.805, "intermolecular_energy": -7.626, "internal_energy": -0.137}

$$$$
3g2z_ligand
     RDKit          3D

 23 24  0  0  0  0  0  0  0  0999 V2000
   -8.2360   55.3400   13.2580 O   0  0  0  0  0  0  0  0  0  0  0  0
   -7.3660   54.3860   13.2340 C   0  0  0  0  0  0  0  0  0  0  0  0
   -5.9300   54.5700   13.5160 C   0  0  0  0  0  0  0  0  0  0  0  0
   -5.0500   53.5550   13.4140 C   0  0  0  0  0  0  0  0  0  0  0  0
   -3.6880   53.6500   13.7010 N   0  0  0  0  0  0  0  0  0  0  0  0
   -2.6420   53.5270   12.8430 C   0  0  0  0  0  0  0  0  0  0  0  0
   -1.3560   53.3630   13.0770 N   0  0  0  0  0  0  0  0  0  0  0  0
   -0.7400   53.2980   11.8530 N   0  0  0  0  0  0  0  0  0  0  0  0
   -1.6210   53.4190   10.8730 N   0  0  0  0  0  0  0  0  0  0  0  0
   -2.8050   53.5620   11.4820 N   0  0  0  0  0  0  0  0  0  0  0  0
   -5.5080   52.1790   12.9440 C   0  0  0  0  0  0  0  0  0  0  0  0
   -6.8310   52.2100   12.1770 C   0  0  0  0  0  0  0  0  0  0  0  0
   -7.8840   53.0070   12.9290 C   0  0  0  0  0  0  0  0  0  0  0  0
   -7.8380   56.2180   13.4740 H   0  0  0  0  0  0  0  0  0  0  0  0
   -5.5675   55.5637   13.8180 H   0  0  0  0  0  0  0  0  0  0  0  0
   -3.4870   53.8450   14.6830 H   0  0  0  0  0  0  0  0  0  0  0  0
   -3.6400   53.6740   10.9220 H   0  0  0  0  0  0  0  0  0  0  0  0
   -4.7329   51.7592   12.2860 H   0  0  0  0  0  0  0  0  0  0  0  0
   -5.6671   51.5646   13.8424 H   0  0  0  0  0  0  0  0  0  0  0  0
   -6.6647   52.6737   11.1935 H   0  0  0  0  0  0  0  0  0  0  0  0
   -7.1917   51.1771   12.0630 H   0  0  0  0  0  0  0  0  0  0  0  0
   -8.7904   53.0869   12.3109 H   0  0  0  0  0  0  0  0  0  0  0  0
   -8.1196   52.4932   13.8727 H   0  0  0  0  0  0  0  0  0  0  0  0
  1  2  2  3
  2  3  1  0
  3  4  2  0
  4  5  1  0
  5  6  1  0
  6  7  2  0
  7  8  1  0
  8  9  2  0
  9 10  1  0
  4 11  1  0
 11 12  1  0
 12 13  1  0
 13  2  1  0
 10  6  1  0
  1 14  1  0
  3 15  1  0
  5 16  1  0
 10 17  1  0
 11 18  1  0
 11 19  1  0
 12 20  1  0
 12 21  1  0
 13 22  1  0
 13 23  1  0
M  CHG  1   1   1
M  END
>  <meeko>  (3) 
{"is_sidechain": [false], "free_energy": -6.596, "intermolecular_energy": -7.433, "internal_energy": -0.095}

$$$$
3g2z_ligand
     RDKit          3D

 23 24  0  0  0  0  0  0  0  0999 V2000
   -3.4940   49.5270   12.0180 O   0  0  0  0  0  0  0  0  0  0  0  0
   -3.2910   50.7650   12.3260 C   0  0  0  0  0  0  0  0  0  0  0  0
   -4.1610   51.5470   13.2250 C   0  0  0  0  0  0  0  0  0  0  0  0
   -3.9440   52.8550   13.4640 C   0  0  0  0  0  0  0  0  0  0  0  0
   -4.7030   53.6420   14.3300 N   0  0  0  0  0  0  0  0  0  0  0  0
   -5.8930   54.2490   14.0810 C   0  0  0  0  0  0  0  0  0  0  0  0
   -6.9780   53.7960   13.4860 N   0  0  0  0  0  0  0  0  0  0  0  0
   -7.8900   54.8220   13.5010 N   0  0  0  0  0  0  0  0  0  0  0  0
   -7.3860   55.8930   14.0930 N   0  0  0  0  0  0  0  0  0  0  0  0
   -6.1460   55.5430   14.4550 N   0  0  0  0  0  0  0  0  0  0  0  0
   -2.8110   53.5920   12.7580 C   0  0  0  0  0  0  0  0  0  0  0  0
   -2.3290   52.8890   11.4890 C   0  0  0  0  0  0  0  0  0  0  0  0
   -2.0660   51.4140   11.7420 C   0  0  0  0  0  0  0  0  0  0  0  0
   -4.3060   49.1540   12.4400 H   0  0  0  0  0  0  0  0  0  0  0  0
   -5.0107   51.0481   13.7139 H   0  0  0  0  0  0  0  0  0  0  0  0
   -4.2900   53.7500   15.2570 H   0  0  0  0  0  0  0  0  0  0  0  0
   -5.5610   56.2160   14.9330 H   0  0  0  0  0  0  0  0  0  0  0  0
   -3.1646   54.5977   12.4869 H   0  0  0  0  0  0  0  0  0  0  0  0
   -1.9604   53.6248   13.4547 H   0  0  0  0  0  0  0  0  0  0  0  0
   -3.0994   52.9873   10.7101 H   0  0  0  0  0  0  0  0  0  0  0  0
   -1.3883   53.3595   11.1669 H   0  0  0  0  0  0  0  0  0  0  0  0
   -1.8107   50.9215   10.7921 H   0  0  0  0  0  0  0  0  0  0  0  0
   -1.2313   51.3128   12.4512 H   0  0  0  0  0  0  0  0  0  0  0  0
  1  2  2  3
  2  3  1  0
  3  4  2  0
  4  5  1  0
  5  6  1  0
  6  7  2  0
  7  8  1  0
  8  9  2  0
  9 10  1  0
  4 11  1  0
 11 12  1  0
 12 13  1  0
 13  2  1  0
 10  6  1  0
  1 14  1  0
  3 15  1  0
  5 16  1  0
 10 17  1  0
 11 18  1  0
 11 19  1  0
 12 20  1  0
 12 21  1  0
 13 22  1  0
 13 23  1  0
M  CHG  1   1   1
M  END
>  <meeko>  (4) 
{"is_sidechain": [false], "free_energy": -6.199, "intermolecular_energy": -6.922, "internal_energy": -0.163}

$$$$
3g2z_ligand
     RDKit          3D

 23 24  0  0  0  0  0  0  0  0999 V2000
   -4.1880   55.5020   13.2140 O   0  0  0  0  0  0  0  0  0  0  0  0
   -3.9280   54.2380   13.1750 C   0  0  0  0  0  0  0  0  0  0  0  0
   -2.6230   53.6740   12.7790 C   0  0  0  0  0  0  0  0  0  0  0  0
   -2.4200   52.3450   12.6900 C   0  0  0  0  0  0  0  0  0  0  0  0
   -1.2060   51.7460   12.3590 N   0  0  0  0  0  0  0  0  0  0  0  0
   -0.9110   51.0060   11.2580 C   0  0  0  0  0  0  0  0  0  0  0  0
   -0.8460   49.7000   11.0950 N   0  0  0  0  0  0  0  0  0  0  0  0
   -0.5060   49.4860    9.7830 N   0  0  0  0  0  0  0  0  0  0  0  0
   -0.3610   50.6330    9.1390 N   0  0  0  0  0  0  0  0  0  0  0  0
   -0.6110   51.5810   10.0500 N   0  0  0  0  0  0  0  0  0  0  0  0
   -3.5650   51.3700   12.9450 C   0  0  0  0  0  0  0  0  0  0  0  0
   -4.9470   52.0100   12.8100 C   0  0  0  0  0  0  0  0  0  0  0  0
   -5.0330   53.3080   13.5950 C   0  0  0  0  0  0  0  0  0  0  0  0
   -3.4210   56.0610   12.9380 H   0  0  0  0  0  0  0  0  0  0  0  0
   -1.7925   54.3580   12.5500 H   0  0  0  0  0  0  0  0  0  0  0  0
   -0.4660   51.9070   13.0450 H   0  0  0  0  0  0  0  0  0  0  0  0
   -0.5580   52.5540    9.7800 H   0  0  0  0  0  0  0  0  0  0  0  0
   -3.4897   50.5460   12.2201 H   0  0  0  0  0  0  0  0  0  0  0  0
   -3.4688   51.0195   13.9832 H   0  0  0  0  0  0  0  0  0  0  0  0
   -5.1426   52.2198   11.7481 H   0  0  0  0  0  0  0  0  0  0  0  0
   -5.6945   51.3105   13.2125 H   0  0  0  0  0  0  0  0  0  0  0  0
   -6.0046   53.7864   13.4023 H   0  0  0  0  0  0  0  0  0  0  0  0
   -4.9313   53.0882   14.6680 H   0  0  0  0  0  0  0  0  0  0  0  0
  1  2  2  3
  2  3  1  0
  3  4  2  0
  4  5  1  0
  5  6  1  0
  6  7  2  0
  7  8  1  0
  8  9  2  0
  9 10  1  0
  4 11  1  0
 11 12  1  0
 12 13  1  0
 13  2  1  0
 10  6  1  0
  1 14  1  0
  3 15  1  0
  5 16  1  0
 10 17  1  0
 11 18  1  0
 11 19  1  0
 12 20  1  0
 12 21  1  0
 13 22  1  0
 13 23  1  0
M  CHG  1   1   1
M  END
>  <meeko>  (5) 
{"is_sidechain": [false], "free_energy": -5.685, "intermolecular_energy": -6.32, "internal_energy": -0.191}

$$$$
3g2z_ligand
     RDKit          3D

 23 24  0  0  0  0  0  0  0  0999 V2000
   -2.6640   49.2030   13.2090 O   0  0  0  0  0  0  0  0  0  0  0  0
   -2.6150   50.4200   12.7790 C   0  0  0  0  0  0  0  0  0  0  0  0
   -3.8030   51.2610   12.5420 C   0  0  0  0  0  0  0  0  0  0  0  0
   -3.7030   52.5040   12.0310 C   0  0  0  0  0  0  0  0  0  0  0  0
   -4.7790   53.3650   11.8160 N   0  0  0  0  0  0  0  0  0  0  0  0
   -5.3880   54.1820   12.7150 C   0  0  0  0  0  0  0  0  0  0  0  0
   -6.6150   54.1650   13.1950 N   0  0  0  0  0  0  0  0  0  0  0  0
   -6.7070   55.2170   14.0720 N   0  0  0  0  0  0  0  0  0  0  0  0
   -5.5620   55.8770   14.1400 N   0  0  0  0  0  0  0  0  0  0  0  0
   -4.7390   55.2390   13.2990 N   0  0  0  0  0  0  0  0  0  0  0  0
   -2.3450   53.0650   11.6240 C   0  0  0  0  0  0  0  0  0  0  0  0
   -1.2880   51.9850   11.3920 C   0  0  0  0  0  0  0  0  0  0  0  0
   -1.2460   50.9990   12.5460 C   0  0  0  0  0  0  0  0  0  0  0  0
   -3.5870   48.8830   13.3520 H   0  0  0  0  0  0  0  0  0  0  0  0
   -4.7982   50.8628   12.7891 H   0  0  0  0  0  0  0  0  0  0  0  0
   -5.1230   53.3620   10.8550 H   0  0  0  0  0  0  0  0  0  0  0  0
   -3.7910   55.5740   13.1840 H   0  0  0  0  0  0  0  0  0  0  0  0
   -2.4689   53.6377   10.6930 H   0  0  0  0  0  0  0  0  0  0  0  0
   -1.9908   53.6938   12.4542 H   0  0  0  0  0  0  0  0  0  0  0  0
   -1.5270   51.4425   10.4654 H   0  0  0  0  0  0  0  0  0  0  0  0
   -0.3046   52.4718   11.3146 H   0  0  0  0  0  0  0  0  0  0  0  0
   -0.5433   50.1874   12.3061 H   0  0  0  0  0  0  0  0  0  0  0  0
   -0.9158   51.5220   13.4556 H   0  0  0  0  0  0  0  0  0  0  0  0
  1  2  2  3
  2  3  1  0
  3  4  2  0
  4  5  1  0
  5  6  1  0
  6  7  2  0
  7  8  1  0
  8  9  2  0
  9 10  1  0
  4 11  1  0
 11 12  1  0
 12 13  1  0
 13  2  1  0
 10  6  1  0
  1 14  1  0
  3 15  1  0
  5 16  1  0
 10 17  1  0
 11 18  1  0
 11 19  1  0
 12 20  1  0
 12 21  1  0
 13 22  1  0
 13 23  1  0
M  CHG  1   1   1
M  END
>  <meeko>  (6) 
{"is_sidechain": [false], "free_energy": -5.684, "intermolecular_energy": -6.331, "internal_energy": -0.179}

$$$$
3g2z_ligand
     RDKit          3D

 23 24  0  0  0  0  0  0  0  0999 V2000
   -3.3850   51.9120    9.1980 O   0  0  0  0  0  0  0  0  0  0  0  0
   -3.7880   51.8320   10.4230 C   0  0  0  0  0  0  0  0  0  0  0  0
   -5.0520   52.4110   10.9160 C   0  0  0  0  0  0  0  0  0  0  0  0
   -5.3980   52.3580   12.2180 C   0  0  0  0  0  0  0  0  0  0  0  0
   -6.5910   52.8510   12.7450 N   0  0  0  0  0  0  0  0  0  0  0  0
   -6.8110   54.0560   13.3320 C   0  0  0  0  0  0  0  0  0  0  0  0
   -7.8880   54.8150   13.3540 N   0  0  0  0  0  0  0  0  0  0  0  0
   -7.5680   55.9290   14.0890 N   0  0  0  0  0  0  0  0  0  0  0  0
   -6.3180   55.8680   14.5190 N   0  0  0  0  0  0  0  0  0  0  0  0
   -5.8430   54.7070   14.0520 N   0  0  0  0  0  0  0  0  0  0  0  0
   -4.4540   51.7400   13.2430 C   0  0  0  0  0  0  0  0  0  0  0  0
   -3.0030   51.6700   12.7660 C   0  0  0  0  0  0  0  0  0  0  0  0
   -2.9090   51.0680   11.3750 C   0  0  0  0  0  0  0  0  0  0  0  0
   -4.0090   52.4160    8.6210 H   0  0  0  0  0  0  0  0  0  0  0  0
   -5.7310   52.8995   10.2016 H   0  0  0  0  0  0  0  0  0  0  0  0
   -7.3780   52.2060   12.6560 H   0  0  0  0  0  0  0  0  0  0  0  0
   -4.8880   54.4430   14.2580 H   0  0  0  0  0  0  0  0  0  0  0  0
   -4.4907   52.3454   14.1607 H   0  0  0  0  0  0  0  0  0  0  0  0
   -4.7905   50.7067   13.4135 H   0  0  0  0  0  0  0  0  0  0  0  0
   -2.5828   52.6864   12.7459 H   0  0  0  0  0  0  0  0  0  0  0  0
   -2.4392   51.0300   13.4606 H   0  0  0  0  0  0  0  0  0  0  0  0
   -1.8667   51.1164   11.0269 H   0  0  0  0  0  0  0  0  0  0  0  0
   -3.2419   50.0202   11.4119 H   0  0  0  0  0  0  0  0  0  0  0  0
  1  2  2  3
  2  3  1  0
  3  4  2  0
  4  5  1  0
  5  6  1  0
  6  7  2  0
  7  8  1  0
  8  9  2  0
  9 10  1  0
  4 11  1  0
 11 12  1  0
 12 13  1  0
 13  2  1  0
 10  6  1  0
  1 14  1  0
  3 15  1  0
  5 16  1  0
 10 17  1  0
 11 18  1  0
 11 19  1  0
 12 20  1  0
 12 21  1  0
 13 22  1  0
 13 23  1  0
M  CHG  1   1   1
M  END
>  <meeko>  (7) 
{"is_sidechain": [false], "free_energy": -5.528, "intermolecular_energy": -6.25, "internal_energy": -0.086}

$$$$
3g2z_ligand
     RDKit          3D

 23 24  0  0  0  0  0  0  0  0999 V2000
   -5.3660   49.2090   10.0200 O   0  0  0  0  0  0  0  0  0  0  0  0
   -6.0370   50.1670   10.5690 C   0  0  0  0  0  0  0  0  0  0  0  0
   -5.5620   50.9520   11.7240 C   0  0  0  0  0  0  0  0  0  0  0  0
   -6.3270   51.8990   12.3020 C   0  0  0  0  0  0  0  0  0  0  0  0
   -5.9280   52.7020   13.3710 N   0  0  0  0  0  0  0  0  0  0  0  0
   -6.3700   53.9450   13.6940 C   0  0  0  0  0  0  0  0  0  0  0  0
   -7.4600   54.5890   13.3290 N   0  0  0  0  0  0  0  0  0  0  0  0
   -7.4160   55.8150   13.9430 N   0  0  0  0  0  0  0  0  0  0  0  0
   -6.3210   55.9370   14.6770 N   0  0  0  0  0  0  0  0  0  0  0  0
   -5.6670   54.7780   14.5250 N   0  0  0  0  0  0  0  0  0  0  0  0
   -7.7480   52.1520   11.8100 C   0  0  0  0  0  0  0  0  0  0  0  0
   -8.3330   50.9810   11.0190 C   0  0  0  0  0  0  0  0  0  0  0  0
   -7.3660   50.5010    9.9500 C   0  0  0  0  0  0  0  0  0  0  0  0
   -4.4990   49.0440   10.4640 H   0  0  0  0  0  0  0  0  0  0  0  0
   -4.5558   50.7591   12.1245 H   0  0  0  0  0  0  0  0  0  0  0  0
   -5.2210   52.2700   13.9680 H   0  0  0  0  0  0  0  0  0  0  0  0
   -4.7860   54.6410   15.0020 H   0  0  0  0  0  0  0  0  0  0  0  0
   -8.3911   52.3397   12.6825 H   0  0  0  0  0  0  0  0  0  0  0  0
   -7.7080   53.0160   11.1303 H   0  0  0  0  0  0  0  0  0  0  0  0
   -8.5444   50.1515   11.7099 H   0  0  0  0  0  0  0  0  0  0  0  0
   -9.2558   51.3207   10.5261 H   0  0  0  0  0  0  0  0  0  0  0  0
   -7.7769   49.6038    9.4639 H   0  0  0  0  0  0  0  0  0  0  0  0
   -7.2266   51.2988    9.2057 H   0  0  0  0  0  0  0  0  0  0  0  0
  1  2  2  3
  2  3  1  0
  3  4  2  0
  4  5  1  0
  5  6  1  0
  6  7  2  0
  7  8  1  0
  8  9  2  0
  9 10  1  0
  4 11  1  0
 11 12  1  0
 12 13  1  0
 13  2  1  0
 10  6  1  0
  1 14  1  0
  3 15  1  0
  5 16  1  0
 10 17  1  0
 11 18  1  0
 11 19  1  0
 12 20  1  0
 12 21  1  0
 13 22  1  0
 13 23  1  0
M  CHG  1   1   1
M  END
>  <meeko>  (8) 
{"is_sidechain": [false], "free_energy": -5.343, "intermolecular_energy": -6.546, "internal_energy": 0.417}

$$$$
3g2z_ligand
     RDKit          3D

 23 24  0  0  0  0  0  0  0  0999 V2000
   -0.3620   50.6700    9.2050 O   0  0  0  0  0  0  0  0  0  0  0  0
   -1.3580   50.6170   10.0260 C   0  0  0  0  0  0  0  0  0  0  0  0
   -2.2630   51.7490   10.3010 C   0  0  0  0  0  0  0  0  0  0  0  0
   -3.2490   51.6640   11.2160 C   0  0  0  0  0  0  0  0  0  0  0  0
   -4.1620   52.6800   11.4990 N   0  0  0  0  0  0  0  0  0  0  0  0
   -4.7540   52.9650   12.6880 C   0  0  0  0  0  0  0  0  0  0  0  0
   -6.0070   52.8400   13.0730 N   0  0  0  0  0  0  0  0  0  0  0  0
   -6.0630   53.2730   14.3730 N   0  0  0  0  0  0  0  0  0  0  0  0
   -4.8700   53.6610   14.7940 N   0  0  0  0  0  0  0  0  0  0  0  0
   -4.0520   53.4720   13.7510 N   0  0  0  0  0  0  0  0  0  0  0  0
   -3.4260   50.3970   12.0450 C   0  0  0  0  0  0  0  0  0  0  0  0
   -2.1720   49.5240   12.0940 C   0  0  0  0  0  0  0  0  0  0  0  0
   -1.6040   49.2970   10.7030 C   0  0  0  0  0  0  0  0  0  0  0  0
   -0.2570   51.5580    8.7840 H   0  0  0  0  0  0  0  0  0  0  0  0
   -2.1295   52.6882    9.7441 H   0  0  0  0  0  0  0  0  0  0  0  0
   -4.3850   53.2680   10.6940 H   0  0  0  0  0  0  0  0  0  0  0  0
   -3.0720   53.7050   13.8410 H   0  0  0  0  0  0  0  0  0  0  0  0
   -3.6896   50.6867   13.0729 H   0  0  0  0  0  0  0  0  0  0  0  0
   -4.2173   49.8025   11.5650 H   0  0  0  0  0  0  0  0  0  0  0  0
   -1.4125   50.0220   12.7145 H   0  0  0  0  0  0  0  0  0  0  0  0
   -2.4444   48.5479   12.5219 H   0  0  0  0  0  0  0  0  0  0  0  0
   -0.6553   48.7460   10.7824 H   0  0  0  0  0  0  0  0  0  0  0  0
   -2.3247   48.7155   10.1093 H   0  0  0  0  0  0  0  0  0  0  0  0
  1  2  2  3
  2  3  1  0
  3  4  2  0
  4  5  1  0
  5  6  1  0
  6  7  2  0
  7  8  1  0
  8  9  2  0
  9 10  1  0
  4 11  1  0
 11 12  1  0
 12 13  1  0
 13  2  1  0
 10  6  1  0
  1 14  1  0
  3 15  1  0
  5 16  1  0
 10 17  1  0
 11 18  1  0
 11 19  1  0
 12 20  1  0
 12 21  1  0
 13 22  1  0
 13 23  1  0
M  CHG  1   1   1
M  END
>  <meeko>  (9) 
{"is_sidechain": [false], "free_energy": -5.205, "intermolecular_energy": -5.793, "internal_energy": -0.182}

$$$$
