3b65_ligand
     RDKit          3D

 39 40  0  0  0  0  0  0  0  0999 V2000
   29.2380   -1.1410    2.7340 C   0  0  0  0  0  0  0  0  0  0  0  0
   29.5680    0.2070    3.3760 C   0  0  2  0  0  0  0  0  0  0  0  0
   30.4600    0.8760    2.4660 O   0  0  0  0  0  0  0  0  0  0  0  0
   30.2640    0.0720    4.7460 C   0  0  0  0  0  0  0  0  0  0  0  0
   30.1110    1.2780    5.5020 O   0  0  0  0  0  0  0  0  0  0  0  0
   29.8680    1.1580    6.8410 C   0  0  0  0  0  0  0  0  0  0  0  0
   29.2920    2.1280    7.6630 C   0  0  0  0  0  0  0  0  0  0  0  0
   29.0970    1.8680    9.0250 C   0  0  0  0  0  0  0  0  0  0  0  0
   29.4770    0.6390    9.5730 C   0  0  0  0  0  0  0  0  0  0  0  0
   29.2750    0.3770   10.9670 C   0  0  0  0  0  0  0  0  0  0  0  0
   29.1050    0.1670   12.0960 N   0  0  0  0  0  0  0  0  0  0  0  0
   30.0550   -0.3310    8.7520 C   0  0  0  0  0  0  0  0  0  0  0  0
   30.2480   -0.0690    7.3930 C   0  0  0  0  0  0  0  0  0  0  0  0
   28.3010    1.0840    3.5570 C   0  0  0  0  0  0  0  0  0  0  0  0
   27.2180    0.5300    3.7460 O   0  0  0  0  0  0  0  0  0  0  0  0
   28.5050    2.4480    3.4390 N   0  0  0  0  0  0  0  0  0  0  0  0
   27.5360    3.4720    3.5270 C   0  0  0  0  0  0  0  0  0  0  0  0
   27.9890    4.7870    3.3770 C   0  0  0  0  0  0  0  0  0  0  0  0
   27.0980    5.8640    3.4490 C   0  0  0  0  0  0  0  0  0  0  0  0
   25.7330    5.6440    3.6710 C   0  0  0  0  0  0  0  0  0  0  0  0
   24.8660    6.7850    3.7350 C   0  0  0  0  0  0  0  0  0  0  0  0
   24.1940    7.7310    3.7780 N   0  0  0  0  0  0  0  0  0  0  0  0
   25.2760    4.3310    3.8220 C   0  0  0  0  0  0  0  0  0  0  0  0
   23.2530    3.8690    4.1600 I   0  0  0  0  0  0  0  0  0  0  0  0
   26.1750    3.2510    3.7500 C   0  0  0  0  0  0  0  0  0  0  0  0
   29.0553   -1.8872    3.5213 H   0  0  0  0  0  0  0  0  0  0  0  0
   28.3383   -1.0392    2.1094 H   0  0  0  0  0  0  0  0  0  0  0  0
   30.0830   -1.4663    2.1094 H   0  0  0  0  0  0  0  0  0  0  0  0
   29.9160    1.5210    1.9680 H   0  0  0  0  0  0  0  0  0  0  0  0
   29.8134   -0.7639    5.3011 H   0  0  0  0  0  0  0  0  0  0  0  0
   31.3359   -0.1163    4.5858 H   0  0  0  0  0  0  0  0  0  0  0  0
   28.9909    3.0979    7.2403 H   0  0  0  0  0  0  0  0  0  0  0  0
   28.6419    2.6357    9.6681 H   0  0  0  0  0  0  0  0  0  0  0  0
   30.3581   -1.3004    9.1744 H   0  0  0  0  0  0  0  0  0  0  0  0
   30.7039   -0.8366    6.7505 H   0  0  0  0  0  0  0  0  0  0  0  0
   29.4570    2.7640    3.3040 H   0  0  0  0  0  0  0  0  0  0  0  0
   29.0580    4.9768    3.2004 H   0  0  0  0  0  0  0  0  0  0  0  0
   27.4729    6.8913    3.3303 H   0  0  0  0  0  0  0  0  0  0  0  0
   25.8025    2.2230    3.8705 H   0  0  0  0  0  0  0  0  0  0  0  0
  1  2  1  0
  2  3  1  6
  2  4  1  0
  4  5  1  0
  5  6  1  0
  6  7  2  0
  7  8  1  0
  8  9  2  0
  9 10  1  0
 10 11  3  0
  9 12  1  0
 12 13  2  0
  2 14  1  0
 14 15  2  0
 14 16  1  0
 16 17  1  0
 17 18  2  0
 18 19  1  0
 19 20  2  0
 20 21  1  0
 21 22  3  0
 20 23  1  0
 23 24  1  0
 23 25  2  0
 13  6  1  0
 25 17  1  0
  1 26  1  0
  1 27  1  0
  1 28  1  0
  3 29  1  0
  4 30  1  0
  4 31  1  0
  7 32  1  0
  8 33  1  0
 12 34  1  0
 13 35  1  0
 16 36  1  0
 18 37  1  0
 19 38  1  0
 25 39  1  0
M  END
>  <meeko>  (1) 
{"is_sidechain": [false], "free_energy": -10.564, "intermolecular_energy": -13.961, "internal_energy": -0.533}

$$$$
3b65_ligand
     RDKit          3D

 39 40  0  0  0  0  0  0  0  0999 V2000
   29.9020   -1.6510    3.0730 C   0  0  0  0  0  0  0  0  0  0  0  0
   29.8630   -0.1990    3.5500 C   0  0  2  0  0  0  0  0  0  0  0  0
   30.4650    0.5830    2.5020 O   0  0  0  0  0  0  0  0  0  0  0  0
   30.6490    0.0310    4.8570 C   0  0  0  0  0  0  0  0  0  0  0  0
   30.1870    1.2170    5.5130 O   0  0  0  0  0  0  0  0  0  0  0  0
   29.9060    1.1320    6.8470 C   0  0  0  0  0  0  0  0  0  0  0  0
   29.3640    2.1450    7.6400 C   0  0  0  0  0  0  0  0  0  0  0  0
   29.1230    1.9180    9.0000 C   0  0  0  0  0  0  0  0  0  0  0  0
   29.4240    0.6790    9.5760 C   0  0  0  0  0  0  0  0  0  0  0  0
   29.1740    0.4520   10.9690 C   0  0  0  0  0  0  0  0  0  0  0  0
   28.9670    0.2700   12.0960 N   0  0  0  0  0  0  0  0  0  0  0  0
   29.9680   -0.3340    8.7840 C   0  0  0  0  0  0  0  0  0  0  0  0
   30.2060   -0.1040    7.4260 C   0  0  0  0  0  0  0  0  0  0  0  0
   28.4090    0.2980    3.7620 C   0  0  0  0  0  0  0  0  0  0  0  0
   27.5470   -0.5140    4.0960 O   0  0  0  0  0  0  0  0  0  0  0  0
   28.2000    1.6420    3.5020 N   0  0  0  0  0  0  0  0  0  0  0  0
   26.9820    2.3520    3.5830 C   0  0  0  0  0  0  0  0  0  0  0  0
   25.8160    1.5940    3.7360 C   0  0  0  0  0  0  0  0  0  0  0  0
   24.5650    2.2150    3.8260 C   0  0  0  0  0  0  0  0  0  0  0  0
   24.4570    3.6100    3.7650 C   0  0  0  0  0  0  0  0  0  0  0  0
   23.1490    4.1920    3.8630 C   0  0  0  0  0  0  0  0  0  0  0  0
   22.0770    4.6280    3.9480 N   0  0  0  0  0  0  0  0  0  0  0  0
   25.6210    4.3710    3.6120 C   0  0  0  0  0  0  0  0  0  0  0  0
   25.5920    6.4710    3.5080 I   0  0  0  0  0  0  0  0  0  0  0  0
   26.8760    3.7440    3.5220 C   0  0  0  0  0  0  0  0  0  0  0  0
   29.9200   -2.3227    3.9439 H   0  0  0  0  0  0  0  0  0  0  0  0
   29.0092   -1.8616    2.4659 H   0  0  0  0  0  0  0  0  0  0  0  0
   30.8048   -1.8134    2.4659 H   0  0  0  0  0  0  0  0  0  0  0  0
   31.0800    1.2070    2.9400 H   0  0  0  0  0  0  0  0  0  0  0  0
   30.5048   -0.8320    5.5237 H   0  0  0  0  0  0  0  0  0  0  0  0
   31.7161    0.1477    4.6168 H   0  0  0  0  0  0  0  0  0  0  0  0
   29.1261    3.1227    7.1956 H   0  0  0  0  0  0  0  0  0  0  0  0
   28.6941    2.7190    9.6200 H   0  0  0  0  0  0  0  0  0  0  0  0
   30.2088   -1.3112    9.2279 H   0  0  0  0  0  0  0  0  0  0  0  0
   30.6344   -0.9052    6.8058 H   0  0  0  0  0  0  0  0  0  0  0  0
   29.0100    2.1970    3.2550 H   0  0  0  0  0  0  0  0  0  0  0  0
   25.8833    0.4972    3.7861 H   0  0  0  0  0  0  0  0  0  0  0  0
   23.6592    1.6024    3.9456 H   0  0  0  0  0  0  0  0  0  0  0  0
   27.7830    4.3548    3.4025 H   0  0  0  0  0  0  0  0  0  0  0  0
  1  2  1  0
  2  3  1  6
  2  4  1  0
  4  5  1  0
  5  6  1  0
  6  7  2  0
  7  8  1  0
  8  9  2  0
  9 10  1  0
 10 11  3  0
  9 12  1  0
 12 13  2  0
  2 14  1  0
 14 15  2  0
 14 16  1  0
 16 17  1  0
 17 18  2  0
 18 19  1  0
 19 20  2  0
 20 21  1  0
 21 22  3  0
 20 23  1  0
 23 24  1  0
 23 25  2  0
 13  6  1  0
 25 17  1  0
  1 26  1  0
  1 27  1  0
  1 28  1  0
  3 29  1  0
  4 30  1  0
  4 31  1  0
  7 32  1  0
  8 33  1  0
 12 34  1  0
 13 35  1  0
 16 36  1  0
 18 37  1  0
 19 38  1  0
 25 39  1  0
M  END
>  <meeko>  (2) 
{"is_sidechain": [false], "free_energy": -9.365, "intermolecular_energy": -12.543, "internal_energy": -0.366}

$$$$
