1g2k_ligand
     RDKit          3D

 82 86  0  0  0  0  0  0  0  0999 V2000
   15.7950   16.9440   10.8720 C   0  0  0  0  0  0  0  0  0  0  0  0
   16.2240   17.9970    9.9850 N   0  0  0  0  0  0  0  0  0  0  0  0
   15.6630   19.2560   10.0800 C   0  0  0  0  0  0  0  0  0  0  0  0
   14.7310   19.5350   10.8250 O   0  0  0  0  0  0  0  0  0  0  0  0
   16.2910   20.3100    9.2410 C   0  0  0  0  0  0  0  0  0  0  0  0
   17.6740   20.4910    9.3170 C   0  0  0  0  0  0  0  0  0  0  0  0
   18.2920   21.4530    8.5210 C   0  0  0  0  0  0  0  0  0  0  0  0
   17.5310   22.2430    7.6580 C   0  0  0  0  0  0  0  0  0  0  0  0
   16.1370   22.0970    7.5900 C   0  0  0  0  0  0  0  0  0  0  0  0
   15.3280   22.9490    6.6360 C   0  0  0  0  0  0  0  0  0  0  0  0
   14.0100   22.3690    6.3390 N   0  0  0  0  0  0  0  0  0  0  0  0
   13.8960   21.4300    5.2100 C   0  0  2  0  0  0  0  0  0  0  0  0
   15.1980   20.6270    4.9950 C   0  0  0  0  0  0  0  0  0  0  0  0
   15.1620   20.1090    3.6530 O   0  0  0  0  0  0  0  0  0  0  0  0
   16.1130   19.1830    3.3230 C   0  0  0  0  0  0  0  0  0  0  0  0
   17.0570   18.9350    4.3230 C   0  0  0  0  0  0  0  0  0  0  0  0
   18.0930   18.0240    4.1110 C   0  0  0  0  0  0  0  0  0  0  0  0
   18.1890   17.3530    2.8950 C   0  0  0  0  0  0  0  0  0  0  0  0
   17.2460   17.5910    1.8960 C   0  0  0  0  0  0  0  0  0  0  0  0
   16.2080   18.5030    2.1090 C   0  0  0  0  0  0  0  0  0  0  0  0
   13.3090   22.0480    3.9200 C   0  0  2  0  0  0  0  0  0  0  0  0
   14.3330   22.6810    3.1160 O   0  0  0  0  0  0  0  0  0  0  0  0
   12.1810   23.0920    4.0480 C   0  0  1  0  0  0  0  0  0  0  0  0
   11.0420   22.3830    4.6030 O   0  0  0  0  0  0  0  0  0  0  0  0
   12.4470   24.3020    4.9740 C   0  0  1  0  0  0  0  0  0  0  0  0
   11.7140   25.5780    4.4890 C   0  0  0  0  0  0  0  0  0  0  0  0
   10.8410   25.2460    3.4020 O   0  0  0  0  0  0  0  0  0  0  0  0
    9.4990   25.3870    3.6200 C   0  0  0  0  0  0  0  0  0  0  0  0
    8.4830   24.6950    2.9600 C   0  0  0  0  0  0  0  0  0  0  0  0
    7.1440   24.9380    3.2810 C   0  0  0  0  0  0  0  0  0  0  0  0
    6.8160   25.8750    4.2580 C   0  0  0  0  0  0  0  0  0  0  0  0
    7.8260   26.5760    4.9140 C   0  0  0  0  0  0  0  0  0  0  0  0
    9.1620   26.3320    4.5930 C   0  0  0  0  0  0  0  0  0  0  0  0
   12.1570   24.0960    6.4270 N   0  0  0  0  0  0  0  0  0  0  0  0
   11.9980   25.3520    7.2070 C   0  0  0  0  0  0  0  0  0  0  0  0
   10.6360   25.5680    7.8300 C   0  0  0  0  0  0  0  0  0  0  0  0
    9.7440   24.4950    7.9760 C   0  0  0  0  0  0  0  0  0  0  0  0
    8.4900   24.6850    8.5580 C   0  0  0  0  0  0  0  0  0  0  0  0
    8.1100   25.9510    8.9990 C   0  0  0  0  0  0  0  0  0  0  0  0
    8.9840   27.0260    8.8560 C   0  0  0  0  0  0  0  0  0  0  0  0
   10.2390   26.8370    8.2740 C   0  0  0  0  0  0  0  0  0  0  0  0
   12.7010   22.7770    7.2760 S   0  0  0  0  0  0  0  0  0  0  0  0
   13.1840   23.2120    8.5610 O   0  0  0  0  0  0  0  0  0  0  0  0
   11.7100   21.7330    7.1610 O   0  0  0  0  0  0  0  0  0  0  0  0
   15.5230   21.1260    8.3980 C   0  0  0  0  0  0  0  0  0  0  0  0
   15.9266   17.2670   11.9152 H   0  0  0  0  0  0  0  0  0  0  0  0
   14.7338   16.7198   10.6887 H   0  0  0  0  0  0  0  0  0  0  0  0
   16.3973   16.0420   10.6887 H   0  0  0  0  0  0  0  0  0  0  0  0
   17.1540   17.9180    9.5950 H   0  0  0  0  0  0  0  0  0  0  0  0
   18.2737   19.8755   10.0037 H   0  0  0  0  0  0  0  0  0  0  0  0
   19.3822   21.5902    8.5728 H   0  0  0  0  0  0  0  0  0  0  0  0
   18.0304   22.9896    7.0230 H   0  0  0  0  0  0  0  0  0  0  0  0
   15.1826   23.9417    7.0870 H   0  0  0  0  0  0  0  0  0  0  0  0
   15.8856   23.0110    5.6899 H   0  0  0  0  0  0  0  0  0  0  0  0
   13.1301   20.6969    5.5032 H   0  0  0  0  0  0  0  0  0  0  0  0
   16.0712   21.2838    5.1221 H   0  0  0  0  0  0  0  0  0  0  0  0
   15.2780   19.8097    5.7269 H   0  0  0  0  0  0  0  0  0  0  0  0
   16.9830   19.4623    5.2856 H   0  0  0  0  0  0  0  0  0  0  0  0
   18.8325   17.8365    4.9035 H   0  0  0  0  0  0  0  0  0  0  0  0
   19.0063   16.6372    2.7229 H   0  0  0  0  0  0  0  0  0  0  0  0
   17.3190   17.0589    0.9360 H   0  0  0  0  0  0  0  0  0  0  0  0
   15.4653   18.6845    1.3181 H   0  0  0  0  0  0  0  0  0  0  0  0
   12.8626   21.1512    3.4657 H   0  0  0  0  0  0  0  0  0  0  0  0
   13.9680   23.4990    2.7250 H   0  0  0  0  0  0  0  0  0  0  0  0
   12.0480   23.5203    3.0436 H   0  0  0  0  0  0  0  0  0  0  0  0
   10.6780   21.8740    3.8470 H   0  0  0  0  0  0  0  0  0  0  0  0
   13.5371   24.4274    4.8965 H   0  0  0  0  0  0  0  0  0  0  0  0
   11.1244   25.9987    5.3169 H   0  0  0  0  0  0  0  0  0  0  0  0
   12.4538   26.3185    4.1509 H   0  0  0  0  0  0  0  0  0  0  0  0
    8.7361   23.9564    2.1851 H   0  0  0  0  0  0  0  0  0  0  0  0
    6.3469   24.3873    2.7602 H   0  0  0  0  0  0  0  0  0  0  0  0
    5.7619   26.0612    4.5112 H   0  0  0  0  0  0  0  0  0  0  0  0
    7.5708   27.3199    5.6830 H   0  0  0  0  0  0  0  0  0  0  0  0
    9.9572   26.8886    5.1106 H   0  0  0  0  0  0  0  0  0  0  0  0
   12.7428   25.3440    8.0165 H   0  0  0  0  0  0  0  0  0  0  0  0
   12.1323   26.1722    6.4864 H   0  0  0  0  0  0  0  0  0  0  0  0
   10.0362   23.4933    7.6280 H   0  0  0  0  0  0  0  0  0  0  0  0
    7.8010   23.8347    8.6687 H   0  0  0  0  0  0  0  0  0  0  0  0
    7.1221   26.1011    9.4590 H   0  0  0  0  0  0  0  0  0  0  0  0
    8.6848   28.0262    9.2024 H   0  0  0  0  0  0  0  0  0  0  0  0
   10.9225   27.6917    8.1629 H   0  0  0  0  0  0  0  0  0  0  0  0
   14.4301   21.0046    8.3693 H   0  0  0  0  0  0  0  0  0  0  0  0
  1  2  1  0
  2  3  1  0
  3  4  2  0
  3  5  1  0
  5  6  2  0
  6  7  1  0
  7  8  2  0
  8  9  1  0
  9 10  1  0
 10 11  1  0
 11 12  1  0
 12 13  1  0
 13 14  1  0
 14 15  1  0
 15 16  2  0
 16 17  1  0
 17 18  2  0
 18 19  1  0
 19 20  2  0
 12 21  1  0
 21 22  1  0
 21 23  1  0
 23 24  1  0
 23 25  1  0
 25 26  1  0
 26 27  1  0
 27 28  1  0
 28 29  2  0
 29 30  1  0
 30 31  2  0
 31 32  1  0
 32 33  2  0
 25 34  1  0
 34 35  1  0
 35 36  1  0
 36 37  2  0
 37 38  1  0
 38 39  2  0
 39 40  1  0
 40 41  2  0
 34 42  1  0
 42 43  2  0
 42 44  2  0
  9 45  2  0
 45  5  1  0
 42 11  1  0
 20 15  1  0
 33 28  1  0
 41 36  1  0
  1 46  1  0
  1 47  1  0
  1 48  1  0
  2 49  1  0
  6 50  1  0
  7 51  1  0
  8 52  1  0
 10 53  1  0
 10 54  1  0
 12 55  1  1
 13 56  1  0
 13 57  1  0
 16 58  1  0
 17 59  1  0
 18 60  1  0
 19 61  1  0
 20 62  1  0
 21 63  1  6
 22 64  1  0
 23 65  1  6
 24 66  1  0
 25 67  1  1
 26 68  1  0
 26 69  1  0
 29 70  1  0
 30 71  1  0
 31 72  1  0
 32 73  1  0
 33 74  1  0
 35 75  1  0
 35 76  1  0
 37 77  1  0
 38 78  1  0
 39 79  1  0
 40 80  1  0
 41 81  1  0
 45 82  1  0
M  END
>  <meeko>  (1) 
{"is_sidechain": [false], "free_energy": -8.359, "intermolecular_energy": -17.155, "internal_energy": -2.455}

$$$$
1g2k_ligand
     RDKit          3D

 82 86  0  0  0  0  0  0  0  0999 V2000
   18.3610   17.2310    6.5440 C   0  0  0  0  0  0  0  0  0  0  0  0
   17.3460   18.0510    5.9320 N   0  0  0  0  0  0  0  0  0  0  0  0
   17.6250   19.3580    5.5850 C   0  0  0  0  0  0  0  0  0  0  0  0
   18.6780   19.9260    5.8500 O   0  0  0  0  0  0  0  0  0  0  0  0
   16.5710   20.0630    4.8090 C   0  0  0  0  0  0  0  0  0  0  0  0
   15.9600   19.3900    3.7480 C   0  0  0  0  0  0  0  0  0  0  0  0
   14.9500   20.0170    3.0200 C   0  0  0  0  0  0  0  0  0  0  0  0
   14.5570   21.3160    3.3430 C   0  0  0  0  0  0  0  0  0  0  0  0
   15.1800   22.0190    4.3850 C   0  0  0  0  0  0  0  0  0  0  0  0
   14.7300   23.4210    4.7350 C   0  0  0  0  0  0  0  0  0  0  0  0
   13.3860   23.4530    5.3280 N   0  0  0  0  0  0  0  0  0  0  0  0
   13.2590   23.2920    6.7870 C   0  0  2  0  0  0  0  0  0  0  0  0
   14.6380   23.1800    7.4750 C   0  0  0  0  0  0  0  0  0  0  0  0
   14.5100   22.2050    8.5250 O   0  0  0  0  0  0  0  0  0  0  0  0
   15.6370   21.5040    8.8570 C   0  0  0  0  0  0  0  0  0  0  0  0
   15.3980   20.2910    9.5100 C   0  0  0  0  0  0  0  0  0  0  0  0
   16.4590   19.4840    9.9200 C   0  0  0  0  0  0  0  0  0  0  0  0
   17.7700   19.8850    9.6760 C   0  0  0  0  0  0  0  0  0  0  0  0
   18.0160   21.0900    9.0190 C   0  0  0  0  0  0  0  0  0  0  0  0
   16.9510   21.8980    8.6080 C   0  0  0  0  0  0  0  0  0  0  0  0
   12.2380   22.2180    7.2260 C   0  0  2  0  0  0  0  0  0  0  0  0
   12.5560   20.9190    6.6680 O   0  0  0  0  0  0  0  0  0  0  0  0
   10.7380   22.4690    6.8900 C   0  0  1  0  0  0  0  0  0  0  0  0
   10.0080   22.1360    8.1000 O   0  0  0  0  0  0  0  0  0  0  0  0
   10.3150   23.9050    6.4960 C   0  0  1  0  0  0  0  0  0  0  0  0
   10.2930   24.8610    7.7140 C   0  0  0  0  0  0  0  0  0  0  0  0
    8.9510   24.9850    8.2020 O   0  0  0  0  0  0  0  0  0  0  0  0
    8.5490   26.2310    8.5970 C   0  0  0  0  0  0  0  0  0  0  0  0
    7.4220   26.9130    8.1370 C   0  0  0  0  0  0  0  0  0  0  0  0
    7.1270   28.1900    8.6250 C   0  0  0  0  0  0  0  0  0  0  0  0
    7.9580   28.7900    9.5690 C   0  0  0  0  0  0  0  0  0  0  0  0
    9.0900   28.1170   10.0240 C   0  0  0  0  0  0  0  0  0  0  0  0
    9.3830   26.8430    9.5360 C   0  0  0  0  0  0  0  0  0  0  0  0
   11.0980   24.5410    5.3910 N   0  0  0  0  0  0  0  0  0  0  0  0
   10.4830   25.7750    4.8330 C   0  0  0  0  0  0  0  0  0  0  0  0
    9.0680   25.6270    4.3190 C   0  0  0  0  0  0  0  0  0  0  0  0
    8.7400   24.5910    3.4310 C   0  0  0  0  0  0  0  0  0  0  0  0
    7.4350   24.4430    2.9600 C   0  0  0  0  0  0  0  0  0  0  0  0
    6.4410   25.3300    3.3680 C   0  0  0  0  0  0  0  0  0  0  0  0
    6.7530   26.3650    4.2450 C   0  0  0  0  0  0  0  0  0  0  0  0
    8.0590   26.5140    4.7170 C   0  0  0  0  0  0  0  0  0  0  0  0
   12.0600   23.6740    4.3520 S   0  0  0  0  0  0  0  0  0  0  0  0
   11.4550   22.3880    4.1160 O   0  0  0  0  0  0  0  0  0  0  0  0
   12.4310   24.5400    3.2590 O   0  0  0  0  0  0  0  0  0  0  0  0
   16.1990   21.3800    5.1120 C   0  0  0  0  0  0  0  0  0  0  0  0
   18.2767   17.2991    7.6386 H   0  0  0  0  0  0  0  0  0  0  0  0
   18.2261   16.1854    6.2302 H   0  0  0  0  0  0  0  0  0  0  0  0
   19.3549   17.5826    6.2302 H   0  0  0  0  0  0  0  0  0  0  0  0
   16.6100   17.5720    5.4290 H   0  0  0  0  0  0  0  0  0  0  0  0
   16.2749   18.3686    3.4879 H   0  0  0  0  0  0  0  0  0  0  0  0
   14.4619   19.4864    2.1892 H   0  0  0  0  0  0  0  0  0  0  0  0
   13.7476   21.7955    2.7729 H   0  0  0  0  0  0  0  0  0  0  0  0
   15.4426   23.8501    5.4547 H   0  0  0  0  0  0  0  0  0  0  0  0
   14.6956   24.0020    3.8016 H   0  0  0  0  0  0  0  0  0  0  0  0
   12.8082   24.2247    7.1569 H   0  0  0  0  0  0  0  0  0  0  0  0
   15.3967   22.8542    6.7482 H   0  0  0  0  0  0  0  0  0  0  0  0
   14.9528   24.1528    7.8808 H   0  0  0  0  0  0  0  0  0  0  0  0
   14.3635   19.9702    9.7022 H   0  0  0  0  0  0  0  0  0  0  0  0
   16.2606   18.5325   10.4351 H   0  0  0  0  0  0  0  0  0  0  0  0
   18.6095   19.2527   10.0008 H   0  0  0  0  0  0  0  0  0  0  0  0
   19.0512   21.4062    8.8233 H   0  0  0  0  0  0  0  0  0  0  0  0
   17.1505   22.8462    8.0873 H   0  0  0  0  0  0  0  0  0  0  0  0
   12.3406   22.2679    8.3201 H   0  0  0  0  0  0  0  0  0  0  0  0
   12.9560   20.3640    7.3660 H   0  0  0  0  0  0  0  0  0  0  0  0
   10.5275   21.8644    5.9955 H   0  0  0  0  0  0  0  0  0  0  0  0
   10.6110   22.3960    8.8290 H   0  0  0  0  0  0  0  0  0  0  0  0
    9.2985   23.7559    6.1029 H   0  0  0  0  0  0  0  0  0  0  0  0
   10.9360   24.4560    8.5093 H   0  0  0  0  0  0  0  0  0  0  0  0
   10.6644   25.8505    7.4093 H   0  0  0  0  0  0  0  0  0  0  0  0
    6.7645   26.4455    7.3893 H   0  0  0  0  0  0  0  0  0  0  0  0
    6.2356   28.7228    8.2623 H   0  0  0  0  0  0  0  0  0  0  0  0
    7.7208   29.7927    9.9541 H   0  0  0  0  0  0  0  0  0  0  0  0
    9.7510   28.5888   10.7660 H   0  0  0  0  0  0  0  0  0  0  0  0
   10.2793   26.3154    9.8941 H   0  0  0  0  0  0  0  0  0  0  0  0
   10.4768   26.5378    5.6255 H   0  0  0  0  0  0  0  0  0  0  0  0
   11.0932   26.0457    3.9587 H   0  0  0  0  0  0  0  0  0  0  0  0
    9.5200   23.8882    3.1028 H   0  0  0  0  0  0  0  0  0  0  0  0
    7.1907   23.6253    2.2659 H   0  0  0  0  0  0  0  0  0  0  0  0
    5.4118   25.2126    2.9979 H   0  0  0  0  0  0  0  0  0  0  0  0
    5.9695   27.0668    4.5669 H   0  0  0  0  0  0  0  0  0  0  0  0
    8.2978   27.3358    5.4080 H   0  0  0  0  0  0  0  0  0  0  0  0
   16.7086   21.9176    5.9252 H   0  0  0  0  0  0  0  0  0  0  0  0
  1  2  1  0
  2  3  1  0
  3  4  2  0
  3  5  1  0
  5  6  2  0
  6  7  1  0
  7  8  2  0
  8  9  1  0
  9 10  1  0
 10 11  1  0
 11 12  1  0
 12 13  1  0
 13 14  1  0
 14 15  1  0
 15 16  2  0
 16 17  1  0
 17 18  2  0
 18 19  1  0
 19 20  2  0
 12 21  1  0
 21 22  1  0
 21 23  1  0
 23 24  1  0
 23 25  1  0
 25 26  1  0
 26 27  1  0
 27 28  1  0
 28 29  2  0
 29 30  1  0
 30 31  2  0
 31 32  1  0
 32 33  2  0
 25 34  1  0
 34 35  1  0
 35 36  1  0
 36 37  2  0
 37 38  1  0
 38 39  2  0
 39 40  1  0
 40 41  2  0
 34 42  1  0
 42 43  2  0
 42 44  2  0
  9 45  2  0
 45  5  1  0
 42 11  1  0
 20 15  1  0
 33 28  1  0
 41 36  1  0
  1 46  1  0
  1 47  1  0
  1 48  1  0
  2 49  1  0
  6 50  1  0
  7 51  1  0
  8 52  1  0
 10 53  1  0
 10 54  1  0
 12 55  1  1
 13 56  1  0
 13 57  1  0
 16 58  1  0
 17 59  1  0
 18 60  1  0
 19 61  1  0
 20 62  1  0
 21 63  1  1
 22 64  1  0
 23 65  1  6
 24 66  1  0
 25 67  1  6
 26 68  1  0
 26 69  1  0
 29 70  1  0
 30 71  1  0
 31 72  1  0
 32 73  1  0
 33 74  1  0
 35 75  1  0
 35 76  1  0
 37 77  1  0
 38 78  1  0
 39 79  1  0
 40 80  1  0
 41 81  1  0
 45 82  1  0
M  END
>  <meeko>  (2) 
{"is_sidechain": [false], "free_energy": -8.102, "intermolecular_energy": -16.736, "internal_energy": -2.346}

$$$$
1g2k_ligand
     RDKit          3D

 82 86  0  0  0  0  0  0  0  0999 V2000
    5.8970   29.7120    7.9370 C   0  0  0  0  0  0  0  0  0  0  0  0
    6.8620   28.6550    8.1130 N   0  0  0  0  0  0  0  0  0  0  0  0
    7.8000   28.4000    7.1310 C   0  0  0  0  0  0  0  0  0  0  0  0
    7.8180   28.9610    6.0420 O   0  0  0  0  0  0  0  0  0  0  0  0
    8.8520   27.4100    7.4800 C   0  0  0  0  0  0  0  0  0  0  0  0
    9.7470   27.7190    8.5070 C   0  0  0  0  0  0  0  0  0  0  0  0
   10.7270   26.7980    8.8740 C   0  0  0  0  0  0  0  0  0  0  0  0
   10.8200   25.5740    8.2100 C   0  0  0  0  0  0  0  0  0  0  0  0
    9.9500   25.2580    7.1570 C   0  0  0  0  0  0  0  0  0  0  0  0
   10.0520   23.9180    6.4590 C   0  0  0  0  0  0  0  0  0  0  0  0
   11.4280   23.5950    6.0550 N   0  0  0  0  0  0  0  0  0  0  0  0
   11.8620   23.9560    4.6950 C   0  0  2  0  0  0  0  0  0  0  0  0
   11.0960   25.1820    4.1520 C   0  0  0  0  0  0  0  0  0  0  0  0
   10.5430   24.8090    2.8780 O   0  0  0  0  0  0  0  0  0  0  0  0
    9.1920   24.9560    2.7230 C   0  0  0  0  0  0  0  0  0  0  0  0
    8.8130   25.9700    1.8390 C   0  0  0  0  0  0  0  0  0  0  0  0
    7.4650   26.2390    1.6030 C   0  0  0  0  0  0  0  0  0  0  0  0
    6.4850   25.4910    2.2490 C   0  0  0  0  0  0  0  0  0  0  0  0
    6.8560   24.4730    3.1270 C   0  0  0  0  0  0  0  0  0  0  0  0
    8.2080   24.2040    3.3630 C   0  0  0  0  0  0  0  0  0  0  0  0
   11.9390   22.7660    3.7100 C   0  0  2  0  0  0  0  0  0  0  0  0
   10.8310   21.8510    3.8900 O   0  0  0  0  0  0  0  0  0  0  0  0
   13.2070   21.8900    3.7190 C   0  0  1  0  0  0  0  0  0  0  0  0
   14.2150   22.6720    3.0260 O   0  0  0  0  0  0  0  0  0  0  0  0
   13.7990   21.5240    5.1010 C   0  0  1  0  0  0  0  0  0  0  0  0
   15.2460   20.9850    4.9910 C   0  0  0  0  0  0  0  0  0  0  0  0
   15.3850   20.2270    3.7820 O   0  0  0  0  0  0  0  0  0  0  0  0
   16.4050   19.3180    3.7350 C   0  0  0  0  0  0  0  0  0  0  0  0
   17.4060   19.1590    4.6940 C   0  0  0  0  0  0  0  0  0  0  0  0
   18.3970   18.1870    4.5210 C   0  0  0  0  0  0  0  0  0  0  0  0
   18.3920   17.3750    3.3880 C   0  0  0  0  0  0  0  0  0  0  0  0
   17.4000   17.5360    2.4240 C   0  0  0  0  0  0  0  0  0  0  0  0
   16.4130   18.5060    2.5980 C   0  0  0  0  0  0  0  0  0  0  0  0
   13.7570   22.6000    6.1410 N   0  0  0  0  0  0  0  0  0  0  0  0
   15.0830   22.9540    6.7130 C   0  0  0  0  0  0  0  0  0  0  0  0
   15.6480   21.9700    7.7130 C   0  0  0  0  0  0  0  0  0  0  0  0
   14.8090   21.3510    8.6530 C   0  0  0  0  0  0  0  0  0  0  0  0
   15.3230   20.4350    9.5720 C   0  0  0  0  0  0  0  0  0  0  0  0
   16.6820   20.1280    9.5670 C   0  0  0  0  0  0  0  0  0  0  0  0
   17.5270   20.7370    8.6420 C   0  0  0  0  0  0  0  0  0  0  0  0
   17.0140   21.6530    7.7220 C   0  0  0  0  0  0  0  0  0  0  0  0
   12.4480   22.8460    7.1310 S   0  0  0  0  0  0  0  0  0  0  0  0
   11.8770   21.5700    7.4800 O   0  0  0  0  0  0  0  0  0  0  0  0
   12.8280   23.7990    8.1450 O   0  0  0  0  0  0  0  0  0  0  0  0
    8.9670   26.1930    6.7930 C   0  0  0  0  0  0  0  0  0  0  0  0
    5.5663   30.0742    8.9216 H   0  0  0  0  0  0  0  0  0  0  0  0
    6.3576   30.5396    7.3776 H   0  0  0  0  0  0  0  0  0  0  0  0
    5.0310   29.3285    7.3776 H   0  0  0  0  0  0  0  0  0  0  0  0
    7.0850   28.3910    9.0640 H   0  0  0  0  0  0  0  0  0  0  0  0
    9.6786   28.6870    9.0250 H   0  0  0  0  0  0  0  0  0  0  0  0
   11.4277   27.0362    9.6878 H   0  0  0  0  0  0  0  0  0  0  0  0
   11.5865   24.8472    8.5171 H   0  0  0  0  0  0  0  0  0  0  0  0
    9.6929   23.1357    7.1439 H   0  0  0  0  0  0  0  0  0  0  0  0
    9.4401   23.9700    5.5464 H   0  0  0  0  0  0  0  0  0  0  0  0
   12.9126   24.2688    4.7870 H   0  0  0  0  0  0  0  0  0  0  0  0
   10.2891   25.4598    4.8461 H   0  0  0  0  0  0  0  0  0  0  0  0
   11.7678   26.0468    4.0475 H   0  0  0  0  0  0  0  0  0  0  0  0
    9.5849   26.5613    1.3247 H   0  0  0  0  0  0  0  0  0  0  0  0
    7.1768   27.0410    0.9075 H   0  0  0  0  0  0  0  0  0  0  0  0
    5.4208   25.7022    2.0675 H   0  0  0  0  0  0  0  0  0  0  0  0
    6.0823   23.8793    3.6359 H   0  0  0  0  0  0  0  0  0  0  0  0
    8.4953   23.3981    4.0544 H   0  0  0  0  0  0  0  0  0  0  0  0
   11.9292   23.3047    2.7510 H   0  0  0  0  0  0  0  0  0  0  0  0
   10.2590   22.1830    4.6100 H   0  0  0  0  0  0  0  0  0  0  0  0
   12.9261   20.9278    3.2659 H   0  0  0  0  0  0  0  0  0  0  0  0
   15.0670   22.3660    3.4070 H   0  0  0  0  0  0  0  0  0  0  0  0
   13.1176   20.7347    5.4514 H   0  0  0  0  0  0  0  0  0  0  0  0
   15.9513   21.8291    4.9773 H   0  0  0  0  0  0  0  0  0  0  0  0
   15.4624   20.3391    5.8547 H   0  0  0  0  0  0  0  0  0  0  0  0
   17.4159   19.7995    5.5882 H   0  0  0  0  0  0  0  0  0  0  0  0
   19.1824   18.0631    5.2811 H   0  0  0  0  0  0  0  0  0  0  0  0
   19.1700   16.6087    3.2557 H   0  0  0  0  0  0  0  0  0  0  0  0
   17.3948   16.8993    1.5270 H   0  0  0  0  0  0  0  0  0  0  0  0
   15.6332   18.6330    1.8326 H   0  0  0  0  0  0  0  0  0  0  0  0
   15.7981   23.0396    5.8816 H   0  0  0  0  0  0  0  0  0  0  0  0
   14.9305   23.8918    7.2674 H   0  0  0  0  0  0  0  0  0  0  0  0
   13.7354   21.5904    8.6654 H   0  0  0  0  0  0  0  0  0  0  0  0
   14.6542   19.9547   10.3014 H   0  0  0  0  0  0  0  0  0  0  0  0
   17.0868   19.4064   10.2918 H   0  0  0  0  0  0  0  0  0  0  0  0
   18.6002   20.4957    8.6365 H   0  0  0  0  0  0  0  0  0  0  0  0
   17.6884   22.1312    6.9964 H   0  0  0  0  0  0  0  0  0  0  0  0
    8.2818   25.9687    5.9622 H   0  0  0  0  0  0  0  0  0  0  0  0
  1  2  1  0
  2  3  1  0
  3  4  2  0
  3  5  1  0
  5  6  2  0
  6  7  1  0
  7  8  2  0
  8  9  1  0
  9 10  1  0
 10 11  1  0
 11 12  1  0
 12 13  1  0
 13 14  1  0
 14 15  1  0
 15 16  2  0
 16 17  1  0
 17 18  2  0
 18 19  1  0
 19 20  2  0
 12 21  1  0
 21 22  1  0
 21 23  1  0
 23 24  1  0
 23 25  1  0
 25 26  1  0
 26 27  1  0
 27 28  1  0
 28 29  2  0
 29 30  1  0
 30 31  2  0
 31 32  1  0
 32 33  2  0
 25 34  1  0
 34 35  1  0
 35 36  1  0
 36 37  2  0
 37 38  1  0
 38 39  2  0
 39 40  1  0
 40 41  2  0
 34 42  1  0
 42 43  2  0
 42 44  2  0
  9 45  2  0
 45  5  1  0
 42 11  1  0
 20 15  1  0
 33 28  1  0
 41 36  1  0
  1 46  1  0
  1 47  1  0
  1 48  1  0
  2 49  1  0
  6 50  1  0
  7 51  1  0
  8 52  1  0
 10 53  1  0
 10 54  1  0
 12 55  1  1
 13 56  1  0
 13 57  1  0
 16 58  1  0
 17 59  1  0
 18 60  1  0
 19 61  1  0
 20 62  1  0
 21 63  1  6
 22 64  1  0
 23 65  1  6
 24 66  1  0
 25 67  1  1
 26 68  1  0
 26 69  1  0
 29 70  1  0
 30 71  1  0
 31 72  1  0
 32 73  1  0
 33 74  1  0
 35 75  1  0
 35 76  1  0
 37 77  1  0
 38 78  1  0
 39 79  1  0
 40 80  1  0
 41 81  1  0
 45 82  1  0
M  END
>  <meeko>  (3) 
{"is_sidechain": [false], "free_energy": -7.927, "intermolecular_energy": -18.463, "internal_energy": -0.261}

$$$$
1g2k_ligand
     RDKit          3D

 82 86  0  0  0  0  0  0  0  0999 V2000
    4.4020   27.0830    5.6540 C   0  0  0  0  0  0  0  0  0  0  0  0
    5.3100   26.1660    5.0100 N   0  0  0  0  0  0  0  0  0  0  0  0
    6.3520   26.6450    4.2410 C   0  0  0  0  0  0  0  0  0  0  0  0
    6.5190   27.8300    3.9780 O   0  0  0  0  0  0  0  0  0  0  0  0
    7.3270   25.6290    3.7640 C   0  0  0  0  0  0  0  0  0  0  0  0
    6.9230   24.7270    2.7760 C   0  0  0  0  0  0  0  0  0  0  0  0
    7.8240   23.7820    2.2900 C   0  0  0  0  0  0  0  0  0  0  0  0
    9.1240   23.7280    2.7960 C   0  0  0  0  0  0  0  0  0  0  0  0
    9.5390   24.6050    3.8090 C   0  0  0  0  0  0  0  0  0  0  0  0
   10.9570   24.5470    4.3340 C   0  0  0  0  0  0  0  0  0  0  0  0
   11.1460   23.4890    5.3360 N   0  0  0  0  0  0  0  0  0  0  0  0
   10.7390   23.7590    6.7270 C   0  0  2  0  0  0  0  0  0  0  0  0
    9.5800   24.7770    6.8000 C   0  0  0  0  0  0  0  0  0  0  0  0
    9.2450   24.9410    8.1890 O   0  0  0  0  0  0  0  0  0  0  0  0
    8.8530   26.1900    8.5870 C   0  0  0  0  0  0  0  0  0  0  0  0
    7.7620   26.7090    7.8840 C   0  0  0  0  0  0  0  0  0  0  0  0
    7.2700   27.9820    8.1770 C   0  0  0  0  0  0  0  0  0  0  0  0
    7.8660   28.7430    9.1780 C   0  0  0  0  0  0  0  0  0  0  0  0
    8.9510   28.2280    9.8870 C   0  0  0  0  0  0  0  0  0  0  0  0
    9.4430   26.9530    9.5940 C   0  0  0  0  0  0  0  0  0  0  0  0
   11.9110   24.0570    7.6900 C   0  0  2  0  0  0  0  0  0  0  0  0
   12.3300   25.4410    7.6110 O   0  0  0  0  0  0  0  0  0  0  0  0
   13.1770   23.2260    7.5310 C   0  0  1  0  0  0  0  0  0  0  0  0
   12.7910   21.8390    7.7230 O   0  0  0  0  0  0  0  0  0  0  0  0
   13.9020   23.3020    6.1660 C   0  0  1  0  0  0  0  0  0  0  0  0
   15.4350   23.1340    6.3110 C   0  0  0  0  0  0  0  0  0  0  0  0
   15.7670   22.9310    7.6910 O   0  0  0  0  0  0  0  0  0  0  0  0
   16.3040   21.7190    8.0260 C   0  0  0  0  0  0  0  0  0  0  0  0
   17.1960   20.9750    7.2530 C   0  0  0  0  0  0  0  0  0  0  0  0
   17.6670   19.7420    7.7160 C   0  0  0  0  0  0  0  0  0  0  0  0
   17.2470   19.2490    8.9490 C   0  0  0  0  0  0  0  0  0  0  0  0
   16.3500   19.9840    9.7210 C   0  0  0  0  0  0  0  0  0  0  0  0
   15.8790   21.2130    9.2580 C   0  0  0  0  0  0  0  0  0  0  0  0
   13.4080   22.3700    5.1050 N   0  0  0  0  0  0  0  0  0  0  0  0
   14.2600   22.3170    3.8870 C   0  0  0  0  0  0  0  0  0  0  0  0
   14.8180   20.9550    3.5370 C   0  0  0  0  0  0  0  0  0  0  0  0
   14.8100   20.5060    2.2070 C   0  0  0  0  0  0  0  0  0  0  0  0
   15.3320   19.2550    1.8750 C   0  0  0  0  0  0  0  0  0  0  0  0
   15.8650   18.4350    2.8680 C   0  0  0  0  0  0  0  0  0  0  0  0
   15.8750   18.8660    4.1920 C   0  0  0  0  0  0  0  0  0  0  0  0
   15.3540   20.1180    4.5250 C   0  0  0  0  0  0  0  0  0  0  0  0
   11.7980   22.0300    4.8820 S   0  0  0  0  0  0  0  0  0  0  0  0
   11.5490   21.8430    3.4750 O   0  0  0  0  0  0  0  0  0  0  0  0
   11.4140   21.0320    5.8510 O   0  0  0  0  0  0  0  0  0  0  0  0
    8.6230   25.5540    4.2940 C   0  0  0  0  0  0  0  0  0  0  0  0
    4.4970   26.9871    6.7457 H   0  0  0  0  0  0  0  0  0  0  0  0
    4.6464   28.1126    5.3537 H   0  0  0  0  0  0  0  0  0  0  0  0
    3.3700   26.8487    5.3537 H   0  0  0  0  0  0  0  0  0  0  0  0
    5.4080   25.2490    5.4270 H   0  0  0  0  0  0  0  0  0  0  0  0
    5.8962   24.7630    2.3830 H   0  0  0  0  0  0  0  0  0  0  0  0
    7.5104   23.0770    1.5060 H   0  0  0  0  0  0  0  0  0  0  0  0
    9.8322   22.9880    2.3950 H   0  0  0  0  0  0  0  0  0  0  0  0
   11.6375   24.3589    3.4905 H   0  0  0  0  0  0  0  0  0  0  0  0
   11.1713   25.5095    4.8215 H   0  0  0  0  0  0  0  0  0  0  0  0
   10.3369   22.8112    7.1143 H   0  0  0  0  0  0  0  0  0  0  0  0
    9.8965   25.7398    6.3724 H   0  0  0  0  0  0  0  0  0  0  0  0
    8.7106   24.4206    6.2280 H   0  0  0  0  0  0  0  0  0  0  0  0
    7.2873   26.1093    7.0934 H   0  0  0  0  0  0  0  0  0  0  0  0
    6.4122   28.3831    7.6173 H   0  0  0  0  0  0  0  0  0  0  0  0
    7.4826   29.7477    9.4094 H   0  0  0  0  0  0  0  0  0  0  0  0
    9.4215   28.8277   10.6801 H   0  0  0  0  0  0  0  0  0  0  0  0
   10.2970   26.5508   10.1587 H   0  0  0  0  0  0  0  0  0  0  0  0
   11.4623   23.7882    8.6577 H   0  0  0  0  0  0  0  0  0  0  0  0
   11.7380   25.9840    8.1680 H   0  0  0  0  0  0  0  0  0  0  0  0
   13.8897   23.6342    8.2627 H   0  0  0  0  0  0  0  0  0  0  0  0
   11.8110   21.8480    7.6700 H   0  0  0  0  0  0  0  0  0  0  0  0
   13.6538   24.3161    5.8197 H   0  0  0  0  0  0  0  0  0  0  0  0
   15.7655   22.2650    5.7231 H   0  0  0  0  0  0  0  0  0  0  0  0
   15.9388   24.0400    5.9430 H   0  0  0  0  0  0  0  0  0  0  0  0
   17.5295   21.3588    6.2776 H   0  0  0  0  0  0  0  0  0  0  0  0
   18.3716   19.1597    7.1041 H   0  0  0  0  0  0  0  0  0  0  0  0
   17.6228   18.2812    9.3125 H   0  0  0  0  0  0  0  0  0  0  0  0
   16.0137   19.5961   10.6938 H   0  0  0  0  0  0  0  0  0  0  0  0
   15.1671   21.7888    9.8676 H   0  0  0  0  0  0  0  0  0  0  0  0
   13.6554   22.6637    3.0360 H   0  0  0  0  0  0  0  0  0  0  0  0
   15.1317   22.9525    4.1022 H   0  0  0  0  0  0  0  0  0  0  0  0
   14.3881   21.1466    1.4186 H   0  0  0  0  0  0  0  0  0  0  0  0
   15.3228   18.9158    0.8286 H   0  0  0  0  0  0  0  0  0  0  0  0
   16.2770   17.4492    2.6063 H   0  0  0  0  0  0  0  0  0  0  0  0
   16.2940   18.2192    4.9769 H   0  0  0  0  0  0  0  0  0  0  0  0
   15.3644   20.4507    5.5734 H   0  0  0  0  0  0  0  0  0  0  0  0
    8.9252   26.2436    5.0960 H   0  0  0  0  0  0  0  0  0  0  0  0
  1  2  1  0
  2  3  1  0
  3  4  2  0
  3  5  1  0
  5  6  2  0
  6  7  1  0
  7  8  2  0
  8  9  1  0
  9 10  1  0
 10 11  1  0
 11 12  1  0
 12 13  1  0
 13 14  1  0
 14 15  1  0
 15 16  2  0
 16 17  1  0
 17 18  2  0
 18 19  1  0
 19 20  2  0
 12 21  1  0
 21 22  1  0
 21 23  1  0
 23 24  1  0
 23 25  1  0
 25 26  1  0
 26 27  1  0
 27 28  1  0
 28 29  2  0
 29 30  1  0
 30 31  2  0
 31 32  1  0
 32 33  2  0
 25 34  1  0
 34 35  1  0
 35 36  1  0
 36 37  2  0
 37 38  1  0
 38 39  2  0
 39 40  1  0
 40 41  2  0
 34 42  1  0
 42 43  2  0
 42 44  2  0
  9 45  2  0
 45  5  1  0
 42 11  1  0
 20 15  1  0
 33 28  1  0
 41 36  1  0
  1 46  1  0
  1 47  1  0
  1 48  1  0
  2 49  1  0
  6 50  1  0
  7 51  1  0
  8 52  1  0
 10 53  1  0
 10 54  1  0
 12 55  1  1
 13 56  1  0
 13 57  1  0
 16 58  1  0
 17 59  1  0
 18 60  1  0
 19 61  1  0
 20 62  1  0
 21 63  1  1
 22 64  1  0
 23 65  1  1
 24 66  1  0
 25 67  1  6
 26 68  1  0
 26 69  1  0
 29 70  1  0
 30 71  1  0
 31 72  1  0
 32 73  1  0
 33 74  1  0
 35 75  1  0
 35 76  1  0
 37 77  1  0
 38 78  1  0
 39 79  1  0
 40 80  1  0
 41 81  1  0
 45 82  1  0
M  END
>  <meeko>  (4) 
{"is_sidechain": [false], "free_energy": -7.759, "intermolecular_energy": -17.347, "internal_energy": -1.032}

$$$$
1g2k_ligand
     RDKit          3D

 82 86  0  0  0  0  0  0  0  0999 V2000
    4.5300   30.5910    7.0660 C   0  0  0  0  0  0  0  0  0  0  0  0
    5.6920   29.9340    7.6100 N   0  0  0  0  0  0  0  0  0  0  0  0
    5.6850   28.5680    7.8160 C   0  0  0  0  0  0  0  0  0  0  0  0
    4.7000   27.8580    7.6530 O   0  0  0  0  0  0  0  0  0  0  0  0
    6.9830   27.9650    8.2170 C   0  0  0  0  0  0  0  0  0  0  0  0
    7.7470   28.6100    9.1920 C   0  0  0  0  0  0  0  0  0  0  0  0
    8.9550   28.0530    9.6070 C   0  0  0  0  0  0  0  0  0  0  0  0
    9.4070   26.8600    9.0420 C   0  0  0  0  0  0  0  0  0  0  0  0
    8.6680   26.2130    8.0400 C   0  0  0  0  0  0  0  0  0  0  0  0
    9.1630   24.9100    7.4500 C   0  0  0  0  0  0  0  0  0  0  0  0
   10.1170   25.1120    6.3520 N   0  0  0  0  0  0  0  0  0  0  0  0
    9.5880   25.3330    4.9940 C   0  0  2  0  0  0  0  0  0  0  0  0
    8.3310   24.4780    4.7210 C   0  0  0  0  0  0  0  0  0  0  0  0
    7.6380   25.0830    3.6140 O   0  0  0  0  0  0  0  0  0  0  0  0
    6.3800   25.5590    3.8590 C   0  0  0  0  0  0  0  0  0  0  0  0
    5.3600   24.6150    3.7140 C   0  0  0  0  0  0  0  0  0  0  0  0
    4.0260   24.9720    3.9170 C   0  0  0  0  0  0  0  0  0  0  0  0
    3.7050   26.2800    4.2700 C   0  0  0  0  0  0  0  0  0  0  0  0
    4.7180   27.2260    4.4230 C   0  0  0  0  0  0  0  0  0  0  0  0
    6.0540   26.8670    4.2200 C   0  0  0  0  0  0  0  0  0  0  0  0
   10.6530   25.2770    3.8750 C   0  0  2  0  0  0  0  0  0  0  0  0
   10.0870   25.6020    2.5820 O   0  0  0  0  0  0  0  0  0  0  0  0
   11.4450   23.9590    3.6670 C   0  0  1  0  0  0  0  0  0  0  0  0
   12.7970   24.3900    3.3560 O   0  0  0  0  0  0  0  0  0  0  0  0
   11.5510   22.9890    4.8670 C   0  0  1  0  0  0  0  0  0  0  0  0
   12.3320   21.7010    4.5080 C   0  0  0  0  0  0  0  0  0  0  0  0
   13.6630   22.0450    4.1000 O   0  0  0  0  0  0  0  0  0  0  0  0
   14.5310   21.0110    3.8850 C   0  0  0  0  0  0  0  0  0  0  0  0
   15.3280   20.3950    4.8510 C   0  0  0  0  0  0  0  0  0  0  0  0
   16.1780   19.3440    4.4940 C   0  0  0  0  0  0  0  0  0  0  0  0
   16.2380   18.9080    3.1720 C   0  0  0  0  0  0  0  0  0  0  0  0
   15.4510   19.5260    2.2020 C   0  0  0  0  0  0  0  0  0  0  0  0
   14.6030   20.5740    2.5600 C   0  0  0  0  0  0  0  0  0  0  0  0
   12.1110   23.5630    6.1300 N   0  0  0  0  0  0  0  0  0  0  0  0
   12.4040   22.5580    7.1850 C   0  0  0  0  0  0  0  0  0  0  0  0
   13.8500   22.4690    7.6220 C   0  0  0  0  0  0  0  0  0  0  0  0
   14.2470   21.5180    8.5740 C   0  0  0  0  0  0  0  0  0  0  0  0
   15.5810   21.4240    8.9750 C   0  0  0  0  0  0  0  0  0  0  0  0
   16.5340   22.2820    8.4300 C   0  0  0  0  0  0  0  0  0  0  0  0
   16.1550   23.2330    7.4870 C   0  0  0  0  0  0  0  0  0  0  0  0
   14.8200   23.3270    7.0860 C   0  0  0  0  0  0  0  0  0  0  0  0
   11.7490   25.0930    6.6630 S   0  0  0  0  0  0  0  0  0  0  0  0
   11.9360   25.1490    8.0910 O   0  0  0  0  0  0  0  0  0  0  0  0
   12.3960   26.0370    5.7850 O   0  0  0  0  0  0  0  0  0  0  0  0
    7.4530   26.7830    7.6270 C   0  0  0  0  0  0  0  0  0  0  0  0
    3.8937   30.9508    7.8880 H   0  0  0  0  0  0  0  0  0  0  0  0
    4.8468   31.4436    6.4474 H   0  0  0  0  0  0  0  0  0  0  0  0
    3.9627   29.8800    6.4474 H   0  0  0  0  0  0  0  0  0  0  0  0
    6.5850   30.3890    7.4690 H   0  0  0  0  0  0  0  0  0  0  0  0
    7.3960   29.5554    9.6313 H   0  0  0  0  0  0  0  0  0  0  0  0
    9.5535   28.5548   10.3816 H   0  0  0  0  0  0  0  0  0  0  0  0
   10.3549   26.4210    9.3866 H   0  0  0  0  0  0  0  0  0  0  0  0
    9.6569   24.3296    8.2432 H   0  0  0  0  0  0  0  0  0  0  0  0
    8.2917   24.3784    7.0399 H   0  0  0  0  0  0  0  0  0  0  0  0
    9.2564   26.3814    4.9648 H   0  0  0  0  0  0  0  0  0  0  0  0
    8.6233   23.4487    4.4657 H   0  0  0  0  0  0  0  0  0  0  0  0
    7.6855   24.4368    5.6108 H   0  0  0  0  0  0  0  0  0  0  0  0
    5.6108   23.5804    3.4372 H   0  0  0  0  0  0  0  0  0  0  0  0
    3.2303   24.2218    3.7984 H   0  0  0  0  0  0  0  0  0  0  0  0
    2.6548   26.5665    4.4278 H   0  0  0  0  0  0  0  0  0  0  0  0
    4.4650   28.2588    4.7045 H   0  0  0  0  0  0  0  0  0  0  0  0
    6.8492   27.6167    4.3450 H   0  0  0  0  0  0  0  0  0  0  0  0
   11.3702   26.0187    4.2565 H   0  0  0  0  0  0  0  0  0  0  0  0
   10.8110   25.8350    1.9680 H   0  0  0  0  0  0  0  0  0  0  0  0
   10.9053   23.3860    2.8987 H   0  0  0  0  0  0  0  0  0  0  0  0
   13.1800   24.6370    4.2260 H   0  0  0  0  0  0  0  0  0  0  0  0
   10.4972   22.7561    5.0797 H   0  0  0  0  0  0  0  0  0  0  0  0
   12.3772   21.0427    5.3881 H   0  0  0  0  0  0  0  0  0  0  0  0
   11.8202   21.1801    3.6853 H   0  0  0  0  0  0  0  0  0  0  0  0
   15.2873   20.7372    5.8956 H   0  0  0  0  0  0  0  0  0  0  0  0
   16.8017   18.8595    5.2596 H   0  0  0  0  0  0  0  0  0  0  0  0
   16.9048   18.0782    2.8947 H   0  0  0  0  0  0  0  0  0  0  0  0
   15.4985   19.1880    1.1563 H   0  0  0  0  0  0  0  0  0  0  0  0
   13.9849   21.0612    1.7915 H   0  0  0  0  0  0  0  0  0  0  0  0
   11.7986   22.8089    8.0685 H   0  0  0  0  0  0  0  0  0  0  0  0
   12.1633   21.5799    6.7430 H   0  0  0  0  0  0  0  0  0  0  0  0
   13.4990   20.8390    9.0093 H   0  0  0  0  0  0  0  0  0  0  0  0
   15.8796   20.6728    9.7210 H   0  0  0  0  0  0  0  0  0  0  0  0
   17.5854   22.2078    8.7448 H   0  0  0  0  0  0  0  0  0  0  0  0
   16.9071   23.9110    7.0572 H   0  0  0  0  0  0  0  0  0  0  0  0
   14.5271   24.0823    6.3418 H   0  0  0  0  0  0  0  0  0  0  0  0
    6.8649   26.2981    6.8339 H   0  0  0  0  0  0  0  0  0  0  0  0
  1  2  1  0
  2  3  1  0
  3  4  2  0
  3  5  1  0
  5  6  2  0
  6  7  1  0
  7  8  2  0
  8  9  1  0
  9 10  1  0
 10 11  1  0
 11 12  1  0
 12 13  1  0
 13 14  1  0
 14 15  1  0
 15 16  2  0
 16 17  1  0
 17 18  2  0
 18 19  1  0
 19 20  2  0
 12 21  1  0
 21 22  1  0
 21 23  1  0
 23 24  1  0
 23 25  1  0
 25 26  1  0
 26 27  1  0
 27 28  1  0
 28 29  2  0
 29 30  1  0
 30 31  2  0
 31 32  1  0
 32 33  2  0
 25 34  1  0
 34 35  1  0
 35 36  1  0
 36 37  2  0
 37 38  1  0
 38 39  2  0
 39 40  1  0
 40 41  2  0
 34 42  1  0
 42 43  2  0
 42 44  2  0
  9 45  2  0
 45  5  1  0
 42 11  1  0
 20 15  1  0
 33 28  1  0
 41 36  1  0
  1 46  1  0
  1 47  1  0
  1 48  1  0
  2 49  1  0
  6 50  1  0
  7 51  1  0
  8 52  1  0
 10 53  1  0
 10 54  1  0
 12 55  1  1
 13 56  1  0
 13 57  1  0
 16 58  1  0
 17 59  1  0
 18 60  1  0
 19 61  1  0
 20 62  1  0
 21 63  1  1
 22 64  1  0
 23 65  1  6
 24 66  1  0
 25 67  1  1
 26 68  1  0
 26 69  1  0
 29 70  1  0
 30 71  1  0
 31 72  1  0
 32 73  1  0
 33 74  1  0
 35 75  1  0
 35 76  1  0
 37 77  1  0
 38 78  1  0
 39 79  1  0
 40 80  1  0
 41 81  1  0
 45 82  1  0
M  END
>  <meeko>  (5) 
{"is_sidechain": [false], "free_energy": -7.494, "intermolecular_energy": -15.801, "internal_energy": -2.033}

$$$$
1g2k_ligand
     RDKit          3D

 82 86  0  0  0  0  0  0  0  0999 V2000
    3.5770   24.1490    4.0010 C   0  0  0  0  0  0  0  0  0  0  0  0
    4.9530   24.5470    4.1650 N   0  0  0  0  0  0  0  0  0  0  0  0
    5.3720   25.7910    3.7350 C   0  0  0  0  0  0  0  0  0  0  0  0
    4.6610   26.5770    3.1200 O   0  0  0  0  0  0  0  0  0  0  0  0
    6.7620   26.1710    4.1020 C   0  0  0  0  0  0  0  0  0  0  0  0
    6.9880   27.4370    4.6480 C   0  0  0  0  0  0  0  0  0  0  0  0
    8.2760   27.8090    5.0270 C   0  0  0  0  0  0  0  0  0  0  0  0
    9.3400   26.9240    4.8520 C   0  0  0  0  0  0  0  0  0  0  0  0
    9.1380   25.6590    4.2780 C   0  0  0  0  0  0  0  0  0  0  0  0
   10.3000   24.7030    4.1120 C   0  0  0  0  0  0  0  0  0  0  0  0
   10.9060   24.3210    5.3950 N   0  0  0  0  0  0  0  0  0  0  0  0
   10.1440   23.4390    6.2960 C   0  0  2  0  0  0  0  0  0  0  0  0
    9.9960   24.0480    7.7070 C   0  0  0  0  0  0  0  0  0  0  0  0
    8.7490   24.7650    7.7330 O   0  0  0  0  0  0  0  0  0  0  0  0
    8.7520   25.9890    8.3440 C   0  0  0  0  0  0  0  0  0  0  0  0
    7.5440   26.6860    8.2580 C   0  0  0  0  0  0  0  0  0  0  0  0
    7.4150   27.9560    8.8230 C   0  0  0  0  0  0  0  0  0  0  0  0
    8.4960   28.5350    9.4810 C   0  0  0  0  0  0  0  0  0  0  0  0
    9.7020   27.8420    9.5770 C   0  0  0  0  0  0  0  0  0  0  0  0
    9.8310   26.5690    9.0110 C   0  0  0  0  0  0  0  0  0  0  0  0
   10.6000   21.9620    6.2830 C   0  0  2  0  0  0  0  0  0  0  0  0
   11.1260   21.5540    7.5700 O   0  0  0  0  0  0  0  0  0  0  0  0
   11.6580   21.5520    5.2300 C   0  0  1  0  0  0  0  0  0  0  0  0
   11.0900   21.8930    3.9380 O   0  0  0  0  0  0  0  0  0  0  0  0
   13.0500   22.2250    5.2960 C   0  0  1  0  0  0  0  0  0  0  0  0
   13.6020   22.5610    3.8890 C   0  0  0  0  0  0  0  0  0  0  0  0
   13.9530   21.3500    3.2090 O   0  0  0  0  0  0  0  0  0  0  0  0
   15.0440   20.6720    3.6760 C   0  0  0  0  0  0  0  0  0  0  0  0
   15.7550   20.9650    4.8410 C   0  0  0  0  0  0  0  0  0  0  0  0
   16.8600   20.1880    5.2040 C   0  0  0  0  0  0  0  0  0  0  0  0
   17.2600   19.1200    4.4030 C   0  0  0  0  0  0  0  0  0  0  0  0
   16.5590   18.8290    3.2350 C   0  0  0  0  0  0  0  0  0  0  0  0
   15.4570   19.6050    2.8740 C   0  0  0  0  0  0  0  0  0  0  0  0
   13.1540   23.4390    6.1640 N   0  0  0  0  0  0  0  0  0  0  0  0
   13.3160   23.1470    7.6130 C   0  0  0  0  0  0  0  0  0  0  0  0
   14.6240   22.5000    8.0090 C   0  0  0  0  0  0  0  0  0  0  0  0
   15.8440   23.1350    7.7290 C   0  0  0  0  0  0  0  0  0  0  0  0
   17.0550   22.5470    8.1000 C   0  0  0  0  0  0  0  0  0  0  0  0
   17.0620   21.3170    8.7520 C   0  0  0  0  0  0  0  0  0  0  0  0
   15.8600   20.6730    9.0330 C   0  0  0  0  0  0  0  0  0  0  0  0
   14.6480   21.2600    8.6630 C   0  0  0  0  0  0  0  0  0  0  0  0
   12.4200   24.8800    5.7900 S   0  0  0  0  0  0  0  0  0  0  0  0
   12.3090   25.6750    6.9860 O   0  0  0  0  0  0  0  0  0  0  0  0
   13.0440   25.4030    4.5980 O   0  0  0  0  0  0  0  0  0  0  0  0
    7.8360   25.2940    3.8970 C   0  0  0  0  0  0  0  0  0  0  0  0
    3.1137   24.0150    4.9897 H   0  0  0  0  0  0  0  0  0  0  0  0
    3.0342   24.9269    3.4441 H   0  0  0  0  0  0  0  0  0  0  0  0
    3.5333   23.2014    3.4441 H   0  0  0  0  0  0  0  0  0  0  0  0
    5.4750   24.0990    4.9070 H   0  0  0  0  0  0  0  0  0  0  0  0
    6.1508   28.1385    4.7784 H   0  0  0  0  0  0  0  0  0  0  0  0
    8.4542   28.8022    5.4650 H   0  0  0  0  0  0  0  0  0  0  0  0
   10.3508   27.2214    5.1680 H   0  0  0  0  0  0  0  0  0  0  0  0
    9.9391   23.7940    3.6085 H   0  0  0  0  0  0  0  0  0  0  0  0
   11.0714   25.2164    3.5193 H   0  0  0  0  0  0  0  0  0  0  0  0
    9.1275   23.3855    5.8790 H   0  0  0  0  0  0  0  0  0  0  0  0
    9.9871   23.2491    8.4631 H   0  0  0  0  0  0  0  0  0  0  0  0
   10.8372   24.7200    7.9321 H   0  0  0  0  0  0  0  0  0  0  0  0
    6.6871   26.2299    7.7405 H   0  0  0  0  0  0  0  0  0  0  0  0
    6.4607   28.4980    8.7483 H   0  0  0  0  0  0  0  0  0  0  0  0
    8.3992   29.5370    9.9243 H   0  0  0  0  0  0  0  0  0  0  0  0
   10.5556   28.2980   10.0999 H   0  0  0  0  0  0  0  0  0  0  0  0
   10.7838   26.0253    9.0921 H   0  0  0  0  0  0  0  0  0  0  0  0
    9.6633   21.4522    6.0133 H   0  0  0  0  0  0  0  0  0  0  0  0
   10.8460   20.6350    7.7490 H   0  0  0  0  0  0  0  0  0  0  0  0
   11.8576   20.4871    5.4202 H   0  0  0  0  0  0  0  0  0  0  0  0
   10.2470   21.3910    3.9020 H   0  0  0  0  0  0  0  0  0  0  0  0
   13.6662   21.4524    5.7791 H   0  0  0  0  0  0  0  0  0  0  0  0
   12.8329   23.0952    3.3119 H   0  0  0  0  0  0  0  0  0  0  0  0
   14.4947   23.1960    3.9887 H   0  0  0  0  0  0  0  0  0  0  0  0
   15.4456   21.8089    5.4751 H   0  0  0  0  0  0  0  0  0  0  0  0
   17.4151   20.4207    6.1247 H   0  0  0  0  0  0  0  0  0  0  0  0
   18.1272   18.5083    4.6924 H   0  0  0  0  0  0  0  0  0  0  0  0
   16.8736   17.9889    2.5984 H   0  0  0  0  0  0  0  0  0  0  0  0
   14.9081   19.3745    1.9490 H   0  0  0  0  0  0  0  0  0  0  0  0
   13.2292   24.0968    8.1610 H   0  0  0  0  0  0  0  0  0  0  0  0
   12.5325   22.4158    7.8611 H   0  0  0  0  0  0  0  0  0  0  0  0
   15.8462   24.1059    7.2120 H   0  0  0  0  0  0  0  0  0  0  0  0
   18.0042   23.0561    7.8769 H   0  0  0  0  0  0  0  0  0  0  0  0
   18.0161   20.8544    9.0448 H   0  0  0  0  0  0  0  0  0  0  0  0
   15.8650   19.7006    9.5471 H   0  0  0  0  0  0  0  0  0  0  0  0
   13.7026   20.7443    8.8869 H   0  0  0  0  0  0  0  0  0  0  0  0
    7.6580   24.3121    3.4341 H   0  0  0  0  0  0  0  0  0  0  0  0
  1  2  1  0
  2  3  1  0
  3  4  2  0
  3  5  1  0
  5  6  2  0
  6  7  1  0
  7  8  2  0
  8  9  1  0
  9 10  1  0
 10 11  1  0
 11 12  1  0
 12 13  1  0
 13 14  1  0
 14 15  1  0
 15 16  2  0
 16 17  1  0
 17 18  2  0
 18 19  1  0
 19 20  2  0
 12 21  1  0
 21 22  1  0
 21 23  1  0
 23 24  1  0
 23 25  1  0
 25 26  1  0
 26 27  1  0
 27 28  1  0
 28 29  2  0
 29 30  1  0
 30 31  2  0
 31 32  1  0
 32 33  2  0
 25 34  1  0
 34 35  1  0
 35 36  1  0
 36 37  2  0
 37 38  1  0
 38 39  2  0
 39 40  1  0
 40 41  2  0
 34 42  1  0
 42 43  2  0
 42 44  2  0
  9 45  2  0
 45  5  1  0
 42 11  1  0
 20 15  1  0
 33 28  1  0
 41 36  1  0
  1 46  1  0
  1 47  1  0
  1 48  1  0
  2 49  1  0
  6 50  1  0
  7 51  1  0
  8 52  1  0
 10 53  1  0
 10 54  1  0
 12 55  1  6
 13 56  1  0
 13 57  1  0
 16 58  1  0
 17 59  1  0
 18 60  1  0
 19 61  1  0
 20 62  1  0
 21 63  1  6
 22 64  1  0
 23 65  1  6
 24 66  1  0
 25 67  1  1
 26 68  1  0
 26 69  1  0
 29 70  1  0
 30 71  1  0
 31 72  1  0
 32 73  1  0
 33 74  1  0
 35 75  1  0
 35 76  1  0
 37 77  1  0
 38 78  1  0
 39 79  1  0
 40 80  1  0
 41 81  1  0
 45 82  1  0
M  END
>  <meeko>  (6) 
{"is_sidechain": [false], "free_energy": -7.417, "intermolecular_energy": -16.352, "internal_energy": -1.325}

$$$$
1g2k_ligand
     RDKit          3D

 82 86  0  0  0  0  0  0  0  0999 V2000
   18.1480   16.5330    5.4530 C   0  0  0  0  0  0  0  0  0  0  0  0
   17.1910   17.5410    5.0660 N   0  0  0  0  0  0  0  0  0  0  0  0
   17.4880   18.8800    5.2320 C   0  0  0  0  0  0  0  0  0  0  0  0
   18.5000   19.2920    5.7860 O   0  0  0  0  0  0  0  0  0  0  0  0
   16.5120   19.8380    4.6480 C   0  0  0  0  0  0  0  0  0  0  0  0
   15.8100   19.4610    3.5010 C   0  0  0  0  0  0  0  0  0  0  0  0
   14.8690   20.3280    2.9480 C   0  0  0  0  0  0  0  0  0  0  0  0
   14.6370   21.5740    3.5320 C   0  0  0  0  0  0  0  0  0  0  0  0
   15.3530   21.9820    4.6670 C   0  0  0  0  0  0  0  0  0  0  0  0
   15.0760   23.3290    5.2990 C   0  0  0  0  0  0  0  0  0  0  0  0
   13.6490   23.5420    5.5730 N   0  0  0  0  0  0  0  0  0  0  0  0
   13.1070   23.0880    6.8660 C   0  0  2  0  0  0  0  0  0  0  0  0
   14.2200   22.8880    7.9180 C   0  0  0  0  0  0  0  0  0  0  0  0
   14.1910   21.5030    8.3090 O   0  0  0  0  0  0  0  0  0  0  0  0
   15.3420   20.9850    8.8340 C   0  0  0  0  0  0  0  0  0  0  0  0
   16.5100   21.6460    8.4430 C   0  0  0  0  0  0  0  0  0  0  0  0
   17.7570   21.2100    8.8910 C   0  0  0  0  0  0  0  0  0  0  0  0
   17.8430   20.1080    9.7380 C   0  0  0  0  0  0  0  0  0  0  0  0
   16.6820   19.4480   10.1380 C   0  0  0  0  0  0  0  0  0  0  0  0
   15.4320   19.8870    9.6880 C   0  0  0  0  0  0  0  0  0  0  0  0
   12.1070   21.9140    6.7640 C   0  0  2  0  0  0  0  0  0  0  0  0
   12.4570   21.0050    5.6920 O   0  0  0  0  0  0  0  0  0  0  0  0
   10.6070   22.2700    6.5590 C   0  0  1  0  0  0  0  0  0  0  0  0
   10.1480   22.8530    7.8070 O   0  0  0  0  0  0  0  0  0  0  0  0
   10.3060   23.3040    5.4480 C   0  0  1  0  0  0  0  0  0  0  0  0
    8.8800   23.8950    5.5730 C   0  0  0  0  0  0  0  0  0  0  0  0
    8.1620   23.6810    4.3500 O   0  0  0  0  0  0  0  0  0  0  0  0
    7.9880   24.7650    3.5370 C   0  0  0  0  0  0  0  0  0  0  0  0
    8.3260   24.8390    2.1850 C   0  0  0  0  0  0  0  0  0  0  0  0
    8.0950   26.0170    1.4670 C   0  0  0  0  0  0  0  0  0  0  0  0
    7.5300   27.1230    2.0970 C   0  0  0  0  0  0  0  0  0  0  0  0
    7.1990   27.0580    3.4490 C   0  0  0  0  0  0  0  0  0  0  0  0
    7.4300   25.8820    4.1640 C   0  0  0  0  0  0  0  0  0  0  0  0
   11.2880   24.4240    5.3070 N   0  0  0  0  0  0  0  0  0  0  0  0
   10.6830   25.7820    5.3590 C   0  0  0  0  0  0  0  0  0  0  0  0
   10.4400   26.3380    6.7440 C   0  0  0  0  0  0  0  0  0  0  0  0
   11.4030   26.1800    7.7530 C   0  0  0  0  0  0  0  0  0  0  0  0
   11.1890   26.6990    9.0300 C   0  0  0  0  0  0  0  0  0  0  0  0
   10.0080   27.3800    9.3180 C   0  0  0  0  0  0  0  0  0  0  0  0
    9.0420   27.5420    8.3290 C   0  0  0  0  0  0  0  0  0  0  0  0
    9.2550   27.0230    7.0500 C   0  0  0  0  0  0  0  0  0  0  0  0
   12.6940   24.2870    4.4360 S   0  0  0  0  0  0  0  0  0  0  0  0
   12.4840   23.3640    3.3490 O   0  0  0  0  0  0  0  0  0  0  0  0
   13.2060   25.6150    4.2030 O   0  0  0  0  0  0  0  0  0  0  0  0
   16.3010   21.1020    5.2160 C   0  0  0  0  0  0  0  0  0  0  0  0
   18.1997   16.4786    6.5504 H   0  0  0  0  0  0  0  0  0  0  0  0
   17.8356   15.5576    5.0518 H   0  0  0  0  0  0  0  0  0  0  0  0
   19.1383   16.7944    5.0518 H   0  0  0  0  0  0  0  0  0  0  0  0
   16.5190   17.2870    4.3540 H   0  0  0  0  0  0  0  0  0  0  0  0
   15.9992   18.4826    3.0353 H   0  0  0  0  0  0  0  0  0  0  0  0
   14.3084   20.0296    2.0499 H   0  0  0  0  0  0  0  0  0  0  0  0
   13.8823   22.2453    3.0963 H   0  0  0  0  0  0  0  0  0  0  0  0
   15.6302   23.3939    6.2470 H   0  0  0  0  0  0  0  0  0  0  0  0
   15.3975   24.1033    4.5869 H   0  0  0  0  0  0  0  0  0  0  0  0
   12.4808   23.9123    7.2381 H   0  0  0  0  0  0  0  0  0  0  0  0
   15.1992   23.1365    7.4828 H   0  0  0  0  0  0  0  0  0  0  0  0
   14.0587   23.5429    8.7870 H   0  0  0  0  0  0  0  0  0  0  0  0
   16.4452   22.5181    7.7758 H   0  0  0  0  0  0  0  0  0  0  0  0
   18.6705   21.7356    8.5759 H   0  0  0  0  0  0  0  0  0  0  0  0
   18.8248   19.7591   10.0906 H   0  0  0  0  0  0  0  0  0  0  0  0
   16.7489   18.5793   10.8095 H   0  0  0  0  0  0  0  0  0  0  0  0
   14.5186   19.3647   10.0087 H   0  0  0  0  0  0  0  0  0  0  0  0
   12.2011   21.4660    7.7642 H   0  0  0  0  0  0  0  0  0  0  0  0
   11.7380   20.3510    5.5840 H   0  0  0  0  0  0  0  0  0  0  0  0
   10.1047   21.3393    6.2565 H   0  0  0  0  0  0  0  0  0  0  0  0
    9.4120   23.4480    7.5440 H   0  0  0  0  0  0  0  0  0  0  0  0
   10.3970   22.7029    4.5312 H   0  0  0  0  0  0  0  0  0  0  0  0
    8.3498   23.4003    6.4002 H   0  0  0  0  0  0  0  0  0  0  0  0
    8.9480   24.9746    5.7728 H   0  0  0  0  0  0  0  0  0  0  0  0
    8.7749   23.9693    1.6830 H   0  0  0  0  0  0  0  0  0  0  0  0
    8.3606   26.0700    0.4009 H   0  0  0  0  0  0  0  0  0  0  0  0
    7.3453   28.0463    1.5283 H   0  0  0  0  0  0  0  0  0  0  0  0
    6.7569   27.9311    3.9512 H   0  0  0  0  0  0  0  0  0  0  0  0
    7.1702   25.8340    5.2318 H   0  0  0  0  0  0  0  0  0  0  0  0
   11.3567   26.4727    4.8307 H   0  0  0  0  0  0  0  0  0  0  0  0
    9.6901   25.6863    4.8954 H   0  0  0  0  0  0  0  0  0  0  0  0
   12.3366   25.6410    7.5343 H   0  0  0  0  0  0  0  0  0  0  0  0
   11.9534   26.5705    9.8105 H   0  0  0  0  0  0  0  0  0  0  0  0
    9.8393   27.7889   10.3252 H   0  0  0  0  0  0  0  0  0  0  0  0
    8.1094   28.0796    8.5551 H   0  0  0  0  0  0  0  0  0  0  0  0
    8.4855   27.1528    6.2747 H   0  0  0  0  0  0  0  0  0  0  0  0
   16.8822   21.4075    6.0986 H   0  0  0  0  0  0  0  0  0  0  0  0
  1  2  1  0
  2  3  1  0
  3  4  2  0
  3  5  1  0
  5  6  2  0
  6  7  1  0
  7  8  2  0
  8  9  1  0
  9 10  1  0
 10 11  1  0
 11 12  1  0
 12 13  1  0
 13 14  1  0
 14 15  1  0
 15 16  2  0
 16 17  1  0
 17 18  2  0
 18 19  1  0
 19 20  2  0
 12 21  1  0
 21 22  1  0
 21 23  1  0
 23 24  1  0
 23 25  1  0
 25 26  1  0
 26 27  1  0
 27 28  1  0
 28 29  2  0
 29 30  1  0
 30 31  2  0
 31 32  1  0
 32 33  2  0
 25 34  1  0
 34 35  1  0
 35 36  1  0
 36 37  2  0
 37 38  1  0
 38 39  2  0
 39 40  1  0
 40 41  2  0
 34 42  1  0
 42 43  2  0
 42 44  2  0
  9 45  2  0
 45  5  1  0
 42 11  1  0
 20 15  1  0
 33 28  1  0
 41 36  1  0
  1 46  1  0
  1 47  1  0
  1 48  1  0
  2 49  1  0
  6 50  1  0
  7 51  1  0
  8 52  1  0
 10 53  1  0
 10 54  1  0
 12 55  1  1
 13 56  1  0
 13 57  1  0
 16 58  1  0
 17 59  1  0
 18 60  1  0
 19 61  1  0
 20 62  1  0
 21 63  1  1
 22 64  1  0
 23 65  1  6
 24 66  1  0
 25 67  1  6
 26 68  1  0
 26 69  1  0
 29 70  1  0
 30 71  1  0
 31 72  1  0
 32 73  1  0
 33 74  1  0
 35 75  1  0
 35 76  1  0
 37 77  1  0
 38 78  1  0
 39 79  1  0
 40 80  1  0
 41 81  1  0
 45 82  1  0
M  END
>  <meeko>  (7) 
{"is_sidechain": [false], "free_energy": -7.194, "intermolecular_energy": -15.307, "internal_energy": -1.912}

$$$$
1g2k_ligand
     RDKit          3D

 82 86  0  0  0  0  0  0  0  0999 V2000
    5.9830   28.2130    5.2730 C   0  0  0  0  0  0  0  0  0  0  0  0
    6.6840   27.2060    4.5160 N   0  0  0  0  0  0  0  0  0  0  0  0
    8.0590   27.1070    4.5980 C   0  0  0  0  0  0  0  0  0  0  0  0
    8.7650   27.8960    5.2140 O   0  0  0  0  0  0  0  0  0  0  0  0
    8.6670   25.9340    3.9170 C   0  0  0  0  0  0  0  0  0  0  0  0
    7.8830   25.1970    3.0260 C   0  0  0  0  0  0  0  0  0  0  0  0
    8.4350   24.1090    2.3530 C   0  0  0  0  0  0  0  0  0  0  0  0
    9.7650   23.7490    2.5760 C   0  0  0  0  0  0  0  0  0  0  0  0
   10.5590   24.4580    3.4890 C   0  0  0  0  0  0  0  0  0  0  0  0
   12.0050   24.0660    3.7070 C   0  0  0  0  0  0  0  0  0  0  0  0
   12.3180   23.8210    5.1210 N   0  0  0  0  0  0  0  0  0  0  0  0
   11.2070   23.5400    6.0470 C   0  0  2  0  0  0  0  0  0  0  0  0
   11.1890   24.5230    7.2390 C   0  0  0  0  0  0  0  0  0  0  0  0
    9.8710   24.4690    7.8140 O   0  0  0  0  0  0  0  0  0  0  0  0
    9.3290   25.6550    8.2290 C   0  0  0  0  0  0  0  0  0  0  0  0
   10.2360   26.5300    8.8340 C   0  0  0  0  0  0  0  0  0  0  0  0
    9.8110   27.7670    9.3200 C   0  0  0  0  0  0  0  0  0  0  0  0
    8.4750   28.1390    9.2000 C   0  0  0  0  0  0  0  0  0  0  0  0
    7.5670   27.2730    8.5910 C   0  0  0  0  0  0  0  0  0  0  0  0
    7.9930   26.0330    8.1040 C   0  0  0  0  0  0  0  0  0  0  0  0
   11.0660   22.0530    6.4460 C   0  0  2  0  0  0  0  0  0  0  0  0
   11.3940   21.8400    7.8400 O   0  0  0  0  0  0  0  0  0  0  0  0
   11.8800   21.0400    5.6300 C   0  0  1  0  0  0  0  0  0  0  0  0
   11.4700   21.2340    4.2510 O   0  0  0  0  0  0  0  0  0  0  0  0
   13.4250   21.1280    5.6530 C   0  0  1  0  0  0  0  0  0  0  0  0
   14.0380   20.9670    4.2400 C   0  0  0  0  0  0  0  0  0  0  0  0
   15.4550   20.7810    4.3510 O   0  0  0  0  0  0  0  0  0  0  0  0
   15.9890   19.7010    3.7040 C   0  0  0  0  0  0  0  0  0  0  0  0
   15.6970   19.2990    2.4010 C   0  0  0  0  0  0  0  0  0  0  0  0
   16.3160   18.1670    1.8600 C   0  0  0  0  0  0  0  0  0  0  0  0
   17.2250   17.4340    2.6200 C   0  0  0  0  0  0  0  0  0  0  0  0
   17.5140   17.8270    3.9250 C   0  0  0  0  0  0  0  0  0  0  0  0
   16.8950   18.9560    4.4640 C   0  0  0  0  0  0  0  0  0  0  0  0
   14.0050   22.3440    6.3020 N   0  0  0  0  0  0  0  0  0  0  0  0
   14.0480   22.2880    7.7870 C   0  0  0  0  0  0  0  0  0  0  0  0
   15.2530   21.5930    8.3820 C   0  0  0  0  0  0  0  0  0  0  0  0
   16.5500   22.0050    8.0420 C   0  0  0  0  0  0  0  0  0  0  0  0
   17.6660   21.3740    8.5950 C   0  0  0  0  0  0  0  0  0  0  0  0
   17.4990   20.3200    9.4910 C   0  0  0  0  0  0  0  0  0  0  0  0
   16.2180   19.8980    9.8340 C   0  0  0  0  0  0  0  0  0  0  0  0
   15.1010   20.5290    9.2820 C   0  0  0  0  0  0  0  0  0  0  0  0
   13.8980   23.8600    5.6340 S   0  0  0  0  0  0  0  0  0  0  0  0
   14.0070   24.8430    6.6820 O   0  0  0  0  0  0  0  0  0  0  0  0
   14.7570   23.9000    4.4760 O   0  0  0  0  0  0  0  0  0  0  0  0
    9.9930   25.5520    4.1650 C   0  0  0  0  0  0  0  0  0  0  0  0
    6.1158   28.0222    6.3481 H   0  0  0  0  0  0  0  0  0  0  0  0
    6.3863   29.2057    5.0242 H   0  0  0  0  0  0  0  0  0  0  0  0
    4.9120   28.1794    5.0242 H   0  0  0  0  0  0  0  0  0  0  0  0
    6.1610   26.3770    4.2600 H   0  0  0  0  0  0  0  0  0  0  0  0
    6.8323   25.4750    2.8562 H   0  0  0  0  0  0  0  0  0  0  0  0
    7.8216   23.5328    1.6447 H   0  0  0  0  0  0  0  0  0  0  0  0
   10.1960   22.8979    2.0284 H   0  0  0  0  0  0  0  0  0  0  0  0
   12.2108   23.1482    3.1367 H   0  0  0  0  0  0  0  0  0  0  0  0
   12.6316   24.9041    3.3680 H   0  0  0  0  0  0  0  0  0  0  0  0
   10.2846   23.7311    5.4790 H   0  0  0  0  0  0  0  0  0  0  0  0
   11.9388   24.2235    7.9860 H   0  0  0  0  0  0  0  0  0  0  0  0
   11.4293   25.5439    6.9074 H   0  0  0  0  0  0  0  0  0  0  0  0
   11.2932   26.2410    8.9277 H   0  0  0  0  0  0  0  0  0  0  0  0
   10.5311   28.4477    9.7976 H   0  0  0  0  0  0  0  0  0  0  0  0
    8.1365   29.1126    9.5841 H   0  0  0  0  0  0  0  0  0  0  0  0
    6.5114   27.5665    8.4933 H   0  0  0  0  0  0  0  0  0  0  0  0
    7.2731   25.3553    7.6218 H   0  0  0  0  0  0  0  0  0  0  0  0
   10.0050   21.8597    6.2296 H   0  0  0  0  0  0  0  0  0  0  0  0
   12.3480   21.6400    7.9140 H   0  0  0  0  0  0  0  0  0  0  0  0
   11.6675   20.0648    6.0924 H   0  0  0  0  0  0  0  0  0  0  0  0
   11.3220   22.2020    4.1740 H   0  0  0  0  0  0  0  0  0  0  0  0
   13.7042   20.2793    6.2947 H   0  0  0  0  0  0  0  0  0  0  0  0
   13.5913   20.0925    3.7442 H   0  0  0  0  0  0  0  0  0  0  0  0
   13.8326   21.8702    3.6467 H   0  0  0  0  0  0  0  0  0  0  0  0
   14.9786   19.8731    1.7974 H   0  0  0  0  0  0  0  0  0  0  0  0
   16.0842   17.8546    0.8311 H   0  0  0  0  0  0  0  0  0  0  0  0
   17.7135   16.5469    2.1906 H   0  0  0  0  0  0  0  0  0  0  0  0
   18.2285   17.2488    4.5293 H   0  0  0  0  0  0  0  0  0  0  0  0
   17.1222   19.2620    5.4959 H   0  0  0  0  0  0  0  0  0  0  0  0
   14.0327   23.3209    8.1649 H   0  0  0  0  0  0  0  0  0  0  0  0
   13.1763   21.6895    8.0902 H   0  0  0  0  0  0  0  0  0  0  0  0
   16.6893   22.8338    7.3323 H   0  0  0  0  0  0  0  0  0  0  0  0
   18.6778   21.7092    8.3232 H   0  0  0  0  0  0  0  0  0  0  0  0
   18.3781   19.8224    9.9264 H   0  0  0  0  0  0  0  0  0  0  0  0
   16.0850   19.0660   10.5411 H   0  0  0  0  0  0  0  0  0  0  0  0
   14.0919   20.1877    9.5562 H   0  0  0  0  0  0  0  0  0  0  0  0
   10.5951   26.1133    4.8947 H   0  0  0  0  0  0  0  0  0  0  0  0
  1  2  1  0
  2  3  1  0
  3  4  2  0
  3  5  1  0
  5  6  2  0
  6  7  1  0
  7  8  2  0
  8  9  1  0
  9 10  1  0
 10 11  1  0
 11 12  1  0
 12 13  1  0
 13 14  1  0
 14 15  1  0
 15 16  2  0
 16 17  1  0
 17 18  2  0
 18 19  1  0
 19 20  2  0
 12 21  1  0
 21 22  1  0
 21 23  1  0
 23 24  1  0
 23 25  1  0
 25 26  1  0
 26 27  1  0
 27 28  1  0
 28 29  2  0
 29 30  1  0
 30 31  2  0
 31 32  1  0
 32 33  2  0
 25 34  1  0
 34 35  1  0
 35 36  1  0
 36 37  2  0
 37 38  1  0
 38 39  2  0
 39 40  1  0
 40 41  2  0
 34 42  1  0
 42 43  2  0
 42 44  2  0
  9 45  2  0
 45  5  1  0
 42 11  1  0
 20 15  1  0
 33 28  1  0
 41 36  1  0
  1 46  1  0
  1 47  1  0
  1 48  1  0
  2 49  1  0
  6 50  1  0
  7 51  1  0
  8 52  1  0
 10 53  1  0
 10 54  1  0
 12 55  1  6
 13 56  1  0
 13 57  1  0
 16 58  1  0
 17 59  1  0
 18 60  1  0
 19 61  1  0
 20 62  1  0
 21 63  1  1
 22 64  1  0
 23 65  1  1
 24 66  1  0
 25 67  1  1
 26 68  1  0
 26 69  1  0
 29 70  1  0
 30 71  1  0
 31 72  1  0
 32 73  1  0
 33 74  1  0
 35 75  1  0
 35 76  1  0
 37 77  1  0
 38 78  1  0
 39 79  1  0
 40 80  1  0
 41 81  1  0
 45 82  1  0
M  END
>  <meeko>  (8) 
{"is_sidechain": [false], "free_energy": -6.752, "intermolecular_energy": -16.027, "internal_energy": -0.286}

$$$$
1g2k_ligand
     RDKit          3D

 82 86  0  0  0  0  0  0  0  0999 V2000
    5.8240   26.5170    7.4270 C   0  0  0  0  0  0  0  0  0  0  0  0
    7.1750   26.3760    6.9440 N   0  0  0  0  0  0  0  0  0  0  0  0
    8.1520   25.8420    7.7620 C   0  0  0  0  0  0  0  0  0  0  0  0
    7.9760   25.5530    8.9390 O   0  0  0  0  0  0  0  0  0  0  0  0
    9.4670   25.5810    7.1170 C   0  0  0  0  0  0  0  0  0  0  0  0
    9.8980   26.4430    6.1050 C   0  0  0  0  0  0  0  0  0  0  0  0
   11.1370   26.2380    5.5020 C   0  0  0  0  0  0  0  0  0  0  0  0
   11.9420   25.1700    5.9000 C   0  0  0  0  0  0  0  0  0  0  0  0
   11.5130   24.2770    6.8940 C   0  0  0  0  0  0  0  0  0  0  0  0
   12.4050   23.1330    7.3270 C   0  0  0  0  0  0  0  0  0  0  0  0
   13.4470   22.8220    6.3380 N   0  0  0  0  0  0  0  0  0  0  0  0
   13.0330   22.2790    5.0320 C   0  0  2  0  0  0  0  0  0  0  0  0
   11.5950   21.7180    5.0720 C   0  0  0  0  0  0  0  0  0  0  0  0
   11.0780   21.7780    3.7310 O   0  0  0  0  0  0  0  0  0  0  0  0
   10.4140   22.9200    3.3750 C   0  0  0  0  0  0  0  0  0  0  0  0
    9.1240   23.0320    3.9030 C   0  0  0  0  0  0  0  0  0  0  0  0
    8.3290   24.1400    3.6050 C   0  0  0  0  0  0  0  0  0  0  0  0
    8.8230   25.1460    2.7780 C   0  0  0  0  0  0  0  0  0  0  0  0
   10.1110   25.0430    2.2550 C   0  0  0  0  0  0  0  0  0  0  0  0
   10.9070   23.9330    2.5540 C   0  0  0  0  0  0  0  0  0  0  0  0
   14.0670   21.3370    4.3740 C   0  0  2  0  0  0  0  0  0  0  0  0
   13.5700   20.7790    3.1340 O   0  0  0  0  0  0  0  0  0  0  0  0
   14.6000   20.1540    5.2210 C   0  0  1  0  0  0  0  0  0  0  0  0
   15.1340   19.1950    4.2700 O   0  0  0  0  0  0  0  0  0  0  0  0
   15.7260   20.4450    6.2410 C   0  0  1  0  0  0  0  0  0  0  0  0
   17.0930   20.6720    5.5500 C   0  0  0  0  0  0  0  0  0  0  0  0
   18.0800   19.8220    6.1490 O   0  0  0  0  0  0  0  0  0  0  0  0
   18.2920   18.6080    5.5580 C   0  0  0  0  0  0  0  0  0  0  0  0
   18.3970   18.3710    4.1870 C   0  0  0  0  0  0  0  0  0  0  0  0
   18.6130   17.0720    3.7140 C   0  0  0  0  0  0  0  0  0  0  0  0
   18.7210   16.0090    4.6070 C   0  0  0  0  0  0  0  0  0  0  0  0
   18.6080   16.2390    5.9770 C   0  0  0  0  0  0  0  0  0  0  0  0
   18.3920   17.5350    6.4470 C   0  0  0  0  0  0  0  0  0  0  0  0
   15.4720   21.5650    7.2000 N   0  0  0  0  0  0  0  0  0  0  0  0
   14.9480   21.1350    8.5230 C   0  0  0  0  0  0  0  0  0  0  0  0
   15.8880   20.2930    9.3570 C   0  0  0  0  0  0  0  0  0  0  0  0
   17.2530   20.6110    9.4290 C   0  0  0  0  0  0  0  0  0  0  0  0
   18.1230   19.8440   10.2040 C   0  0  0  0  0  0  0  0  0  0  0  0
   17.6420   18.7470   10.9150 C   0  0  0  0  0  0  0  0  0  0  0  0
   16.2910   18.4170   10.8510 C   0  0  0  0  0  0  0  0  0  0  0  0
   15.4190   19.1840   10.0760 C   0  0  0  0  0  0  0  0  0  0  0  0
   15.0430   23.0920    6.7090 S   0  0  0  0  0  0  0  0  0  0  0  0
   15.0990   23.9820    7.8410 O   0  0  0  0  0  0  0  0  0  0  0  0
   15.7560   23.3860    5.4890 O   0  0  0  0  0  0  0  0  0  0  0  0
   10.2610   24.4890    7.4940 C   0  0  0  0  0  0  0  0  0  0  0  0
    5.8260   26.5168    8.5270 H   0  0  0  0  0  0  0  0  0  0  0  0
    5.4008   27.4642    7.0613 H   0  0  0  0  0  0  0  0  0  0  0  0
    5.2144   25.6776    7.0613 H   0  0  0  0  0  0  0  0  0  0  0  0
    7.3000   26.3020    5.9430 H   0  0  0  0  0  0  0  0  0  0  0  0
    9.2609   27.2808    5.7855 H   0  0  0  0  0  0  0  0  0  0  0  0
   11.4815   26.9196    4.7103 H   0  0  0  0  0  0  0  0  0  0  0  0
   12.9254   25.0262    5.4286 H   0  0  0  0  0  0  0  0  0  0  0  0
   12.8902   23.4045    8.2761 H   0  0  0  0  0  0  0  0  0  0  0  0
   11.7719   22.2400    7.4354 H   0  0  0  0  0  0  0  0  0  0  0  0
   13.0067   23.1356    4.3424 H   0  0  0  0  0  0  0  0  0  0  0  0
   11.6064   20.6764    5.4253 H   0  0  0  0  0  0  0  0  0  0  0  0
   10.9664   22.3030    5.7595 H   0  0  0  0  0  0  0  0  0  0  0  0
    8.7324   22.2403    4.5587 H   0  0  0  0  0  0  0  0  0  0  0  0
    7.3143   24.2185    4.0225 H   0  0  0  0  0  0  0  0  0  0  0  0
    8.1985   26.0193    2.5383 H   0  0  0  0  0  0  0  0  0  0  0  0
   10.5029   25.8385    1.6042 H   0  0  0  0  0  0  0  0  0  0  0  0
   11.9237   23.8590    2.1408 H   0  0  0  0  0  0  0  0  0  0  0  0
   14.9152   22.0218    4.2270 H   0  0  0  0  0  0  0  0  0  0  0  0
   13.1280   21.4860    2.6230 H   0  0  0  0  0  0  0  0  0  0  0  0
   13.7489   19.8242    5.8348 H   0  0  0  0  0  0  0  0  0  0  0  0
   14.9690   19.6030    3.3920 H   0  0  0  0  0  0  0  0  0  0  0  0
   15.7453   19.5259    6.8450 H   0  0  0  0  0  0  0  0  0  0  0  0
   17.0062   20.4347    4.4794 H   0  0  0  0  0  0  0  0  0  0  0  0
   17.3938   21.7232    5.6702 H   0  0  0  0  0  0  0  0  0  0  0  0
   18.3098   19.2066    3.4770 H   0  0  0  0  0  0  0  0  0  0  0  0
   18.6978   16.8898    2.6325 H   0  0  0  0  0  0  0  0  0  0  0  0
   18.8952   14.9897    4.2319 H   0  0  0  0  0  0  0  0  0  0  0  0
   18.6888   15.4015    6.6855 H   0  0  0  0  0  0  0  0  0  0  0  0
   18.2995   17.7136    7.5285 H   0  0  0  0  0  0  0  0  0  0  0  0
   14.7020   22.0390    9.0994 H   0  0  0  0  0  0  0  0  0  0  0  0
   14.0803   20.4938    8.3086 H   0  0  0  0  0  0  0  0  0  0  0  0
   17.6410   21.4742    8.8684 H   0  0  0  0  0  0  0  0  0  0  0  0
   19.1902   20.1058   10.2537 H   0  0  0  0  0  0  0  0  0  0  0  0
   18.3284   18.1425   11.5260 H   0  0  0  0  0  0  0  0  0  0  0  0
   15.9100   17.5508   11.4118 H   0  0  0  0  0  0  0  0  0  0  0  0
   14.3533   18.9157   10.0289 H   0  0  0  0  0  0  0  0  0  0  0  0
    9.9007   23.7928    8.2657 H   0  0  0  0  0  0  0  0  0  0  0  0
  1  2  1  0
  2  3  1  0
  3  4  2  0
  3  5  1  0
  5  6  2  0
  6  7  1  0
  7  8  2  0
  8  9  1  0
  9 10  1  0
 10 11  1  0
 11 12  1  0
 12 13  1  0
 13 14  1  0
 14 15  1  0
 15 16  2  0
 16 17  1  0
 17 18  2  0
 18 19  1  0
 19 20  2  0
 12 21  1  0
 21 22  1  0
 21 23  1  0
 23 24  1  0
 23 25  1  0
 25 26  1  0
 26 27  1  0
 27 28  1  0
 28 29  2  0
 29 30  1  0
 30 31  2  0
 31 32  1  0
 32 33  2  0
 25 34  1  0
 34 35  1  0
 35 36  1  0
 36 37  2  0
 37 38  1  0
 38 39  2  0
 39 40  1  0
 40 41  2  0
 34 42  1  0
 42 43  2  0
 42 44  2  0
  9 45  2  0
 45  5  1  0
 42 11  1  0
 20 15  1  0
 33 28  1  0
 41 36  1  0
  1 46  1  0
  1 47  1  0
  1 48  1  0
  2 49  1  0
  6 50  1  0
  7 51  1  0
  8 52  1  0
 10 53  1  0
 10 54  1  0
 12 55  1  6
 13 56  1  0
 13 57  1  0
 16 58  1  0
 17 59  1  0
 18 60  1  0
 19 61  1  0
 20 62  1  0
 21 63  1  6
 22 64  1  0
 23 65  1  1
 24 66  1  0
 25 67  1  1
 26 68  1  0
 26 69  1  0
 29 70  1  0
 30 71  1  0
 31 72  1  0
 32 73  1  0
 33 74  1  0
 35 75  1  0
 35 76  1  0
 37 77  1  0
 38 78  1  0
 39 79  1  0
 40 80  1  0
 41 81  1  0
 45 82  1  0
M  END
>  <meeko>  (9) 
{"is_sidechain": [false], "free_energy": -6.606, "intermolecular_energy": -13.978, "internal_energy": -2.036}

$$$$
