3gbb_ligand
     RDKit          3D

 34 35  0  0  0  0  0  0  0  0999 V2000
   -0.2840   42.2360    1.0880 N   0  0  0  0  0  0  0  0  0  0  0  0
   -0.4360   43.7150    0.8620 C   0  0  1  0  0  0  0  0  0  0  0  0
    0.8950   44.4440    1.1030 C   0  0  0  0  0  0  0  0  0  0  0  0
    1.3080   44.6750    2.5730 C   0  0  2  0  0  0  0  0  0  0  0  0
    0.7000   46.0400    3.0780 C   0  0  0  0  0  0  0  0  0  0  0  0
   -0.4570   46.3080    2.6120 O   0  0  0  0  0  0  0  0  0  0  0  0
    1.4210   46.7330    3.8390 O   0  0  0  0  0  0  0  0  0  0  0  0
    2.8320   44.6020    2.7580 C   0  0  0  0  0  0  0  0  0  0  0  0
    3.0620   43.1940    3.2650 C   0  0  1  0  0  0  0  0  0  0  0  0
    4.2820   42.9830    3.9690 O   0  0  0  0  0  0  0  0  0  0  0  0
    4.3390   43.5760    5.2640 C   0  0  0  0  0  0  0  0  0  0  0  0
    3.1870   43.1050    6.1400 C   0  0  0  0  0  0  0  0  0  0  0  0
    1.8590   43.4570    5.4890 C   0  0  0  0  0  0  0  0  0  0  0  0
    1.8000   42.9140    4.0630 C   0  0  1  0  0  0  0  0  0  0  0  0
    0.7350   43.5480    3.3430 O   0  0  0  0  0  0  0  0  0  0  0  0
   -1.0620   43.9850   -0.5430 C   0  0  0  0  0  0  0  0  0  0  0  0
   -1.4610   42.9970   -1.2040 O   0  0  0  0  0  0  0  0  0  0  0  0
   -1.0830   45.2320   -0.8120 O   0  0  0  0  0  0  0  0  0  0  0  0
    0.6390   41.9250    0.7010 H   0  0  0  0  0  0  0  0  0  0  0  0
   -0.9860   41.7270    0.5410 H   0  0  0  0  0  0  0  0  0  0  0  0
   -0.4160   42.0730    2.0940 H   0  0  0  0  0  0  0  0  0  0  0  0
   -1.1393   44.1323    1.5977 H   0  0  0  0  0  0  0  0  0  0  0  0
    1.6893   43.8531    0.6234 H   0  0  0  0  0  0  0  0  0  0  0  0
    0.7510   45.4507    0.6836 H   0  0  0  0  0  0  0  0  0  0  0  0
    3.3519   44.7652    1.8024 H   0  0  0  0  0  0  0  0  0  0  0  0
    3.2167   45.3714    3.4436 H   0  0  0  0  0  0  0  0  0  0  0  0
    3.2131   42.4776    2.4440 H   0  0  0  0  0  0  0  0  0  0  0  0
    5.2897   43.2992    5.7431 H   0  0  0  0  0  0  0  0  0  0  0  0
    4.2638   44.6674    5.1493 H   0  0  0  0  0  0  0  0  0  0  0  0
    3.2509   42.0146    6.2701 H   0  0  0  0  0  0  0  0  0  0  0  0
    3.2517   43.6027    7.1188 H   0  0  0  0  0  0  0  0  0  0  0  0
    1.0400   43.0177    6.0775 H   0  0  0  0  0  0  0  0  0  0  0  0
    1.7587   44.5519    5.4564 H   0  0  0  0  0  0  0  0  0  0  0  0
    1.6603   41.8278    4.1667 H   0  0  0  0  0  0  0  0  0  0  0  0
  1  2  1  0
  2  3  1  0
  4  3  1  6
  4  5  1  0
  5  6  2  0
  5  7  1  0
  4  8  1  0
  8  9  1  0
  9 10  1  0
 10 11  1  0
 11 12  1  0
 12 13  1  0
 13 14  1  0
 14 15  1  0
  2 16  1  0
 16 17  2  0
 16 18  1  0
 15  4  1  0
 14  9  1  0
  1 19  1  0
  1 20  1  0
  1 21  1  0
  2 22  1  1
  3 23  1  0
  3 24  1  0
  8 25  1  0
  8 26  1  0
  9 27  1  6
 11 28  1  0
 11 29  1  0
 12 30  1  0
 12 31  1  0
 13 32  1  0
 13 33  1  0
 14 34  1  1
M  CHG  3   1   1   7  -1  18  -1
M  END
>  <meeko>  (1) 
{"is_sidechain": [false], "free_energy": -8.448, "intermolecular_energy": -10.67, "internal_energy": -0.474}

$$$$
3gbb_ligand
     RDKit          3D

 34 35  0  0  0  0  0  0  0  0999 V2000
   -0.9080   42.3700    0.7720 N   0  0  0  0  0  0  0  0  0  0  0  0
    0.0580   43.2360    1.5320 C   0  0  1  0  0  0  0  0  0  0  0  0
    1.3740   42.4850    1.7950 C   0  0  0  0  0  0  0  0  0  0  0  0
    1.8820   42.4580    3.2530 C   0  0  2  0  0  0  0  0  0  0  0  0
    1.6380   41.0250    3.8640 C   0  0  0  0  0  0  0  0  0  0  0  0
    1.4640   40.1030    3.0000 O   0  0  0  0  0  0  0  0  0  0  0  0
    1.5960   40.9450    5.1180 O   0  0  0  0  0  0  0  0  0  0  0  0
    1.2540   43.5770    4.0990 C   0  0  0  0  0  0  0  0  0  0  0  0
    2.3140   44.6580    4.1030 C   0  0  1  0  0  0  0  0  0  0  0  0
    2.2340   45.5970    5.1700 O   0  0  0  0  0  0  0  0  0  0  0  0
    2.5960   45.0860    6.4510 C   0  0  0  0  0  0  0  0  0  0  0  0
    3.9970   44.4910    6.4330 C   0  0  0  0  0  0  0  0  0  0  0  0
    4.0750   43.3710    5.4090 C   0  0  0  0  0  0  0  0  0  0  0  0
    3.6070   43.8620    4.0410 C   0  0  1  0  0  0  0  0  0  0  0  0
    3.3330   42.7420    3.1880 O   0  0  0  0  0  0  0  0  0  0  0  0
    0.2450   44.6050    0.8040 C   0  0  0  0  0  0  0  0  0  0  0  0
    1.2770   45.2690    1.0640 O   0  0  0  0  0  0  0  0  0  0  0  0
   -0.7220   44.8450    0.0080 O   0  0  0  0  0  0  0  0  0  0  0  0
   -1.6600   42.9760    0.3650 H   0  0  0  0  0  0  0  0  0  0  0  0
   -1.3950   41.7420    1.4190 H   0  0  0  0  0  0  0  0  0  0  0  0
   -0.3560   41.8360    0.0890 H   0  0  0  0  0  0  0  0  0  0  0  0
   -0.3549   43.4688    2.5246 H   0  0  0  0  0  0  0  0  0  0  0  0
    1.2323   41.4428    1.4728 H   0  0  0  0  0  0  0  0  0  0  0  0
    2.1394   43.0414    1.2342 H   0  0  0  0  0  0  0  0  0  0  0  0
    0.3233   43.9413    3.6397 H   0  0  0  0  0  0  0  0  0  0  0  0
    0.9788   43.2446    5.1108 H   0  0  0  0  0  0  0  0  0  0  0  0
    2.2007   45.3512    3.2565 H   0  0  0  0  0  0  0  0  0  0  0  0
    2.5635   45.9042    7.1855 H   0  0  0  0  0  0  0  0  0  0  0  0
    1.8848   44.2917    6.7218 H   0  0  0  0  0  0  0  0  0  0  0  0
    4.7221   45.2754    6.1704 H   0  0  0  0  0  0  0  0  0  0  0  0
    4.2290   44.0854    7.4288 H   0  0  0  0  0  0  0  0  0  0  0  0
    5.1157   43.0231    5.3319 H   0  0  0  0  0  0  0  0  0  0  0  0
    3.4222   42.5472    5.7332 H   0  0  0  0  0  0  0  0  0  0  0  0
    4.4190   44.5009    3.6634 H   0  0  0  0  0  0  0  0  0  0  0  0
  1  2  1  0
  2  3  1  0
  4  3  1  6
  4  5  1  0
  5  6  2  0
  5  7  1  0
  4  8  1  0
  8  9  1  0
  9 10  1  0
 10 11  1  0
 11 12  1  0
 12 13  1  0
 13 14  1  0
 14 15  1  0
  2 16  1  0
 16 17  2  0
 16 18  1  0
 15  4  1  0
 14  9  1  0
  1 19  1  0
  1 20  1  0
  1 21  1  0
  2 22  1  1
  3 23  1  0
  3 24  1  0
  8 25  1  0
  8 26  1  0
  9 27  1  6
 11 28  1  0
 11 29  1  0
 12 30  1  0
 12 31  1  0
 13 32  1  0
 13 33  1  0
 14 34  1  6
M  CHG  3   1   1   7  -1  18  -1
M  END
>  <meeko>  (2) 
{"is_sidechain": [false], "free_energy": -7.347, "intermolecular_energy": -9.311, "internal_energy": -0.443}

$$$$
3gbb_ligand
     RDKit          3D

 34 35  0  0  0  0  0  0  0  0999 V2000
   -0.8430   44.8620    2.2670 N   0  0  0  0  0  0  0  0  0  0  0  0
    0.0050   44.3620    1.1300 C   0  0  1  0  0  0  0  0  0  0  0  0
    0.8620   43.1660    1.5730 C   0  0  0  0  0  0  0  0  0  0  0  0
    1.9280   43.4350    2.6570 C   0  0  2  0  0  0  0  0  0  0  0  0
    2.7610   44.7150    2.2640 C   0  0  0  0  0  0  0  0  0  0  0  0
    4.0250   44.5470    2.2720 O   0  0  0  0  0  0  0  0  0  0  0  0
    2.1080   45.7640    2.0310 O   0  0  0  0  0  0  0  0  0  0  0  0
    2.8160   42.2050    2.9050 C   0  0  0  0  0  0  0  0  0  0  0  0
    2.2070   41.5680    4.1360 C   0  0  1  0  0  0  0  0  0  0  0  0
    3.0670   40.7090    4.8770 O   0  0  0  0  0  0  0  0  0  0  0  0
    4.1030   41.3710    5.5990 C   0  0  0  0  0  0  0  0  0  0  0  0
    3.5350   42.4210    6.5440 C   0  0  0  0  0  0  0  0  0  0  0  0
    2.7360   43.4500    5.7610 C   0  0  0  0  0  0  0  0  0  0  0  0
    1.6730   42.7660    4.9050 C   0  0  1  0  0  0  0  0  0  0  0  0
    1.1840   43.6780    3.9130 O   0  0  0  0  0  0  0  0  0  0  0  0
   -0.8850   44.0750   -0.1210 C   0  0  0  0  0  0  0  0  0  0  0  0
   -1.2370   42.8890   -0.3280 O   0  0  0  0  0  0  0  0  0  0  0  0
   -1.1410   45.1450   -0.7670 O   0  0  0  0  0  0  0  0  0  0  0  0
   -0.9300   44.1050    2.9860 H   0  0  0  0  0  0  0  0  0  0  0  0
   -1.8000   45.0290    1.9400 H   0  0  0  0  0  0  0  0  0  0  0  0
   -0.4120   45.7340    2.5980 H   0  0  0  0  0  0  0  0  0  0  0  0
    0.7190   45.1425    0.8283 H   0  0  0  0  0  0  0  0  0  0  0  0
    0.1807   42.3944    1.9609 H   0  0  0  0  0  0  0  0  0  0  0  0
    1.4303   42.8728    0.6780 H   0  0  0  0  0  0  0  0  0  0  0  0
    2.7808   41.5161    2.0482 H   0  0  0  0  0  0  0  0  0  0  0  0
    3.8768   42.4638    3.0383 H   0  0  0  0  0  0  0  0  0  0  0  0
    1.4212   40.8420    3.8803 H   0  0  0  0  0  0  0  0  0  0  0  0
    4.6631   40.6273    6.1848 H   0  0  0  0  0  0  0  0  0  0  0  0
    4.7624   41.8744    4.8767 H   0  0  0  0  0  0  0  0  0  0  0  0
    2.8781   41.9323    7.2785 H   0  0  0  0  0  0  0  0  0  0  0  0
    4.3639   42.9262    7.0614 H   0  0  0  0  0  0  0  0  0  0  0  0
    2.2456   44.1388    6.4646 H   0  0  0  0  0  0  0  0  0  0  0  0
    3.4204   44.0038    5.1015 H   0  0  0  0  0  0  0  0  0  0  0  0
    0.8931   42.4388    5.6084 H   0  0  0  0  0  0  0  0  0  0  0  0
  1  2  1  0
  2  3  1  0
  4  3  1  6
  4  5  1  0
  5  6  2  0
  5  7  1  0
  4  8  1  0
  8  9  1  0
  9 10  1  0
 10 11  1  0
 11 12  1  0
 12 13  1  0
 13 14  1  0
 14 15  1  0
  2 16  1  0
 16 17  2  0
 16 18  1  0
 15  4  1  0
 14  9  1  0
  1 19  1  0
  1 20  1  0
  1 21  1  0
  2 22  1  6
  3 23  1  0
  3 24  1  0
  8 25  1  0
  8 26  1  0
  9 27  1  6
 11 28  1  0
 11 29  1  0
 12 30  1  0
 12 31  1  0
 13 32  1  0
 13 33  1  0
 14 34  1  1
M  CHG  3   1   1   7  -1  18  -1
M  END
>  <meeko>  (3) 
{"is_sidechain": [false], "free_energy": -6.799, "intermolecular_energy": -8.994, "internal_energy": -0.068}

$$$$
3gbb_ligand
     RDKit          3D

 34 35  0  0  0  0  0  0  0  0999 V2000
    0.8350   39.9590    5.5170 N   0  0  0  0  0  0  0  0  0  0  0  0
    1.5650   40.8330    4.5360 C   0  0  1  0  0  0  0  0  0  0  0  0
    2.5480   41.7660    5.2610 C   0  0  0  0  0  0  0  0  0  0  0  0
    2.5310   43.2540    4.8480 C   0  0  2  0  0  0  0  0  0  0  0  0
    3.3330   44.1000    5.9100 C   0  0  0  0  0  0  0  0  0  0  0  0
    2.7720   45.1940    6.2480 O   0  0  0  0  0  0  0  0  0  0  0  0
    4.4440   43.6400    6.2760 O   0  0  0  0  0  0  0  0  0  0  0  0
    1.1000   43.7740    4.6370 C   0  0  0  0  0  0  0  0  0  0  0  0
    0.9120   43.7010    3.1370 C   0  0  1  0  0  0  0  0  0  0  0  0
   -0.1040   44.5410    2.6000 O   0  0  0  0  0  0  0  0  0  0  0  0
    0.2020   45.9330    2.6030 C   0  0  0  0  0  0  0  0  0  0  0  0
    1.5030   46.2150    1.8660 C   0  0  0  0  0  0  0  0  0  0  0  0
    2.6470   45.4520    2.5140 C   0  0  0  0  0  0  0  0  0  0  0  0
    2.3120   43.9650    2.6090 C   0  0  1  0  0  0  0  0  0  0  0  0
    3.2030   43.3220    3.5310 O   0  0  0  0  0  0  0  0  0  0  0  0
    2.2250   39.9600    3.4220 C   0  0  0  0  0  0  0  0  0  0  0  0
    2.7030   38.8490    3.7570 O   0  0  0  0  0  0  0  0  0  0  0  0
    2.1630   40.5320    2.2830 O   0  0  0  0  0  0  0  0  0  0  0  0
    1.1610   38.9700    5.4010 H   0  0  0  0  0  0  0  0  0  0  0  0
   -0.1640   39.9370    5.2880 H   0  0  0  0  0  0  0  0  0  0  0  0
    0.9870   40.3650    6.4490 H   0  0  0  0  0  0  0  0  0  0  0  0
    0.8497   41.4950    4.0260 H   0  0  0  0  0  0  0  0  0  0  0  0
    2.3216   41.7167    6.3363 H   0  0  0  0  0  0  0  0  0  0  0  0
    3.5480   41.4020    4.9826 H   0  0  0  0  0  0  0  0  0  0  0  0
    0.3697   43.1356    5.1558 H   0  0  0  0  0  0  0  0  0  0  0  0
    0.9502   44.7875    5.0376 H   0  0  0  0  0  0  0  0  0  0  0  0
    0.5138   42.7267    2.8175 H   0  0  0  0  0  0  0  0  0  0  0  0
   -0.6149   46.4805    2.1101 H   0  0  0  0  0  0  0  0  0  0  0  0
    0.3163   46.2610    3.6467 H   0  0  0  0  0  0  0  0  0  0  0  0
    1.4028   45.8988    0.8172 H   0  0  0  0  0  0  0  0  0  0  0  0
    1.7170   47.2929    1.9133 H   0  0  0  0  0  0  0  0  0  0  0  0
    3.5565   45.5802    1.9087 H   0  0  0  0  0  0  0  0  0  0  0  0
    2.8080   45.8460    3.5283 H   0  0  0  0  0  0  0  0  0  0  0  0
    2.4014   43.5766    1.5838 H   0  0  0  0  0  0  0  0  0  0  0  0
  1  2  1  0
  2  3  1  0
  4  3  1  1
  4  5  1  0
  5  6  2  0
  5  7  1  0
  4  8  1  0
  8  9  1  0
  9 10  1  0
 10 11  1  0
 11 12  1  0
 12 13  1  0
 13 14  1  0
 14 15  1  0
  2 16  1  0
 16 17  2  0
 16 18  1  0
 15  4  1  0
 14  9  1  0
  1 19  1  0
  1 20  1  0
  1 21  1  0
  2 22  1  6
  3 23  1  0
  3 24  1  0
  8 25  1  0
  8 26  1  0
  9 27  1  1
 11 28  1  0
 11 29  1  0
 12 30  1  0
 12 31  1  0
 13 32  1  0
 13 33  1  0
 14 34  1  6
M  CHG  3   1   1   7  -1  18  -1
M  END
>  <meeko>  (4) 
{"is_sidechain": [false], "free_energy": -6.442, "intermolecular_energy": -8.299, "internal_energy": -0.311}

$$$$
3gbb_ligand
     RDKit          3D

 34 35  0  0  0  0  0  0  0  0999 V2000
   -1.0290   45.1150    2.6900 N   0  0  0  0  0  0  0  0  0  0  0  0
   -0.2710   45.2460    1.3980 C   0  0  1  0  0  0  0  0  0  0  0  0
    1.2440   45.2790    1.6550 C   0  0  0  0  0  0  0  0  0  0  0  0
    1.7160   44.9530    3.0880 C   0  0  2  0  0  0  0  0  0  0  0  0
    1.6900   46.2670    3.9590 C   0  0  0  0  0  0  0  0  0  0  0  0
    2.0380   46.1030    5.1760 O   0  0  0  0  0  0  0  0  0  0  0  0
    1.2960   47.3160    3.3890 O   0  0  0  0  0  0  0  0  0  0  0  0
    3.0900   44.2640    3.0970 C   0  0  0  0  0  0  0  0  0  0  0  0
    2.7520   42.7950    3.2320 C   0  0  1  0  0  0  0  0  0  0  0  0
    3.7930   41.9670    3.7390 O   0  0  0  0  0  0  0  0  0  0  0  0
    4.0790   42.1400    5.1250 C   0  0  0  0  0  0  0  0  0  0  0  0
    2.8350   41.9320    5.9770 C   0  0  0  0  0  0  0  0  0  0  0  0
    1.7500   42.9130    5.5650 C   0  0  0  0  0  0  0  0  0  0  0  0
    1.4820   42.8170    4.0650 C   0  0  1  0  0  0  0  0  0  0  0  0
    0.7490   43.9680    3.6250 O   0  0  0  0  0  0  0  0  0  0  0  0
   -0.7190   44.1360    0.3950 C   0  0  0  0  0  0  0  0  0  0  0  0
   -0.5950   42.9400    0.7530 O   0  0  0  0  0  0  0  0  0  0  0  0
   -1.1760   44.6400   -0.6840 O   0  0  0  0  0  0  0  0  0  0  0  0
   -0.3480   45.1150    3.4860 H   0  0  0  0  0  0  0  0  0  0  0  0
   -1.4880   44.1990    2.7330 H   0  0  0  0  0  0  0  0  0  0  0  0
   -1.7230   45.8730    2.7060 H   0  0  0  0  0  0  0  0  0  0  0  0
   -0.5122   46.2079    0.9220 H   0  0  0  0  0  0  0  0  0  0  0  0
    1.7121   44.5502    0.9770 H   0  0  0  0  0  0  0  0  0  0  0  0
    1.5410   46.3245    1.4859 H   0  0  0  0  0  0  0  0  0  0  0  0
    3.6323   44.4575    2.1597 H   0  0  0  0  0  0  0  0  0  0  0  0
    3.7445   44.6273    3.9030 H   0  0  0  0  0  0  0  0  0  0  0  0
    2.6099   42.3112    2.2544 H   0  0  0  0  0  0  0  0  0  0  0  0
    4.8456   41.4109    5.4263 H   0  0  0  0  0  0  0  0  0  0  0  0
    4.4375   43.1684    5.2796 H   0  0  0  0  0  0  0  0  0  0  0  0
    2.4676   40.9043    5.8396 H   0  0  0  0  0  0  0  0  0  0  0  0
    3.0901   42.1001    7.0337 H   0  0  0  0  0  0  0  0  0  0  0  0
    0.8251   42.6807    6.1133 H   0  0  0  0  0  0  0  0  0  0  0  0
    2.0856   43.9336    5.8013 H   0  0  0  0  0  0  0  0  0  0  0  0
    0.9291   41.8765    3.9245 H   0  0  0  0  0  0  0  0  0  0  0  0
  1  2  1  0
  2  3  1  0
  4  3  1  6
  4  5  1  0
  5  6  2  0
  5  7  1  0
  4  8  1  0
  8  9  1  0
  9 10  1  0
 10 11  1  0
 11 12  1  0
 12 13  1  0
 13 14  1  0
 14 15  1  0
  2 16  1  0
 16 17  2  0
 16 18  1  0
 15  4  1  0
 14  9  1  0
  1 19  1  0
  1 20  1  0
  1 21  1  0
  2 22  1  6
  3 23  1  0
  3 24  1  0
  8 25  1  0
  8 26  1  0
  9 27  1  6
 11 28  1  0
 11 29  1  0
 12 30  1  0
 12 31  1  0
 13 32  1  0
 13 33  1  0
 14 34  1  1
M  CHG  3   1   1   7  -1  18  -1
M  END
>  <meeko>  (5) 
{"is_sidechain": [false], "free_energy": -6.359, "intermolecular_energy": -8.791, "internal_energy": 0.285}

$$$$
3gbb_ligand
     RDKit          3D

 34 35  0  0  0  0  0  0  0  0999 V2000
    1.0930   47.2990    3.2100 N   0  0  0  0  0  0  0  0  0  0  0  0
    1.3970   46.0410    3.9760 C   0  0  1  0  0  0  0  0  0  0  0  0
    2.3570   45.1380    3.1850 C   0  0  0  0  0  0  0  0  0  0  0  0
    1.8690   43.7080    2.8690 C   0  0  2  0  0  0  0  0  0  0  0  0
    0.9230   43.7460    1.6080 C   0  0  0  0  0  0  0  0  0  0  0  0
    0.3880   42.6260    1.3140 O   0  0  0  0  0  0  0  0  0  0  0  0
    0.8270   44.8460    1.0060 O   0  0  0  0  0  0  0  0  0  0  0  0
    1.2050   43.0470    4.0870 C   0  0  0  0  0  0  0  0  0  0  0  0
    2.3040   42.1830    4.6680 C   0  0  1  0  0  0  0  0  0  0  0  0
    1.8730   41.1070    5.4940 O   0  0  0  0  0  0  0  0  0  0  0  0
    1.2440   40.0310    4.8010 C   0  0  0  0  0  0  0  0  0  0  0  0
    2.1470   39.4730    3.7100 C   0  0  0  0  0  0  0  0  0  0  0  0
    2.5020   40.5670    2.7160 C   0  0  0  0  0  0  0  0  0  0  0  0
    3.0960   41.7740    3.4370 C   0  0  1  0  0  0  0  0  0  0  0  0
    3.0830   42.9160    2.5690 O   0  0  0  0  0  0  0  0  0  0  0  0
    1.8970   46.3920    5.4140 C   0  0  0  0  0  0  0  0  0  0  0  0
    2.3000   45.4500    6.1380 O   0  0  0  0  0  0  0  0  0  0  0  0
    1.8270   47.6450    5.6390 O   0  0  0  0  0  0  0  0  0  0  0  0
    1.9920   47.7170    2.8710 H   0  0  0  0  0  0  0  0  0  0  0  0
    0.6950   48.0020    3.8410 H   0  0  0  0  0  0  0  0  0  0  0  0
    0.4220   47.0440    2.4750 H   0  0  0  0  0  0  0  0  0  0  0  0
    0.4760   45.4534    4.1045 H   0  0  0  0  0  0  0  0  0  0  0  0
    2.5688   45.6362    2.2274 H   0  0  0  0  0  0  0  0  0  0  0  0
    3.2308   45.0049    3.8398 H   0  0  0  0  0  0  0  0  0  0  0  0
    0.8755   43.8043    4.8136 H   0  0  0  0  0  0  0  0  0  0  0  0
    0.3048   42.4725    3.8231 H   0  0  0  0  0  0  0  0  0  0  0  0
    2.9131   42.7282    5.4040 H   0  0  0  0  0  0  0  0  0  0  0  0
    1.0115   39.2300    5.5182 H   0  0  0  0  0  0  0  0  0  0  0  0
    0.3251   40.4109    4.3306 H   0  0  0  0  0  0  0  0  0  0  0  0
    3.0688   39.0819    4.1653 H   0  0  0  0  0  0  0  0  0  0  0  0
    1.6182   38.6652    3.1829 H   0  0  0  0  0  0  0  0  0  0  0  0
    3.2373   40.1774    1.9966 H   0  0  0  0  0  0  0  0  0  0  0  0
    1.5873   40.8811    2.1918 H   0  0  0  0  0  0  0  0  0  0  0  0
    4.1113   41.4710    3.7325 H   0  0  0  0  0  0  0  0  0  0  0  0
  1  2  1  0
  2  3  1  0
  4  3  1  1
  4  5  1  0
  5  6  2  0
  5  7  1  0
  4  8  1  0
  8  9  1  0
  9 10  1  0
 10 11  1  0
 11 12  1  0
 12 13  1  0
 13 14  1  0
 14 15  1  0
  2 16  1  0
 16 17  2  0
 16 18  1  0
 15  4  1  0
 14  9  1  0
  1 19  1  0
  1 20  1  0
  1 21  1  0
  2 22  1  1
  3 23  1  0
  3 24  1  0
  8 25  1  0
  8 26  1  0
  9 27  1  1
 11 28  1  0
 11 29  1  0
 12 30  1  0
 12 31  1  0
 13 32  1  0
 13 33  1  0
 14 34  1  1
M  CHG  3   1   1   7  -1  18  -1
M  END
>  <meeko>  (6) 
{"is_sidechain": [false], "free_energy": -6.302, "intermolecular_energy": -8.019, "internal_energy": -0.416}

$$$$
3gbb_ligand
     RDKit          3D

 34 35  0  0  0  0  0  0  0  0999 V2000
    0.8100   39.9980    5.5150 N   0  0  0  0  0  0  0  0  0  0  0  0
    1.4920   40.9220    4.5440 C   0  0  1  0  0  0  0  0  0  0  0  0
    2.4430   41.8810    5.2790 C   0  0  0  0  0  0  0  0  0  0  0  0
    2.6780   43.2630    4.6310 C   0  0  2  0  0  0  0  0  0  0  0  0
    4.0420   43.2440    3.8410 C   0  0  0  0  0  0  0  0  0  0  0  0
    5.0620   42.9560    4.5510 O   0  0  0  0  0  0  0  0  0  0  0  0
    3.9940   43.5520    2.6230 O   0  0  0  0  0  0  0  0  0  0  0  0
    2.6080   44.3990    5.6640 C   0  0  0  0  0  0  0  0  0  0  0  0
    1.2020   44.9370    5.5080 C   0  0  1  0  0  0  0  0  0  0  0  0
    0.9940   46.2660    5.9720 O   0  0  0  0  0  0  0  0  0  0  0  0
    1.5890   47.2840    5.1690 C   0  0  0  0  0  0  0  0  0  0  0  0
    1.1170   47.1950    3.7250 C   0  0  0  0  0  0  0  0  0  0  0  0
    1.4660   45.8340    3.1440 C   0  0  0  0  0  0  0  0  0  0  0  0
    0.9200   44.7170    4.0310 C   0  0  1  0  0  0  0  0  0  0  0  0
    1.5510   43.4750    3.6950 O   0  0  0  0  0  0  0  0  0  0  0  0
    2.1750   40.1010    3.4050 C   0  0  0  0  0  0  0  0  0  0  0  0
    2.2640   40.6340    2.2730 O   0  0  0  0  0  0  0  0  0  0  0  0
    2.5700   38.9630    3.8240 O   0  0  0  0  0  0  0  0  0  0  0  0
    0.3640   39.2140    4.9830 H   0  0  0  0  0  0  0  0  0  0  0  0
    0.0320   40.4850    5.9720 H   0  0  0  0  0  0  0  0  0  0  0  0
    1.5190   39.7140    6.2030 H   0  0  0  0  0  0  0  0  0  0  0  0
    0.7441   41.5633    4.0547 H   0  0  0  0  0  0  0  0  0  0  0  0
    2.0317   42.0510    6.2850 H   0  0  0  0  0  0  0  0  0  0  0  0
    3.4241   41.3839    5.2592 H   0  0  0  0  0  0  0  0  0  0  0  0
    2.7706   44.0147    6.6818 H   0  0  0  0  0  0  0  0  0  0  0  0
    3.3792   45.1674    5.5066 H   0  0  0  0  0  0  0  0  0  0  0  0
    0.4849   44.4163    6.1596 H   0  0  0  0  0  0  0  0  0  0  0  0
    1.3138   48.2682    5.5760 H   0  0  0  0  0  0  0  0  0  0  0  0
    2.6803   47.1471    5.1868 H   0  0  0  0  0  0  0  0  0  0  0  0
    0.0268   47.3371    3.6892 H   0  0  0  0  0  0  0  0  0  0  0  0
    1.6161   47.9773    3.1343 H   0  0  0  0  0  0  0  0  0  0  0  0
    1.0265   45.7459    2.1395 H   0  0  0  0  0  0  0  0  0  0  0  0
    2.5607   45.7411    3.0889 H   0  0  0  0  0  0  0  0  0  0  0  0
   -0.1663   44.7066    3.8579 H   0  0  0  0  0  0  0  0  0  0  0  0
  1  2  1  0
  2  3  1  0
  4  3  1  1
  4  5  1  0
  5  6  2  0
  5  7  1  0
  4  8  1  0
  8  9  1  0
  9 10  1  0
 10 11  1  0
 11 12  1  0
 12 13  1  0
 13 14  1  0
 14 15  1  0
  2 16  1  0
 16 17  2  0
 16 18  1  0
 15  4  1  0
 14  9  1  0
  1 19  1  0
  1 20  1  0
  1 21  1  0
  2 22  1  6
  3 23  1  0
  3 24  1  0
  8 25  1  0
  8 26  1  0
  9 27  1  1
 11 28  1  0
 11 29  1  0
 12 30  1  0
 12 31  1  0
 13 32  1  0
 13 33  1  0
 14 34  1  1
M  CHG  3   1   1   7  -1  18  -1
M  END
>  <meeko>  (7) 
{"is_sidechain": [false], "free_energy": -6.208, "intermolecular_energy": -7.799, "internal_energy": -0.516}

$$$$
3gbb_ligand
     RDKit          3D

 34 35  0  0  0  0  0  0  0  0999 V2000
    4.5140   43.9630    6.9000 N   0  0  0  0  0  0  0  0  0  0  0  0
    3.5740   43.2990    5.9320 C   0  0  1  0  0  0  0  0  0  0  0  0
    3.6240   43.9900    4.5600 C   0  0  0  0  0  0  0  0  0  0  0  0
    2.2800   44.4710    3.9730 C   0  0  2  0  0  0  0  0  0  0  0  0
    1.5650   45.4200    5.0100 C   0  0  0  0  0  0  0  0  0  0  0  0
    0.6050   44.8770    5.6500 O   0  0  0  0  0  0  0  0  0  0  0  0
    1.9790   46.6060    5.0690 O   0  0  0  0  0  0  0  0  0  0  0  0
    1.3910   43.2950    3.5380 C   0  0  0  0  0  0  0  0  0  0  0  0
    1.6280   43.2020    2.0450 C   0  0  1  0  0  0  0  0  0  0  0  0
    0.6110   42.5420    1.2990 O   0  0  0  0  0  0  0  0  0  0  0  0
   -0.6090   43.2690    1.1700 C   0  0  0  0  0  0  0  0  0  0  0  0
   -0.3720   44.6430    0.5580 C   0  0  0  0  0  0  0  0  0  0  0  0
    0.5940   45.4390    1.4200 C   0  0  0  0  0  0  0  0  0  0  0  0
    1.8790   44.6490    1.6540 C   0  0  1  0  0  0  0  0  0  0  0  0
    2.6140   45.2230    2.7420 O   0  0  0  0  0  0  0  0  0  0  0  0
    3.8520   41.7630    5.8780 C   0  0  0  0  0  0  0  0  0  0  0  0
    3.0900   41.0560    5.1740 O   0  0  0  0  0  0  0  0  0  0  0  0
    4.8670   41.4480    6.5830 O   0  0  0  0  0  0  0  0  0  0  0  0
    4.1120   44.8880    7.1850 H   0  0  0  0  0  0  0  0  0  0  0  0
    5.3950   44.1910    6.4280 H   0  0  0  0  0  0  0  0  0  0  0  0
    4.6710   43.2980    7.6670 H   0  0  0  0  0  0  0  0  0  0  0  0
    2.5380   43.4134    6.2835 H   0  0  0  0  0  0  0  0  0  0  0  0
    4.2795   44.8684    4.6536 H   0  0  0  0  0  0  0  0  0  0  0  0
    3.9829   43.2188    3.8625 H   0  0  0  0  0  0  0  0  0  0  0  0
    1.6945   42.3658    4.0424 H   0  0  0  0  0  0  0  0  0  0  0  0
    0.3315   43.4429    3.7940 H   0  0  0  0  0  0  0  0  0  0  0  0
    2.4739   42.5429    1.8000 H   0  0  0  0  0  0  0  0  0  0  0  0
   -1.2969   42.7031    0.5246 H   0  0  0  0  0  0  0  0  0  0  0  0
   -1.0398   43.4052    2.1729 H   0  0  0  0  0  0  0  0  0  0  0  0
    0.0527   44.5241   -0.4497 H   0  0  0  0  0  0  0  0  0  0  0  0
   -1.3296   45.1811    0.4994 H   0  0  0  0  0  0  0  0  0  0  0  0
    0.8376   46.3839    0.9123 H   0  0  0  0  0  0  0  0  0  0  0  0
    0.1194   45.6413    2.3915 H   0  0  0  0  0  0  0  0  0  0  0  0
    2.4251   44.6866    0.6999 H   0  0  0  0  0  0  0  0  0  0  0  0
  1  2  1  0
  2  3  1  0
  4  3  1  1
  4  5  1  0
  5  6  2  0
  5  7  1  0
  4  8  1  0
  8  9  1  0
  9 10  1  0
 10 11  1  0
 11 12  1  0
 12 13  1  0
 13 14  1  0
 14 15  1  0
  2 16  1  0
 16 17  2  0
 16 18  1  0
 15  4  1  0
 14  9  1  0
  1 19  1  0
  1 20  1  0
  1 21  1  0
  2 22  1  1
  3 23  1  0
  3 24  1  0
  8 25  1  0
  8 26  1  0
  9 27  1  1
 11 28  1  0
 11 29  1  0
 12 30  1  0
 12 31  1  0
 13 32  1  0
 13 33  1  0
 14 34  1  6
M  CHG  3   1   1   7  -1  18  -1
M  END
>  <meeko>  (8) 
{"is_sidechain": [false], "free_energy": -6.12, "intermolecular_energy": -7.857, "internal_energy": -0.347}

$$$$
