3g0w_ligand
     RDKit          3D

 37 39  0  0  0  0  0  0  0  0999 V2000
   51.2760    2.6860    4.4980 C   0  0  0  0  0  0  0  0  0  0  0  0
   52.4670    3.5690    4.2250 C   0  0  0  0  0  0  0  0  0  0  0  0
   53.7450    3.0040    4.0410 C   0  0  0  0  0  0  0  0  0  0  0  0
   53.9610    1.6200    4.1240 N   0  0  0  0  0  0  0  0  0  0  0  0
   55.1700    1.2040    4.2970 C   0  0  0  0  0  0  0  0  0  0  0  0
   56.2420    2.0490    4.3520 O   0  0  0  0  0  0  0  0  0  0  0  0
   57.4560    1.2800    4.5090 C   0  0  1  0  0  0  0  0  0  0  0  0
   58.1080    1.5570    5.8510 C   0  0  0  0  0  0  0  0  0  0  0  0
   58.0190    0.4880    6.6740 F   0  0  0  0  0  0  0  0  0  0  0  0
   59.4140    1.8810    5.7330 F   0  0  0  0  0  0  0  0  0  0  0  0
   57.4930    2.5910    6.4740 F   0  0  0  0  0  0  0  0  0  0  0  0
   57.0330   -0.1720    4.4200 C   0  0  2  0  0  0  0  0  0  0  0  0
   57.3800   -0.8700    3.1020 C   0  0  1  0  0  0  0  0  0  0  0  0
   58.6550   -1.4830    3.1330 O   0  0  0  0  0  0  0  0  0  0  0  0
   56.2480   -1.8870    2.9930 C   0  0  0  0  0  0  0  0  0  0  0  0
   55.0300   -1.0920    3.4630 C   0  0  0  0  0  0  0  0  0  0  0  0
   55.5790   -0.1000    4.3930 N   0  0  0  0  0  0  0  0  0  0  0  0
   54.8500    3.8340    3.8150 C   0  0  0  0  0  0  0  0  0  0  0  0
   54.7000    5.2160    3.7280 C   0  0  0  0  0  0  0  0  0  0  0  0
   53.4350    5.7930    3.8730 C   0  0  0  0  0  0  0  0  0  0  0  0
   53.3210    7.2190    3.7660 C   0  0  0  0  0  0  0  0  0  0  0  0
   53.2650    8.3740    3.6730 N   0  0  0  0  0  0  0  0  0  0  0  0
   52.3210    4.9710    4.1200 C   0  0  0  0  0  0  0  0  0  0  0  0
   50.7450    5.6880    4.2880 Cl  0  0  0  0  0  0  0  0  0  0  0  0
   51.1372    2.5831    5.5843 H   0  0  0  0  0  0  0  0  0  0  0  0
   50.3760    3.1368    4.0544 H   0  0  0  0  0  0  0  0  0  0  0  0
   51.4458    1.6938    4.0544 H   0  0  0  0  0  0  0  0  0  0  0  0
   58.1964    1.5420    3.7389 H   0  0  0  0  0  0  0  0  0  0  0  0
   57.5236   -0.7216    5.2369 H   0  0  0  0  0  0  0  0  0  0  0  0
   57.4516   -0.1875    2.2423 H   0  0  0  0  0  0  0  0  0  0  0  0
   58.9560   -1.5610    4.0570 H   0  0  0  0  0  0  0  0  0  0  0  0
   56.1213   -2.2288    1.9551 H   0  0  0  0  0  0  0  0  0  0  0  0
   56.4251   -2.7995    3.5811 H   0  0  0  0  0  0  0  0  0  0  0  0
   54.5362   -0.5977    2.6134 H   0  0  0  0  0  0  0  0  0  0  0  0
   54.2680   -1.7310    3.9331 H   0  0  0  0  0  0  0  0  0  0  0  0
   55.8497    3.3886    3.7047 H   0  0  0  0  0  0  0  0  0  0  0  0
   55.5774    5.8537    3.5451 H   0  0  0  0  0  0  0  0  0  0  0  0
  1  2  1  0
  2  3  2  0
  3  4  1  0
  4  5  2  0
  5  6  1  0
  6  7  1  0
  7  8  1  0
  8  9  1  0
  8 10  1  0
  8 11  1  0
  7 12  1  0
 12 13  1  0
 13 14  1  0
 13 15  1  0
 15 16  1  0
 16 17  1  0
  3 18  1  0
 18 19  2  0
 19 20  1  0
 20 21  1  0
 21 22  3  0
 20 23  2  0
 23 24  1  0
 23  2  1  0
 17  5  1  0
 17 12  1  0
  1 25  1  0
  1 26  1  0
  1 27  1  0
  7 28  1  6
 12 29  1  1
 13 30  1  6
 14 31  1  0
 15 32  1  0
 15 33  1  0
 16 34  1  0
 16 35  1  0
 18 36  1  0
 19 37  1  0
M  END
>  <meeko>  (1) 
{"is_sidechain": [false], "free_energy": -10.205, "intermolecular_energy": -11.697, "internal_energy": 0.649}

$$$$
3g0w_ligand
     RDKit          3D

 37 39  0  0  0  0  0  0  0  0999 V2000
   55.9170   -0.8940    2.9400 C   0  0  0  0  0  0  0  0  0  0  0  0
   56.3980    0.0390    4.0240 C   0  0  0  0  0  0  0  0  0  0  0  0
   55.5780    1.0950    4.4680 C   0  0  0  0  0  0  0  0  0  0  0  0
   54.3090    1.3300    3.9160 N   0  0  0  0  0  0  0  0  0  0  0  0
   53.8620    2.5410    3.9170 C   0  0  0  0  0  0  0  0  0  0  0  0
   54.5480    3.5820    4.4750 O   0  0  0  0  0  0  0  0  0  0  0  0
   53.7690    4.7940    4.3560 C   0  0  1  0  0  0  0  0  0  0  0  0
   54.4550    5.7970    3.4460 C   0  0  0  0  0  0  0  0  0  0  0  0
   55.0690    6.7690    4.1570 F   0  0  0  0  0  0  0  0  0  0  0  0
   55.3790    5.2220    2.6480 F   0  0  0  0  0  0  0  0  0  0  0  0
   53.5500    6.4040    2.6410 F   0  0  0  0  0  0  0  0  0  0  0  0
   52.4420    4.3680    3.7620 C   0  0  2  0  0  0  0  0  0  0  0  0
   51.2710    4.3320    4.7490 C   0  0  1  0  0  0  0  0  0  0  0  0
   50.5820    5.5670    4.8160 O   0  0  0  0  0  0  0  0  0  0  0  0
   50.4130    3.2190    4.1560 C   0  0  0  0  0  0  0  0  0  0  0  0
   51.4490    2.1800    3.7310 C   0  0  0  0  0  0  0  0  0  0  0  0
   52.6520    2.9650    3.4350 N   0  0  0  0  0  0  0  0  0  0  0  0
   56.0430    1.9720    5.4560 C   0  0  0  0  0  0  0  0  0  0  0  0
   57.2950    1.7940    6.0380 C   0  0  0  0  0  0  0  0  0  0  0  0
   58.1090    0.7320    5.6340 C   0  0  0  0  0  0  0  0  0  0  0  0
   59.3870    0.5760    6.2660 C   0  0  0  0  0  0  0  0  0  0  0  0
   60.4140    0.4790    6.7970 N   0  0  0  0  0  0  0  0  0  0  0  0
   57.6610   -0.1440    4.6300 C   0  0  0  0  0  0  0  0  0  0  0  0
   58.6690   -1.4740    4.1360 Cl  0  0  0  0  0  0  0  0  0  0  0  0
   55.4587   -1.7829    3.3980 H   0  0  0  0  0  0  0  0  0  0  0  0
   55.1725   -0.3781    2.3159 H   0  0  0  0  0  0  0  0  0  0  0  0
   56.7691   -1.2012    2.3159 H   0  0  0  0  0  0  0  0  0  0  0  0
   53.6458    5.2865    5.3318 H   0  0  0  0  0  0  0  0  0  0  0  0
   52.1876    5.0703    2.9545 H   0  0  0  0  0  0  0  0  0  0  0  0
   51.5724    4.1562    5.7922 H   0  0  0  0  0  0  0  0  0  0  0  0
   49.7530    5.4490    5.3140 H   0  0  0  0  0  0  0  0  0  0  0  0
   49.7243    2.8067    4.9081 H   0  0  0  0  0  0  0  0  0  0  0  0
   49.7726    3.5580    3.3284 H   0  0  0  0  0  0  0  0  0  0  0  0
   51.6408    1.4657    4.5453 H   0  0  0  0  0  0  0  0  0  0  0  0
   51.1153    1.5829    2.8696 H   0  0  0  0  0  0  0  0  0  0  0  0
   55.4103    2.8129    5.7764 H   0  0  0  0  0  0  0  0  0  0  0  0
   57.6437    2.4892    6.8159 H   0  0  0  0  0  0  0  0  0  0  0  0
  1  2  1  0
  2  3  2  0
  3  4  1  0
  4  5  2  0
  5  6  1  0
  6  7  1  0
  7  8  1  0
  8  9  1  0
  8 10  1  0
  8 11  1  0
  7 12  1  0
 12 13  1  0
 13 14  1  0
 13 15  1  0
 15 16  1  0
 16 17  1  0
  3 18  1  0
 18 19  2  0
 19 20  1  0
 20 21  1  0
 21 22  3  0
 20 23  2  0
 23 24  1  0
 23  2  1  0
 17  5  1  0
 17 12  1  0
  1 25  1  0
  1 26  1  0
  1 27  1  0
  7 28  1  1
 12 29  1  6
 13 30  1  1
 14 31  1  0
 15 32  1  0
 15 33  1  0
 16 34  1  0
 16 35  1  0
 18 36  1  0
 19 37  1  0
M  END
>  <meeko>  (2) 
{"is_sidechain": [false], "free_energy": -8.232, "intermolecular_energy": -9.289, "internal_energy": 0.503}

$$$$
3g0w_ligand
     RDKit          3D

 37 39  0  0  0  0  0  0  0  0999 V2000
   54.9100    3.2260    2.7070 C   0  0  0  0  0  0  0  0  0  0  0  0
   53.7550    3.6410    3.5820 C   0  0  0  0  0  0  0  0  0  0  0  0
   53.0430    2.6780    4.3250 C   0  0  0  0  0  0  0  0  0  0  0  0
   53.3630    1.3130    4.2670 N   0  0  0  0  0  0  0  0  0  0  0  0
   54.5790    0.9630    4.5230 C   0  0  0  0  0  0  0  0  0  0  0  0
   55.5660    1.8660    4.7950 O   0  0  0  0  0  0  0  0  0  0  0  0
   56.8180    1.1700    4.9940 C   0  0  1  0  0  0  0  0  0  0  0  0
   57.3050    1.3200    6.4220 C   0  0  0  0  0  0  0  0  0  0  0  0
   56.4210    2.0100    7.1770 F   0  0  0  0  0  0  0  0  0  0  0  0
   57.5210    0.1300    7.0220 F   0  0  0  0  0  0  0  0  0  0  0  0
   58.4750    2.0040    6.4560 F   0  0  0  0  0  0  0  0  0  0  0  0
   56.5260   -0.2850    4.6870 C   0  0  2  0  0  0  0  0  0  0  0  0
   57.0620   -0.7840    3.3410 C   0  0  1  0  0  0  0  0  0  0  0  0
   58.3730   -1.3070    3.4410 O   0  0  0  0  0  0  0  0  0  0  0  0
   56.0340   -1.8560    2.9890 C   0  0  0  0  0  0  0  0  0  0  0  0
   54.7140   -1.2130    3.4120 C   0  0  0  0  0  0  0  0  0  0  0  0
   55.0820   -0.3110    4.5080 N   0  0  0  0  0  0  0  0  0  0  0  0
   51.9550    3.0690    5.1150 C   0  0  0  0  0  0  0  0  0  0  0  0
   51.5860    4.4090    5.2100 C   0  0  0  0  0  0  0  0  0  0  0  0
   52.3010    5.3830    4.5070 C   0  0  0  0  0  0  0  0  0  0  0  0
   51.8960    6.7520    4.6400 C   0  0  0  0  0  0  0  0  0  0  0  0
   51.5420    7.8490    4.7700 N   0  0  0  0  0  0  0  0  0  0  0  0
   53.3840    5.0000    3.6960 C   0  0  0  0  0  0  0  0  0  0  0  0
   54.2810    6.2130    2.8310 Cl  0  0  0  0  0  0  0  0  0  0  0  0
   55.7576    2.9215    3.3386 H   0  0  0  0  0  0  0  0  0  0  0  0
   54.6040    2.3816    2.0719 H   0  0  0  0  0  0  0  0  0  0  0  0
   55.2114    4.0721    2.0719 H   0  0  0  0  0  0  0  0  0  0  0  0
   57.6095    1.5779    4.3481 H   0  0  0  0  0  0  0  0  0  0  0  0
   56.9738   -0.8989    5.4823 H   0  0  0  0  0  0  0  0  0  0  0  0
   57.1643    0.0050    2.5814 H   0  0  0  0  0  0  0  0  0  0  0  0
   58.3810   -2.2290    3.1260 H   0  0  0  0  0  0  0  0  0  0  0  0
   56.0413   -2.0727    1.9106 H   0  0  0  0  0  0  0  0  0  0  0  0
   56.2255   -2.8207    3.4816 H   0  0  0  0  0  0  0  0  0  0  0  0
   54.2701   -0.6505    2.5774 H   0  0  0  0  0  0  0  0  0  0  0  0
   53.9635   -1.9576    3.7160 H   0  0  0  0  0  0  0  0  0  0  0  0
   51.3843    2.3082    5.6677 H   0  0  0  0  0  0  0  0  0  0  0  0
   50.7316    4.7007    5.8385 H   0  0  0  0  0  0  0  0  0  0  0  0
  1  2  1  0
  2  3  2  0
  3  4  1  0
  4  5  2  0
  5  6  1  0
  6  7  1  0
  7  8  1  0
  8  9  1  0
  8 10  1  0
  8 11  1  0
  7 12  1  0
 12 13  1  0
 13 14  1  0
 13 15  1  0
 15 16  1  0
 16 17  1  0
  3 18  1  0
 18 19  2  0
 19 20  1  0
 20 21  1  0
 21 22  3  0
 20 23  2  0
 23 24  1  0
 23  2  1  0
 17  5  1  0
 17 12  1  0
  1 25  1  0
  1 26  1  0
  1 27  1  0
  7 28  1  6
 12 29  1  1
 13 30  1  6
 14 31  1  0
 15 32  1  0
 15 33  1  0
 16 34  1  0
 16 35  1  0
 18 36  1  0
 19 37  1  0
M  END
>  <meeko>  (3) 
{"is_sidechain": [false], "free_energy": -7.557, "intermolecular_energy": -9.398, "internal_energy": 1.385}

$$$$
