3dxg_ligand
     RDKit          3D

 32 33  0  0  0  0  0  0  0  0999 V2000
   42.0670   -4.2550   11.6840 O   0  0  0  0  0  0  0  0  0  0  0  0
   40.9870   -3.7510   11.9760 C   0  0  0  0  0  0  0  0  0  0  0  0
   39.9590   -4.4630   12.7400 C   0  0  0  0  0  0  0  0  0  0  0  0
   38.8390   -3.8140   13.0670 C   0  0  0  0  0  0  0  0  0  0  0  0
   38.5890   -2.5090   12.6790 N   0  0  0  0  0  0  0  0  0  0  0  0
   37.3750   -1.8130   13.1080 C   0  0  2  0  0  0  0  0  0  0  0  0
   36.4770   -2.6720   13.8280 O   0  0  0  0  0  0  0  0  0  0  0  0
   35.4430   -3.1590   12.9250 C   0  0  2  0  0  0  0  0  0  0  0  0
   35.4830   -4.6770   12.7490 C   0  0  0  0  0  0  0  0  0  0  0  0
   34.5040   -5.0790   11.8110 O   0  0  0  0  0  0  0  0  0  0  0  0
   33.7130   -6.4620   12.2060 P   0  0  0  0  0  0  0  0  0  0  0  0
   34.2040   -7.4610   11.1730 O   0  0  0  0  0  0  0  0  0  0  0  0
   34.1630   -6.7270   13.6340 O   0  0  0  0  0  0  0  0  0  0  0  0
   32.2420   -6.0790   12.0760 O   0  0  0  0  0  0  0  0  0  0  0  0
   35.6600   -2.4440   11.5880 C   0  0  1  0  0  0  0  0  0  0  0  0
   34.4450   -2.0290   10.9600 O   0  0  0  0  0  0  0  0  0  0  0  0
   36.4910   -1.2370   11.9950 C   0  0  1  0  0  0  0  0  0  0  0  0
   35.5860   -0.2290   12.5270 O   0  0  0  0  0  0  0  0  0  0  0  0
   39.5530   -1.7760   12.0060 C   0  0  0  0  0  0  0  0  0  0  0  0
   39.4550   -0.5780   11.7390 O   0  0  0  0  0  0  0  0  0  0  0  0
   40.6790   -2.4630   11.6350 N   0  0  0  0  0  0  0  0  0  0  0  0
   40.1072   -5.5114   13.0382 H   0  0  0  0  0  0  0  0  0  0  0  0
   38.0831   -4.3384   13.6701 H   0  0  0  0  0  0  0  0  0  0  0  0
   37.8081   -1.0007   13.7102 H   0  0  0  0  0  0  0  0  0  0  0  0
   34.4486   -2.9417   13.3421 H   0  0  0  0  0  0  0  0  0  0  0  0
   36.4782   -4.9762   12.3884 H   0  0  0  0  0  0  0  0  0  0  0  0
   35.2774   -5.1591   13.7161 H   0  0  0  0  0  0  0  0  0  0  0  0
   36.1334   -3.1000   10.8427 H   0  0  0  0  0  0  0  0  0  0  0  0
   34.6860   -1.8440   10.0310 H   0  0  0  0  0  0  0  0  0  0  0  0
   37.0719   -0.7692   11.1865 H   0  0  0  0  0  0  0  0  0  0  0  0
   35.6840   -0.2690   13.5000 H   0  0  0  0  0  0  0  0  0  0  0  0
   41.3900   -1.9450   11.1510 H   0  0  0  0  0  0  0  0  0  0  0  0
  1  2  2  0
  2  3  1  0
  3  4  2  0
  4  5  1  0
  5  6  1  0
  6  7  1  0
  7  8  1  0
  8  9  1  0
  9 10  1  0
 10 11  1  0
 11 12  2  0
 11 13  1  0
 11 14  1  0
  8 15  1  0
 15 16  1  0
 15 17  1  0
 17 18  1  0
  5 19  1  0
 19 20  2  0
 19 21  1  0
 21  2  1  0
 17  6  1  0
  3 22  1  0
  4 23  1  0
  6 24  1  1
  8 25  1  1
  9 26  1  0
  9 27  1  0
 15 28  1  6
 16 29  1  0
 17 30  1  6
 18 31  1  0
 21 32  1  0
M  CHG  2  13  -1  14  -1
M  END
>  <meeko>  (1) 
{"is_sidechain": [false], "free_energy": -6.235, "intermolecular_energy": -8.058, "internal_energy": -0.321}

$$$$
3dxg_ligand
     RDKit          3D

 32 33  0  0  0  0  0  0  0  0999 V2000
   34.9000   -3.0620   10.8510 O   0  0  0  0  0  0  0  0  0  0  0  0
   35.7470   -2.2900   11.2890 C   0  0  0  0  0  0  0  0  0  0  0  0
   35.4290   -0.9280   11.7230 C   0  0  0  0  0  0  0  0  0  0  0  0
   36.4030   -0.1790   12.2460 C   0  0  0  0  0  0  0  0  0  0  0  0
   37.7100   -0.6210   12.3600 N   0  0  0  0  0  0  0  0  0  0  0  0
   38.7360    0.2070   12.9940 C   0  0  2  0  0  0  0  0  0  0  0  0
   38.2050    1.4400   13.5050 O   0  0  0  0  0  0  0  0  0  0  0  0
   38.4510    2.5090   12.5450 C   0  0  2  0  0  0  0  0  0  0  0  0
   37.1590    3.1090   11.9890 C   0  0  0  0  0  0  0  0  0  0  0  0
   36.9960    4.4290   12.4680 O   0  0  0  0  0  0  0  0  0  0  0  0
   36.0660    4.5530   13.8150 P   0  0  0  0  0  0  0  0  0  0  0  0
   37.0740    4.8040   14.9220 O   0  0  0  0  0  0  0  0  0  0  0  0
   35.1430    5.7200   13.4970 O   0  0  0  0  0  0  0  0  0  0  0  0
   35.3620    3.2020   13.8860 O   0  0  0  0  0  0  0  0  0  0  0  0
   39.3020    1.9020   11.4260 C   0  0  1  0  0  0  0  0  0  0  0  0
   40.3420    2.7680   10.9680 O   0  0  0  0  0  0  0  0  0  0  0  0
   39.8900    0.6700   12.0960 C   0  0  1  0  0  0  0  0  0  0  0  0
   41.0280    1.0950   12.8980 O   0  0  0  0  0  0  0  0  0  0  0  0
   38.0460   -1.9200   12.0180 C   0  0  0  0  0  0  0  0  0  0  0  0
   39.1530   -2.4240   12.2060 O   0  0  0  0  0  0  0  0  0  0  0  0
   37.0520   -2.6660   11.4390 N   0  0  0  0  0  0  0  0  0  0  0  0
   34.4087   -0.5301   11.6203 H   0  0  0  0  0  0  0  0  0  0  0  0
   36.1563    0.8323   12.6014 H   0  0  0  0  0  0  0  0  0  0  0  0
   39.1066   -0.4842   13.7653 H   0  0  0  0  0  0  0  0  0  0  0  0
   38.9696    3.3441   13.0386 H   0  0  0  0  0  0  0  0  0  0  0  0
   37.2068    3.1231   10.8901 H   0  0  0  0  0  0  0  0  0  0  0  0
   36.3055    2.4971   12.3164 H   0  0  0  0  0  0  0  0  0  0  0  0
   38.7086    1.6977   10.5226 H   0  0  0  0  0  0  0  0  0  0  0  0
   39.9510    3.2700   10.2260 H   0  0  0  0  0  0  0  0  0  0  0  0
   40.2412   -0.1166   11.4120 H   0  0  0  0  0  0  0  0  0  0  0  0
   41.7600    1.2390   12.2650 H   0  0  0  0  0  0  0  0  0  0  0  0
   37.2790   -3.6120   11.1900 H   0  0  0  0  0  0  0  0  0  0  0  0
  1  2  2  0
  2  3  1  0
  3  4  2  0
  4  5  1  0
  5  6  1  0
  6  7  1  0
  7  8  1  0
  8  9  1  0
  9 10  1  0
 10 11  1  0
 11 12  2  0
 11 13  1  0
 11 14  1  0
  8 15  1  0
 15 16  1  0
 15 17  1  0
 17 18  1  0
  5 19  1  0
 19 20  2  0
 19 21  1  0
 21  2  1  0
 17  6  1  0
  3 22  1  0
  4 23  1  0
  6 24  1  1
  8 25  1  1
  9 26  1  0
  9 27  1  0
 15 28  1  6
 16 29  1  0
 17 30  1  6
 18 31  1  0
 21 32  1  0
M  CHG  2  13  -1  14  -1
M  END
>  <meeko>  (2) 
{"is_sidechain": [false], "free_energy": -6.019, "intermolecular_energy": -7.856, "internal_energy": -0.244}

$$$$
3dxg_ligand
     RDKit          3D

 32 33  0  0  0  0  0  0  0  0999 V2000
   36.9010    3.6310   10.4070 O   0  0  0  0  0  0  0  0  0  0  0  0
   37.3590    2.7440   11.1210 C   0  0  0  0  0  0  0  0  0  0  0  0
   37.7190    1.4200   10.6090 C   0  0  0  0  0  0  0  0  0  0  0  0
   38.2700    0.5380   11.4460 C   0  0  0  0  0  0  0  0  0  0  0  0
   38.4790    0.8070   12.7880 N   0  0  0  0  0  0  0  0  0  0  0  0
   39.1400   -0.1640   13.6600 C   0  0  2  0  0  0  0  0  0  0  0  0
   39.4330   -1.3970   12.9830 O   0  0  0  0  0  0  0  0  0  0  0  0
   38.3960   -2.3750   13.2880 C   0  0  2  0  0  0  0  0  0  0  0  0
   37.6110   -2.8060   12.0480 C   0  0  0  0  0  0  0  0  0  0  0  0
   36.9370   -4.0220   12.3040 O   0  0  0  0  0  0  0  0  0  0  0  0
   35.3050   -3.9400   12.1450 P   0  0  0  0  0  0  0  0  0  0  0  0
   35.0930   -2.7190   11.2680 O   0  0  0  0  0  0  0  0  0  0  0  0
   34.9490   -5.2730   11.5030 O   0  0  0  0  0  0  0  0  0  0  0  0
   34.8150   -3.7890   13.5810 O   0  0  0  0  0  0  0  0  0  0  0  0
   37.4740   -1.7240   14.3230 C   0  0  1  0  0  0  0  0  0  0  0  0
   37.0570   -2.6180   15.3570 O   0  0  0  0  0  0  0  0  0  0  0  0
   38.3520   -0.6210   14.8930 C   0  0  1  0  0  0  0  0  0  0  0  0
   39.2400   -1.2190   15.8790 O   0  0  0  0  0  0  0  0  0  0  0  0
   38.2080    2.0630   13.3050 C   0  0  0  0  0  0  0  0  0  0  0  0
   38.4830    2.4170   14.4520 O   0  0  0  0  0  0  0  0  0  0  0  0
   37.6010    2.9460   12.4510 N   0  0  0  0  0  0  0  0  0  0  0  0
   37.5390    1.1576    9.5560 H   0  0  0  0  0  0  0  0  0  0  0  0
   38.5708   -0.4443   11.0528 H   0  0  0  0  0  0  0  0  0  0  0  0
   40.0273    0.4095   13.9662 H   0  0  0  0  0  0  0  0  0  0  0  0
   38.8531   -3.2966   13.6774 H   0  0  0  0  0  0  0  0  0  0  0  0
   36.8761   -2.0283   11.7930 H   0  0  0  0  0  0  0  0  0  0  0  0
   38.3083   -2.9480   11.2091 H   0  0  0  0  0  0  0  0  0  0  0  0
   36.5311   -1.3784   13.8742 H   0  0  0  0  0  0  0  0  0  0  0  0
   37.6790   -2.4670   16.0960 H   0  0  0  0  0  0  0  0  0  0  0  0
   37.8147    0.2026   15.3860 H   0  0  0  0  0  0  0  0  0  0  0  0
   40.0050   -1.5620   15.3750 H   0  0  0  0  0  0  0  0  0  0  0  0
   37.4030    3.8630   12.8090 H   0  0  0  0  0  0  0  0  0  0  0  0
  1  2  2  0
  2  3  1  0
  3  4  2  0
  4  5  1  0
  5  6  1  0
  6  7  1  0
  7  8  1  0
  8  9  1  0
  9 10  1  0
 10 11  1  0
 11 12  2  0
 11 13  1  0
 11 14  1  0
  8 15  1  0
 15 16  1  0
 15 17  1  0
 17 18  1  0
  5 19  1  0
 19 20  2  0
 19 21  1  0
 21  2  1  0
 17  6  1  0
  3 22  1  0
  4 23  1  0
  6 24  1  1
  8 25  1  1
  9 26  1  0
  9 27  1  0
 15 28  1  6
 16 29  1  0
 17 30  1  1
 18 31  1  0
 21 32  1  0
M  CHG  2  13  -1  14  -1
M  END
>  <meeko>  (3) 
{"is_sidechain": [false], "free_energy": -5.815, "intermolecular_energy": -7.344, "internal_energy": -0.492}

$$$$
3dxg_ligand
     RDKit          3D

 32 33  0  0  0  0  0  0  0  0999 V2000
   43.1740   -0.9310   11.2460 O   0  0  0  0  0  0  0  0  0  0  0  0
   42.2840   -0.1340   11.5230 C   0  0  0  0  0  0  0  0  0  0  0  0
   41.4660    0.5280   10.5050 C   0  0  0  0  0  0  0  0  0  0  0  0
   40.4770    1.3330   10.9010 C   0  0  0  0  0  0  0  0  0  0  0  0
   40.2170    1.6010   12.2340 N   0  0  0  0  0  0  0  0  0  0  0  0
   39.0870    2.4420   12.6290 C   0  0  2  0  0  0  0  0  0  0  0  0
   37.9380    1.6690   13.0120 O   0  0  0  0  0  0  0  0  0  0  0  0
   37.0140    1.5850   11.8870 C   0  0  2  0  0  0  0  0  0  0  0  0
   36.8190    0.1520   11.3910 C   0  0  0  0  0  0  0  0  0  0  0  0
   35.9630   -0.5500   12.2700 O   0  0  0  0  0  0  0  0  0  0  0  0
   35.8560   -2.1600   11.9710 P   0  0  0  0  0  0  0  0  0  0  0  0
   34.8050   -2.2510   10.8780 O   0  0  0  0  0  0  0  0  0  0  0  0
   37.2700   -2.5320   11.5470 O   0  0  0  0  0  0  0  0  0  0  0  0
   35.4340   -2.7440   13.3140 O   0  0  0  0  0  0  0  0  0  0  0  0
   37.5900    2.4770   10.7830 C   0  0  1  0  0  0  0  0  0  0  0  0
   36.6000    3.2460   10.0970 O   0  0  0  0  0  0  0  0  0  0  0  0
   38.5310    3.3870   11.5570 C   0  0  1  0  0  0  0  0  0  0  0  0
   37.7350    4.4440   12.1640 O   0  0  0  0  0  0  0  0  0  0  0  0
   40.9250    0.9550   13.2330 C   0  0  0  0  0  0  0  0  0  0  0  0
   40.6700    1.0440   14.4350 O   0  0  0  0  0  0  0  0  0  0  0  0
   41.9670    0.1670   12.8190 N   0  0  0  0  0  0  0  0  0  0  0  0
   41.6623    0.3654    9.4349 H   0  0  0  0  0  0  0  0  0  0  0  0
   39.8420    1.8031   10.1356 H   0  0  0  0  0  0  0  0  0  0  0  0
   39.5410    3.0203   13.4472 H   0  0  0  0  0  0  0  0  0  0  0  0
   36.0139    1.9221   12.1973 H   0  0  0  0  0  0  0  0  0  0  0  0
   36.3727    0.1717   10.3858 H   0  0  0  0  0  0  0  0  0  0  0  0
   37.7949   -0.3544   11.3552 H   0  0  0  0  0  0  0  0  0  0  0  0
   38.0682    1.8881    9.9864 H   0  0  0  0  0  0  0  0  0  0  0  0
   37.1000    3.8500    9.5150 H   0  0  0  0  0  0  0  0  0  0  0  0
   39.3204    3.8673   10.9602 H   0  0  0  0  0  0  0  0  0  0  0  0
   38.2310    5.2730   12.0080 H   0  0  0  0  0  0  0  0  0  0  0  0
   42.4870   -0.3130   13.5310 H   0  0  0  0  0  0  0  0  0  0  0  0
  1  2  2  0
  2  3  1  0
  3  4  2  0
  4  5  1  0
  5  6  1  0
  6  7  1  0
  7  8  1  0
  8  9  1  0
  9 10  1  0
 10 11  1  0
 11 12  2  0
 11 13  1  0
 11 14  1  0
  8 15  1  0
 15 16  1  0
 15 17  1  0
 17 18  1  0
  5 19  1  0
 19 20  2  0
 19 21  1  0
 21  2  1  0
 17  6  1  0
  3 22  1  0
  4 23  1  0
  6 24  1  1
  8 25  1  1
  9 26  1  0
  9 27  1  0
 15 28  1  6
 16 29  1  0
 17 30  1  6
 18 31  1  0
 21 32  1  0
M  CHG  2  13  -1  14  -1
M  END
>  <meeko>  (4) 
{"is_sidechain": [false], "free_energy": -5.751, "intermolecular_energy": -7.638, "internal_energy": -0.116}

$$$$
3dxg_ligand
     RDKit          3D

 32 33  0  0  0  0  0  0  0  0999 V2000
   33.9910   -4.8280   12.5110 O   0  0  0  0  0  0  0  0  0  0  0  0
   35.0910   -4.2990   12.6390 C   0  0  0  0  0  0  0  0  0  0  0  0
   35.6220   -3.3300   11.6770 C   0  0  0  0  0  0  0  0  0  0  0  0
   36.8000   -2.7570   11.9300 C   0  0  0  0  0  0  0  0  0  0  0  0
   37.5630   -3.0680   13.0420 N   0  0  0  0  0  0  0  0  0  0  0  0
   38.8220   -2.3750   13.3150 C   0  0  2  0  0  0  0  0  0  0  0  0
   38.6190   -1.1020   13.9490 O   0  0  0  0  0  0  0  0  0  0  0  0
   38.6750   -0.0470   12.9450 C   0  0  2  0  0  0  0  0  0  0  0  0
   37.3510    0.7070   12.8090 C   0  0  0  0  0  0  0  0  0  0  0  0
   37.2570    1.2870   11.5230 O   0  0  0  0  0  0  0  0  0  0  0  0
   37.6200    2.8870   11.4720 P   0  0  0  0  0  0  0  0  0  0  0  0
   39.1340    2.9060   11.3650 O   0  0  0  0  0  0  0  0  0  0  0  0
   36.8730    3.3760   10.2400 O   0  0  0  0  0  0  0  0  0  0  0  0
   37.0650    3.4190   12.7890 O   0  0  0  0  0  0  0  0  0  0  0  0
   39.0630   -0.7200   11.6260 C   0  0  1  0  0  0  0  0  0  0  0  0
   40.0010    0.0340   10.8560 O   0  0  0  0  0  0  0  0  0  0  0  0
   39.6850   -2.0250   12.0970 C   0  0  1  0  0  0  0  0  0  0  0  0
   41.0560   -1.7480   12.5000 O   0  0  0  0  0  0  0  0  0  0  0  0
   37.0770   -3.9340   14.0090 C   0  0  0  0  0  0  0  0  0  0  0  0
   37.6370   -4.1640   15.0810 O   0  0  0  0  0  0  0  0  0  0  0  0
   35.8890   -4.5520   13.7190 N   0  0  0  0  0  0  0  0  0  0  0  0
   35.0608   -3.0799   10.7646 H   0  0  0  0  0  0  0  0  0  0  0  0
   37.1814   -2.0046   11.2240 H   0  0  0  0  0  0  0  0  0  0  0  0
   39.3327   -3.1201   13.9427 H   0  0  0  0  0  0  0  0  0  0  0  0
   39.4125    0.7133   13.2417 H   0  0  0  0  0  0  0  0  0  0  0  0
   36.5157    0.0063   12.9550 H   0  0  0  0  0  0  0  0  0  0  0  0
   37.3072    1.5015   13.5685 H   0  0  0  0  0  0  0  0  0  0  0  0
   38.2000   -0.8359   10.9539 H   0  0  0  0  0  0  0  0  0  0  0  0
   40.3020   -0.5720   10.1500 H   0  0  0  0  0  0  0  0  0  0  0  0
   39.7146   -2.8309   11.3489 H   0  0  0  0  0  0  0  0  0  0  0  0
   40.9970   -1.3640   13.3990 H   0  0  0  0  0  0  0  0  0  0  0  0
   35.5210   -5.1790   14.4120 H   0  0  0  0  0  0  0  0  0  0  0  0
  1  2  2  0
  2  3  1  0
  3  4  2  0
  4  5  1  0
  5  6  1  0
  6  7  1  0
  7  8  1  0
  8  9  1  0
  9 10  1  0
 10 11  1  0
 11 12  2  0
 11 13  1  0
 11 14  1  0
  8 15  1  0
 15 16  1  0
 15 17  1  0
 17 18  1  0
  5 19  1  0
 19 20  2  0
 19 21  1  0
 21  2  1  0
 17  6  1  0
  3 22  1  0
  4 23  1  0
  6 24  1  1
  8 25  1  1
  9 26  1  0
  9 27  1  0
 15 28  1  6
 16 29  1  0
 17 30  1  6
 18 31  1  0
 21 32  1  0
M  CHG  2  13  -1  14  -1
M  END
>  <meeko>  (5) 
{"is_sidechain": [false], "free_energy": -5.701, "intermolecular_energy": -7.23, "internal_energy": -0.458}

$$$$
3dxg_ligand
     RDKit          3D

 32 33  0  0  0  0  0  0  0  0999 V2000
   35.2860   -6.5190   14.1750 O   0  0  0  0  0  0  0  0  0  0  0  0
   35.6880   -5.5330   13.5650 C   0  0  0  0  0  0  0  0  0  0  0  0
   34.8170   -4.4110   13.2090 C   0  0  0  0  0  0  0  0  0  0  0  0
   35.3540   -3.3510   12.6010 C   0  0  0  0  0  0  0  0  0  0  0  0
   36.6930   -3.2830   12.2550 N   0  0  0  0  0  0  0  0  0  0  0  0
   37.2560   -2.0800   11.6430 C   0  0  2  0  0  0  0  0  0  0  0  0
   38.3780   -1.5660   12.3790 O   0  0  0  0  0  0  0  0  0  0  0  0
   37.9340   -0.4800   13.2430 C   0  0  2  0  0  0  0  0  0  0  0  0
   38.1220   -0.7940   14.7280 C   0  0  0  0  0  0  0  0  0  0  0  0
   38.8790   -1.9780   14.8780 O   0  0  0  0  0  0  0  0  0  0  0  0
   38.6320   -2.7670   16.2950 P   0  0  0  0  0  0  0  0  0  0  0  0
   38.1020   -4.1220   15.8610 O   0  0  0  0  0  0  0  0  0  0  0  0
   40.0130   -2.7810   16.9330 O   0  0  0  0  0  0  0  0  0  0  0  0
   37.6190   -1.8870   17.0200 O   0  0  0  0  0  0  0  0  0  0  0  0
   36.4580   -0.2370   12.9140 C   0  0  1  0  0  0  0  0  0  0  0  0
   36.1040    1.1470   12.8690 O   0  0  0  0  0  0  0  0  0  0  0  0
   36.3230   -0.8680   11.5370 C   0  0  1  0  0  0  0  0  0  0  0  0
   36.8240    0.0840   10.5570 O   0  0  0  0  0  0  0  0  0  0  0  0
   37.5670   -4.2940   12.6220 C   0  0  0  0  0  0  0  0  0  0  0  0
   38.7870   -4.2500   12.4620 O   0  0  0  0  0  0  0  0  0  0  0  0
   36.9990   -5.3970   13.2040 N   0  0  0  0  0  0  0  0  0  0  0  0
   33.7415   -4.4411   13.4381 H   0  0  0  0  0  0  0  0  0  0  0  0
   34.7050   -2.4948   12.3647 H   0  0  0  0  0  0  0  0  0  0  0  0
   37.5035   -2.4589   10.6404 H   0  0  0  0  0  0  0  0  0  0  0  0
   38.5418    0.4180   13.0580 H   0  0  0  0  0  0  0  0  0  0  0  0
   38.6500    0.0402   15.2130 H   0  0  0  0  0  0  0  0  0  0  0  0
   37.1363   -0.9331   15.1960 H   0  0  0  0  0  0  0  0  0  0  0  0
   35.7912   -0.6566   13.6817 H   0  0  0  0  0  0  0  0  0  0  0  0
   36.9440    1.6320   12.9930 H   0  0  0  0  0  0  0  0  0  0  0  0
   35.2996   -1.1418   11.2410 H   0  0  0  0  0  0  0  0  0  0  0  0
   36.4400   -0.1900    9.6990 H   0  0  0  0  0  0  0  0  0  0  0  0
   37.6200   -6.1370   13.4800 H   0  0  0  0  0  0  0  0  0  0  0  0
  1  2  2  0
  2  3  1  0
  3  4  2  0
  4  5  1  0
  5  6  1  0
  6  7  1  0
  7  8  1  0
  8  9  1  0
  9 10  1  0
 10 11  1  0
 11 12  2  0
 11 13  1  0
 11 14  1  0
  8 15  1  0
 15 16  1  0
 15 17  1  0
 17 18  1  0
  5 19  1  0
 19 20  2  0
 19 21  1  0
 21  2  1  0
 17  6  1  0
  3 22  1  0
  4 23  1  0
  6 24  1  6
  8 25  1  6
  9 26  1  0
  9 27  1  0
 15 28  1  1
 16 29  1  0
 17 30  1  6
 18 31  1  0
 21 32  1  0
M  CHG  2  13  -1  14  -1
M  END
>  <meeko>  (6) 
{"is_sidechain": [false], "free_energy": -5.673, "intermolecular_energy": -7.181, "internal_energy": -0.472}

$$$$
3dxg_ligand
     RDKit          3D

 32 33  0  0  0  0  0  0  0  0999 V2000
   41.7620   -1.0630   13.9270 O   0  0  0  0  0  0  0  0  0  0  0  0
   41.0740   -0.3120   13.2430 C   0  0  0  0  0  0  0  0  0  0  0  0
   39.6760   -0.0090   13.5570 C   0  0  0  0  0  0  0  0  0  0  0  0
   39.0230    0.8700   12.7940 C   0  0  0  0  0  0  0  0  0  0  0  0
   39.5990    1.4780   11.6910 N   0  0  0  0  0  0  0  0  0  0  0  0
   38.8700    2.4810   10.9140 C   0  0  2  0  0  0  0  0  0  0  0  0
   39.3090    3.8190   11.1990 O   0  0  0  0  0  0  0  0  0  0  0  0
   38.4020    4.4320   12.1600 C   0  0  2  0  0  0  0  0  0  0  0  0
   39.0910    4.7780   13.4810 C   0  0  0  0  0  0  0  0  0  0  0  0
   38.1440    5.2820   14.4020 O   0  0  0  0  0  0  0  0  0  0  0  0
   37.8450    6.8890   14.2580 P   0  0  0  0  0  0  0  0  0  0  0  0
   37.6030    7.3360   15.6890 O   0  0  0  0  0  0  0  0  0  0  0  0
   39.1160    7.4250   13.6140 O   0  0  0  0  0  0  0  0  0  0  0  0
   36.6180    6.9430   13.3550 O   0  0  0  0  0  0  0  0  0  0  0  0
   37.2610    3.4350   12.3800 C   0  0  1  0  0  0  0  0  0  0  0  0
   35.9740    4.0510   12.4600 O   0  0  0  0  0  0  0  0  0  0  0  0
   37.3560    2.5540   11.1450 C   0  0  1  0  0  0  0  0  0  0  0  0
   36.7000    3.2490   10.0470 O   0  0  0  0  0  0  0  0  0  0  0  0
   40.9340    1.2680   11.3880 C   0  0  0  0  0  0  0  0  0  0  0  0
   41.5490    1.8660   10.5040 O   0  0  0  0  0  0  0  0  0  0  0  0
   41.5830    0.3310   12.1490 N   0  0  0  0  0  0  0  0  0  0  0  0
   39.1737   -0.4966   14.4055 H   0  0  0  0  0  0  0  0  0  0  0  0
   37.9838    1.1221   13.0520 H   0  0  0  0  0  0  0  0  0  0  0  0
   39.0837    2.1397    9.8904 H   0  0  0  0  0  0  0  0  0  0  0  0
   38.0307    5.3897   11.7664 H   0  0  0  0  0  0  0  0  0  0  0  0
   39.5576    3.8727   13.8967 H   0  0  0  0  0  0  0  0  0  0  0  0
   39.8598    5.5431   13.2980 H   0  0  0  0  0  0  0  0  0  0  0  0
   37.3597    2.9009   13.3366 H   0  0  0  0  0  0  0  0  0  0  0  0
   35.3450    3.3780   12.1330 H   0  0  0  0  0  0  0  0  0  0  0  0
   36.8898    1.5618   11.2359 H   0  0  0  0  0  0  0  0  0  0  0  0
   36.4950    4.1450   10.3840 H   0  0  0  0  0  0  0  0  0  0  0  0
   42.5530    0.1710   11.9450 H   0  0  0  0  0  0  0  0  0  0  0  0
  1  2  2  0
  2  3  1  0
  3  4  2  0
  4  5  1  0
  5  6  1  0
  6  7  1  0
  7  8  1  0
  8  9  1  0
  9 10  1  0
 10 11  1  0
 11 12  2  0
 11 13  1  0
 11 14  1  0
  8 15  1  0
 15 16  1  0
 15 17  1  0
 17 18  1  0
  5 19  1  0
 19 20  2  0
 19 21  1  0
 21  2  1  0
 17  6  1  0
  3 22  1  0
  4 23  1  0
  6 24  1  6
  8 25  1  6
  9 26  1  0
  9 27  1  0
 15 28  1  1
 16 29  1  0
 17 30  1  1
 18 31  1  0
 21 32  1  0
M  CHG  2  13  -1  14  -1
M  END
>  <meeko>  (7) 
{"is_sidechain": [false], "free_energy": -5.658, "intermolecular_energy": -7.148, "internal_energy": -0.484}

$$$$
3dxg_ligand
     RDKit          3D

 32 33  0  0  0  0  0  0  0  0999 V2000
   43.1040    0.1960   11.4600 O   0  0  0  0  0  0  0  0  0  0  0  0
   41.8890    0.3640   11.4560 C   0  0  0  0  0  0  0  0  0  0  0  0
   41.2560    1.5670   10.9110 C   0  0  0  0  0  0  0  0  0  0  0  0
   39.9230    1.6360   10.8910 C   0  0  0  0  0  0  0  0  0  0  0  0
   39.1120    0.6360   11.4000 N   0  0  0  0  0  0  0  0  0  0  0  0
   37.6550    0.7220   11.3050 C   0  0  2  0  0  0  0  0  0  0  0  0
   37.2120    2.0010   10.8250 O   0  0  0  0  0  0  0  0  0  0  0  0
   36.8250    2.8350   11.9550 C   0  0  2  0  0  0  0  0  0  0  0  0
   37.7000    4.0820   12.0930 C   0  0  0  0  0  0  0  0  0  0  0  0
   37.9620    4.3380   13.4580 O   0  0  0  0  0  0  0  0  0  0  0  0
   37.1980    5.6590   14.0610 P   0  0  0  0  0  0  0  0  0  0  0  0
   38.0150    6.0130   15.2910 O   0  0  0  0  0  0  0  0  0  0  0  0
   37.2740    6.6600   12.9180 O   0  0  0  0  0  0  0  0  0  0  0  0
   35.7900    5.1520   14.3540 O   0  0  0  0  0  0  0  0  0  0  0  0
   36.9240    1.9530   13.2020 C   0  0  1  0  0  0  0  0  0  0  0  0
   35.8510    2.1480   14.1250 O   0  0  0  0  0  0  0  0  0  0  0  0
   36.8750    0.5510   12.6150 C   0  0  1  0  0  0  0  0  0  0  0  0
   35.4820    0.2260   12.3460 O   0  0  0  0  0  0  0  0  0  0  0  0
   39.6630   -0.5450   11.8720 C   0  0  0  0  0  0  0  0  0  0  0  0
   39.0070   -1.5260   12.2230 O   0  0  0  0  0  0  0  0  0  0  0  0
   41.0310   -0.5880   11.9320 N   0  0  0  0  0  0  0  0  0  0  0  0
   41.8667    2.3969   10.5259 H   0  0  0  0  0  0  0  0  0  0  0  0
   39.4485    2.5256   10.4512 H   0  0  0  0  0  0  0  0  0  0  0  0
   37.4463   -0.1166   10.6244 H   0  0  0  0  0  0  0  0  0  0  0  0
   35.8024    3.2129   11.8085 H   0  0  0  0  0  0  0  0  0  0  0  0
   38.6505    3.9209   11.5633 H   0  0  0  0  0  0  0  0  0  0  0  0
   37.1729    4.9439   11.6579 H   0  0  0  0  0  0  0  0  0  0  0  0
   37.8255    2.1754   13.7917 H   0  0  0  0  0  0  0  0  0  0  0  0
   36.2770    2.4100   14.9650 H   0  0  0  0  0  0  0  0  0  0  0  0
   37.2838   -0.2442   13.2557 H   0  0  0  0  0  0  0  0  0  0  0  0
   34.9980    1.0760   12.3870 H   0  0  0  0  0  0  0  0  0  0  0  0
   41.4460   -1.4390   12.2680 H   0  0  0  0  0  0  0  0  0  0  0  0
  1  2  2  0
  2  3  1  0
  3  4  2  0
  4  5  1  0
  5  6  1  0
  6  7  1  0
  7  8  1  0
  8  9  1  0
  9 10  1  0
 10 11  1  0
 11 12  2  0
 11 13  1  0
 11 14  1  0
  8 15  1  0
 15 16  1  0
 15 17  1  0
 17 18  1  0
  5 19  1  0
 19 20  2  0
 19 21  1  0
 21  2  1  0
 17  6  1  0
  3 22  1  0
  4 23  1  0
  6 24  1  6
  8 25  1  6
  9 26  1  0
  9 27  1  0
 15 28  1  1
 16 29  1  0
 17 30  1  1
 18 31  1  0
 21 32  1  0
M  CHG  2  13  -1  14  -1
M  END
>  <meeko>  (8) 
{"is_sidechain": [false], "free_energy": -5.623, "intermolecular_energy": -6.934, "internal_energy": -0.654}

$$$$
3dxg_ligand
     RDKit          3D

 32 33  0  0  0  0  0  0  0  0999 V2000
   41.8780   -3.4700   10.9700 O   0  0  0  0  0  0  0  0  0  0  0  0
   41.3670   -2.3790   11.2030 C   0  0  0  0  0  0  0  0  0  0  0  0
   40.3230   -2.1920   12.2140 C   0  0  0  0  0  0  0  0  0  0  0  0
   39.8680   -0.9580   12.4440 C   0  0  0  0  0  0  0  0  0  0  0  0
   40.3120    0.1480   11.7400 N   0  0  0  0  0  0  0  0  0  0  0  0
   39.8330    1.4920   12.0630 C   0  0  2  0  0  0  0  0  0  0  0  0
   38.8350    1.4840   13.0960 O   0  0  0  0  0  0  0  0  0  0  0  0
   37.5110    1.5510   12.4910 C   0  0  2  0  0  0  0  0  0  0  0  0
   36.6710    0.3050   12.7740 C   0  0  0  0  0  0  0  0  0  0  0  0
   36.3480   -0.3450   11.5610 O   0  0  0  0  0  0  0  0  0  0  0  0
   35.8170   -1.8880   11.7370 P   0  0  0  0  0  0  0  0  0  0  0  0
   34.5830   -1.9440   10.8540 O   0  0  0  0  0  0  0  0  0  0  0  0
   36.9980   -2.7200   11.2600 O   0  0  0  0  0  0  0  0  0  0  0  0
   35.5390   -1.9990   13.2320 O   0  0  0  0  0  0  0  0  0  0  0  0
   37.7280    1.7370   10.9870 C   0  0  1  0  0  0  0  0  0  0  0  0
   36.8230    2.6690   10.3920 O   0  0  0  0  0  0  0  0  0  0  0  0
   39.1530    2.2650   10.9260 C   0  0  1  0  0  0  0  0  0  0  0  0
   39.1170    3.6900   11.2220 O   0  0  0  0  0  0  0  0  0  0  0  0
   41.3380    0.0300   10.8170 C   0  0  0  0  0  0  0  0  0  0  0  0
   41.8720    0.9810   10.2450 O   0  0  0  0  0  0  0  0  0  0  0  0
   41.7660   -1.2450   10.5540 N   0  0  0  0  0  0  0  0  0  0  0  0
   39.9222   -3.0509   12.7722 H   0  0  0  0  0  0  0  0  0  0  0  0
   39.1080   -0.8142   13.2262 H   0  0  0  0  0  0  0  0  0  0  0  0
   40.7767    1.9813   12.3457 H   0  0  0  0  0  0  0  0  0  0  0  0
   36.9437    2.3882   12.9238 H   0  0  0  0  0  0  0  0  0  0  0  0
   37.2429   -0.3823   13.4147 H   0  0  0  0  0  0  0  0  0  0  0  0
   35.7424    0.6030   13.2828 H   0  0  0  0  0  0  0  0  0  0  0  0
   37.5562    0.8049   10.4287 H   0  0  0  0  0  0  0  0  0  0  0  0
   36.6640    3.3480   11.0760 H   0  0  0  0  0  0  0  0  0  0  0  0
   39.6620    2.1396    9.9590 H   0  0  0  0  0  0  0  0  0  0  0  0
   38.9120    3.7580   12.1760 H   0  0  0  0  0  0  0  0  0  0  0  0
   42.5140   -1.3470    9.8900 H   0  0  0  0  0  0  0  0  0  0  0  0
  1  2  2  0
  2  3  1  0
  3  4  2  0
  4  5  1  0
  5  6  1  0
  6  7  1  0
  7  8  1  0
  8  9  1  0
  9 10  1  0
 10 11  1  0
 11 12  2  0
 11 13  1  0
 11 14  1  0
  8 15  1  0
 15 16  1  0
 15 17  1  0
 17 18  1  0
  5 19  1  0
 19 20  2  0
 19 21  1  0
 21  2  1  0
 17  6  1  0
  3 22  1  0
  4 23  1  0
  6 24  1  1
  8 25  1  1
  9 26  1  0
  9 27  1  0
 15 28  1  6
 16 29  1  0
 17 30  1  6
 18 31  1  0
 21 32  1  0
M  CHG  2  13  -1  14  -1
M  END
>  <meeko>  (9) 
{"is_sidechain": [false], "free_energy": -5.572, "intermolecular_energy": -7.037, "internal_energy": -0.485}

$$$$
