3ao4_ligand
     RDKit          3D

 27 29  0  0  0  0  0  0  0  0999 V2000
    0.9660    5.6290   -4.8460 C   0  0  0  0  0  0  0  0  0  0  0  0
    0.4320    6.7530   -5.5740 N   0  0  0  0  0  0  0  0  0  0  0  0
   -0.0120    7.8270   -4.8940 N   0  0  0  0  0  0  0  0  0  0  0  0
   -0.4050    8.6960   -5.8420 C   0  0  0  0  0  0  0  0  0  0  0  0
   -0.9460   10.0180   -5.4930 C   0  0  0  0  0  0  0  0  0  0  0  0
   -1.9410   10.1370   -4.4900 C   0  0  0  0  0  0  0  0  0  0  0  0
   -2.4770   11.3800   -4.1340 C   0  0  0  0  0  0  0  0  0  0  0  0
   -2.0050   12.4900   -4.7950 C   0  0  0  0  0  0  0  0  0  0  0  0
   -1.0420   12.3910   -5.7690 C   0  0  0  0  0  0  0  0  0  0  0  0
   -0.4940   11.1790   -6.1400 C   0  0  0  0  0  0  0  0  0  0  0  0
   -0.7130   13.6020   -6.2970 O   0  0  0  0  0  0  0  0  0  0  0  0
   -1.5810   14.4720   -5.5410 C   0  0  0  0  0  0  0  0  0  0  0  0
   -2.4050   13.7720   -4.5860 O   0  0  0  0  0  0  0  0  0  0  0  0
   -0.2150    8.1330   -7.1360 C   0  0  0  0  0  0  0  0  0  0  0  0
    0.3090    6.8800   -6.9340 C   0  0  0  0  0  0  0  0  0  0  0  0
    0.6650    5.9260   -7.8210 N   0  0  0  0  0  0  0  0  0  0  0  0
    0.8771    5.8162   -3.7657 H   0  0  0  0  0  0  0  0  0  0  0  0
    0.4029    4.7212   -5.1084 H   0  0  0  0  0  0  0  0  0  0  0  0
    2.0254    5.4920   -5.1084 H   0  0  0  0  0  0  0  0  0  0  0  0
   -2.3002    9.2312   -3.9796 H   0  0  0  0  0  0  0  0  0  0  0  0
   -3.2477   11.4660   -3.3539 H   0  0  0  0  0  0  0  0  0  0  0  0
    0.2771   11.1246   -6.9226 H   0  0  0  0  0  0  0  0  0  0  0  0
   -0.9589   15.1987   -4.9979 H   0  0  0  0  0  0  0  0  0  0  0  0
   -2.2582   14.9579   -6.2589 H   0  0  0  0  0  0  0  0  0  0  0  0
   -0.4422    8.6064   -8.1026 H   0  0  0  0  0  0  0  0  0  0  0  0
    0.6780    6.1480   -8.8140 H   0  0  0  0  0  0  0  0  0  0  0  0
    0.4900    4.9400   -7.6460 H   0  0  0  0  0  0  0  0  0  0  0  0
  1  2  1  0
  2  3  1  0
  3  4  2  0
  4  5  1  0
  5  6  2  0
  6  7  1  0
  7  8  2  0
  8  9  1  0
  9 10  2  0
  9 11  1  0
 11 12  1  0
 12 13  1  0
  4 14  1  0
 14 15  2  0
 15 16  1  0
 15  2  1  0
 10  5  1  0
 13  8  1  0
  1 17  1  0
  1 18  1  0
  1 19  1  0
  6 20  1  0
  7 21  1  0
 10 22  1  0
 12 23  1  0
 12 24  1  0
 14 25  1  0
 16 26  1  0
 16 27  1  0
M  END
>  <meeko>  (1) 
{"is_sidechain": [false], "free_energy": -7.666, "intermolecular_energy": -8.338, "internal_energy": -0.187}

$$$$
3ao4_ligand
     RDKit          3D

 27 29  0  0  0  0  0  0  0  0999 V2000
    0.9930    6.6460   -9.2350 C   0  0  0  0  0  0  0  0  0  0  0  0
    0.5810    7.3860   -8.0680 N   0  0  0  0  0  0  0  0  0  0  0  0
    0.4900    8.7270   -8.1370 N   0  0  0  0  0  0  0  0  0  0  0  0
    0.0570    9.1060   -6.9220 C   0  0  0  0  0  0  0  0  0  0  0  0
   -0.1850   10.5200   -6.6000 C   0  0  0  0  0  0  0  0  0  0  0  0
    0.5810   11.5330   -7.2280 C   0  0  0  0  0  0  0  0  0  0  0  0
    0.3760   12.8890   -6.9450 C   0  0  0  0  0  0  0  0  0  0  0  0
   -0.6000   13.2080   -6.0300 C   0  0  0  0  0  0  0  0  0  0  0  0
   -1.3520   12.2370   -5.4130 C   0  0  0  0  0  0  0  0  0  0  0  0
   -1.1730   10.8930   -5.6740 C   0  0  0  0  0  0  0  0  0  0  0  0
   -2.2610   12.7600   -4.5460 O   0  0  0  0  0  0  0  0  0  0  0  0
   -1.9940   14.1710   -4.6910 C   0  0  0  0  0  0  0  0  0  0  0  0
   -0.9390   14.4610   -5.6310 O   0  0  0  0  0  0  0  0  0  0  0  0
   -0.1030    7.9690   -6.0800 C   0  0  0  0  0  0  0  0  0  0  0  0
    0.2560    6.8800   -6.8350 C   0  0  0  0  0  0  0  0  0  0  0  0
    0.2940    5.5680   -6.5190 N   0  0  0  0  0  0  0  0  0  0  0  0
    1.5061    5.7245   -8.9226 H   0  0  0  0  0  0  0  0  0  0  0  0
    0.1089    6.3876   -9.8363 H   0  0  0  0  0  0  0  0  0  0  0  0
    1.6783    7.2614   -9.8363 H   0  0  0  0  0  0  0  0  0  0  0  0
    1.3553   11.2475   -7.9553 H   0  0  0  0  0  0  0  0  0  0  0  0
    0.9738   13.6706   -7.4366 H   0  0  0  0  0  0  0  0  0  0  0  0
   -1.7886   10.1337   -5.1695 H   0  0  0  0  0  0  0  0  0  0  0  0
   -2.9138   14.6663   -5.0355 H   0  0  0  0  0  0  0  0  0  0  0  0
   -1.6648   14.5417   -3.7090 H   0  0  0  0  0  0  0  0  0  0  0  0
   -0.4454    7.9641   -5.0347 H   0  0  0  0  0  0  0  0  0  0  0  0
   -0.0680    5.2610   -5.6180 H   0  0  0  0  0  0  0  0  0  0  0  0
    1.0200    4.9520   -6.8760 H   0  0  0  0  0  0  0  0  0  0  0  0
  1  2  1  0
  2  3  1  0
  3  4  2  0
  4  5  1  0
  5  6  2  0
  6  7  1  0
  7  8  2  0
  8  9  1  0
  9 10  2  0
  9 11  1  0
 11 12  1  0
 12 13  1  0
  4 14  1  0
 14 15  2  0
 15 16  1  0
 15  2  1  0
 10  5  1  0
 13  8  1  0
  1 17  1  0
  1 18  1  0
  1 19  1  0
  6 20  1  0
  7 21  1  0
 10 22  1  0
 12 23  1  0
 12 24  1  0
 14 25  1  0
 16 26  1  0
 16 27  1  0
M  END
>  <meeko>  (2) 
{"is_sidechain": [false], "free_energy": -7.162, "intermolecular_energy": -7.79, "internal_energy": -0.187}

$$$$
3ao4_ligand
     RDKit          3D

 27 29  0  0  0  0  0  0  0  0999 V2000
   -2.2010   14.1450   -5.5010 C   0  0  0  0  0  0  0  0  0  0  0  0
   -1.6360   12.8340   -5.7080 N   0  0  0  0  0  0  0  0  0  0  0  0
   -0.8080   12.6310   -6.7490 N   0  0  0  0  0  0  0  0  0  0  0  0
   -0.4330   11.3440   -6.6450 C   0  0  0  0  0  0  0  0  0  0  0  0
    0.4990   10.7360   -7.6060 C   0  0  0  0  0  0  0  0  0  0  0  0
    1.4960   11.5280   -8.2280 C   0  0  0  0  0  0  0  0  0  0  0  0
    2.3990   10.9810   -9.1480 C   0  0  0  0  0  0  0  0  0  0  0  0
    2.2850    9.6400   -9.4310 C   0  0  0  0  0  0  0  0  0  0  0  0
    1.3230    8.8590   -8.8370 C   0  0  0  0  0  0  0  0  0  0  0  0
    0.4210    9.3710   -7.9250 C   0  0  0  0  0  0  0  0  0  0  0  0
    1.3800    7.5640   -9.2510 O   0  0  0  0  0  0  0  0  0  0  0  0
    2.4890    7.6220  -10.1730 C   0  0  0  0  0  0  0  0  0  0  0  0
    3.0660    8.9380  -10.2930 O   0  0  0  0  0  0  0  0  0  0  0  0
   -1.0630   10.7370   -5.5210 C   0  0  0  0  0  0  0  0  0  0  0  0
   -1.8420   11.7120   -4.9470 C   0  0  0  0  0  0  0  0  0  0  0  0
   -2.6490   11.6640   -3.8670 N   0  0  0  0  0  0  0  0  0  0  0  0
   -2.2857   14.3416   -4.4220 H   0  0  0  0  0  0  0  0  0  0  0  0
   -1.5493   14.9020   -5.9616 H   0  0  0  0  0  0  0  0  0  0  0  0
   -3.1989   14.1911   -5.9616 H   0  0  0  0  0  0  0  0  0  0  0  0
    1.5622   12.5982   -7.9822 H   0  0  0  0  0  0  0  0  0  0  0  0
    3.1712   11.6012   -9.6267 H   0  0  0  0  0  0  0  0  0  0  0  0
   -0.3391    8.7257   -7.4604 H   0  0  0  0  0  0  0  0  0  0  0  0
    3.2693    6.9297   -9.8238 H   0  0  0  0  0  0  0  0  0  0  0  0
    2.1015    7.3458  -11.1647 H   0  0  0  0  0  0  0  0  0  0  0  0
   -0.9488    9.6971   -5.1811 H   0  0  0  0  0  0  0  0  0  0  0  0
   -2.2800   11.9270   -2.9550 H   0  0  0  0  0  0  0  0  0  0  0  0
   -3.4130   10.9970   -3.7970 H   0  0  0  0  0  0  0  0  0  0  0  0
  1  2  1  0
  2  3  1  0
  3  4  2  0
  4  5  1  0
  5  6  2  0
  6  7  1  0
  7  8  2  0
  8  9  1  0
  9 10  2  0
  9 11  1  0
 11 12  1  0
 12 13  1  0
  4 14  1  0
 14 15  2  0
 15 16  1  0
 15  2  1  0
 10  5  1  0
 13  8  1  0
  1 17  1  0
  1 18  1  0
  1 19  1  0
  6 20  1  0
  7 21  1  0
 10 22  1  0
 12 23  1  0
 12 24  1  0
 14 25  1  0
 16 26  1  0
 16 27  1  0
M  END
>  <meeko>  (3) 
{"is_sidechain": [false], "free_energy": -7.01, "intermolecular_energy": -7.624, "internal_energy": -0.188}

$$$$
3ao4_ligand
     RDKit          3D

 27 29  0  0  0  0  0  0  0  0999 V2000
    2.4550    8.7770  -10.3420 C   0  0  0  0  0  0  0  0  0  0  0  0
    1.5950    8.6800   -9.1870 N   0  0  0  0  0  0  0  0  0  0  0  0
    1.1590    9.8070   -8.5940 N   0  0  0  0  0  0  0  0  0  0  0  0
    0.3680    9.3850   -7.5930 C   0  0  0  0  0  0  0  0  0  0  0  0
   -0.3200   10.3350   -6.7070 C   0  0  0  0  0  0  0  0  0  0  0  0
   -1.0660    9.8620   -5.5980 C   0  0  0  0  0  0  0  0  0  0  0  0
   -1.7330   10.7390   -4.7350 C   0  0  0  0  0  0  0  0  0  0  0  0
   -1.6410   12.0850   -5.0000 C   0  0  0  0  0  0  0  0  0  0  0  0
   -0.9220   12.5600   -6.0700 C   0  0  0  0  0  0  0  0  0  0  0  0
   -0.2540   11.7190   -6.9380 C   0  0  0  0  0  0  0  0  0  0  0  0
   -0.9570   13.9180   -6.1550 O   0  0  0  0  0  0  0  0  0  0  0  0
   -1.7790   14.2410   -5.0140 C   0  0  0  0  0  0  0  0  0  0  0  0
   -2.2180   13.0810   -4.2770 O   0  0  0  0  0  0  0  0  0  0  0  0
    0.3330    7.9620   -7.5590 C   0  0  0  0  0  0  0  0  0  0  0  0
    1.1420    7.5350   -8.5830 C   0  0  0  0  0  0  0  0  0  0  0  0
    1.4630    6.2870   -8.9840 N   0  0  0  0  0  0  0  0  0  0  0  0
    3.4982    8.8947  -10.0135 H   0  0  0  0  0  0  0  0  0  0  0  0
    2.3618    7.8626  -10.9464 H   0  0  0  0  0  0  0  0  0  0  0  0
    2.1605    9.6476  -10.9464 H   0  0  0  0  0  0  0  0  0  0  0  0
   -1.1219    8.7794   -5.4113 H   0  0  0  0  0  0  0  0  0  0  0  0
   -2.3097   10.3651   -3.8762 H   0  0  0  0  0  0  0  0  0  0  0  0
    0.3152   12.1225   -7.7884 H   0  0  0  0  0  0  0  0  0  0  0  0
   -1.1983   14.8849   -4.3371 H   0  0  0  0  0  0  0  0  0  0  0  0
   -2.6802   14.7437   -5.3950 H   0  0  0  0  0  0  0  0  0  0  0  0
   -0.2290    7.3316   -6.8542 H   0  0  0  0  0  0  0  0  0  0  0  0
    2.2040    5.7820   -8.5020 H   0  0  0  0  0  0  0  0  0  0  0  0
    1.3580    5.9910   -9.9510 H   0  0  0  0  0  0  0  0  0  0  0  0
  1  2  1  0
  2  3  1  0
  3  4  2  0
  4  5  1  0
  5  6  2  0
  6  7  1  0
  7  8  2  0
  8  9  1  0
  9 10  2  0
  9 11  1  0
 11 12  1  0
 12 13  1  0
  4 14  1  0
 14 15  2  0
 15 16  1  0
 15  2  1  0
 10  5  1  0
 13  8  1  0
  1 17  1  0
  1 18  1  0
  1 19  1  0
  6 20  1  0
  7 21  1  0
 10 22  1  0
 12 23  1  0
 12 24  1  0
 14 25  1  0
 16 26  1  0
 16 27  1  0
M  END
>  <meeko>  (4) 
{"is_sidechain": [false], "free_energy": -6.772, "intermolecular_energy": -7.341, "internal_energy": -0.212}

$$$$
3ao4_ligand
     RDKit          3D

 27 29  0  0  0  0  0  0  0  0999 V2000
    2.8970   10.1600  -10.9560 C   0  0  0  0  0  0  0  0  0  0  0  0
    2.3200   10.8370   -9.8210 N   0  0  0  0  0  0  0  0  0  0  0  0
    1.4680   10.1710   -9.0200 N   0  0  0  0  0  0  0  0  0  0  0  0
    1.1440   11.0500   -8.0550 C   0  0  0  0  0  0  0  0  0  0  0  0
    0.2290   10.6880   -6.9640 C   0  0  0  0  0  0  0  0  0  0  0  0
    0.1170    9.3370   -6.5480 C   0  0  0  0  0  0  0  0  0  0  0  0
   -0.7450    8.9570   -5.5120 C   0  0  0  0  0  0  0  0  0  0  0  0
   -1.4850    9.9450   -4.9060 C   0  0  0  0  0  0  0  0  0  0  0  0
   -1.3880   11.2590   -5.2960 C   0  0  0  0  0  0  0  0  0  0  0  0
   -0.5460   11.6630   -6.3140 C   0  0  0  0  0  0  0  0  0  0  0  0
   -2.2010   12.0760   -4.5720 O   0  0  0  0  0  0  0  0  0  0  0  0
   -2.8180   11.1230   -3.6810 C   0  0  0  0  0  0  0  0  0  0  0  0
   -2.3690    9.7690   -3.8890 O   0  0  0  0  0  0  0  0  0  0  0  0
    1.7990   12.2940   -8.2820 C   0  0  0  0  0  0  0  0  0  0  0  0
    2.5360   12.1340   -9.4300 C   0  0  0  0  0  0  0  0  0  0  0  0
    3.3320   13.0030  -10.0880 N   0  0  0  0  0  0  0  0  0  0  0  0
    3.5732    9.3666  -10.6049 H   0  0  0  0  0  0  0  0  0  0  0  0
    2.0954    9.7159  -11.5645 H   0  0  0  0  0  0  0  0  0  0  0  0
    3.4625   10.8811  -11.5645 H   0  0  0  0  0  0  0  0  0  0  0  0
    0.7221    8.5687   -7.0515 H   0  0  0  0  0  0  0  0  0  0  0  0
   -0.8272    7.9070   -5.1946 H   0  0  0  0  0  0  0  0  0  0  0  0
   -0.4839   12.7211   -6.6082 H   0  0  0  0  0  0  0  0  0  0  0  0
   -2.5847   11.4123   -2.6457 H   0  0  0  0  0  0  0  0  0  0  0  0
   -3.8988   11.1411   -3.8850 H   0  0  0  0  0  0  0  0  0  0  0  0
    1.7288   13.2004   -7.6627 H   0  0  0  0  0  0  0  0  0  0  0  0
    3.0740   13.3070  -11.0240 H   0  0  0  0  0  0  0  0  0  0  0  0
    4.3370   13.0310   -9.9340 H   0  0  0  0  0  0  0  0  0  0  0  0
  1  2  1  0
  2  3  1  0
  3  4  2  0
  4  5  1  0
  5  6  2  0
  6  7  1  0
  7  8  2  0
  8  9  1  0
  9 10  2  0
  9 11  1  0
 11 12  1  0
 12 13  1  0
  4 14  1  0
 14 15  2  0
 15 16  1  0
 15  2  1  0
 10  5  1  0
 13  8  1  0
  1 17  1  0
  1 18  1  0
  1 19  1  0
  6 20  1  0
  7 21  1  0
 10 22  1  0
 12 23  1  0
 12 24  1  0
 14 25  1  0
 16 26  1  0
 16 27  1  0
M  END
>  <meeko>  (5) 
{"is_sidechain": [false], "free_energy": -6.483, "intermolecular_energy": -7.05, "internal_energy": -0.188}

$$$$
3ao4_ligand
     RDKit          3D

 27 29  0  0  0  0  0  0  0  0999 V2000
    2.8990    8.8440  -10.8630 C   0  0  0  0  0  0  0  0  0  0  0  0
    2.0310    8.6500   -9.7270 N   0  0  0  0  0  0  0  0  0  0  0  0
    1.5050    9.7250   -9.1110 N   0  0  0  0  0  0  0  0  0  0  0  0
    0.7300    9.2170   -8.1360 C   0  0  0  0  0  0  0  0  0  0  0  0
   -0.0390   10.0880   -7.2360 C   0  0  0  0  0  0  0  0  0  0  0  0
   -0.1810   11.4680   -7.5300 C   0  0  0  0  0  0  0  0  0  0  0  0
   -0.9070   12.3250   -6.6950 C   0  0  0  0  0  0  0  0  0  0  0  0
   -1.4820   11.7810   -5.5700 C   0  0  0  0  0  0  0  0  0  0  0  0
   -1.3540   10.4460   -5.2710 C   0  0  0  0  0  0  0  0  0  0  0  0
   -0.6450    9.5770   -6.0760 C   0  0  0  0  0  0  0  0  0  0  0  0
   -1.9960   10.1110   -4.1180 O   0  0  0  0  0  0  0  0  0  0  0  0
   -2.5420   11.3880   -3.7300 C   0  0  0  0  0  0  0  0  0  0  0  0
   -2.2180   12.4530   -4.6470 O   0  0  0  0  0  0  0  0  0  0  0  0
    0.8000    7.7950   -8.1420 C   0  0  0  0  0  0  0  0  0  0  0  0
    1.6540    7.4580   -9.1640 C   0  0  0  0  0  0  0  0  0  0  0  0
    2.0710    6.2490   -9.5940 N   0  0  0  0  0  0  0  0  0  0  0  0
    3.9165    9.0714  -10.5124 H   0  0  0  0  0  0  0  0  0  0  0  0
    2.9170    7.9277  -11.4714 H   0  0  0  0  0  0  0  0  0  0  0  0
    2.5252    9.6808  -11.4714 H   0  0  0  0  0  0  0  0  0  0  0  0
    0.2910   11.8748   -8.4365 H   0  0  0  0  0  0  0  0  0  0  0  0
   -1.0139   13.3943   -6.9297 H   0  0  0  0  0  0  0  0  0  0  0  0
   -0.5568    8.5118   -5.8159 H   0  0  0  0  0  0  0  0  0  0  0  0
   -3.6368   11.2967   -3.6748 H   0  0  0  0  0  0  0  0  0  0  0  0
   -2.0966   11.6496   -2.7588 H   0  0  0  0  0  0  0  0  0  0  0  0
    0.2757    7.1049   -7.4646 H   0  0  0  0  0  0  0  0  0  0  0  0
    1.9530    5.9990  -10.5730 H   0  0  0  0  0  0  0  0  0  0  0  0
    2.0770    5.4360   -8.9830 H   0  0  0  0  0  0  0  0  0  0  0  0
  1  2  1  0
  2  3  1  0
  3  4  2  0
  4  5  1  0
  5  6  2  0
  6  7  1  0
  7  8  2  0
  8  9  1  0
  9 10  2  0
  9 11  1  0
 11 12  1  0
 12 13  1  0
  4 14  1  0
 14 15  2  0
 15 16  1  0
 15  2  1  0
 10  5  1  0
 13  8  1  0
  1 17  1  0
  1 18  1  0
  1 19  1  0
  6 20  1  0
  7 21  1  0
 10 22  1  0
 12 23  1  0
 12 24  1  0
 14 25  1  0
 16 26  1  0
 16 27  1  0
M  END
>  <meeko>  (6) 
{"is_sidechain": [false], "free_energy": -6.384, "intermolecular_energy": -6.94, "internal_energy": -0.19}

$$$$
3ao4_ligand
     RDKit          3D

 27 29  0  0  0  0  0  0  0  0999 V2000
    3.1840   12.6370  -10.3190 C   0  0  0  0  0  0  0  0  0  0  0  0
    2.3500   11.7930   -9.5000 N   0  0  0  0  0  0  0  0  0  0  0  0
    1.5930   12.3500   -8.5360 N   0  0  0  0  0  0  0  0  0  0  0  0
    0.9200   11.3230   -7.9890 C   0  0  0  0  0  0  0  0  0  0  0  0
   -0.0370   11.5300   -6.8930 C   0  0  0  0  0  0  0  0  0  0  0  0
   -0.4790   12.8380   -6.5720 C   0  0  0  0  0  0  0  0  0  0  0  0
   -1.3890   13.0710   -5.5350 C   0  0  0  0  0  0  0  0  0  0  0  0
   -1.8450   11.9800   -4.8310 C   0  0  0  0  0  0  0  0  0  0  0  0
   -1.4270   10.7060   -5.1300 C   0  0  0  0  0  0  0  0  0  0  0  0
   -0.5300   10.4460   -6.1480 C   0  0  0  0  0  0  0  0  0  0  0  0
   -1.9940    9.7720   -4.3190 O   0  0  0  0  0  0  0  0  0  0  0  0
   -2.8170   10.6060   -3.4780 C   0  0  0  0  0  0  0  0  0  0  0  0
   -2.7260   12.0100   -3.7970 O   0  0  0  0  0  0  0  0  0  0  0  0
    1.2880   10.1010   -8.6220 C   0  0  0  0  0  0  0  0  0  0  0  0
    2.2180   10.4300   -9.5770 C   0  0  0  0  0  0  0  0  0  0  0  0
    2.8910    9.6490  -10.4490 N   0  0  0  0  0  0  0  0  0  0  0  0
    3.8102   13.2707   -9.6738 H   0  0  0  0  0  0  0  0  0  0  0  0
    3.8279   12.0108  -10.9540 H   0  0  0  0  0  0  0  0  0  0  0  0
    2.5502   13.2734  -10.9540 H   0  0  0  0  0  0  0  0  0  0  0  0
   -0.0972   13.6908   -7.1524 H   0  0  0  0  0  0  0  0  0  0  0  0
   -1.7275   14.0889   -5.2914 H   0  0  0  0  0  0  0  0  0  0  0  0
   -0.2102    9.4171   -6.3694 H   0  0  0  0  0  0  0  0  0  0  0  0
   -3.8644   10.2899   -3.5919 H   0  0  0  0  0  0  0  0  0  0  0  0
   -2.4551   10.4837   -2.4465 H   0  0  0  0  0  0  0  0  0  0  0  0
    0.9043    9.0961   -8.3920 H   0  0  0  0  0  0  0  0  0  0  0  0
    2.6510    8.6630  -10.5250 H   0  0  0  0  0  0  0  0  0  0  0  0
    3.8610    9.8320  -10.6930 H   0  0  0  0  0  0  0  0  0  0  0  0
  1  2  1  0
  2  3  1  0
  3  4  2  0
  4  5  1  0
  5  6  2  0
  6  7  1  0
  7  8  2  0
  8  9  1  0
  9 10  2  0
  9 11  1  0
 11 12  1  0
 12 13  1  0
  4 14  1  0
 14 15  2  0
 15 16  1  0
 15  2  1  0
 10  5  1  0
 13  8  1  0
  1 17  1  0
  1 18  1  0
  1 19  1  0
  6 20  1  0
  7 21  1  0
 10 22  1  0
 12 23  1  0
 12 24  1  0
 14 25  1  0
 16 26  1  0
 16 27  1  0
M  END
>  <meeko>  (7) 
{"is_sidechain": [false], "free_energy": -6.181, "intermolecular_energy": -6.72, "internal_energy": -0.19}

$$$$
3ao4_ligand
     RDKit          3D

 27 29  0  0  0  0  0  0  0  0999 V2000
   -2.0630   13.3310   -5.0710 C   0  0  0  0  0  0  0  0  0  0  0  0
   -1.4130   12.1570   -5.5990 N   0  0  0  0  0  0  0  0  0  0  0  0
   -0.6610   12.2640   -6.7100 N   0  0  0  0  0  0  0  0  0  0  0  0
   -0.1760   11.0270   -6.9180 C   0  0  0  0  0  0  0  0  0  0  0  0
    0.7180   10.7340   -8.0470 C   0  0  0  0  0  0  0  0  0  0  0  0
    1.0950    9.3960   -8.3280 C   0  0  0  0  0  0  0  0  0  0  0  0
    1.9440    9.0820   -9.3950 C   0  0  0  0  0  0  0  0  0  0  0  0
    2.4050   10.1210  -10.1690 C   0  0  0  0  0  0  0  0  0  0  0  0
    2.0480   11.4230   -9.9110 C   0  0  0  0  0  0  0  0  0  0  0  0
    1.2120   11.7630   -8.8660 C   0  0  0  0  0  0  0  0  0  0  0  0
    2.6090   12.2970  -10.7910 O   0  0  0  0  0  0  0  0  0  0  0  0
    3.3560   11.3940  -11.6320 C   0  0  0  0  0  0  0  0  0  0  0  0
    3.2320   10.0110  -11.2410 O   0  0  0  0  0  0  0  0  0  0  0  0
   -0.6590   10.1350   -5.9190 C   0  0  0  0  0  0  0  0  0  0  0  0
   -1.4630   10.8820   -5.0940 C   0  0  0  0  0  0  0  0  0  0  0  0
   -2.1700   10.5250   -4.0010 N   0  0  0  0  0  0  0  0  0  0  0  0
   -2.0443   13.2973   -3.9717 H   0  0  0  0  0  0  0  0  0  0  0  0
   -1.5345   14.2307   -5.4193 H   0  0  0  0  0  0  0  0  0  0  0  0
   -3.1060   13.3606   -5.4193 H   0  0  0  0  0  0  0  0  0  0  0  0
    0.7106    8.5853   -7.6916 H   0  0  0  0  0  0  0  0  0  0  0  0
    2.2322    8.0418   -9.6070 H   0  0  0  0  0  0  0  0  0  0  0  0
    0.9398   12.8124   -8.6796 H   0  0  0  0  0  0  0  0  0  0  0  0
    2.9921   11.4982  -12.6648 H   0  0  0  0  0  0  0  0  0  0  0  0
    4.4179   11.6644  -11.5356 H   0  0  0  0  0  0  0  0  0  0  0  0
   -0.4333    9.0624   -5.8266 H   0  0  0  0  0  0  0  0  0  0  0  0
   -2.6840    9.6460   -4.0040 H   0  0  0  0  0  0  0  0  0  0  0  0
   -2.5880   11.2160   -3.3840 H   0  0  0  0  0  0  0  0  0  0  0  0
  1  2  1  0
  2  3  1  0
  3  4  2  0
  4  5  1  0
  5  6  2  0
  6  7  1  0
  7  8  2  0
  8  9  1  0
  9 10  2  0
  9 11  1  0
 11 12  1  0
 12 13  1  0
  4 14  1  0
 14 15  2  0
 15 16  1  0
 15  2  1  0
 10  5  1  0
 13  8  1  0
  1 17  1  0
  1 18  1  0
  1 19  1  0
  6 20  1  0
  7 21  1  0
 10 22  1  0
 12 23  1  0
 12 24  1  0
 14 25  1  0
 16 26  1  0
 16 27  1  0
M  END
>  <meeko>  (8) 
{"is_sidechain": [false], "free_energy": -6.023, "intermolecular_energy": -6.527, "internal_energy": -0.212}

$$$$
3ao4_ligand
     RDKit          3D

 27 29  0  0  0  0  0  0  0  0999 V2000
   -0.7120    8.1380   -4.7900 C   0  0  0  0  0  0  0  0  0  0  0  0
   -0.2160    8.1770   -6.1440 N   0  0  0  0  0  0  0  0  0  0  0  0
   -0.0680    9.3670   -6.7570 N   0  0  0  0  0  0  0  0  0  0  0  0
    0.4360    9.0700   -7.9670 C   0  0  0  0  0  0  0  0  0  0  0  0
    0.7560   10.1220   -8.9430 C   0  0  0  0  0  0  0  0  0  0  0  0
   -0.1470   10.4120   -9.9970 C   0  0  0  0  0  0  0  0  0  0  0  0
    0.1270   11.4070  -10.9430 C   0  0  0  0  0  0  0  0  0  0  0  0
    1.3090   12.0980  -10.8170 C   0  0  0  0  0  0  0  0  0  0  0  0
    2.1950   11.8280   -9.8010 C   0  0  0  0  0  0  0  0  0  0  0  0
    1.9510   10.8540   -8.8530 C   0  0  0  0  0  0  0  0  0  0  0  0
    3.3000   12.6210   -9.8540 O   0  0  0  0  0  0  0  0  0  0  0  0
    3.0050   13.4200  -11.0190 C   0  0  0  0  0  0  0  0  0  0  0  0
    1.7430   13.0910  -11.6360 O   0  0  0  0  0  0  0  0  0  0  0  0
    0.5820    7.6610   -8.1080 C   0  0  0  0  0  0  0  0  0  0  0  0
    0.1420    7.1110   -6.9290 C   0  0  0  0  0  0  0  0  0  0  0  0
    0.0580    5.8210   -6.5410 N   0  0  0  0  0  0  0  0  0  0  0  0
    0.1324    8.2044   -4.0881 H   0  0  0  0  0  0  0  0  0  0  0  0
   -1.3937    8.9853   -4.6247 H   0  0  0  0  0  0  0  0  0  0  0  0
   -1.2529    7.1946   -4.6247 H   0  0  0  0  0  0  0  0  0  0  0  0
   -1.0847    9.8419  -10.0732 H   0  0  0  0  0  0  0  0  0  0  0  0
   -0.5781   11.6280  -11.7579 H   0  0  0  0  0  0  0  0  0  0  0  0
    2.6742   10.6566   -8.0480 H   0  0  0  0  0  0  0  0  0  0  0  0
    2.9809   14.4780  -10.7190 H   0  0  0  0  0  0  0  0  0  0  0  0
    3.7915   13.2153  -11.7603 H   0  0  0  0  0  0  0  0  0  0  0  0
    0.9693    7.1214   -8.9848 H   0  0  0  0  0  0  0  0  0  0  0  0
    0.4640    5.0950   -7.1290 H   0  0  0  0  0  0  0  0  0  0  0  0
   -0.7200    5.4780   -5.9830 H   0  0  0  0  0  0  0  0  0  0  0  0
  1  2  1  0
  2  3  1  0
  3  4  2  0
  4  5  1  0
  5  6  2  0
  6  7  1  0
  7  8  2  0
  8  9  1  0
  9 10  2  0
  9 11  1  0
 11 12  1  0
 12 13  1  0
  4 14  1  0
 14 15  2  0
 15 16  1  0
 15  2  1  0
 10  5  1  0
 13  8  1  0
  1 17  1  0
  1 18  1  0
  1 19  1  0
  6 20  1  0
  7 21  1  0
 10 22  1  0
 12 23  1  0
 12 24  1  0
 14 25  1  0
 16 26  1  0
 16 27  1  0
M  END
>  <meeko>  (9) 
{"is_sidechain": [false], "free_energy": -4.699, "intermolecular_energy": -5.112, "internal_energy": -0.186}

$$$$
