3b68_ligand
     RDKit          3D

 49 50  0  0  0  0  0  0  0  0999 V2000
   29.5730   -0.3160   13.5930 C   0  0  0  0  0  0  0  0  0  0  0  0
   30.1570    0.0050   12.2400 C   0  0  0  0  0  0  0  0  0  0  0  0
   31.3700   -0.0190   12.0600 O   0  0  0  0  0  0  0  0  0  0  0  0
   29.1840    0.3390   11.3150 N   0  0  0  0  0  0  0  0  0  0  0  0
   29.3710    0.6820    9.9600 C   0  0  0  0  0  0  0  0  0  0  0  0
   30.1390   -0.0600    9.0650 C   0  0  0  0  0  0  0  0  0  0  0  0
   30.2660    0.3510    7.7320 C   0  0  0  0  0  0  0  0  0  0  0  0
   29.6380    1.5090    7.2780 C   0  0  0  0  0  0  0  0  0  0  0  0
   29.8410    1.7950    5.9580 O   0  0  0  0  0  0  0  0  0  0  0  0
   30.4390    0.7690    5.1580 C   0  0  0  0  0  0  0  0  0  0  0  0
   29.6730    0.6550    3.8280 C   0  0  2  0  0  0  0  0  0  0  0  0
   29.3810   -0.8080    3.4960 C   0  0  0  0  0  0  0  0  0  0  0  0
   30.5170    1.1420    2.7720 O   0  0  0  0  0  0  0  0  0  0  0  0
   28.3590    1.4870    3.8680 C   0  0  0  0  0  0  0  0  0  0  0  0
   27.2820    0.9140    4.0300 O   0  0  0  0  0  0  0  0  0  0  0  0
   28.5230    2.8520    3.6970 N   0  0  0  0  0  0  0  0  0  0  0  0
   27.5170    3.8420    3.6820 C   0  0  0  0  0  0  0  0  0  0  0  0
   27.9370    5.1700    3.5350 C   0  0  0  0  0  0  0  0  0  0  0  0
   27.0100    6.2130    3.5040 C   0  0  0  0  0  0  0  0  0  0  0  0
   25.6450    5.9240    3.6240 C   0  0  0  0  0  0  0  0  0  0  0  0
   24.7160    7.0440    3.5540 N   0  0  0  0  0  0  0  0  0  0  0  0
   24.5110    7.5370    2.4400 O   0  0  0  0  0  0  0  0  0  0  0  0
   24.2280    7.4360    4.6220 O   0  0  0  0  0  0  0  0  0  0  0  0
   25.1880    4.6110    3.7930 C   0  0  0  0  0  0  0  0  0  0  0  0
   23.7270    4.2800    3.9600 C   0  0  0  0  0  0  0  0  0  0  0  0
   22.9220    5.0060    3.1360 F   0  0  0  0  0  0  0  0  0  0  0  0
   23.2730    4.5160    5.2170 F   0  0  0  0  0  0  0  0  0  0  0  0
   23.4460    2.9800    3.6750 F   0  0  0  0  0  0  0  0  0  0  0  0
   26.1470    3.5750    3.8090 C   0  0  0  0  0  0  0  0  0  0  0  0
   28.8590    2.2500    8.1640 C   0  0  0  0  0  0  0  0  0  0  0  0
   28.7290    1.8370    9.4970 C   0  0  0  0  0  0  0  0  0  0  0  0
   30.2463    0.0541   14.3802 H   0  0  0  0  0  0  0  0  0  0  0  0
   28.5907    0.1690   13.6928 H   0  0  0  0  0  0  0  0  0  0  0  0
   29.4560   -1.4052   13.6928 H   0  0  0  0  0  0  0  0  0  0  0  0
   28.2290    0.3500   11.6470 H   0  0  0  0  0  0  0  0  0  0  0  0
   30.6481   -0.9731    9.4070 H   0  0  0  0  0  0  0  0  0  0  0  0
   30.8695   -0.2483    7.0344 H   0  0  0  0  0  0  0  0  0  0  0  0
   31.4898    1.0246    4.9569 H   0  0  0  0  0  0  0  0  0  0  0  0
   30.3952   -0.1907    5.6937 H   0  0  0  0  0  0  0  0  0  0  0  0
   29.2669   -1.3799    4.4287 H   0  0  0  0  0  0  0  0  0  0  0  0
   28.4522   -0.8727    2.9102 H   0  0  0  0  0  0  0  0  0  0  0  0
   30.2138   -1.2243    2.9102 H   0  0  0  0  0  0  0  0  0  0  0  0
   29.9080    1.4510    2.0700 H   0  0  0  0  0  0  0  0  0  0  0  0
   29.4630    3.1880    3.5330 H   0  0  0  0  0  0  0  0  0  0  0  0
   29.0101    5.3936    3.4429 H   0  0  0  0  0  0  0  0  0  0  0  0
   27.3487    7.2529    3.3863 H   0  0  0  0  0  0  0  0  0  0  0  0
   25.8111    2.5339    3.9238 H   0  0  0  0  0  0  0  0  0  0  0  0
   28.3460    3.1592    7.8174 H   0  0  0  0  0  0  0  0  0  0  0  0
   28.1133    2.4292   10.1900 H   0  0  0  0  0  0  0  0  0  0  0  0
  1  2  1  0
  2  3  2  0
  2  4  1  0
  4  5  1  0
  5  6  2  0
  6  7  1  0
  7  8  2  0
  8  9  1  0
  9 10  1  0
 10 11  1  0
 11 12  1  0
 11 13  1  6
 11 14  1  0
 14 15  2  0
 14 16  1  0
 16 17  1  0
 17 18  2  0
 18 19  1  0
 19 20  2  0
 20 21  1  0
 21 22  2  0
 21 23  1  0
 20 24  1  0
 24 25  1  0
 25 26  1  0
 25 27  1  0
 25 28  1  0
 24 29  2  0
  8 30  1  0
 30 31  2  0
 31  5  1  0
 29 17  1  0
  1 32  1  0
  1 33  1  0
  1 34  1  0
  4 35  1  0
  6 36  1  0
  7 37  1  0
 10 38  1  0
 10 39  1  0
 12 40  1  0
 12 41  1  0
 12 42  1  0
 13 43  1  0
 16 44  1  0
 18 45  1  0
 19 46  1  0
 29 47  1  0
 30 48  1  0
 31 49  1  0
M  CHG  2  21   1  23  -1
M  END
>  <meeko>  (1) 
{"is_sidechain": [false], "free_energy": -11.341, "intermolecular_energy": -16.976, "internal_energy": -0.601}

$$$$
3b68_ligand
     RDKit          3D

 49 50  0  0  0  0  0  0  0  0999 V2000
   29.7020   -0.0810   13.5930 C   0  0  0  0  0  0  0  0  0  0  0  0
   30.3160    0.0840   12.2260 C   0  0  0  0  0  0  0  0  0  0  0  0
   31.5260   -0.0360   12.0640 O   0  0  0  0  0  0  0  0  0  0  0  0
   29.3750    0.4020   11.2630 N   0  0  0  0  0  0  0  0  0  0  0  0
   29.5940    0.6160    9.8870 C   0  0  0  0  0  0  0  0  0  0  0  0
   30.3850   -0.2050    9.0840 C   0  0  0  0  0  0  0  0  0  0  0  0
   30.5440    0.0780    7.7230 C   0  0  0  0  0  0  0  0  0  0  0  0
   29.9260    1.1860    7.1450 C   0  0  0  0  0  0  0  0  0  0  0  0
   30.1620    1.3470    5.8100 O   0  0  0  0  0  0  0  0  0  0  0  0
   30.7170    0.2270    5.1110 C   0  0  0  0  0  0  0  0  0  0  0  0
   29.8890   -0.0380    3.8420 C   0  0  2  0  0  0  0  0  0  0  0  0
   29.9100   -1.5230    3.4830 C   0  0  0  0  0  0  0  0  0  0  0  0
   30.5090    0.6460    2.7410 O   0  0  0  0  0  0  0  0  0  0  0  0
   28.4280    0.4700    4.0130 C   0  0  0  0  0  0  0  0  0  0  0  0
   27.5580   -0.3060    4.4060 O   0  0  0  0  0  0  0  0  0  0  0  0
   28.2260    1.8000    3.6800 N   0  0  0  0  0  0  0  0  0  0  0  0
   27.0150    2.5230    3.7310 C   0  0  0  0  0  0  0  0  0  0  0  0
   25.8330    1.7740    3.7980 C   0  0  0  0  0  0  0  0  0  0  0  0
   24.5900    2.4060    3.8580 C   0  0  0  0  0  0  0  0  0  0  0  0
   24.5280    3.8060    3.8460 C   0  0  0  0  0  0  0  0  0  0  0  0
   23.2090    4.4170    3.9410 N   0  0  0  0  0  0  0  0  0  0  0  0
   22.7150    4.5180    5.0680 O   0  0  0  0  0  0  0  0  0  0  0  0
   22.6720    4.7590    2.8800 O   0  0  0  0  0  0  0  0  0  0  0  0
   25.6870    4.5880    3.7580 C   0  0  0  0  0  0  0  0  0  0  0  0
   25.6430    6.0930    3.7070 C   0  0  0  0  0  0  0  0  0  0  0  0
   26.8600    6.6660    3.9270 F   0  0  0  0  0  0  0  0  0  0  0  0
   24.8120    6.6280    4.6380 F   0  0  0  0  0  0  0  0  0  0  0  0
   25.2410    6.5680    2.4980 F   0  0  0  0  0  0  0  0  0  0  0  0
   26.9310    3.9210    3.7120 C   0  0  0  0  0  0  0  0  0  0  0  0
   29.1270    2.0060    7.9390 C   0  0  0  0  0  0  0  0  0  0  0  0
   28.9640    1.7200    9.3010 C   0  0  0  0  0  0  0  0  0  0  0  0
   30.4608    0.1229   14.3628 H   0  0  0  0  0  0  0  0  0  0  0  0
   28.8655    0.6242   13.7068 H   0  0  0  0  0  0  0  0  0  0  0  0
   29.3317   -1.1105   13.7068 H   0  0  0  0  0  0  0  0  0  0  0  0
   28.4200    0.5040   11.5800 H   0  0  0  0  0  0  0  0  0  0  0  0
   30.8867   -1.0800    9.5230 H   0  0  0  0  0  0  0  0  0  0  0  0
   31.1651   -0.5828    7.1005 H   0  0  0  0  0  0  0  0  0  0  0  0
   31.7581    0.4467    4.8318 H   0  0  0  0  0  0  0  0  0  0  0  0
   30.6944   -0.6614    5.7593 H   0  0  0  0  0  0  0  0  0  0  0  0
   29.9185   -2.1230    4.4049 H   0  0  0  0  0  0  0  0  0  0  0  0
   29.0153   -1.7702    2.8928 H   0  0  0  0  0  0  0  0  0  0  0  0
   30.8114   -1.7448    2.8928 H   0  0  0  0  0  0  0  0  0  0  0  0
   31.1050   -0.0120    2.3250 H   0  0  0  0  0  0  0  0  0  0  0  0
   29.0240    2.3160    3.3320 H   0  0  0  0  0  0  0  0  0  0  0  0
   25.8851    0.6752    3.8034 H   0  0  0  0  0  0  0  0  0  0  0  0
   23.6670    1.8103    3.9142 H   0  0  0  0  0  0  0  0  0  0  0  0
   27.8562    4.5137    3.6600 H   0  0  0  0  0  0  0  0  0  0  0  0
   28.6239    2.8784    7.4964 H   0  0  0  0  0  0  0  0  0  0  0  0
   28.3310    2.3734    9.9194 H   0  0  0  0  0  0  0  0  0  0  0  0
  1  2  1  0
  2  3  2  0
  2  4  1  0
  4  5  1  0
  5  6  2  0
  6  7  1  0
  7  8  2  0
  8  9  1  0
  9 10  1  0
 10 11  1  0
 11 12  1  0
 11 13  1  6
 11 14  1  0
 14 15  2  0
 14 16  1  0
 16 17  1  0
 17 18  2  0
 18 19  1  0
 19 20  2  0
 20 21  1  0
 21 22  2  0
 21 23  1  0
 20 24  1  0
 24 25  1  0
 25 26  1  0
 25 27  1  0
 25 28  1  0
 24 29  2  0
  8 30  1  0
 30 31  2  0
 31  5  1  0
 29 17  1  0
  1 32  1  0
  1 33  1  0
  1 34  1  0
  4 35  1  0
  6 36  1  0
  7 37  1  0
 10 38  1  0
 10 39  1  0
 12 40  1  0
 12 41  1  0
 12 42  1  0
 13 43  1  0
 16 44  1  0
 18 45  1  0
 19 46  1  0
 29 47  1  0
 30 48  1  0
 31 49  1  0
M  CHG  2  21   1  23  -1
M  END
>  <meeko>  (2) 
{"is_sidechain": [false], "free_energy": -9.585, "intermolecular_energy": -14.415, "internal_energy": -0.534}

$$$$
