3arp_ligand
     RDKit          3D

 74 77  0  0  0  0  0  0  0  0999 V2000
    6.8970   -5.7160   34.9420 C   0  0  0  0  0  0  0  0  0  0  0  0
    7.6870   -5.0110   33.8680 C   0  0  0  0  0  0  0  0  0  0  0  0
    7.9940   -3.6640   34.0650 C   0  0  0  0  0  0  0  0  0  0  0  0
    8.6780   -2.9300   33.1090 C   0  0  0  0  0  0  0  0  0  0  0  0
    9.0410   -1.6160   33.4300 N   0  0  0  0  0  0  0  0  0  0  0  0
    9.1600   -3.6040   31.9730 C   0  0  0  0  0  0  0  0  0  0  0  0
    9.9700   -2.9570   31.0090 C   0  0  0  0  0  0  0  0  0  0  0  0
   10.4310   -3.6150   29.8710 C   0  0  0  0  0  0  0  0  0  0  0  0
   10.1000   -4.9420   29.6660 C   0  0  0  0  0  0  0  0  0  0  0  0
    9.3150   -5.6130   30.6050 C   0  0  0  0  0  0  0  0  0  0  0  0
    8.8310   -4.9770   31.7730 C   0  0  0  0  0  0  0  0  0  0  0  0
    8.0740   -5.6420   32.7180 N   0  0  0  0  0  0  0  0  0  0  0  0
    7.6590   -7.0640   32.4900 C   0  0  0  0  0  0  0  0  0  0  0  0
    8.8510   -7.9980   32.7020 C   0  0  0  0  0  0  0  0  0  0  0  0
    8.8170   -9.2280   31.7910 C   0  0  0  0  0  0  0  0  0  0  0  0
    7.6760   -9.2770   30.7680 C   0  0  0  0  0  0  0  0  0  0  0  0
    8.1520   -9.6030   29.3490 C   0  0  0  0  0  0  0  0  0  0  0  0
    8.9880   -8.4860   28.7050 C   0  0  0  0  0  0  0  0  0  0  0  0
    9.1460   -8.6460   27.1880 C   0  0  0  0  0  0  0  0  0  0  0  0
    9.2150   -7.3140   26.4270 C   0  0  0  0  0  0  0  0  0  0  0  0
   10.6380   -6.9080   26.0320 C   0  0  0  0  0  0  0  0  0  0  0  0
   11.3550   -7.9390   25.1510 C   0  0  0  0  0  0  0  0  0  0  0  0
   11.1310   -7.6740   23.6910 N   0  0  0  0  0  0  0  0  0  0  0  0
   11.7920   -6.6400   23.0850 C   0  0  0  0  0  0  0  0  0  0  0  0
   12.6660   -5.6810   23.8530 C   0  0  0  0  0  0  0  0  0  0  0  0
   11.6430   -6.4220   21.7130 C   0  0  0  0  0  0  0  0  0  0  0  0
   10.8450   -7.2420   20.9310 C   0  0  0  0  0  0  0  0  0  0  0  0
   10.6760   -6.8970   19.5850 N   0  0  0  0  0  0  0  0  0  0  0  0
   10.0700   -8.2210   21.5760 C   0  0  0  0  0  0  0  0  0  0  0  0
    9.1220   -9.0010   20.8730 C   0  0  0  0  0  0  0  0  0  0  0  0
    8.3540   -9.9780   21.5040 C   0  0  0  0  0  0  0  0  0  0  0  0
    8.5080  -10.1960   22.8600 C   0  0  0  0  0  0  0  0  0  0  0  0
    9.4280   -9.4360   23.5850 C   0  0  0  0  0  0  0  0  0  0  0  0
   10.2290   -8.4390   22.9760 C   0  0  0  0  0  0  0  0  0  0  0  0
    7.2560   -5.3957   35.9312 H   0  0  0  0  0  0  0  0  0  0  0  0
    5.8314   -5.4632   34.8391 H   0  0  0  0  0  0  0  0  0  0  0  0
    7.0274   -6.8034   34.8391 H   0  0  0  0  0  0  0  0  0  0  0  0
    7.6861   -3.1737   35.0003 H   0  0  0  0  0  0  0  0  0  0  0  0
    8.3620   -1.0750   33.9590 H   0  0  0  0  0  0  0  0  0  0  0  0
    9.4280   -1.0560   32.6770 H   0  0  0  0  0  0  0  0  0  0  0  0
   10.2436   -1.9028   31.1632 H   0  0  0  0  0  0  0  0  0  0  0  0
   11.0553   -3.0817   29.1390 H   0  0  0  0  0  0  0  0  0  0  0  0
   10.4540   -5.4667   28.7664 H   0  0  0  0  0  0  0  0  0  0  0  0
    9.0645   -6.6700   30.4317 H   0  0  0  0  0  0  0  0  0  0  0  0
    6.8593   -7.3279   33.1977 H   0  0  0  0  0  0  0  0  0  0  0  0
    7.2949   -7.1724   31.4577 H   0  0  0  0  0  0  0  0  0  0  0  0
    9.7757   -7.4376   32.4998 H   0  0  0  0  0  0  0  0  0  0  0  0
    8.8070   -8.3568   33.7409 H   0  0  0  0  0  0  0  0  0  0  0  0
    9.7668   -9.2627   31.2373 H   0  0  0  0  0  0  0  0  0  0  0  0
    8.6528  -10.0865   32.4589 H   0  0  0  0  0  0  0  0  0  0  0  0
    6.9578  -10.0488   31.0819 H   0  0  0  0  0  0  0  0  0  0  0  0
    7.2201   -8.2763   30.7383 H   0  0  0  0  0  0  0  0  0  0  0  0
    8.7647  -10.5157   29.3895 H   0  0  0  0  0  0  0  0  0  0  0  0
    7.2519   -9.7283   28.7293 H   0  0  0  0  0  0  0  0  0  0  0  0
    8.4969   -7.5223   28.9054 H   0  0  0  0  0  0  0  0  0  0  0  0
    9.9948   -8.5369   29.1451 H   0  0  0  0  0  0  0  0  0  0  0  0
   10.0732   -9.2049   26.9931 H   0  0  0  0  0  0  0  0  0  0  0  0
    8.2513   -9.1745   26.8272 H   0  0  0  0  0  0  0  0  0  0  0  0
    8.6122   -7.4047   25.5114 H   0  0  0  0  0  0  0  0  0  0  0  0
    8.8327   -6.5353   27.1033 H   0  0  0  0  0  0  0  0  0  0  0  0
   10.5869   -5.9572   25.4813 H   0  0  0  0  0  0  0  0  0  0  0  0
   11.2173   -6.8250   26.9634 H   0  0  0  0  0  0  0  0  0  0  0  0
   12.4343   -7.8967   25.3594 H   0  0  0  0  0  0  0  0  0  0  0  0
   10.9466   -8.9331   25.3854 H   0  0  0  0  0  0  0  0  0  0  0  0
   12.5227   -5.8382   24.9322 H   0  0  0  0  0  0  0  0  0  0  0  0
   13.7203   -5.8576   23.5935 H   0  0  0  0  0  0  0  0  0  0  0  0
   12.3926   -4.6476   23.5935 H   0  0  0  0  0  0  0  0  0  0  0  0
   12.1715   -5.5798   21.2425 H   0  0  0  0  0  0  0  0  0  0  0  0
   10.5090   -7.6590   18.9350 H   0  0  0  0  0  0  0  0  0  0  0  0
   11.3470   -6.2380   19.1970 H   0  0  0  0  0  0  0  0  0  0  0  0
    8.9868   -8.8311   19.7946 H   0  0  0  0  0  0  0  0  0  0  0  0
    7.6301  -10.5717   20.9265 H   0  0  0  0  0  0  0  0  0  0  0  0
    7.9076  -10.9660   23.3666 H   0  0  0  0  0  0  0  0  0  0  0  0
    9.5343   -9.6175   24.6647 H   0  0  0  0  0  0  0  0  0  0  0  0
  1  2  1  0
  2  3  2  0
  3  4  1  0
  4  5  1  0
  4  6  2  0
  6  7  1  0
  7  8  2  0
  8  9  1  0
  9 10  2  0
 10 11  1  0
 11 12  2  0
 12 13  1  0
 13 14  1  0
 14 15  1  0
 15 16  1  0
 16 17  1  0
 17 18  1  0
 18 19  1  0
 19 20  1  0
 20 21  1  0
 21 22  1  0
 22 23  1  0
 23 24  2  0
 24 25  1  0
 24 26  1  0
 26 27  2  0
 27 28  1  0
 27 29  1  0
 29 30  2  0
 30 31  1  0
 31 32  2  0
 32 33  1  0
 33 34  2  0
 12  2  1  0
 34 23  1  0
 11  6  1  0
 34 29  1  0
  1 35  1  0
  1 36  1  0
  1 37  1  0
  3 38  1  0
  5 39  1  0
  5 40  1  0
  7 41  1  0
  8 42  1  0
  9 43  1  0
 10 44  1  0
 13 45  1  0
 13 46  1  0
 14 47  1  0
 14 48  1  0
 15 49  1  0
 15 50  1  0
 16 51  1  0
 16 52  1  0
 17 53  1  0
 17 54  1  0
 18 55  1  0
 18 56  1  0
 19 57  1  0
 19 58  1  0
 20 59  1  0
 20 60  1  0
 21 61  1  0
 21 62  1  0
 22 63  1  0
 22 64  1  0
 25 65  1  0
 25 66  1  0
 25 67  1  0
 26 68  1  0
 28 69  1  0
 28 70  1  0
 30 71  1  0
 31 72  1  0
 32 73  1  0
 33 74  1  0
M  CHG  2  12   1  23   1
M  END
>  <meeko>  (1) 
{"is_sidechain": [false], "free_energy": -10.031, "intermolecular_energy": -17.068, "internal_energy": -1.289}

$$$$
3arp_ligand
     RDKit          3D

 74 77  0  0  0  0  0  0  0  0999 V2000
   12.7320   -5.9710   24.3460 C   0  0  0  0  0  0  0  0  0  0  0  0
   11.7720   -6.7540   23.4860 C   0  0  0  0  0  0  0  0  0  0  0  0
   11.7570   -6.4830   22.1160 C   0  0  0  0  0  0  0  0  0  0  0  0
   10.8750   -7.1240   21.2610 C   0  0  0  0  0  0  0  0  0  0  0  0
   11.0000   -6.8760   19.8880 N   0  0  0  0  0  0  0  0  0  0  0  0
   10.0640   -8.1450   21.7860 C   0  0  0  0  0  0  0  0  0  0  0  0
    9.2240   -8.9300   20.9600 C   0  0  0  0  0  0  0  0  0  0  0  0
    8.4020   -9.9270   21.4790 C   0  0  0  0  0  0  0  0  0  0  0  0
    8.3980  -10.1720   22.8410 C   0  0  0  0  0  0  0  0  0  0  0  0
    9.2250   -9.4250   23.6810 C   0  0  0  0  0  0  0  0  0  0  0  0
   10.0750   -8.4060   23.1870 C   0  0  0  0  0  0  0  0  0  0  0  0
   10.9140   -7.6790   24.0110 N   0  0  0  0  0  0  0  0  0  0  0  0
   10.8870   -7.8920   25.4940 C   0  0  0  0  0  0  0  0  0  0  0  0
    9.6880   -7.1680   26.1060 C   0  0  0  0  0  0  0  0  0  0  0  0
   10.0400   -5.7820   26.6520 C   0  0  0  0  0  0  0  0  0  0  0  0
    9.5940   -4.5880   25.7980 C   0  0  0  0  0  0  0  0  0  0  0  0
   10.0820   -3.2410   26.3410 C   0  0  0  0  0  0  0  0  0  0  0  0
   11.4770   -3.3020   26.9830 C   0  0  0  0  0  0  0  0  0  0  0  0
   11.5410   -2.6230   28.3570 C   0  0  0  0  0  0  0  0  0  0  0  0
   12.3780   -3.3910   29.3900 C   0  0  0  0  0  0  0  0  0  0  0  0
   11.5350   -4.1540   30.4160 C   0  0  0  0  0  0  0  0  0  0  0  0
   10.0230   -4.0120   30.2040 C   0  0  0  0  0  0  0  0  0  0  0  0
    9.2420   -4.6680   31.3050 N   0  0  0  0  0  0  0  0  0  0  0  0
    8.8640   -3.9300   32.3950 C   0  0  0  0  0  0  0  0  0  0  0  0
    9.2920   -2.4970   32.5860 C   0  0  0  0  0  0  0  0  0  0  0  0
    8.0820   -4.5120   33.3960 C   0  0  0  0  0  0  0  0  0  0  0  0
    7.6590   -5.8280   33.3130 C   0  0  0  0  0  0  0  0  0  0  0  0
    6.9590   -6.3590   34.4040 N   0  0  0  0  0  0  0  0  0  0  0  0
    8.1520   -6.6180   32.2600 C   0  0  0  0  0  0  0  0  0  0  0  0
    7.8870   -8.0050   32.1820 C   0  0  0  0  0  0  0  0  0  0  0  0
    8.3690   -8.7920   31.1390 C   0  0  0  0  0  0  0  0  0  0  0  0
    9.1370   -8.2140   30.1450 C   0  0  0  0  0  0  0  0  0  0  0  0
    9.4260   -6.8490   30.1980 C   0  0  0  0  0  0  0  0  0  0  0  0
    8.9480   -6.0170   31.2400 C   0  0  0  0  0  0  0  0  0  0  0  0
   12.5071   -6.1544   25.4070 H   0  0  0  0  0  0  0  0  0  0  0  0
   13.7622   -6.2897   24.1291 H   0  0  0  0  0  0  0  0  0  0  0  0
   12.6269   -4.8977   24.1291 H   0  0  0  0  0  0  0  0  0  0  0  0
   12.4613   -5.7439   21.7065 H   0  0  0  0  0  0  0  0  0  0  0  0
   11.5530   -6.0650   19.6230 H   0  0  0  0  0  0  0  0  0  0  0  0
   10.1440   -6.9120   19.3410 H   0  0  0  0  0  0  0  0  0  0  0  0
    9.2205   -8.7468   19.8754 H   0  0  0  0  0  0  0  0  0  0  0  0
    7.7589  -10.5171   20.8095 H   0  0  0  0  0  0  0  0  0  0  0  0
    7.7456  -10.9524   23.2598 H   0  0  0  0  0  0  0  0  0  0  0  0
    9.2163   -9.6344   24.7608 H   0  0  0  0  0  0  0  0  0  0  0  0
   10.8090   -8.9686   25.7057 H   0  0  0  0  0  0  0  0  0  0  0  0
   11.8126   -7.4908   25.9326 H   0  0  0  0  0  0  0  0  0  0  0  0
    8.9152   -7.0536   25.3316 H   0  0  0  0  0  0  0  0  0  0  0  0
    9.3348   -7.7748   26.9528 H   0  0  0  0  0  0  0  0  0  0  0  0
    9.5708   -5.6814   27.6418 H   0  0  0  0  0  0  0  0  0  0  0  0
   11.1391   -5.7405   26.6677 H   0  0  0  0  0  0  0  0  0  0  0  0
    9.9903   -4.7188   24.7802 H   0  0  0  0  0  0  0  0  0  0  0  0
    8.4943   -4.5676   25.8141 H   0  0  0  0  0  0  0  0  0  0  0  0
   10.1139   -2.5222   25.5089 H   0  0  0  0  0  0  0  0  0  0  0  0
    9.3780   -2.9387   27.1303 H   0  0  0  0  0  0  0  0  0  0  0  0
   11.7613   -4.3580   27.1015 H   0  0  0  0  0  0  0  0  0  0  0  0
   12.1662   -2.7601   26.3186 H   0  0  0  0  0  0  0  0  0  0  0  0
   11.9805   -1.6227   28.2293 H   0  0  0  0  0  0  0  0  0  0  0  0
   10.5118   -2.5848   28.7435 H   0  0  0  0  0  0  0  0  0  0  0  0
   13.0132   -4.1129   28.8557 H   0  0  0  0  0  0  0  0  0  0  0  0
   12.9674   -2.6468   29.9457 H   0  0  0  0  0  0  0  0  0  0  0  0
   11.7951   -5.2210   30.3537 H   0  0  0  0  0  0  0  0  0  0  0  0
   11.7620   -3.7218   31.4017 H   0  0  0  0  0  0  0  0  0  0  0  0
    9.7665   -2.9427   30.1737 H   0  0  0  0  0  0  0  0  0  0  0  0
    9.7623   -4.5079   29.2574 H   0  0  0  0  0  0  0  0  0  0  0  0
    9.3585   -2.2744   33.6612 H   0  0  0  0  0  0  0  0  0  0  0  0
   10.2755   -2.3426   32.1181 H   0  0  0  0  0  0  0  0  0  0  0  0
    8.5543   -1.8285   32.1181 H   0  0  0  0  0  0  0  0  0  0  0  0
    7.7954   -3.9103   34.2711 H   0  0  0  0  0  0  0  0  0  0  0  0
    6.6030   -7.3050   34.3010 H   0  0  0  0  0  0  0  0  0  0  0  0
    6.2580   -5.7580   34.8290 H   0  0  0  0  0  0  0  0  0  0  0  0
    7.2813   -8.4769   32.9697 H   0  0  0  0  0  0  0  0  0  0  0  0
    8.1400   -9.8674   31.1061 H   0  0  0  0  0  0  0  0  0  0  0  0
    9.5189   -8.8273   29.3155 H   0  0  0  0  0  0  0  0  0  0  0  0
   10.0452   -6.4052   29.4045 H   0  0  0  0  0  0  0  0  0  0  0  0
  1  2  1  0
  2  3  2  0
  3  4  1  0
  4  5  1  0
  4  6  2  0
  6  7  1  0
  7  8  2  0
  8  9  1  0
  9 10  2  0
 10 11  1  0
 11 12  2  0
 12 13  1  0
 13 14  1  0
 14 15  1  0
 15 16  1  0
 16 17  1  0
 17 18  1  0
 18 19  1  0
 19 20  1  0
 20 21  1  0
 21 22  1  0
 22 23  1  0
 23 24  2  0
 24 25  1  0
 24 26  1  0
 26 27  2  0
 27 28  1  0
 27 29  1  0
 29 30  2  0
 30 31  1  0
 31 32  2  0
 32 33  1  0
 33 34  2  0
 12  2  1  0
 34 23  1  0
 11  6  1  0
 34 29  1  0
  1 35  1  0
  1 36  1  0
  1 37  1  0
  3 38  1  0
  5 39  1  0
  5 40  1  0
  7 41  1  0
  8 42  1  0
  9 43  1  0
 10 44  1  0
 13 45  1  0
 13 46  1  0
 14 47  1  0
 14 48  1  0
 15 49  1  0
 15 50  1  0
 16 51  1  0
 16 52  1  0
 17 53  1  0
 17 54  1  0
 18 55  1  0
 18 56  1  0
 19 57  1  0
 19 58  1  0
 20 59  1  0
 20 60  1  0
 21 61  1  0
 21 62  1  0
 22 63  1  0
 22 64  1  0
 25 65  1  0
 25 66  1  0
 25 67  1  0
 26 68  1  0
 28 69  1  0
 28 70  1  0
 30 71  1  0
 31 72  1  0
 32 73  1  0
 33 74  1  0
M  CHG  2  12   1  23   1
M  END
>  <meeko>  (2) 
{"is_sidechain": [false], "free_energy": -10.029, "intermolecular_energy": -16.556, "internal_energy": -1.797}

$$$$
3arp_ligand
     RDKit          3D

 74 77  0  0  0  0  0  0  0  0999 V2000
   19.2070   -8.6290   23.0530 C   0  0  0  0  0  0  0  0  0  0  0  0
   18.0050   -9.1780   22.3270 C   0  0  0  0  0  0  0  0  0  0  0  0
   18.2300   -9.9490   21.1860 C   0  0  0  0  0  0  0  0  0  0  0  0
   17.1810  -10.4550   20.4340 C   0  0  0  0  0  0  0  0  0  0  0  0
   17.4920  -11.3080   19.3680 N   0  0  0  0  0  0  0  0  0  0  0  0
   15.8710  -10.2680   20.9120 C   0  0  0  0  0  0  0  0  0  0  0  0
   14.7530  -10.8540   20.2710 C   0  0  0  0  0  0  0  0  0  0  0  0
   13.4530  -10.6530   20.7270 C   0  0  0  0  0  0  0  0  0  0  0  0
   13.2320   -9.8640   21.8420 C   0  0  0  0  0  0  0  0  0  0  0  0
   14.3150   -9.2840   22.5050 C   0  0  0  0  0  0  0  0  0  0  0  0
   15.6490   -9.4680   22.0710 C   0  0  0  0  0  0  0  0  0  0  0  0
   16.7260   -8.9160   22.7360 N   0  0  0  0  0  0  0  0  0  0  0  0
   16.5070   -8.0160   23.9140 C   0  0  0  0  0  0  0  0  0  0  0  0
   16.4720   -6.5570   23.4590 C   0  0  0  0  0  0  0  0  0  0  0  0
   15.4840   -5.7040   24.2580 C   0  0  0  0  0  0  0  0  0  0  0  0
   15.1400   -4.3330   23.6620 C   0  0  0  0  0  0  0  0  0  0  0  0
   13.6350   -4.0490   23.6300 C   0  0  0  0  0  0  0  0  0  0  0  0
   12.9730   -4.0660   25.0170 C   0  0  0  0  0  0  0  0  0  0  0  0
   11.4410   -4.1300   24.9550 C   0  0  0  0  0  0  0  0  0  0  0  0
   10.7990   -4.8090   26.1730 C   0  0  0  0  0  0  0  0  0  0  0  0
   10.0580   -6.1040   25.8330 C   0  0  0  0  0  0  0  0  0  0  0  0
   10.9780   -7.2390   25.3660 C   0  0  0  0  0  0  0  0  0  0  0  0
   10.2960   -8.1370   24.3750 N   0  0  0  0  0  0  0  0  0  0  0  0
    9.6220   -9.2420   24.8200 C   0  0  0  0  0  0  0  0  0  0  0  0
    9.6230   -9.6580   26.2700 C   0  0  0  0  0  0  0  0  0  0  0  0
    8.9280  -10.0500   23.9160 C   0  0  0  0  0  0  0  0  0  0  0  0
    8.8880   -9.7550   22.5630 C   0  0  0  0  0  0  0  0  0  0  0  0
    8.2500  -10.6680   21.7140 N   0  0  0  0  0  0  0  0  0  0  0  0
    9.6830   -8.6960   22.0920 C   0  0  0  0  0  0  0  0  0  0  0  0
    9.8130   -8.4200   20.7110 C   0  0  0  0  0  0  0  0  0  0  0  0
   10.5950   -7.3680   20.2370 C   0  0  0  0  0  0  0  0  0  0  0  0
   11.2750   -6.5660   21.1340 C   0  0  0  0  0  0  0  0  0  0  0  0
   11.1760   -6.8180   22.5040 C   0  0  0  0  0  0  0  0  0  0  0  0
   10.3870   -7.8740   23.0210 C   0  0  0  0  0  0  0  0  0  0  0  0
   19.0451   -8.7030   24.1385 H   0  0  0  0  0  0  0  0  0  0  0  0
   20.0996   -9.2087   22.7751 H   0  0  0  0  0  0  0  0  0  0  0  0
   19.3533   -7.5748   22.7751 H   0  0  0  0  0  0  0  0  0  0  0  0
   19.2640  -10.1603   20.8759 H   0  0  0  0  0  0  0  0  0  0  0  0
   17.0720  -11.0830   18.4700 H   0  0  0  0  0  0  0  0  0  0  0  0
   17.4220  -12.3050   19.5510 H   0  0  0  0  0  0  0  0  0  0  0  0
   14.9163  -11.4870   19.3863 H   0  0  0  0  0  0  0  0  0  0  0  0
   12.6055  -11.1193   20.2033 H   0  0  0  0  0  0  0  0  0  0  0  0
   12.2073   -9.6945   22.2044 H   0  0  0  0  0  0  0  0  0  0  0  0
   14.1251   -8.6639   23.3935 H   0  0  0  0  0  0  0  0  0  0  0  0
   15.5506   -8.2708   24.3940 H   0  0  0  0  0  0  0  0  0  0  0  0
   17.3316   -8.1511   24.6294 H   0  0  0  0  0  0  0  0  0  0  0  0
   17.4786   -6.1293   23.5760 H   0  0  0  0  0  0  0  0  0  0  0  0
   16.1408   -6.5477   22.4101 H   0  0  0  0  0  0  0  0  0  0  0  0
   14.5479   -6.2738   24.3524 H   0  0  0  0  0  0  0  0  0  0  0  0
   15.9828   -5.4931   25.2154 H   0  0  0  0  0  0  0  0  0  0  0  0
   15.6296   -3.5559   24.2673 H   0  0  0  0  0  0  0  0  0  0  0  0
   15.4951   -4.3309   22.6209 H   0  0  0  0  0  0  0  0  0  0  0  0
   13.4784   -3.0563   23.1827 H   0  0  0  0  0  0  0  0  0  0  0  0
   13.1688   -4.8530   23.0416 H   0  0  0  0  0  0  0  0  0  0  0  0
   13.3376   -4.9457   25.5676 H   0  0  0  0  0  0  0  0  0  0  0  0
   13.2408   -3.1243   25.5185 H   0  0  0  0  0  0  0  0  0  0  0  0
   11.0536   -3.1028   24.8864 H   0  0  0  0  0  0  0  0  0  0  0  0
   11.1813   -4.7378   24.0757 H   0  0  0  0  0  0  0  0  0  0  0  0
   11.5918   -5.0424   26.8990 H   0  0  0  0  0  0  0  0  0  0  0  0
   10.0541   -4.1080   26.5776 H   0  0  0  0  0  0  0  0  0  0  0  0
    9.5193   -6.4413   26.7308 H   0  0  0  0  0  0  0  0  0  0  0  0
    9.3808   -5.8757   24.9967 H   0  0  0  0  0  0  0  0  0  0  0  0
   11.8712   -6.8025   24.8952 H   0  0  0  0  0  0  0  0  0  0  0  0
   11.2494   -7.8428   26.2445 H   0  0  0  0  0  0  0  0  0  0  0  0
    9.6208   -8.7622   26.9084 H   0  0  0  0  0  0  0  0  0  0  0  0
    8.7263  -10.2597   26.4795 H   0  0  0  0  0  0  0  0  0  0  0  0
   10.5226  -10.2554   26.4795 H   0  0  0  0  0  0  0  0  0  0  0  0
    8.4010  -10.9413   24.2872 H   0  0  0  0  0  0  0  0  0  0  0  0
    8.8490  -11.2340   21.1190 H   0  0  0  0  0  0  0  0  0  0  0  0
    7.4520  -10.3190   21.1890 H   0  0  0  0  0  0  0  0  0  0  0  0
    9.2803   -9.0555   19.9883 H   0  0  0  0  0  0  0  0  0  0  0  0
   10.6704   -7.1774   19.1563 H   0  0  0  0  0  0  0  0  0  0  0  0
   11.8924   -5.7316   20.7698 H   0  0  0  0  0  0  0  0  0  0  0  0
   11.7291   -6.1750   23.2045 H   0  0  0  0  0  0  0  0  0  0  0  0
  1  2  1  0
  2  3  2  0
  3  4  1  0
  4  5  1  0
  4  6  2  0
  6  7  1  0
  7  8  2  0
  8  9  1  0
  9 10  2  0
 10 11  1  0
 11 12  2  0
 12 13  1  0
 13 14  1  0
 14 15  1  0
 15 16  1  0
 16 17  1  0
 17 18  1  0
 18 19  1  0
 19 20  1  0
 20 21  1  0
 21 22  1  0
 22 23  1  0
 23 24  2  0
 24 25  1  0
 24 26  1  0
 26 27  2  0
 27 28  1  0
 27 29  1  0
 29 30  2  0
 30 31  1  0
 31 32  2  0
 32 33  1  0
 33 34  2  0
 12  2  1  0
 34 23  1  0
 11  6  1  0
 34 29  1  0
  1 35  1  0
  1 36  1  0
  1 37  1  0
  3 38  1  0
  5 39  1  0
  5 40  1  0
  7 41  1  0
  8 42  1  0
  9 43  1  0
 10 44  1  0
 13 45  1  0
 13 46  1  0
 14 47  1  0
 14 48  1  0
 15 49  1  0
 15 50  1  0
 16 51  1  0
 16 52  1  0
 17 53  1  0
 17 54  1  0
 18 55  1  0
 18 56  1  0
 19 57  1  0
 19 58  1  0
 20 59  1  0
 20 60  1  0
 21 61  1  0
 21 62  1  0
 22 63  1  0
 22 64  1  0
 25 65  1  0
 25 66  1  0
 25 67  1  0
 26 68  1  0
 28 69  1  0
 28 70  1  0
 30 71  1  0
 31 72  1  0
 32 73  1  0
 33 74  1  0
M  CHG  2  12   1  23   1
M  END
>  <meeko>  (3) 
{"is_sidechain": [false], "free_energy": -9.961, "intermolecular_energy": -15.603, "internal_energy": -2.635}

$$$$
3arp_ligand
     RDKit          3D

 74 77  0  0  0  0  0  0  0  0999 V2000
   14.8810  -13.4240   16.9150 C   0  0  0  0  0  0  0  0  0  0  0  0
   16.0730  -12.9880   17.7290 C   0  0  0  0  0  0  0  0  0  0  0  0
   17.2710  -13.6840   17.5540 C   0  0  0  0  0  0  0  0  0  0  0  0
   18.4020  -13.3760   18.2940 C   0  0  0  0  0  0  0  0  0  0  0  0
   19.5900  -14.0490   17.9790 N   0  0  0  0  0  0  0  0  0  0  0  0
   18.3520  -12.2650   19.1530 C   0  0  0  0  0  0  0  0  0  0  0  0
   19.4960  -11.8110   19.8520 C   0  0  0  0  0  0  0  0  0  0  0  0
   19.4460  -10.7240   20.7220 C   0  0  0  0  0  0  0  0  0  0  0  0
   18.2510  -10.0560   20.9150 C   0  0  0  0  0  0  0  0  0  0  0  0
   17.1070  -10.4700   20.2290 C   0  0  0  0  0  0  0  0  0  0  0  0
   17.1220  -11.5680   19.3360 C   0  0  0  0  0  0  0  0  0  0  0  0
   16.0000  -11.9670   18.6370 N   0  0  0  0  0  0  0  0  0  0  0  0
   14.6830  -11.2910   18.8700 C   0  0  0  0  0  0  0  0  0  0  0  0
   14.0590  -11.7930   20.1720 C   0  0  0  0  0  0  0  0  0  0  0  0
   12.8920  -10.9260   20.6510 C   0  0  0  0  0  0  0  0  0  0  0  0
   13.1230  -10.1440   21.9500 C   0  0  0  0  0  0  0  0  0  0  0  0
   14.0790   -8.9590   21.7800 C   0  0  0  0  0  0  0  0  0  0  0  0
   15.1170   -8.8350   22.9070 C   0  0  0  0  0  0  0  0  0  0  0  0
   14.6390   -7.9650   24.0760 C   0  0  0  0  0  0  0  0  0  0  0  0
   13.1570   -8.1600   24.4300 C   0  0  0  0  0  0  0  0  0  0  0  0
   12.5900   -7.0530   25.3230 C   0  0  0  0  0  0  0  0  0  0  0  0
   11.1470   -6.6620   24.9820 C   0  0  0  0  0  0  0  0  0  0  0  0
   10.4400   -7.7470   24.2230 N   0  0  0  0  0  0  0  0  0  0  0  0
    9.8680   -8.7850   24.9080 C   0  0  0  0  0  0  0  0  0  0  0  0
   10.0070   -8.9400   26.4010 C   0  0  0  0  0  0  0  0  0  0  0  0
    9.1520   -9.7670   24.2180 C   0  0  0  0  0  0  0  0  0  0  0  0
    8.9880   -9.7160   22.8440 C   0  0  0  0  0  0  0  0  0  0  0  0
    8.3390  -10.7890   22.2220 N   0  0  0  0  0  0  0  0  0  0  0  0
    9.6820   -8.7220   22.1310 C   0  0  0  0  0  0  0  0  0  0  0  0
    9.6870   -8.6870   20.7170 C   0  0  0  0  0  0  0  0  0  0  0  0
   10.3680   -7.7020   20.0050 C   0  0  0  0  0  0  0  0  0  0  0  0
   11.0700   -6.7270   20.6880 C   0  0  0  0  0  0  0  0  0  0  0  0
   11.0930   -6.7390   22.0850 C   0  0  0  0  0  0  0  0  0  0  0  0
   10.4090   -7.7210   22.8410 C   0  0  0  0  0  0  0  0  0  0  0  0
   14.0653  -13.7223   17.5900 H   0  0  0  0  0  0  0  0  0  0  0  0
   14.5455  -12.5904   16.2806 H   0  0  0  0  0  0  0  0  0  0  0  0
   15.1626  -14.2774   16.2806 H   0  0  0  0  0  0  0  0  0  0  0  0
   17.3182  -14.4949   16.8122 H   0  0  0  0  0  0  0  0  0  0  0  0
   20.2260  -14.2300   18.7520 H   0  0  0  0  0  0  0  0  0  0  0  0
   20.1040  -13.7070   17.1720 H   0  0  0  0  0  0  0  0  0  0  0  0
   20.4533  -12.3321   19.7039 H   0  0  0  0  0  0  0  0  0  0  0  0
   20.3529  -10.3988   21.2528 H   0  0  0  0  0  0  0  0  0  0  0  0
   18.2014   -9.2017   21.6062 H   0  0  0  0  0  0  0  0  0  0  0  0
   16.1645   -9.9255   20.3878 H   0  0  0  0  0  0  0  0  0  0  0  0
   14.8385  -10.2041   18.9363 H   0  0  0  0  0  0  0  0  0  0  0  0
   14.0066  -11.5216   18.0338 H   0  0  0  0  0  0  0  0  0  0  0  0
   13.6917  -12.8175   20.0121 H   0  0  0  0  0  0  0  0  0  0  0  0
   14.8385  -11.7516   20.9470 H   0  0  0  0  0  0  0  0  0  0  0  0
   12.6646  -10.1995   19.8570 H   0  0  0  0  0  0  0  0  0  0  0  0
   12.0725  -11.6267   20.8689 H   0  0  0  0  0  0  0  0  0  0  0  0
   12.1542   -9.7632   22.3057 H   0  0  0  0  0  0  0  0  0  0  0  0
   13.5850  -10.8357   22.6698 H   0  0  0  0  0  0  0  0  0  0  0  0
   14.6144   -9.0789   20.8266 H   0  0  0  0  0  0  0  0  0  0  0  0
   13.4663   -8.0458   21.8058 H   0  0  0  0  0  0  0  0  0  0  0  0
   15.3400   -9.8421   23.2891 H   0  0  0  0  0  0  0  0  0  0  0  0
   16.0064   -8.3485   22.4800 H   0  0  0  0  0  0  0  0  0  0  0  0
   15.2424   -8.2127   24.9617 H   0  0  0  0  0  0  0  0  0  0  0  0
   14.7582   -6.9168   23.7643 H   0  0  0  0  0  0  0  0  0  0  0  0
   12.5766   -8.1850   23.4959 H   0  0  0  0  0  0  0  0  0  0  0  0
   13.0810   -9.1010   24.9946 H   0  0  0  0  0  0  0  0  0  0  0  0
   12.6180   -7.4004   26.3663 H   0  0  0  0  0  0  0  0  0  0  0  0
   13.2112   -6.1599   25.1602 H   0  0  0  0  0  0  0  0  0  0  0  0
   10.6006   -6.4671   25.9166 H   0  0  0  0  0  0  0  0  0  0  0  0
   11.1770   -5.7643   24.3470 H   0  0  0  0  0  0  0  0  0  0  0  0
    9.3550   -8.2130   26.9074 H   0  0  0  0  0  0  0  0  0  0  0  0
    9.7150   -9.9597   26.6925 H   0  0  0  0  0  0  0  0  0  0  0  0
   11.0523   -8.7604   26.6925 H   0  0  0  0  0  0  0  0  0  0  0  0
    8.7076  -10.6013   24.7805 H   0  0  0  0  0  0  0  0  0  0  0  0
    8.9200  -11.4260   21.6850 H   0  0  0  0  0  0  0  0  0  0  0  0
    7.4850  -10.5710   21.7140 H   0  0  0  0  0  0  0  0  0  0  0  0
    9.1363   -9.4612   20.1625 H   0  0  0  0  0  0  0  0  0  0  0  0
   10.3471   -7.7003   18.9052 H   0  0  0  0  0  0  0  0  0  0  0  0
   11.6087   -5.9443   20.1338 H   0  0  0  0  0  0  0  0  0  0  0  0
   11.6611   -5.9600   22.6145 H   0  0  0  0  0  0  0  0  0  0  0  0
  1  2  1  0
  2  3  2  0
  3  4  1  0
  4  5  1  0
  4  6  2  0
  6  7  1  0
  7  8  2  0
  8  9  1  0
  9 10  2  0
 10 11  1  0
 11 12  2  0
 12 13  1  0
 13 14  1  0
 14 15  1  0
 15 16  1  0
 16 17  1  0
 17 18  1  0
 18 19  1  0
 19 20  1  0
 20 21  1  0
 21 22  1  0
 22 23  1  0
 23 24  2  0
 24 25  1  0
 24 26  1  0
 26 27  2  0
 27 28  1  0
 27 29  1  0
 29 30  2  0
 30 31  1  0
 31 32  2  0
 32 33  1  0
 33 34  2  0
 12  2  1  0
 34 23  1  0
 11  6  1  0
 34 29  1  0
  1 35  1  0
  1 36  1  0
  1 37  1  0
  3 38  1  0
  5 39  1  0
  5 40  1  0
  7 41  1  0
  8 42  1  0
  9 43  1  0
 10 44  1  0
 13 45  1  0
 13 46  1  0
 14 47  1  0
 14 48  1  0
 15 49  1  0
 15 50  1  0
 16 51  1  0
 16 52  1  0
 17 53  1  0
 17 54  1  0
 18 55  1  0
 18 56  1  0
 19 57  1  0
 19 58  1  0
 20 59  1  0
 20 60  1  0
 21 61  1  0
 21 62  1  0
 22 63  1  0
 22 64  1  0
 25 65  1  0
 25 66  1  0
 25 67  1  0
 26 68  1  0
 28 69  1  0
 28 70  1  0
 30 71  1  0
 31 72  1  0
 32 73  1  0
 33 74  1  0
M  CHG  2  12   1  23   1
M  END
>  <meeko>  (4) 
{"is_sidechain": [false], "free_energy": -9.919, "intermolecular_energy": -16.446, "internal_energy": -1.72}

$$$$
3arp_ligand
     RDKit          3D

 74 77  0  0  0  0  0  0  0  0999 V2000
   10.0070   -8.9360   26.2970 C   0  0  0  0  0  0  0  0  0  0  0  0
    9.9680   -8.8030   24.7950 C   0  0  0  0  0  0  0  0  0  0  0  0
    9.2000   -9.7240   24.0800 C   0  0  0  0  0  0  0  0  0  0  0  0
    9.1450   -9.7010   22.6950 C   0  0  0  0  0  0  0  0  0  0  0  0
    8.2650  -10.5880   22.0620 N   0  0  0  0  0  0  0  0  0  0  0  0
    9.7960   -8.6520   22.0220 C   0  0  0  0  0  0  0  0  0  0  0  0
    9.6890   -8.4860   20.6200 C   0  0  0  0  0  0  0  0  0  0  0  0
   10.3510   -7.4620   19.9460 C   0  0  0  0  0  0  0  0  0  0  0  0
   11.1350   -6.5710   20.6550 C   0  0  0  0  0  0  0  0  0  0  0  0
   11.2490   -6.6980   22.0400 C   0  0  0  0  0  0  0  0  0  0  0  0
   10.5890   -7.7250   22.7580 C   0  0  0  0  0  0  0  0  0  0  0  0
   10.6790   -7.8420   24.1310 N   0  0  0  0  0  0  0  0  0  0  0  0
   11.5650   -6.9200   24.9120 C   0  0  0  0  0  0  0  0  0  0  0  0
   10.7800   -5.6820   25.3470 C   0  0  0  0  0  0  0  0  0  0  0  0
   11.6360   -4.4140   25.3890 C   0  0  0  0  0  0  0  0  0  0  0  0
   12.0710   -3.8500   24.0310 C   0  0  0  0  0  0  0  0  0  0  0  0
   13.5780   -3.5860   23.9420 C   0  0  0  0  0  0  0  0  0  0  0  0
   14.4400   -4.8280   24.2180 C   0  0  0  0  0  0  0  0  0  0  0  0
   15.9000   -4.6610   23.7750 C   0  0  0  0  0  0  0  0  0  0  0  0
   16.8500   -5.7170   24.3570 C   0  0  0  0  0  0  0  0  0  0  0  0
   17.2930   -6.7710   23.3390 C   0  0  0  0  0  0  0  0  0  0  0  0
   16.7740   -8.1830   23.6440 C   0  0  0  0  0  0  0  0  0  0  0  0
   16.7330   -9.0380   22.4110 N   0  0  0  0  0  0  0  0  0  0  0  0
   15.5270   -9.3260   21.8310 C   0  0  0  0  0  0  0  0  0  0  0  0
   14.2160   -8.9000   22.4430 C   0  0  0  0  0  0  0  0  0  0  0  0
   15.4780  -10.0660   20.6480 C   0  0  0  0  0  0  0  0  0  0  0  0
   16.6320  -10.5150   20.0250 C   0  0  0  0  0  0  0  0  0  0  0  0
   16.4890  -11.3310   18.8960 N   0  0  0  0  0  0  0  0  0  0  0  0
   17.8570  -10.3280   20.6880 C   0  0  0  0  0  0  0  0  0  0  0  0
   19.0620  -10.8810   20.1940 C   0  0  0  0  0  0  0  0  0  0  0  0
   20.2810  -10.6960   20.8420 C   0  0  0  0  0  0  0  0  0  0  0  0
   20.3280   -9.9570   22.0090 C   0  0  0  0  0  0  0  0  0  0  0  0
   19.1550   -9.4060   22.5290 C   0  0  0  0  0  0  0  0  0  0  0  0
   17.9000   -9.5690   21.8940 C   0  0  0  0  0  0  0  0  0  0  0  0
    9.7259   -7.9774   26.7574 H   0  0  0  0  0  0  0  0  0  0  0  0
    9.2999   -9.7165   26.6145 H   0  0  0  0  0  0  0  0  0  0  0  0
   11.0236   -9.2111   26.6145 H   0  0  0  0  0  0  0  0  0  0  0  0
    8.6255  -10.4852   24.6281 H   0  0  0  0  0  0  0  0  0  0  0  0
    7.8710  -11.3250   22.6400 H   0  0  0  0  0  0  0  0  0  0  0  0
    8.5680  -10.9650   21.1680 H   0  0  0  0  0  0  0  0  0  0  0  0
    9.0646   -9.1863   20.0458 H   0  0  0  0  0  0  0  0  0  0  0  0
   10.2504   -7.3630   18.8551 H   0  0  0  0  0  0  0  0  0  0  0  0
   11.6672   -5.7646   20.1291 H   0  0  0  0  0  0  0  0  0  0  0  0
   11.8711   -5.9777   22.5915 H   0  0  0  0  0  0  0  0  0  0  0  0
   11.9409   -7.4443   25.8030 H   0  0  0  0  0  0  0  0  0  0  0  0
   12.4083   -6.6079   24.2784 H   0  0  0  0  0  0  0  0  0  0  0  0
    9.9541   -5.5238   24.6378 H   0  0  0  0  0  0  0  0  0  0  0  0
   10.4154   -5.8663   26.3683 H   0  0  0  0  0  0  0  0  0  0  0  0
   11.0577   -3.6348   25.9072 H   0  0  0  0  0  0  0  0  0  0  0  0
   12.5658   -4.7013   25.9018 H   0  0  0  0  0  0  0  0  0  0  0  0
   11.7957   -4.5720   23.2481 H   0  0  0  0  0  0  0  0  0  0  0  0
   11.5615   -2.8840   23.8997 H   0  0  0  0  0  0  0  0  0  0  0  0
   13.8076   -3.2219   22.9297 H   0  0  0  0  0  0  0  0  0  0  0  0
   13.8213   -2.8466   24.7192 H   0  0  0  0  0  0  0  0  0  0  0  0
   14.4237   -5.0318   25.2988 H   0  0  0  0  0  0  0  0  0  0  0  0
   14.0142   -5.6577   23.6347 H   0  0  0  0  0  0  0  0  0  0  0  0
   15.9389   -4.7270   22.6777 H   0  0  0  0  0  0  0  0  0  0  0  0
   16.2386   -3.6843   24.1510 H   0  0  0  0  0  0  0  0  0  0  0  0
   17.7454   -5.2057   24.7401 H   0  0  0  0  0  0  0  0  0  0  0  0
   16.2986   -6.2453   25.1488 H   0  0  0  0  0  0  0  0  0  0  0  0
   16.9231   -6.4722   22.3471 H   0  0  0  0  0  0  0  0  0  0  0  0
   18.3912   -6.8168   23.3824 H   0  0  0  0  0  0  0  0  0  0  0  0
   17.4381   -8.6549   24.3831 H   0  0  0  0  0  0  0  0  0  0  0  0
   15.7493   -8.0947   24.0342 H   0  0  0  0  0  0  0  0  0  0  0  0
   14.2975   -8.9265   23.5397 H   0  0  0  0  0  0  0  0  0  0  0  0
   13.9747   -7.8772   22.1178 H   0  0  0  0  0  0  0  0  0  0  0  0
   13.4196   -9.5856   22.1178 H   0  0  0  0  0  0  0  0  0  0  0  0
   14.5006  -10.2982   20.1998 H   0  0  0  0  0  0  0  0  0  0  0  0
   15.6140  -11.2560   18.3850 H   0  0  0  0  0  0  0  0  0  0  0  0
   16.7570  -12.3060   19.0030 H   0  0  0  0  0  0  0  0  0  0  0  0
   19.0353  -11.4758   19.2690 H   0  0  0  0  0  0  0  0  0  0  0  0
   21.2004  -11.1353   20.4276 H   0  0  0  0  0  0  0  0  0  0  0  0
   21.2864   -9.8034   22.5265 H   0  0  0  0  0  0  0  0  0  0  0  0
   19.2077   -8.8264   23.4624 H   0  0  0  0  0  0  0  0  0  0  0  0
  1  2  1  0
  2  3  2  0
  3  4  1  0
  4  5  1  0
  4  6  2  0
  6  7  1  0
  7  8  2  0
  8  9  1  0
  9 10  2  0
 10 11  1  0
 11 12  2  0
 12 13  1  0
 13 14  1  0
 14 15  1  0
 15 16  1  0
 16 17  1  0
 17 18  1  0
 18 19  1  0
 19 20  1  0
 20 21  1  0
 21 22  1  0
 22 23  1  0
 23 24  2  0
 24 25  1  0
 24 26  1  0
 26 27  2  0
 27 28  1  0
 27 29  1  0
 29 30  2  0
 30 31  1  0
 31 32  2  0
 32 33  1  0
 33 34  2  0
 12  2  1  0
 34 23  1  0
 11  6  1  0
 34 29  1  0
  1 35  1  0
  1 36  1  0
  1 37  1  0
  3 38  1  0
  5 39  1  0
  5 40  1  0
  7 41  1  0
  8 42  1  0
  9 43  1  0
 10 44  1  0
 13 45  1  0
 13 46  1  0
 14 47  1  0
 14 48  1  0
 15 49  1  0
 15 50  1  0
 16 51  1  0
 16 52  1  0
 17 53  1  0
 17 54  1  0
 18 55  1  0
 18 56  1  0
 19 57  1  0
 19 58  1  0
 20 59  1  0
 20 60  1  0
 21 61  1  0
 21 62  1  0
 22 63  1  0
 22 64  1  0
 25 65  1  0
 25 66  1  0
 25 67  1  0
 26 68  1  0
 28 69  1  0
 28 70  1  0
 30 71  1  0
 31 72  1  0
 32 73  1  0
 33 74  1  0
M  CHG  2  12   1  23   1
M  END
>  <meeko>  (5) 
{"is_sidechain": [false], "free_energy": -9.868, "intermolecular_energy": -16.308, "internal_energy": -1.771}

$$$$
3arp_ligand
     RDKit          3D

 74 77  0  0  0  0  0  0  0  0999 V2000
    8.6660   -2.0950   32.8700 C   0  0  0  0  0  0  0  0  0  0  0  0
    8.6340   -3.5770   32.5900 C   0  0  0  0  0  0  0  0  0  0  0  0
    8.0070   -4.4030   33.5250 C   0  0  0  0  0  0  0  0  0  0  0  0
    7.9720   -5.7790   33.3670 C   0  0  0  0  0  0  0  0  0  0  0  0
    7.2300   -6.5240   34.2920 N   0  0  0  0  0  0  0  0  0  0  0  0
    8.4870   -6.3250   32.1780 C   0  0  0  0  0  0  0  0  0  0  0  0
    8.3820   -7.7060   31.8840 C   0  0  0  0  0  0  0  0  0  0  0  0
    8.9110   -8.2540   30.7180 C   0  0  0  0  0  0  0  0  0  0  0  0
    9.5560   -7.4360   29.8080 C   0  0  0  0  0  0  0  0  0  0  0  0
    9.6640   -6.0680   30.0620 C   0  0  0  0  0  0  0  0  0  0  0  0
    9.1370   -5.4760   31.2350 C   0  0  0  0  0  0  0  0  0  0  0  0
    9.2200   -4.1190   31.4800 N   0  0  0  0  0  0  0  0  0  0  0  0
    9.9600   -3.2240   30.5340 C   0  0  0  0  0  0  0  0  0  0  0  0
   11.4100   -3.0620   30.9920 C   0  0  0  0  0  0  0  0  0  0  0  0
   12.4160   -3.1560   29.8410 C   0  0  0  0  0  0  0  0  0  0  0  0
   11.8430   -2.9780   28.4300 C   0  0  0  0  0  0  0  0  0  0  0  0
   11.9690   -4.2350   27.5640 C   0  0  0  0  0  0  0  0  0  0  0  0
   12.9310   -5.2870   28.1370 C   0  0  0  0  0  0  0  0  0  0  0  0
   12.5160   -6.7280   27.8110 C   0  0  0  0  0  0  0  0  0  0  0  0
   13.2710   -7.3370   26.6210 C   0  0  0  0  0  0  0  0  0  0  0  0
   12.3650   -8.0800   25.6360 C   0  0  0  0  0  0  0  0  0  0  0  0
   11.1180   -7.2880   25.2230 C   0  0  0  0  0  0  0  0  0  0  0  0
   10.9780   -7.2090   23.7310 N   0  0  0  0  0  0  0  0  0  0  0  0
   11.5730   -6.1800   23.0520 C   0  0  0  0  0  0  0  0  0  0  0  0
   12.2850   -5.0530   23.7570 C   0  0  0  0  0  0  0  0  0  0  0  0
   11.5050   -6.1310   21.6570 C   0  0  0  0  0  0  0  0  0  0  0  0
   10.8560   -7.1130   20.9270 C   0  0  0  0  0  0  0  0  0  0  0  0
   10.7530   -6.9370   19.5420 N   0  0  0  0  0  0  0  0  0  0  0  0
   10.1390   -8.0970   21.6310 C   0  0  0  0  0  0  0  0  0  0  0  0
    9.3310   -9.0480   20.9660 C   0  0  0  0  0  0  0  0  0  0  0  0
    8.6230  -10.0290   21.6560 C   0  0  0  0  0  0  0  0  0  0  0  0
    8.6960  -10.0800   23.0360 C   0  0  0  0  0  0  0  0  0  0  0  0
    9.4770   -9.1490   23.7240 C   0  0  0  0  0  0  0  0  0  0  0  0
   10.2150   -8.1420   23.0540 C   0  0  0  0  0  0  0  0  0  0  0  0
    8.6696   -1.9272   33.9571 H   0  0  0  0  0  0  0  0  0  0  0  0
    9.5738   -1.6580   32.4285 H   0  0  0  0  0  0  0  0  0  0  0  0
    7.7779   -1.6192   32.4285 H   0  0  0  0  0  0  0  0  0  0  0  0
    7.5300   -3.9510   34.4071 H   0  0  0  0  0  0  0  0  0  0  0  0
    6.9760   -6.0500   35.1550 H   0  0  0  0  0  0  0  0  0  0  0  0
    7.5650   -7.4620   34.4910 H   0  0  0  0  0  0  0  0  0  0  0  0
    7.8672   -8.3658   32.5979 H   0  0  0  0  0  0  0  0  0  0  0  0
    8.8163   -9.3322   30.5217 H   0  0  0  0  0  0  0  0  0  0  0  0
    9.9821   -7.8621   28.8877 H   0  0  0  0  0  0  0  0  0  0  0  0
   10.1752   -5.4290   29.3269 H   0  0  0  0  0  0  0  0  0  0  0  0
    9.9435   -3.6657   29.5267 H   0  0  0  0  0  0  0  0  0  0  0  0
    9.4747   -2.2370   30.5170 H   0  0  0  0  0  0  0  0  0  0  0  0
   11.5179   -2.0783   31.4722 H   0  0  0  0  0  0  0  0  0  0  0  0
   11.6288   -3.8853   31.6879 H   0  0  0  0  0  0  0  0  0  0  0  0
   13.1776   -2.3774   29.9955 H   0  0  0  0  0  0  0  0  0  0  0  0
   12.8084   -4.1831   29.8738 H   0  0  0  0  0  0  0  0  0  0  0  0
   10.7776   -2.7180   28.5157 H   0  0  0  0  0  0  0  0  0  0  0  0
   12.4244   -2.1836   27.9392 H   0  0  0  0  0  0  0  0  0  0  0  0
   10.9728   -4.6915   27.4677 H   0  0  0  0  0  0  0  0  0  0  0  0
   12.3810   -3.9172   26.5949 H   0  0  0  0  0  0  0  0  0  0  0  0
   13.9328   -5.1088   27.7192 H   0  0  0  0  0  0  0  0  0  0  0  0
   12.9149   -5.1823   29.2319 H   0  0  0  0  0  0  0  0  0  0  0  0
   12.7045   -7.3519   28.6971 H   0  0  0  0  0  0  0  0  0  0  0  0
   11.4518   -6.6997   27.5341 H   0  0  0  0  0  0  0  0  0  0  0  0
   13.7808   -6.5258   26.0806 H   0  0  0  0  0  0  0  0  0  0  0  0
   13.9766   -8.0751   27.0301 H   0  0  0  0  0  0  0  0  0  0  0  0
   12.9481   -8.3055   24.7309 H   0  0  0  0  0  0  0  0  0  0  0  0
   12.0128   -8.9881   26.1472 H   0  0  0  0  0  0  0  0  0  0  0  0
   10.2279   -7.7829   25.6386 H   0  0  0  0  0  0  0  0  0  0  0  0
   11.2184   -6.2640   25.6121 H   0  0  0  0  0  0  0  0  0  0  0  0
   12.1992   -5.1889   24.8452 H   0  0  0  0  0  0  0  0  0  0  0  0
   13.3469   -5.0537   23.4700 H   0  0  0  0  0  0  0  0  0  0  0  0
   11.8283   -4.0943   23.4700 H   0  0  0  0  0  0  0  0  0  0  0  0
   11.9784   -5.2921   21.1258 H   0  0  0  0  0  0  0  0  0  0  0  0
   11.2330   -7.6160   18.9580 H   0  0  0  0  0  0  0  0  0  0  0  0
   10.9050   -5.9940   19.1910 H   0  0  0  0  0  0  0  0  0  0  0  0
    9.2594   -9.0118   19.8689 H   0  0  0  0  0  0  0  0  0  0  0  0
    8.0097  -10.7585   21.1068 H   0  0  0  0  0  0  0  0  0  0  0  0
    8.1408  -10.8513   23.5899 H   0  0  0  0  0  0  0  0  0  0  0  0
    9.5207   -9.1991   24.8220 H   0  0  0  0  0  0  0  0  0  0  0  0
  1  2  1  0
  2  3  2  0
  3  4  1  0
  4  5  1  0
  4  6  2  0
  6  7  1  0
  7  8  2  0
  8  9  1  0
  9 10  2  0
 10 11  1  0
 11 12  2  0
 12 13  1  0
 13 14  1  0
 14 15  1  0
 15 16  1  0
 16 17  1  0
 17 18  1  0
 18 19  1  0
 19 20  1  0
 20 21  1  0
 21 22  1  0
 22 23  1  0
 23 24  2  0
 24 25  1  0
 24 26  1  0
 26 27  2  0
 27 28  1  0
 27 29  1  0
 29 30  2  0
 30 31  1  0
 31 32  2  0
 32 33  1  0
 33 34  2  0
 12  2  1  0
 34 23  1  0
 11  6  1  0
 34 29  1  0
  1 35  1  0
  1 36  1  0
  1 37  1  0
  3 38  1  0
  5 39  1  0
  5 40  1  0
  7 41  1  0
  8 42  1  0
  9 43  1  0
 10 44  1  0
 13 45  1  0
 13 46  1  0
 14 47  1  0
 14 48  1  0
 15 49  1  0
 15 50  1  0
 16 51  1  0
 16 52  1  0
 17 53  1  0
 17 54  1  0
 18 55  1  0
 18 56  1  0
 19 57  1  0
 19 58  1  0
 20 59  1  0
 20 60  1  0
 21 61  1  0
 21 62  1  0
 22 63  1  0
 22 64  1  0
 25 65  1  0
 25 66  1  0
 25 67  1  0
 26 68  1  0
 28 69  1  0
 28 70  1  0
 30 71  1  0
 31 72  1  0
 32 73  1  0
 33 74  1  0
M  CHG  2  12   1  23   1
M  END
>  <meeko>  (6) 
{"is_sidechain": [false], "free_energy": -9.862, "intermolecular_energy": -16.117, "internal_energy": -1.952}

$$$$
3arp_ligand
     RDKit          3D

 74 77  0  0  0  0  0  0  0  0999 V2000
    9.6890   -9.1170   26.3230 C   0  0  0  0  0  0  0  0  0  0  0  0
    9.7230   -8.9930   24.8210 C   0  0  0  0  0  0  0  0  0  0  0  0
    9.0160   -9.9380   24.0740 C   0  0  0  0  0  0  0  0  0  0  0  0
    9.0320   -9.9230   22.6880 C   0  0  0  0  0  0  0  0  0  0  0  0
    8.2090  -10.8370   22.0170 N   0  0  0  0  0  0  0  0  0  0  0  0
    9.6880   -8.8620   22.0410 C   0  0  0  0  0  0  0  0  0  0  0  0
    9.6490   -8.7060   20.6350 C   0  0  0  0  0  0  0  0  0  0  0  0
   10.3170   -7.6690   19.9880 C   0  0  0  0  0  0  0  0  0  0  0  0
   11.0400   -6.7530   20.7300 C   0  0  0  0  0  0  0  0  0  0  0  0
   11.0870   -6.8700   22.1200 C   0  0  0  0  0  0  0  0  0  0  0  0
   10.4190   -7.9100   22.8100 C   0  0  0  0  0  0  0  0  0  0  0  0
   10.4420   -8.0170   24.1870 N   0  0  0  0  0  0  0  0  0  0  0  0
   11.2620   -7.0670   25.0060 C   0  0  0  0  0  0  0  0  0  0  0  0
   12.6230   -7.6870   25.3220 C   0  0  0  0  0  0  0  0  0  0  0  0
   13.6800   -7.3860   24.2560 C   0  0  0  0  0  0  0  0  0  0  0  0
   14.3300   -8.6040   23.5890 C   0  0  0  0  0  0  0  0  0  0  0  0
   13.8520   -8.8320   22.1510 C   0  0  0  0  0  0  0  0  0  0  0  0
   13.7180  -10.3150   21.7720 C   0  0  0  0  0  0  0  0  0  0  0  0
   13.1070  -10.5310   20.3810 C   0  0  0  0  0  0  0  0  0  0  0  0
   13.8150  -11.6130   19.5530 C   0  0  0  0  0  0  0  0  0  0  0  0
   15.3090  -11.7410   19.8620 C   0  0  0  0  0  0  0  0  0  0  0  0
   16.1740  -10.6670   19.1890 C   0  0  0  0  0  0  0  0  0  0  0  0
   17.6300  -10.8470   19.5050 N   0  0  0  0  0  0  0  0  0  0  0  0
   18.4120  -11.6010   18.6710 C   0  0  0  0  0  0  0  0  0  0  0  0
   17.8440  -12.3520   17.4930 C   0  0  0  0  0  0  0  0  0  0  0  0
   19.7820  -11.7230   18.9170 C   0  0  0  0  0  0  0  0  0  0  0  0
   20.3860  -11.0840   19.9880 C   0  0  0  0  0  0  0  0  0  0  0  0
   21.7440  -11.3370   20.2170 N   0  0  0  0  0  0  0  0  0  0  0  0
   19.5630  -10.4170   20.9110 C   0  0  0  0  0  0  0  0  0  0  0  0
   20.0820   -9.8630   22.1050 C   0  0  0  0  0  0  0  0  0  0  0  0
   19.2730   -9.1960   23.0230 C   0  0  0  0  0  0  0  0  0  0  0  0
   17.9190   -9.0700   22.7740 C   0  0  0  0  0  0  0  0  0  0  0  0
   17.3740   -9.6140   21.6090 C   0  0  0  0  0  0  0  0  0  0  0  0
   18.1660  -10.2940   20.6530 C   0  0  0  0  0  0  0  0  0  0  0  0
    9.9540   -8.1506   26.7768 H   0  0  0  0  0  0  0  0  0  0  0  0
    8.6779   -9.4079   26.6441 H   0  0  0  0  0  0  0  0  0  0  0  0
   10.4103   -9.8829   26.6441 H   0  0  0  0  0  0  0  0  0  0  0  0
    8.4338  -10.7110   24.5970 H   0  0  0  0  0  0  0  0  0  0  0  0
    7.2670  -10.5240   21.8000 H   0  0  0  0  0  0  0  0  0  0  0  0
    8.1900  -11.7840   22.3840 H   0  0  0  0  0  0  0  0  0  0  0  0
    9.0734   -9.4259   20.0346 H   0  0  0  0  0  0  0  0  0  0  0  0
   10.2697   -7.5792   18.8927 H   0  0  0  0  0  0  0  0  0  0  0  0
   11.5762   -5.9351   20.2265 H   0  0  0  0  0  0  0  0  0  0  0  0
   11.6613   -6.1307   22.6976 H   0  0  0  0  0  0  0  0  0  0  0  0
   11.4091   -6.1339   24.4424 H   0  0  0  0  0  0  0  0  0  0  0  0
   10.7348   -6.8556   25.9480 H   0  0  0  0  0  0  0  0  0  0  0  0
   12.9740   -7.2893   26.2857 H   0  0  0  0  0  0  0  0  0  0  0  0
   12.4881   -8.7783   25.3525 H   0  0  0  0  0  0  0  0  0  0  0  0
   13.2013   -6.7865   23.4677 H   0  0  0  0  0  0  0  0  0  0  0  0
   14.4942   -6.8685   24.7845 H   0  0  0  0  0  0  0  0  0  0  0  0
   15.4198   -8.4551   23.5756 H   0  0  0  0  0  0  0  0  0  0  0  0
   14.0409   -9.4898   24.1737 H   0  0  0  0  0  0  0  0  0  0  0  0
   12.8690   -8.3530   22.0318 H   0  0  0  0  0  0  0  0  0  0  0  0
   14.6138   -8.3982   21.4866 H   0  0  0  0  0  0  0  0  0  0  0  0
   14.7185  -10.7719   21.7891 H   0  0  0  0  0  0  0  0  0  0  0  0
   13.0391  -10.7789   22.5027 H   0  0  0  0  0  0  0  0  0  0  0  0
   12.0543  -10.8242   20.5066 H   0  0  0  0  0  0  0  0  0  0  0  0
   13.2185   -9.5842   19.8322 H   0  0  0  0  0  0  0  0  0  0  0  0
   13.3330  -12.5800   19.7594 H   0  0  0  0  0  0  0  0  0  0  0  0
   13.7279  -11.3195   18.4965 H   0  0  0  0  0  0  0  0  0  0  0  0
   15.4459  -11.6647   20.9508 H   0  0  0  0  0  0  0  0  0  0  0  0
   15.6368  -12.7127   19.4639 H   0  0  0  0  0  0  0  0  0  0  0  0
   16.0356  -10.7292   18.0995 H   0  0  0  0  0  0  0  0  0  0  0  0
   15.8595   -9.6848   19.5715 H   0  0  0  0  0  0  0  0  0  0  0  0
   17.2172  -13.1807   17.8541 H   0  0  0  0  0  0  0  0  0  0  0  0
   17.2339  -11.6698   16.8828 H   0  0  0  0  0  0  0  0  0  0  0  0
   18.6666  -12.7533   16.8828 H   0  0  0  0  0  0  0  0  0  0  0  0
   20.3955  -12.3408   18.2447 H   0  0  0  0  0  0  0  0  0  0  0  0
   21.9950  -11.6930   21.1340 H   0  0  0  0  0  0  0  0  0  0  0  0
   22.3960  -10.6120   19.9260 H   0  0  0  0  0  0  0  0  0  0  0  0
   21.1572   -9.9618   22.3151 H   0  0  0  0  0  0  0  0  0  0  0  0
   19.7090   -8.7725   23.9398 H   0  0  0  0  0  0  0  0  0  0  0  0
   17.2729   -8.5428   23.4914 H   0  0  0  0  0  0  0  0  0  0  0  0
   16.2939   -9.5107   21.4284 H   0  0  0  0  0  0  0  0  0  0  0  0
  1  2  1  0
  2  3  2  0
  3  4  1  0
  4  5  1  0
  4  6  2  0
  6  7  1  0
  7  8  2  0
  8  9  1  0
  9 10  2  0
 10 11  1  0
 11 12  2  0
 12 13  1  0
 13 14  1  0
 14 15  1  0
 15 16  1  0
 16 17  1  0
 17 18  1  0
 18 19  1  0
 19 20  1  0
 20 21  1  0
 21 22  1  0
 22 23  1  0
 23 24  2  0
 24 25  1  0
 24 26  1  0
 26 27  2  0
 27 28  1  0
 27 29  1  0
 29 30  2  0
 30 31  1  0
 31 32  2  0
 32 33  1  0
 33 34  2  0
 12  2  1  0
 34 23  1  0
 11  6  1  0
 34 29  1  0
  1 35  1  0
  1 36  1  0
  1 37  1  0
  3 38  1  0
  5 39  1  0
  5 40  1  0
  7 41  1  0
  8 42  1  0
  9 43  1  0
 10 44  1  0
 13 45  1  0
 13 46  1  0
 14 47  1  0
 14 48  1  0
 15 49  1  0
 15 50  1  0
 16 51  1  0
 16 52  1  0
 17 53  1  0
 17 54  1  0
 18 55  1  0
 18 56  1  0
 19 57  1  0
 19 58  1  0
 20 59  1  0
 20 60  1  0
 21 61  1  0
 21 62  1  0
 22 63  1  0
 22 64  1  0
 25 65  1  0
 25 66  1  0
 25 67  1  0
 26 68  1  0
 28 69  1  0
 28 70  1  0
 30 71  1  0
 31 72  1  0
 32 73  1  0
 33 74  1  0
M  CHG  2  12   1  23   1
M  END
>  <meeko>  (7) 
{"is_sidechain": [false], "free_energy": -9.851, "intermolecular_energy": -15.895, "internal_energy": -2.156}

$$$$
3arp_ligand
     RDKit          3D

 74 77  0  0  0  0  0  0  0  0999 V2000
    9.4370   -9.6340   26.2700 C   0  0  0  0  0  0  0  0  0  0  0  0
    9.5630   -9.3340   24.7980 C   0  0  0  0  0  0  0  0  0  0  0  0
    8.8980  -10.1760   23.9040 C   0  0  0  0  0  0  0  0  0  0  0  0
    8.9970   -9.9990   22.5320 C   0  0  0  0  0  0  0  0  0  0  0  0
    8.2120  -10.8180   21.7100 N   0  0  0  0  0  0  0  0  0  0  0  0
    9.6970   -8.8760   22.0560 C   0  0  0  0  0  0  0  0  0  0  0  0
    9.7430   -8.5560   20.6780 C   0  0  0  0  0  0  0  0  0  0  0  0
   10.4530   -7.4570   20.1990 C   0  0  0  0  0  0  0  0  0  0  0  0
   11.1340   -6.6430   21.0860 C   0  0  0  0  0  0  0  0  0  0  0  0
   11.0970   -6.9240   22.4530 C   0  0  0  0  0  0  0  0  0  0  0  0
   10.3830   -8.0300   22.9740 C   0  0  0  0  0  0  0  0  0  0  0  0
   10.3230   -8.2990   24.3280 N   0  0  0  0  0  0  0  0  0  0  0  0
   11.0960   -7.4610   25.3010 C   0  0  0  0  0  0  0  0  0  0  0  0
   12.4600   -8.0970   25.5720 C   0  0  0  0  0  0  0  0  0  0  0  0
   13.6290   -7.1560   25.2720 C   0  0  0  0  0  0  0  0  0  0  0  0
   14.4700   -7.4980   24.0360 C   0  0  0  0  0  0  0  0  0  0  0  0
   14.0030   -8.7710   23.3220 C   0  0  0  0  0  0  0  0  0  0  0  0
   14.2230   -8.7430   21.8010 C   0  0  0  0  0  0  0  0  0  0  0  0
   14.8180  -10.0460   21.2520 C   0  0  0  0  0  0  0  0  0  0  0  0
   13.7760  -10.9930   20.6380 C   0  0  0  0  0  0  0  0  0  0  0  0
   14.3780  -12.0350   19.6920 C   0  0  0  0  0  0  0  0  0  0  0  0
   15.1300  -11.4290   18.5000 C   0  0  0  0  0  0  0  0  0  0  0  0
   16.4260  -12.1380   18.2410 N   0  0  0  0  0  0  0  0  0  0  0  0
   16.4510  -13.2040   17.3810 C   0  0  0  0  0  0  0  0  0  0  0  0
   15.1980  -13.7660   16.7580 C   0  0  0  0  0  0  0  0  0  0  0  0
   17.6620  -13.8320   17.0800 C   0  0  0  0  0  0  0  0  0  0  0  0
   18.8600  -13.3950   17.6220 C   0  0  0  0  0  0  0  0  0  0  0  0
   20.0130  -14.1390   17.3430 N   0  0  0  0  0  0  0  0  0  0  0  0
   18.8160  -12.3850   18.5990 C   0  0  0  0  0  0  0  0  0  0  0  0
   19.9730  -11.9830   19.3050 C   0  0  0  0  0  0  0  0  0  0  0  0
   19.9380  -10.9790   20.2710 C   0  0  0  0  0  0  0  0  0  0  0  0
   18.7400  -10.3540   20.5630 C   0  0  0  0  0  0  0  0  0  0  0  0
   17.5770  -10.7350   19.8900 C   0  0  0  0  0  0  0  0  0  0  0  0
   17.5770  -11.7470   18.8990 C   0  0  0  0  0  0  0  0  0  0  0  0
    9.7985   -8.7733   26.8519 H   0  0  0  0  0  0  0  0  0  0  0  0
    8.3822   -9.8260   26.5161 H   0  0  0  0  0  0  0  0  0  0  0  0
   10.0384  -10.5216   26.5161 H   0  0  0  0  0  0  0  0  0  0  0  0
    8.2818  -10.9981   24.2969 H   0  0  0  0  0  0  0  0  0  0  0  0
    8.5500  -10.9650   20.7630 H   0  0  0  0  0  0  0  0  0  0  0  0
    7.2140  -10.6290   21.7040 H   0  0  0  0  0  0  0  0  0  0  0  0
    9.2020   -9.1941   19.9638 H   0  0  0  0  0  0  0  0  0  0  0  0
   10.4718   -7.2379   19.1212 H   0  0  0  0  0  0  0  0  0  0  0  0
   11.7027   -5.7773   20.7156 H   0  0  0  0  0  0  0  0  0  0  0  0
   11.6396   -6.2654   23.1471 H   0  0  0  0  0  0  0  0  0  0  0  0
   11.2405   -6.4548   24.8806 H   0  0  0  0  0  0  0  0  0  0  0  0
   10.5351   -7.3944   26.2449 H   0  0  0  0  0  0  0  0  0  0  0  0
   12.5069   -8.3874   26.6319 H   0  0  0  0  0  0  0  0  0  0  0  0
   12.5567   -8.9652   24.9036 H   0  0  0  0  0  0  0  0  0  0  0  0
   13.2190   -6.1451   25.1304 H   0  0  0  0  0  0  0  0  0  0  0  0
   14.3117   -7.2501   26.1293 H   0  0  0  0  0  0  0  0  0  0  0  0
   14.4094   -6.6580   23.3284 H   0  0  0  0  0  0  0  0  0  0  0  0
   15.4998   -7.6749   24.3798 H   0  0  0  0  0  0  0  0  0  0  0  0
   14.5576   -9.6254   23.7373 H   0  0  0  0  0  0  0  0  0  0  0  0
   12.9188   -8.8533   23.4883 H   0  0  0  0  0  0  0  0  0  0  0  0
   13.2540   -8.5674   21.3108 H   0  0  0  0  0  0  0  0  0  0  0  0
   14.9445   -7.9400   21.5900 H   0  0  0  0  0  0  0  0  0  0  0  0
   15.5547   -9.7909   20.4760 H   0  0  0  0  0  0  0  0  0  0  0  0
   15.2698  -10.5757   22.1036 H   0  0  0  0  0  0  0  0  0  0  0  0
   13.2615  -11.5206   21.4546 H   0  0  0  0  0  0  0  0  0  0  0  0
   13.0891  -10.3743   20.0418 H   0  0  0  0  0  0  0  0  0  0  0  0
   15.0807  -12.6582   20.2646 H   0  0  0  0  0  0  0  0  0  0  0  0
   13.5394  -12.6154   19.2798 H   0  0  0  0  0  0  0  0  0  0  0  0
   14.4970  -11.5051   17.6036 H   0  0  0  0  0  0  0  0  0  0  0  0
   15.3559  -10.3787   18.7361 H   0  0  0  0  0  0  0  0  0  0  0  0
   14.5024  -14.0780   17.5510 H   0  0  0  0  0  0  0  0  0  0  0  0
   14.7212  -12.9955   16.1343 H   0  0  0  0  0  0  0  0  0  0  0  0
   15.4564  -14.6345   16.1343 H   0  0  0  0  0  0  0  0  0  0  0  0
   17.6646  -14.6939   16.3965 H   0  0  0  0  0  0  0  0  0  0  0  0
   20.8710  -13.6150   17.1950 H   0  0  0  0  0  0  0  0  0  0  0  0
   19.9210  -14.8760   16.6480 H   0  0  0  0  0  0  0  0  0  0  0  0
   20.9304  -12.4779   19.0851 H   0  0  0  0  0  0  0  0  0  0  0  0
   20.8580  -10.6857   20.7979 H   0  0  0  0  0  0  0  0  0  0  0  0
   18.7028   -9.5594   21.3227 H   0  0  0  0  0  0  0  0  0  0  0  0
   16.6302  -10.2328   20.1376 H   0  0  0  0  0  0  0  0  0  0  0  0
  1  2  1  0
  2  3  2  0
  3  4  1  0
  4  5  1  0
  4  6  2  0
  6  7  1  0
  7  8  2  0
  8  9  1  0
  9 10  2  0
 10 11  1  0
 11 12  2  0
 12 13  1  0
 13 14  1  0
 14 15  1  0
 15 16  1  0
 16 17  1  0
 17 18  1  0
 18 19  1  0
 19 20  1  0
 20 21  1  0
 21 22  1  0
 22 23  1  0
 23 24  2  0
 24 25  1  0
 24 26  1  0
 26 27  2  0
 27 28  1  0
 27 29  1  0
 29 30  2  0
 30 31  1  0
 31 32  2  0
 32 33  1  0
 33 34  2  0
 12  2  1  0
 34 23  1  0
 11  6  1  0
 34 29  1  0
  1 35  1  0
  1 36  1  0
  1 37  1  0
  3 38  1  0
  5 39  1  0
  5 40  1  0
  7 41  1  0
  8 42  1  0
  9 43  1  0
 10 44  1  0
 13 45  1  0
 13 46  1  0
 14 47  1  0
 14 48  1  0
 15 49  1  0
 15 50  1  0
 16 51  1  0
 16 52  1  0
 17 53  1  0
 17 54  1  0
 18 55  1  0
 18 56  1  0
 19 57  1  0
 19 58  1  0
 20 59  1  0
 20 60  1  0
 21 61  1  0
 21 62  1  0
 22 63  1  0
 22 64  1  0
 25 65  1  0
 25 66  1  0
 25 67  1  0
 26 68  1  0
 28 69  1  0
 28 70  1  0
 30 71  1  0
 31 72  1  0
 32 73  1  0
 33 74  1  0
M  CHG  2  12   1  23   1
M  END
>  <meeko>  (8) 
{"is_sidechain": [false], "free_energy": -9.829, "intermolecular_energy": -16.431, "internal_energy": -1.582}

$$$$
3arp_ligand
     RDKit          3D

 74 77  0  0  0  0  0  0  0  0999 V2000
    9.5370   -8.3030   26.9120 C   0  0  0  0  0  0  0  0  0  0  0  0
    9.7180   -8.3660   25.4160 C   0  0  0  0  0  0  0  0  0  0  0  0
    9.1820   -9.4650   24.7420 C   0  0  0  0  0  0  0  0  0  0  0  0
    9.3410   -9.6240   23.3740 C   0  0  0  0  0  0  0  0  0  0  0  0
    8.6790  -10.6950   22.7600 N   0  0  0  0  0  0  0  0  0  0  0  0
    9.9630   -8.5900   22.6530 C   0  0  0  0  0  0  0  0  0  0  0  0
   10.0580   -8.6170   21.2410 C   0  0  0  0  0  0  0  0  0  0  0  0
   10.6930   -7.6060   20.5240 C   0  0  0  0  0  0  0  0  0  0  0  0
   11.2480   -6.5340   21.1990 C   0  0  0  0  0  0  0  0  0  0  0  0
   11.1590   -6.4700   22.5900 C   0  0  0  0  0  0  0  0  0  0  0  0
   10.5190   -7.4780   23.3500 C   0  0  0  0  0  0  0  0  0  0  0  0
   10.4070   -7.4080   24.7250 N   0  0  0  0  0  0  0  0  0  0  0  0
   11.0470   -6.2830   25.4800 C   0  0  0  0  0  0  0  0  0  0  0  0
   12.3030   -6.7800   26.1970 C   0  0  0  0  0  0  0  0  0  0  0  0
   13.1640   -7.7000   25.3280 C   0  0  0  0  0  0  0  0  0  0  0  0
   14.3680   -7.0450   24.6400 C   0  0  0  0  0  0  0  0  0  0  0  0
   14.7110   -7.6810   23.2890 C   0  0  0  0  0  0  0  0  0  0  0  0
   13.8010   -8.8610   22.9120 C   0  0  0  0  0  0  0  0  0  0  0  0
   14.2710   -9.6100   21.6580 C   0  0  0  0  0  0  0  0  0  0  0  0
   13.3200  -10.7310   21.2120 C   0  0  0  0  0  0  0  0  0  0  0  0
   13.9670  -11.7390   20.2580 C   0  0  0  0  0  0  0  0  0  0  0  0
   14.6770  -11.0920   19.0620 C   0  0  0  0  0  0  0  0  0  0  0  0
   15.8660  -11.8940   18.6210 N   0  0  0  0  0  0  0  0  0  0  0  0
   17.0980  -11.6190   19.1500 C   0  0  0  0  0  0  0  0  0  0  0  0
   17.3320  -10.4640   20.0910 C   0  0  0  0  0  0  0  0  0  0  0  0
   18.2020  -12.4000   18.7970 C   0  0  0  0  0  0  0  0  0  0  0  0
   18.0840  -13.4690   17.9240 C   0  0  0  0  0  0  0  0  0  0  0  0
   19.2550  -14.1390   17.5500 N   0  0  0  0  0  0  0  0  0  0  0  0
   16.8480  -13.6700   17.2860 C   0  0  0  0  0  0  0  0  0  0  0  0
   16.6820  -14.6450   16.2750 C   0  0  0  0  0  0  0  0  0  0  0  0
   15.4590  -14.8540   15.6420 C   0  0  0  0  0  0  0  0  0  0  0  0
   14.3660  -14.0850   15.9980 C   0  0  0  0  0  0  0  0  0  0  0  0
   14.4990  -13.1060   16.9850 C   0  0  0  0  0  0  0  0  0  0  0  0
   15.7250  -12.8710   17.6530 C   0  0  0  0  0  0  0  0  0  0  0  0
   10.4645   -8.6258   27.4075 H   0  0  0  0  0  0  0  0  0  0  0  0
    9.3025   -7.2704   27.2098 H   0  0  0  0  0  0  0  0  0  0  0  0
    8.7120   -8.9668   27.2098 H   0  0  0  0  0  0  0  0  0  0  0  0
    8.6207  -10.2220   25.3094 H   0  0  0  0  0  0  0  0  0  0  0  0
    7.6640  -10.6470   22.7360 H   0  0  0  0  0  0  0  0  0  0  0  0
    8.9820  -11.6280   23.0280 H   0  0  0  0  0  0  0  0  0  0  0  0
    9.6167   -9.4626   20.6931 H   0  0  0  0  0  0  0  0  0  0  0  0
   10.7528   -7.6597   19.4269 H   0  0  0  0  0  0  0  0  0  0  0  0
   11.7578   -5.7346   20.6412 H   0  0  0  0  0  0  0  0  0  0  0  0
   11.6004   -5.6086   23.1127 H   0  0  0  0  0  0  0  0  0  0  0  0
   11.3218   -5.4828   24.7771 H   0  0  0  0  0  0  0  0  0  0  0  0
   10.3352   -5.8980   26.2251 H   0  0  0  0  0  0  0  0  0  0  0  0
   12.9070   -5.9087   26.4902 H   0  0  0  0  0  0  0  0  0  0  0  0
   11.9742   -7.3644   27.0690 H   0  0  0  0  0  0  0  0  0  0  0  0
   13.5426   -8.5101   25.9686 H   0  0  0  0  0  0  0  0  0  0  0  0
   12.5063   -8.0385   24.5139 H   0  0  0  0  0  0  0  0  0  0  0  0
   14.1417   -5.9808   24.4780 H   0  0  0  0  0  0  0  0  0  0  0  0
   15.2377   -7.1871   25.2983 H   0  0  0  0  0  0  0  0  0  0  0  0
   14.6207   -6.9101   22.5095 H   0  0  0  0  0  0  0  0  0  0  0  0
   15.7337   -8.0776   23.3711 H   0  0  0  0  0  0  0  0  0  0  0  0
   13.7789   -9.5684   23.7541 H   0  0  0  0  0  0  0  0  0  0  0  0
   12.8051   -8.4487   22.6925 H   0  0  0  0  0  0  0  0  0  0  0  0
   14.3629   -8.8855   20.8354 H   0  0  0  0  0  0  0  0  0  0  0  0
   15.2305  -10.0854   21.9097 H   0  0  0  0  0  0  0  0  0  0  0  0
   12.9745  -11.2705   22.1062 H   0  0  0  0  0  0  0  0  0  0  0  0
   12.4926  -10.2544   20.6658 H   0  0  0  0  0  0  0  0  0  0  0  0
   14.7053  -12.3268   20.8231 H   0  0  0  0  0  0  0  0  0  0  0  0
   13.1561  -12.3609   19.8510 H   0  0  0  0  0  0  0  0  0  0  0  0
   13.9676  -11.0166   18.2247 H   0  0  0  0  0  0  0  0  0  0  0  0
   15.0304  -10.0971   19.3707 H   0  0  0  0  0  0  0  0  0  0  0  0
   17.2604  -10.8174   21.1302 H   0  0  0  0  0  0  0  0  0  0  0  0
   18.3334  -10.0444   19.9146 H   0  0  0  0  0  0  0  0  0  0  0  0
   16.5729   -9.6877   19.9146 H   0  0  0  0  0  0  0  0  0  0  0  0
   19.1877  -12.1602   19.2224 H   0  0  0  0  0  0  0  0  0  0  0  0
   19.3650  -15.0910   17.8870 H   0  0  0  0  0  0  0  0  0  0  0  0
   20.1260  -13.6220   17.6510 H   0  0  0  0  0  0  0  0  0  0  0  0
   17.5463  -15.2578   15.9792 H   0  0  0  0  0  0  0  0  0  0  0  0
   15.3631  -15.6257   14.8640 H   0  0  0  0  0  0  0  0  0  0  0  0
   13.3954  -14.2439   15.5055 H   0  0  0  0  0  0  0  0  0  0  0  0
   13.6225  -12.4975   17.2522 H   0  0  0  0  0  0  0  0  0  0  0  0
  1  2  1  0
  2  3  2  0
  3  4  1  0
  4  5  1  0
  4  6  2  0
  6  7  1  0
  7  8  2  0
  8  9  1  0
  9 10  2  0
 10 11  1  0
 11 12  2  0
 12 13  1  0
 13 14  1  0
 14 15  1  0
 15 16  1  0
 16 17  1  0
 17 18  1  0
 18 19  1  0
 19 20  1  0
 20 21  1  0
 21 22  1  0
 22 23  1  0
 23 24  2  0
 24 25  1  0
 24 26  1  0
 26 27  2  0
 27 28  1  0
 27 29  1  0
 29 30  2  0
 30 31  1  0
 31 32  2  0
 32 33  1  0
 33 34  2  0
 12  2  1  0
 34 23  1  0
 11  6  1  0
 34 29  1  0
  1 35  1  0
  1 36  1  0
  1 37  1  0
  3 38  1  0
  5 39  1  0
  5 40  1  0
  7 41  1  0
  8 42  1  0
  9 43  1  0
 10 44  1  0
 13 45  1  0
 13 46  1  0
 14 47  1  0
 14 48  1  0
 15 49  1  0
 15 50  1  0
 16 51  1  0
 16 52  1  0
 17 53  1  0
 17 54  1  0
 18 55  1  0
 18 56  1  0
 19 57  1  0
 19 58  1  0
 20 59  1  0
 20 60  1  0
 21 61  1  0
 21 62  1  0
 22 63  1  0
 22 64  1  0
 25 65  1  0
 25 66  1  0
 25 67  1  0
 26 68  1  0
 28 69  1  0
 28 70  1  0
 30 71  1  0
 31 72  1  0
 32 73  1  0
 33 74  1  0
M  CHG  2  12   1  23   1
M  END
>  <meeko>  (9) 
{"is_sidechain": [false], "free_energy": -9.696, "intermolecular_energy": -15.845, "internal_energy": -1.941}

$$$$
