1e66_ligand
     RDKit          3D

 41 44  0  0  0  0  0  0  0  0999 V2000
    4.6570   63.8400   64.1360 C   0  0  0  0  0  0  0  0  0  0  0  0
    3.3780   64.5790   64.4970 C   0  0  0  0  0  0  0  0  0  0  0  0
    3.3690   66.0080   64.0030 C   0  0  0  0  0  0  0  0  0  0  0  0
    4.2370   66.4400   63.0670 C   0  0  0  0  0  0  0  0  0  0  0  0
    4.2390   67.8520   62.5290 C   0  0  2  0  0  0  0  0  0  0  0  0
    5.3450   68.6720   63.2110 C   0  0  0  0  0  0  0  0  0  0  0  0
    4.9860   69.0910   64.6140 C   0  0  0  0  0  0  0  0  0  0  0  0
    5.9720   69.5820   65.3820 N   0  0  0  0  0  0  0  0  0  0  0  0
    5.7980   70.0100   66.6440 C   0  0  0  0  0  0  0  0  0  0  0  0
    6.9050   70.4660   67.3750 C   0  0  0  0  0  0  0  0  0  0  0  0
    6.7390   70.8920   68.6890 C   0  0  0  0  0  0  0  0  0  0  0  0
    8.0990   71.4460   69.5790 Cl  0  0  0  0  0  0  0  0  0  0  0  0
    5.4830   70.8700   69.2830 C   0  0  0  0  0  0  0  0  0  0  0  0
    4.3770   70.4200   68.5550 C   0  0  0  0  0  0  0  0  0  0  0  0
    4.5040   69.9850   67.2140 C   0  0  0  0  0  0  0  0  0  0  0  0
    3.4240   69.5330   66.4150 C   0  0  0  0  0  0  0  0  0  0  0  0
    2.1260   69.3970   66.9420 N   0  0  0  0  0  0  0  0  0  0  0  0
    3.6770   69.0350   65.1220 C   0  0  0  0  0  0  0  0  0  0  0  0
    2.5600   68.4310   64.2670 C   0  0  2  0  0  0  0  0  0  0  0  0
    2.3390   66.9390   64.6170 C   0  0  0  0  0  0  0  0  0  0  0  0
    2.8940   68.5450   62.7730 C   0  0  0  0  0  0  0  0  0  0  0  0
    5.1786   63.5386   65.0564 H   0  0  0  0  0  0  0  0  0  0  0  0
    4.4095   62.9457   63.5452 H   0  0  0  0  0  0  0  0  0  0  0  0
    5.3081   64.5011   63.5452 H   0  0  0  0  0  0  0  0  0  0  0  0
    2.5259   64.0467   64.0491 H   0  0  0  0  0  0  0  0  0  0  0  0
    3.3096   64.6070   65.5945 H   0  0  0  0  0  0  0  0  0  0  0  0
    4.9804   65.7300   62.6755 H   0  0  0  0  0  0  0  0  0  0  0  0
    4.4188   67.7939   61.4453 H   0  0  0  0  0  0  0  0  0  0  0  0
    6.2599   68.0626   63.2502 H   0  0  0  0  0  0  0  0  0  0  0  0
    5.4879   69.5885   62.6197 H   0  0  0  0  0  0  0  0  0  0  0  0
    6.9110   69.6170   64.9860 H   0  0  0  0  0  0  0  0  0  0  0  0
    7.9019   70.4867   66.9105 H   0  0  0  0  0  0  0  0  0  0  0  0
    5.3590   71.2057   70.3232 H   0  0  0  0  0  0  0  0  0  0  0  0
    3.3872   70.4037   69.0347 H   0  0  0  0  0  0  0  0  0  0  0  0
    1.9970   68.5330   67.4700 H   0  0  0  0  0  0  0  0  0  0  0  0
    1.7990   70.1810   67.5010 H   0  0  0  0  0  0  0  0  0  0  0  0
    1.6412   68.9961   64.4825 H   0  0  0  0  0  0  0  0  0  0  0  0
    2.3803   66.8293   65.7107 H   0  0  0  0  0  0  0  0  0  0  0  0
    1.3608   66.6536   64.2026 H   0  0  0  0  0  0  0  0  0  0  0  0
    2.1093   68.0553   62.1776 H   0  0  0  0  0  0  0  0  0  0  0  0
    2.9520   69.6026   62.4762 H   0  0  0  0  0  0  0  0  0  0  0  0
  1  2  1  0
  2  3  1  0
  3  4  2  0
  4  5  1  0
  5  6  1  0
  6  7  1  0
  7  8  2  0
  8  9  1  0
  9 10  2  0
 10 11  1  0
 11 12  1  0
 11 13  2  0
 13 14  1  0
 14 15  2  0
 15 16  1  0
 16 17  1  0
 16 18  2  0
 18 19  1  0
 19 20  1  0
 19 21  1  0
 20  3  1  0
 21  5  1  0
 18  7  1  0
 15  9  1  0
  1 22  1  0
  1 23  1  0
  1 24  1  0
  2 25  1  0
  2 26  1  0
  4 27  1  0
  5 28  1  6
  6 29  1  0
  6 30  1  0
  8 31  1  0
 10 32  1  0
 13 33  1  0
 14 34  1  0
 17 35  1  0
 17 36  1  0
 19 37  1  6
 20 38  1  0
 20 39  1  0
 21 40  1  0
 21 41  1  0
M  CHG  1   8   1
M  END
>  <meeko>  (1) 
{"is_sidechain": [false], "free_energy": -12.492, "intermolecular_energy": -13.588, "internal_energy": -0.116}

$$$$
