3u8k_ligand
     RDKit          3D

 36 37  0  0  0  0  0  0  0  0999 V2000
   78.9780   68.2400  -11.9970 C   0  0  0  0  0  0  0  0  0  0  0  0
   79.7700   68.7240  -10.7950 C   0  0  0  0  0  0  0  0  0  0  0  0
   80.0930   70.1110  -10.9230 O   0  0  0  0  0  0  0  0  0  0  0  0
   81.0760   70.6280  -10.1310 C   0  0  0  0  0  0  0  0  0  0  0  0
   80.9530   71.1270   -8.8470 C   0  0  0  0  0  0  0  0  0  0  0  0
   81.9900   71.6330   -8.1410 N   0  0  0  0  0  0  0  0  0  0  0  0
   83.2040   71.6290   -8.7430 C   0  0  0  0  0  0  0  0  0  0  0  0
   83.4720   71.1400  -10.0260 C   0  0  0  0  0  0  0  0  0  0  0  0
   84.7320   71.1760  -10.6430 N   0  0  0  0  0  0  0  0  0  0  0  0
   85.8310   71.8900   -9.9540 C   0  0  0  0  0  0  0  0  0  0  0  0
   86.5570   72.8550  -10.8980 C   0  0  0  0  0  0  0  0  0  0  0  0
   86.8650   72.2830  -12.2770 C   0  0  0  0  0  0  0  0  0  0  0  0
   85.6350   71.8290  -12.9890 N   0  0  0  0  0  0  0  0  0  0  0  0
   85.2980   70.3610  -12.9060 C   0  0  0  0  0  0  0  0  0  0  0  0
   85.1270   69.9660  -11.4170 C   0  0  0  0  0  0  0  0  0  0  0  0
   82.3500   70.6460  -10.7090 C   0  0  0  0  0  0  0  0  0  0  0  0
   78.0864   67.6951  -11.6534 H   0  0  0  0  0  0  0  0  0  0  0  0
   78.6686   69.1035  -12.6041 H   0  0  0  0  0  0  0  0  0  0  0  0
   79.6053   67.5708  -12.6041 H   0  0  0  0  0  0  0  0  0  0  0  0
   79.1701   68.5762   -9.8849 H   0  0  0  0  0  0  0  0  0  0  0  0
   80.7057   68.1488  -10.7353 H   0  0  0  0  0  0  0  0  0  0  0  0
   79.9595   71.1116   -8.3750 H   0  0  0  0  0  0  0  0  0  0  0  0
   84.0494   72.0450   -8.1754 H   0  0  0  0  0  0  0  0  0  0  0  0
   85.4128   72.4613   -9.1122 H   0  0  0  0  0  0  0  0  0  0  0  0
   86.5574   71.1435   -9.6003 H   0  0  0  0  0  0  0  0  0  0  0  0
   85.9257   73.7462  -11.0295 H   0  0  0  0  0  0  0  0  0  0  0  0
   87.5269   73.0783  -10.4296 H   0  0  0  0  0  0  0  0  0  0  0  0
   87.3567   73.0601  -12.8806 H   0  0  0  0  0  0  0  0  0  0  0  0
   87.5173   71.4079  -12.1404 H   0  0  0  0  0  0  0  0  0  0  0  0
   85.6180   72.1640  -13.9590 H   0  0  0  0  0  0  0  0  0  0  0  0
   84.8390   72.2810  -12.5010 H   0  0  0  0  0  0  0  0  0  0  0  0
   84.3614   70.1663  -13.4491 H   0  0  0  0  0  0  0  0  0  0  0  0
   86.1070   69.7678  -13.3573 H   0  0  0  0  0  0  0  0  0  0  0  0
   84.3457   69.1971  -11.3256 H   0  0  0  0  0  0  0  0  0  0  0  0
   86.0729   69.5636  -11.0255 H   0  0  0  0  0  0  0  0  0  0  0  0
   82.4762   70.2606  -11.7315 H   0  0  0  0  0  0  0  0  0  0  0  0
  1  2  1  0
  2  3  1  0
  3  4  1  0
  4  5  2  0
  5  6  1  0
  6  7  2  0
  7  8  1  0
  8  9  1  0
  9 10  1  0
 10 11  1  0
 11 12  1  0
 12 13  1  0
 13 14  1  0
 14 15  1  0
  8 16  2  0
 16  4  1  0
 15  9  1  0
  1 17  1  0
  1 18  1  0
  1 19  1  0
  2 20  1  0
  2 21  1  0
  5 22  1  0
  7 23  1  0
 10 24  1  0
 10 25  1  0
 11 26  1  0
 11 27  1  0
 12 28  1  0
 12 29  1  0
 13 30  1  0
 13 31  1  0
 14 32  1  0
 14 33  1  0
 15 34  1  0
 15 35  1  0
 16 36  1  0
M  CHG  1  13   1
M  END
>  <meeko>  (1) 
{"is_sidechain": [false], "free_energy": -4.971, "intermolecular_energy": -7.586, "internal_energy": 0.25}

$$$$
3u8k_ligand
     RDKit          3D

 36 37  0  0  0  0  0  0  0  0999 V2000
   78.9780   67.5040  -12.2750 C   0  0  0  0  0  0  0  0  0  0  0  0
   79.4710   68.3090  -11.0840 C   0  0  0  0  0  0  0  0  0  0  0  0
   80.2420   69.4340  -11.5130 O   0  0  0  0  0  0  0  0  0  0  0  0
   80.9230   70.1530  -10.5760 C   0  0  0  0  0  0  0  0  0  0  0  0
   80.4080   70.8010   -9.4670 C   0  0  0  0  0  0  0  0  0  0  0  0
   81.1650   71.5050   -8.5960 N   0  0  0  0  0  0  0  0  0  0  0  0
   82.4970   71.5530   -8.8370 C   0  0  0  0  0  0  0  0  0  0  0  0
   83.1510   70.9300   -9.9060 C   0  0  0  0  0  0  0  0  0  0  0  0
   84.5290   71.0210  -10.1560 N   0  0  0  0  0  0  0  0  0  0  0  0
   85.0600   70.4000  -11.3910 C   0  0  0  0  0  0  0  0  0  0  0  0
   84.6980   71.2190  -12.6360 C   0  0  0  0  0  0  0  0  0  0  0  0
   85.7270   72.2730  -13.0110 C   0  0  0  0  0  0  0  0  0  0  0  0
   86.0910   73.1580  -11.8670 N   0  0  0  0  0  0  0  0  0  0  0  0
   86.4760   72.4840  -10.5740 C   0  0  0  0  0  0  0  0  0  0  0  0
   85.2030   72.2740   -9.7150 C   0  0  0  0  0  0  0  0  0  0  0  0
   82.3050   70.2320  -10.7820 C   0  0  0  0  0  0  0  0  0  0  0  0
   78.4346   66.6167  -11.9182 H   0  0  0  0  0  0  0  0  0  0  0  0
   78.3054   68.1254  -12.8844 H   0  0  0  0  0  0  0  0  0  0  0  0
   79.8372   67.1873  -12.8844 H   0  0  0  0  0  0  0  0  0  0  0  0
   78.6051   68.6649  -10.5065 H   0  0  0  0  0  0  0  0  0  0  0  0
   80.1080   67.6627  -10.4622 H   0  0  0  0  0  0  0  0  0  0  0  0
   79.3250   70.7400   -9.2845 H   0  0  0  0  0  0  0  0  0  0  0  0
   83.1162   72.1296   -8.1340 H   0  0  0  0  0  0  0  0  0  0  0  0
   86.1552   70.3327  -11.3141 H   0  0  0  0  0  0  0  0  0  0  0  0
   84.6110   69.4011  -11.4940 H   0  0  0  0  0  0  0  0  0  0  0  0
   84.5886   70.5270  -13.4840 H   0  0  0  0  0  0  0  0  0  0  0  0
   83.7674   71.7563  -12.4006 H   0  0  0  0  0  0  0  0  0  0  0  0
   86.6362   71.7659  -13.3662 H   0  0  0  0  0  0  0  0  0  0  0  0
   85.2821   72.9072  -13.7919 H   0  0  0  0  0  0  0  0  0  0  0  0
   85.3820   73.8850  -11.7150 H   0  0  0  0  0  0  0  0  0  0  0  0
   86.9640   73.6430  -12.1490 H   0  0  0  0  0  0  0  0  0  0  0  0
   86.9399   71.5102  -10.7897 H   0  0  0  0  0  0  0  0  0  0  0  0
   87.1937   73.1129  -10.0268 H   0  0  0  0  0  0  0  0  0  0  0  0
   85.4822   72.1903   -8.6543 H   0  0  0  0  0  0  0  0  0  0  0  0
   84.5222   73.1290   -9.8397 H   0  0  0  0  0  0  0  0  0  0  0  0
   82.7422   69.7311  -11.6583 H   0  0  0  0  0  0  0  0  0  0  0  0
  1  2  1  0
  2  3  1  0
  3  4  1  0
  4  5  2  0
  5  6  1  0
  6  7  2  0
  7  8  1  0
  8  9  1  0
  9 10  1  0
 10 11  1  0
 11 12  1  0
 12 13  1  0
 13 14  1  0
 14 15  1  0
  8 16  2  0
 16  4  1  0
 15  9  1  0
  1 17  1  0
  1 18  1  0
  1 19  1  0
  2 20  1  0
  2 21  1  0
  5 22  1  0
  7 23  1  0
 10 24  1  0
 10 25  1  0
 11 26  1  0
 11 27  1  0
 12 28  1  0
 12 29  1  0
 13 30  1  0
 13 31  1  0
 14 32  1  0
 14 33  1  0
 15 34  1  0
 15 35  1  0
 16 36  1  0
M  CHG  1  13   1
M  END
>  <meeko>  (2) 
{"is_sidechain": [false], "free_energy": -4.891, "intermolecular_energy": -7.858, "internal_energy": 0.643}

$$$$
3u8k_ligand
     RDKit          3D

 36 37  0  0  0  0  0  0  0  0999 V2000
   81.9450   72.8860   -6.3980 C   0  0  0  0  0  0  0  0  0  0  0  0
   81.3230   71.5230   -6.6490 C   0  0  0  0  0  0  0  0  0  0  0  0
   80.4440   71.5640   -7.7750 O   0  0  0  0  0  0  0  0  0  0  0  0
   80.9140   71.1460   -8.9850 C   0  0  0  0  0  0  0  0  0  0  0  0
   80.2200   70.4820   -9.9810 C   0  0  0  0  0  0  0  0  0  0  0  0
   80.7780   70.0950  -11.1490 N   0  0  0  0  0  0  0  0  0  0  0  0
   82.0860   70.3950  -11.3350 C   0  0  0  0  0  0  0  0  0  0  0  0
   82.9000   71.0760  -10.4230 C   0  0  0  0  0  0  0  0  0  0  0  0
   84.2630   71.3470  -10.6220 N   0  0  0  0  0  0  0  0  0  0  0  0
   85.0460   71.8810   -9.4840 C   0  0  0  0  0  0  0  0  0  0  0  0
   86.4660   72.2720   -9.9090 C   0  0  0  0  0  0  0  0  0  0  0  0
   86.5440   72.9870  -11.2460 C   0  0  0  0  0  0  0  0  0  0  0  0
   86.6850   72.0490  -12.3970 N   0  0  0  0  0  0  0  0  0  0  0  0
   85.4680   71.2430  -12.7760 C   0  0  0  0  0  0  0  0  0  0  0  0
   84.9940   70.4330  -11.5430 C   0  0  0  0  0  0  0  0  0  0  0  0
   82.2630   71.4330   -9.2240 C   0  0  0  0  0  0  0  0  0  0  0  0
   82.0240   73.0591   -5.3146 H   0  0  0  0  0  0  0  0  0  0  0  0
   82.9478   72.9201   -6.8488 H   0  0  0  0  0  0  0  0  0  0  0  0
   81.3136   73.6658   -6.8488 H   0  0  0  0  0  0  0  0  0  0  0  0
   82.1222   70.7923   -6.8422 H   0  0  0  0  0  0  0  0  0  0  0  0
   80.7433   71.2318   -5.7606 H   0  0  0  0  0  0  0  0  0  0  0  0
   79.1565   70.2571   -9.8128 H   0  0  0  0  0  0  0  0  0  0  0  0
   82.5465   70.0767  -12.2819 H   0  0  0  0  0  0  0  0  0  0  0  0
   84.5353   72.7700   -9.0854 H   0  0  0  0  0  0  0  0  0  0  0  0
   85.1206   71.0942   -8.7189 H   0  0  0  0  0  0  0  0  0  0  0  0
   86.8856   72.9356   -9.1386 H   0  0  0  0  0  0  0  0  0  0  0  0
   87.0307   71.3346  -10.0200 H   0  0  0  0  0  0  0  0  0  0  0  0
   85.6252   73.5760  -11.3834 H   0  0  0  0  0  0  0  0  0  0  0  0
   87.4397   73.6252  -11.2279 H   0  0  0  0  0  0  0  0  0  0  0  0
   87.5150   71.4530  -12.2950 H   0  0  0  0  0  0  0  0  0  0  0  0
   86.8430   72.6450  -13.2320 H   0  0  0  0  0  0  0  0  0  0  0  0
   84.6650   71.9197  -13.1034 H   0  0  0  0  0  0  0  0  0  0  0  0
   85.7190   70.5558  -13.5975 H   0  0  0  0  0  0  0  0  0  0  0  0
   84.3250   69.6224  -11.8678 H   0  0  0  0  0  0  0  0  0  0  0  0
   85.8612   69.9961  -11.0263 H   0  0  0  0  0  0  0  0  0  0  0  0
   82.8422   71.9547   -8.4479 H   0  0  0  0  0  0  0  0  0  0  0  0
  1  2  1  0
  2  3  1  0
  3  4  1  0
  4  5  2  0
  5  6  1  0
  6  7  2  0
  7  8  1  0
  8  9  1  0
  9 10  1  0
 10 11  1  0
 11 12  1  0
 12 13  1  0
 13 14  1  0
 14 15  1  0
  8 16  2  0
 16  4  1  0
 15  9  1  0
  1 17  1  0
  1 18  1  0
  1 19  1  0
  2 20  1  0
  2 21  1  0
  5 22  1  0
  7 23  1  0
 10 24  1  0
 10 25  1  0
 11 26  1  0
 11 27  1  0
 12 28  1  0
 12 29  1  0
 13 30  1  0
 13 31  1  0
 14 32  1  0
 14 33  1  0
 15 34  1  0
 15 35  1  0
 16 36  1  0
M  CHG  1  13   1
M  END
>  <meeko>  (3) 
{"is_sidechain": [false], "free_energy": -4.575, "intermolecular_energy": -7.53, "internal_energy": 0.797}

$$$$
3u8k_ligand
     RDKit          3D

 36 37  0  0  0  0  0  0  0  0999 V2000
   85.3900   71.4050  -12.8010 C   0  0  0  0  0  0  0  0  0  0  0  0
   84.3610   70.5110  -12.1310 C   0  0  0  0  0  0  0  0  0  0  0  0
   84.1680   70.8900  -10.7660 O   0  0  0  0  0  0  0  0  0  0  0  0
   82.9110   70.8210  -10.2420 C   0  0  0  0  0  0  0  0  0  0  0  0
   82.4220   71.4780   -9.1270 C   0  0  0  0  0  0  0  0  0  0  0  0
   81.1560   71.3370   -8.6730 N   0  0  0  0  0  0  0  0  0  0  0  0
   80.3410   70.5110   -9.3720 C   0  0  0  0  0  0  0  0  0  0  0  0
   80.6990   69.8010  -10.5230 C   0  0  0  0  0  0  0  0  0  0  0  0
   79.8470   68.9240  -11.2130 N   0  0  0  0  0  0  0  0  0  0  0  0
   79.2780   67.7730  -10.4750 C   0  0  0  0  0  0  0  0  0  0  0  0
   79.8020   66.4380  -11.0170 C   0  0  0  0  0  0  0  0  0  0  0  0
   79.4350   66.1540  -12.4790 C   0  0  0  0  0  0  0  0  0  0  0  0
   79.5450   67.3670  -13.3390 N   0  0  0  0  0  0  0  0  0  0  0  0
   78.4650   68.4100  -13.1960 C   0  0  0  0  0  0  0  0  0  0  0  0
   78.9680   69.5310  -12.2510 C   0  0  0  0  0  0  0  0  0  0  0  0
   82.0300   69.9790  -10.9290 C   0  0  0  0  0  0  0  0  0  0  0  0
   85.9838   71.9209  -12.0320 H   0  0  0  0  0  0  0  0  0  0  0  0
   86.0548   70.7928  -13.4281 H   0  0  0  0  0  0  0  0  0  0  0  0
   84.8767   72.1488  -13.4281 H   0  0  0  0  0  0  0  0  0  0  0  0
   83.4047   70.5976  -12.6676 H   0  0  0  0  0  0  0  0  0  0  0  0
   84.7248   69.4733  -12.1597 H   0  0  0  0  0  0  0  0  0  0  0  0
   83.0991   72.1510   -8.5806 H   0  0  0  0  0  0  0  0  0  0  0  0
   79.3117   70.3883   -9.0038 H   0  0  0  0  0  0  0  0  0  0  0  0
   79.5524   67.8592   -9.4133 H   0  0  0  0  0  0  0  0  0  0  0  0
   78.1855   67.7900  -10.6020 H   0  0  0  0  0  0  0  0  0  0  0  0
   80.8988   66.4403  -10.9328 H   0  0  0  0  0  0  0  0  0  0  0  0
   79.3248   65.6492  -10.4170 H   0  0  0  0  0  0  0  0  0  0  0  0
   80.1134   65.3813  -12.8698 H   0  0  0  0  0  0  0  0  0  0  0  0
   78.3872   65.8201  -12.5028 H   0  0  0  0  0  0  0  0  0  0  0  0
   79.6980   67.1170  -14.3230 H   0  0  0  0  0  0  0  0  0  0  0  0
   80.3980   67.8660  -13.0210 H   0  0  0  0  0  0  0  0  0  0  0  0
   78.2313   68.8366  -14.1826 H   0  0  0  0  0  0  0  0  0  0  0  0
   77.5575   67.9504  -12.7773 H   0  0  0  0  0  0  0  0  0  0  0  0
   79.5369   70.2743  -12.8288 H   0  0  0  0  0  0  0  0  0  0  0  0
   78.1119   70.0286  -11.7719 H   0  0  0  0  0  0  0  0  0  0  0  0
   82.3926   69.4391  -11.8161 H   0  0  0  0  0  0  0  0  0  0  0  0
  1  2  1  0
  2  3  1  0
  3  4  1  0
  4  5  2  0
  5  6  1  0
  6  7  2  0
  7  8  1  0
  8  9  1  0
  9 10  1  0
 10 11  1  0
 11 12  1  0
 12 13  1  0
 13 14  1  0
 14 15  1  0
  8 16  2  0
 16  4  1  0
 15  9  1  0
  1 17  1  0
  1 18  1  0
  1 19  1  0
  2 20  1  0
  2 21  1  0
  5 22  1  0
  7 23  1  0
 10 24  1  0
 10 25  1  0
 11 26  1  0
 11 27  1  0
 12 28  1  0
 12 29  1  0
 13 30  1  0
 13 31  1  0
 14 32  1  0
 14 33  1  0
 15 34  1  0
 15 35  1  0
 16 36  1  0
M  CHG  1  13   1
M  END
>  <meeko>  (4) 
{"is_sidechain": [false], "free_energy": -4.222, "intermolecular_energy": -6.405, "internal_energy": 0.212}

$$$$
3u8k_ligand
     RDKit          3D

 36 37  0  0  0  0  0  0  0  0999 V2000
   86.3280   72.6290  -10.5180 C   0  0  0  0  0  0  0  0  0  0  0  0
   85.5380   71.6230   -9.6990 C   0  0  0  0  0  0  0  0  0  0  0  0
   84.8010   72.2760   -8.6620 O   0  0  0  0  0  0  0  0  0  0  0  0
   83.4950   71.9340   -8.4760 C   0  0  0  0  0  0  0  0  0  0  0  0
   82.7160   72.1440   -7.3530 C   0  0  0  0  0  0  0  0  0  0  0  0
   81.4240   71.7560   -7.2560 N   0  0  0  0  0  0  0  0  0  0  0  0
   80.8850   71.1410   -8.3360 C   0  0  0  0  0  0  0  0  0  0  0  0
   81.5510   70.8810   -9.5390 C   0  0  0  0  0  0  0  0  0  0  0  0
   80.9820   70.2120  -10.6340 N   0  0  0  0  0  0  0  0  0  0  0  0
   81.3100   68.7810  -10.8290 C   0  0  0  0  0  0  0  0  0  0  0  0
   80.0650   67.8940  -10.7050 C   0  0  0  0  0  0  0  0  0  0  0  0
   79.3210   67.6650  -12.0170 C   0  0  0  0  0  0  0  0  0  0  0  0
   78.5830   68.8780  -12.4750 N   0  0  0  0  0  0  0  0  0  0  0  0
   79.3430   70.1810  -12.4830 C   0  0  0  0  0  0  0  0  0  0  0  0
   79.6030   70.6220  -11.0200 C   0  0  0  0  0  0  0  0  0  0  0  0
   82.8920   71.2930   -9.5660 C   0  0  0  0  0  0  0  0  0  0  0  0
   86.8641   73.3117   -9.8423 H   0  0  0  0  0  0  0  0  0  0  0  0
   87.0524   72.0972  -11.1524 H   0  0  0  0  0  0  0  0  0  0  0  0
   85.6397   73.2067  -11.1524 H   0  0  0  0  0  0  0  0  0  0  0  0
   84.8369   71.0920  -10.3596 H   0  0  0  0  0  0  0  0  0  0  0  0
   86.2421   70.9149   -9.2376 H   0  0  0  0  0  0  0  0  0  0  0  0
   83.1719   72.6543   -6.4918 H   0  0  0  0  0  0  0  0  0  0  0  0
   79.8359   70.8190   -8.2611 H   0  0  0  0  0  0  0  0  0  0  0  0
   81.7448   68.6478  -11.8306 H   0  0  0  0  0  0  0  0  0  0  0  0
   82.0242   68.4823  -10.0475 H   0  0  0  0  0  0  0  0  0  0  0  0
   80.3775   66.9155  -10.3114 H   0  0  0  0  0  0  0  0  0  0  0  0
   79.3685   68.4222  -10.0373 H   0  0  0  0  0  0  0  0  0  0  0  0
   80.0497   67.3823  -12.7910 H   0  0  0  0  0  0  0  0  0  0  0  0
   78.5816   66.8685  -11.8471 H   0  0  0  0  0  0  0  0  0  0  0  0
   77.6810   68.9710  -11.9940 H   0  0  0  0  0  0  0  0  0  0  0  0
   78.3730   68.7210  -13.4790 H   0  0  0  0  0  0  0  0  0  0  0  0
   80.3026   70.0452  -13.0034 H   0  0  0  0  0  0  0  0  0  0  0  0
   78.7555   70.9509  -13.0046 H   0  0  0  0  0  0  0  0  0  0  0  0
   79.5061   71.7148  -10.9403 H   0  0  0  0  0  0  0  0  0  0  0  0
   78.8704   70.1477  -10.3504 H   0  0  0  0  0  0  0  0  0  0  0  0
   83.4885   71.1069  -10.4713 H   0  0  0  0  0  0  0  0  0  0  0  0
  1  2  1  0
  2  3  1  0
  3  4  1  0
  4  5  2  0
  5  6  1  0
  6  7  2  0
  7  8  1  0
  8  9  1  0
  9 10  1  0
 10 11  1  0
 11 12  1  0
 12 13  1  0
 13 14  1  0
 14 15  1  0
  8 16  2  0
 16  4  1  0
 15  9  1  0
  1 17  1  0
  1 18  1  0
  1 19  1  0
  2 20  1  0
  2 21  1  0
  5 22  1  0
  7 23  1  0
 10 24  1  0
 10 25  1  0
 11 26  1  0
 11 27  1  0
 12 28  1  0
 12 29  1  0
 13 30  1  0
 13 31  1  0
 14 32  1  0
 14 33  1  0
 15 34  1  0
 15 35  1  0
 16 36  1  0
M  CHG  1  13   1
M  END
>  <meeko>  (5) 
{"is_sidechain": [false], "free_energy": -3.783, "intermolecular_energy": -5.835, "internal_energy": 0.312}

$$$$
3u8k_ligand
     RDKit          3D

 36 37  0  0  0  0  0  0  0  0999 V2000
   78.3290   66.4880   -9.3440 C   0  0  0  0  0  0  0  0  0  0  0  0
   78.2160   65.8990  -10.7390 C   0  0  0  0  0  0  0  0  0  0  0  0
   79.2230   66.4340  -11.6020 O   0  0  0  0  0  0  0  0  0  0  0  0
   79.2570   67.7820  -11.8070 C   0  0  0  0  0  0  0  0  0  0  0  0
   78.4660   68.5280  -12.6630 C   0  0  0  0  0  0  0  0  0  0  0  0
   78.5830   69.8670  -12.8090 N   0  0  0  0  0  0  0  0  0  0  0  0
   79.5240   70.4880  -12.0580 C   0  0  0  0  0  0  0  0  0  0  0  0
   80.3760   69.8610  -11.1430 C   0  0  0  0  0  0  0  0  0  0  0  0
   81.3670   70.5190  -10.3990 N   0  0  0  0  0  0  0  0  0  0  0  0
   81.0130   71.0330   -9.0560 C   0  0  0  0  0  0  0  0  0  0  0  0
   82.2360   71.0990   -8.1340 C   0  0  0  0  0  0  0  0  0  0  0  0
   83.2870   72.1830   -8.5230 C   0  0  0  0  0  0  0  0  0  0  0  0
   84.2620   71.7310   -9.5560 N   0  0  0  0  0  0  0  0  0  0  0  0
   83.6950   71.2140  -10.8550 C   0  0  0  0  0  0  0  0  0  0  0  0
   82.7600   70.0140  -10.5550 C   0  0  0  0  0  0  0  0  0  0  0  0
   80.2150   68.4690  -11.0530 C   0  0  0  0  0  0  0  0  0  0  0  0
   78.1768   65.6945   -8.5975 H   0  0  0  0  0  0  0  0  0  0  0  0
   79.3281   66.9289   -9.2120 H   0  0  0  0  0  0  0  0  0  0  0  0
   77.5640   67.2673   -9.2120 H   0  0  0  0  0  0  0  0  0  0  0  0
   78.3355   64.8071  -10.6797 H   0  0  0  0  0  0  0  0  0  0  0  0
   77.2284   66.1557  -11.1499 H   0  0  0  0  0  0  0  0  0  0  0  0
   77.7018   68.0040  -13.2559 H   0  0  0  0  0  0  0  0  0  0  0  0
   79.6266   71.5766  -12.1778 H   0  0  0  0  0  0  0  0  0  0  0  0
   80.5906   72.0432   -9.1608 H   0  0  0  0  0  0  0  0  0  0  0  0
   80.2817   70.3447   -8.6071 H   0  0  0  0  0  0  0  0  0  0  0  0
   81.8848   71.3127   -7.1137 H   0  0  0  0  0  0  0  0  0  0  0  0
   82.7444   70.1275   -8.2220 H   0  0  0  0  0  0  0  0  0  0  0  0
   82.7516   73.0616   -8.9121 H   0  0  0  0  0  0  0  0  0  0  0  0
   83.8643   72.4106   -7.6148 H   0  0  0  0  0  0  0  0  0  0  0  0
   84.9520   71.0800   -9.1620 H   0  0  0  0  0  0  0  0  0  0  0  0
   84.7830   72.5800   -9.8480 H   0  0  0  0  0  0  0  0  0  0  0  0
   83.1233   72.0119  -11.3515 H   0  0  0  0  0  0  0  0  0  0  0  0
   84.5132   70.8917  -11.5158 H   0  0  0  0  0  0  0  0  0  0  0  0
   82.8019   69.2955  -11.3868 H   0  0  0  0  0  0  0  0  0  0  0  0
   83.0814   69.5113   -9.6309 H   0  0  0  0  0  0  0  0  0  0  0  0
   80.8621   67.9009  -10.3685 H   0  0  0  0  0  0  0  0  0  0  0  0
  1  2  1  0
  2  3  1  0
  3  4  1  0
  4  5  2  0
  5  6  1  0
  6  7  2  0
  7  8  1  0
  8  9  1  0
  9 10  1  0
 10 11  1  0
 11 12  1  0
 12 13  1  0
 13 14  1  0
 14 15  1  0
  8 16  2  0
 16  4  1  0
 15  9  1  0
  1 17  1  0
  1 18  1  0
  1 19  1  0
  2 20  1  0
  2 21  1  0
  5 22  1  0
  7 23  1  0
 10 24  1  0
 10 25  1  0
 11 26  1  0
 11 27  1  0
 12 28  1  0
 12 29  1  0
 13 30  1  0
 13 31  1  0
 14 32  1  0
 14 33  1  0
 15 34  1  0
 15 35  1  0
 16 36  1  0
M  CHG  1  13   1
M  END
>  <meeko>  (6) 
{"is_sidechain": [false], "free_energy": -3.622, "intermolecular_energy": -5.891, "internal_energy": 0.614}

$$$$
3u8k_ligand
     RDKit          3D

 36 37  0  0  0  0  0  0  0  0999 V2000
   85.8040   72.5890  -13.4410 C   0  0  0  0  0  0  0  0  0  0  0  0
   86.7790   71.9000  -12.5010 C   0  0  0  0  0  0  0  0  0  0  0  0
   86.1240   70.8740  -11.7510 O   0  0  0  0  0  0  0  0  0  0  0  0
   85.4010   71.2300  -10.6510 C   0  0  0  0  0  0  0  0  0  0  0  0
   85.8210   71.9820   -9.5690 C   0  0  0  0  0  0  0  0  0  0  0  0
   85.0300   72.2750   -8.5120 N   0  0  0  0  0  0  0  0  0  0  0  0
   83.7590   71.8050   -8.5460 C   0  0  0  0  0  0  0  0  0  0  0  0
   83.2000   71.0500   -9.5830 C   0  0  0  0  0  0  0  0  0  0  0  0
   81.8910   70.5440   -9.5820 N   0  0  0  0  0  0  0  0  0  0  0  0
   81.6920   69.1100   -9.8910 C   0  0  0  0  0  0  0  0  0  0  0  0
   80.8120   68.9160  -11.1310 C   0  0  0  0  0  0  0  0  0  0  0  0
   79.5200   69.7230  -11.1320 C   0  0  0  0  0  0  0  0  0  0  0  0
   79.7480   71.1490  -10.7610 N   0  0  0  0  0  0  0  0  0  0  0  0
   79.6320   71.5040   -9.3000 C   0  0  0  0  0  0  0  0  0  0  0  0
   80.9540   71.1300   -8.5830 C   0  0  0  0  0  0  0  0  0  0  0  0
   84.0800   70.7670  -10.6390 C   0  0  0  0  0  0  0  0  0  0  0  0
   85.0448   73.1255  -12.8530 H   0  0  0  0  0  0  0  0  0  0  0  0
   86.3490   73.3036  -14.0752 H   0  0  0  0  0  0  0  0  0  0  0  0
   85.3124   71.8366  -14.0752 H   0  0  0  0  0  0  0  0  0  0  0  0
   87.5924   71.4520  -13.0905 H   0  0  0  0  0  0  0  0  0  0  0  0
   87.1798   72.6471  -11.8001 H   0  0  0  0  0  0  0  0  0  0  0  0
   86.8533   72.3620   -9.5681 H   0  0  0  0  0  0  0  0  0  0  0  0
   83.1129   72.0365   -7.6863 H   0  0  0  0  0  0  0  0  0  0  0  0
   82.6721   68.6448  -10.0727 H   0  0  0  0  0  0  0  0  0  0  0  0
   81.1867   68.6406   -9.0341 H   0  0  0  0  0  0  0  0  0  0  0  0
   81.3979   69.2076  -12.0151 H   0  0  0  0  0  0  0  0  0  0  0  0
   80.5147   67.8569  -11.1363 H   0  0  0  0  0  0  0  0  0  0  0  0
   79.0790   69.6848  -12.1390 H   0  0  0  0  0  0  0  0  0  0  0  0
   78.8453   69.2823  -10.3833 H   0  0  0  0  0  0  0  0  0  0  0  0
   79.1910   71.7820  -11.3470 H   0  0  0  0  0  0  0  0  0  0  0  0
   80.7460   71.3430  -10.9720 H   0  0  0  0  0  0  0  0  0  0  0  0
   79.4490   72.5837   -9.1963 H   0  0  0  0  0  0  0  0  0  0  0  0
   78.7952   70.9508   -8.8486 H   0  0  0  0  0  0  0  0  0  0  0  0
   81.4022   72.0314   -8.1396 H   0  0  0  0  0  0  0  0  0  0  0  0
   80.7535   70.4003   -7.7847 H   0  0  0  0  0  0  0  0  0  0  0  0
   83.7202   70.1620  -11.4843 H   0  0  0  0  0  0  0  0  0  0  0  0
  1  2  1  0
  2  3  1  0
  3  4  1  0
  4  5  2  0
  5  6  1  0
  6  7  2  0
  7  8  1  0
  8  9  1  0
  9 10  1  0
 10 11  1  0
 11 12  1  0
 12 13  1  0
 13 14  1  0
 14 15  1  0
  8 16  2  0
 16  4  1  0
 15  9  1  0
  1 17  1  0
  1 18  1  0
  1 19  1  0
  2 20  1  0
  2 21  1  0
  5 22  1  0
  7 23  1  0
 10 24  1  0
 10 25  1  0
 11 26  1  0
 11 27  1  0
 12 28  1  0
 12 29  1  0
 13 30  1  0
 13 31  1  0
 14 32  1  0
 14 33  1  0
 15 34  1  0
 15 35  1  0
 16 36  1  0
M  CHG  1  13   1
M  END
>  <meeko>  (7) 
{"is_sidechain": [false], "free_energy": -3.41, "intermolecular_energy": -5.114, "internal_energy": 0.16}

$$$$
3u8k_ligand
     RDKit          3D

 36 37  0  0  0  0  0  0  0  0999 V2000
   86.9040   72.9790  -11.1430 C   0  0  0  0  0  0  0  0  0  0  0  0
   86.8200   71.7270  -11.9990 C   0  0  0  0  0  0  0  0  0  0  0  0
   86.2180   70.6530  -11.2730 O   0  0  0  0  0  0  0  0  0  0  0  0
   84.8700   70.6790  -11.0670 C   0  0  0  0  0  0  0  0  0  0  0  0
   83.8690   70.4210  -11.9860 C   0  0  0  0  0  0  0  0  0  0  0  0
   82.5510   70.4840  -11.6910 N   0  0  0  0  0  0  0  0  0  0  0  0
   82.2210   70.8080  -10.4170 C   0  0  0  0  0  0  0  0  0  0  0  0
   83.1290   71.0750   -9.3860 C   0  0  0  0  0  0  0  0  0  0  0  0
   82.7640   71.4420   -8.0810 N   0  0  0  0  0  0  0  0  0  0  0  0
   82.6530   72.8830   -7.7630 C   0  0  0  0  0  0  0  0  0  0  0  0
   82.3570   73.1130   -6.2760 C   0  0  0  0  0  0  0  0  0  0  0  0
   80.9940   72.6160   -5.8090 C   0  0  0  0  0  0  0  0  0  0  0  0
   80.0800   72.2890   -6.9420 N   0  0  0  0  0  0  0  0  0  0  0  0
   80.3600   71.0170   -7.7030 C   0  0  0  0  0  0  0  0  0  0  0  0
   81.8010   70.5440   -7.3840 C   0  0  0  0  0  0  0  0  0  0  0  0
   84.4790   71.0100   -9.7650 C   0  0  0  0  0  0  0  0  0  0  0  0
   86.8852   72.6981  -10.0796 H   0  0  0  0  0  0  0  0  0  0  0  0
   87.8400   73.5127  -11.3647 H   0  0  0  0  0  0  0  0  0  0  0  0
   86.0477   73.6329  -11.3647 H   0  0  0  0  0  0  0  0  0  0  0  0
   86.2153   71.9414  -12.8925 H   0  0  0  0  0  0  0  0  0  0  0  0
   87.8389   71.4291  -12.2874 H   0  0  0  0  0  0  0  0  0  0  0  0
   84.1607   70.1501  -13.0114 H   0  0  0  0  0  0  0  0  0  0  0  0
   81.1500   70.8659  -10.1730 H   0  0  0  0  0  0  0  0  0  0  0  0
   83.6010   73.3789   -8.0189 H   0  0  0  0  0  0  0  0  0  0  0  0
   81.8201   73.3007   -8.3477 H   0  0  0  0  0  0  0  0  0  0  0  0
   83.1294   72.5939   -5.6895 H   0  0  0  0  0  0  0  0  0  0  0  0
   82.3560   74.2028   -6.1265 H   0  0  0  0  0  0  0  0  0  0  0  0
   81.1390   71.7105   -5.2015 H   0  0  0  0  0  0  0  0  0  0  0  0
   80.5267   73.4253   -5.2287 H   0  0  0  0  0  0  0  0  0  0  0  0
   79.9670   73.0890   -7.5750 H   0  0  0  0  0  0  0  0  0  0  0  0
   79.1510   72.1090   -6.5150 H   0  0  0  0  0  0  0  0  0  0  0  0
   79.6417   70.2407   -7.4005 H   0  0  0  0  0  0  0  0  0  0  0  0
   80.2600   71.2008   -8.7829 H   0  0  0  0  0  0  0  0  0  0  0  0
   81.9732   70.5879   -6.2984 H   0  0  0  0  0  0  0  0  0  0  0  0
   81.9397   69.5079   -7.7264 H   0  0  0  0  0  0  0  0  0  0  0  0
   85.2539   71.2261   -9.0148 H   0  0  0  0  0  0  0  0  0  0  0  0
  1  2  1  0
  2  3  1  0
  3  4  1  0
  4  5  2  0
  5  6  1  0
  6  7  2  0
  7  8  1  0
  8  9  1  0
  9 10  1  0
 10 11  1  0
 11 12  1  0
 12 13  1  0
 13 14  1  0
 14 15  1  0
  8 16  2  0
 16  4  1  0
 15  9  1  0
  1 17  1  0
  1 18  1  0
  1 19  1  0
  2 20  1  0
  2 21  1  0
  5 22  1  0
  7 23  1  0
 10 24  1  0
 10 25  1  0
 11 26  1  0
 11 27  1  0
 12 28  1  0
 12 29  1  0
 13 30  1  0
 13 31  1  0
 14 32  1  0
 14 33  1  0
 15 34  1  0
 15 35  1  0
 16 36  1  0
M  CHG  1  13   1
M  END
>  <meeko>  (8) 
{"is_sidechain": [false], "free_energy": -3.199, "intermolecular_energy": -5.188, "internal_energy": 0.556}

$$$$
3u8k_ligand
     RDKit          3D

 36 37  0  0  0  0  0  0  0  0999 V2000
   86.0870   68.9210  -12.2430 C   0  0  0  0  0  0  0  0  0  0  0  0
   85.3420   69.5980  -13.3800 C   0  0  0  0  0  0  0  0  0  0  0  0
   85.2350   71.0050  -13.1530 O   0  0  0  0  0  0  0  0  0  0  0  0
   85.3090   71.4670  -11.8720 C   0  0  0  0  0  0  0  0  0  0  0  0
   86.3020   72.2490  -11.3100 C   0  0  0  0  0  0  0  0  0  0  0  0
   86.2950   72.6490  -10.0180 N   0  0  0  0  0  0  0  0  0  0  0  0
   85.2410   72.2600   -9.2600 C   0  0  0  0  0  0  0  0  0  0  0  0
   84.1630   71.4880   -9.7040 C   0  0  0  0  0  0  0  0  0  0  0  0
   83.0980   71.0680   -8.8920 N   0  0  0  0  0  0  0  0  0  0  0  0
   82.5510   72.0230   -7.9010 C   0  0  0  0  0  0  0  0  0  0  0  0
   81.4940   71.3670   -7.0060 C   0  0  0  0  0  0  0  0  0  0  0  0
   80.2190   70.9530   -7.7390 C   0  0  0  0  0  0  0  0  0  0  0  0
   80.1010   71.5500   -9.1000 N   0  0  0  0  0  0  0  0  0  0  0  0
   80.9900   70.9820  -10.1780 C   0  0  0  0  0  0  0  0  0  0  0  0
   82.1120   70.1420   -9.5160 C   0  0  0  0  0  0  0  0  0  0  0  0
   84.2420   71.0910  -11.0480 C   0  0  0  0  0  0  0  0  0  0  0  0
   85.6922   69.2797  -11.2810 H   0  0  0  0  0  0  0  0  0  0  0  0
   85.9502   67.8317  -12.3122 H   0  0  0  0  0  0  0  0  0  0  0  0
   87.1582   69.1611  -12.3122 H   0  0  0  0  0  0  0  0  0  0  0  0
   85.8859   69.4252  -14.3204 H   0  0  0  0  0  0  0  0  0  0  0  0
   84.3290   69.1733  -13.4386 H   0  0  0  0  0  0  0  0  0  0  0  0
   87.1419   72.5621  -11.9477 H   0  0  0  0  0  0  0  0  0  0  0  0
   85.2329   72.5783   -8.2071 H   0  0  0  0  0  0  0  0  0  0  0  0
   83.3730   72.3922   -7.2702 H   0  0  0  0  0  0  0  0  0  0  0  0
   82.0728   72.8489   -8.4480 H   0  0  0  0  0  0  0  0  0  0  0  0
   81.9371   70.4687   -6.5512 H   0  0  0  0  0  0  0  0  0  0  0  0
   81.1988   72.1215   -6.2620 H   0  0  0  0  0  0  0  0  0  0  0  0
   80.2125   69.8574   -7.8366 H   0  0  0  0  0  0  0  0  0  0  0  0
   79.3684   71.3215   -7.1467 H   0  0  0  0  0  0  0  0  0  0  0  0
   80.1600   72.5750   -9.0670 H   0  0  0  0  0  0  0  0  0  0  0  0
   79.1470   71.3150   -9.4340 H   0  0  0  0  0  0  0  0  0  0  0  0
   80.3958   70.3419  -10.8468 H   0  0  0  0  0  0  0  0  0  0  0  0
   81.4345   71.8007  -10.7629 H   0  0  0  0  0  0  0  0  0  0  0  0
   81.6787   69.4884   -8.7446 H   0  0  0  0  0  0  0  0  0  0  0  0
   82.6104   69.5195  -10.2737 H   0  0  0  0  0  0  0  0  0  0  0  0
   83.4403   70.4649  -11.4667 H   0  0  0  0  0  0  0  0  0  0  0  0
  1  2  1  0
  2  3  1  0
  3  4  1  0
  4  5  2  0
  5  6  1  0
  6  7  2  0
  7  8  1  0
  8  9  1  0
  9 10  1  0
 10 11  1  0
 11 12  1  0
 12 13  1  0
 13 14  1  0
 14 15  1  0
  8 16  2  0
 16  4  1  0
 15  9  1  0
  1 17  1  0
  1 18  1  0
  1 19  1  0
  2 20  1  0
  2 21  1  0
  5 22  1  0
  7 23  1  0
 10 24  1  0
 10 25  1  0
 11 26  1  0
 11 27  1  0
 12 28  1  0
 12 29  1  0
 13 30  1  0
 13 31  1  0
 14 32  1  0
 14 33  1  0
 15 34  1  0
 15 35  1  0
 16 36  1  0
M  CHG  1  13   1
M  END
>  <meeko>  (9) 
{"is_sidechain": [false], "free_energy": -2.965, "intermolecular_energy": -5.131, "internal_energy": 0.857}

$$$$
