4w9c_ligand
     RDKit          3D

 55 57  0  0  0  0  0  0  0  0999 V2000
   11.6120   53.5520   95.5230 C   0  0  0  0  0  0  0  0  0  0  0  0
   13.0390   53.7360   94.9840 C   0  0  0  0  0  0  0  0  0  0  0  0
   13.3360   55.2390   94.8430 C   0  0  0  0  0  0  0  0  0  0  0  0
   14.0280   53.1450   96.0080 C   0  0  0  0  0  0  0  0  0  0  0  0
   13.2370   52.9890   93.6410 C   0  0  0  0  0  0  0  0  0  0  0  0
   12.6110   53.6770   92.4350 C   0  0  0  0  0  0  0  0  0  0  0  0
   11.4180   53.9880   92.4430 O   0  0  0  0  0  0  0  0  0  0  0  0
   13.4070   53.9660   91.3480 N   0  0  0  0  0  0  0  0  0  0  0  0
   14.7680   54.4450   91.5500 C   0  0  0  0  0  0  0  0  0  0  0  0
   14.9960   55.4130   90.3900 C   0  0  2  0  0  0  0  0  0  0  0  0
   14.4180   56.6890   90.6590 O   0  0  0  0  0  0  0  0  0  0  0  0
   14.2210   54.7650   89.2530 C   0  0  0  0  0  0  0  0  0  0  0  0
   12.9890   54.1620   89.9460 C   0  0  1  0  0  0  0  0  0  0  0  0
   12.6330   52.8440   89.2320 C   0  0  0  0  0  0  0  0  0  0  0  0
   12.6690   51.7610   89.8110 O   0  0  0  0  0  0  0  0  0  0  0  0
   12.1730   52.9980   87.9430 N   0  0  0  0  0  0  0  0  0  0  0  0
   11.5770   51.9170   87.1960 C   0  0  0  0  0  0  0  0  0  0  0  0
   12.3120   51.7190   85.8950 C   0  0  0  0  0  0  0  0  0  0  0  0
   12.1610   50.5400   85.1570 C   0  0  0  0  0  0  0  0  0  0  0  0
   12.8710   50.3520   83.9650 C   0  0  0  0  0  0  0  0  0  0  0  0
   13.7540   51.3320   83.4890 C   0  0  0  0  0  0  0  0  0  0  0  0
   14.4900   51.1240   82.2490 C   0  0  0  0  0  0  0  0  0  0  0  0
   14.3880   50.2730   81.1670 C   0  0  0  0  0  0  0  0  0  0  0  0
   15.3850   50.5280   80.2580 N   0  0  0  0  0  0  0  0  0  0  0  0
   16.0490   51.5160   80.8110 C   0  0  0  0  0  0  0  0  0  0  0  0
   15.5740   51.9330   82.0150 O   0  0  0  0  0  0  0  0  0  0  0  0
   13.9070   52.5060   84.2390 C   0  0  0  0  0  0  0  0  0  0  0  0
   13.1980   52.6970   85.4290 C   0  0  0  0  0  0  0  0  0  0  0  0
   11.6323   53.5546   96.6228 H   0  0  0  0  0  0  0  0  0  0  0  0
   10.9762   54.3756   95.1660 H   0  0  0  0  0  0  0  0  0  0  0  0
   11.2059   52.5941   95.1660 H   0  0  0  0  0  0  0  0  0  0  0  0
   13.4252   55.6904   95.8421 H   0  0  0  0  0  0  0  0  0  0  0  0
   14.2787   55.3765   94.2930 H   0  0  0  0  0  0  0  0  0  0  0  0
   12.5165   55.7247   94.2930 H   0  0  0  0  0  0  0  0  0  0  0  0
   13.6718   53.3578   97.0268 H   0  0  0  0  0  0  0  0  0  0  0  0
   14.0983   52.0567   95.8640 H   0  0  0  0  0  0  0  0  0  0  0  0
   15.0197   53.5987   95.8640 H   0  0  0  0  0  0  0  0  0  0  0  0
   14.3174   52.8920   93.4583 H   0  0  0  0  0  0  0  0  0  0  0  0
   12.7286   52.0192   93.7456 H   0  0  0  0  0  0  0  0  0  0  0  0
   14.8606   54.9635   92.5157 H   0  0  0  0  0  0  0  0  0  0  0  0
   15.5051   53.6287   91.5710 H   0  0  0  0  0  0  0  0  0  0  0  0
   16.0647   55.5787   90.1889 H   0  0  0  0  0  0  0  0  0  0  0  0
   13.6250   56.5490   91.2050 H   0  0  0  0  0  0  0  0  0  0  0  0
   13.9224   55.5144   88.5052 H   0  0  0  0  0  0  0  0  0  0  0  0
   14.8127   54.0144   88.7084 H   0  0  0  0  0  0  0  0  0  0  0  0
   12.0875   54.7912   89.9086 H   0  0  0  0  0  0  0  0  0  0  0  0
   12.0600   53.9440   87.5960 H   0  0  0  0  0  0  0  0  0  0  0  0
   11.6311   50.9920   87.7888 H   0  0  0  0  0  0  0  0  0  0  0  0
   10.5266   52.1637   86.9820 H   0  0  0  0  0  0  0  0  0  0  0  0
   11.4793   49.7548   85.5160 H   0  0  0  0  0  0  0  0  0  0  0  0
   12.7342   49.4221   83.3936 H   0  0  0  0  0  0  0  0  0  0  0  0
   13.6157   49.4986   81.0494 H   0  0  0  0  0  0  0  0  0  0  0  0
   16.9279   51.9744   80.3341 H   0  0  0  0  0  0  0  0  0  0  0  0
   14.5949   53.2886   83.8864 H   0  0  0  0  0  0  0  0  0  0  0  0
   13.3379   53.6242   86.0040 H   0  0  0  0  0  0  0  0  0  0  0  0
  1  2  1  0
  2  3  1  0
  2  4  1  0
  2  5  1  0
  5  6  1  0
  6  7  2  0
  6  8  1  0
  8  9  1  0
  9 10  1  0
 10 11  1  0
 10 12  1  0
 12 13  1  0
 13 14  1  0
 14 15  2  0
 14 16  1  0
 16 17  1  0
 17 18  1  0
 18 19  2  0
 19 20  1  0
 20 21  2  0
 21 22  1  0
 22 23  2  0
 23 24  1  0
 24 25  2  0
 25 26  1  0
 21 27  1  0
 27 28  2  0
 13  8  1  0
 28 18  1  0
 26 22  1  0
  1 29  1  0
  1 30  1  0
  1 31  1  0
  3 32  1  0
  3 33  1  0
  3 34  1  0
  4 35  1  0
  4 36  1  0
  4 37  1  0
  5 38  1  0
  5 39  1  0
  9 40  1  0
  9 41  1  0
 10 42  1  6
 11 43  1  0
 12 44  1  0
 12 45  1  0
 13 46  1  1
 16 47  1  0
 17 48  1  0
 17 49  1  0
 19 50  1  0
 20 51  1  0
 23 52  1  0
 25 53  1  0
 27 54  1  0
 28 55  1  0
M  END
>  <meeko>  (1) 
{"is_sidechain": [false], "free_energy": -7.579, "intermolecular_energy": -10.902, "internal_energy": -0.585}

$$$$
4w9c_ligand
     RDKit          3D

 55 57  0  0  0  0  0  0  0  0999 V2000
   11.6840   51.2260   81.8240 C   0  0  0  0  0  0  0  0  0  0  0  0
   12.6480   50.0950   82.2110 C   0  0  0  0  0  0  0  0  0  0  0  0
   11.8360   48.8430   82.5850 C   0  0  0  0  0  0  0  0  0  0  0  0
   13.5190   49.7540   80.9860 C   0  0  0  0  0  0  0  0  0  0  0  0
   13.5910   50.5260   83.3630 C   0  0  0  0  0  0  0  0  0  0  0  0
   13.0620   50.2290   84.7600 C   0  0  0  0  0  0  0  0  0  0  0  0
   13.3710   49.1830   85.3350 O   0  0  0  0  0  0  0  0  0  0  0  0
   12.2560   51.1600   85.3770 N   0  0  0  0  0  0  0  0  0  0  0  0
   11.0730   50.7260   86.1090 C   0  0  0  0  0  0  0  0  0  0  0  0
   10.0650   51.8520   85.8830 C   0  0  2  0  0  0  0  0  0  0  0  0
    9.4270   51.7290   84.6130 O   0  0  0  0  0  0  0  0  0  0  0  0
   10.9440   53.0920   85.8600 C   0  0  0  0  0  0  0  0  0  0  0  0
   12.2280   52.6190   85.1600 C   0  0  1  0  0  0  0  0  0  0  0  0
   13.4230   53.3490   85.8030 C   0  0  0  0  0  0  0  0  0  0  0  0
   14.4600   53.5700   85.1830 O   0  0  0  0  0  0  0  0  0  0  0  0
   13.1870   53.8210   87.0750 N   0  0  0  0  0  0  0  0  0  0  0  0
   14.0900   54.7200   87.7500 C   0  0  0  0  0  0  0  0  0  0  0  0
   13.9630   54.5600   89.2440 C   0  0  0  0  0  0  0  0  0  0  0  0
   12.8460   53.9350   89.8070 C   0  0  0  0  0  0  0  0  0  0  0  0
   12.7220   53.8180   91.1960 C   0  0  0  0  0  0  0  0  0  0  0  0
   13.7060   54.3300   92.0540 C   0  0  0  0  0  0  0  0  0  0  0  0
   13.5650   54.2060   93.4990 C   0  0  0  0  0  0  0  0  0  0  0  0
   13.2480   55.0550   94.5390 C   0  0  0  0  0  0  0  0  0  0  0  0
   13.2670   54.3800   95.7350 N   0  0  0  0  0  0  0  0  0  0  0  0
   13.5870   53.1570   95.3840 C   0  0  0  0  0  0  0  0  0  0  0  0
   13.7860   52.9680   94.0510 O   0  0  0  0  0  0  0  0  0  0  0  0
   14.8180   54.9630   91.4830 C   0  0  0  0  0  0  0  0  0  0  0  0
   14.9450   55.0800   90.0950 C   0  0  0  0  0  0  0  0  0  0  0  0
   11.2843   51.6950   82.7352 H   0  0  0  0  0  0  0  0  0  0  0  0
   12.2221   51.9792   81.2298 H   0  0  0  0  0  0  0  0  0  0  0  0
   10.8551   50.8140   81.2298 H   0  0  0  0  0  0  0  0  0  0  0  0
   11.7797   48.7561   83.6801 H   0  0  0  0  0  0  0  0  0  0  0  0
   10.8203   48.9275   82.1711 H   0  0  0  0  0  0  0  0  0  0  0  0
   12.3274   47.9501   82.1711 H   0  0  0  0  0  0  0  0  0  0  0  0
   14.4938   49.3724   81.3240 H   0  0  0  0  0  0  0  0  0  0  0  0
   13.0150   48.9868   80.3799 H   0  0  0  0  0  0  0  0  0  0  0  0
   13.6699   50.6595   80.3799 H   0  0  0  0  0  0  0  0  0  0  0  0
   14.5479   49.9978   83.2390 H   0  0  0  0  0  0  0  0  0  0  0  0
   13.6895   51.6193   83.2928 H   0  0  0  0  0  0  0  0  0  0  0  0
   10.6927   49.7746   85.7088 H   0  0  0  0  0  0  0  0  0  0  0  0
   11.2765   50.5475   87.1752 H   0  0  0  0  0  0  0  0  0  0  0  0
    9.2707   51.8594   86.6440 H   0  0  0  0  0  0  0  0  0  0  0  0
    9.6220   50.8410   84.2650 H   0  0  0  0  0  0  0  0  0  0  0  0
   10.4637   53.9022   85.2918 H   0  0  0  0  0  0  0  0  0  0  0  0
   11.1325   53.4983   86.8647 H   0  0  0  0  0  0  0  0  0  0  0  0
   12.2712   52.8381   84.0829 H   0  0  0  0  0  0  0  0  0  0  0  0
   12.2550   53.6980   87.4550 H   0  0  0  0  0  0  0  0  0  0  0  0
   15.1228   54.4934   87.4467 H   0  0  0  0  0  0  0  0  0  0  0  0
   13.8373   55.7551   87.4768 H   0  0  0  0  0  0  0  0  0  0  0  0
   12.0586   53.5322   89.1530 H   0  0  0  0  0  0  0  0  0  0  0  0
   11.8397   53.3171   91.6210 H   0  0  0  0  0  0  0  0  0  0  0  0
   13.0128   56.1236   94.4262 H   0  0  0  0  0  0  0  0  0  0  0  0
   13.6874   52.3417   96.1156 H   0  0  0  0  0  0  0  0  0  0  0  0
   15.6024   55.3738   92.1357 H   0  0  0  0  0  0  0  0  0  0  0  0
   15.8242   55.5851   89.6686 H   0  0  0  0  0  0  0  0  0  0  0  0
  1  2  1  0
  2  3  1  0
  2  4  1  0
  2  5  1  0
  5  6  1  0
  6  7  2  0
  6  8  1  0
  8  9  1  0
  9 10  1  0
 10 11  1  0
 10 12  1  0
 12 13  1  0
 13 14  1  0
 14 15  2  0
 14 16  1  0
 16 17  1  0
 17 18  1  0
 18 19  2  0
 19 20  1  0
 20 21  2  0
 21 22  1  0
 22 23  2  0
 23 24  1  0
 24 25  2  0
 25 26  1  0
 21 27  1  0
 27 28  2  0
 13  8  1  0
 28 18  1  0
 26 22  1  0
  1 29  1  0
  1 30  1  0
  1 31  1  0
  3 32  1  0
  3 33  1  0
  3 34  1  0
  4 35  1  0
  4 36  1  0
  4 37  1  0
  5 38  1  0
  5 39  1  0
  9 40  1  0
  9 41  1  0
 10 42  1  1
 11 43  1  0
 12 44  1  0
 12 45  1  0
 13 46  1  6
 16 47  1  0
 17 48  1  0
 17 49  1  0
 19 50  1  0
 20 51  1  0
 23 52  1  0
 25 53  1  0
 27 54  1  0
 28 55  1  0
M  END
>  <meeko>  (2) 
{"is_sidechain": [false], "free_energy": -6.946, "intermolecular_energy": -9.587, "internal_energy": -0.989}

$$$$
4w9c_ligand
     RDKit          3D

 55 57  0  0  0  0  0  0  0  0999 V2000
   13.7250   53.8420   95.4620 C   0  0  0  0  0  0  0  0  0  0  0  0
   12.7090   54.6110   94.6040 C   0  0  0  0  0  0  0  0  0  0  0  0
   11.3320   53.9340   94.7210 C   0  0  0  0  0  0  0  0  0  0  0  0
   12.5870   56.0450   95.1580 C   0  0  0  0  0  0  0  0  0  0  0  0
   13.1730   54.7060   93.1280 C   0  0  0  0  0  0  0  0  0  0  0  0
   13.0960   53.3970   92.3540 C   0  0  0  0  0  0  0  0  0  0  0  0
   13.8010   52.4390   92.6760 O   0  0  0  0  0  0  0  0  0  0  0  0
   12.2080   53.2970   91.3050 N   0  0  0  0  0  0  0  0  0  0  0  0
   10.7790   53.4410   91.5470 C   0  0  0  0  0  0  0  0  0  0  0  0
   10.1350   52.4880   90.5400 C   0  0  2  0  0  0  0  0  0  0  0  0
   10.1640   51.1410   91.0110 O   0  0  0  0  0  0  0  0  0  0  0  0
   11.0580   52.5950   89.3370 C   0  0  0  0  0  0  0  0  0  0  0  0
   12.4560   52.7470   89.9590 C   0  0  1  0  0  0  0  0  0  0  0  0
   13.2800   53.6910   89.0630 C   0  0  0  0  0  0  0  0  0  0  0  0
   14.1800   54.3950   89.5150 O   0  0  0  0  0  0  0  0  0  0  0  0
   13.0000   53.5930   87.7180 N   0  0  0  0  0  0  0  0  0  0  0  0
   13.8150   54.2190   86.7060 C   0  0  0  0  0  0  0  0  0  0  0  0
   13.8970   53.3380   85.4860 C   0  0  0  0  0  0  0  0  0  0  0  0
   12.8350   52.4970   85.1350 C   0  0  0  0  0  0  0  0  0  0  0  0
   12.9320   51.6590   84.0180 C   0  0  0  0  0  0  0  0  0  0  0  0
   14.0930   51.6360   83.2320 C   0  0  0  0  0  0  0  0  0  0  0  0
   14.1840   50.7580   82.0720 C   0  0  0  0  0  0  0  0  0  0  0  0
   15.0890   50.5600   81.0500 C   0  0  0  0  0  0  0  0  0  0  0  0
   14.6500   49.5710   80.2030 N   0  0  0  0  0  0  0  0  0  0  0  0
   13.5090   49.2050   80.7370 C   0  0  0  0  0  0  0  0  0  0  0  0
   13.1540   49.8740   81.8670 O   0  0  0  0  0  0  0  0  0  0  0  0
   15.1550   52.4750   83.5940 C   0  0  0  0  0  0  0  0  0  0  0  0
   15.0610   53.3140   84.7090 C   0  0  0  0  0  0  0  0  0  0  0  0
   13.5056   54.0080   96.5270 H   0  0  0  0  0  0  0  0  0  0  0  0
   13.6564   52.7675   95.2367 H   0  0  0  0  0  0  0  0  0  0  0  0
   14.7405   54.1998   95.2367 H   0  0  0  0  0  0  0  0  0  0  0  0
   11.0747   53.8075   95.7830 H   0  0  0  0  0  0  0  0  0  0  0  0
   10.5723   54.5613   94.2318 H   0  0  0  0  0  0  0  0  0  0  0  0
   11.3648   52.9493   94.2318 H   0  0  0  0  0  0  0  0  0  0  0  0
   12.5896   56.0147   96.2576 H   0  0  0  0  0  0  0  0  0  0  0  0
   13.4371   56.6477   94.8058 H   0  0  0  0  0  0  0  0  0  0  0  0
   11.6473   56.4954   94.8058 H   0  0  0  0  0  0  0  0  0  0  0  0
   12.5393   55.4451   92.6160 H   0  0  0  0  0  0  0  0  0  0  0  0
   14.2350   54.9916   93.1528 H   0  0  0  0  0  0  0  0  0  0  0  0
   10.5258   53.1505   92.5773 H   0  0  0  0  0  0  0  0  0  0  0  0
   10.4323   54.4783   91.4295 H   0  0  0  0  0  0  0  0  0  0  0  0
    9.0825   52.7389   90.3420 H   0  0  0  0  0  0  0  0  0  0  0  0
    9.4660   50.6470   90.5450 H   0  0  0  0  0  0  0  0  0  0  0  0
   11.0013   51.6877   88.7177 H   0  0  0  0  0  0  0  0  0  0  0  0
   10.7951   53.4312   88.6724 H   0  0  0  0  0  0  0  0  0  0  0  0
   13.0285   51.8109   90.0367 H   0  0  0  0  0  0  0  0  0  0  0  0
   12.3270   52.8910   87.4300 H   0  0  0  0  0  0  0  0  0  0  0  0
   13.3697   55.1854   86.4272 H   0  0  0  0  0  0  0  0  0  0  0  0
   14.8280   54.3740   87.1058 H   0  0  0  0  0  0  0  0  0  0  0  0
   11.9172   52.4945   85.7414 H   0  0  0  0  0  0  0  0  0  0  0  0
   12.0851   51.0090   83.7529 H   0  0  0  0  0  0  0  0  0  0  0  0
   16.0305   51.1161   80.9298 H   0  0  0  0  0  0  0  0  0  0  0  0
   12.8830   48.4124   80.3014 H   0  0  0  0  0  0  0  0  0  0  0  0
   16.0760   52.4738   82.9926 H   0  0  0  0  0  0  0  0  0  0  0  0
   15.9093   53.9607   84.9777 H   0  0  0  0  0  0  0  0  0  0  0  0
  1  2  1  0
  2  3  1  0
  2  4  1  0
  2  5  1  0
  5  6  1  0
  6  7  2  0
  6  8  1  0
  8  9  1  0
  9 10  1  0
 10 11  1  0
 10 12  1  0
 12 13  1  0
 13 14  1  0
 14 15  2  0
 14 16  1  0
 16 17  1  0
 17 18  1  0
 18 19  2  0
 19 20  1  0
 20 21  2  0
 21 22  1  0
 22 23  2  0
 23 24  1  0
 24 25  2  0
 25 26  1  0
 21 27  1  0
 27 28  2  0
 13  8  1  0
 28 18  1  0
 26 22  1  0
  1 29  1  0
  1 30  1  0
  1 31  1  0
  3 32  1  0
  3 33  1  0
  3 34  1  0
  4 35  1  0
  4 36  1  0
  4 37  1  0
  5 38  1  0
  5 39  1  0
  9 40  1  0
  9 41  1  0
 10 42  1  6
 11 43  1  0
 12 44  1  0
 12 45  1  0
 13 46  1  1
 16 47  1  0
 17 48  1  0
 17 49  1  0
 19 50  1  0
 20 51  1  0
 23 52  1  0
 25 53  1  0
 27 54  1  0
 28 55  1  0
M  END
>  <meeko>  (3) 
{"is_sidechain": [false], "free_energy": -6.841, "intermolecular_energy": -10.081, "internal_energy": -0.344}

$$$$
4w9c_ligand
     RDKit          3D

 55 57  0  0  0  0  0  0  0  0999 V2000
    9.6060   53.6120   92.3750 C   0  0  0  0  0  0  0  0  0  0  0  0
    9.2440   53.1580   90.9530 C   0  0  0  0  0  0  0  0  0  0  0  0
    8.3940   51.8770   91.0320 C   0  0  0  0  0  0  0  0  0  0  0  0
    8.3920   54.2590   90.2900 C   0  0  0  0  0  0  0  0  0  0  0  0
   10.5110   52.9460   90.0870 C   0  0  0  0  0  0  0  0  0  0  0  0
   11.7820   52.6680   90.8800 C   0  0  0  0  0  0  0  0  0  0  0  0
   12.0050   51.5400   91.3260 O   0  0  0  0  0  0  0  0  0  0  0  0
   12.6860   53.6900   91.0660 N   0  0  0  0  0  0  0  0  0  0  0  0
   12.6730   54.8430   90.1760 C   0  0  0  0  0  0  0  0  0  0  0  0
   14.1430   55.2470   90.0710 C   0  0  2  0  0  0  0  0  0  0  0  0
   14.8400   54.4270   89.1340 O   0  0  0  0  0  0  0  0  0  0  0  0
   14.6760   54.9440   91.4630 C   0  0  0  0  0  0  0  0  0  0  0  0
   13.9190   53.6720   91.8760 C   0  0  1  0  0  0  0  0  0  0  0  0
   13.6480   53.7460   93.3910 C   0  0  0  0  0  0  0  0  0  0  0  0
   13.7430   52.7600   94.1180 O   0  0  0  0  0  0  0  0  0  0  0  0
   13.4030   55.0150   93.8670 N   0  0  0  0  0  0  0  0  0  0  0  0
   13.3540   55.3210   95.2760 C   0  0  0  0  0  0  0  0  0  0  0  0
   12.0440   55.9820   95.6190 C   0  0  0  0  0  0  0  0  0  0  0  0
   11.9950   57.3310   95.9860 C   0  0  0  0  0  0  0  0  0  0  0  0
   10.7770   57.9300   96.3330 C   0  0  0  0  0  0  0  0  0  0  0  0
    9.5850   57.1930   96.3290 C   0  0  0  0  0  0  0  0  0  0  0  0
    8.3230   57.8240   96.6950 C   0  0  0  0  0  0  0  0  0  0  0  0
    7.4890   57.8050   97.7930 C   0  0  0  0  0  0  0  0  0  0  0  0
    6.3990   58.6140   97.5840 N   0  0  0  0  0  0  0  0  0  0  0  0
    6.6090   59.0950   96.3810 C   0  0  0  0  0  0  0  0  0  0  0  0
    7.7480   58.6660   95.7750 O   0  0  0  0  0  0  0  0  0  0  0  0
    9.6430   55.8390   95.9690 C   0  0  0  0  0  0  0  0  0  0  0  0
   10.8580   55.2400   95.6210 C   0  0  0  0  0  0  0  0  0  0  0  0
    9.0938   52.9697   93.1065 H   0  0  0  0  0  0  0  0  0  0  0  0
   10.6939   53.5358   92.5184 H   0  0  0  0  0  0  0  0  0  0  0  0
    9.2895   54.6557   92.5184 H   0  0  0  0  0  0  0  0  0  0  0  0
    8.2210   51.6162   92.0865 H   0  0  0  0  0  0  0  0  0  0  0  0
    7.4284   52.0463   90.5330 H   0  0  0  0  0  0  0  0  0  0  0  0
    8.9252   51.0531   90.5330 H   0  0  0  0  0  0  0  0  0  0  0  0
    7.9165   54.8735   91.0687 H   0  0  0  0  0  0  0  0  0  0  0  0
    9.0362   54.8941   89.6642 H   0  0  0  0  0  0  0  0  0  0  0  0
    7.6155   53.7948   89.6642 H   0  0  0  0  0  0  0  0  0  0  0  0
   10.3303   52.0918   89.4179 H   0  0  0  0  0  0  0  0  0  0  0  0
   10.6807   53.8890   89.5466 H   0  0  0  0  0  0  0  0  0  0  0  0
   12.2712   54.5703   89.1890 H   0  0  0  0  0  0  0  0  0  0  0  0
   12.0360   55.6583   90.5494 H   0  0  0  0  0  0  0  0  0  0  0  0
   14.2666   56.2895   89.7424 H   0  0  0  0  0  0  0  0  0  0  0  0
   14.2430   53.7050   88.8680 H   0  0  0  0  0  0  0  0  0  0  0  0
   15.7608   54.7634   91.4366 H   0  0  0  0  0  0  0  0  0  0  0  0
   14.5258   55.7760   92.1667 H   0  0  0  0  0  0  0  0  0  0  0  0
   14.4670   52.7344   91.7013 H   0  0  0  0  0  0  0  0  0  0  0  0
   13.4690   55.7830   93.2090 H   0  0  0  0  0  0  0  0  0  0  0  0
   13.4538   54.3903   95.8538 H   0  0  0  0  0  0  0  0  0  0  0  0
   14.1779   56.0065   95.5236 H   0  0  0  0  0  0  0  0  0  0  0  0
   12.9200   57.9261   96.0023 H   0  0  0  0  0  0  0  0  0  0  0  0
   10.7560   58.9937   96.6125 H   0  0  0  0  0  0  0  0  0  0  0  0
    7.6713   57.2231   98.7085 H   0  0  0  0  0  0  0  0  0  0  0  0
    5.9127   59.7957   95.8972 H   0  0  0  0  0  0  0  0  0  0  0  0
    8.7205   55.2399   95.9602 H   0  0  0  0  0  0  0  0  0  0  0  0
   10.8813   54.1751   95.3462 H   0  0  0  0  0  0  0  0  0  0  0  0
  1  2  1  0
  2  3  1  0
  2  4  1  0
  2  5  1  0
  5  6  1  0
  6  7  2  0
  6  8  1  0
  8  9  1  0
  9 10  1  0
 10 11  1  0
 10 12  1  0
 12 13  1  0
 13 14  1  0
 14 15  2  0
 14 16  1  0
 16 17  1  0
 17 18  1  0
 18 19  2  0
 19 20  1  0
 20 21  2  0
 21 22  1  0
 22 23  2  0
 23 24  1  0
 24 25  2  0
 25 26  1  0
 21 27  1  0
 27 28  2  0
 13  8  1  0
 28 18  1  0
 26 22  1  0
  1 29  1  0
  1 30  1  0
  1 31  1  0
  3 32  1  0
  3 33  1  0
  3 34  1  0
  4 35  1  0
  4 36  1  0
  4 37  1  0
  5 38  1  0
  5 39  1  0
  9 40  1  0
  9 41  1  0
 10 42  1  6
 11 43  1  0
 12 44  1  0
 12 45  1  0
 13 46  1  1
 16 47  1  0
 17 48  1  0
 17 49  1  0
 19 50  1  0
 20 51  1  0
 23 52  1  0
 25 53  1  0
 27 54  1  0
 28 55  1  0
M  END
>  <meeko>  (4) 
{"is_sidechain": [false], "free_energy": -6.752, "intermolecular_energy": -9.097, "internal_energy": -1.2}

$$$$
4w9c_ligand
     RDKit          3D

 55 57  0  0  0  0  0  0  0  0999 V2000
   12.1270   52.1500   88.2090 C   0  0  0  0  0  0  0  0  0  0  0  0
   10.6710   52.5570   88.4810 C   0  0  0  0  0  0  0  0  0  0  0  0
   10.0880   53.2230   87.2230 C   0  0  0  0  0  0  0  0  0  0  0  0
    9.8540   51.2830   88.7730 C   0  0  0  0  0  0  0  0  0  0  0  0
   10.5660   53.4870   89.7170 C   0  0  0  0  0  0  0  0  0  0  0  0
   11.5460   53.1650   90.8380 C   0  0  0  0  0  0  0  0  0  0  0  0
   11.3950   52.1550   91.5280 O   0  0  0  0  0  0  0  0  0  0  0  0
   12.6150   54.0090   91.0490 N   0  0  0  0  0  0  0  0  0  0  0  0
   12.8050   55.1710   90.1910 C   0  0  0  0  0  0  0  0  0  0  0  0
   14.3230   55.3140   90.0920 C   0  0  2  0  0  0  0  0  0  0  0  0
   14.8660   54.4110   89.1310 O   0  0  0  0  0  0  0  0  0  0  0  0
   14.7930   54.8840   91.4730 C   0  0  0  0  0  0  0  0  0  0  0  0
   13.8240   53.7530   91.8540 C   0  0  1  0  0  0  0  0  0  0  0  0
   13.5680   53.8310   93.3710 C   0  0  0  0  0  0  0  0  0  0  0  0
   13.6990   52.8540   94.1040 O   0  0  0  0  0  0  0  0  0  0  0  0
   13.2940   55.0960   93.8400 N   0  0  0  0  0  0  0  0  0  0  0  0
   13.2530   55.4120   95.2480 C   0  0  0  0  0  0  0  0  0  0  0  0
   11.9400   56.0670   95.5950 C   0  0  0  0  0  0  0  0  0  0  0  0
   11.8840   57.4180   95.9510 C   0  0  0  0  0  0  0  0  0  0  0  0
   10.6650   58.0100   96.3030 C   0  0  0  0  0  0  0  0  0  0  0  0
    9.4770   57.2650   96.3140 C   0  0  0  0  0  0  0  0  0  0  0  0
    8.2140   57.8900   96.6830 C   0  0  0  0  0  0  0  0  0  0  0  0
    7.3070   58.7270   96.0670 C   0  0  0  0  0  0  0  0  0  0  0  0
    6.2620   59.0110   96.9130 N   0  0  0  0  0  0  0  0  0  0  0  0
    6.5660   58.3410   98.0000 C   0  0  0  0  0  0  0  0  0  0  0  0
    7.7300   57.6400   97.9430 O   0  0  0  0  0  0  0  0  0  0  0  0
    9.5430   55.9090   95.9630 C   0  0  0  0  0  0  0  0  0  0  0  0
   10.7590   55.3150   95.6110 C   0  0  0  0  0  0  0  0  0  0  0  0
   12.6514   52.0034   89.1648 H   0  0  0  0  0  0  0  0  0  0  0  0
   12.1443   51.2126   87.6337 H   0  0  0  0  0  0  0  0  0  0  0  0
   12.6279   52.9426   87.6337 H   0  0  0  0  0  0  0  0  0  0  0  0
    9.3904   54.0200   87.5199 H   0  0  0  0  0  0  0  0  0  0  0  0
   10.9042   53.6542   86.6247 H   0  0  0  0  0  0  0  0  0  0  0  0
    9.5526   52.4711   86.6247 H   0  0  0  0  0  0  0  0  0  0  0  0
    9.7657   51.1453   89.8608 H   0  0  0  0  0  0  0  0  0  0  0  0
    8.8506   51.3821   88.3333 H   0  0  0  0  0  0  0  0  0  0  0  0
   10.3627   50.4124   88.3333 H   0  0  0  0  0  0  0  0  0  0  0  0
   10.7506   54.5197   89.3860 H   0  0  0  0  0  0  0  0  0  0  0  0
    9.5581   53.3407   90.1325 H   0  0  0  0  0  0  0  0  0  0  0  0
   12.3629   55.0004   89.1983 H   0  0  0  0  0  0  0  0  0  0  0  0
   12.3200   56.0746   90.5889 H   0  0  0  0  0  0  0  0  0  0  0  0
   14.6279   56.3274   89.7919 H   0  0  0  0  0  0  0  0  0  0  0  0
   15.1050   54.9250   88.3390 H   0  0  0  0  0  0  0  0  0  0  0  0
   15.8293   54.5169   91.4376 H   0  0  0  0  0  0  0  0  0  0  0  0
   14.7901   55.7097   92.1997 H   0  0  0  0  0  0  0  0  0  0  0  0
   14.1996   52.7390   91.6521 H   0  0  0  0  0  0  0  0  0  0  0  0
   13.3310   55.8610   93.1760 H   0  0  0  0  0  0  0  0  0  0  0  0
   13.3631   54.4862   95.8318 H   0  0  0  0  0  0  0  0  0  0  0  0
   14.0741   56.1045   95.4852 H   0  0  0  0  0  0  0  0  0  0  0  0
   12.8045   58.0202   95.9545 H   0  0  0  0  0  0  0  0  0  0  0  0
   10.6388   59.0755   96.5750 H   0  0  0  0  0  0  0  0  0  0  0  0
    7.4063   59.1132   95.0418 H   0  0  0  0  0  0  0  0  0  0  0  0
    5.9247   58.3461   98.8937 H   0  0  0  0  0  0  0  0  0  0  0  0
    8.6246   55.3036   95.9646 H   0  0  0  0  0  0  0  0  0  0  0  0
   10.7880   54.2482   95.3445 H   0  0  0  0  0  0  0  0  0  0  0  0
  1  2  1  0
  2  3  1  0
  2  4  1  0
  2  5  1  0
  5  6  1  0
  6  7  2  0
  6  8  1  0
  8  9  1  0
  9 10  1  0
 10 11  1  0
 10 12  1  0
 12 13  1  0
 13 14  1  0
 14 15  2  0
 14 16  1  0
 16 17  1  0
 17 18  1  0
 18 19  2  0
 19 20  1  0
 20 21  2  0
 21 22  1  0
 22 23  2  0
 23 24  1  0
 24 25  2  0
 25 26  1  0
 21 27  1  0
 27 28  2  0
 13  8  1  0
 28 18  1  0
 26 22  1  0
  1 29  1  0
  1 30  1  0
  1 31  1  0
  3 32  1  0
  3 33  1  0
  3 34  1  0
  4 35  1  0
  4 36  1  0
  4 37  1  0
  5 38  1  0
  5 39  1  0
  9 40  1  0
  9 41  1  0
 10 42  1  6
 11 43  1  0
 12 44  1  0
 12 45  1  0
 13 46  1  1
 16 47  1  0
 17 48  1  0
 17 49  1  0
 19 50  1  0
 20 51  1  0
 23 52  1  0
 25 53  1  0
 27 54  1  0
 28 55  1  0
M  END
>  <meeko>  (5) 
{"is_sidechain": [false], "free_energy": -6.742, "intermolecular_energy": -9.439, "internal_energy": -0.844}

$$$$
4w9c_ligand
     RDKit          3D

 55 57  0  0  0  0  0  0  0  0999 V2000
   11.7560   54.0420   93.0290 C   0  0  0  0  0  0  0  0  0  0  0  0
   13.1700   53.8050   93.5800 C   0  0  0  0  0  0  0  0  0  0  0  0
   14.2040   54.2350   92.5250 C   0  0  0  0  0  0  0  0  0  0  0  0
   13.3630   54.6890   94.8290 C   0  0  0  0  0  0  0  0  0  0  0  0
   13.3720   52.3280   94.0040 C   0  0  0  0  0  0  0  0  0  0  0  0
   13.6120   51.3640   92.8500 C   0  0  0  0  0  0  0  0  0  0  0  0
   14.7580   51.0240   92.5490 O   0  0  0  0  0  0  0  0  0  0  0  0
   12.5250   50.8620   92.1670 N   0  0  0  0  0  0  0  0  0  0  0  0
   11.4360   50.2300   92.8990 C   0  0  0  0  0  0  0  0  0  0  0  0
   10.9500   49.1260   91.9600 C   0  0  2  0  0  0  0  0  0  0  0  0
   11.7850   47.9730   92.0430 O   0  0  0  0  0  0  0  0  0  0  0  0
   11.1290   49.7500   90.5850 C   0  0  0  0  0  0  0  0  0  0  0  0
   12.4160   50.5790   90.7230 C   0  0  1  0  0  0  0  0  0  0  0  0
   12.2600   51.8520   89.8690 C   0  0  0  0  0  0  0  0  0  0  0  0
   13.0320   52.8030   89.9730 O   0  0  0  0  0  0  0  0  0  0  0  0
   11.2670   51.7850   88.9180 N   0  0  0  0  0  0  0  0  0  0  0  0
   11.1170   52.7740   87.8790 C   0  0  0  0  0  0  0  0  0  0  0  0
   12.0070   52.4390   86.7100 C   0  0  0  0  0  0  0  0  0  0  0  0
   12.9350   53.3660   86.2230 C   0  0  0  0  0  0  0  0  0  0  0  0
   13.7360   53.0570   85.1180 C   0  0  0  0  0  0  0  0  0  0  0  0
   13.6240   51.8190   84.4690 C   0  0  0  0  0  0  0  0  0  0  0  0
   14.4610   51.5080   83.3170 C   0  0  0  0  0  0  0  0  0  0  0  0
   14.3560   50.6930   82.2090 C   0  0  0  0  0  0  0  0  0  0  0  0
   15.4820   50.7950   81.4280 N   0  0  0  0  0  0  0  0  0  0  0  0
   16.2210   51.6610   82.0800 C   0  0  0  0  0  0  0  0  0  0  0  0
   15.6770   52.1390   83.2320 O   0  0  0  0  0  0  0  0  0  0  0  0
   12.6860   50.8980   84.9570 C   0  0  0  0  0  0  0  0  0  0  0  0
   11.8850   51.2040   86.0610 C   0  0  0  0  0  0  0  0  0  0  0  0
   11.0515   54.1601   93.8655 H   0  0  0  0  0  0  0  0  0  0  0  0
   11.7504   54.9536   92.4134 H   0  0  0  0  0  0  0  0  0  0  0  0
   11.4534   53.1820   92.4134 H   0  0  0  0  0  0  0  0  0  0  0  0
   15.1071   54.6105   93.0284 H   0  0  0  0  0  0  0  0  0  0  0  0
   14.4670   53.3717   91.8961 H   0  0  0  0  0  0  0  0  0  0  0  0
   13.7772   55.0302   91.8961 H   0  0  0  0  0  0  0  0  0  0  0  0
   13.2297   54.0786   95.7344 H   0  0  0  0  0  0  0  0  0  0  0  0
   14.3759   55.1179   94.8217 H   0  0  0  0  0  0  0  0  0  0  0  0
   12.6210   55.5010   94.8217 H   0  0  0  0  0  0  0  0  0  0  0  0
   14.2406   52.2801   94.6773 H   0  0  0  0  0  0  0  0  0  0  0  0
   12.4349   52.0110   94.4851 H   0  0  0  0  0  0  0  0  0  0  0  0
   11.7971   49.8056   93.8474 H   0  0  0  0  0  0  0  0  0  0  0  0
   10.6387   50.9390   93.1668 H   0  0  0  0  0  0  0  0  0  0  0  0
    9.9252   48.8008   92.1926 H   0  0  0  0  0  0  0  0  0  0  0  0
   11.7360   47.6330   92.9540 H   0  0  0  0  0  0  0  0  0  0  0  0
   11.2438   48.9736   89.8143 H   0  0  0  0  0  0  0  0  0  0  0  0
   10.2640   50.3557   90.2769 H   0  0  0  0  0  0  0  0  0  0  0  0
   13.3276   50.0744   90.3702 H   0  0  0  0  0  0  0  0  0  0  0  0
   10.7650   50.9090   88.8260 H   0  0  0  0  0  0  0  0  0  0  0  0
   10.0693   52.7935   87.5443 H   0  0  0  0  0  0  0  0  0  0  0  0
   11.4023   53.7590   88.2769 H   0  0  0  0  0  0  0  0  0  0  0  0
   13.0357   54.3458   86.7128 H   0  0  0  0  0  0  0  0  0  0  0  0
   14.4643   53.7962   84.7531 H   0  0  0  0  0  0  0  0  0  0  0  0
   13.4918   50.0513   81.9824 H   0  0  0  0  0  0  0  0  0  0  0  0
   17.2110   51.9784   81.7206 H   0  0  0  0  0  0  0  0  0  0  0  0
   12.5789   49.9205   84.4639 H   0  0  0  0  0  0  0  0  0  0  0  0
   11.1521   50.4680   86.4233 H   0  0  0  0  0  0  0  0  0  0  0  0
  1  2  1  0
  2  3  1  0
  2  4  1  0
  2  5  1  0
  5  6  1  0
  6  7  2  0
  6  8  1  0
  8  9  1  0
  9 10  1  0
 10 11  1  0
 10 12  1  0
 12 13  1  0
 13 14  1  0
 14 15  2  0
 14 16  1  0
 16 17  1  0
 17 18  1  0
 18 19  2  0
 19 20  1  0
 20 21  2  0
 21 22  1  0
 22 23  2  0
 23 24  1  0
 24 25  2  0
 25 26  1  0
 21 27  1  0
 27 28  2  0
 13  8  1  0
 28 18  1  0
 26 22  1  0
  1 29  1  0
  1 30  1  0
  1 31  1  0
  3 32  1  0
  3 33  1  0
  3 34  1  0
  4 35  1  0
  4 36  1  0
  4 37  1  0
  5 38  1  0
  5 39  1  0
  9 40  1  0
  9 41  1  0
 10 42  1  1
 11 43  1  0
 12 44  1  0
 12 45  1  0
 13 46  1  6
 16 47  1  0
 17 48  1  0
 17 49  1  0
 19 50  1  0
 20 51  1  0
 23 52  1  0
 25 53  1  0
 27 54  1  0
 28 55  1  0
M  END
>  <meeko>  (6) 
{"is_sidechain": [false], "free_energy": -6.527, "intermolecular_energy": -9.134, "internal_energy": -0.839}

$$$$
4w9c_ligand
     RDKit          3D

 55 57  0  0  0  0  0  0  0  0999 V2000
   16.7110   51.1150   82.4680 C   0  0  0  0  0  0  0  0  0  0  0  0
   15.2660   51.6380   82.4840 C   0  0  0  0  0  0  0  0  0  0  0  0
   15.1340   52.7280   83.5620 C   0  0  0  0  0  0  0  0  0  0  0  0
   14.9620   52.2780   81.1150 C   0  0  0  0  0  0  0  0  0  0  0  0
   14.2510   50.4890   82.7110 C   0  0  0  0  0  0  0  0  0  0  0  0
   12.9310   50.9220   83.3350 C   0  0  0  0  0  0  0  0  0  0  0  0
   12.0250   51.3710   82.6300 O   0  0  0  0  0  0  0  0  0  0  0  0
   12.7610   50.7810   84.6950 N   0  0  0  0  0  0  0  0  0  0  0  0
   13.2780   49.6000   85.3730 C   0  0  0  0  0  0  0  0  0  0  0  0
   12.2630   49.3380   86.4850 C   0  0  2  0  0  0  0  0  0  0  0  0
   11.1150   48.6520   85.9880 O   0  0  0  0  0  0  0  0  0  0  0  0
   11.8440   50.7410   86.8960 C   0  0  0  0  0  0  0  0  0  0  0  0
   11.8370   51.5230   85.5740 C   0  0  1  0  0  0  0  0  0  0  0  0
   12.3050   52.9620   85.8650 C   0  0  0  0  0  0  0  0  0  0  0  0
   11.7220   53.9410   85.4050 O   0  0  0  0  0  0  0  0  0  0  0  0
   13.3480   53.0540   86.7600 N   0  0  0  0  0  0  0  0  0  0  0  0
   13.7730   54.3080   87.3320 C   0  0  0  0  0  0  0  0  0  0  0  0
   13.7350   54.2320   88.8360 C   0  0  0  0  0  0  0  0  0  0  0  0
   12.7310   53.5150   89.4950 C   0  0  0  0  0  0  0  0  0  0  0  0
   12.6860   53.4760   90.8930 C   0  0  0  0  0  0  0  0  0  0  0  0
   13.6370   54.1580   91.6650 C   0  0  0  0  0  0  0  0  0  0  0  0
   13.5790   54.1130   93.1210 C   0  0  0  0  0  0  0  0  0  0  0  0
   13.4210   55.0360   94.1340 C   0  0  0  0  0  0  0  0  0  0  0  0
   13.4480   54.4160   95.3590 N   0  0  0  0  0  0  0  0  0  0  0  0
   13.6160   53.1510   95.0510 C   0  0  0  0  0  0  0  0  0  0  0  0
   13.7060   52.8840   93.7200 O   0  0  0  0  0  0  0  0  0  0  0  0
   14.6350   54.8820   90.9990 C   0  0  0  0  0  0  0  0  0  0  0  0
   14.6830   54.9220   89.6020 C   0  0  0  0  0  0  0  0  0  0  0  0
   17.0659   50.9865   83.5012 H   0  0  0  0  0  0  0  0  0  0  0  0
   16.7450   50.1475   81.9457 H   0  0  0  0  0  0  0  0  0  0  0  0
   17.3564   51.8366   81.9457 H   0  0  0  0  0  0  0  0  0  0  0  0
   15.1899   52.2664   84.5589 H   0  0  0  0  0  0  0  0  0  0  0  0
   15.9505   53.4564   83.4489 H   0  0  0  0  0  0  0  0  0  0  0  0
   14.1672   53.2404   83.4489 H   0  0  0  0  0  0  0  0  0  0  0  0
   14.4945   53.2622   81.2661 H   0  0  0  0  0  0  0  0  0  0  0  0
   15.8986   52.3996   80.5510 H   0  0  0  0  0  0  0  0  0  0  0  0
   14.2760   51.6289   80.5510 H   0  0  0  0  0  0  0  0  0  0  0  0
   14.0343   50.0255   81.7372 H   0  0  0  0  0  0  0  0  0  0  0  0
   14.7201   49.7956   83.4246 H   0  0  0  0  0  0  0  0  0  0  0  0
   13.3314   48.7450   84.6830 H   0  0  0  0  0  0  0  0  0  0  0  0
   14.2986   49.7450   85.7569 H   0  0  0  0  0  0  0  0  0  0  0  0
   12.6810   48.7219   87.2947 H   0  0  0  0  0  0  0  0  0  0  0  0
   10.3250   49.1280   86.2980 H   0  0  0  0  0  0  0  0  0  0  0  0
   10.8430   50.7333   87.3521 H   0  0  0  0  0  0  0  0  0  0  0  0
   12.5148   51.1823   87.6479 H   0  0  0  0  0  0  0  0  0  0  0  0
   10.8503   51.6055   85.0949 H   0  0  0  0  0  0  0  0  0  0  0  0
   13.6800   52.1940   87.1810 H   0  0  0  0  0  0  0  0  0  0  0  0
   14.8001   54.5272   87.0049 H   0  0  0  0  0  0  0  0  0  0  0  0
   13.0939   55.1051   86.9952 H   0  0  0  0  0  0  0  0  0  0  0  0
   11.9706   52.9774   88.9095 H   0  0  0  0  0  0  0  0  0  0  0  0
   11.8926   52.9017   91.3937 H   0  0  0  0  0  0  0  0  0  0  0  0
   13.2915   56.1177   93.9817 H   0  0  0  0  0  0  0  0  0  0  0  0
   13.6795   52.3624   95.8153 H   0  0  0  0  0  0  0  0  0  0  0  0
   15.3913   55.4265   91.5834 H   0  0  0  0  0  0  0  0  0  0  0  0
   15.4725   55.5007   89.1001 H   0  0  0  0  0  0  0  0  0  0  0  0
  1  2  1  0
  2  3  1  0
  2  4  1  0
  2  5  1  0
  5  6  1  0
  6  7  2  0
  6  8  1  0
  8  9  1  0
  9 10  1  0
 10 11  1  0
 10 12  1  0
 12 13  1  0
 13 14  1  0
 14 15  2  0
 14 16  1  0
 16 17  1  0
 17 18  1  0
 18 19  2  0
 19 20  1  0
 20 21  2  0
 21 22  1  0
 22 23  2  0
 23 24  1  0
 24 25  2  0
 25 26  1  0
 21 27  1  0
 27 28  2  0
 13  8  1  0
 28 18  1  0
 26 22  1  0
  1 29  1  0
  1 30  1  0
  1 31  1  0
  3 32  1  0
  3 33  1  0
  3 34  1  0
  4 35  1  0
  4 36  1  0
  4 37  1  0
  5 38  1  0
  5 39  1  0
  9 40  1  0
  9 41  1  0
 10 42  1  1
 11 43  1  0
 12 44  1  0
 12 45  1  0
 13 46  1  6
 16 47  1  0
 17 48  1  0
 17 49  1  0
 19 50  1  0
 20 51  1  0
 23 52  1  0
 25 53  1  0
 27 54  1  0
 28 55  1  0
M  END
>  <meeko>  (7) 
{"is_sidechain": [false], "free_energy": -6.452, "intermolecular_energy": -8.803, "internal_energy": -1.062}

$$$$
4w9c_ligand
     RDKit          3D

 55 57  0  0  0  0  0  0  0  0999 V2000
   10.1880   56.3910   95.8490 C   0  0  0  0  0  0  0  0  0  0  0  0
   11.6960   56.6280   96.0210 C   0  0  0  0  0  0  0  0  0  0  0  0
   11.9840   58.1380   95.9400 C   0  0  0  0  0  0  0  0  0  0  0  0
   12.1120   56.1350   97.4210 C   0  0  0  0  0  0  0  0  0  0  0  0
   12.5160   55.8370   94.9700 C   0  0  0  0  0  0  0  0  0  0  0  0
   12.2340   54.3400   94.9420 C   0  0  0  0  0  0  0  0  0  0  0  0
   12.4390   53.6480   95.9420 O   0  0  0  0  0  0  0  0  0  0  0  0
   11.7230   53.7810   93.7910 N   0  0  0  0  0  0  0  0  0  0  0  0
   10.2840   53.7590   93.5700 C   0  0  0  0  0  0  0  0  0  0  0  0
   10.0460   52.4530   92.8140 C   0  0  2  0  0  0  0  0  0  0  0  0
   10.0110   51.3380   93.7030 O   0  0  0  0  0  0  0  0  0  0  0  0
   11.2880   52.3360   91.9450 C   0  0  0  0  0  0  0  0  0  0  0  0
   12.4110   52.8940   92.8340 C   0  0  1  0  0  0  0  0  0  0  0  0
   13.4120   53.6390   91.9310 C   0  0  0  0  0  0  0  0  0  0  0  0
   14.5810   53.8160   92.2640 O   0  0  0  0  0  0  0  0  0  0  0  0
   12.9180   53.9840   90.6920 N   0  0  0  0  0  0  0  0  0  0  0  0
   13.7600   54.4770   89.6300 C   0  0  0  0  0  0  0  0  0  0  0  0
   13.3580   53.8550   88.3170 C   0  0  0  0  0  0  0  0  0  0  0  0
   13.9570   54.2560   87.1180 C   0  0  0  0  0  0  0  0  0  0  0  0
   13.5540   53.6950   85.9000 C   0  0  0  0  0  0  0  0  0  0  0  0
   12.5400   52.7280   85.8520 C   0  0  0  0  0  0  0  0  0  0  0  0
   12.1270   52.1520   84.5780 C   0  0  0  0  0  0  0  0  0  0  0  0
   12.6110   51.1780   83.7290 C   0  0  0  0  0  0  0  0  0  0  0  0
   11.7940   51.0460   82.6330 N   0  0  0  0  0  0  0  0  0  0  0  0
   10.8510   51.9310   82.8540 C   0  0  0  0  0  0  0  0  0  0  0  0
   10.9790   52.6420   84.0060 O   0  0  0  0  0  0  0  0  0  0  0  0
   11.9380   52.3380   87.0560 C   0  0  0  0  0  0  0  0  0  0  0  0
   12.3390   52.8960   88.2740 C   0  0  0  0  0  0  0  0  0  0  0  0
    9.7133   56.3164   96.8385 H   0  0  0  0  0  0  0  0  0  0  0  0
    9.7460   57.2307   95.2927 H   0  0  0  0  0  0  0  0  0  0  0  0
   10.0249   55.4562   95.2927 H   0  0  0  0  0  0  0  0  0  0  0  0
   12.0628   58.5513   96.9564 H   0  0  0  0  0  0  0  0  0  0  0  0
   12.9297   58.3026   95.4029 H   0  0  0  0  0  0  0  0  0  0  0  0
   11.1652   58.6391   95.4029 H   0  0  0  0  0  0  0  0  0  0  0  0
   11.6035   56.7376   98.1880 H   0  0  0  0  0  0  0  0  0  0  0  0
   11.8283   55.0786   97.5370 H   0  0  0  0  0  0  0  0  0  0  0  0
   13.2011   56.2370   97.5370 H   0  0  0  0  0  0  0  0  0  0  0  0
   12.2869   56.2480   93.9757 H   0  0  0  0  0  0  0  0  0  0  0  0
   13.5737   55.9500   95.2501 H   0  0  0  0  0  0  0  0  0  0  0  0
    9.7414   53.7613   94.5269 H   0  0  0  0  0  0  0  0  0  0  0  0
    9.9273   54.6398   93.0161 H   0  0  0  0  0  0  0  0  0  0  0  0
    9.0930   52.4567   92.2647 H   0  0  0  0  0  0  0  0  0  0  0  0
   10.0320   50.5260   93.1660 H   0  0  0  0  0  0  0  0  0  0  0  0
   11.4832   51.2865   91.6795 H   0  0  0  0  0  0  0  0  0  0  0  0
   11.1924   52.8757   90.9913 H   0  0  0  0  0  0  0  0  0  0  0  0
   12.9883   52.1322   93.3783 H   0  0  0  0  0  0  0  0  0  0  0  0
   11.9780   53.6840   90.4630 H   0  0  0  0  0  0  0  0  0  0  0  0
   13.6562   55.5699   89.5614 H   0  0  0  0  0  0  0  0  0  0  0  0
   14.8052   54.2125   89.8479 H   0  0  0  0  0  0  0  0  0  0  0  0
   14.7505   55.0177   87.1322 H   0  0  0  0  0  0  0  0  0  0  0  0
   14.0400   54.0176   84.9674 H   0  0  0  0  0  0  0  0  0  0  0  0
   13.5235   50.5896   83.9053 H   0  0  0  0  0  0  0  0  0  0  0  0
   10.0152   52.0870   82.1561 H   0  0  0  0  0  0  0  0  0  0  0  0
   11.1388   51.5823   87.0428 H   0  0  0  0  0  0  0  0  0  0  0  0
   11.8494   52.5786   89.2065 H   0  0  0  0  0  0  0  0  0  0  0  0
  1  2  1  0
  2  3  1  0
  2  4  1  0
  2  5  1  0
  5  6  1  0
  6  7  2  0
  6  8  1  0
  8  9  1  0
  9 10  1  0
 10 11  1  0
 10 12  1  0
 12 13  1  0
 13 14  1  0
 14 15  2  0
 14 16  1  0
 16 17  1  0
 17 18  1  0
 18 19  2  0
 19 20  1  0
 20 21  2  0
 21 22  1  0
 22 23  2  0
 23 24  1  0
 24 25  2  0
 25 26  1  0
 21 27  1  0
 27 28  2  0
 13  8  1  0
 28 18  1  0
 26 22  1  0
  1 29  1  0
  1 30  1  0
  1 31  1  0
  3 32  1  0
  3 33  1  0
  3 34  1  0
  4 35  1  0
  4 36  1  0
  4 37  1  0
  5 38  1  0
  5 39  1  0
  9 40  1  0
  9 41  1  0
 10 42  1  6
 11 43  1  0
 12 44  1  0
 12 45  1  0
 13 46  1  1
 16 47  1  0
 17 48  1  0
 17 49  1  0
 19 50  1  0
 20 51  1  0
 23 52  1  0
 25 53  1  0
 27 54  1  0
 28 55  1  0
M  END
>  <meeko>  (8) 
{"is_sidechain": [false], "free_energy": -6.401, "intermolecular_energy": -9.197, "internal_energy": -0.596}

$$$$
4w9c_ligand
     RDKit          3D

 55 57  0  0  0  0  0  0  0  0999 V2000
   11.8790   57.6120   95.6700 C   0  0  0  0  0  0  0  0  0  0  0  0
   10.8320   56.7840   96.4310 C   0  0  0  0  0  0  0  0  0  0  0  0
   11.3980   56.3930   97.8070 C   0  0  0  0  0  0  0  0  0  0  0  0
    9.5840   57.6600   96.6560 C   0  0  0  0  0  0  0  0  0  0  0  0
   10.4010   55.5360   95.6190 C   0  0  0  0  0  0  0  0  0  0  0  0
    8.9650   55.0870   95.8610 C   0  0  0  0  0  0  0  0  0  0  0  0
    8.0410   55.5710   95.2040 O   0  0  0  0  0  0  0  0  0  0  0  0
    8.7230   54.1160   96.8070 N   0  0  0  0  0  0  0  0  0  0  0  0
    7.3530   53.7590   97.1490 C   0  0  0  0  0  0  0  0  0  0  0  0
    7.4190   53.4200   98.6370 C   0  0  2  0  0  0  0  0  0  0  0  0
    7.3990   54.6000   99.4380 O   0  0  0  0  0  0  0  0  0  0  0  0
    8.7860   52.7690   98.7750 C   0  0  0  0  0  0  0  0  0  0  0  0
    9.6680   53.5590   97.7940 C   0  0  1  0  0  0  0  0  0  0  0  0
   10.6860   52.5830   97.1730 C   0  0  0  0  0  0  0  0  0  0  0  0
   10.3450   51.6960   96.3950 O   0  0  0  0  0  0  0  0  0  0  0  0
   12.0010   52.8620   97.4730 N   0  0  0  0  0  0  0  0  0  0  0  0
   13.1040   52.2120   96.8080 C   0  0  0  0  0  0  0  0  0  0  0  0
   13.3250   52.8240   95.4490 C   0  0  0  0  0  0  0  0  0  0  0  0
   13.3860   52.0250   94.3020 C   0  0  0  0  0  0  0  0  0  0  0  0
   13.6230   52.5990   93.0470 C   0  0  0  0  0  0  0  0  0  0  0  0
   13.8120   53.9810   92.9110 C   0  0  0  0  0  0  0  0  0  0  0  0
   14.0610   54.5680   91.6000 C   0  0  0  0  0  0  0  0  0  0  0  0
   13.2830   55.0000   90.5460 C   0  0  0  0  0  0  0  0  0  0  0  0
   14.0730   55.4770   89.5280 N   0  0  0  0  0  0  0  0  0  0  0  0
   15.2890   55.3230   89.9960 C   0  0  0  0  0  0  0  0  0  0  0  0
   15.3690   54.7790   91.2400 O   0  0  0  0  0  0  0  0  0  0  0  0
   13.7590   54.7740   94.0650 C   0  0  0  0  0  0  0  0  0  0  0  0
   13.5210   54.2040   95.3200 C   0  0  0  0  0  0  0  0  0  0  0  0
   12.5317   58.1282   96.3894 H   0  0  0  0  0  0  0  0  0  0  0  0
   12.4845   56.9458   95.0379 H   0  0  0  0  0  0  0  0  0  0  0  0
   11.3703   58.3548   95.0379 H   0  0  0  0  0  0  0  0  0  0  0  0
   10.7697   56.8270   98.5987 H   0  0  0  0  0  0  0  0  0  0  0  0
   11.4040   55.2972   97.9031 H   0  0  0  0  0  0  0  0  0  0  0  0
   12.4250   56.7752   97.9031 H   0  0  0  0  0  0  0  0  0  0  0  0
    9.4110   57.7814   97.7355 H   0  0  0  0  0  0  0  0  0  0  0  0
    9.7411   58.6470   96.1965 H   0  0  0  0  0  0  0  0  0  0  0  0
    8.7091   57.1768   96.1965 H   0  0  0  0  0  0  0  0  0  0  0  0
   10.5126   55.7672   94.5494 H   0  0  0  0  0  0  0  0  0  0  0  0
   11.0464   54.7095   95.9513 H   0  0  0  0  0  0  0  0  0  0  0  0
    6.6726   54.6047   96.9706 H   0  0  0  0  0  0  0  0  0  0  0  0
    6.9688   52.9260   96.5420 H   0  0  0  0  0  0  0  0  0  0  0  0
    6.5729   52.7959   98.9604 H   0  0  0  0  0  0  0  0  0  0  0  0
    6.5930   55.0990   99.2150 H   0  0  0  0  0  0  0  0  0  0  0  0
    9.1629   52.8630   99.8041 H   0  0  0  0  0  0  0  0  0  0  0  0
    8.7680   51.6908   98.5580 H   0  0  0  0  0  0  0  0  0  0  0  0
   10.2519   54.3711   98.2518 H   0  0  0  0  0  0  0  0  0  0  0  0
   12.1900   53.6920   98.0220 H   0  0  0  0  0  0  0  0  0  0  0  0
   14.0148   52.3318   97.4131 H   0  0  0  0  0  0  0  0  0  0  0  0
   12.8715   51.1436   96.6873 H   0  0  0  0  0  0  0  0  0  0  0  0
   13.2467   50.9372   94.3869 H   0  0  0  0  0  0  0  0  0  0  0  0
   13.6614   51.9561   92.1552 H   0  0  0  0  0  0  0  0  0  0  0  0
   12.1837   54.9672   90.5236 H   0  0  0  0  0  0  0  0  0  0  0  0
   16.1815   55.6136   89.4223 H   0  0  0  0  0  0  0  0  0  0  0  0
   13.9068   55.8609   93.9828 H   0  0  0  0  0  0  0  0  0  0  0  0
   13.4876   54.8455   96.2130 H   0  0  0  0  0  0  0  0  0  0  0  0
  1  2  1  0
  2  3  1  0
  2  4  1  0
  2  5  1  0
  5  6  1  0
  6  7  2  0
  6  8  1  0
  8  9  1  0
  9 10  1  0
 10 11  1  0
 10 12  1  0
 12 13  1  0
 13 14  1  0
 14 15  2  0
 14 16  1  0
 16 17  1  0
 17 18  1  0
 18 19  2  0
 19 20  1  0
 20 21  2  0
 21 22  1  0
 22 23  2  0
 23 24  1  0
 24 25  2  0
 25 26  1  0
 21 27  1  0
 27 28  2  0
 13  8  1  0
 28 18  1  0
 26 22  1  0
  1 29  1  0
  1 30  1  0
  1 31  1  0
  3 32  1  0
  3 33  1  0
  3 34  1  0
  4 35  1  0
  4 36  1  0
  4 37  1  0
  5 38  1  0
  5 39  1  0
  9 40  1  0
  9 41  1  0
 10 42  1  1
 11 43  1  0
 12 44  1  0
 12 45  1  0
 13 46  1  1
 16 47  1  0
 17 48  1  0
 17 49  1  0
 19 50  1  0
 20 51  1  0
 23 52  1  0
 25 53  1  0
 27 54  1  0
 28 55  1  0
M  END
>  <meeko>  (9) 
{"is_sidechain": [false], "free_energy": -6.233, "intermolecular_energy": -8.437, "internal_energy": -1.114}

$$$$
