1r5y_ligand
     RDKit          3D

 21 22  0  0  0  0  0  0  0  0999 V2000
   19.3140   16.9700   18.2060 N   0  0  0  0  0  0  0  0  0  0  0  0
   18.3100   16.9180   19.1790 C   0  0  0  0  0  0  0  0  0  0  0  0
   17.0300   16.4640   18.8460 C   0  0  0  0  0  0  0  0  0  0  0  0
   16.0490   16.2920   19.8300 C   0  0  0  0  0  0  0  0  0  0  0  0
   16.3430   16.5310   21.1710 C   0  0  0  0  0  0  0  0  0  0  0  0
   15.3380   16.3470   22.1350 N   0  0  0  0  0  0  0  0  0  0  0  0
   15.6420   16.5420   23.3770 C   0  0  0  0  0  0  0  0  0  0  0  0
   14.7100   16.3720   24.3460 N   0  0  0  0  0  0  0  0  0  0  0  0
   16.8870   16.9110   23.7860 N   0  0  0  0  0  0  0  0  0  0  0  0
   17.9300   17.1480   22.9270 C   0  0  0  0  0  0  0  0  0  0  0  0
   19.0270   17.5270   23.3200 O   0  0  0  0  0  0  0  0  0  0  0  0
   17.6390   16.9280   21.5030 C   0  0  0  0  0  0  0  0  0  0  0  0
   18.6260   17.1020   20.5250 C   0  0  0  0  0  0  0  0  0  0  0  0
   19.6370   17.9080   17.9930 H   0  0  0  0  0  0  0  0  0  0  0  0
   19.1100   16.4320   17.3700 H   0  0  0  0  0  0  0  0  0  0  0  0
   16.7905   16.2389   17.7963 H   0  0  0  0  0  0  0  0  0  0  0  0
   15.0386   15.9658   19.5424 H   0  0  0  0  0  0  0  0  0  0  0  0
   14.7950   15.4600   24.7850 H   0  0  0  0  0  0  0  0  0  0  0  0
   14.6370   17.1180   25.0250 H   0  0  0  0  0  0  0  0  0  0  0  0
   17.0620   17.1080   24.7580 H   0  0  0  0  0  0  0  0  0  0  0  0
   19.6484   17.3832   20.8177 H   0  0  0  0  0  0  0  0  0  0  0  0
  1  2  1  0
  2  3  2  0
  3  4  1  0
  4  5  2  0
  5  6  1  0
  6  7  2  0
  7  8  1  0
  7  9  1  0
  9 10  1  0
 10 11  2  0
 10 12  1  0
 12 13  2  0
 13  2  1  0
 12  5  1  0
  1 14  1  0
  1 15  1  0
  3 16  1  0
  4 17  1  0
  8 18  1  0
  8 19  1  0
  9 20  1  0
 13 21  1  0
M  END
>  <meeko>  (1) 
{"is_sidechain": [false], "free_energy": -7.488, "intermolecular_energy": -7.925, "internal_energy": 0.0}

$$$$
1r5y_ligand
     RDKit          3D

 21 22  0  0  0  0  0  0  0  0999 V2000
   15.2480   16.3150   24.1420 N   0  0  0  0  0  0  0  0  0  0  0  0
   16.1030   16.6040   23.0740 C   0  0  0  0  0  0  0  0  0  0  0  0
   17.4560   16.8740   23.3080 C   0  0  0  0  0  0  0  0  0  0  0  0
   18.3490   17.0480   22.2440 C   0  0  0  0  0  0  0  0  0  0  0  0
   17.9140   16.9130   20.9260 C   0  0  0  0  0  0  0  0  0  0  0  0
   18.8350   17.0900   19.8800 N   0  0  0  0  0  0  0  0  0  0  0  0
   18.4180   16.9280   18.6660 C   0  0  0  0  0  0  0  0  0  0  0  0
   19.2690   17.0820   17.6230 N   0  0  0  0  0  0  0  0  0  0  0  0
   17.1340   16.5900   18.3640 N   0  0  0  0  0  0  0  0  0  0  0  0
   16.1490   16.4250   19.3040 C   0  0  0  0  0  0  0  0  0  0  0  0
   14.9900   16.1690   18.9990 O   0  0  0  0  0  0  0  0  0  0  0  0
   16.5760   16.5870   20.7020 C   0  0  0  0  0  0  0  0  0  0  0  0
   15.6760   16.4120   21.7600 C   0  0  0  0  0  0  0  0  0  0  0  0
   14.7120   15.4600   24.0260 H   0  0  0  0  0  0  0  0  0  0  0  0
   14.6710   17.0960   24.4360 H   0  0  0  0  0  0  0  0  0  0  0  0
   17.8229   16.9506   24.3422 H   0  0  0  0  0  0  0  0  0  0  0  0
   19.4016   17.2930   22.4491 H   0  0  0  0  0  0  0  0  0  0  0  0
   19.8360   17.9190   17.7290 H   0  0  0  0  0  0  0  0  0  0  0  0
   19.8240   16.2720   17.3810 H   0  0  0  0  0  0  0  0  0  0  0  0
   16.8410   16.5320   17.4020 H   0  0  0  0  0  0  0  0  0  0  0  0
   14.6343   16.1237   21.5555 H   0  0  0  0  0  0  0  0  0  0  0  0
  1  2  1  0
  2  3  2  0
  3  4  1  0
  4  5  2  0
  5  6  1  0
  6  7  2  0
  7  8  1  0
  7  9  1  0
  9 10  1  0
 10 11  2  0
 10 12  1  0
 12 13  2  0
 13  2  1  0
 12  5  1  0
  1 14  1  0
  1 15  1  0
  3 16  1  0
  4 17  1  0
  8 18  1  0
  8 19  1  0
  9 20  1  0
 13 21  1  0
M  END
>  <meeko>  (2) 
{"is_sidechain": [false], "free_energy": -6.949, "intermolecular_energy": -7.355, "internal_energy": 0.0}

$$$$
1r5y_ligand
     RDKit          3D

 21 22  0  0  0  0  0  0  0  0999 V2000
   13.1530   16.3310   15.9720 N   0  0  0  0  0  0  0  0  0  0  0  0
   14.2240   16.4810   16.8590 C   0  0  0  0  0  0  0  0  0  0  0  0
   14.1180   16.0180   18.1750 C   0  0  0  0  0  0  0  0  0  0  0  0
   15.2180   16.0520   19.0400 C   0  0  0  0  0  0  0  0  0  0  0  0
   16.4560   16.5110   18.5920 C   0  0  0  0  0  0  0  0  0  0  0  0
   17.5420   16.5300   19.4840 N   0  0  0  0  0  0  0  0  0  0  0  0
   18.6890   16.9270   19.0380 C   0  0  0  0  0  0  0  0  0  0  0  0
   19.7690   16.9590   19.8570 N   0  0  0  0  0  0  0  0  0  0  0  0
   18.8870   17.3220   17.7500 N   0  0  0  0  0  0  0  0  0  0  0  0
   17.8910   17.3720   16.8080 C   0  0  0  0  0  0  0  0  0  0  0  0
   18.0890   17.7780   15.6690 O   0  0  0  0  0  0  0  0  0  0  0  0
   16.5690   16.9170   17.2620 C   0  0  0  0  0  0  0  0  0  0  0  0
   15.4740   16.8870   16.3910 C   0  0  0  0  0  0  0  0  0  0  0  0
   13.1140   17.0380   15.2440 H   0  0  0  0  0  0  0  0  0  0  0  0
   12.2550   16.1920   16.4240 H   0  0  0  0  0  0  0  0  0  0  0  0
   13.1570   15.6218   18.5349 H   0  0  0  0  0  0  0  0  0  0  0  0
   15.1049   15.7142   20.0807 H   0  0  0  0  0  0  0  0  0  0  0  0
   20.0670   16.0210   20.1110 H   0  0  0  0  0  0  0  0  0  0  0  0
   20.5410   17.5360   19.5490 H   0  0  0  0  0  0  0  0  0  0  0  0
   19.7840   17.6790   17.4640 H   0  0  0  0  0  0  0  0  0  0  0  0
   15.5987   17.1831   15.3390 H   0  0  0  0  0  0  0  0  0  0  0  0
  1  2  1  0
  2  3  2  0
  3  4  1  0
  4  5  2  0
  5  6  1  0
  6  7  2  0
  7  8  1  0
  7  9  1  0
  9 10  1  0
 10 11  2  0
 10 12  1  0
 12 13  2  0
 13  2  1  0
 12  5  1  0
  1 14  1  0
  1 15  1  0
  3 16  1  0
  4 17  1  0
  8 18  1  0
  8 19  1  0
  9 20  1  0
 13 21  1  0
M  END
>  <meeko>  (3) 
{"is_sidechain": [false], "free_energy": -6.005, "intermolecular_energy": -6.356, "internal_energy": 0.0}

$$$$
1r5y_ligand
     RDKit          3D

 21 22  0  0  0  0  0  0  0  0999 V2000
   12.2220   15.7170   18.6290 N   0  0  0  0  0  0  0  0  0  0  0  0
   13.4690   16.0080   18.0640 C   0  0  0  0  0  0  0  0  0  0  0  0
   13.5560   16.4490   16.7400 C   0  0  0  0  0  0  0  0  0  0  0  0
   14.7800   16.8580   16.1970 C   0  0  0  0  0  0  0  0  0  0  0  0
   15.9310   16.8730   16.9810 C   0  0  0  0  0  0  0  0  0  0  0  0
   17.1440   17.2910   16.4080 N   0  0  0  0  0  0  0  0  0  0  0  0
   18.1940   17.3290   17.1620 C   0  0  0  0  0  0  0  0  0  0  0  0
   19.3860   17.7300   16.6590 N   0  0  0  0  0  0  0  0  0  0  0  0
   18.1710   16.9870   18.4810 N   0  0  0  0  0  0  0  0  0  0  0  0
   17.0510   16.5350   19.1300 C   0  0  0  0  0  0  0  0  0  0  0  0
   17.0710   16.1880   20.3050 O   0  0  0  0  0  0  0  0  0  0  0  0
   15.8260   16.4860   18.3180 C   0  0  0  0  0  0  0  0  0  0  0  0
   14.6070   16.0760   18.8690 C   0  0  0  0  0  0  0  0  0  0  0  0
   11.4680   15.6410   17.9530 H   0  0  0  0  0  0  0  0  0  0  0  0
   11.9760   16.3060   19.4170 H   0  0  0  0  0  0  0  0  0  0  0  0
   12.6502   16.4750   16.1164 H   0  0  0  0  0  0  0  0  0  0  0  0
   14.8329   17.1698   15.1434 H   0  0  0  0  0  0  0  0  0  0  0  0
   19.2800   18.1280   15.7290 H   0  0  0  0  0  0  0  0  0  0  0  0
   19.9470   18.3160   17.2630 H   0  0  0  0  0  0  0  0  0  0  0  0
   19.0260   16.9760   19.0140 H   0  0  0  0  0  0  0  0  0  0  0  0
   14.5458   15.8079   19.9341 H   0  0  0  0  0  0  0  0  0  0  0  0
  1  2  1  0
  2  3  2  0
  3  4  1  0
  4  5  2  0
  5  6  1  0
  6  7  2  0
  7  8  1  0
  7  9  1  0
  9 10  1  0
 10 11  2  0
 10 12  1  0
 12 13  2  0
 13  2  1  0
 12  5  1  0
  1 14  1  0
  1 15  1  0
  3 16  1  0
  4 17  1  0
  8 18  1  0
  8 19  1  0
  9 20  1  0
 13 21  1  0
M  END
>  <meeko>  (4) 
{"is_sidechain": [false], "free_energy": -5.947, "intermolecular_energy": -6.295, "internal_energy": 0.0}

$$$$
1r5y_ligand
     RDKit          3D

 21 22  0  0  0  0  0  0  0  0999 V2000
   18.9370   17.3320   18.2910 N   0  0  0  0  0  0  0  0  0  0  0  0
   17.6330   16.8260   18.2780 C   0  0  0  0  0  0  0  0  0  0  0  0
   16.9960   16.4930   19.4780 C   0  0  0  0  0  0  0  0  0  0  0  0
   15.6520   16.1000   19.4940 C   0  0  0  0  0  0  0  0  0  0  0  0
   14.9090   16.0730   18.3150 C   0  0  0  0  0  0  0  0  0  0  0  0
   13.5620   15.6770   18.3640 N   0  0  0  0  0  0  0  0  0  0  0  0
   12.8820   15.6920   17.2630 C   0  0  0  0  0  0  0  0  0  0  0  0
   11.5780   15.3230   17.2580 N   0  0  0  0  0  0  0  0  0  0  0  0
   13.4130   16.0760   16.0700 N   0  0  0  0  0  0  0  0  0  0  0  0
   14.7230   16.4500   15.9050 C   0  0  0  0  0  0  0  0  0  0  0  0
   15.1850   16.7450   14.8090 O   0  0  0  0  0  0  0  0  0  0  0  0
   15.5350   16.4630   17.1300 C   0  0  0  0  0  0  0  0  0  0  0  0
   16.8780   16.8560   17.1050 C   0  0  0  0  0  0  0  0  0  0  0  0
   19.6570   16.6200   18.3760 H   0  0  0  0  0  0  0  0  0  0  0  0
   19.0780   18.1020   18.9360 H   0  0  0  0  0  0  0  0  0  0  0  0
   17.5585   16.5405   20.4221 H   0  0  0  0  0  0  0  0  0  0  0  0
   15.1791   15.8105   20.4440 H   0  0  0  0  0  0  0  0  0  0  0  0
   11.2640   15.0650   18.1900 H   0  0  0  0  0  0  0  0  0  0  0  0
   10.9400   15.9630   16.8030 H   0  0  0  0  0  0  0  0  0  0  0  0
   12.8620   16.0160   15.2290 H   0  0  0  0  0  0  0  0  0  0  0  0
   17.3375   17.1879   16.1623 H   0  0  0  0  0  0  0  0  0  0  0  0
  1  2  1  0
  2  3  2  0
  3  4  1  0
  4  5  2  0
  5  6  1  0
  6  7  2  0
  7  8  1  0
  7  9  1  0
  9 10  1  0
 10 11  2  0
 10 12  1  0
 12 13  2  0
 13  2  1  0
 12  5  1  0
  1 14  1  0
  1 15  1  0
  3 16  1  0
  4 17  1  0
  8 18  1  0
  8 19  1  0
  9 20  1  0
 13 21  1  0
M  END
>  <meeko>  (5) 
{"is_sidechain": [false], "free_energy": -5.858, "intermolecular_energy": -6.201, "internal_energy": 0.0}

$$$$
1r5y_ligand
     RDKit          3D

 21 22  0  0  0  0  0  0  0  0999 V2000
   12.5220   15.5590   18.6030 N   0  0  0  0  0  0  0  0  0  0  0  0
   13.7060   16.0980   18.0880 C   0  0  0  0  0  0  0  0  0  0  0  0
   14.8780   16.0760   18.8510 C   0  0  0  0  0  0  0  0  0  0  0  0
   16.0970   16.5010   18.3080 C   0  0  0  0  0  0  0  0  0  0  0  0
   16.1730   16.9160   16.9800 C   0  0  0  0  0  0  0  0  0  0  0  0
   17.4110   17.3340   16.4640 N   0  0  0  0  0  0  0  0  0  0  0  0
   17.4670   17.6830   15.2190 C   0  0  0  0  0  0  0  0  0  0  0  0
   18.6380   18.0890   14.6720 N   0  0  0  0  0  0  0  0  0  0  0  0
   16.3830   17.6590   14.3950 N   0  0  0  0  0  0  0  0  0  0  0  0
   15.1240   17.2990   14.8040 C   0  0  0  0  0  0  0  0  0  0  0  0
   14.1580   17.3330   14.0510 O   0  0  0  0  0  0  0  0  0  0  0  0
   15.0110   16.8800   16.2090 C   0  0  0  0  0  0  0  0  0  0  0  0
   13.7880   16.4580   16.7430 C   0  0  0  0  0  0  0  0  0  0  0  0
   11.9640   16.2180   19.1370 H   0  0  0  0  0  0  0  0  0  0  0  0
   12.6430   14.6750   19.0860 H   0  0  0  0  0  0  0  0  0  0  0  0
   14.8418   15.7202   19.8912 H   0  0  0  0  0  0  0  0  0  0  0  0
   17.0011   16.5072   18.9345 H   0  0  0  0  0  0  0  0  0  0  0  0
   18.6120   18.0300   13.6580 H   0  0  0  0  0  0  0  0  0  0  0  0
   18.9910   18.9800   14.9940 H   0  0  0  0  0  0  0  0  0  0  0  0
   16.4610   17.9950   13.4490 H   0  0  0  0  0  0  0  0  0  0  0  0
   12.8941   16.4104   16.1038 H   0  0  0  0  0  0  0  0  0  0  0  0
  1  2  1  0
  2  3  2  0
  3  4  1  0
  4  5  2  0
  5  6  1  0
  6  7  2  0
  7  8  1  0
  7  9  1  0
  9 10  1  0
 10 11  2  0
 10 12  1  0
 12 13  2  0
 13  2  1  0
 12  5  1  0
  1 14  1  0
  1 15  1  0
  3 16  1  0
  4 17  1  0
  8 18  1  0
  8 19  1  0
  9 20  1  0
 13 21  1  0
M  END
>  <meeko>  (6) 
{"is_sidechain": [false], "free_energy": -5.601, "intermolecular_energy": -5.929, "internal_energy": 0.0}

$$$$
1r5y_ligand
     RDKit          3D

 21 22  0  0  0  0  0  0  0  0999 V2000
   12.2530   15.2220   18.5740 N   0  0  0  0  0  0  0  0  0  0  0  0
   12.9110   15.2960   17.3420 C   0  0  0  0  0  0  0  0  0  0  0  0
   12.2660   14.8760   16.1740 C   0  0  0  0  0  0  0  0  0  0  0  0
   12.8620   15.0530   14.9190 C   0  0  0  0  0  0  0  0  0  0  0  0
   14.0970   15.6910   14.8070 C   0  0  0  0  0  0  0  0  0  0  0  0
   14.6680   15.8550   13.5350 N   0  0  0  0  0  0  0  0  0  0  0  0
   15.7980   16.4800   13.4500 C   0  0  0  0  0  0  0  0  0  0  0  0
   16.3880   16.6700   12.2450 N   0  0  0  0  0  0  0  0  0  0  0  0
   16.4490   16.9830   14.5350 N   0  0  0  0  0  0  0  0  0  0  0  0
   15.9960   16.8500   15.8230 C   0  0  0  0  0  0  0  0  0  0  0  0
   16.6280   17.2710   16.7850 O   0  0  0  0  0  0  0  0  0  0  0  0
   14.7070   16.1580   15.9720 C   0  0  0  0  0  0  0  0  0  0  0  0
   14.1180   15.9850   17.2290 C   0  0  0  0  0  0  0  0  0  0  0  0
   11.3860   15.7500   18.6140 H   0  0  0  0  0  0  0  0  0  0  0  0
   12.8500   15.3980   19.3750 H   0  0  0  0  0  0  0  0  0  0  0  0
   11.2767   14.4000   16.2421 H   0  0  0  0  0  0  0  0  0  0  0  0
   12.3526   14.6863   14.0157 H   0  0  0  0  0  0  0  0  0  0  0  0
   15.7940   16.3440   11.4870 H   0  0  0  0  0  0  0  0  0  0  0  0
   16.7540   17.5970   12.0720 H   0  0  0  0  0  0  0  0  0  0  0  0
   17.3550   17.4100   14.4270 H   0  0  0  0  0  0  0  0  0  0  0  0
   14.6062   16.3918   18.1268 H   0  0  0  0  0  0  0  0  0  0  0  0
  1  2  1  0
  2  3  2  0
  3  4  1  0
  4  5  2  0
  5  6  1  0
  6  7  2  0
  7  8  1  0
  7  9  1  0
  9 10  1  0
 10 11  2  0
 10 12  1  0
 12 13  2  0
 13  2  1  0
 12  5  1  0
  1 14  1  0
  1 15  1  0
  3 16  1  0
  4 17  1  0
  8 18  1  0
  8 19  1  0
  9 20  1  0
 13 21  1  0
M  END
>  <meeko>  (7) 
{"is_sidechain": [false], "free_energy": -5.592, "intermolecular_energy": -5.918, "internal_energy": 0.0}

$$$$
1r5y_ligand
     RDKit          3D

 21 22  0  0  0  0  0  0  0  0999 V2000
   16.6100   17.6900   15.6570 N   0  0  0  0  0  0  0  0  0  0  0  0
   15.2240   17.4980   15.6720 C   0  0  0  0  0  0  0  0  0  0  0  0
   14.4200   18.1040   14.7010 C   0  0  0  0  0  0  0  0  0  0  0  0
   13.0490   17.8280   14.6280 C   0  0  0  0  0  0  0  0  0  0  0  0
   12.4660   16.9090   15.4990 C   0  0  0  0  0  0  0  0  0  0  0  0
   11.0880   16.6520   15.3990 N   0  0  0  0  0  0  0  0  0  0  0  0
   10.5730   15.7710   16.1940 C   0  0  0  0  0  0  0  0  0  0  0  0
    9.2510   15.4830   16.1340 N   0  0  0  0  0  0  0  0  0  0  0  0
   11.3070   15.0850   17.1140 N   0  0  0  0  0  0  0  0  0  0  0  0
   12.6500   15.2820   17.3160 C   0  0  0  0  0  0  0  0  0  0  0  0
   13.2740   14.6850   18.1850 O   0  0  0  0  0  0  0  0  0  0  0  0
   13.2850   16.2660   16.4270 C   0  0  0  0  0  0  0  0  0  0  0  0
   14.6560   16.5360   16.5070 C   0  0  0  0  0  0  0  0  0  0  0  0
   17.1100   17.1640   16.3680 H   0  0  0  0  0  0  0  0  0  0  0  0
   16.8940   18.6640   15.6260 H   0  0  0  0  0  0  0  0  0  0  0  0
   14.8708   18.8069   13.9850 H   0  0  0  0  0  0  0  0  0  0  0  0
   12.4279   18.3399   13.8782 H   0  0  0  0  0  0  0  0  0  0  0  0
    8.7970   15.9880   15.3780 H   0  0  0  0  0  0  0  0  0  0  0  0
    9.0120   14.5000   16.1340 H   0  0  0  0  0  0  0  0  0  0  0  0
   10.8530   14.4510   17.7510 H   0  0  0  0  0  0  0  0  0  0  0  0
   15.2841   15.9907   17.2268 H   0  0  0  0  0  0  0  0  0  0  0  0
  1  2  1  0
  2  3  2  0
  3  4  1  0
  4  5  2  0
  5  6  1  0
  6  7  2  0
  7  8  1  0
  7  9  1  0
  9 10  1  0
 10 11  2  0
 10 12  1  0
 12 13  2  0
 13  2  1  0
 12  5  1  0
  1 14  1  0
  1 15  1  0
  3 16  1  0
  4 17  1  0
  8 18  1  0
  8 19  1  0
  9 20  1  0
 13 21  1  0
M  END
>  <meeko>  (8) 
{"is_sidechain": [false], "free_energy": -5.517, "intermolecular_energy": -5.84, "internal_energy": 0.0}

$$$$
1r5y_ligand
     RDKit          3D

 21 22  0  0  0  0  0  0  0  0999 V2000
   14.2080   13.2400   19.4410 N   0  0  0  0  0  0  0  0  0  0  0  0
   14.1470   14.3330   18.5710 C   0  0  0  0  0  0  0  0  0  0  0  0
   15.2980   15.0800   18.2960 C   0  0  0  0  0  0  0  0  0  0  0  0
   15.2810   16.1000   17.3380 C   0  0  0  0  0  0  0  0  0  0  0  0
   14.1240   16.3660   16.6080 C   0  0  0  0  0  0  0  0  0  0  0  0
   14.1400   17.3950   15.6520 N   0  0  0  0  0  0  0  0  0  0  0  0
   13.0660   17.6030   14.9610 C   0  0  0  0  0  0  0  0  0  0  0  0
   13.0320   18.5800   14.0230 N   0  0  0  0  0  0  0  0  0  0  0  0
   11.9300   16.8670   15.1190 N   0  0  0  0  0  0  0  0  0  0  0  0
   11.7970   15.8630   16.0450 C   0  0  0  0  0  0  0  0  0  0  0  0
   10.7470   15.2510   16.1980 O   0  0  0  0  0  0  0  0  0  0  0  0
   12.9970   15.5790   16.8460 C   0  0  0  0  0  0  0  0  0  0  0  0
   13.0040   14.5570   17.8030 C   0  0  0  0  0  0  0  0  0  0  0  0
   14.9040   13.3330   20.1760 H   0  0  0  0  0  0  0  0  0  0  0  0
   14.2560   12.3400   18.9760 H   0  0  0  0  0  0  0  0  0  0  0  0
   16.2288   14.8624   18.8403 H   0  0  0  0  0  0  0  0  0  0  0  0
   16.1879   16.6964   17.1598 H   0  0  0  0  0  0  0  0  0  0  0  0
   13.2040   19.4930   14.4340 H   0  0  0  0  0  0  0  0  0  0  0  0
   13.5940   18.4200   13.1970 H   0  0  0  0  0  0  0  0  0  0  0  0
   11.1000   17.1030   14.6010 H   0  0  0  0  0  0  0  0  0  0  0  0
   12.1105   13.9322   17.9490 H   0  0  0  0  0  0  0  0  0  0  0  0
  1  2  1  0
  2  3  2  0
  3  4  1  0
  4  5  2  0
  5  6  1  0
  6  7  2  0
  7  8  1  0
  7  9  1  0
  9 10  1  0
 10 11  2  0
 10 12  1  0
 12 13  2  0
 13  2  1  0
 12  5  1  0
  1 14  1  0
  1 15  1  0
  3 16  1  0
  4 17  1  0
  8 18  1  0
  8 19  1  0
  9 20  1  0
 13 21  1  0
M  END
>  <meeko>  (9) 
{"is_sidechain": [false], "free_energy": -5.417, "intermolecular_energy": -5.734, "internal_energy": 0.0}

$$$$
