2cet_ligand
     RDKit          3D

 43 45  0  0  0  0  0  0  0  0999 V2000
    0.2280    5.9510    7.9980 O   0  0  0  0  0  0  0  0  0  0  0  0
    0.3740    7.1850    8.7060 C   0  0  0  0  0  0  0  0  0  0  0  0
   -0.9180    7.4800    9.5010 C   0  0  2  0  0  0  0  0  0  0  0  0
   -1.6270    8.7380    8.8840 C   0  0  1  0  0  0  0  0  0  0  0  0
   -2.8940    8.3300    8.3370 O   0  0  0  0  0  0  0  0  0  0  0  0
   -1.9000    9.8850    9.8790 C   0  0  2  0  0  0  0  0  0  0  0  0
   -2.2180   11.0940    9.1720 O   0  0  0  0  0  0  0  0  0  0  0  0
   -0.6970   10.1430   10.7870 C   0  0  1  0  0  0  0  0  0  0  0  0
   -0.9920   11.1730   11.7370 O   0  0  0  0  0  0  0  0  0  0  0  0
   -0.3860    8.8580   11.4860 C   0  0  0  0  0  0  0  0  0  0  0  0
   -0.0100    8.6570   12.7530 N   0  0  0  0  0  0  0  0  0  0  0  0
    0.0540    7.3070   13.0480 C   0  0  0  0  0  0  0  0  0  0  0  0
    0.4380    6.7850   14.3780 C   0  0  0  0  0  0  0  0  0  0  0  0
   -0.7030    6.9220   15.3830 C   0  0  0  0  0  0  0  0  0  0  0  0
   -1.7960    5.9220   15.1100 C   0  0  0  0  0  0  0  0  0  0  0  0
   -1.5660    4.5510   15.2960 C   0  0  0  0  0  0  0  0  0  0  0  0
   -2.5700    3.6230   15.0180 C   0  0  0  0  0  0  0  0  0  0  0  0
   -3.8100    4.0540   14.5520 C   0  0  0  0  0  0  0  0  0  0  0  0
   -4.0480    5.4140   14.3610 C   0  0  0  0  0  0  0  0  0  0  0  0
   -3.0450    6.3440   14.6380 C   0  0  0  0  0  0  0  0  0  0  0  0
   -0.3050    6.6700   11.8790 C   0  0  0  0  0  0  0  0  0  0  0  0
   -0.5690    7.6490   10.9370 N   0  0  0  0  0  0  0  0  0  0  0  0
    0.2720    5.2340    8.6620 H   0  0  0  0  0  0  0  0  0  0  0  0
    1.2231    7.1104    9.4013 H   0  0  0  0  0  0  0  0  0  0  0  0
    0.5568    7.9991    7.9892 H   0  0  0  0  0  0  0  0  0  0  0  0
   -1.6317    6.6456    9.4340 H   0  0  0  0  0  0  0  0  0  0  0  0
   -0.9307    9.1301    8.1281 H   0  0  0  0  0  0  0  0  0  0  0  0
   -3.1570    7.4990    8.7770 H   0  0  0  0  0  0  0  0  0  0  0  0
   -2.7524    9.5783   10.5030 H   0  0  0  0  0  0  0  0  0  0  0  0
   -1.5150   11.2470    8.5130 H   0  0  0  0  0  0  0  0  0  0  0  0
    0.1665   10.4826   10.1961 H   0  0  0  0  0  0  0  0  0  0  0  0
   -1.8770   11.5100   11.4850 H   0  0  0  0  0  0  0  0  0  0  0  0
    0.1530    9.4340   13.3920 H   0  0  0  0  0  0  0  0  0  0  0  0
    0.7039    5.7220   14.2817 H   0  0  0  0  0  0  0  0  0  0  0  0
    1.2937    7.3708   14.7450 H   0  0  0  0  0  0  0  0  0  0  0  0
   -0.3096    6.7551   16.3966 H   0  0  0  0  0  0  0  0  0  0  0  0
   -1.1267    7.9330   15.2915 H   0  0  0  0  0  0  0  0  0  0  0  0
   -0.5884    4.2054   15.6632 H   0  0  0  0  0  0  0  0  0  0  0  0
   -2.3822    2.5494   15.1670 H   0  0  0  0  0  0  0  0  0  0  0  0
   -4.6011    3.3212   14.3348 H   0  0  0  0  0  0  0  0  0  0  0  0
   -5.0267    5.7544   13.9918 H   0  0  0  0  0  0  0  0  0  0  0  0
   -3.2369    7.4162   14.4845 H   0  0  0  0  0  0  0  0  0  0  0  0
   -0.3697    5.5830   11.7236 H   0  0  0  0  0  0  0  0  0  0  0  0
  1  2  1  0
  2  3  1  0
  3  4  1  0
  4  5  1  0
  4  6  1  0
  6  7  1  0
  6  8  1  0
  8  9  1  0
  8 10  1  0
 10 11  2  0
 11 12  1  0
 12 13  1  0
 13 14  1  0
 14 15  1  0
 15 16  2  0
 16 17  1  0
 17 18  2  0
 18 19  1  0
 19 20  2  0
 12 21  2  0
 21 22  1  0
 22  3  1  0
 22 10  1  0
 20 15  1  0
  1 23  1  0
  2 24  1  0
  2 25  1  0
  3 26  1  1
  4 27  1  6
  5 28  1  0
  6 29  1  1
  7 30  1  0
  8 31  1  6
  9 32  1  0
 11 33  1  0
 13 34  1  0
 13 35  1  0
 14 36  1  0
 14 37  1  0
 16 38  1  0
 17 39  1  0
 18 40  1  0
 19 41  1  0
 20 42  1  0
 21 43  1  0
M  CHG  1  11   1
M  END
>  <meeko>  (1) 
{"is_sidechain": [false], "free_energy": -8.04, "intermolecular_energy": -10.86, "internal_energy": -0.61}

$$$$
2cet_ligand
     RDKit          3D

 43 45  0  0  0  0  0  0  0  0999 V2000
    0.0290   12.8480    8.7300 O   0  0  0  0  0  0  0  0  0  0  0  0
    0.4650   11.7520    9.5380 C   0  0  0  0  0  0  0  0  0  0  0  0
    0.1060   10.4210    8.8390 C   0  0  2  0  0  0  0  0  0  0  0  0
   -1.1020   10.6600    7.8640 C   0  0  1  0  0  0  0  0  0  0  0  0
   -0.6550   10.4370    6.5140 O   0  0  0  0  0  0  0  0  0  0  0  0
   -2.3230    9.7500    8.1050 C   0  0  2  0  0  0  0  0  0  0  0  0
   -3.4740   10.2660    7.4180 O   0  0  0  0  0  0  0  0  0  0  0  0
   -2.6490    9.6230    9.5940 C   0  0  1  0  0  0  0  0  0  0  0  0
   -3.7500    8.7300    9.7970 O   0  0  0  0  0  0  0  0  0  0  0  0
   -1.4210    9.1040   10.2720 C   0  0  0  0  0  0  0  0  0  0  0  0
   -1.3190    8.2090   11.2600 N   0  0  0  0  0  0  0  0  0  0  0  0
    0.0040    7.9010   11.5210 C   0  0  0  0  0  0  0  0  0  0  0  0
    0.4230    6.9360   12.5610 C   0  0  0  0  0  0  0  0  0  0  0  0
    0.1180    7.4570   13.9640 C   0  0  0  0  0  0  0  0  0  0  0  0
   -1.2740    7.0790   14.3980 C   0  0  0  0  0  0  0  0  0  0  0  0
   -1.8880    5.9260   13.8870 C   0  0  0  0  0  0  0  0  0  0  0  0
   -3.1860    5.5890   14.2700 C   0  0  0  0  0  0  0  0  0  0  0  0
   -3.8830    6.4000   15.1630 C   0  0  0  0  0  0  0  0  0  0  0  0
   -3.2840    7.5490   15.6730 C   0  0  0  0  0  0  0  0  0  0  0  0
   -1.9850    7.8890   15.2930 C   0  0  0  0  0  0  0  0  0  0  0  0
    0.7300    8.6650   10.6310 C   0  0  0  0  0  0  0  0  0  0  0  0
   -0.1730    9.3940    9.8780 N   0  0  0  0  0  0  0  0  0  0  0  0
    0.8080   13.4230    8.5830 H   0  0  0  0  0  0  0  0  0  0  0  0
    1.5545   11.8104    9.6779 H   0  0  0  0  0  0  0  0  0  0  0  0
   -0.0337   11.7977   10.5174 H   0  0  0  0  0  0  0  0  0  0  0  0
    0.9414   10.0488    8.2278 H   0  0  0  0  0  0  0  0  0  0  0  0
   -1.4330   11.6926    8.0490 H   0  0  0  0  0  0  0  0  0  0  0  0
   -0.1020   11.1980    6.2520 H   0  0  0  0  0  0  0  0  0  0  0  0
   -2.0671    8.7537    7.7153 H   0  0  0  0  0  0  0  0  0  0  0  0
   -3.8950    9.5240    6.9440 H   0  0  0  0  0  0  0  0  0  0  0  0
   -2.9407   10.5986   10.0100 H   0  0  0  0  0  0  0  0  0  0  0  0
   -4.2400    9.0950   10.5630 H   0  0  0  0  0  0  0  0  0  0  0  0
   -2.1430    7.8030   11.7020 H   0  0  0  0  0  0  0  0  0  0  0  0
   -0.1145    5.9887   12.4069 H   0  0  0  0  0  0  0  0  0  0  0  0
    1.5097    6.7881   12.4766 H   0  0  0  0  0  0  0  0  0  0  0  0
    0.8428    7.0273   14.6711 H   0  0  0  0  0  0  0  0  0  0  0  0
    0.1912    8.5545   13.9501 H   0  0  0  0  0  0  0  0  0  0  0  0
   -1.3425    5.2838   13.1799 H   0  0  0  0  0  0  0  0  0  0  0  0
   -3.6599    4.6820   13.8666 H   0  0  0  0  0  0  0  0  0  0  0  0
   -4.9064    6.1327   15.4652 H   0  0  0  0  0  0  0  0  0  0  0  0
   -3.8357    8.1897   16.3766 H   0  0  0  0  0  0  0  0  0  0  0  0
   -1.5167    8.7980   15.6984 H   0  0  0  0  0  0  0  0  0  0  0  0
    1.8257    8.6900   10.5372 H   0  0  0  0  0  0  0  0  0  0  0  0
  1  2  1  0
  2  3  1  0
  3  4  1  0
  4  5  1  0
  4  6  1  0
  6  7  1  0
  6  8  1  0
  8  9  1  0
  8 10  1  0
 10 11  2  0
 11 12  1  0
 12 13  1  0
 13 14  1  0
 14 15  1  0
 15 16  2  0
 16 17  1  0
 17 18  2  0
 18 19  1  0
 19 20  2  0
 12 21  2  0
 21 22  1  0
 22  3  1  0
 22 10  1  0
 20 15  1  0
  1 23  1  0
  2 24  1  0
  2 25  1  0
  3 26  1  6
  4 27  1  6
  5 28  1  0
  6 29  1  6
  7 30  1  0
  8 31  1  1
  9 32  1  0
 11 33  1  0
 13 34  1  0
 13 35  1  0
 14 36  1  0
 14 37  1  0
 16 38  1  0
 17 39  1  0
 18 40  1  0
 19 41  1  0
 20 42  1  0
 21 43  1  0
M  CHG  1  11   1
M  END
>  <meeko>  (2) 
{"is_sidechain": [false], "free_energy": -7.883, "intermolecular_energy": -10.81, "internal_energy": -0.449}

$$$$
2cet_ligand
     RDKit          3D

 43 45  0  0  0  0  0  0  0  0999 V2000
   -0.7510    6.4360    8.6350 O   0  0  0  0  0  0  0  0  0  0  0  0
   -0.0730    7.6920    8.5460 C   0  0  0  0  0  0  0  0  0  0  0  0
   -1.0750    8.8380    8.8090 C   0  0  2  0  0  0  0  0  0  0  0  0
   -0.6710   10.0850    7.9430 C   0  0  1  0  0  0  0  0  0  0  0  0
   -1.7140   10.3360    6.9830 O   0  0  0  0  0  0  0  0  0  0  0  0
   -0.4500   11.3870    8.7390 C   0  0  2  0  0  0  0  0  0  0  0  0
    0.2400   12.3540    7.9320 O   0  0  0  0  0  0  0  0  0  0  0  0
    0.3560   11.1400   10.0150 C   0  0  1  0  0  0  0  0  0  0  0  0
    0.5010   12.3510   10.7650 O   0  0  0  0  0  0  0  0  0  0  0  0
   -0.3850   10.1150   10.8130 C   0  0  0  0  0  0  0  0  0  0  0  0
   -0.5730   10.0500   12.1350 N   0  0  0  0  0  0  0  0  0  0  0  0
   -1.4250    9.0140   12.4700 C   0  0  0  0  0  0  0  0  0  0  0  0
   -1.8200    8.7050   13.8620 C   0  0  0  0  0  0  0  0  0  0  0  0
   -1.0600    7.4960   14.4040 C   0  0  0  0  0  0  0  0  0  0  0  0
   -1.9450    6.2790   14.4710 C   0  0  0  0  0  0  0  0  0  0  0  0
   -3.3310    6.3990   14.2990 C   0  0  0  0  0  0  0  0  0  0  0  0
   -4.1540    5.2750   14.3860 C   0  0  0  0  0  0  0  0  0  0  0  0
   -3.6000    4.0240   14.6470 C   0  0  0  0  0  0  0  0  0  0  0  0
   -2.2240    3.8940   14.8240 C   0  0  0  0  0  0  0  0  0  0  0  0
   -1.3990    5.0170   14.7370 C   0  0  0  0  0  0  0  0  0  0  0  0
   -1.7610    8.4260   11.2680 C   0  0  0  0  0  0  0  0  0  0  0  0
   -1.1050    9.1240   10.2680 N   0  0  0  0  0  0  0  0  0  0  0  0
   -1.0900    6.3580    9.5500 H   0  0  0  0  0  0  0  0  0  0  0  0
    0.7310    7.7286    9.2959 H   0  0  0  0  0  0  0  0  0  0  0  0
    0.3580    7.8055    7.5404 H   0  0  0  0  0  0  0  0  0  0  0  0
   -2.0954    8.5566    8.5098 H   0  0  0  0  0  0  0  0  0  0  0  0
    0.2936    9.8261    7.4821 H   0  0  0  0  0  0  0  0  0  0  0  0
   -1.3110   10.7790    6.2120 H   0  0  0  0  0  0  0  0  0  0  0  0
   -1.4428   11.7690    9.0191 H   0  0  0  0  0  0  0  0  0  0  0  0
    1.1410   12.0170    7.7700 H   0  0  0  0  0  0  0  0  0  0  0  0
    1.3683   10.7863    9.7699 H   0  0  0  0  0  0  0  0  0  0  0  0
    0.4210   12.0840   11.7040 H   0  0  0  0  0  0  0  0  0  0  0  0
   -0.1540   10.7300   12.7690 H   0  0  0  0  0  0  0  0  0  0  0  0
   -1.6040    9.5770   14.4968 H   0  0  0  0  0  0  0  0  0  0  0  0
   -2.8946    8.4701   13.8719 H   0  0  0  0  0  0  0  0  0  0  0  0
   -0.2071    7.2830   13.7429 H   0  0  0  0  0  0  0  0  0  0  0  0
   -0.7142    7.7306   15.4215 H   0  0  0  0  0  0  0  0  0  0  0  0
   -3.7729    7.3853   14.0941 H   0  0  0  0  0  0  0  0  0  0  0  0
   -5.2406    5.3772   14.2484 H   0  0  0  0  0  0  0  0  0  0  0  0
   -4.2490    3.1383   14.7134 H   0  0  0  0  0  0  0  0  0  0  0  0
   -1.7875    2.9061   15.0324 H   0  0  0  0  0  0  0  0  0  0  0  0
   -0.3134    4.9099   14.8783 H   0  0  0  0  0  0  0  0  0  0  0  0
   -2.4273    7.5618   11.1295 H   0  0  0  0  0  0  0  0  0  0  0  0
  1  2  1  0
  2  3  1  0
  3  4  1  0
  4  5  1  0
  4  6  1  0
  6  7  1  0
  6  8  1  0
  8  9  1  0
  8 10  1  0
 10 11  2  0
 11 12  1  0
 12 13  1  0
 13 14  1  0
 14 15  1  0
 15 16  2  0
 16 17  1  0
 17 18  2  0
 18 19  1  0
 19 20  2  0
 12 21  2  0
 21 22  1  0
 22  3  1  0
 22 10  1  0
 20 15  1  0
  1 23  1  0
  2 24  1  0
  2 25  1  0
  3 26  1  6
  4 27  1  6
  5 28  1  0
  6 29  1  1
  7 30  1  0
  8 31  1  6
  9 32  1  0
 11 33  1  0
 13 34  1  0
 13 35  1  0
 14 36  1  0
 14 37  1  0
 16 38  1  0
 17 39  1  0
 18 40  1  0
 19 41  1  0
 20 42  1  0
 21 43  1  0
M  CHG  1  11   1
M  END
>  <meeko>  (3) 
{"is_sidechain": [false], "free_energy": -7.813, "intermolecular_energy": -10.665, "internal_energy": -0.498}

$$$$
2cet_ligand
     RDKit          3D

 43 45  0  0  0  0  0  0  0  0999 V2000
   -3.1190    9.2200    7.9670 O   0  0  0  0  0  0  0  0  0  0  0  0
   -2.9700    9.2770    9.3880 C   0  0  0  0  0  0  0  0  0  0  0  0
   -1.4740    9.4280    9.7430 C   0  0  2  0  0  0  0  0  0  0  0  0
   -0.6050    8.7840    8.6040 C   0  0  1  0  0  0  0  0  0  0  0  0
    0.1630    9.8210    7.9680 O   0  0  0  0  0  0  0  0  0  0  0  0
    0.3830    7.6960    9.0740 C   0  0  2  0  0  0  0  0  0  0  0  0
    0.8630    6.9400    7.9520 O   0  0  0  0  0  0  0  0  0  0  0  0
   -0.2640    6.7400   10.0770 C   0  0  1  0  0  0  0  0  0  0  0  0
    0.6850    5.7750   10.5410 O   0  0  0  0  0  0  0  0  0  0  0  0
   -0.7680    7.5690   11.2160 C   0  0  0  0  0  0  0  0  0  0  0  0
   -0.7440    7.3050   12.5260 N   0  0  0  0  0  0  0  0  0  0  0  0
   -1.1930    8.3850   13.2630 C   0  0  0  0  0  0  0  0  0  0  0  0
   -1.2710    8.3840   14.7410 C   0  0  0  0  0  0  0  0  0  0  0  0
   -2.6160    7.8500   15.2290 C   0  0  0  0  0  0  0  0  0  0  0  0
   -2.6500    6.3450   15.2010 C   0  0  0  0  0  0  0  0  0  0  0  0
   -1.6170    5.6000   15.7880 C   0  0  0  0  0  0  0  0  0  0  0  0
   -1.6350    4.2060   15.7400 C   0  0  0  0  0  0  0  0  0  0  0  0
   -2.6830    3.5430   15.1050 C   0  0  0  0  0  0  0  0  0  0  0  0
   -3.7130    4.2740   14.5150 C   0  0  0  0  0  0  0  0  0  0  0  0
   -3.6970    5.6680   14.5620 C   0  0  0  0  0  0  0  0  0  0  0  0
   -1.5040    9.3500   12.3280 C   0  0  0  0  0  0  0  0  0  0  0  0
   -1.2340    8.8180   11.0790 N   0  0  0  0  0  0  0  0  0  0  0  0
   -3.6130    8.4000    7.7640 H   0  0  0  0  0  0  0  0  0  0  0  0
   -3.5290   10.1390    9.7811 H   0  0  0  0  0  0  0  0  0  0  0  0
   -3.3615    8.3514    9.8353 H   0  0  0  0  0  0  0  0  0  0  0  0
   -1.1813   10.4863    9.8089 H   0  0  0  0  0  0  0  0  0  0  0  0
   -1.3202    8.2937    7.9271 H   0  0  0  0  0  0  0  0  0  0  0  0
    1.0330    9.8630    8.4100 H   0  0  0  0  0  0  0  0  0  0  0  0
    1.2208    8.2093    9.5685 H   0  0  0  0  0  0  0  0  0  0  0  0
    1.8050    6.7410    8.1090 H   0  0  0  0  0  0  0  0  0  0  0  0
   -1.0880    6.1851    9.6046 H   0  0  0  0  0  0  0  0  0  0  0  0
    1.5110    5.9690   10.0500 H   0  0  0  0  0  0  0  0  0  0  0  0
   -0.3880    6.4200   12.8870 H   0  0  0  0  0  0  0  0  0  0  0  0
   -0.4674    7.7483   15.1411 H   0  0  0  0  0  0  0  0  0  0  0  0
   -1.1621    9.4203   15.0935 H   0  0  0  0  0  0  0  0  0  0  0  0
   -2.7848    8.1931   16.2604 H   0  0  0  0  0  0  0  0  0  0  0  0
   -3.4029    8.2275   14.5595 H   0  0  0  0  0  0  0  0  0  0  0  0
   -0.7867    6.1185   16.2898 H   0  0  0  0  0  0  0  0  0  0  0  0
   -0.8210    3.6297   16.2039 H   0  0  0  0  0  0  0  0  0  0  0  0
   -2.6977    2.4437   15.0692 H   0  0  0  0  0  0  0  0  0  0  0  0
   -4.5394    3.7508   14.0117 H   0  0  0  0  0  0  0  0  0  0  0  0
   -4.5120    6.2397   14.0941 H   0  0  0  0  0  0  0  0  0  0  0  0
   -1.8947   10.3569   12.5365 H   0  0  0  0  0  0  0  0  0  0  0  0
  1  2  1  0
  2  3  1  0
  3  4  1  0
  4  5  1  0
  4  6  1  0
  6  7  1  0
  6  8  1  0
  8  9  1  0
  8 10  1  0
 10 11  2  0
 11 12  1  0
 12 13  1  0
 13 14  1  0
 14 15  1  0
 15 16  2  0
 16 17  1  0
 17 18  2  0
 18 19  1  0
 19 20  2  0
 12 21  2  0
 21 22  1  0
 22  3  1  0
 22 10  1  0
 20 15  1  0
  1 23  1  0
  2 24  1  0
  2 25  1  0
  3 26  1  1
  4 27  1  6
  5 28  1  0
  6 29  1  1
  7 30  1  0
  8 31  1  6
  9 32  1  0
 11 33  1  0
 13 34  1  0
 13 35  1  0
 14 36  1  0
 14 37  1  0
 16 38  1  0
 17 39  1  0
 18 40  1  0
 19 41  1  0
 20 42  1  0
 21 43  1  0
M  CHG  1  11   1
M  END
>  <meeko>  (4) 
{"is_sidechain": [false], "free_energy": -6.961, "intermolecular_energy": -9.412, "internal_energy": -0.6}

$$$$
2cet_ligand
     RDKit          3D

 43 45  0  0  0  0  0  0  0  0999 V2000
    0.0980   12.7470    8.8040 O   0  0  0  0  0  0  0  0  0  0  0  0
    0.7760   11.5680    9.2450 C   0  0  0  0  0  0  0  0  0  0  0  0
    0.2030   10.3370    8.5080 C   0  0  2  0  0  0  0  0  0  0  0  0
   -1.1940   10.7080    7.8930 C   0  0  1  0  0  0  0  0  0  0  0  0
   -1.0970   10.6440    6.4590 O   0  0  0  0  0  0  0  0  0  0  0  0
   -2.3590    9.7910    8.3210 C   0  0  2  0  0  0  0  0  0  0  0  0
   -3.6180   10.4020    8.0020 O   0  0  0  0  0  0  0  0  0  0  0  0
   -2.3190    9.4890    9.8200 C   0  0  1  0  0  0  0  0  0  0  0  0
   -3.3750    8.5930   10.1840 O   0  0  0  0  0  0  0  0  0  0  0  0
   -0.9870    8.8760   10.1130 C   0  0  0  0  0  0  0  0  0  0  0  0
   -0.6860    7.8670   10.9360 N   0  0  0  0  0  0  0  0  0  0  0  0
    0.6460    7.5120   10.8280 C   0  0  0  0  0  0  0  0  0  0  0  0
    1.2630    6.4220   11.6150 C   0  0  0  0  0  0  0  0  0  0  0  0
    0.3270    5.2210   11.7360 C   0  0  0  0  0  0  0  0  0  0  0  0
   -0.1400    5.0320   13.1560 C   0  0  0  0  0  0  0  0  0  0  0  0
   -1.4390    4.5770   13.4210 C   0  0  0  0  0  0  0  0  0  0  0  0
   -1.8800    4.4270   14.7370 C   0  0  0  0  0  0  0  0  0  0  0  0
   -1.0290    4.7310   15.7970 C   0  0  0  0  0  0  0  0  0  0  0  0
    0.2630    5.1870   15.5440 C   0  0  0  0  0  0  0  0  0  0  0  0
    0.7070    5.3380   14.2290 C   0  0  0  0  0  0  0  0  0  0  0  0
    1.1670    8.3680    9.8790 C   0  0  0  0  0  0  0  0  0  0  0  0
    0.1400    9.1950    9.4590 N   0  0  0  0  0  0  0  0  0  0  0  0
    0.7850   13.4110    8.5930 H   0  0  0  0  0  0  0  0  0  0  0  0
    1.8501   11.6592    9.0258 H   0  0  0  0  0  0  0  0  0  0  0  0
    0.6315   11.4461   10.3286 H   0  0  0  0  0  0  0  0  0  0  0  0
    0.8496   10.0312    7.6723 H   0  0  0  0  0  0  0  0  0  0  0  0
   -1.4262   11.7148    8.2703 H   0  0  0  0  0  0  0  0  0  0  0  0
   -0.9950    9.7060    6.2070 H   0  0  0  0  0  0  0  0  0  0  0  0
   -2.2486    8.8459    7.7690 H   0  0  0  0  0  0  0  0  0  0  0  0
   -3.4330   11.2470    7.5510 H   0  0  0  0  0  0  0  0  0  0  0  0
   -2.4589   10.4113   10.4029 H   0  0  0  0  0  0  0  0  0  0  0  0
   -3.6020    8.1140    9.3600 H   0  0  0  0  0  0  0  0  0  0  0  0
   -1.3950    7.4210   11.5180 H   0  0  0  0  0  0  0  0  0  0  0  0
    2.1912    6.1033   11.1181 H   0  0  0  0  0  0  0  0  0  0  0  0
    1.4711    6.8012   12.6264 H   0  0  0  0  0  0  0  0  0  0  0  0
   -0.5482    5.3822   11.0894 H   0  0  0  0  0  0  0  0  0  0  0  0
    0.8772    4.3195   11.4285 H   0  0  0  0  0  0  0  0  0  0  0  0
   -2.1149    4.3367   12.5871 H   0  0  0  0  0  0  0  0  0  0  0  0
   -2.9005    4.0684   14.9371 H   0  0  0  0  0  0  0  0  0  0  0  0
   -1.3769    4.6111   16.8336 H   0  0  0  0  0  0  0  0  0  0  0  0
    0.9341    5.4284   16.3815 H   0  0  0  0  0  0  0  0  0  0  0  0
    1.7276    5.6993   14.0344 H   0  0  0  0  0  0  0  0  0  0  0  0
    2.2073    8.3890    9.5221 H   0  0  0  0  0  0  0  0  0  0  0  0
  1  2  1  0
  2  3  1  0
  3  4  1  0
  4  5  1  0
  4  6  1  0
  6  7  1  0
  6  8  1  0
  8  9  1  0
  8 10  1  0
 10 11  2  0
 11 12  1  0
 12 13  1  0
 13 14  1  0
 14 15  1  0
 15 16  2  0
 16 17  1  0
 17 18  2  0
 18 19  1  0
 19 20  2  0
 12 21  2  0
 21 22  1  0
 22  3  1  0
 22 10  1  0
 20 15  1  0
  1 23  1  0
  2 24  1  0
  2 25  1  0
  3 26  1  6
  4 27  1  6
  5 28  1  0
  6 29  1  6
  7 30  1  0
  8 31  1  1
  9 32  1  0
 11 33  1  0
 13 34  1  0
 13 35  1  0
 14 36  1  0
 14 37  1  0
 16 38  1  0
 17 39  1  0
 18 40  1  0
 19 41  1  0
 20 42  1  0
 21 43  1  0
M  CHG  1  11   1
M  END
>  <meeko>  (5) 
{"is_sidechain": [false], "free_energy": -6.489, "intermolecular_energy": -8.83, "internal_energy": -0.545}

$$$$
2cet_ligand
     RDKit          3D

 43 45  0  0  0  0  0  0  0  0999 V2000
    0.3260    3.6450    9.8060 O   0  0  0  0  0  0  0  0  0  0  0  0
   -0.2200    3.5390   11.1240 C   0  0  0  0  0  0  0  0  0  0  0  0
    0.5130    4.5200   12.0660 C   0  0  2  0  0  0  0  0  0  0  0  0
    0.8640    3.7830   13.4070 C   0  0  1  0  0  0  0  0  0  0  0  0
    2.2960    3.7000   13.5260 O   0  0  0  0  0  0  0  0  0  0  0  0
    0.3310    4.4650   14.6840 C   0  0  2  0  0  0  0  0  0  0  0  0
    0.3940    3.5590   15.7970 O   0  0  0  0  0  0  0  0  0  0  0  0
   -1.1120    4.9400   14.5110 C   0  0  1  0  0  0  0  0  0  0  0  0
   -1.5660    5.6170   15.6870 O   0  0  0  0  0  0  0  0  0  0  0  0
   -1.1370    5.8610   13.3330 C   0  0  0  0  0  0  0  0  0  0  0  0
   -1.8160    6.9990   13.1670 N   0  0  0  0  0  0  0  0  0  0  0  0
   -1.4670    7.6230   11.9830 C   0  0  0  0  0  0  0  0  0  0  0  0
   -2.0550    8.9060   11.5380 C   0  0  0  0  0  0  0  0  0  0  0  0
   -2.2100    8.9520   10.0190 C   0  0  0  0  0  0  0  0  0  0  0  0
   -1.3190   10.0040    9.4110 C   0  0  0  0  0  0  0  0  0  0  0  0
   -0.3240   10.6230   10.1810 C   0  0  0  0  0  0  0  0  0  0  0  0
    0.4840   11.6150    9.6240 C   0  0  0  0  0  0  0  0  0  0  0  0
    0.3060   11.9980    8.2960 C   0  0  0  0  0  0  0  0  0  0  0  0
   -0.6820   11.3900    7.5240 C   0  0  0  0  0  0  0  0  0  0  0  0
   -1.4920   10.3980    8.0780 C   0  0  0  0  0  0  0  0  0  0  0  0
   -0.5210    6.7990   11.4120 C   0  0  0  0  0  0  0  0  0  0  0  0
   -0.3390    5.7230   12.2640 N   0  0  0  0  0  0  0  0  0  0  0  0
    1.2910    3.7680    9.9050 H   0  0  0  0  0  0  0  0  0  0  0  0
   -1.2913    3.7871   11.0980 H   0  0  0  0  0  0  0  0  0  0  0  0
   -0.0904    2.5108   11.4928 H   0  0  0  0  0  0  0  0  0  0  0  0
    1.4636    4.8612   11.6302 H   0  0  0  0  0  0  0  0  0  0  0  0
    0.3739    2.8003   13.3423 H   0  0  0  0  0  0  0  0  0  0  0  0
    2.5490    2.7600   13.4440 H   0  0  0  0  0  0  0  0  0  0  0  0
    0.9683    5.3410   14.8750 H   0  0  0  0  0  0  0  0  0  0  0  0
   -0.5030    3.4930   16.1770 H   0  0  0  0  0  0  0  0  0  0  0  0
   -1.7830    4.0835   14.3489 H   0  0  0  0  0  0  0  0  0  0  0  0
   -0.9000    5.4130   16.3770 H   0  0  0  0  0  0  0  0  0  0  0  0
   -2.4660    7.3430   13.8740 H   0  0  0  0  0  0  0  0  0  0  0  0
   -3.0449    9.0260   12.0024 H   0  0  0  0  0  0  0  0  0  0  0  0
   -1.3798    9.7196   11.8415 H   0  0  0  0  0  0  0  0  0  0  0  0
   -1.9423    7.9702    9.6013 H   0  0  0  0  0  0  0  0  0  0  0  0
   -3.2549    9.2025    9.7833 H   0  0  0  0  0  0  0  0  0  0  0  0
   -0.1796   10.3250   11.2300 H   0  0  0  0  0  0  0  0  0  0  0  0
    1.2629   12.0955   10.2343 H   0  0  0  0  0  0  0  0  0  0  0  0
    0.9445   12.7792    7.8578 H   0  0  0  0  0  0  0  0  0  0  0  0
   -0.8236   11.6926    6.4760 H   0  0  0  0  0  0  0  0  0  0  0  0
   -2.2712    9.9225    7.4642 H   0  0  0  0  0  0  0  0  0  0  0  0
   -0.0052    6.9658   10.4548 H   0  0  0  0  0  0  0  0  0  0  0  0
  1  2  1  0
  2  3  1  0
  3  4  1  0
  4  5  1  0
  4  6  1  0
  6  7  1  0
  6  8  1  0
  8  9  1  0
  8 10  1  0
 10 11  2  0
 11 12  1  0
 12 13  1  0
 13 14  1  0
 14 15  1  0
 15 16  2  0
 16 17  1  0
 17 18  2  0
 18 19  1  0
 19 20  2  0
 12 21  2  0
 21 22  1  0
 22  3  1  0
 22 10  1  0
 20 15  1  0
  1 23  1  0
  2 24  1  0
  2 25  1  0
  3 26  1  6
  4 27  1  6
  5 28  1  0
  6 29  1  1
  7 30  1  0
  8 31  1  6
  9 32  1  0
 11 33  1  0
 13 34  1  0
 13 35  1  0
 14 36  1  0
 14 37  1  0
 16 38  1  0
 17 39  1  0
 18 40  1  0
 19 41  1  0
 20 42  1  0
 21 43  1  0
M  CHG  1  11   1
M  END
>  <meeko>  (6) 
{"is_sidechain": [false], "free_energy": -6.484, "intermolecular_energy": -8.899, "internal_energy": -0.47}

$$$$
2cet_ligand
     RDKit          3D

 43 45  0  0  0  0  0  0  0  0999 V2000
   -0.0230   11.6880   10.8980 O   0  0  0  0  0  0  0  0  0  0  0  0
    0.5950   11.5860    9.6120 C   0  0  0  0  0  0  0  0  0  0  0  0
    0.1580   10.2680    8.9330 C   0  0  2  0  0  0  0  0  0  0  0  0
   -1.0630   10.5540    7.9880 C   0  0  1  0  0  0  0  0  0  0  0  0
   -0.6620   10.3020    6.6290 O   0  0  0  0  0  0  0  0  0  0  0  0
   -2.3170    9.7020    8.2680 C   0  0  2  0  0  0  0  0  0  0  0  0
   -3.4610   10.2650    7.6070 O   0  0  0  0  0  0  0  0  0  0  0  0
   -2.6090    9.6010    9.7660 C   0  0  1  0  0  0  0  0  0  0  0  0
   -3.7440    8.7610   10.0050 O   0  0  0  0  0  0  0  0  0  0  0  0
   -1.3890    9.0320   10.4170 C   0  0  0  0  0  0  0  0  0  0  0  0
   -1.3010    8.1410   11.4090 N   0  0  0  0  0  0  0  0  0  0  0  0
    0.0130    7.7750   11.6390 C   0  0  0  0  0  0  0  0  0  0  0  0
    0.4140    6.7990   12.6750 C   0  0  0  0  0  0  0  0  0  0  0  0
   -0.2220    5.4310   12.4330 C   0  0  0  0  0  0  0  0  0  0  0  0
    0.2690    4.8200   11.1470 C   0  0  0  0  0  0  0  0  0  0  0  0
   -0.5030    4.9050    9.9800 C   0  0  0  0  0  0  0  0  0  0  0  0
   -0.0590    4.3180    8.7950 C   0  0  0  0  0  0  0  0  0  0  0  0
    1.1570    3.6390    8.7650 C   0  0  0  0  0  0  0  0  0  0  0  0
    1.9310    3.5460    9.9200 C   0  0  0  0  0  0  0  0  0  0  0  0
    1.4890    4.1330   11.1070 C   0  0  0  0  0  0  0  0  0  0  0  0
    0.7490    8.4980   10.7240 C   0  0  0  0  0  0  0  0  0  0  0  0
   -0.1400    9.2620    9.9880 N   0  0  0  0  0  0  0  0  0  0  0  0
   -0.8960   11.2520   10.8310 H   0  0  0  0  0  0  0  0  0  0  0  0
    0.2877   12.4388    8.9889 H   0  0  0  0  0  0  0  0  0  0  0  0
    1.6887   11.5927    9.7294 H   0  0  0  0  0  0  0  0  0  0  0  0
    0.9593    9.8545    8.3030 H   0  0  0  0  0  0  0  0  0  0  0  0
   -1.3426   11.6016    8.1732 H   0  0  0  0  0  0  0  0  0  0  0  0
   -1.3820    9.8090    6.1910 H   0  0  0  0  0  0  0  0  0  0  0  0
   -2.1170    8.6923    7.8801 H   0  0  0  0  0  0  0  0  0  0  0  0
   -3.2500   10.3380    6.6570 H   0  0  0  0  0  0  0  0  0  0  0  0
   -2.8447   10.5921   10.1809 H   0  0  0  0  0  0  0  0  0  0  0  0
   -4.5140    9.2660    9.6690 H   0  0  0  0  0  0  0  0  0  0  0  0
   -2.1310    7.7760   11.8760 H   0  0  0  0  0  0  0  0  0  0  0  0
    1.5087    6.6917   12.6602 H   0  0  0  0  0  0  0  0  0  0  0  0
    0.0697    7.1714   13.6511 H   0  0  0  0  0  0  0  0  0  0  0  0
    0.0353    4.7632   13.2684 H   0  0  0  0  0  0  0  0  0  0  0  0
   -1.3118    5.5621   12.3616 H   0  0  0  0  0  0  0  0  0  0  0  0
   -1.4651    5.4380    9.9988 H   0  0  0  0  0  0  0  0  0  0  0  0
   -0.6698    4.3914    7.8831 H   0  0  0  0  0  0  0  0  0  0  0  0
    1.5060    3.1765    7.8300 H   0  0  0  0  0  0  0  0  0  0  0  0
    2.8911    3.0096    9.8964 H   0  0  0  0  0  0  0  0  0  0  0  0
    2.1027    4.0555   12.0166 H   0  0  0  0  0  0  0  0  0  0  0  0
    1.8419    8.4723   10.6016 H   0  0  0  0  0  0  0  0  0  0  0  0
  1  2  1  0
  2  3  1  0
  3  4  1  0
  4  5  1  0
  4  6  1  0
  6  7  1  0
  6  8  1  0
  8  9  1  0
  8 10  1  0
 10 11  2  0
 11 12  1  0
 12 13  1  0
 13 14  1  0
 14 15  1  0
 15 16  2  0
 16 17  1  0
 17 18  2  0
 18 19  1  0
 19 20  2  0
 12 21  2  0
 21 22  1  0
 22  3  1  0
 22 10  1  0
 20 15  1  0
  1 23  1  0
  2 24  1  0
  2 25  1  0
  3 26  1  6
  4 27  1  6
  5 28  1  0
  6 29  1  6
  7 30  1  0
  8 31  1  1
  9 32  1  0
 11 33  1  0
 13 34  1  0
 13 35  1  0
 14 36  1  0
 14 37  1  0
 16 38  1  0
 17 39  1  0
 18 40  1  0
 19 41  1  0
 20 42  1  0
 21 43  1  0
M  CHG  1  11   1
M  END
>  <meeko>  (7) 
{"is_sidechain": [false], "free_energy": -6.481, "intermolecular_energy": -9.128, "internal_energy": -0.236}

$$$$
