2br1_ligand
     RDKit          3D

 50 53  0  0  0  0  0  0  0  0999 V2000
   12.1110   -0.4810   11.6700 C   0  0  0  0  0  0  0  0  0  0  0  0
   12.6090   -0.1780   10.3730 O   0  0  0  0  0  0  0  0  0  0  0  0
   13.8920   -0.5630   10.0990 C   0  0  0  0  0  0  0  0  0  0  0  0
   14.1870   -1.8890   10.4180 C   0  0  0  0  0  0  0  0  0  0  0  0
   15.4630   -2.4160   10.1900 C   0  0  0  0  0  0  0  0  0  0  0  0
   16.4770   -1.6230    9.6420 C   0  0  0  0  0  0  0  0  0  0  0  0
   17.8230   -2.1470    9.4020 C   0  0  0  0  0  0  0  0  0  0  0  0
   18.5500   -1.4430    8.4810 O   0  0  0  0  0  0  0  0  0  0  0  0
   19.7650   -2.0380    8.3600 C   0  0  0  0  0  0  0  0  0  0  0  0
   20.7060   -1.5760    7.5280 N   0  0  0  0  0  0  0  0  0  0  0  0
   21.8160   -2.3130    7.5980 C   0  0  0  0  0  0  0  0  0  0  0  0
   22.0460   -3.3850    8.3800 N   0  0  0  0  0  0  0  0  0  0  0  0
   21.0730   -3.8250    9.2140 C   0  0  0  0  0  0  0  0  0  0  0  0
   21.3230   -4.9040   10.0580 N   0  0  0  0  0  0  0  0  0  0  0  0
   22.3820   -4.7500   11.0500 C   0  0  0  0  0  0  0  0  0  0  0  0
   22.1270   -3.5690   11.9900 C   0  0  0  0  0  0  0  0  0  0  0  0
   23.3670   -2.9710   12.3690 O   0  0  0  0  0  0  0  0  0  0  0  0
   19.8500   -3.1300    9.2080 C   0  0  0  0  0  0  0  0  0  0  0  0
   18.5840   -3.2100    9.8700 C   0  0  0  0  0  0  0  0  0  0  0  0
   18.1390   -4.1620   10.8640 C   0  0  0  0  0  0  0  0  0  0  0  0
   17.5720   -5.3790   10.4740 C   0  0  0  0  0  0  0  0  0  0  0  0
   17.1320   -6.2930   11.4390 C   0  0  0  0  0  0  0  0  0  0  0  0
   17.2550   -5.9950   12.7960 C   0  0  0  0  0  0  0  0  0  0  0  0
   16.8670   -6.7960   13.8350 O   0  0  0  0  0  0  0  0  0  0  0  0
   15.6370   -7.4940   13.6830 C   0  0  0  0  0  0  0  0  0  0  0  0
   17.8210   -4.7760   13.1810 C   0  0  0  0  0  0  0  0  0  0  0  0
   18.2610   -3.8610   12.2230 C   0  0  0  0  0  0  0  0  0  0  0  0
   16.1680   -0.2920    9.3190 C   0  0  0  0  0  0  0  0  0  0  0  0
   14.8900    0.2360    9.5460 C   0  0  0  0  0  0  0  0  0  0  0  0
   12.7907   -0.0674   12.4296 H   0  0  0  0  0  0  0  0  0  0  0  0
   11.1117   -0.0377   11.7919 H   0  0  0  0  0  0  0  0  0  0  0  0
   12.0454   -1.5723   11.7919 H   0  0  0  0  0  0  0  0  0  0  0  0
   13.4059   -2.5287   10.8546 H   0  0  0  0  0  0  0  0  0  0  0  0
   15.6712   -3.4657   10.4445 H   0  0  0  0  0  0  0  0  0  0  0  0
   22.6419   -2.0087    6.9382 H   0  0  0  0  0  0  0  0  0  0  0  0
   21.3260   -5.7970    9.5790 H   0  0  0  0  0  0  0  0  0  0  0  0
   22.4442   -5.6714   11.6477 H   0  0  0  0  0  0  0  0  0  0  0  0
   23.3223   -4.5569   10.5128 H   0  0  0  0  0  0  0  0  0  0  0  0
   21.5042   -2.8220   11.4761 H   0  0  0  0  0  0  0  0  0  0  0  0
   21.6092   -3.9295   12.8911 H   0  0  0  0  0  0  0  0  0  0  0  0
   24.0630   -3.6100   12.1350 H   0  0  0  0  0  0  0  0  0  0  0  0
   17.4712   -5.6192    9.4053 H   0  0  0  0  0  0  0  0  0  0  0  0
   16.6878   -7.2494   11.1259 H   0  0  0  0  0  0  0  0  0  0  0  0
   15.2235   -7.7286   14.6750 H   0  0  0  0  0  0  0  0  0  0  0  0
   14.9248   -6.8654   13.1282 H   0  0  0  0  0  0  0  0  0  0  0  0
   15.8114   -8.4277   13.1282 H   0  0  0  0  0  0  0  0  0  0  0  0
   17.9206   -4.5355   14.2497 H   0  0  0  0  0  0  0  0  0  0  0  0
   18.7032   -2.9042   12.5376 H   0  0  0  0  0  0  0  0  0  0  0  0
   16.9454    0.3497    8.8786 H   0  0  0  0  0  0  0  0  0  0  0  0
   14.6746    1.2832    9.2871 H   0  0  0  0  0  0  0  0  0  0  0  0
  1  2  1  0
  2  3  1  0
  3  4  2  0
  4  5  1  0
  5  6  2  0
  6  7  1  0
  7  8  1  0
  8  9  1  0
  9 10  2  0
 10 11  1  0
 11 12  2  0
 12 13  1  0
 13 14  1  0
 14 15  1  0
 15 16  1  0
 16 17  1  0
 13 18  2  0
 18 19  1  0
 19 20  1  0
 20 21  2  0
 21 22  1  0
 22 23  2  0
 23 24  1  0
 24 25  1  0
 23 26  1  0
 26 27  2  0
  6 28  1  0
 28 29  2  0
 29  3  1  0
 19  7  2  0
 27 20  1  0
 18  9  1  0
  1 30  1  0
  1 31  1  0
  1 32  1  0
  4 33  1  0
  5 34  1  0
 11 35  1  0
 14 36  1  0
 15 37  1  0
 15 38  1  0
 16 39  1  0
 16 40  1  0
 17 41  1  0
 21 42  1  0
 22 43  1  0
 25 44  1  0
 25 45  1  0
 25 46  1  0
 26 47  1  0
 27 48  1  0
 28 49  1  0
 29 50  1  0
M  END
>  <meeko>  (1) 
{"is_sidechain": [false], "free_energy": -7.965, "intermolecular_energy": -11.457, "internal_energy": -1.505}

$$$$
2br1_ligand
     RDKit          3D

 50 53  0  0  0  0  0  0  0  0999 V2000
   20.2620   -1.8640    8.5410 C   0  0  0  0  0  0  0  0  0  0  0  0
   19.0060   -1.2760    8.2260 O   0  0  0  0  0  0  0  0  0  0  0  0
   17.9310   -1.6840    8.9640 C   0  0  0  0  0  0  0  0  0  0  0  0
   18.2510   -2.2970   10.1760 C   0  0  0  0  0  0  0  0  0  0  0  0
   17.2480   -2.7640   11.0320 C   0  0  0  0  0  0  0  0  0  0  0  0
   15.8970   -2.6310   10.6920 C   0  0  0  0  0  0  0  0  0  0  0  0
   14.8290   -3.1180   11.5650 C   0  0  0  0  0  0  0  0  0  0  0  0
   13.7000   -2.3460   11.5660 O   0  0  0  0  0  0  0  0  0  0  0  0
   12.8030   -2.9110   12.4140 C   0  0  0  0  0  0  0  0  0  0  0  0
   11.5920   -2.3820   12.6290 N   0  0  0  0  0  0  0  0  0  0  0  0
   10.8870   -3.1250   13.4850 C   0  0  0  0  0  0  0  0  0  0  0  0
   11.2610   -4.2690   14.0870 N   0  0  0  0  0  0  0  0  0  0  0  0
   12.4920   -4.7800   13.8440 C   0  0  0  0  0  0  0  0  0  0  0  0
   12.8660   -5.9880   14.4280 N   0  0  0  0  0  0  0  0  0  0  0  0
   13.5910   -5.9280   15.6920 C   0  0  0  0  0  0  0  0  0  0  0  0
   14.3300   -7.2330   15.9980 C   0  0  0  0  0  0  0  0  0  0  0  0
   14.4770   -8.0010   14.8040 O   0  0  0  0  0  0  0  0  0  0  0  0
   13.3300   -4.0660   12.9680 C   0  0  0  0  0  0  0  0  0  0  0  0
   14.6500   -4.1890   12.4310 C   0  0  0  0  0  0  0  0  0  0  0  0
   15.6360   -5.2200   12.6740 C   0  0  0  0  0  0  0  0  0  0  0  0
   15.7160   -6.3350   11.8340 C   0  0  0  0  0  0  0  0  0  0  0  0
   16.6630   -7.3370   12.0800 C   0  0  0  0  0  0  0  0  0  0  0  0
   17.5320   -7.2300   13.1650 C   0  0  0  0  0  0  0  0  0  0  0  0
   18.4980   -8.1320   13.5160 O   0  0  0  0  0  0  0  0  0  0  0  0
   19.6370   -8.2170   12.6680 C   0  0  0  0  0  0  0  0  0  0  0  0
   17.4460   -6.1140   14.0050 C   0  0  0  0  0  0  0  0  0  0  0  0
   16.5040   -5.1130   13.7640 C   0  0  0  0  0  0  0  0  0  0  0  0
   15.5860   -2.0060    9.4730 C   0  0  0  0  0  0  0  0  0  0  0  0
   16.5900   -1.5380    8.6150 C   0  0  0  0  0  0  0  0  0  0  0  0
   20.3778   -1.9182    9.6335 H   0  0  0  0  0  0  0  0  0  0  0  0
   20.3090   -2.8777    8.1166 H   0  0  0  0  0  0  0  0  0  0  0  0
   21.0707   -1.2509    8.1166 H   0  0  0  0  0  0  0  0  0  0  0  0
   19.3066   -2.4146   10.4623 H   0  0  0  0  0  0  0  0  0  0  0  0
   17.5245   -3.2414   11.9836 H   0  0  0  0  0  0  0  0  0  0  0  0
    9.8788   -2.7579   13.7276 H   0  0  0  0  0  0  0  0  0  0  0  0
   13.2400   -6.6560   13.7630 H   0  0  0  0  0  0  0  0  0  0  0  0
   14.3241   -5.1094   15.6412 H   0  0  0  0  0  0  0  0  0  0  0  0
   12.8573   -5.7597   16.4941 H   0  0  0  0  0  0  0  0  0  0  0  0
   15.3245   -7.0014   16.4072 H   0  0  0  0  0  0  0  0  0  0  0  0
   13.7510   -7.8128   16.7319 H   0  0  0  0  0  0  0  0  0  0  0  0
   14.5280   -8.9320   15.0800 H   0  0  0  0  0  0  0  0  0  0  0  0
   15.0326   -6.4255   10.9768 H   0  0  0  0  0  0  0  0  0  0  0  0
   16.7214   -8.2113   11.4150 H   0  0  0  0  0  0  0  0  0  0  0  0
   20.5471   -8.2849   13.2821 H   0  0  0  0  0  0  0  0  0  0  0  0
   19.5555   -9.1116   12.0331 H   0  0  0  0  0  0  0  0  0  0  0  0
   19.6892   -7.3203   12.0331 H   0  0  0  0  0  0  0  0  0  0  0  0
   18.1277   -6.0249   14.8637 H   0  0  0  0  0  0  0  0  0  0  0  0
   16.4448   -4.2406   14.4314 H   0  0  0  0  0  0  0  0  0  0  0  0
   14.5315   -1.8813    9.1858 H   0  0  0  0  0  0  0  0  0  0  0  0
   16.3192   -1.0547    7.6647 H   0  0  0  0  0  0  0  0  0  0  0  0
  1  2  1  0
  2  3  1  0
  3  4  2  0
  4  5  1  0
  5  6  2  0
  6  7  1  0
  7  8  1  0
  8  9  1  0
  9 10  2  0
 10 11  1  0
 11 12  2  0
 12 13  1  0
 13 14  1  0
 14 15  1  0
 15 16  1  0
 16 17  1  0
 13 18  2  0
 18 19  1  0
 19 20  1  0
 20 21  2  0
 21 22  1  0
 22 23  2  0
 23 24  1  0
 24 25  1  0
 23 26  1  0
 26 27  2  0
  6 28  1  0
 28 29  2  0
 29  3  1  0
 19  7  2  0
 27 20  1  0
 18  9  1  0
  1 30  1  0
  1 31  1  0
  1 32  1  0
  4 33  1  0
  5 34  1  0
 11 35  1  0
 14 36  1  0
 15 37  1  0
 15 38  1  0
 16 39  1  0
 16 40  1  0
 17 41  1  0
 21 42  1  0
 22 43  1  0
 25 44  1  0
 25 45  1  0
 25 46  1  0
 26 47  1  0
 27 48  1  0
 28 49  1  0
 29 50  1  0
M  END
>  <meeko>  (2) 
{"is_sidechain": [false], "free_energy": -7.964, "intermolecular_energy": -11.145, "internal_energy": -1.816}

$$$$
2br1_ligand
     RDKit          3D

 50 53  0  0  0  0  0  0  0  0999 V2000
   23.1720   -1.6810    8.2050 C   0  0  0  0  0  0  0  0  0  0  0  0
   22.3110   -2.8100    8.1500 O   0  0  0  0  0  0  0  0  0  0  0  0
   21.0110   -2.6140    8.5240 C   0  0  0  0  0  0  0  0  0  0  0  0
   20.5170   -3.5460    9.4370 C   0  0  0  0  0  0  0  0  0  0  0  0
   19.2010   -3.4640    9.9060 C   0  0  0  0  0  0  0  0  0  0  0  0
   18.3460   -2.4480    9.4650 C   0  0  0  0  0  0  0  0  0  0  0  0
   16.9620   -2.3460    9.9320 C   0  0  0  0  0  0  0  0  0  0  0  0
   16.2860   -1.2510    9.4670 O   0  0  0  0  0  0  0  0  0  0  0  0
   15.0280   -1.2840    9.9780 C   0  0  0  0  0  0  0  0  0  0  0  0
   14.1200   -0.3400    9.7030 N   0  0  0  0  0  0  0  0  0  0  0  0
   12.9570   -0.6000   10.3040 C   0  0  0  0  0  0  0  0  0  0  0  0
   12.6500   -1.6500   11.0880 N   0  0  0  0  0  0  0  0  0  0  0  0
   13.5910   -2.5900   11.3440 C   0  0  0  0  0  0  0  0  0  0  0  0
   13.2650   -3.7030   12.1150 N   0  0  0  0  0  0  0  0  0  0  0  0
   11.8490   -3.9540   12.3660 C   0  0  0  0  0  0  0  0  0  0  0  0
   11.4180   -3.4880   13.7590 C   0  0  0  0  0  0  0  0  0  0  0  0
   11.0910   -2.0990   13.7280 O   0  0  0  0  0  0  0  0  0  0  0  0
   14.8640   -2.4070   10.7740 C   0  0  0  0  0  0  0  0  0  0  0  0
   16.1250   -3.0840   10.7570 C   0  0  0  0  0  0  0  0  0  0  0  0
   16.5010   -4.3150   11.4170 C   0  0  0  0  0  0  0  0  0  0  0  0
   16.3690   -5.5410   10.7580 C   0  0  0  0  0  0  0  0  0  0  0  0
   16.7230   -6.7310   11.4050 C   0  0  0  0  0  0  0  0  0  0  0  0
   17.2080   -6.7020   12.7120 C   0  0  0  0  0  0  0  0  0  0  0  0
   17.5870   -7.7860   13.4550 O   0  0  0  0  0  0  0  0  0  0  0  0
   17.1070   -7.8490   14.7920 C   0  0  0  0  0  0  0  0  0  0  0  0
   17.3350   -5.4740   13.3690 C   0  0  0  0  0  0  0  0  0  0  0  0
   16.9840   -4.2850   12.7290 C   0  0  0  0  0  0  0  0  0  0  0  0
   18.8550   -1.5120    8.5500 C   0  0  0  0  0  0  0  0  0  0  0  0
   20.1730   -1.5930    8.0810 C   0  0  0  0  0  0  0  0  0  0  0  0
   23.3698   -1.4216    9.2555 H   0  0  0  0  0  0  0  0  0  0  0  0
   24.1205   -1.9183    7.7010 H   0  0  0  0  0  0  0  0  0  0  0  0
   22.6922   -0.8291    7.7010 H   0  0  0  0  0  0  0  0  0  0  0  0
   21.1705   -4.3561    9.7930 H   0  0  0  0  0  0  0  0  0  0  0  0
   18.8345   -4.2069   10.6297 H   0  0  0  0  0  0  0  0  0  0  0  0
   12.1527    0.1319   10.1387 H   0  0  0  0  0  0  0  0  0  0  0  0
   13.8600   -3.8170   12.9270 H   0  0  0  0  0  0  0  0  0  0  0  0
   11.2548   -3.4160   11.6127 H   0  0  0  0  0  0  0  0  0  0  0  0
   11.6823   -5.0397   12.3061 H   0  0  0  0  0  0  0  0  0  0  0  0
   10.5366   -4.0630   14.0793 H   0  0  0  0  0  0  0  0  0  0  0  0
   12.2449   -3.6493   14.4663 H   0  0  0  0  0  0  0  0  0  0  0  0
   10.2050   -2.0340   13.3300 H   0  0  0  0  0  0  0  0  0  0  0  0
   15.9856   -5.5707    9.7274 H   0  0  0  0  0  0  0  0  0  0  0  0
   16.6182   -7.6922   10.8805 H   0  0  0  0  0  0  0  0  0  0  0  0
   17.9501   -7.7383   15.4898 H   0  0  0  0  0  0  0  0  0  0  0  0
   16.3829   -7.0382   14.9602 H   0  0  0  0  0  0  0  0  0  0  0  0
   16.6167   -8.8192   14.9602 H   0  0  0  0  0  0  0  0  0  0  0  0
   17.7154   -5.4453   14.4007 H   0  0  0  0  0  0  0  0  0  0  0  0
   17.0871   -3.3249   13.2559 H   0  0  0  0  0  0  0  0  0  0  0  0
   18.2057   -0.6985    8.1942 H   0  0  0  0  0  0  0  0  0  0  0  0
   20.5466   -0.8492    7.3619 H   0  0  0  0  0  0  0  0  0  0  0  0
  1  2  1  0
  2  3  1  0
  3  4  2  0
  4  5  1  0
  5  6  2  0
  6  7  1  0
  7  8  1  0
  8  9  1  0
  9 10  2  0
 10 11  1  0
 11 12  2  0
 12 13  1  0
 13 14  1  0
 14 15  1  0
 15 16  1  0
 16 17  1  0
 13 18  2  0
 18 19  1  0
 19 20  1  0
 20 21  2  0
 21 22  1  0
 22 23  2  0
 23 24  1  0
 24 25  1  0
 23 26  1  0
 26 27  2  0
  6 28  1  0
 28 29  2  0
 29  3  1  0
 19  7  2  0
 27 20  1  0
 18  9  1  0
  1 30  1  0
  1 31  1  0
  1 32  1  0
  4 33  1  0
  5 34  1  0
 11 35  1  0
 14 36  1  0
 15 37  1  0
 15 38  1  0
 16 39  1  0
 16 40  1  0
 17 41  1  0
 21 42  1  0
 22 43  1  0
 25 44  1  0
 25 45  1  0
 25 46  1  0
 26 47  1  0
 27 48  1  0
 28 49  1  0
 29 50  1  0
M  END
>  <meeko>  (3) 
{"is_sidechain": [false], "free_energy": -7.914, "intermolecular_energy": -11.41, "internal_energy": -1.478}

$$$$
2br1_ligand
     RDKit          3D

 50 53  0  0  0  0  0  0  0  0999 V2000
   23.7340   -5.3070   11.4040 C   0  0  0  0  0  0  0  0  0  0  0  0
   23.4500   -4.5500   10.2340 O   0  0  0  0  0  0  0  0  0  0  0  0
   22.1740   -4.0800   10.0980 C   0  0  0  0  0  0  0  0  0  0  0  0
   21.5210   -3.8010   11.3000 C   0  0  0  0  0  0  0  0  0  0  0  0
   20.2100   -3.3140   11.3090 C   0  0  0  0  0  0  0  0  0  0  0  0
   19.5170   -3.0990   10.1110 C   0  0  0  0  0  0  0  0  0  0  0  0
   18.1420   -2.5990   10.0940 C   0  0  0  0  0  0  0  0  0  0  0  0
   17.9880   -1.3850    9.4810 O   0  0  0  0  0  0  0  0  0  0  0  0
   16.6740   -1.0470    9.5390 C   0  0  0  0  0  0  0  0  0  0  0  0
   16.2070    0.0950    9.0210 N   0  0  0  0  0  0  0  0  0  0  0  0
   14.8860    0.1940    9.1850 C   0  0  0  0  0  0  0  0  0  0  0  0
   14.0590   -0.6920    9.7710 N   0  0  0  0  0  0  0  0  0  0  0  0
   14.5640   -1.8400   10.2830 C   0  0  0  0  0  0  0  0  0  0  0  0
   13.7060   -2.7810   10.8470 N   0  0  0  0  0  0  0  0  0  0  0  0
   12.7830   -2.3170   11.8770 C   0  0  0  0  0  0  0  0  0  0  0  0
   13.2870   -2.6280   13.2880 C   0  0  0  0  0  0  0  0  0  0  0  0
   12.2460   -2.4030   14.2380 O   0  0  0  0  0  0  0  0  0  0  0  0
   15.9520   -2.0410   10.1800 C   0  0  0  0  0  0  0  0  0  0  0  0
   16.9080   -3.0380   10.5550 C   0  0  0  0  0  0  0  0  0  0  0  0
   16.6890   -4.2910   11.2440 C   0  0  0  0  0  0  0  0  0  0  0  0
   16.6570   -5.4940   10.5330 C   0  0  0  0  0  0  0  0  0  0  0  0
   16.4330   -6.7030   11.2030 C   0  0  0  0  0  0  0  0  0  0  0  0
   16.2380   -6.7150   12.5840 C   0  0  0  0  0  0  0  0  0  0  0  0
   16.0100   -7.8210   13.3550 O   0  0  0  0  0  0  0  0  0  0  0  0
   14.9560   -7.7340   14.3070 C   0  0  0  0  0  0  0  0  0  0  0  0
   16.2680   -5.5090   13.2900 C   0  0  0  0  0  0  0  0  0  0  0  0
   16.4910   -4.3010   12.6280 C   0  0  0  0  0  0  0  0  0  0  0  0
   20.1850   -3.3780    8.9080 C   0  0  0  0  0  0  0  0  0  0  0  0
   21.4990   -3.8650    8.8990 C   0  0  0  0  0  0  0  0  0  0  0  0
   23.5075   -4.7033   12.2952 H   0  0  0  0  0  0  0  0  0  0  0  0
   23.1162   -6.2171   11.4109 H   0  0  0  0  0  0  0  0  0  0  0  0
   24.7980   -5.5861   11.4109 H   0  0  0  0  0  0  0  0  0  0  0  0
   22.0448   -3.9665   12.2530 H   0  0  0  0  0  0  0  0  0  0  0  0
   19.7173   -3.0973   12.2683 H   0  0  0  0  0  0  0  0  0  0  0  0
   14.4169    1.1092    8.7946 H   0  0  0  0  0  0  0  0  0  0  0  0
   14.1600   -3.6620   11.0590 H   0  0  0  0  0  0  0  0  0  0  0  0
   12.6589   -1.2286   11.7771 H   0  0  0  0  0  0  0  0  0  0  0  0
   11.8276   -2.8437   11.7361 H   0  0  0  0  0  0  0  0  0  0  0  0
   13.6047   -3.6799   13.3379 H   0  0  0  0  0  0  0  0  0  0  0  0
   14.1374   -1.9704   13.5212 H   0  0  0  0  0  0  0  0  0  0  0  0
   12.4210   -1.5340   14.6380 H   0  0  0  0  0  0  0  0  0  0  0  0
   16.8083   -5.4910    9.4435 H   0  0  0  0  0  0  0  0  0  0  0  0
   16.4107   -7.6466   10.6382 H   0  0  0  0  0  0  0  0  0  0  0  0
   15.3759   -7.7687   15.3231 H   0  0  0  0  0  0  0  0  0  0  0  0
   14.4125   -6.7879   14.1669 H   0  0  0  0  0  0  0  0  0  0  0  0
   14.2648   -8.5781   14.1669 H   0  0  0  0  0  0  0  0  0  0  0  0
   16.1142   -5.5122   14.3792 H   0  0  0  0  0  0  0  0  0  0  0  0
   16.5110   -3.3581   13.1942 H   0  0  0  0  0  0  0  0  0  0  0  0
   19.6661   -3.2108    7.9526 H   0  0  0  0  0  0  0  0  0  0  0  0
   21.9986   -4.0780    7.9424 H   0  0  0  0  0  0  0  0  0  0  0  0
  1  2  1  0
  2  3  1  0
  3  4  2  0
  4  5  1  0
  5  6  2  0
  6  7  1  0
  7  8  1  0
  8  9  1  0
  9 10  2  0
 10 11  1  0
 11 12  2  0
 12 13  1  0
 13 14  1  0
 14 15  1  0
 15 16  1  0
 16 17  1  0
 13 18  2  0
 18 19  1  0
 19 20  1  0
 20 21  2  0
 21 22  1  0
 22 23  2  0
 23 24  1  0
 24 25  1  0
 23 26  1  0
 26 27  2  0
  6 28  1  0
 28 29  2  0
 29  3  1  0
 19  7  2  0
 27 20  1  0
 18  9  1  0
  1 30  1  0
  1 31  1  0
  1 32  1  0
  4 33  1  0
  5 34  1  0
 11 35  1  0
 14 36  1  0
 15 37  1  0
 15 38  1  0
 16 39  1  0
 16 40  1  0
 17 41  1  0
 21 42  1  0
 22 43  1  0
 25 44  1  0
 25 45  1  0
 25 46  1  0
 26 47  1  0
 27 48  1  0
 28 49  1  0
 29 50  1  0
M  END
>  <meeko>  (4) 
{"is_sidechain": [false], "free_energy": -7.738, "intermolecular_energy": -10.99, "internal_energy": -1.645}

$$$$
2br1_ligand
     RDKit          3D

 50 53  0  0  0  0  0  0  0  0999 V2000
   10.7150   -2.7720   13.4550 C   0  0  0  0  0  0  0  0  0  0  0  0
   11.0480   -4.0090   14.0710 O   0  0  0  0  0  0  0  0  0  0  0  0
   12.2840   -4.5230   13.7960 C   0  0  0  0  0  0  0  0  0  0  0  0
   13.3220   -3.5900   13.8060 C   0  0  0  0  0  0  0  0  0  0  0  0
   14.6390   -3.9780   13.5410 C   0  0  0  0  0  0  0  0  0  0  0  0
   14.9490   -5.3120   13.2530 C   0  0  0  0  0  0  0  0  0  0  0  0
   16.3170   -5.7420   12.9630 C   0  0  0  0  0  0  0  0  0  0  0  0
   16.6920   -6.8990   13.5890 O   0  0  0  0  0  0  0  0  0  0  0  0
   17.9740   -7.1750   13.2340 C   0  0  0  0  0  0  0  0  0  0  0  0
   18.6260   -8.2520   13.6880 N   0  0  0  0  0  0  0  0  0  0  0  0
   19.8600   -8.3160   13.1850 C   0  0  0  0  0  0  0  0  0  0  0  0
   20.4450   -7.4640   12.3230 N   0  0  0  0  0  0  0  0  0  0  0  0
   19.7570   -6.3850   11.8790 C   0  0  0  0  0  0  0  0  0  0  0  0
   20.3410   -5.5260   10.9520 N   0  0  0  0  0  0  0  0  0  0  0  0
   21.6780   -5.0230   11.2510 C   0  0  0  0  0  0  0  0  0  0  0  0
   21.6550   -3.5700   11.7330 C   0  0  0  0  0  0  0  0  0  0  0  0
   22.9060   -3.2360   12.3320 O   0  0  0  0  0  0  0  0  0  0  0  0
   18.4470   -6.2080   12.3610 C   0  0  0  0  0  0  0  0  0  0  0  0
   17.3780   -5.2700   12.2010 C   0  0  0  0  0  0  0  0  0  0  0  0
   17.3370   -4.0710   11.3930 C   0  0  0  0  0  0  0  0  0  0  0  0
   18.1280   -2.9680   11.7230 C   0  0  0  0  0  0  0  0  0  0  0  0
   18.0780   -1.8040   10.9450 C   0  0  0  0  0  0  0  0  0  0  0  0
   17.2350   -1.7390    9.8350 C   0  0  0  0  0  0  0  0  0  0  0  0
   17.0900   -0.6690    8.9960 O   0  0  0  0  0  0  0  0  0  0  0  0
   15.7760   -0.1460    8.8420 C   0  0  0  0  0  0  0  0  0  0  0  0
   16.4430   -2.8440    9.5100 C   0  0  0  0  0  0  0  0  0  0  0  0
   16.4900   -4.0060   10.2820 C   0  0  0  0  0  0  0  0  0  0  0  0
   13.8980   -6.2440   13.2510 C   0  0  0  0  0  0  0  0  0  0  0  0
   12.5780   -5.8560   13.5170 C   0  0  0  0  0  0  0  0  0  0  0  0
   10.5123   -2.0189   14.2308 H   0  0  0  0  0  0  0  0  0  0  0  0
   11.5548   -2.4364   12.8288 H   0  0  0  0  0  0  0  0  0  0  0  0
    9.8202   -2.9034   12.8288 H   0  0  0  0  0  0  0  0  0  0  0  0
   13.1010   -2.5350   14.0254 H   0  0  0  0  0  0  0  0  0  0  0  0
   15.4412   -3.2255   13.5591 H   0  0  0  0  0  0  0  0  0  0  0  0
   20.4731   -9.1677   13.5145 H   0  0  0  0  0  0  0  0  0  0  0  0
   19.7010   -4.8250   10.5950 H   0  0  0  0  0  0  0  0  0  0  0  0
   22.1248   -5.6498   12.0368 H   0  0  0  0  0  0  0  0  0  0  0  0
   22.2685   -5.0618   10.3238 H   0  0  0  0  0  0  0  0  0  0  0  0
   21.4718   -2.9047   10.8764 H   0  0  0  0  0  0  0  0  0  0  0  0
   20.8539   -3.4484   12.4770 H   0  0  0  0  0  0  0  0  0  0  0  0
   22.9040   -3.6410   13.2170 H   0  0  0  0  0  0  0  0  0  0  0  0
   18.7933   -3.0136   12.5978 H   0  0  0  0  0  0  0  0  0  0  0  0
   18.7046   -0.9395   11.2097 H   0  0  0  0  0  0  0  0  0  0  0  0
   15.3330    0.0303    9.8333 H   0  0  0  0  0  0  0  0  0  0  0  0
   15.8216    0.8025    8.2868 H   0  0  0  0  0  0  0  0  0  0  0  0
   15.1573   -0.8664    8.2868 H   0  0  0  0  0  0  0  0  0  0  0  0
   15.7757   -2.7974    8.6367 H   0  0  0  0  0  0  0  0  0  0  0  0
   15.8618   -4.8692   10.0170 H   0  0  0  0  0  0  0  0  0  0  0  0
   14.1157   -7.3006   13.0361 H   0  0  0  0  0  0  0  0  0  0  0  0
   11.7726   -6.6051   13.5055 H   0  0  0  0  0  0  0  0  0  0  0  0
  1  2  1  0
  2  3  1  0
  3  4  2  0
  4  5  1  0
  5  6  2  0
  6  7  1  0
  7  8  1  0
  8  9  1  0
  9 10  2  0
 10 11  1  0
 11 12  2  0
 12 13  1  0
 13 14  1  0
 14 15  1  0
 15 16  1  0
 16 17  1  0
 13 18  2  0
 18 19  1  0
 19 20  1  0
 20 21  2  0
 21 22  1  0
 22 23  2  0
 23 24  1  0
 24 25  1  0
 23 26  1  0
 26 27  2  0
  6 28  1  0
 28 29  2  0
 29  3  1  0
 19  7  2  0
 27 20  1  0
 18  9  1  0
  1 30  1  0
  1 31  1  0
  1 32  1  0
  4 33  1  0
  5 34  1  0
 11 35  1  0
 14 36  1  0
 15 37  1  0
 15 38  1  0
 16 39  1  0
 16 40  1  0
 17 41  1  0
 21 42  1  0
 22 43  1  0
 25 44  1  0
 25 45  1  0
 25 46  1  0
 26 47  1  0
 27 48  1  0
 28 49  1  0
 29 50  1  0
M  END
>  <meeko>  (5) 
{"is_sidechain": [false], "free_energy": -7.722, "intermolecular_energy": -11.15, "internal_energy": -1.461}

$$$$
2br1_ligand
     RDKit          3D

 50 53  0  0  0  0  0  0  0  0999 V2000
   14.3820   -8.8930   16.7550 C   0  0  0  0  0  0  0  0  0  0  0  0
   13.6640   -7.6670   16.8220 O   0  0  0  0  0  0  0  0  0  0  0  0
   13.7930   -6.8180   15.7590 C   0  0  0  0  0  0  0  0  0  0  0  0
   14.0940   -5.4970   16.0960 C   0  0  0  0  0  0  0  0  0  0  0  0
   14.2530   -4.5220   15.1070 C   0  0  0  0  0  0  0  0  0  0  0  0
   14.1100   -4.8450   13.7530 C   0  0  0  0  0  0  0  0  0  0  0  0
   14.2620   -3.8410   12.6990 C   0  0  0  0  0  0  0  0  0  0  0  0
   13.1740   -3.0300   12.5260 O   0  0  0  0  0  0  0  0  0  0  0  0
   13.4530   -2.1570   11.5240 C   0  0  0  0  0  0  0  0  0  0  0  0
   12.5780   -1.2290   11.1190 N   0  0  0  0  0  0  0  0  0  0  0  0
   13.0860   -0.4810   10.1380 C   0  0  0  0  0  0  0  0  0  0  0  0
   14.3080   -0.5710    9.5810 N   0  0  0  0  0  0  0  0  0  0  0  0
   15.1730   -1.5190   10.0160 C   0  0  0  0  0  0  0  0  0  0  0  0
   16.4540   -1.5860    9.4750 N   0  0  0  0  0  0  0  0  0  0  0  0
   17.4890   -0.7640   10.0940 C   0  0  0  0  0  0  0  0  0  0  0  0
   18.8880   -1.3550    9.9030 C   0  0  0  0  0  0  0  0  0  0  0  0
   18.8000   -2.6010    9.2120 O   0  0  0  0  0  0  0  0  0  0  0  0
   14.7330   -2.3790   11.0390 C   0  0  0  0  0  0  0  0  0  0  0  0
   15.2480   -3.4820   11.7890 C   0  0  0  0  0  0  0  0  0  0  0  0
   16.5440   -4.1190   11.6910 C   0  0  0  0  0  0  0  0  0  0  0  0
   16.7240   -5.2340   10.8680 C   0  0  0  0  0  0  0  0  0  0  0  0
   17.9780   -5.8540   10.7850 C   0  0  0  0  0  0  0  0  0  0  0  0
   19.0530   -5.3630   11.5250 C   0  0  0  0  0  0  0  0  0  0  0  0
   20.3230   -5.8730   11.5350 O   0  0  0  0  0  0  0  0  0  0  0  0
   20.4980   -7.1480   12.1410 C   0  0  0  0  0  0  0  0  0  0  0  0
   18.8670   -4.2500   12.3490 C   0  0  0  0  0  0  0  0  0  0  0  0
   17.6210   -3.6280   12.4360 C   0  0  0  0  0  0  0  0  0  0  0  0
   13.8130   -6.1770   13.4230 C   0  0  0  0  0  0  0  0  0  0  0  0
   13.6540   -7.1550   14.4150 C   0  0  0  0  0  0  0  0  0  0  0  0
   14.5918   -9.2512   17.7737 H   0  0  0  0  0  0  0  0  0  0  0  0
   13.7797   -9.6419   16.2198 H   0  0  0  0  0  0  0  0  0  0  0  0
   15.3298   -8.7341   16.2198 H   0  0  0  0  0  0  0  0  0  0  0  0
   14.2076   -5.2196   17.1544 H   0  0  0  0  0  0  0  0  0  0  0  0
   14.4934   -3.4884   15.3966 H   0  0  0  0  0  0  0  0  0  0  0  0
   12.4273    0.3031    9.7363 H   0  0  0  0  0  0  0  0  0  0  0  0
   16.4640   -1.5760    8.4610 H   0  0  0  0  0  0  0  0  0  0  0  0
   17.4631    0.2383    9.6416 H   0  0  0  0  0  0  0  0  0  0  0  0
   17.2851   -0.7211   11.1741 H   0  0  0  0  0  0  0  0  0  0  0  0
   19.5022   -0.6557    9.3168 H   0  0  0  0  0  0  0  0  0  0  0  0
   19.3487   -1.5195   10.8882 H   0  0  0  0  0  0  0  0  0  0  0  0
   19.7140   -2.8780    9.0270 H   0  0  0  0  0  0  0  0  0  0  0  0
   15.8787   -5.6262   10.2835 H   0  0  0  0  0  0  0  0  0  0  0  0
   18.1147   -6.7303   10.1343 H   0  0  0  0  0  0  0  0  0  0  0  0
   20.4830   -7.0389   13.2355 H   0  0  0  0  0  0  0  0  0  0  0  0
   19.6833   -7.8176   11.8281 H   0  0  0  0  0  0  0  0  0  0  0  0
   21.4629   -7.5734   11.8281 H   0  0  0  0  0  0  0  0  0  0  0  0
   19.7120   -3.8599   12.9354 H   0  0  0  0  0  0  0  0  0  0  0  0
   17.4861   -2.7533   13.0892 H   0  0  0  0  0  0  0  0  0  0  0  0
   13.7029   -6.4588   12.3654 H   0  0  0  0  0  0  0  0  0  0  0  0
   13.4188   -8.1913   14.1309 H   0  0  0  0  0  0  0  0  0  0  0  0
  1  2  1  0
  2  3  1  0
  3  4  2  0
  4  5  1  0
  5  6  2  0
  6  7  1  0
  7  8  1  0
  8  9  1  0
  9 10  2  0
 10 11  1  0
 11 12  2  0
 12 13  1  0
 13 14  1  0
 14 15  1  0
 15 16  1  0
 16 17  1  0
 13 18  2  0
 18 19  1  0
 19 20  1  0
 20 21  2  0
 21 22  1  0
 22 23  2  0
 23 24  1  0
 24 25  1  0
 23 26  1  0
 26 27  2  0
  6 28  1  0
 28 29  2  0
 29  3  1  0
 19  7  2  0
 27 20  1  0
 18  9  1  0
  1 30  1  0
  1 31  1  0
  1 32  1  0
  4 33  1  0
  5 34  1  0
 11 35  1  0
 14 36  1  0
 15 37  1  0
 15 38  1  0
 16 39  1  0
 16 40  1  0
 17 41  1  0
 21 42  1  0
 22 43  1  0
 25 44  1  0
 25 45  1  0
 25 46  1  0
 26 47  1  0
 27 48  1  0
 28 49  1  0
 29 50  1  0
M  END
>  <meeko>  (6) 
{"is_sidechain": [false], "free_energy": -7.433, "intermolecular_energy": -10.243, "internal_energy": -1.954}

$$$$
2br1_ligand
     RDKit          3D

 50 53  0  0  0  0  0  0  0  0999 V2000
   12.3640   -6.0510   13.1500 C   0  0  0  0  0  0  0  0  0  0  0  0
   13.4900   -6.6470   13.7810 O   0  0  0  0  0  0  0  0  0  0  0  0
   14.7230   -6.2410   13.3550 C   0  0  0  0  0  0  0  0  0  0  0  0
   15.3530   -7.1140   12.4660 C   0  0  0  0  0  0  0  0  0  0  0  0
   16.6200   -6.8220   11.9500 C   0  0  0  0  0  0  0  0  0  0  0  0
   17.2900   -5.6490   12.3160 C   0  0  0  0  0  0  0  0  0  0  0  0
   18.6200   -5.3250   11.7980 C   0  0  0  0  0  0  0  0  0  0  0  0
   19.5790   -6.2610   12.0720 O   0  0  0  0  0  0  0  0  0  0  0  0
   20.7510   -5.8320   11.5370 C   0  0  0  0  0  0  0  0  0  0  0  0
   21.8840   -6.5380   11.6400 N   0  0  0  0  0  0  0  0  0  0  0  0
   22.8940   -5.9230   11.0210 C   0  0  0  0  0  0  0  0  0  0  0  0
   22.8620   -4.7550   10.3520 N   0  0  0  0  0  0  0  0  0  0  0  0
   21.6990   -4.0670   10.2630 C   0  0  0  0  0  0  0  0  0  0  0  0
   21.6500   -2.8830    9.5320 N   0  0  0  0  0  0  0  0  0  0  0  0
   21.1590   -2.9600    8.1600 C   0  0  0  0  0  0  0  0  0  0  0  0
   20.4600   -1.6700    7.7230 C   0  0  0  0  0  0  0  0  0  0  0  0
   21.1650   -0.5380    8.2320 O   0  0  0  0  0  0  0  0  0  0  0  0
   20.5690   -4.6170   10.8970 C   0  0  0  0  0  0  0  0  0  0  0  0
   19.1910   -4.2810   11.0820 C   0  0  0  0  0  0  0  0  0  0  0  0
   18.4700   -3.1180   10.6110 C   0  0  0  0  0  0  0  0  0  0  0  0
   18.7950   -1.8440   11.0850 C   0  0  0  0  0  0  0  0  0  0  0  0
   18.0870   -0.7230   10.6350 C   0  0  0  0  0  0  0  0  0  0  0  0
   17.0520   -0.8700    9.7130 C   0  0  0  0  0  0  0  0  0  0  0  0
   16.2840    0.1370    9.1960 O   0  0  0  0  0  0  0  0  0  0  0  0
   14.8820    0.0580    9.4210 C   0  0  0  0  0  0  0  0  0  0  0  0
   16.7280   -2.1470    9.2440 C   0  0  0  0  0  0  0  0  0  0  0  0
   17.4300   -3.2680    9.6890 C   0  0  0  0  0  0  0  0  0  0  0  0
   16.6450   -4.7750   13.2060 C   0  0  0  0  0  0  0  0  0  0  0  0
   15.3750   -5.0660   13.7230 C   0  0  0  0  0  0  0  0  0  0  0  0
   11.6668   -5.6820   13.9166 H   0  0  0  0  0  0  0  0  0  0  0  0
   12.6972   -5.2112   12.5226 H   0  0  0  0  0  0  0  0  0  0  0  0
   11.8568   -6.7988   12.5226 H   0  0  0  0  0  0  0  0  0  0  0  0
   14.8464   -8.0436   12.1674 H   0  0  0  0  0  0  0  0  0  0  0  0
   17.0955   -7.5228   11.2480 H   0  0  0  0  0  0  0  0  0  0  0  0
   23.8688   -6.4310   11.0624 H   0  0  0  0  0  0  0  0  0  0  0  0
   22.4740   -2.3050    9.6480 H   0  0  0  0  0  0  0  0  0  0  0  0
   22.0104   -3.1464    7.4889 H   0  0  0  0  0  0  0  0  0  0  0  0
   20.4236   -3.7764    8.1097 H   0  0  0  0  0  0  0  0  0  0  0  0
   20.4376   -1.6217    6.6243 H   0  0  0  0  0  0  0  0  0  0  0  0
   19.4330   -1.6637    8.1170 H   0  0  0  0  0  0  0  0  0  0  0  0
   20.7810    0.2440    7.7980 H   0  0  0  0  0  0  0  0  0  0  0  0
   19.6096   -1.7216   11.8139 H   0  0  0  0  0  0  0  0  0  0  0  0
   18.3485    0.2773   11.0104 H   0  0  0  0  0  0  0  0  0  0  0  0
   14.6843    0.0469   10.5030 H   0  0  0  0  0  0  0  0  0  0  0  0
   14.3881    0.9297    8.9670 H   0  0  0  0  0  0  0  0  0  0  0  0
   14.4891   -0.8637    8.9670 H   0  0  0  0  0  0  0  0  0  0  0  0
   15.9116   -2.2691    8.5170 H   0  0  0  0  0  0  0  0  0  0  0  0
   17.1654   -4.2680    9.3149 H   0  0  0  0  0  0  0  0  0  0  0  0
   17.1469   -3.8425   13.5037 H   0  0  0  0  0  0  0  0  0  0  0  0
   14.8923   -4.3655   14.4204 H   0  0  0  0  0  0  0  0  0  0  0  0
  1  2  1  0
  2  3  1  0
  3  4  2  0
  4  5  1  0
  5  6  2  0
  6  7  1  0
  7  8  1  0
  8  9  1  0
  9 10  2  0
 10 11  1  0
 11 12  2  0
 12 13  1  0
 13 14  1  0
 14 15  1  0
 15 16  1  0
 16 17  1  0
 13 18  2  0
 18 19  1  0
 19 20  1  0
 20 21  2  0
 21 22  1  0
 22 23  2  0
 23 24  1  0
 24 25  1  0
 23 26  1  0
 26 27  2  0
  6 28  1  0
 28 29  2  0
 29  3  1  0
 19  7  2  0
 27 20  1  0
 18  9  1  0
  1 30  1  0
  1 31  1  0
  1 32  1  0
  4 33  1  0
  5 34  1  0
 11 35  1  0
 14 36  1  0
 15 37  1  0
 15 38  1  0
 16 39  1  0
 16 40  1  0
 17 41  1  0
 21 42  1  0
 22 43  1  0
 25 44  1  0
 25 45  1  0
 25 46  1  0
 26 47  1  0
 27 48  1  0
 28 49  1  0
 29 50  1  0
M  END
>  <meeko>  (7) 
{"is_sidechain": [false], "free_energy": -7.378, "intermolecular_energy": -10.392, "internal_energy": -1.725}

$$$$
2br1_ligand
     RDKit          3D

 50 53  0  0  0  0  0  0  0  0999 V2000
   16.2770   -8.4100   16.0680 C   0  0  0  0  0  0  0  0  0  0  0  0
   15.1820   -8.0650   15.2300 O   0  0  0  0  0  0  0  0  0  0  0  0
   15.4010   -7.0880   14.2990 C   0  0  0  0  0  0  0  0  0  0  0  0
   15.6190   -5.8150   14.8260 C   0  0  0  0  0  0  0  0  0  0  0  0
   15.8560   -4.7210   13.9870 C   0  0  0  0  0  0  0  0  0  0  0  0
   15.8750   -4.8760   12.5960 C   0  0  0  0  0  0  0  0  0  0  0  0
   16.1110   -3.7460   11.6960 C   0  0  0  0  0  0  0  0  0  0  0  0
   14.9820   -3.0660   11.3320 O   0  0  0  0  0  0  0  0  0  0  0  0
   15.3480   -2.0550   10.5020 C   0  0  0  0  0  0  0  0  0  0  0  0
   14.4580   -1.2060    9.9740 N   0  0  0  0  0  0  0  0  0  0  0  0
   15.0590   -0.2910    9.2100 C   0  0  0  0  0  0  0  0  0  0  0  0
   16.3750   -0.1610    8.9600 N   0  0  0  0  0  0  0  0  0  0  0  0
   17.2500   -1.0350    9.5130 C   0  0  0  0  0  0  0  0  0  0  0  0
   18.6160   -0.8760    9.2950 N   0  0  0  0  0  0  0  0  0  0  0  0
   19.2270   -1.6800    8.2410 C   0  0  0  0  0  0  0  0  0  0  0  0
   20.7540   -1.7070    8.3460 C   0  0  0  0  0  0  0  0  0  0  0  0
   21.2790   -0.3950    8.1440 O   0  0  0  0  0  0  0  0  0  0  0  0
   16.7230   -2.0550   10.3250 C   0  0  0  0  0  0  0  0  0  0  0  0
   17.2130   -3.1640   11.0850 C   0  0  0  0  0  0  0  0  0  0  0  0
   18.5780   -3.6150   11.2530 C   0  0  0  0  0  0  0  0  0  0  0  0
   18.9540   -4.8980   10.8450 C   0  0  0  0  0  0  0  0  0  0  0  0
   20.2730   -5.3350   11.0190 C   0  0  0  0  0  0  0  0  0  0  0  0
   21.2200   -4.4940   11.6030 C   0  0  0  0  0  0  0  0  0  0  0  0
   22.5340   -4.7960   11.8300 O   0  0  0  0  0  0  0  0  0  0  0  0
   22.8010   -5.9370   12.6350 C   0  0  0  0  0  0  0  0  0  0  0  0
   20.8380   -3.2120   12.0120 C   0  0  0  0  0  0  0  0  0  0  0  0
   19.5250   -2.7710   11.8400 C   0  0  0  0  0  0  0  0  0  0  0  0
   15.6600   -6.1620   12.0760 C   0  0  0  0  0  0  0  0  0  0  0  0
   15.4240   -7.2590   12.9170 C   0  0  0  0  0  0  0  0  0  0  0  0
   15.9763   -8.3153   17.1218 H   0  0  0  0  0  0  0  0  0  0  0  0
   16.5812   -9.4475   15.8653 H   0  0  0  0  0  0  0  0  0  0  0  0
   17.1210   -7.7342   15.8653 H   0  0  0  0  0  0  0  0  0  0  0  0
   15.6044   -5.6694   15.9162 H   0  0  0  0  0  0  0  0  0  0  0  0
   16.0295   -3.7272   14.4256 H   0  0  0  0  0  0  0  0  0  0  0  0
   14.3995    0.4450    8.7269 H   0  0  0  0  0  0  0  0  0  0  0  0
   19.1570   -0.8300   10.1510 H   0  0  0  0  0  0  0  0  0  0  0  0
   18.8484   -2.7100    8.3167 H   0  0  0  0  0  0  0  0  0  0  0  0
   18.9629   -1.2264    7.2743 H   0  0  0  0  0  0  0  0  0  0  0  0
   21.0445   -2.0662    9.3443 H   0  0  0  0  0  0  0  0  0  0  0  0
   21.1577   -2.3807    7.5759 H   0  0  0  0  0  0  0  0  0  0  0  0
   22.2470   -0.4770    8.1910 H   0  0  0  0  0  0  0  0  0  0  0  0
   18.2112   -5.5667   10.3856 H   0  0  0  0  0  0  0  0  0  0  0  0
   20.5632   -6.3450   10.6940 H   0  0  0  0  0  0  0  0  0  0  0  0
   22.7361   -5.6595   13.6974 H   0  0  0  0  0  0  0  0  0  0  0  0
   22.0622   -6.7218   12.4152 H   0  0  0  0  0  0  0  0  0  0  0  0
   23.8113   -6.3125   12.4152 H   0  0  0  0  0  0  0  0  0  0  0  0
   21.5802   -2.5444   12.4740 H   0  0  0  0  0  0  0  0  0  0  0  0
   19.2359   -1.7609   12.1659 H   0  0  0  0  0  0  0  0  0  0  0  0
   15.6770   -6.3123   10.9865 H   0  0  0  0  0  0  0  0  0  0  0  0
   15.2567   -8.2564   12.4844 H   0  0  0  0  0  0  0  0  0  0  0  0
  1  2  1  0
  2  3  1  0
  3  4  2  0
  4  5  1  0
  5  6  2  0
  6  7  1  0
  7  8  1  0
  8  9  1  0
  9 10  2  0
 10 11  1  0
 11 12  2  0
 12 13  1  0
 13 14  1  0
 14 15  1  0
 15 16  1  0
 16 17  1  0
 13 18  2  0
 18 19  1  0
 19 20  1  0
 20 21  2  0
 21 22  1  0
 22 23  2  0
 23 24  1  0
 24 25  1  0
 23 26  1  0
 26 27  2  0
  6 28  1  0
 28 29  2  0
 29  3  1  0
 19  7  2  0
 27 20  1  0
 18  9  1  0
  1 30  1  0
  1 31  1  0
  1 32  1  0
  4 33  1  0
  5 34  1  0
 11 35  1  0
 14 36  1  0
 15 37  1  0
 15 38  1  0
 16 39  1  0
 16 40  1  0
 17 41  1  0
 21 42  1  0
 22 43  1  0
 25 44  1  0
 25 45  1  0
 25 46  1  0
 26 47  1  0
 27 48  1  0
 28 49  1  0
 29 50  1  0
M  END
>  <meeko>  (8) 
{"is_sidechain": [false], "free_energy": -7.325, "intermolecular_energy": -10.536, "internal_energy": -1.505}

$$$$
2br1_ligand
     RDKit          3D

 50 53  0  0  0  0  0  0  0  0999 V2000
   20.3730   -8.3220   16.7820 C   0  0  0  0  0  0  0  0  0  0  0  0
   19.0230   -8.2370   17.2200 O   0  0  0  0  0  0  0  0  0  0  0  0
   18.1710   -7.4950   16.4510 C   0  0  0  0  0  0  0  0  0  0  0  0
   18.0200   -7.9470   15.1390 C   0  0  0  0  0  0  0  0  0  0  0  0
   17.1780   -7.2810   14.2420 C   0  0  0  0  0  0  0  0  0  0  0  0
   16.4700   -6.1410   14.6370 C   0  0  0  0  0  0  0  0  0  0  0  0
   15.5890   -5.4210   13.7160 C   0  0  0  0  0  0  0  0  0  0  0  0
   14.2560   -5.5400   13.9960 O   0  0  0  0  0  0  0  0  0  0  0  0
   13.5640   -4.8290   13.0690 C   0  0  0  0  0  0  0  0  0  0  0  0
   12.2280   -4.7520   13.0770 N   0  0  0  0  0  0  0  0  0  0  0  0
   11.7830   -3.9840   12.0810 C   0  0  0  0  0  0  0  0  0  0  0  0
   12.5100   -3.3290   11.1560 N   0  0  0  0  0  0  0  0  0  0  0  0
   13.8610   -3.4250   11.1770 C   0  0  0  0  0  0  0  0  0  0  0  0
   14.6190   -2.7130   10.2510 N   0  0  0  0  0  0  0  0  0  0  0  0
   14.3310   -1.2900   10.1000 C   0  0  0  0  0  0  0  0  0  0  0  0
   15.4250   -0.5590    9.3180 C   0  0  0  0  0  0  0  0  0  0  0  0
   15.1890    0.8480    9.3480 O   0  0  0  0  0  0  0  0  0  0  0  0
   14.4390   -4.2270   12.1780 C   0  0  0  0  0  0  0  0  0  0  0  0
   15.7500   -4.6270   12.5880 C   0  0  0  0  0  0  0  0  0  0  0  0
   17.0280   -4.2760   12.0070 C   0  0  0  0  0  0  0  0  0  0  0  0
   17.6870   -3.1080   12.4010 C   0  0  0  0  0  0  0  0  0  0  0  0
   18.9190   -2.7660   11.8280 C   0  0  0  0  0  0  0  0  0  0  0  0
   19.4940   -3.5880   10.8590 C   0  0  0  0  0  0  0  0  0  0  0  0
   20.6850   -3.3710   10.2230 O   0  0  0  0  0  0  0  0  0  0  0  0
   20.6290   -3.1060    8.8270 C   0  0  0  0  0  0  0  0  0  0  0  0
   18.8290   -4.7540   10.4670 C   0  0  0  0  0  0  0  0  0  0  0  0
   17.6020   -5.1000   11.0350 C   0  0  0  0  0  0  0  0  0  0  0  0
   16.6240   -5.6970   15.9610 C   0  0  0  0  0  0  0  0  0  0  0  0
   17.4670   -6.3650   16.8600 C   0  0  0  0  0  0  0  0  0  0  0  0
   21.0400   -8.3640   17.6557 H   0  0  0  0  0  0  0  0  0  0  0  0
   20.5053   -9.2303   16.1757 H   0  0  0  0  0  0  0  0  0  0  0  0
   20.6182   -7.4375   16.1757 H   0  0  0  0  0  0  0  0  0  0  0  0
   18.5706   -8.8391   14.8058 H   0  0  0  0  0  0  0  0  0  0  0  0
   17.0714   -7.6581   13.2142 H   0  0  0  0  0  0  0  0  0  0  0  0
   10.6912   -3.8725   12.0065 H   0  0  0  0  0  0  0  0  0  0  0  0
   14.7530   -3.2070    9.3760 H   0  0  0  0  0  0  0  0  0  0  0  0
   13.3768   -1.1765    9.5647 H   0  0  0  0  0  0  0  0  0  0  0  0
   14.2809   -0.8468   11.1055 H   0  0  0  0  0  0  0  0  0  0  0  0
   16.4033   -0.7741    9.7726 H   0  0  0  0  0  0  0  0  0  0  0  0
   15.4148   -0.9047    8.2738 H   0  0  0  0  0  0  0  0  0  0  0  0
   14.3240    0.9910    8.9270 H   0  0  0  0  0  0  0  0  0  0  0  0
   17.2369   -2.4552   13.1634 H   0  0  0  0  0  0  0  0  0  0  0  0
   19.4342   -1.8466   12.1433 H   0  0  0  0  0  0  0  0  0  0  0  0
   20.4041   -2.0416    8.6646 H   0  0  0  0  0  0  0  0  0  0  0  0
   21.5985   -3.3500    8.3683 H   0  0  0  0  0  0  0  0  0  0  0  0
   19.8411   -3.7214    8.3683 H   0  0  0  0  0  0  0  0  0  0  0  0
   19.2778   -5.4055    9.7027 H   0  0  0  0  0  0  0  0  0  0  0  0
   17.0878   -6.0194   10.7183 H   0  0  0  0  0  0  0  0  0  0  0  0
   16.0721   -4.8075   16.2989 H   0  0  0  0  0  0  0  0  0  0  0  0
   17.5727   -5.9959   17.8908 H   0  0  0  0  0  0  0  0  0  0  0  0
  1  2  1  0
  2  3  1  0
  3  4  2  0
  4  5  1  0
  5  6  2  0
  6  7  1  0
  7  8  1  0
  8  9  1  0
  9 10  2  0
 10 11  1  0
 11 12  2  0
 12 13  1  0
 13 14  1  0
 14 15  1  0
 15 16  1  0
 16 17  1  0
 13 18  2  0
 18 19  1  0
 19 20  1  0
 20 21  2  0
 21 22  1  0
 22 23  2  0
 23 24  1  0
 24 25  1  0
 23 26  1  0
 26 27  2  0
  6 28  1  0
 28 29  2  0
 29  3  1  0
 19  7  2  0
 27 20  1  0
 18  9  1  0
  1 30  1  0
  1 31  1  0
  1 32  1  0
  4 33  1  0
  5 34  1  0
 11 35  1  0
 14 36  1  0
 15 37  1  0
 15 38  1  0
 16 39  1  0
 16 40  1  0
 17 41  1  0
 21 42  1  0
 22 43  1  0
 25 44  1  0
 25 45  1  0
 25 46  1  0
 26 47  1  0
 27 48  1  0
 28 49  1  0
 29 50  1  0
M  END
>  <meeko>  (9) 
{"is_sidechain": [false], "free_energy": -7.271, "intermolecular_energy": -10.39, "internal_energy": -1.574}

$$$$
