2w66_ligand
     RDKit          3D

 35 35  0  0  0  0  0  0  0  0999 V2000
    7.6560  -10.0970    7.4730 C   0  0  0  0  0  0  0  0  0  0  0  0
    6.7850  -10.2660    6.2590 C   0  0  0  0  0  0  0  0  0  0  0  0
    5.6500   -9.8090    6.1770 O   0  0  0  0  0  0  0  0  0  0  0  0
    7.3740  -10.9450    5.2110 N   0  0  0  0  0  0  0  0  0  0  0  0
    6.6560  -11.1420    3.9250 C   0  0  2  0  0  0  0  0  0  0  0  0
    5.7830  -12.4110    4.0420 C   0  0  1  0  0  0  0  0  0  0  0  0
    4.4430  -12.0500    3.6520 O   0  0  0  0  0  0  0  0  0  0  0  0
    6.1370  -13.6620    3.2000 C   0  0  2  0  0  0  0  0  0  0  0  0
    7.2940  -14.2940    3.7800 O   0  0  0  0  0  0  0  0  0  0  0  0
    6.3950  -13.4830    1.6930 C   0  0  1  0  0  0  0  0  0  0  0  0
    5.7270  -14.5400    0.7930 C   0  0  0  0  0  0  0  0  0  0  0  0
    4.3350  -14.5900    1.1240 O   0  0  0  0  0  0  0  0  0  0  0  0
    6.0780  -12.1050    1.1570 N   0  0  0  0  0  0  0  0  0  0  0  0
    7.0300  -10.9810    1.3500 C   0  0  0  0  0  0  0  0  0  0  0  0
    7.6460  -11.0540    2.7360 C   0  0  1  0  0  0  0  0  0  0  0  0
    8.4140   -9.8400    2.8680 O   0  0  0  0  0  0  0  0  0  0  0  0
    7.0464  -10.2153    8.3810 H   0  0  0  0  0  0  0  0  0  0  0  0
    8.4505  -10.8577    7.4631 H   0  0  0  0  0  0  0  0  0  0  0  0
    8.1083   -9.0943    7.4631 H   0  0  0  0  0  0  0  0  0  0  0  0
    8.3880  -11.0100    5.2300 H   0  0  0  0  0  0  0  0  0  0  0  0
    5.9439  -10.3336    3.7026 H   0  0  0  0  0  0  0  0  0  0  0  0
    5.9423  -12.7209    5.0854 H   0  0  0  0  0  0  0  0  0  0  0  0
    4.0280  -12.8280    3.2290 H   0  0  0  0  0  0  0  0  0  0  0  0
    5.2168  -14.2633    3.2405 H   0  0  0  0  0  0  0  0  0  0  0  0
    8.0130  -13.6290    3.8050 H   0  0  0  0  0  0  0  0  0  0  0  0
    7.4839  -13.6292    1.6388 H   0  0  0  0  0  0  0  0  0  0  0  0
    5.8492  -14.2608   -0.2639 H   0  0  0  0  0  0  0  0  0  0  0  0
    6.1920  -15.5242    0.9512 H   0  0  0  0  0  0  0  0  0  0  0  0
    4.2700  -14.6730    2.0980 H   0  0  0  0  0  0  0  0  0  0  0  0
    5.8670  -12.1920    0.1560 H   0  0  0  0  0  0  0  0  0  0  0  0
    5.1570  -11.8310    1.5680 H   0  0  0  0  0  0  0  0  0  0  0  0
    7.8263  -11.0442    0.5937 H   0  0  0  0  0  0  0  0  0  0  0  0
    6.4900  -10.0285    1.2447 H   0  0  0  0  0  0  0  0  0  0  0  0
    8.2213  -11.9896    2.7967 H   0  0  0  0  0  0  0  0  0  0  0  0
    7.8850   -9.2020    3.4070 H   0  0  0  0  0  0  0  0  0  0  0  0
  1  2  1  0
  2  3  2  0
  2  4  1  0
  4  5  1  0
  5  6  1  0
  6  7  1  0
  6  8  1  0
  8  9  1  0
  8 10  1  0
 10 11  1  0
 11 12  1  0
 10 13  1  0
 13 14  1  0
 14 15  1  0
 15 16  1  0
 15  5  1  0
  1 17  1  0
  1 18  1  0
  1 19  1  0
  4 20  1  0
  5 21  1  6
  6 22  1  1
  7 23  1  0
  8 24  1  6
  9 25  1  0
 10 26  1  1
 11 27  1  0
 11 28  1  0
 12 29  1  0
 13 30  1  0
 13 31  1  0
 14 32  1  0
 14 33  1  0
 15 34  1  6
 16 35  1  0
M  CHG  1  13   1
M  END
>  <meeko>  (1) 
{"is_sidechain": [false], "free_energy": -6.046, "intermolecular_energy": -9.58, "internal_energy": 0.18}

$$$$
2w66_ligand
     RDKit          3D

 35 35  0  0  0  0  0  0  0  0999 V2000
    6.3640  -15.8080    2.9970 C   0  0  0  0  0  0  0  0  0  0  0  0
    6.5410  -14.5490    2.1960 C   0  0  0  0  0  0  0  0  0  0  0  0
    6.0770  -14.3960    1.0720 O   0  0  0  0  0  0  0  0  0  0  0  0
    7.2370  -13.5440    2.8380 N   0  0  0  0  0  0  0  0  0  0  0  0
    7.4450  -12.2210    2.1930 C   0  0  2  0  0  0  0  0  0  0  0  0
    8.4050  -11.3920    3.0750 C   0  0  1  0  0  0  0  0  0  0  0  0
    8.4270  -10.0520    2.5470 O   0  0  0  0  0  0  0  0  0  0  0  0
    8.1090  -11.2380    4.5880 C   0  0  2  0  0  0  0  0  0  0  0  0
    8.6090  -12.4000    5.2760 O   0  0  0  0  0  0  0  0  0  0  0  0
    6.6530  -11.0090    5.0310 C   0  0  1  0  0  0  0  0  0  0  0  0
    6.4910  -10.1910    6.3270 C   0  0  0  0  0  0  0  0  0  0  0  0
    7.7290  -10.2470    7.0430 O   0  0  0  0  0  0  0  0  0  0  0  0
    5.7510  -10.4300    3.9640 N   0  0  0  0  0  0  0  0  0  0  0  0
    5.1090  -11.3120    2.9560 C   0  0  0  0  0  0  0  0  0  0  0  0
    6.0840  -11.5870    1.8130 C   0  0  1  0  0  0  0  0  0  0  0  0
    6.3280  -10.2930    1.2260 O   0  0  0  0  0  0  0  0  0  0  0  0
    6.3978  -15.5678    4.0699 H   0  0  0  0  0  0  0  0  0  0  0  0
    5.3929  -16.2639    2.7537 H   0  0  0  0  0  0  0  0  0  0  0  0
    7.1717  -16.5140    2.7537 H   0  0  0  0  0  0  0  0  0  0  0  0
    7.3100  -13.6210    3.8490 H   0  0  0  0  0  0  0  0  0  0  0  0
    7.9538  -12.2926    1.2204 H   0  0  0  0  0  0  0  0  0  0  0  0
    9.3397  -11.9701    3.0292 H   0  0  0  0  0  0  0  0  0  0  0  0
    9.1320   -9.5540    3.0070 H   0  0  0  0  0  0  0  0  0  0  0  0
    8.6154  -10.2973    4.8499 H   0  0  0  0  0  0  0  0  0  0  0  0
    8.5440  -13.1580    4.6590 H   0  0  0  0  0  0  0  0  0  0  0  0
    6.3239  -12.0384    5.2361 H   0  0  0  0  0  0  0  0  0  0  0  0
    6.2488   -9.1465    6.0814 H   0  0  0  0  0  0  0  0  0  0  0  0
    5.6761  -10.6036    6.9399 H   0  0  0  0  0  0  0  0  0  0  0  0
    8.3630  -10.7530    6.4930 H   0  0  0  0  0  0  0  0  0  0  0  0
    5.0240   -9.8730    4.4280 H   0  0  0  0  0  0  0  0  0  0  0  0
    6.3140   -9.7080    3.4600 H   0  0  0  0  0  0  0  0  0  0  0  0
    4.8253  -12.2629    3.4307 H   0  0  0  0  0  0  0  0  0  0  0  0
    4.2126  -10.8149    2.5569 H   0  0  0  0  0  0  0  0  0  0  0  0
    5.6237  -12.3378    1.1539 H   0  0  0  0  0  0  0  0  0  0  0  0
    6.0640  -10.3360    0.2740 H   0  0  0  0  0  0  0  0  0  0  0  0
  1  2  1  0
  2  3  2  0
  2  4  1  0
  4  5  1  0
  5  6  1  0
  6  7  1  0
  6  8  1  0
  8  9  1  0
  8 10  1  0
 10 11  1  0
 11 12  1  0
 10 13  1  0
 13 14  1  0
 14 15  1  0
 15 16  1  0
 15  5  1  0
  1 17  1  0
  1 18  1  0
  1 19  1  0
  4 20  1  0
  5 21  1  6
  6 22  1  1
  7 23  1  0
  8 24  1  1
  9 25  1  0
 10 26  1  1
 11 27  1  0
 11 28  1  0
 12 29  1  0
 13 30  1  0
 13 31  1  0
 14 32  1  0
 14 33  1  0
 15 34  1  6
 16 35  1  0
M  CHG  1  13   1
M  END
>  <meeko>  (2) 
{"is_sidechain": [false], "free_energy": -5.275, "intermolecular_energy": -8.395, "internal_energy": 0.216}

$$$$
2w66_ligand
     RDKit          3D

 35 35  0  0  0  0  0  0  0  0999 V2000
    7.1920   -9.7850    7.1410 C   0  0  0  0  0  0  0  0  0  0  0  0
    6.7990  -10.6310    5.9620 C   0  0  0  0  0  0  0  0  0  0  0  0
    5.7620  -11.2840    5.9190 O   0  0  0  0  0  0  0  0  0  0  0  0
    7.6760  -10.5880    4.8970 N   0  0  0  0  0  0  0  0  0  0  0  0
    7.3950  -11.3300    3.6400 C   0  0  2  0  0  0  0  0  0  0  0  0
    6.3320  -10.5470    2.8380 C   0  0  1  0  0  0  0  0  0  0  0  0
    7.0230   -9.5330    2.0810 O   0  0  0  0  0  0  0  0  0  0  0  0
    5.4440  -11.2970    1.8140 C   0  0  2  0  0  0  0  0  0  0  0  0
    4.2760  -10.4980    1.5470 O   0  0  0  0  0  0  0  0  0  0  0  0
    4.9810  -12.7250    2.1520 C   0  0  1  0  0  0  0  0  0  0  0  0
    3.6800  -13.1660    1.4530 C   0  0  0  0  0  0  0  0  0  0  0  0
    3.9320  -14.4090    0.7900 O   0  0  0  0  0  0  0  0  0  0  0  0
    6.0340  -13.7930    1.9590 N   0  0  0  0  0  0  0  0  0  0  0  0
    7.2630  -13.8030    2.7910 C   0  0  0  0  0  0  0  0  0  0  0  0
    7.1140  -12.8220    3.9470 C   0  0  1  0  0  0  0  0  0  0  0  0
    8.0590  -13.2730    4.9390 O   0  0  0  0  0  0  0  0  0  0  0  0
    6.9452  -10.3163    8.0720 H   0  0  0  0  0  0  0  0  0  0  0  0
    8.2737   -9.5883    7.1068 H   0  0  0  0  0  0  0  0  0  0  0  0
    6.6446   -8.8315    7.1068 H   0  0  0  0  0  0  0  0  0  0  0  0
    8.3240   -9.8060    4.8780 H   0  0  0  0  0  0  0  0  0  0  0  0
    8.2651  -11.3847    2.9692 H   0  0  0  0  0  0  0  0  0  0  0  0
    5.6355  -10.2097    3.6198 H   0  0  0  0  0  0  0  0  0  0  0  0
    6.3750   -9.0970    1.4920 H   0  0  0  0  0  0  0  0  0  0  0  0
    6.1124  -11.4347    0.9513 H   0  0  0  0  0  0  0  0  0  0  0  0
    3.4970  -11.0910    1.5930 H   0  0  0  0  0  0  0  0  0  0  0  0
    4.7750  -12.6384    3.2291 H   0  0  0  0  0  0  0  0  0  0  0  0
    2.8816  -13.2960    2.1984 H   0  0  0  0  0  0  0  0  0  0  0  0
    3.3600  -12.4043    0.7268 H   0  0  0  0  0  0  0  0  0  0  0  0
    3.5120  -15.1150    1.3230 H   0  0  0  0  0  0  0  0  0  0  0  0
    5.5760  -14.7090    2.0320 H   0  0  0  0  0  0  0  0  0  0  0  0
    6.3170  -13.7520    0.9530 H   0  0  0  0  0  0  0  0  0  0  0  0
    7.4252  -14.8152    3.1901 H   0  0  0  0  0  0  0  0  0  0  0  0
    8.1222  -13.5056    2.1718 H   0  0  0  0  0  0  0  0  0  0  0  0
    6.0570  -12.8295    4.2516 H   0  0  0  0  0  0  0  0  0  0  0  0
    7.6240  -13.9820    5.4730 H   0  0  0  0  0  0  0  0  0  0  0  0
  1  2  1  0
  2  3  2  0
  2  4  1  0
  4  5  1  0
  5  6  1  0
  6  7  1  0
  6  8  1  0
  8  9  1  0
  8 10  1  0
 10 11  1  0
 11 12  1  0
 10 13  1  0
 13 14  1  0
 14 15  1  0
 15 16  1  0
 15  5  1  0
  1 17  1  0
  1 18  1  0
  1 19  1  0
  4 20  1  0
  5 21  1  6
  6 22  1  1
  7 23  1  0
  8 24  1  6
  9 25  1  0
 10 26  1  1
 11 27  1  0
 11 28  1  0
 12 29  1  0
 13 30  1  0
 13 31  1  0
 14 32  1  0
 14 33  1  0
 15 34  1  1
 16 35  1  0
M  CHG  1  13   1
M  END
>  <meeko>  (3) 
{"is_sidechain": [false], "free_energy": -5.129, "intermolecular_energy": -9.217, "internal_energy": 1.269}

$$$$
2w66_ligand
     RDKit          3D

 35 35  0  0  0  0  0  0  0  0999 V2000
    5.4300  -14.9040   -0.2160 C   0  0  0  0  0  0  0  0  0  0  0  0
    6.3410  -14.4150    0.8740 C   0  0  0  0  0  0  0  0  0  0  0  0
    7.2850  -15.0680    1.3060 O   0  0  0  0  0  0  0  0  0  0  0  0
    6.0670  -13.1420    1.3350 N   0  0  0  0  0  0  0  0  0  0  0  0
    6.9150  -12.5020    2.3740 C   0  0  2  0  0  0  0  0  0  0  0  0
    6.4780  -13.0320    3.7570 C   0  0  1  0  0  0  0  0  0  0  0  0
    7.6520  -13.5550    4.4100 O   0  0  0  0  0  0  0  0  0  0  0  0
    5.8340  -12.0600    4.7770 C   0  0  2  0  0  0  0  0  0  0  0  0
    4.4970  -11.7530    4.3380 O   0  0  0  0  0  0  0  0  0  0  0  0
    6.5540  -10.7350    5.0840 C   0  0  1  0  0  0  0  0  0  0  0  0
    6.6960  -10.4080    6.5830 C   0  0  0  0  0  0  0  0  0  0  0  0
    7.9870   -9.8270    6.7900 O   0  0  0  0  0  0  0  0  0  0  0  0
    7.9000  -10.5770    4.4130 N   0  0  0  0  0  0  0  0  0  0  0  0
    7.9910  -10.1940    2.9810 C   0  0  0  0  0  0  0  0  0  0  0  0
    6.9540  -10.9680    2.1670 C   0  0  1  0  0  0  0  0  0  0  0  0
    7.2970  -10.6980    0.7920 O   0  0  0  0  0  0  0  0  0  0  0  0
    4.5447  -15.3792    0.2317 H   0  0  0  0  0  0  0  0  0  0  0  0
    5.1144  -14.0541   -0.8389 H   0  0  0  0  0  0  0  0  0  0  0  0
    5.9639  -15.6368   -0.8389 H   0  0  0  0  0  0  0  0  0  0  0  0
    5.4940  -12.5580    0.7310 H   0  0  0  0  0  0  0  0  0  0  0  0
    7.9763  -12.7797    2.2936 H   0  0  0  0  0  0  0  0  0  0  0  0
    5.6790  -13.7445    3.5041 H   0  0  0  0  0  0  0  0  0  0  0  0
    7.4030  -13.8240    5.3160 H   0  0  0  0  0  0  0  0  0  0  0  0
    5.8895  -12.6147    5.7253 H   0  0  0  0  0  0  0  0  0  0  0  0
    4.5020  -10.8320    4.0020 H   0  0  0  0  0  0  0  0  0  0  0  0
    5.8625  -10.0033    4.6408 H   0  0  0  0  0  0  0  0  0  0  0  0
    5.9138   -9.6961    6.8852 H   0  0  0  0  0  0  0  0  0  0  0  0
    6.5883  -11.3225    7.1848 H   0  0  0  0  0  0  0  0  0  0  0  0
    7.8850   -8.8550    6.7200 H   0  0  0  0  0  0  0  0  0  0  0  0
    8.4590   -9.9190    4.9690 H   0  0  0  0  0  0  0  0  0  0  0  0
    8.4050  -11.4830    4.5450 H   0  0  0  0  0  0  0  0  0  0  0  0
    7.8026   -9.1150    2.8796 H   0  0  0  0  0  0  0  0  0  0  0  0
    8.9970  -10.4333    2.6060 H   0  0  0  0  0  0  0  0  0  0  0  0
    5.9561  -10.6351    2.4884 H   0  0  0  0  0  0  0  0  0  0  0  0
    7.1010   -9.7470    0.6100 H   0  0  0  0  0  0  0  0  0  0  0  0
  1  2  1  0
  2  3  2  0
  2  4  1  0
  4  5  1  0
  5  6  1  0
  6  7  1  0
  6  8  1  0
  8  9  1  0
  8 10  1  0
 10 11  1  0
 11 12  1  0
 10 13  1  0
 13 14  1  0
 14 15  1  0
 15 16  1  0
 15  5  1  0
  1 17  1  0
  1 18  1  0
  1 19  1  0
  4 20  1  0
  5 21  1  6
  6 22  1  6
  7 23  1  0
  8 24  1  1
  9 25  1  0
 10 26  1  6
 11 27  1  0
 11 28  1  0
 12 29  1  0
 13 30  1  0
 13 31  1  0
 14 32  1  0
 14 33  1  0
 15 34  1  1
 16 35  1  0
M  CHG  1  13   1
M  END
>  <meeko>  (4) 
{"is_sidechain": [false], "free_energy": -4.992, "intermolecular_energy": -7.941, "internal_energy": 0.21}

$$$$
2w66_ligand
     RDKit          3D

 35 35  0  0  0  0  0  0  0  0999 V2000
    7.0770  -10.2050    6.1390 C   0  0  0  0  0  0  0  0  0  0  0  0
    6.3980  -11.2340    5.2790 C   0  0  0  0  0  0  0  0  0  0  0  0
    5.3290  -11.7580    5.5740 O   0  0  0  0  0  0  0  0  0  0  0  0
    7.0480  -11.5240    4.0960 N   0  0  0  0  0  0  0  0  0  0  0  0
    6.4700  -12.4820    3.1170 C   0  0  2  0  0  0  0  0  0  0  0  0
    5.2030  -11.8490    2.5020 C   0  0  1  0  0  0  0  0  0  0  0  0
    5.4800  -10.4510    2.2870 O   0  0  0  0  0  0  0  0  0  0  0  0
    4.6650  -12.3790    1.1490 C   0  0  2  0  0  0  0  0  0  0  0  0
    3.4390  -11.6890    0.8390 O   0  0  0  0  0  0  0  0  0  0  0  0
    4.4150  -13.8900    1.0010 C   0  0  1  0  0  0  0  0  0  0  0  0
    5.2670  -14.5840   -0.0790 C   0  0  0  0  0  0  0  0  0  0  0  0
    6.4770  -13.8360   -0.2380 O   0  0  0  0  0  0  0  0  0  0  0  0
    4.5120  -14.6760    2.2890 N   0  0  0  0  0  0  0  0  0  0  0  0
    5.8350  -15.0250    2.8650 C   0  0  0  0  0  0  0  0  0  0  0  0
    6.3390  -13.8880    3.7540 C   0  0  1  0  0  0  0  0  0  0  0  0
    7.6460  -14.3220    4.1810 O   0  0  0  0  0  0  0  0  0  0  0  0
    6.9158  -10.4492    7.1994 H   0  0  0  0  0  0  0  0  0  0  0  0
    8.1557  -10.2010    5.9235 H   0  0  0  0  0  0  0  0  0  0  0  0
    6.6564   -9.2117    5.9235 H   0  0  0  0  0  0  0  0  0  0  0  0
    7.7330  -10.8440    3.7800 H   0  0  0  0  0  0  0  0  0  0  0  0
    7.1307  -12.6697    2.2578 H   0  0  0  0  0  0  0  0  0  0  0  0
    4.4225  -12.1046    3.2338 H   0  0  0  0  0  0  0  0  0  0  0  0
    5.9790  -10.1160    3.0580 H   0  0  0  0  0  0  0  0  0  0  0  0
    5.4920  -12.1792    0.4517 H   0  0  0  0  0  0  0  0  0  0  0  0
    3.6490  -10.7350    0.7620 H   0  0  0  0  0  0  0  0  0  0  0  0
    3.3665  -13.9058    0.6687 H   0  0  0  0  0  0  0  0  0  0  0  0
    5.5022  -15.6117    0.2348 H   0  0  0  0  0  0  0  0  0  0  0  0
    4.7166  -14.6261   -1.0305 H   0  0  0  0  0  0  0  0  0  0  0  0
    6.3810  -13.0120    0.2830 H   0  0  0  0  0  0  0  0  0  0  0  0
    3.9570  -14.1900    3.0030 H   0  0  0  0  0  0  0  0  0  0  0  0
    3.9750  -15.5600    2.1370 H   0  0  0  0  0  0  0  0  0  0  0  0
    5.7396  -15.9414    3.4659 H   0  0  0  0  0  0  0  0  0  0  0  0
    6.5521  -15.1862    2.0466 H   0  0  0  0  0  0  0  0  0  0  0  0
    5.5892  -13.7325    4.5437 H   0  0  0  0  0  0  0  0  0  0  0  0
    8.1780  -14.5260    3.3740 H   0  0  0  0  0  0  0  0  0  0  0  0
  1  2  1  0
  2  3  2  0
  2  4  1  0
  4  5  1  0
  5  6  1  0
  6  7  1  0
  6  8  1  0
  8  9  1  0
  8 10  1  0
 10 11  1  0
 11 12  1  0
 10 13  1  0
 13 14  1  0
 14 15  1  0
 15 16  1  0
 15  5  1  0
  1 17  1  0
  1 18  1  0
  1 19  1  0
  4 20  1  0
  5 21  1  6
  6 22  1  1
  7 23  1  0
  8 24  1  6
  9 25  1  0
 10 26  1  6
 11 27  1  0
 11 28  1  0
 12 29  1  0
 13 30  1  0
 13 31  1  0
 14 32  1  0
 14 33  1  0
 15 34  1  1
 16 35  1  0
M  CHG  1  13   1
M  END
>  <meeko>  (5) 
{"is_sidechain": [false], "free_energy": -4.826, "intermolecular_energy": -8.043, "internal_energy": 0.575}

$$$$
2w66_ligand
     RDKit          3D

 35 35  0  0  0  0  0  0  0  0999 V2000
    7.6550   -9.8110    7.5050 C   0  0  0  0  0  0  0  0  0  0  0  0
    6.8580  -10.2360    6.3030 C   0  0  0  0  0  0  0  0  0  0  0  0
    5.7280   -9.8240    6.0650 O   0  0  0  0  0  0  0  0  0  0  0  0
    7.5110  -11.1030    5.4500 N   0  0  0  0  0  0  0  0  0  0  0  0
    6.8720  -11.5690    4.1920 C   0  0  2  0  0  0  0  0  0  0  0  0
    7.1810  -10.5450    3.0780 C   0  0  1  0  0  0  0  0  0  0  0  0
    8.5420  -10.1070    3.2590 O   0  0  0  0  0  0  0  0  0  0  0  0
    7.0790  -10.9780    1.5940 C   0  0  2  0  0  0  0  0  0  0  0  0
    6.9310   -9.8000    0.7800 O   0  0  0  0  0  0  0  0  0  0  0  0
    5.9770  -11.9770    1.1960 C   0  0  1  0  0  0  0  0  0  0  0  0
    6.4420  -13.4410    1.0820 C   0  0  0  0  0  0  0  0  0  0  0  0
    5.7580  -14.0390   -0.0250 O   0  0  0  0  0  0  0  0  0  0  0  0
    4.7310  -11.9170    2.0500 N   0  0  0  0  0  0  0  0  0  0  0  0
    4.6460  -12.6820    3.3190 C   0  0  0  0  0  0  0  0  0  0  0  0
    5.3880  -11.9350    4.4460 C   0  0  1  0  0  0  0  0  0  0  0  0
    5.3200  -12.8110    5.5890 O   0  0  0  0  0  0  0  0  0  0  0  0
    7.1178  -10.0975    8.4211 H   0  0  0  0  0  0  0  0  0  0  0  0
    8.6378  -10.3048    7.4866 H   0  0  0  0  0  0  0  0  0  0  0  0
    7.7926   -8.7198    7.4866 H   0  0  0  0  0  0  0  0  0  0  0  0
    8.5220  -11.1480    5.5400 H   0  0  0  0  0  0  0  0  0  0  0  0
    7.2912  -12.5163    3.8220 H   0  0  0  0  0  0  0  0  0  0  0  0
    6.3856   -9.7963    3.2081 H   0  0  0  0  0  0  0  0  0  0  0  0
    8.5890   -9.1560    3.0370 H   0  0  0  0  0  0  0  0  0  0  0  0
    8.0128  -11.5351    1.4278 H   0  0  0  0  0  0  0  0  0  0  0  0
    6.8370   -9.0340    1.3840 H   0  0  0  0  0  0  0  0  0  0  0  0
    5.7166  -11.6243    0.1871 H   0  0  0  0  0  0  0  0  0  0  0  0
    7.5282  -13.4752    0.9119 H   0  0  0  0  0  0  0  0  0  0  0  0
    6.2159  -13.9865    2.0100 H   0  0  0  0  0  0  0  0  0  0  0  0
    5.8430  -13.4270   -0.7850 H   0  0  0  0  0  0  0  0  0  0  0  0
    4.5230  -10.9300    2.2430 H   0  0  0  0  0  0  0  0  0  0  0  0
    3.9360  -12.2080    1.4360 H   0  0  0  0  0  0  0  0  0  0  0  0
    3.5892  -12.8037    3.5991 H   0  0  0  0  0  0  0  0  0  0  0  0
    5.1139  -13.6670    3.1746 H   0  0  0  0  0  0  0  0  0  0  0  0
    4.8973  -10.9574    4.5623 H   0  0  0  0  0  0  0  0  0  0  0  0
    5.0140  -12.2780    6.3630 H   0  0  0  0  0  0  0  0  0  0  0  0
  1  2  1  0
  2  3  2  0
  2  4  1  0
  4  5  1  0
  5  6  1  0
  6  7  1  0
  6  8  1  0
  8  9  1  0
  8 10  1  0
 10 11  1  0
 11 12  1  0
 10 13  1  0
 13 14  1  0
 14 15  1  0
 15 16  1  0
 15  5  1  0
  1 17  1  0
  1 18  1  0
  1 19  1  0
  4 20  1  0
  5 21  1  6
  6 22  1  6
  7 23  1  0
  8 24  1  6
  9 25  1  0
 10 26  1  6
 11 27  1  0
 11 28  1  0
 12 29  1  0
 13 30  1  0
 13 31  1  0
 14 32  1  0
 14 33  1  0
 15 34  1  1
 16 35  1  0
M  CHG  1  13   1
M  END
>  <meeko>  (6) 
{"is_sidechain": [false], "free_energy": -4.692, "intermolecular_energy": -7.992, "internal_energy": 0.737}

$$$$
2w66_ligand
     RDKit          3D

 35 35  0  0  0  0  0  0  0  0999 V2000
    6.1100  -15.0820   -1.0960 C   0  0  0  0  0  0  0  0  0  0  0  0
    6.3320  -14.6490    0.3260 C   0  0  0  0  0  0  0  0  0  0  0  0
    7.2480  -15.0730    1.0230 O   0  0  0  0  0  0  0  0  0  0  0  0
    5.4480  -13.6950    0.7890 N   0  0  0  0  0  0  0  0  0  0  0  0
    5.5750  -13.1300    2.1580 C   0  0  2  0  0  0  0  0  0  0  0  0
    6.1780  -11.7130    2.0490 C   0  0  1  0  0  0  0  0  0  0  0  0
    5.3630  -10.9670    1.1240 O   0  0  0  0  0  0  0  0  0  0  0  0
    6.2840  -10.8280    3.3160 C   0  0  2  0  0  0  0  0  0  0  0  0
    6.5110   -9.4660    2.9090 O   0  0  0  0  0  0  0  0  0  0  0  0
    7.3360  -11.1930    4.3790 C   0  0  1  0  0  0  0  0  0  0  0  0
    7.0370  -10.6620    5.7940 C   0  0  0  0  0  0  0  0  0  0  0  0
    5.7260  -10.0860    5.7840 O   0  0  0  0  0  0  0  0  0  0  0  0
    7.6670  -12.6650    4.4620 N   0  0  0  0  0  0  0  0  0  0  0  0
    6.5870  -13.6830    4.5000 C   0  0  0  0  0  0  0  0  0  0  0  0
    6.2780  -14.1440    3.0960 C   0  0  1  0  0  0  0  0  0  0  0  0
    5.4110  -15.2830    3.2720 O   0  0  0  0  0  0  0  0  0  0  0  0
    5.6082  -16.0608   -1.1071 H   0  0  0  0  0  0  0  0  0  0  0  0
    5.4805  -14.3413   -1.6108 H   0  0  0  0  0  0  0  0  0  0  0  0
    7.0789  -15.1608   -1.6108 H   0  0  0  0  0  0  0  0  0  0  0  0
    4.9350  -13.1750    0.0830 H   0  0  0  0  0  0  0  0  0  0  0  0
    4.6038  -12.9809    2.6526 H   0  0  0  0  0  0  0  0  0  0  0  0
    7.2201  -11.9139    1.7596 H   0  0  0  0  0  0  0  0  0  0  0  0
    5.8310  -10.1380    0.9030 H   0  0  0  0  0  0  0  0  0  0  0  0
    5.3242  -10.9991    3.8255 H   0  0  0  0  0  0  0  0  0  0  0  0
    6.7650   -8.9580    3.7070 H   0  0  0  0  0  0  0  0  0  0  0  0
    8.2225  -10.6647    3.9981 H   0  0  0  0  0  0  0  0  0  0  0  0
    7.0757  -11.4887    6.5186 H   0  0  0  0  0  0  0  0  0  0  0  0
    7.7831   -9.9075    6.0840 H   0  0  0  0  0  0  0  0  0  0  0  0
    5.7700   -9.2520    6.2960 H   0  0  0  0  0  0  0  0  0  0  0  0
    8.3100  -12.8920    3.6930 H   0  0  0  0  0  0  0  0  0  0  0  0
    8.2650  -12.7870    5.3100 H   0  0  0  0  0  0  0  0  0  0  0  0
    6.9144  -14.5421    5.1040 H   0  0  0  0  0  0  0  0  0  0  0  0
    5.6840  -13.2420    4.9474 H   0  0  0  0  0  0  0  0  0  0  0  0
    7.2368  -14.3356    2.5920 H   0  0  0  0  0  0  0  0  0  0  0  0
    4.7600  -15.2890    2.5280 H   0  0  0  0  0  0  0  0  0  0  0  0
  1  2  1  0
  2  3  2  0
  2  4  1  0
  4  5  1  0
  5  6  1  0
  6  7  1  0
  6  8  1  0
  8  9  1  0
  8 10  1  0
 10 11  1  0
 11 12  1  0
 10 13  1  0
 13 14  1  0
 14 15  1  0
 15 16  1  0
 15  5  1  0
  1 17  1  0
  1 18  1  0
  1 19  1  0
  4 20  1  0
  5 21  1  1
  6 22  1  6
  7 23  1  0
  8 24  1  1
  9 25  1  0
 10 26  1  6
 11 27  1  0
 11 28  1  0
 12 29  1  0
 13 30  1  0
 13 31  1  0
 14 32  1  0
 14 33  1  0
 15 34  1  6
 16 35  1  0
M  CHG  1  13   1
M  END
>  <meeko>  (7) 
{"is_sidechain": [false], "free_energy": -4.284, "intermolecular_energy": -7.493, "internal_energy": 0.885}

$$$$
2w66_ligand
     RDKit          3D

 35 35  0  0  0  0  0  0  0  0999 V2000
    7.6660  -10.9570    5.3370 C   0  0  0  0  0  0  0  0  0  0  0  0
    6.4940  -11.7700    4.8620 C   0  0  0  0  0  0  0  0  0  0  0  0
    5.3830  -11.7130    5.3780 O   0  0  0  0  0  0  0  0  0  0  0  0
    6.7460  -12.5670    3.7630 N   0  0  0  0  0  0  0  0  0  0  0  0
    5.6700  -13.3870    3.1470 C   0  0  2  0  0  0  0  0  0  0  0  0
    6.1660  -14.8460    3.0420 C   0  0  1  0  0  0  0  0  0  0  0  0
    5.0560  -15.7040    3.3700 O   0  0  0  0  0  0  0  0  0  0  0  0
    6.7120  -15.3710    1.6910 C   0  0  2  0  0  0  0  0  0  0  0  0
    8.1160  -15.0620    1.6110 O   0  0  0  0  0  0  0  0  0  0  0  0
    6.0410  -14.8890    0.3920 C   0  0  1  0  0  0  0  0  0  0  0  0
    6.3210  -15.7650   -0.8440 C   0  0  0  0  0  0  0  0  0  0  0  0
    7.7380  -15.8110   -1.0440 O   0  0  0  0  0  0  0  0  0  0  0  0
    4.5520  -14.6470    0.5010 N   0  0  0  0  0  0  0  0  0  0  0  0
    4.0310  -13.4120    1.1400 C   0  0  0  0  0  0  0  0  0  0  0  0
    5.1470  -12.7070    1.8570 C   0  0  1  0  0  0  0  0  0  0  0  0
    4.6040  -11.4170    2.2060 O   0  0  0  0  0  0  0  0  0  0  0  0
    7.6826  -10.9455    6.4368 H   0  0  0  0  0  0  0  0  0  0  0  0
    8.5984  -11.4033    4.9609 H   0  0  0  0  0  0  0  0  0  0  0  0
    7.5745   -9.9274    4.9609 H   0  0  0  0  0  0  0  0  0  0  0  0
    7.5670  -12.3300    3.2140 H   0  0  0  0  0  0  0  0  0  0  0  0
    4.7648  -13.4458    3.7692 H   0  0  0  0  0  0  0  0  0  0  0  0
    7.0332  -14.8579    3.7186 H   0  0  0  0  0  0  0  0  0  0  0  0
    5.3210  -16.2730    4.1190 H   0  0  0  0  0  0  0  0  0  0  0  0
    6.4804  -16.4458    1.7246 H   0  0  0  0  0  0  0  0  0  0  0  0
    8.2370  -14.4280    0.8730 H   0  0  0  0  0  0  0  0  0  0  0  0
    6.5346  -13.9179    0.2392 H   0  0  0  0  0  0  0  0  0  0  0  0
    5.9348  -16.7812   -0.6761 H   0  0  0  0  0  0  0  0  0  0  0  0
    5.8242  -15.3438   -1.7304 H   0  0  0  0  0  0  0  0  0  0  0  0
    7.9250  -16.5680   -1.6370 H   0  0  0  0  0  0  0  0  0  0  0  0
    4.1450  -14.7320   -0.4370 H   0  0  0  0  0  0  0  0  0  0  0  0
    4.1540  -15.4720    1.0050 H   0  0  0  0  0  0  0  0  0  0  0  0
    3.6145  -12.7480    0.3682 H   0  0  0  0  0  0  0  0  0  0  0  0
    3.2436  -13.6776    1.8608 H   0  0  0  0  0  0  0  0  0  0  0  0
    6.0210  -12.6914    1.1892 H   0  0  0  0  0  0  0  0  0  0  0  0
    4.0590  -11.5270    3.0230 H   0  0  0  0  0  0  0  0  0  0  0  0
  1  2  1  0
  2  3  2  0
  2  4  1  0
  4  5  1  0
  5  6  1  0
  6  7  1  0
  6  8  1  0
  8  9  1  0
  8 10  1  0
 10 11  1  0
 11 12  1  0
 10 13  1  0
 13 14  1  0
 14 15  1  0
 15 16  1  0
 15  5  1  0
  1 17  1  0
  1 18  1  0
  1 19  1  0
  4 20  1  0
  5 21  1  1
  6 22  1  1
  7 23  1  0
  8 24  1  1
  9 25  1  0
 10 26  1  6
 11 27  1  0
 11 28  1  0
 12 29  1  0
 13 30  1  0
 13 31  1  0
 14 32  1  0
 14 33  1  0
 15 34  1  6
 16 35  1  0
M  CHG  1  13   1
M  END
>  <meeko>  (8) 
{"is_sidechain": [false], "free_energy": -4.089, "intermolecular_energy": -6.654, "internal_energy": 0.354}

$$$$
2w66_ligand
     RDKit          3D

 35 35  0  0  0  0  0  0  0  0999 V2000
    8.9390  -10.2430    1.0830 C   0  0  0  0  0  0  0  0  0  0  0  0
    7.8110  -10.5060    2.0420 C   0  0  0  0  0  0  0  0  0  0  0  0
    7.8720  -10.2450    3.2390 O   0  0  0  0  0  0  0  0  0  0  0  0
    6.6700  -11.0300    1.4680 N   0  0  0  0  0  0  0  0  0  0  0  0
    5.4540  -11.2930    2.2810 C   0  0  2  0  0  0  0  0  0  0  0  0
    5.8460  -12.1960    3.4710 C   0  0  1  0  0  0  0  0  0  0  0  0
    4.7590  -12.1610    4.4160 O   0  0  0  0  0  0  0  0  0  0  0  0
    6.1340  -13.6980    3.2250 C   0  0  2  0  0  0  0  0  0  0  0  0
    7.2250  -14.1020    4.0740 O   0  0  0  0  0  0  0  0  0  0  0  0
    6.4460  -14.1600    1.7910 C   0  0  1  0  0  0  0  0  0  0  0  0
    6.9450  -15.6130    1.6730 C   0  0  0  0  0  0  0  0  0  0  0  0
    8.3520  -15.6220    1.9380 O   0  0  0  0  0  0  0  0  0  0  0  0
    5.3290  -13.9380    0.7970 N   0  0  0  0  0  0  0  0  0  0  0  0
    4.0680  -13.2730    1.2130 C   0  0  0  0  0  0  0  0  0  0  0  0
    4.2890  -11.7590    1.3720 C   0  0  1  0  0  0  0  0  0  0  0  0
    3.0500  -11.2800    1.9320 O   0  0  0  0  0  0  0  0  0  0  0  0
    9.8582  -10.0287    1.6480 H   0  0  0  0  0  0  0  0  0  0  0  0
    9.0959  -11.1286    0.4498 H   0  0  0  0  0  0  0  0  0  0  0  0
    8.6881   -9.3793    0.4498 H   0  0  0  0  0  0  0  0  0  0  0  0
    6.5820  -10.9250    0.4620 H   0  0  0  0  0  0  0  0  0  0  0  0
    5.0436  -10.3848    2.7466 H   0  0  0  0  0  0  0  0  0  0  0  0
    6.8097  -11.7734    3.7914 H   0  0  0  0  0  0  0  0  0  0  0  0
    3.9200  -12.2550    3.9220 H   0  0  0  0  0  0  0  0  0  0  0  0
    5.1724  -14.1809    3.4532 H   0  0  0  0  0  0  0  0  0  0  0  0
    6.8520  -14.3070    4.9570 H   0  0  0  0  0  0  0  0  0  0  0  0
    7.2783  -13.4920    1.5244 H   0  0  0  0  0  0  0  0  0  0  0  0
    6.4235  -16.2471    2.4050 H   0  0  0  0  0  0  0  0  0  0  0  0
    6.7441  -16.0047    0.6649 H   0  0  0  0  0  0  0  0  0  0  0  0
    8.8040  -15.3060    1.1290 H   0  0  0  0  0  0  0  0  0  0  0  0
    5.7160  -13.4380   -0.0120 H   0  0  0  0  0  0  0  0  0  0  0  0
    5.0920  -14.8760    0.4020 H   0  0  0  0  0  0  0  0  0  0  0  0
    3.2962  -13.4486    0.4491 H   0  0  0  0  0  0  0  0  0  0  0  0
    3.7454  -13.6904    2.1782 H   0  0  0  0  0  0  0  0  0  0  0  0
    4.5731  -11.3619    0.3863 H   0  0  0  0  0  0  0  0  0  0  0  0
    2.5210  -12.0650    2.2170 H   0  0  0  0  0  0  0  0  0  0  0  0
  1  2  1  0
  2  3  2  0
  2  4  1  0
  4  5  1  0
  5  6  1  0
  6  7  1  0
  6  8  1  0
  8  9  1  0
  8 10  1  0
 10 11  1  0
 11 12  1  0
 10 13  1  0
 13 14  1  0
 14 15  1  0
 15 16  1  0
 15  5  1  0
  1 17  1  0
  1 18  1  0
  1 19  1  0
  4 20  1  0
  5 21  1  1
  6 22  1  1
  7 23  1  0
  8 24  1  1
  9 25  1  0
 10 26  1  6
 11 27  1  0
 11 28  1  0
 12 29  1  0
 13 30  1  0
 13 31  1  0
 14 32  1  0
 14 33  1  0
 15 34  1  6
 16 35  1  0
M  CHG  1  13   1
M  END
>  <meeko>  (9) 
{"is_sidechain": [false], "free_energy": -3.132, "intermolecular_energy": -5.555, "internal_energy": 0.772}

$$$$
