2xj7_ligand
     RDKit          3D

 35 36  0  0  0  0  0  0  0  0999 V2000
    1.9360  -32.9850   30.3000 C   0  0  0  0  0  0  0  0  0  0  0  0
    1.4510  -32.6070   31.6720 C   0  0  0  0  0  0  0  0  0  0  0  0
    0.3510  -32.9320   32.1080 O   0  0  0  0  0  0  0  0  0  0  0  0
    2.3410  -31.8740   32.4260 N   0  0  0  0  0  0  0  0  0  0  0  0
    1.9140  -31.2600   33.6890 C   0  0  1  0  0  0  0  0  0  0  0  0
    0.4800  -30.6830   33.6230 C   0  0  0  0  0  0  0  0  0  0  0  0
   -0.3540  -30.9450   34.8710 N   0  0  2  0  0  0  0  0  0  0  0  0
   -1.4320  -29.8910   35.0340 C   0  0  0  0  0  0  0  0  0  0  0  0
   -0.8380  -28.8340   35.9690 C   0  0  0  0  0  0  0  0  0  0  0  0
    0.5050  -29.3820   36.4490 C   0  0  2  0  0  0  0  0  0  0  0  0
    1.5580  -28.8260   35.6640 O   0  0  0  0  0  0  0  0  0  0  0  0
    0.3850  -30.8900   36.2000 C   0  0  2  0  0  0  0  0  0  0  0  0
    1.6990  -31.6820   36.1890 C   0  0  1  0  0  0  0  0  0  0  0  0
    1.5570  -32.7900   37.0970 O   0  0  0  0  0  0  0  0  0  0  0  0
    2.0490  -32.2730   34.8220 C   0  0  2  0  0  0  0  0  0  0  0  0
    3.3840  -32.8080   34.8720 O   0  0  0  0  0  0  0  0  0  0  0  0
    2.8007  -33.6590   30.3896 H   0  0  0  0  0  0  0  0  0  0  0  0
    1.1289  -33.4947   29.7533 H   0  0  0  0  0  0  0  0  0  0  0  0
    2.2332  -32.0779   29.7533 H   0  0  0  0  0  0  0  0  0  0  0  0
    3.0980  -31.4110   31.9260 H   0  0  0  0  0  0  0  0  0  0  0  0
    2.5756  -30.4029   33.8830 H   0  0  0  0  0  0  0  0  0  0  0  0
    0.5518  -29.5950   33.4776 H   0  0  0  0  0  0  0  0  0  0  0  0
   -0.0280  -31.1904   32.7897 H   0  0  0  0  0  0  0  0  0  0  0  0
   -0.7970  -31.8700   34.7730 H   0  0  0  0  0  0  0  0  0  0  0  0
   -1.6828  -29.4447   34.0604 H   0  0  0  0  0  0  0  0  0  0  0  0
   -2.3602  -30.3184   35.4411 H   0  0  0  0  0  0  0  0  0  0  0  0
   -0.6904  -27.8880   35.4275 H   0  0  0  0  0  0  0  0  0  0  0  0
   -1.5096  -28.6310   36.8162 H   0  0  0  0  0  0  0  0  0  0  0  0
    0.7288  -29.1417   37.4988 H   0  0  0  0  0  0  0  0  0  0  0  0
    2.2340  -28.4690   36.2750 H   0  0  0  0  0  0  0  0  0  0  0  0
   -0.1347  -31.3891   37.0311 H   0  0  0  0  0  0  0  0  0  0  0  0
    2.4971  -30.9790   36.4699 H   0  0  0  0  0  0  0  0  0  0  0  0
    0.8910  -32.5290   37.7670 H   0  0  0  0  0  0  0  0  0  0  0  0
    1.3280  -33.0743   34.6026 H   0  0  0  0  0  0  0  0  0  0  0  0
    3.6680  -33.0550   33.9710 H   0  0  0  0  0  0  0  0  0  0  0  0
  1  2  1  0
  2  3  2  0
  2  4  1  0
  4  5  1  0
  5  6  1  0
  6  7  1  0
  7  8  1  0
  8  9  1  0
  9 10  1  0
 10 11  1  0
 10 12  1  0
 12 13  1  0
 13 14  1  0
 13 15  1  0
 15 16  1  0
 15  5  1  0
 12  7  1  0
  1 17  1  0
  1 18  1  0
  1 19  1  0
  4 20  1  0
  5 21  1  1
  6 22  1  0
  6 23  1  0
  7 24  1  6
  8 25  1  0
  8 26  1  0
  9 27  1  0
  9 28  1  0
 10 29  1  1
 11 30  1  0
 12 31  1  1
 13 32  1  1
 14 33  1  0
 15 34  1  6
 16 35  1  0
M  CHG  1   7   1
M  END
>  <meeko>  (1) 
{"is_sidechain": [false], "free_energy": -9.193, "intermolecular_energy": -10.537, "internal_energy": 0.501}

$$$$
2xj7_ligand
     RDKit          3D

 35 36  0  0  0  0  0  0  0  0999 V2000
    1.0670  -26.4850   39.3700 C   0  0  0  0  0  0  0  0  0  0  0  0
    1.3150  -27.2260   38.0860 C   0  0  0  0  0  0  0  0  0  0  0  0
    2.1670  -26.8900   37.2700 O   0  0  0  0  0  0  0  0  0  0  0  0
    0.5200  -28.3350   37.8880 N   0  0  0  0  0  0  0  0  0  0  0  0
    0.5090  -29.0160   36.5880 C   0  0  1  0  0  0  0  0  0  0  0  0
    1.3080  -30.3400   36.5960 C   0  0  0  0  0  0  0  0  0  0  0  0
    0.6370  -31.4770   35.8350 N   0  0  2  0  0  0  0  0  0  0  0  0
    1.6620  -32.4790   35.3410 C   0  0  0  0  0  0  0  0  0  0  0  0
    1.9900  -32.0600   33.9050 C   0  0  0  0  0  0  0  0  0  0  0  0
    1.0310  -30.9250   33.5530 C   0  0  2  0  0  0  0  0  0  0  0  0
    1.6850  -29.6710   33.7350 O   0  0  0  0  0  0  0  0  0  0  0  0
   -0.1080  -31.0920   34.5650 C   0  0  2  0  0  0  0  0  0  0  0  0
   -1.0300  -29.8800   34.7540 C   0  0  1  0  0  0  0  0  0  0  0  0
   -2.3890  -30.3280   34.5960 O   0  0  0  0  0  0  0  0  0  0  0  0
   -0.9330  -29.2450   36.1430 C   0  0  2  0  0  0  0  0  0  0  0  0
   -1.6700  -28.0090   36.1440 O   0  0  0  0  0  0  0  0  0  0  0  0
    1.2877  -27.1444   40.2224 H   0  0  0  0  0  0  0  0  0  0  0  0
    1.7176  -25.5991   39.4137 H   0  0  0  0  0  0  0  0  0  0  0  0
    0.0142  -26.1692   39.4137 H   0  0  0  0  0  0  0  0  0  0  0  0
   -0.3300  -28.3990   38.4460 H   0  0  0  0  0  0  0  0  0  0  0  0
    1.0167  -28.3614   35.8643 H   0  0  0  0  0  0  0  0  0  0  0  0
    2.2915  -30.1526   36.1403 H   0  0  0  0  0  0  0  0  0  0  0  0
    1.3799  -30.6604   37.6458 H   0  0  0  0  0  0  0  0  0  0  0  0
   -0.0170  -31.9500   36.4760 H   0  0  0  0  0  0  0  0  0  0  0  0
    2.5658  -32.4438   35.9670 H   0  0  0  0  0  0  0  0  0  0  0  0
    1.2786  -33.5090   35.3866 H   0  0  0  0  0  0  0  0  0  0  0  0
    3.0312  -31.7114   33.8396 H   0  0  0  0  0  0  0  0  0  0  0  0
    1.8779  -32.9047   33.2094 H   0  0  0  0  0  0  0  0  0  0  0  0
    0.6795  -30.9528   32.5110 H   0  0  0  0  0  0  0  0  0  0  0  0
    2.3590  -29.7800   34.4360 H   0  0  0  0  0  0  0  0  0  0  0  0
   -0.8387  -31.8389   34.2210 H   0  0  0  0  0  0  0  0  0  0  0  0
   -0.7229  -29.1269   34.0134 H   0  0  0  0  0  0  0  0  0  0  0  0
   -2.5340  -31.0440   35.2500 H   0  0  0  0  0  0  0  0  0  0  0  0
   -1.3689  -29.9464   36.8697 H   0  0  0  0  0  0  0  0  0  0  0  0
   -2.1910  -27.9430   36.9670 H   0  0  0  0  0  0  0  0  0  0  0  0
  1  2  1  0
  2  3  2  0
  2  4  1  0
  4  5  1  0
  5  6  1  0
  6  7  1  0
  7  8  1  0
  8  9  1  0
  9 10  1  0
 10 11  1  0
 10 12  1  0
 12 13  1  0
 13 14  1  0
 13 15  1  0
 15 16  1  0
 15  5  1  0
 12  7  1  0
  1 17  1  0
  1 18  1  0
  1 19  1  0
  4 20  1  0
  5 21  1  6
  6 22  1  0
  6 23  1  0
  7 24  1  1
  8 25  1  0
  8 26  1  0
  9 27  1  0
  9 28  1  0
 10 29  1  6
 11 30  1  0
 12 31  1  6
 13 32  1  6
 14 33  1  0
 15 34  1  1
 16 35  1  0
M  CHG  1   7   1
M  END
>  <meeko>  (2) 
{"is_sidechain": [false], "free_energy": -7.042, "intermolecular_energy": -7.37, "internal_energy": -0.2}

$$$$
2xj7_ligand
     RDKit          3D

 35 36  0  0  0  0  0  0  0  0999 V2000
    2.1950  -32.4220   31.8150 C   0  0  0  0  0  0  0  0  0  0  0  0
    1.2820  -31.7310   32.7890 C   0  0  0  0  0  0  0  0  0  0  0  0
    0.1140  -31.4540   32.5330 O   0  0  0  0  0  0  0  0  0  0  0  0
    1.8440  -31.4380   34.0120 N   0  0  0  0  0  0  0  0  0  0  0  0
    1.1350  -30.5770   34.9670 C   0  0  1  0  0  0  0  0  0  0  0  0
    1.1000  -29.0950   34.5300 C   0  0  0  0  0  0  0  0  0  0  0  0
   -0.2370  -28.4050   34.7730 N   0  0  2  0  0  0  0  0  0  0  0  0
   -0.0550  -26.9090   34.9340 C   0  0  0  0  0  0  0  0  0  0  0  0
    0.0480  -26.6660   36.4420 C   0  0  0  0  0  0  0  0  0  0  0  0
   -0.2360  -28.0050   37.1200 C   0  0  2  0  0  0  0  0  0  0  0  0
    0.9940  -28.6440   37.4560 O   0  0  0  0  0  0  0  0  0  0  0  0
   -0.9790  -28.8010   36.0410 C   0  0  2  0  0  0  0  0  0  0  0  0
   -1.0500  -30.3200   36.2460 C   0  0  1  0  0  0  0  0  0  0  0  0
   -2.4280  -30.7190   36.1350 O   0  0  0  0  0  0  0  0  0  0  0  0
   -0.2730  -31.1190   35.1970 C   0  0  2  0  0  0  0  0  0  0  0  0
   -0.2300  -32.4990   35.5980 O   0  0  0  0  0  0  0  0  0  0  0  0
    2.9535  -32.9961   32.3674 H   0  0  0  0  0  0  0  0  0  0  0  0
    1.6078  -33.1039   31.1824 H   0  0  0  0  0  0  0  0  0  0  0  0
    2.6918  -31.6716   31.1824 H   0  0  0  0  0  0  0  0  0  0  0  0
    2.8610  -31.4380   34.0650 H   0  0  0  0  0  0  0  0  0  0  0  0
    1.6945  -30.5981   35.9138 H   0  0  0  0  0  0  0  0  0  0  0  0
    1.8757  -28.5516   35.0896 H   0  0  0  0  0  0  0  0  0  0  0  0
    1.2708  -29.0810   33.4434 H   0  0  0  0  0  0  0  0  0  0  0  0
   -0.8440  -28.5870   33.9590 H   0  0  0  0  0  0  0  0  0  0  0  0
    0.8638  -26.5775   34.4281 H   0  0  0  0  0  0  0  0  0  0  0  0
   -0.8889  -26.3474   34.4876 H   0  0  0  0  0  0  0  0  0  0  0  0
    1.0578  -26.3156   36.7019 H   0  0  0  0  0  0  0  0  0  0  0  0
   -0.6661  -25.8961   36.7695 H   0  0  0  0  0  0  0  0  0  0  0  0
   -0.8122  -27.9123   38.0524 H   0  0  0  0  0  0  0  0  0  0  0  0
    1.2710  -28.3200   38.3370 H   0  0  0  0  0  0  0  0  0  0  0  0
   -2.0516  -28.5573   36.0362 H   0  0  0  0  0  0  0  0  0  0  0  0
   -0.6064  -30.5294   37.2306 H   0  0  0  0  0  0  0  0  0  0  0  0
   -2.4590  -31.6890   36.2720 H   0  0  0  0  0  0  0  0  0  0  0  0
   -0.7986  -31.0213   34.2357 H   0  0  0  0  0  0  0  0  0  0  0  0
   -1.1210  -32.7840   35.8770 H   0  0  0  0  0  0  0  0  0  0  0  0
  1  2  1  0
  2  3  2  0
  2  4  1  0
  4  5  1  0
  5  6  1  0
  6  7  1  0
  7  8  1  0
  8  9  1  0
  9 10  1  0
 10 11  1  0
 10 12  1  0
 12 13  1  0
 13 14  1  0
 13 15  1  0
 15 16  1  0
 15  5  1  0
 12  7  1  0
  1 17  1  0
  1 18  1  0
  1 19  1  0
  4 20  1  0
  5 21  1  1
  6 22  1  0
  6 23  1  0
  7 24  1  6
  8 25  1  0
  8 26  1  0
  9 27  1  0
  9 28  1  0
 10 29  1  1
 11 30  1  0
 12 31  1  6
 13 32  1  1
 14 33  1  0
 15 34  1  6
 16 35  1  0
M  CHG  1   7   1
M  END
>  <meeko>  (3) 
{"is_sidechain": [false], "free_energy": -6.811, "intermolecular_energy": -7.805, "internal_energy": 0.499}

$$$$
2xj7_ligand
     RDKit          3D

 35 36  0  0  0  0  0  0  0  0999 V2000
    0.5510  -24.7990   35.0730 C   0  0  0  0  0  0  0  0  0  0  0  0
    0.7150  -26.2140   34.5920 C   0  0  0  0  0  0  0  0  0  0  0  0
    1.1820  -26.4990   33.4940 O   0  0  0  0  0  0  0  0  0  0  0  0
    0.3150  -27.1860   35.4830 N   0  0  0  0  0  0  0  0  0  0  0  0
    0.2190  -28.5870   35.0590 C   0  0  1  0  0  0  0  0  0  0  0  0
    1.5430  -29.3650   35.2480 C   0  0  0  0  0  0  0  0  0  0  0  0
    1.3620  -30.7790   35.7850 N   0  0  2  0  0  0  0  0  0  0  0  0
    2.5170  -31.6690   35.3700 C   0  0  0  0  0  0  0  0  0  0  0  0
    2.0560  -32.3760   34.0930 C   0  0  0  0  0  0  0  0  0  0  0  0
    0.5890  -31.9970   33.8910 C   0  0  2  0  0  0  0  0  0  0  0  0
    0.4950  -30.9240   32.9570 O   0  0  0  0  0  0  0  0  0  0  0  0
    0.1430  -31.5400   35.2850 C   0  0  2  0  0  0  0  0  0  0  0  0
   -1.1480  -30.7140   35.3470 C   0  0  1  0  0  0  0  0  0  0  0  0
   -2.0190  -31.3240   36.3170 O   0  0  0  0  0  0  0  0  0  0  0  0
   -0.9310  -29.2680   35.7960 C   0  0  2  0  0  0  0  0  0  0  0  0
   -2.1550  -28.5340   35.6190 O   0  0  0  0  0  0  0  0  0  0  0  0
    0.5492  -24.7835   36.1729 H   0  0  0  0  0  0  0  0  0  0  0  0
    1.3841  -24.1857   34.6990 H   0  0  0  0  0  0  0  0  0  0  0  0
   -0.4003  -24.3925   34.6990 H   0  0  0  0  0  0  0  0  0  0  0  0
   -0.3030  -26.8930   36.2390 H   0  0  0  0  0  0  0  0  0  0  0  0
    0.0162  -28.5943   33.9779 H   0  0  0  0  0  0  0  0  0  0  0  0
    2.0490  -29.4277   34.2733 H   0  0  0  0  0  0  0  0  0  0  0  0
    2.1307  -28.8140   35.9970 H   0  0  0  0  0  0  0  0  0  0  0  0
    1.3260  -30.7290   36.8140 H   0  0  0  0  0  0  0  0  0  0  0  0
    3.4147  -31.0650   35.1715 H   0  0  0  0  0  0  0  0  0  0  0  0
    2.7803  -32.3878   36.1599 H   0  0  0  0  0  0  0  0  0  0  0  0
    2.6567  -32.0400   33.2349 H   0  0  0  0  0  0  0  0  0  0  0  0
    2.1768  -33.4661   34.1767 H   0  0  0  0  0  0  0  0  0  0  0  0
   -0.0276  -32.8179   33.4961 H   0  0  0  0  0  0  0  0  0  0  0  0
   -0.2510  -30.3510   33.2310 H   0  0  0  0  0  0  0  0  0  0  0  0
   -0.1469  -32.3973   35.9103 H   0  0  0  0  0  0  0  0  0  0  0  0
   -1.5636  -30.6954   34.3287 H   0  0  0  0  0  0  0  0  0  0  0  0
   -2.2020  -32.2360   36.0060 H   0  0  0  0  0  0  0  0  0  0  0  0
   -0.6480  -29.2812   36.8589 H   0  0  0  0  0  0  0  0  0  0  0  0
   -2.3870  -28.0820   36.4520 H   0  0  0  0  0  0  0  0  0  0  0  0
  1  2  1  0
  2  3  2  0
  2  4  1  0
  4  5  1  0
  5  6  1  0
  6  7  1  0
  7  8  1  0
  8  9  1  0
  9 10  1  0
 10 11  1  0
 10 12  1  0
 12 13  1  0
 13 14  1  0
 13 15  1  0
 15 16  1  0
 15  5  1  0
 12  7  1  0
  1 17  1  0
  1 18  1  0
  1 19  1  0
  4 20  1  0
  5 21  1  6
  6 22  1  0
  6 23  1  0
  7 24  1  1
  8 25  1  0
  8 26  1  0
  9 27  1  0
  9 28  1  0
 10 29  1  6
 11 30  1  0
 12 31  1  1
 13 32  1  6
 14 33  1  0
 15 34  1  1
 16 35  1  0
M  CHG  1   7   1
M  END
>  <meeko>  (4) 
{"is_sidechain": [false], "free_energy": -6.64, "intermolecular_energy": -6.973, "internal_energy": -0.136}

$$$$
2xj7_ligand
     RDKit          3D

 35 36  0  0  0  0  0  0  0  0999 V2000
   -0.0810  -23.9180   37.3470 C   0  0  0  0  0  0  0  0  0  0  0  0
    0.0900  -25.4090   37.4330 C   0  0  0  0  0  0  0  0  0  0  0  0
    0.4950  -25.9810   38.4400 O   0  0  0  0  0  0  0  0  0  0  0  0
   -0.2580  -26.1040   36.2950 N   0  0  0  0  0  0  0  0  0  0  0  0
    0.0630  -27.5310   36.1710 C   0  0  1  0  0  0  0  0  0  0  0  0
   -1.1740  -28.4430   36.3420 C   0  0  0  0  0  0  0  0  0  0  0  0
   -1.2260  -29.6110   35.3650 N   0  0  2  0  0  0  0  0  0  0  0  0
   -2.0300  -30.7620   35.9370 C   0  0  0  0  0  0  0  0  0  0  0  0
   -1.0070  -31.6950   36.5920 C   0  0  0  0  0  0  0  0  0  0  0  0
    0.3730  -31.1400   36.2440 C   0  0  2  0  0  0  0  0  0  0  0  0
    0.8630  -30.3540   37.3290 O   0  0  0  0  0  0  0  0  0  0  0  0
    0.1060  -30.2600   35.0180 C   0  0  2  0  0  0  0  0  0  0  0  0
    1.1970  -29.2400   34.6640 C   0  0  1  0  0  0  0  0  0  0  0  0
    1.5320  -29.4130   33.2760 O   0  0  0  0  0  0  0  0  0  0  0  0
    0.7560  -27.7850   34.8350 C   0  0  2  0  0  0  0  0  0  0  0  0
    1.9010  -26.9280   34.6830 O   0  0  0  0  0  0  0  0  0  0  0  0
   -0.1295  -23.4954   38.3614 H   0  0  0  0  0  0  0  0  0  0  0  0
    0.7730  -23.4815   36.8083 H   0  0  0  0  0  0  0  0  0  0  0  0
   -1.0116  -23.6861   36.8083 H   0  0  0  0  0  0  0  0  0  0  0  0
   -0.3180  -25.5710   35.4290 H   0  0  0  0  0  0  0  0  0  0  0  0
    0.7455  -27.7920   36.9933 H   0  0  0  0  0  0  0  0  0  0  0  0
   -1.1656  -28.8482   37.3646 H   0  0  0  0  0  0  0  0  0  0  0  0
   -2.0576  -27.8201   36.1388 H   0  0  0  0  0  0  0  0  0  0  0  0
   -1.6750  -29.2840   34.4960 H   0  0  0  0  0  0  0  0  0  0  0  0
   -2.7481  -30.3943   36.6848 H   0  0  0  0  0  0  0  0  0  0  0  0
   -2.6113  -31.2782   35.1588 H   0  0  0  0  0  0  0  0  0  0  0  0
   -1.1476  -31.7068   37.6829 H   0  0  0  0  0  0  0  0  0  0  0  0
   -1.1226  -32.7276   36.2309 H   0  0  0  0  0  0  0  0  0  0  0  0
    1.1244  -31.9198   36.0511 H   0  0  0  0  0  0  0  0  0  0  0  0
    0.2300  -30.4370   38.0720 H   0  0  0  0  0  0  0  0  0  0  0  0
    0.0948  -30.8583   34.0950 H   0  0  0  0  0  0  0  0  0  0  0  0
    2.0388  -29.4226   35.3481 H   0  0  0  0  0  0  0  0  0  0  0  0
    2.2480  -30.0820   33.2330 H   0  0  0  0  0  0  0  0  0  0  0  0
    0.0108  -27.5619   34.0572 H   0  0  0  0  0  0  0  0  0  0  0  0
    2.5410  -27.3460   34.0750 H   0  0  0  0  0  0  0  0  0  0  0  0
  1  2  1  0
  2  3  2  0
  2  4  1  0
  4  5  1  0
  5  6  1  0
  6  7  1  0
  7  8  1  0
  8  9  1  0
  9 10  1  0
 10 11  1  0
 10 12  1  0
 12 13  1  0
 13 14  1  0
 13 15  1  0
 15 16  1  0
 15  5  1  0
 12  7  1  0
  1 17  1  0
  1 18  1  0
  1 19  1  0
  4 20  1  0
  5 21  1  1
  6 22  1  0
  6 23  1  0
  7 24  1  6
  8 25  1  0
  8 26  1  0
  9 27  1  0
  9 28  1  0
 10 29  1  6
 11 30  1  0
 12 31  1  6
 13 32  1  1
 14 33  1  0
 15 34  1  6
 16 35  1  0
M  CHG  1   7   1
M  END
>  <meeko>  (5) 
{"is_sidechain": [false], "free_energy": -6.572, "intermolecular_energy": -6.83, "internal_energy": -0.202}

$$$$
2xj7_ligand
     RDKit          3D

 35 36  0  0  0  0  0  0  0  0999 V2000
    1.6350  -25.3890   40.5560 C   0  0  0  0  0  0  0  0  0  0  0  0
    1.4090  -26.5740   39.6600 C   0  0  0  0  0  0  0  0  0  0  0  0
    1.6970  -27.7230   39.9810 O   0  0  0  0  0  0  0  0  0  0  0  0
    0.8340  -26.2860   38.4410 N   0  0  0  0  0  0  0  0  0  0  0  0
    0.7590  -27.3120   37.3940 C   0  0  1  0  0  0  0  0  0  0  0  0
   -0.6630  -27.8940   37.2240 C   0  0  0  0  0  0  0  0  0  0  0  0
   -1.0770  -28.1120   35.7730 N   0  0  2  0  0  0  0  0  0  0  0  0
   -2.1220  -29.2030   35.6650 C   0  0  0  0  0  0  0  0  0  0  0  0
   -1.3470  -30.4890   35.3630 C   0  0  0  0  0  0  0  0  0  0  0  0
    0.1090  -30.0800   35.1480 C   0  0  2  0  0  0  0  0  0  0  0  0
    0.8480  -30.2870   36.3490 O   0  0  0  0  0  0  0  0  0  0  0  0
    0.0150  -28.5840   34.8240 C   0  0  2  0  0  0  0  0  0  0  0  0
    1.3150  -27.7790   34.9550 C   0  0  1  0  0  0  0  0  0  0  0  0
    1.5140  -27.0550   33.7280 O   0  0  0  0  0  0  0  0  0  0  0  0
    1.2840  -26.7420   36.0800 C   0  0  2  0  0  0  0  0  0  0  0  0
    2.6050  -26.1980   36.2510 O   0  0  0  0  0  0  0  0  0  0  0  0
    1.5743  -25.7073   41.6072 H   0  0  0  0  0  0  0  0  0  0  0  0
    2.6303  -24.9644   40.3583 H   0  0  0  0  0  0  0  0  0  0  0  0
    0.8658  -24.6279   40.3583 H   0  0  0  0  0  0  0  0  0  0  0  0
    0.8750  -25.3170   38.1290 H   0  0  0  0  0  0  0  0  0  0  0  0
    1.3938  -28.1544   37.7062 H   0  0  0  0  0  0  0  0  0  0  0  0
   -0.7044  -28.8623   37.7443 H   0  0  0  0  0  0  0  0  0  0  0  0
   -1.3606  -27.1552   37.6453 H   0  0  0  0  0  0  0  0  0  0  0  0
   -1.4710  -27.2290   35.4160 H   0  0  0  0  0  0  0  0  0  0  0  0
   -2.6739  -29.3008   36.6115 H   0  0  0  0  0  0  0  0  0  0  0  0
   -2.8620  -28.9810   34.8820 H   0  0  0  0  0  0  0  0  0  0  0  0
   -1.4243  -31.1866   36.2100 H   0  0  0  0  0  0  0  0  0  0  0  0
   -1.7518  -30.9973   34.4754 H   0  0  0  0  0  0  0  0  0  0  0  0
    0.6158  -30.6549   34.3589 H   0  0  0  0  0  0  0  0  0  0  0  0
    0.8660  -29.4420   36.8430 H   0  0  0  0  0  0  0  0  0  0  0  0
   -0.2059  -28.4210   33.7588 H   0  0  0  0  0  0  0  0  0  0  0  0
    2.1155  -28.4997   35.1781 H   0  0  0  0  0  0  0  0  0  0  0  0
    2.1620  -27.5630   33.1960 H   0  0  0  0  0  0  0  0  0  0  0  0
    0.5817  -25.9464   35.7904 H   0  0  0  0  0  0  0  0  0  0  0  0
    2.5580  -25.2230   36.2440 H   0  0  0  0  0  0  0  0  0  0  0  0
  1  2  1  0
  2  3  2  0
  2  4  1  0
  4  5  1  0
  5  6  1  0
  6  7  1  0
  7  8  1  0
  8  9  1  0
  9 10  1  0
 10 11  1  0
 10 12  1  0
 12 13  1  0
 13 14  1  0
 13 15  1  0
 15 16  1  0
 15  5  1  0
 12  7  1  0
  1 17  1  0
  1 18  1  0
  1 19  1  0
  4 20  1  0
  5 21  1  1
  6 22  1  0
  6 23  1  0
  7 24  1  6
  8 25  1  0
  8 26  1  0
  9 27  1  0
  9 28  1  0
 10 29  1  6
 11 30  1  0
 12 31  1  6
 13 32  1  1
 14 33  1  0
 15 34  1  6
 16 35  1  0
M  CHG  1   7   1
M  END
>  <meeko>  (6) 
{"is_sidechain": [false], "free_energy": -6.375, "intermolecular_energy": -6.604, "internal_energy": -0.202}

$$$$
