3oe5_ligand
     RDKit          3D

 50 52  0  0  0  0  0  0  0  0999 V2000
   22.2280  -31.2710    5.5780 O   0  0  0  0  0  0  0  0  0  0  0  0
   22.6250  -30.4510    6.4000 C   0  0  0  0  0  0  0  0  0  0  0  0
   22.1430  -30.3890    7.6840 N   0  0  0  0  0  0  0  0  0  0  0  0
   21.0380  -31.2040    8.1090 C   0  0  0  0  0  0  0  0  0  0  0  0
   20.3160  -30.4710    9.1930 C   0  0  0  0  0  0  0  0  0  0  0  0
   20.8480  -29.4590    9.9000 C   0  0  0  0  0  0  0  0  0  0  0  0
   20.1280  -28.7310   11.0010 C   0  0  1  0  0  0  0  0  0  0  0  0
   18.8850  -29.4360   11.2210 O   0  0  0  0  0  0  0  0  0  0  0  0
   18.8450  -29.8450   12.5960 C   0  0  1  0  0  0  0  0  0  0  0  0
   18.0280  -31.4610   12.8210 S   0  0  0  0  0  0  0  0  0  0  0  0
   16.3150  -30.9660   12.8590 C   0  0  0  0  0  0  0  0  0  0  0  0
   15.3190  -31.6820   12.1980 C   0  0  0  0  0  0  0  0  0  0  0  0
   14.0130  -31.2340   12.2930 C   0  0  0  0  0  0  0  0  0  0  0  0
   13.6420  -30.1440   12.9980 N   0  0  0  0  0  0  0  0  0  0  0  0
   14.6210  -29.4800   13.6470 C   0  0  0  0  0  0  0  0  0  0  0  0
   15.9550  -29.8490   13.6120 C   0  0  0  0  0  0  0  0  0  0  0  0
   20.3040  -29.9330   13.0480 C   0  0  2  0  0  0  0  0  0  0  0  0
   20.4910  -29.8260   14.4590 O   0  0  0  0  0  0  0  0  0  0  0  0
   20.8960  -28.7340   12.3310 C   0  0  2  0  0  0  0  0  0  0  0  0
   20.6140  -27.5420   13.0820 O   0  0  0  0  0  0  0  0  0  0  0  0
   23.6790  -29.4630    6.0160 C   0  0  0  0  0  0  0  0  0  0  0  0
   24.7430  -29.9300    5.2230 C   0  0  0  0  0  0  0  0  0  0  0  0
   25.7670  -29.0550    4.8260 C   0  0  0  0  0  0  0  0  0  0  0  0
   26.8740  -29.5570    4.0010 N   0  0  0  0  0  0  0  0  0  0  0  0
   27.4320  -28.7490    3.2440 O   0  0  0  0  0  0  0  0  0  0  0  0
   27.1840  -30.7490    4.1090 O   0  0  0  0  0  0  0  0  0  0  0  0
   25.7520  -27.7070    5.2080 C   0  0  0  0  0  0  0  0  0  0  0  0
   24.6970  -27.2530    5.9870 C   0  0  0  0  0  0  0  0  0  0  0  0
   24.6140  -25.9480    6.3950 O   0  0  0  0  0  0  0  0  0  0  0  0
   23.6690  -28.1140    6.3910 C   0  0  0  0  0  0  0  0  0  0  0  0
   22.6640  -27.5740    7.1550 O   0  0  0  0  0  0  0  0  0  0  0  0
   22.4330  -29.5980    8.2550 H   0  0  0  0  0  0  0  0  0  0  0  0
   20.3587  -31.3833    7.2626 H   0  0  0  0  0  0  0  0  0  0  0  0
   21.3984  -32.1755    8.4781 H   0  0  0  0  0  0  0  0  0  0  0  0
   19.2860  -30.7785    9.4267 H   0  0  0  0  0  0  0  0  0  0  0  0
   21.8738  -29.1439    9.6580 H   0  0  0  0  0  0  0  0  0  0  0  0
   19.9996  -27.6828   10.6933 H   0  0  0  0  0  0  0  0  0  0  0  0
   18.2605  -29.1243   13.1867 H   0  0  0  0  0  0  0  0  0  0  0  0
   15.5648  -32.5816   11.6147 H   0  0  0  0  0  0  0  0  0  0  0  0
   13.2318  -31.7989   11.7633 H   0  0  0  0  0  0  0  0  0  0  0  0
   14.3433  -28.5947   14.2378 H   0  0  0  0  0  0  0  0  0  0  0  0
   16.7128  -29.2747   14.1651 H   0  0  0  0  0  0  0  0  0  0  0  0
   20.7603  -30.9065   12.8153 H   0  0  0  0  0  0  0  0  0  0  0  0
   20.4040  -30.7290   14.8190 H   0  0  0  0  0  0  0  0  0  0  0  0
   21.9875  -28.7755   12.2011 H   0  0  0  0  0  0  0  0  0  0  0  0
   21.4610  -27.3130   13.5190 H   0  0  0  0  0  0  0  0  0  0  0  0
   24.7729  -30.9849    4.9127 H   0  0  0  0  0  0  0  0  0  0  0  0
   26.5573  -27.0248    4.8978 H   0  0  0  0  0  0  0  0  0  0  0  0
   24.7420  -25.9070    7.3610 H   0  0  0  0  0  0  0  0  0  0  0  0
   22.7750  -26.6020    7.0710 H   0  0  0  0  0  0  0  0  0  0  0  0
  1  2  2  0
  2  3  1  0
  3  4  1  0
  4  5  1  0
  5  6  2  0
  6  7  1  0
  7  8  1  0
  8  9  1  0
  9 10  1  0
 10 11  1  0
 11 12  2  0
 12 13  1  0
 13 14  2  0
 14 15  1  0
 15 16  2  0
  9 17  1  0
 17 18  1  0
 17 19  1  0
 19 20  1  0
  2 21  1  0
 21 22  2  0
 22 23  1  0
 23 24  1  0
 24 25  2  0
 24 26  1  0
 23 27  2  0
 27 28  1  0
 28 29  1  0
 28 30  2  0
 30 31  1  0
 19  7  1  0
 30 21  1  0
 16 11  1  0
  3 32  1  0
  4 33  1  0
  4 34  1  0
  5 35  1  0
  6 36  1  0
  7 37  1  6
  9 38  1  1
 12 39  1  0
 13 40  1  0
 15 41  1  0
 16 42  1  0
 17 43  1  6
 18 44  1  0
 19 45  1  6
 20 46  1  0
 22 47  1  0
 27 48  1  0
 29 49  1  0
 31 50  1  0
M  CHG  2  24   1  26  -1
M  END
>  <meeko>  (1) 
{"is_sidechain": [false], "free_energy": -8.898, "intermolecular_energy": -13.58, "internal_energy": -1.146}

$$$$
3oe5_ligand
     RDKit          3D

 50 52  0  0  0  0  0  0  0  0999 V2000
   21.3820  -29.3770    7.8490 O   0  0  0  0  0  0  0  0  0  0  0  0
   22.2340  -29.9540    7.1820 C   0  0  0  0  0  0  0  0  0  0  0  0
   22.2130  -31.3080    6.9560 N   0  0  0  0  0  0  0  0  0  0  0  0
   21.2520  -32.1600    7.6040 C   0  0  0  0  0  0  0  0  0  0  0  0
   21.9570  -32.9020    8.6940 C   0  0  0  0  0  0  0  0  0  0  0  0
   21.8170  -32.6280   10.0020 C   0  0  0  0  0  0  0  0  0  0  0  0
   22.5380  -33.3640   11.0980 C   0  0  1  0  0  0  0  0  0  0  0  0
   22.2780  -32.6430   12.3230 O   0  0  0  0  0  0  0  0  0  0  0  0
   21.6680  -33.5530   13.2510 C   0  0  1  0  0  0  0  0  0  0  0  0
   20.4190  -32.7410   14.3060 S   0  0  0  0  0  0  0  0  0  0  0  0
   20.0980  -31.2610   13.3630 C   0  0  0  0  0  0  0  0  0  0  0  0
   20.7870  -30.0720   13.5880 C   0  0  0  0  0  0  0  0  0  0  0  0
   20.4830  -28.9750   12.7990 C   0  0  0  0  0  0  0  0  0  0  0  0
   19.5600  -28.9910   11.8140 N   0  0  0  0  0  0  0  0  0  0  0  0
   18.9220  -30.1610   11.6010 C   0  0  0  0  0  0  0  0  0  0  0  0
   19.1550  -31.3110   12.3370 C   0  0  0  0  0  0  0  0  0  0  0  0
   21.0020  -34.6350   12.3970 C   0  0  2  0  0  0  0  0  0  0  0  0
   20.7820  -35.8700   13.0790 O   0  0  0  0  0  0  0  0  0  0  0  0
   22.0320  -34.8000   11.2960 C   0  0  2  0  0  0  0  0  0  0  0  0
   23.0920  -35.6530   11.7570 O   0  0  0  0  0  0  0  0  0  0  0  0
   23.3580  -29.1770    6.5770 C   0  0  0  0  0  0  0  0  0  0  0  0
   24.3140  -29.8970    5.8370 C   0  0  0  0  0  0  0  0  0  0  0  0
   25.3960  -29.2300    5.2410 C   0  0  0  0  0  0  0  0  0  0  0  0
   26.3890  -29.9940    4.4730 N   0  0  0  0  0  0  0  0  0  0  0  0
   27.1360  -29.3580    3.7150 O   0  0  0  0  0  0  0  0  0  0  0  0
   26.4230  -31.2210    4.6280 O   0  0  0  0  0  0  0  0  0  0  0  0
   25.5470  -27.8420    5.3680 C   0  0  0  0  0  0  0  0  0  0  0  0
   24.5990  -27.1390    6.0980 C   0  0  0  0  0  0  0  0  0  0  0  0
   24.6800  -25.7820    6.2620 O   0  0  0  0  0  0  0  0  0  0  0  0
   23.5150  -27.7910    6.6980 C   0  0  0  0  0  0  0  0  0  0  0  0
   22.6220  -27.0120    7.3930 O   0  0  0  0  0  0  0  0  0  0  0  0
   23.0260  -31.7200    6.5050 H   0  0  0  0  0  0  0  0  0  0  0  0
   20.4406  -31.5517    8.0302 H   0  0  0  0  0  0  0  0  0  0  0  0
   20.8156  -32.8647    6.8809 H   0  0  0  0  0  0  0  0  0  0  0  0
   22.6315  -33.7224    8.4076 H   0  0  0  0  0  0  0  0  0  0  0  0
   21.1331  -31.8156   10.2889 H   0  0  0  0  0  0  0  0  0  0  0  0
   23.6035  -33.4211   10.8307 H   0  0  0  0  0  0  0  0  0  0  0  0
   22.4270  -33.9595   13.9356 H   0  0  0  0  0  0  0  0  0  0  0  0
   21.5542  -30.0056   14.3735 H   0  0  0  0  0  0  0  0  0  0  0  0
   21.0251  -28.0363   12.9858 H   0  0  0  0  0  0  0  0  0  0  0  0
   18.1735  -30.2038   10.7961 H   0  0  0  0  0  0  0  0  0  0  0  0
   18.6096  -32.2407   12.1176 H   0  0  0  0  0  0  0  0  0  0  0  0
   19.9899  -34.3536   12.0707 H   0  0  0  0  0  0  0  0  0  0  0  0
   20.2410  -35.6590   13.8640 H   0  0  0  0  0  0  0  0  0  0  0  0
   21.6414  -35.2529   10.3728 H   0  0  0  0  0  0  0  0  0  0  0  0
   22.9210  -36.5190   11.3340 H   0  0  0  0  0  0  0  0  0  0  0  0
   24.2132  -30.9866    5.7251 H   0  0  0  0  0  0  0  0  0  0  0  0
   26.3964  -27.3227    4.9003 H   0  0  0  0  0  0  0  0  0  0  0  0
   24.7930  -25.5820    7.2100 H   0  0  0  0  0  0  0  0  0  0  0  0
   23.1030  -26.1750    7.5730 H   0  0  0  0  0  0  0  0  0  0  0  0
  1  2  2  0
  2  3  1  0
  3  4  1  0
  4  5  1  0
  5  6  2  0
  6  7  1  0
  7  8  1  0
  8  9  1  0
  9 10  1  0
 10 11  1  0
 11 12  2  0
 12 13  1  0
 13 14  2  0
 14 15  1  0
 15 16  2  0
  9 17  1  0
 17 18  1  0
 17 19  1  0
 19 20  1  0
  2 21  1  0
 21 22  2  0
 22 23  1  0
 23 24  1  0
 24 25  2  0
 24 26  1  0
 23 27  2  0
 27 28  1  0
 28 29  1  0
 28 30  2  0
 30 31  1  0
 19  7  1  0
 30 21  1  0
 16 11  1  0
  3 32  1  0
  4 33  1  0
  4 34  1  0
  5 35  1  0
  6 36  1  0
  7 37  1  6
  9 38  1  1
 12 39  1  0
 13 40  1  0
 15 41  1  0
 16 42  1  0
 17 43  1  6
 18 44  1  0
 19 45  1  6
 20 46  1  0
 22 47  1  0
 27 48  1  0
 29 49  1  0
 31 50  1  0
M  CHG  2  24   1  26  -1
M  END
>  <meeko>  (2) 
{"is_sidechain": [false], "free_energy": -8.139, "intermolecular_energy": -12.23, "internal_energy": -1.337}

$$$$
3oe5_ligand
     RDKit          3D

 50 52  0  0  0  0  0  0  0  0999 V2000
   22.4860  -30.7420    6.7380 O   0  0  0  0  0  0  0  0  0  0  0  0
   21.3910  -31.1970    7.0510 C   0  0  0  0  0  0  0  0  0  0  0  0
   20.5750  -30.6010    7.9810 N   0  0  0  0  0  0  0  0  0  0  0  0
   21.0160  -29.4680    8.7480 C   0  0  0  0  0  0  0  0  0  0  0  0
   20.3340  -29.5180   10.0770 C   0  0  0  0  0  0  0  0  0  0  0  0
   20.8040  -28.9230   11.1870 C   0  0  0  0  0  0  0  0  0  0  0  0
   20.1270  -28.9870   12.5270 C   0  0  1  0  0  0  0  0  0  0  0  0
   18.7230  -29.2200   12.2720 O   0  0  0  0  0  0  0  0  0  0  0  0
   18.3430  -30.4250   12.9520 C   0  0  1  0  0  0  0  0  0  0  0  0
   17.1020  -31.3890   12.0250 S   0  0  0  0  0  0  0  0  0  0  0  0
   15.5930  -30.7790   12.7550 C   0  0  0  0  0  0  0  0  0  0  0  0
   15.5660  -29.6560   13.5770 C   0  0  0  0  0  0  0  0  0  0  0  0
   14.3480  -29.2430   14.0900 C   0  0  0  0  0  0  0  0  0  0  0  0
   13.1770  -29.8640   13.8330 N   0  0  0  0  0  0  0  0  0  0  0  0
   13.2250  -30.9370   13.0170 C   0  0  0  0  0  0  0  0  0  0  0  0
   14.3940  -31.4250   12.4560 C   0  0  0  0  0  0  0  0  0  0  0  0
   19.6290  -31.2420   13.1030 C   0  0  2  0  0  0  0  0  0  0  0  0
   19.5950  -32.2040   14.1570 O   0  0  0  0  0  0  0  0  0  0  0  0
   20.6290  -30.1420   13.4050 C   0  0  2  0  0  0  0  0  0  0  0  0
   20.5500  -29.7940   14.7960 O   0  0  0  0  0  0  0  0  0  0  0  0
   20.8950  -32.4530    6.4120 C   0  0  0  0  0  0  0  0  0  0  0  0
   20.0530  -32.3180    5.2920 C   0  0  0  0  0  0  0  0  0  0  0  0
   19.5520  -33.4580    4.6440 C   0  0  0  0  0  0  0  0  0  0  0  0
   18.6700  -33.3030    3.4780 N   0  0  0  0  0  0  0  0  0  0  0  0
   17.4480  -33.2990    3.6840 O   0  0  0  0  0  0  0  0  0  0  0  0
   19.1970  -33.1860    2.3650 O   0  0  0  0  0  0  0  0  0  0  0  0
   19.8770  -34.7450    5.0910 C   0  0  0  0  0  0  0  0  0  0  0  0
   20.7110  -34.8700    6.1930 C   0  0  0  0  0  0  0  0  0  0  0  0
   21.0740  -36.0950    6.6850 O   0  0  0  0  0  0  0  0  0  0  0  0
   21.2180  -33.7430    6.8510 C   0  0  0  0  0  0  0  0  0  0  0  0
   22.0410  -33.9640    7.9280 O   0  0  0  0  0  0  0  0  0  0  0  0
   19.7460  -31.1140    8.2730 H   0  0  0  0  0  0  0  0  0  0  0  0
   22.1065  -29.5118    8.8858 H   0  0  0  0  0  0  0  0  0  0  0  0
   20.7681  -28.5323    8.2256 H   0  0  0  0  0  0  0  0  0  0  0  0
   19.3891  -30.0762   10.1514 H   0  0  0  0  0  0  0  0  0  0  0  0
   21.7422  -28.3541   11.1096 H   0  0  0  0  0  0  0  0  0  0  0  0
   20.3355  -28.0486   13.0617 H   0  0  0  0  0  0  0  0  0  0  0  0
   17.8783  -30.1818   13.9189 H   0  0  0  0  0  0  0  0  0  0  0  0
   16.4908  -29.1093   13.8136 H   0  0  0  0  0  0  0  0  0  0  0  0
   14.3336  -28.3587   14.7441 H   0  0  0  0  0  0  0  0  0  0  0  0
   12.2825  -31.4539   12.7837 H   0  0  0  0  0  0  0  0  0  0  0  0
   14.3767  -32.3009   11.7908 H   0  0  0  0  0  0  0  0  0  0  0  0
   19.8448  -31.8589   12.2182 H   0  0  0  0  0  0  0  0  0  0  0  0
   20.4820  -32.1990   14.5650 H   0  0  0  0  0  0  0  0  0  0  0  0
   21.6764  -30.4131   13.2062 H   0  0  0  0  0  0  0  0  0  0  0  0
   19.8250  -30.3470   15.1550 H   0  0  0  0  0  0  0  0  0  0  0  0
   19.7869  -31.3163    4.9235 H   0  0  0  0  0  0  0  0  0  0  0  0
   19.4807  -35.6353    4.5808 H   0  0  0  0  0  0  0  0  0  0  0  0
   21.5920  -36.5700    6.0090 H   0  0  0  0  0  0  0  0  0  0  0  0
   21.7350  -33.3330    8.6160 H   0  0  0  0  0  0  0  0  0  0  0  0
  1  2  2  0
  2  3  1  0
  3  4  1  0
  4  5  1  0
  5  6  2  0
  6  7  1  0
  7  8  1  0
  8  9  1  0
  9 10  1  0
 10 11  1  0
 11 12  2  0
 12 13  1  0
 13 14  2  0
 14 15  1  0
 15 16  2  0
  9 17  1  0
 17 18  1  0
 17 19  1  0
 19 20  1  0
  2 21  1  0
 21 22  2  0
 22 23  1  0
 23 24  1  0
 24 25  2  0
 24 26  1  0
 23 27  2  0
 27 28  1  0
 28 29  1  0
 28 30  2  0
 30 31  1  0
 19  7  1  0
 30 21  1  0
 16 11  1  0
  3 32  1  0
  4 33  1  0
  4 34  1  0
  5 35  1  0
  6 36  1  0
  7 37  1  1
  9 38  1  1
 12 39  1  0
 13 40  1  0
 15 41  1  0
 16 42  1  0
 17 43  1  6
 18 44  1  0
 19 45  1  6
 20 46  1  0
 22 47  1  0
 27 48  1  0
 29 49  1  0
 31 50  1  0
M  CHG  2  24   1  26  -1
M  END
>  <meeko>  (3) 
{"is_sidechain": [false], "free_energy": -7.997, "intermolecular_energy": -12.546, "internal_energy": -0.805}

$$$$
3oe5_ligand
     RDKit          3D

 50 52  0  0  0  0  0  0  0  0999 V2000
   23.1110  -26.5630    7.9730 O   0  0  0  0  0  0  0  0  0  0  0  0
   22.6640  -27.6590    8.2960 C   0  0  0  0  0  0  0  0  0  0  0  0
   22.0400  -27.8840    9.4980 N   0  0  0  0  0  0  0  0  0  0  0  0
   21.9880  -26.8700   10.5170 C   0  0  0  0  0  0  0  0  0  0  0  0
   21.3300  -27.4620   11.7210 C   0  0  0  0  0  0  0  0  0  0  0  0
   20.6340  -28.6120   11.7100 C   0  0  0  0  0  0  0  0  0  0  0  0
   19.9590  -29.1990   12.9180 C   0  0  1  0  0  0  0  0  0  0  0  0
   18.5440  -29.2420   12.6230 O   0  0  0  0  0  0  0  0  0  0  0  0
   18.1070  -30.6040   12.7480 C   0  0  1  0  0  0  0  0  0  0  0  0
   16.8160  -31.0370   11.5330 S   0  0  0  0  0  0  0  0  0  0  0  0
   15.3430  -30.7770   12.5050 C   0  0  0  0  0  0  0  0  0  0  0  0
   15.2460  -29.7570   13.4490 C   0  0  0  0  0  0  0  0  0  0  0  0
   14.0590  -29.6190   14.1490 C   0  0  0  0  0  0  0  0  0  0  0  0
   12.9830  -30.4120   13.9660 N   0  0  0  0  0  0  0  0  0  0  0  0
   13.0940  -31.3790   13.0320 C   0  0  0  0  0  0  0  0  0  0  0  0
   14.2380  -31.5960   12.2810 C   0  0  0  0  0  0  0  0  0  0  0  0
   19.3510  -31.4640   12.5130 C   0  0  2  0  0  0  0  0  0  0  0  0
   19.2720  -32.7760   13.0720 O   0  0  0  0  0  0  0  0  0  0  0  0
   20.4060  -30.6360   13.2220 C   0  0  2  0  0  0  0  0  0  0  0  0
   20.3490  -30.8970   14.6340 O   0  0  0  0  0  0  0  0  0  0  0  0
   22.7910  -28.8190    7.3630 C   0  0  0  0  0  0  0  0  0  0  0  0
   23.9690  -28.9060    6.5980 C   0  0  0  0  0  0  0  0  0  0  0  0
   24.1520  -29.9710    5.7020 C   0  0  0  0  0  0  0  0  0  0  0  0
   25.3850  -30.0480    4.9070 N   0  0  0  0  0  0  0  0  0  0  0  0
   25.9810  -28.9870    4.6730 O   0  0  0  0  0  0  0  0  0  0  0  0
   25.7570  -31.1630    4.5200 O   0  0  0  0  0  0  0  0  0  0  0  0
   23.1760  -30.9640    5.5500 C   0  0  0  0  0  0  0  0  0  0  0  0
   22.0180  -30.8730    6.3110 C   0  0  0  0  0  0  0  0  0  0  0  0
   21.0220  -31.8080    6.2180 O   0  0  0  0  0  0  0  0  0  0  0  0
   21.8200  -29.8170    7.2080 C   0  0  0  0  0  0  0  0  0  0  0  0
   20.6480  -29.8140    7.9230 O   0  0  0  0  0  0  0  0  0  0  0  0
   21.8190  -28.8490    9.7370 H   0  0  0  0  0  0  0  0  0  0  0  0
   23.0070  -26.5428   10.7710 H   0  0  0  0  0  0  0  0  0  0  0  0
   21.4209  -25.9974   10.1606 H   0  0  0  0  0  0  0  0  0  0  0  0
   21.4208  -26.9232   12.6757 H   0  0  0  0  0  0  0  0  0  0  0  0
   20.5534  -29.1572   10.7580 H   0  0  0  0  0  0  0  0  0  0  0  0
   20.2157  -28.5795   13.7900 H   0  0  0  0  0  0  0  0  0  0  0  0
   17.6589  -30.7674   13.7392 H   0  0  0  0  0  0  0  0  0  0  0  0
   16.0914  -29.0780   13.6338 H   0  0  0  0  0  0  0  0  0  0  0  0
   13.9895  -28.8161   14.8977 H   0  0  0  0  0  0  0  0  0  0  0  0
   12.2268  -32.0326   12.8566 H   0  0  0  0  0  0  0  0  0  0  0  0
   14.2731  -32.3954   11.5262 H   0  0  0  0  0  0  0  0  0  0  0  0
   19.5329  -31.6633   11.4466 H   0  0  0  0  0  0  0  0  0  0  0  0
   20.1860  -33.1180   13.1030 H   0  0  0  0  0  0  0  0  0  0  0  0
   21.4377  -30.8456   12.9031 H   0  0  0  0  0  0  0  0  0  0  0  0
   20.8400  -30.1570   15.0470 H   0  0  0  0  0  0  0  0  0  0  0  0
   24.7487  -28.1371    6.7025 H   0  0  0  0  0  0  0  0  0  0  0  0
   23.3232  -31.7955    4.8451 H   0  0  0  0  0  0  0  0  0  0  0  0
   20.9100  -32.0640    5.2840 H   0  0  0  0  0  0  0  0  0  0  0  0
   20.4640  -30.7590    8.1150 H   0  0  0  0  0  0  0  0  0  0  0  0
  1  2  2  0
  2  3  1  0
  3  4  1  0
  4  5  1  0
  5  6  2  0
  6  7  1  0
  7  8  1  0
  8  9  1  0
  9 10  1  0
 10 11  1  0
 11 12  2  0
 12 13  1  0
 13 14  2  0
 14 15  1  0
 15 16  2  0
  9 17  1  0
 17 18  1  0
 17 19  1  0
 19 20  1  0
  2 21  1  0
 21 22  2  0
 22 23  1  0
 23 24  1  0
 24 25  2  0
 24 26  1  0
 23 27  2  0
 27 28  1  0
 28 29  1  0
 28 30  2  0
 30 31  1  0
 19  7  1  0
 30 21  1  0
 16 11  1  0
  3 32  1  0
  4 33  1  0
  4 34  1  0
  5 35  1  0
  6 36  1  0
  7 37  1  1
  9 38  1  1
 12 39  1  0
 13 40  1  0
 15 41  1  0
 16 42  1  0
 17 43  1  6
 18 44  1  0
 19 45  1  6
 20 46  1  0
 22 47  1  0
 27 48  1  0
 29 49  1  0
 31 50  1  0
M  CHG  2  24   1  26  -1
M  END
>  <meeko>  (4) 
{"is_sidechain": [false], "free_energy": -7.747, "intermolecular_energy": -11.893, "internal_energy": -1.075}

$$$$
3oe5_ligand
     RDKit          3D

 50 52  0  0  0  0  0  0  0  0999 V2000
   23.3790  -26.7420    7.5240 O   0  0  0  0  0  0  0  0  0  0  0  0
   22.9110  -27.8020    7.9260 C   0  0  0  0  0  0  0  0  0  0  0  0
   22.2990  -27.9310    9.1490 N   0  0  0  0  0  0  0  0  0  0  0  0
   22.2890  -26.8510   10.0980 C   0  0  0  0  0  0  0  0  0  0  0  0
   21.6930  -27.3630   11.3700 C   0  0  0  0  0  0  0  0  0  0  0  0
   20.6800  -28.2440   11.4250 C   0  0  0  0  0  0  0  0  0  0  0  0
   20.0710  -28.7470   12.7040 C   0  0  1  0  0  0  0  0  0  0  0  0
   18.6680  -28.9690   12.4370 O   0  0  0  0  0  0  0  0  0  0  0  0
   18.3740  -30.3430   12.7310 C   0  0  1  0  0  0  0  0  0  0  0  0
   17.1310  -31.0490   11.5950 S   0  0  0  0  0  0  0  0  0  0  0  0
   15.6340  -30.7650   12.5220 C   0  0  0  0  0  0  0  0  0  0  0  0
   15.5310  -29.7570   13.4780 C   0  0  0  0  0  0  0  0  0  0  0  0
   14.3250  -29.5970   14.1400 C   0  0  0  0  0  0  0  0  0  0  0  0
   13.2360  -30.3590   13.9090 N   0  0  0  0  0  0  0  0  0  0  0  0
   13.3530  -31.3150   12.9640 C   0  0  0  0  0  0  0  0  0  0  0  0
   14.5150  -31.5510   12.2490 C   0  0  0  0  0  0  0  0  0  0  0  0
   19.6990  -31.0950   12.5820 C   0  0  2  0  0  0  0  0  0  0  0  0
   19.7570  -32.3310   13.2950 O   0  0  0  0  0  0  0  0  0  0  0  0
   20.6650  -30.0840   13.1720 C   0  0  2  0  0  0  0  0  0  0  0  0
   20.6390  -30.1780   14.6050 O   0  0  0  0  0  0  0  0  0  0  0  0
   22.9940  -29.0240    7.0700 C   0  0  0  0  0  0  0  0  0  0  0  0
   21.9110  -29.9220    7.1210 C   0  0  0  0  0  0  0  0  0  0  0  0
   21.9240  -31.0900    6.3430 C   0  0  0  0  0  0  0  0  0  0  0  0
   20.7890  -32.0210    6.4070 N   0  0  0  0  0  0  0  0  0  0  0  0
   20.9030  -33.0080    7.1480 O   0  0  0  0  0  0  0  0  0  0  0  0
   19.7900  -31.7650    5.7240 O   0  0  0  0  0  0  0  0  0  0  0  0
   23.0070  -31.3860    5.5030 C   0  0  0  0  0  0  0  0  0  0  0  0
   24.0690  -30.4950    5.4570 C   0  0  0  0  0  0  0  0  0  0  0  0
   25.1590  -30.7170    4.6580 O   0  0  0  0  0  0  0  0  0  0  0  0
   24.0710  -29.3260    6.2270 C   0  0  0  0  0  0  0  0  0  0  0  0
   25.1610  -28.4990    6.1100 O   0  0  0  0  0  0  0  0  0  0  0  0
   22.0580  -28.8710    9.4540 H   0  0  0  0  0  0  0  0  0  0  0  0
   23.3168  -26.5037   10.2800 H   0  0  0  0  0  0  0  0  0  0  0  0
   21.6998  -26.0064    9.7113 H   0  0  0  0  0  0  0  0  0  0  0  0
   22.1096  -26.9957   12.3195 H   0  0  0  0  0  0  0  0  0  0  0  0
   20.2712  -28.6203   10.4757 H   0  0  0  0  0  0  0  0  0  0  0  0
   20.2638  -28.0039   13.4918 H   0  0  0  0  0  0  0  0  0  0  0  0
   17.9481  -30.4296   13.7415 H   0  0  0  0  0  0  0  0  0  0  0  0
   16.3872  -29.1036   13.7018 H   0  0  0  0  0  0  0  0  0  0  0  0
   14.2509  -28.8030   14.8977 H   0  0  0  0  0  0  0  0  0  0  0  0
   12.4754  -31.9425   12.7494 H   0  0  0  0  0  0  0  0  0  0  0  0
   14.5545  -32.3400   11.4836 H   0  0  0  0  0  0  0  0  0  0  0  0
   19.8974  -31.4023   11.5446 H   0  0  0  0  0  0  0  0  0  0  0  0
   19.3070  -32.1800   14.1470 H   0  0  0  0  0  0  0  0  0  0  0  0
   21.7123  -30.2236   12.8660 H   0  0  0  0  0  0  0  0  0  0  0  0
   19.9590  -30.8560   14.8020 H   0  0  0  0  0  0  0  0  0  0  0  0
   21.0514  -29.7074    7.7730 H   0  0  0  0  0  0  0  0  0  0  0  0
   23.0142  -32.3028    4.8951 H   0  0  0  0  0  0  0  0  0  0  0  0
   24.9480  -31.4210    4.0180 H   0  0  0  0  0  0  0  0  0  0  0  0
   25.7230  -28.7080    6.8890 H   0  0  0  0  0  0  0  0  0  0  0  0
  1  2  2  0
  2  3  1  0
  3  4  1  0
  4  5  1  0
  5  6  2  0
  6  7  1  0
  7  8  1  0
  8  9  1  0
  9 10  1  0
 10 11  1  0
 11 12  2  0
 12 13  1  0
 13 14  2  0
 14 15  1  0
 15 16  2  0
  9 17  1  0
 17 18  1  0
 17 19  1  0
 19 20  1  0
  2 21  1  0
 21 22  2  0
 22 23  1  0
 23 24  1  0
 24 25  2  0
 24 26  1  0
 23 27  2  0
 27 28  1  0
 28 29  1  0
 28 30  2  0
 30 31  1  0
 19  7  1  0
 30 21  1  0
 16 11  1  0
  3 32  1  0
  4 33  1  0
  4 34  1  0
  5 35  1  0
  6 36  1  0
  7 37  1  1
  9 38  1  1
 12 39  1  0
 13 40  1  0
 15 41  1  0
 16 42  1  0
 17 43  1  6
 18 44  1  0
 19 45  1  6
 20 46  1  0
 22 47  1  0
 27 48  1  0
 29 49  1  0
 31 50  1  0
M  CHG  2  24   1  26  -1
M  END
>  <meeko>  (5) 
{"is_sidechain": [false], "free_energy": -7.505, "intermolecular_energy": -11.472, "internal_energy": -1.127}

$$$$
3oe5_ligand
     RDKit          3D

 50 52  0  0  0  0  0  0  0  0999 V2000
   21.0090  -31.8600    4.8080 O   0  0  0  0  0  0  0  0  0  0  0  0
   20.6140  -32.4570    5.8040 C   0  0  0  0  0  0  0  0  0  0  0  0
   20.9240  -32.0610    7.0810 N   0  0  0  0  0  0  0  0  0  0  0  0
   21.8480  -30.9880    7.3290 C   0  0  0  0  0  0  0  0  0  0  0  0
   21.1790  -30.0050    8.2360 C   0  0  0  0  0  0  0  0  0  0  0  0
   20.7690  -30.2900    9.4830 C   0  0  0  0  0  0  0  0  0  0  0  0
   20.0820  -29.3060   10.3890 C   0  0  1  0  0  0  0  0  0  0  0  0
   18.8470  -29.9260   10.8150 O   0  0  0  0  0  0  0  0  0  0  0  0
   18.8500  -29.9780   12.2490 C   0  0  1  0  0  0  0  0  0  0  0  0
   18.0430  -31.4820   12.8950 S   0  0  0  0  0  0  0  0  0  0  0  0
   16.3420  -30.9480   12.9530 C   0  0  0  0  0  0  0  0  0  0  0  0
   15.9260  -29.8740   13.7380 C   0  0  0  0  0  0  0  0  0  0  0  0
   14.5880  -29.5190   13.7110 C   0  0  0  0  0  0  0  0  0  0  0  0
   13.6590  -30.1480   12.9620 N   0  0  0  0  0  0  0  0  0  0  0  0
   14.0900  -31.1710   12.1950 C   0  0  0  0  0  0  0  0  0  0  0  0
   15.4050  -31.6000   12.1530 C   0  0  0  0  0  0  0  0  0  0  0  0
   20.3230  -29.9610   12.6650 C   0  0  2  0  0  0  0  0  0  0  0  0
   20.5530  -29.5060   13.9990 O   0  0  0  0  0  0  0  0  0  0  0  0
   20.8910  -28.9820   11.6540 C   0  0  2  0  0  0  0  0  0  0  0  0
   20.6320  -27.6390   12.0910 O   0  0  0  0  0  0  0  0  0  0  0  0
   19.7580  -33.6730    5.6530 C   0  0  0  0  0  0  0  0  0  0  0  0
   19.8980  -34.6840    6.6210 C   0  0  0  0  0  0  0  0  0  0  0  0
   19.1250  -35.8530    6.5390 C   0  0  0  0  0  0  0  0  0  0  0  0
   19.2830  -36.9030    7.5540 N   0  0  0  0  0  0  0  0  0  0  0  0
   19.2840  -36.5520    8.7430 O   0  0  0  0  0  0  0  0  0  0  0  0
   19.4050  -38.0720    7.1650 O   0  0  0  0  0  0  0  0  0  0  0  0
   18.2010  -36.0360    5.5010 C   0  0  0  0  0  0  0  0  0  0  0  0
   18.0660  -35.0330    4.5530 C   0  0  0  0  0  0  0  0  0  0  0  0
   17.1820  -35.1410    3.5120 O   0  0  0  0  0  0  0  0  0  0  0  0
   18.8310  -33.8620    4.6200 C   0  0  0  0  0  0  0  0  0  0  0  0
   18.6240  -32.9200    3.6420 O   0  0  0  0  0  0  0  0  0  0  0  0
   20.6640  -32.6860    7.8410 H   0  0  0  0  0  0  0  0  0  0  0  0
   22.7566  -31.3807    7.8088 H   0  0  0  0  0  0  0  0  0  0  0  0
   22.1348  -30.5035    6.3840 H   0  0  0  0  0  0  0  0  0  0  0  0
   21.0123  -28.9853    7.8585 H   0  0  0  0  0  0  0  0  0  0  0  0
   20.9468  -31.3061    9.8650 H   0  0  0  0  0  0  0  0  0  0  0  0
   19.9426  -28.3667    9.8338 H   0  0  0  0  0  0  0  0  0  0  0  0
   18.2834  -29.1283   12.6577 H   0  0  0  0  0  0  0  0  0  0  0  0
   16.6430  -29.3221   14.3635 H   0  0  0  0  0  0  0  0  0  0  0  0
   14.2636  -28.6746   14.3369 H   0  0  0  0  0  0  0  0  0  0  0  0
   13.3538  -31.6941   11.5670 H   0  0  0  0  0  0  0  0  0  0  0  0
   15.7039  -32.4360   11.5035 H   0  0  0  0  0  0  0  0  0  0  0  0
   20.7729  -30.9648   12.6690 H   0  0  0  0  0  0  0  0  0  0  0  0
   20.4380  -28.5370   13.9840 H   0  0  0  0  0  0  0  0  0  0  0  0
   21.9781  -29.0617   11.5062 H   0  0  0  0  0  0  0  0  0  0  0  0
   20.2730  -27.1810   11.3030 H   0  0  0  0  0  0  0  0  0  0  0  0
   20.6157  -34.5582    7.4451 H   0  0  0  0  0  0  0  0  0  0  0  0
   17.5973  -36.9535    5.4399 H   0  0  0  0  0  0  0  0  0  0  0  0
   16.8540  -36.0580    3.4660 H   0  0  0  0  0  0  0  0  0  0  0  0
   19.5200  -32.5940    3.4100 H   0  0  0  0  0  0  0  0  0  0  0  0
  1  2  2  0
  2  3  1  0
  3  4  1  0
  4  5  1  0
  5  6  2  0
  6  7  1  0
  7  8  1  0
  8  9  1  0
  9 10  1  0
 10 11  1  0
 11 12  2  0
 12 13  1  0
 13 14  2  0
 14 15  1  0
 15 16  2  0
  9 17  1  0
 17 18  1  0
 17 19  1  0
 19 20  1  0
  2 21  1  0
 21 22  2  0
 22 23  1  0
 23 24  1  0
 24 25  2  0
 24 26  1  0
 23 27  2  0
 27 28  1  0
 28 29  1  0
 28 30  2  0
 30 31  1  0
 19  7  1  0
 30 21  1  0
 16 11  1  0
  3 32  1  0
  4 33  1  0
  4 34  1  0
  5 35  1  0
  6 36  1  0
  7 37  1  6
  9 38  1  1
 12 39  1  0
 13 40  1  0
 15 41  1  0
 16 42  1  0
 17 43  1  1
 18 44  1  0
 19 45  1  6
 20 46  1  0
 22 47  1  0
 27 48  1  0
 29 49  1  0
 31 50  1  0
M  CHG  2  24   1  26  -1
M  END
>  <meeko>  (6) 
{"is_sidechain": [false], "free_energy": -7.414, "intermolecular_energy": -11.421, "internal_energy": -1.04}

$$$$
3oe5_ligand
     RDKit          3D

 50 52  0  0  0  0  0  0  0  0999 V2000
   21.4980  -29.6380    7.6270 O   0  0  0  0  0  0  0  0  0  0  0  0
   22.4110  -30.1570    6.9940 C   0  0  0  0  0  0  0  0  0  0  0  0
   22.4990  -31.5120    6.7870 N   0  0  0  0  0  0  0  0  0  0  0  0
   21.5870  -32.4260    7.4190 C   0  0  0  0  0  0  0  0  0  0  0  0
   20.6480  -32.9360    6.3730 C   0  0  0  0  0  0  0  0  0  0  0  0
   20.1390  -32.1790    5.3860 C   0  0  0  0  0  0  0  0  0  0  0  0
   19.1830  -32.6880    4.3430 C   0  0  1  0  0  0  0  0  0  0  0  0
   19.9860  -33.1330    3.2260 O   0  0  0  0  0  0  0  0  0  0  0  0
   19.6810  -34.5140    2.9850 C   0  0  1  0  0  0  0  0  0  0  0  0
   21.1400  -35.4660    2.4400 S   0  0  0  0  0  0  0  0  0  0  0  0
   22.4120  -34.7360    3.4560 C   0  0  0  0  0  0  0  0  0  0  0  0
   22.8120  -35.3000    4.6650 C   0  0  0  0  0  0  0  0  0  0  0  0
   23.8180  -34.6740    5.3830 C   0  0  0  0  0  0  0  0  0  0  0  0
   24.4410  -33.5490    4.9760 N   0  0  0  0  0  0  0  0  0  0  0  0
   24.0510  -33.0340    3.7910 C   0  0  0  0  0  0  0  0  0  0  0  0
   23.0560  -33.5860    3.0020 C   0  0  0  0  0  0  0  0  0  0  0  0
   19.1690  -35.0680    4.3160 C   0  0  2  0  0  0  0  0  0  0  0  0
   18.3560  -36.2350    4.1950 O   0  0  0  0  0  0  0  0  0  0  0  0
   18.3540  -33.8900    4.8170 C   0  0  2  0  0  0  0  0  0  0  0  0
   17.0640  -33.8980    4.1850 O   0  0  0  0  0  0  0  0  0  0  0  0
   23.4910  -29.3050    6.4100 C   0  0  0  0  0  0  0  0  0  0  0  0
   24.4830  -29.9520    5.6500 C   0  0  0  0  0  0  0  0  0  0  0  0
   25.5270  -29.2120    5.0730 C   0  0  0  0  0  0  0  0  0  0  0  0
   26.5580  -29.8990    4.2850 N   0  0  0  0  0  0  0  0  0  0  0  0
   26.8440  -31.0610    4.6090 O   0  0  0  0  0  0  0  0  0  0  0  0
   27.0790  -29.2830    3.3470 O   0  0  0  0  0  0  0  0  0  0  0  0
   25.6030  -27.8220    5.2380 C   0  0  0  0  0  0  0  0  0  0  0  0
   24.6190  -27.1910    5.9860 C   0  0  0  0  0  0  0  0  0  0  0  0
   24.6270  -25.8370    6.1880 O   0  0  0  0  0  0  0  0  0  0  0  0
   23.5730  -27.9160    6.5690 C   0  0  0  0  0  0  0  0  0  0  0  0
   22.6410  -27.2060    7.2850 O   0  0  0  0  0  0  0  0  0  0  0  0
   23.3540  -31.8670    6.3650 H   0  0  0  0  0  0  0  0  0  0  0  0
   22.1449  -33.2646    7.8612 H   0  0  0  0  0  0  0  0  0  0  0  0
   21.0292  -31.9181    8.2196 H   0  0  0  0  0  0  0  0  0  0  0  0
   20.3559  -33.9957    6.4139 H   0  0  0  0  0  0  0  0  0  0  0  0
   20.4403  -31.1221    5.3383 H   0  0  0  0  0  0  0  0  0  0  0  0
   18.4815  -31.8777    4.0954 H   0  0  0  0  0  0  0  0  0  0  0  0
   18.9403  -34.6003    2.1763 H   0  0  0  0  0  0  0  0  0  0  0  0
   22.3406  -36.2201    5.0407 H   0  0  0  0  0  0  0  0  0  0  0  0
   24.1264  -35.1201    6.3400 H   0  0  0  0  0  0  0  0  0  0  0  0
   24.5524  -32.1234    3.4313 H   0  0  0  0  0  0  0  0  0  0  0  0
   22.7804  -33.1283    2.0405 H   0  0  0  0  0  0  0  0  0  0  0  0
   19.9827  -35.4062    4.9744 H   0  0  0  0  0  0  0  0  0  0  0  0
   17.6420  -36.1440    4.8540 H   0  0  0  0  0  0  0  0  0  0  0  0
   18.1739  -33.8912    5.9022 H   0  0  0  0  0  0  0  0  0  0  0  0
   17.2240  -34.2630    3.2900 H   0  0  0  0  0  0  0  0  0  0  0  0
   24.4402  -31.0419    5.5075 H   0  0  0  0  0  0  0  0  0  0  0  0
   26.4230  -27.2452    4.7854 H   0  0  0  0  0  0  0  0  0  0  0  0
   23.7810  -25.4630    5.8780 H   0  0  0  0  0  0  0  0  0  0  0  0
   21.8500  -27.1660    6.7040 H   0  0  0  0  0  0  0  0  0  0  0  0
  1  2  2  0
  2  3  1  0
  3  4  1  0
  4  5  1  0
  5  6  2  0
  6  7  1  0
  7  8  1  0
  8  9  1  0
  9 10  1  0
 10 11  1  0
 11 12  2  0
 12 13  1  0
 13 14  2  0
 14 15  1  0
 15 16  2  0
  9 17  1  0
 17 18  1  0
 17 19  1  0
 19 20  1  0
  2 21  1  0
 21 22  2  0
 22 23  1  0
 23 24  1  0
 24 25  2  0
 24 26  1  0
 23 27  2  0
 27 28  1  0
 28 29  1  0
 28 30  2  0
 30 31  1  0
 19  7  1  0
 30 21  1  0
 16 11  1  0
  3 32  1  0
  4 33  1  0
  4 34  1  0
  5 35  1  0
  6 36  1  0
  7 37  1  6
  9 38  1  6
 12 39  1  0
 13 40  1  0
 15 41  1  0
 16 42  1  0
 17 43  1  1
 18 44  1  0
 19 45  1  1
 20 46  1  0
 22 47  1  0
 27 48  1  0
 29 49  1  0
 31 50  1  0
M  CHG  2  24   1  26  -1
M  END
>  <meeko>  (7) 
{"is_sidechain": [false], "free_energy": -7.131, "intermolecular_energy": -10.146, "internal_energy": -1.883}

$$$$
3oe5_ligand
     RDKit          3D

 50 52  0  0  0  0  0  0  0  0999 V2000
   20.8910  -34.8990    7.6310 O   0  0  0  0  0  0  0  0  0  0  0  0
   20.7830  -34.0850    6.7200 C   0  0  0  0  0  0  0  0  0  0  0  0
   21.3470  -32.8340    6.7680 N   0  0  0  0  0  0  0  0  0  0  0  0
   21.9950  -32.3500    7.9560 C   0  0  0  0  0  0  0  0  0  0  0  0
   21.1960  -31.2000    8.4800 C   0  0  0  0  0  0  0  0  0  0  0  0
   20.9410  -30.9930    9.7830 C   0  0  0  0  0  0  0  0  0  0  0  0
   20.1240  -29.8460   10.3090 C   0  0  1  0  0  0  0  0  0  0  0  0
   18.8740  -30.4040   10.7730 O   0  0  0  0  0  0  0  0  0  0  0  0
   18.7230  -30.0610   12.1580 C   0  0  1  0  0  0  0  0  0  0  0  0
   17.9060  -31.3800   13.1200 S   0  0  0  0  0  0  0  0  0  0  0  0
   16.2020  -30.8620   13.0150 C   0  0  0  0  0  0  0  0  0  0  0  0
   15.7170  -29.7580   13.7110 C   0  0  0  0  0  0  0  0  0  0  0  0
   14.3830  -29.4180   13.5590 C   0  0  0  0  0  0  0  0  0  0  0  0
   13.5220  -30.0920   12.7680 N   0  0  0  0  0  0  0  0  0  0  0  0
   14.0210  -31.1450   12.0880 C   0  0  0  0  0  0  0  0  0  0  0  0
   15.3390  -31.5620   12.1730 C   0  0  0  0  0  0  0  0  0  0  0  0
   20.1400  -29.8340   12.6890 C   0  0  2  0  0  0  0  0  0  0  0  0
   20.2070  -29.0170   13.8580 O   0  0  0  0  0  0  0  0  0  0  0  0
   20.7780  -29.1350   11.5030 C   0  0  2  0  0  0  0  0  0  0  0  0
   20.4230  -27.7430   11.5210 O   0  0  0  0  0  0  0  0  0  0  0  0
   20.0080  -34.4390    5.4920 C   0  0  0  0  0  0  0  0  0  0  0  0
   20.4840  -33.9430    4.2640 C   0  0  0  0  0  0  0  0  0  0  0  0
   19.8040  -34.2380    3.0720 C   0  0  0  0  0  0  0  0  0  0  0  0
   20.3090  -33.7110    1.7960 N   0  0  0  0  0  0  0  0  0  0  0  0
   19.9200  -32.5860    1.4500 O   0  0  0  0  0  0  0  0  0  0  0  0
   21.0910  -34.4160    1.1470 O   0  0  0  0  0  0  0  0  0  0  0  0
   18.6470  -35.0280    3.0770 C   0  0  0  0  0  0  0  0  0  0  0  0
   18.1860  -35.5160    4.2910 C   0  0  0  0  0  0  0  0  0  0  0  0
   17.0640  -36.2970    4.3730 O   0  0  0  0  0  0  0  0  0  0  0  0
   18.8530  -35.2300    5.4890 C   0  0  0  0  0  0  0  0  0  0  0  0
   18.3280  -35.7630    6.6410 O   0  0  0  0  0  0  0  0  0  0  0  0
   21.0990  -32.1800    6.0280 H   0  0  0  0  0  0  0  0  0  0  0  0
   22.0381  -33.1495    8.7103 H   0  0  0  0  0  0  0  0  0  0  0  0
   23.0226  -32.0302    7.7284 H   0  0  0  0  0  0  0  0  0  0  0  0
   20.7920  -30.4789    7.7541 H   0  0  0  0  0  0  0  0  0  0  0  0
   21.3558  -31.7070   10.5097 H   0  0  0  0  0  0  0  0  0  0  0  0
   20.0114  -29.1066    9.5024 H   0  0  0  0  0  0  0  0  0  0  0  0
   18.0842  -29.1711   12.2579 H   0  0  0  0  0  0  0  0  0  0  0  0
   16.3772  -29.1701   14.3656 H   0  0  0  0  0  0  0  0  0  0  0  0
   14.0033  -28.5482   14.1152 H   0  0  0  0  0  0  0  0  0  0  0  0
   13.3419  -31.7046   11.4280 H   0  0  0  0  0  0  0  0  0  0  0  0
   15.6960  -32.4242   11.5906 H   0  0  0  0  0  0  0  0  0  0  0  0
   20.6235  -30.7665   13.0157 H   0  0  0  0  0  0  0  0  0  0  0  0
   21.0950  -29.1530   14.2400 H   0  0  0  0  0  0  0  0  0  0  0  0
   21.8769  -29.1805   11.4862 H   0  0  0  0  0  0  0  0  0  0  0  0
   20.1400  -27.5430   10.6050 H   0  0  0  0  0  0  0  0  0  0  0  0
   21.3917  -33.3222    4.2382 H   0  0  0  0  0  0  0  0  0  0  0  0
   18.1167  -35.2559    2.1406 H   0  0  0  0  0  0  0  0  0  0  0  0
   16.3290  -35.7640    4.7300 H   0  0  0  0  0  0  0  0  0  0  0  0
   18.1460  -34.9890    7.2180 H   0  0  0  0  0  0  0  0  0  0  0  0
  1  2  2  0
  2  3  1  0
  3  4  1  0
  4  5  1  0
  5  6  2  0
  6  7  1  0
  7  8  1  0
  8  9  1  0
  9 10  1  0
 10 11  1  0
 11 12  2  0
 12 13  1  0
 13 14  2  0
 14 15  1  0
 15 16  2  0
  9 17  1  0
 17 18  1  0
 17 19  1  0
 19 20  1  0
  2 21  1  0
 21 22  2  0
 22 23  1  0
 23 24  1  0
 24 25  2  0
 24 26  1  0
 23 27  2  0
 27 28  1  0
 28 29  1  0
 28 30  2  0
 30 31  1  0
 19  7  1  0
 30 21  1  0
 16 11  1  0
  3 32  1  0
  4 33  1  0
  4 34  1  0
  5 35  1  0
  6 36  1  0
  7 37  1  6
  9 38  1  6
 12 39  1  0
 13 40  1  0
 15 41  1  0
 16 42  1  0
 17 43  1  1
 18 44  1  0
 19 45  1  6
 20 46  1  0
 22 47  1  0
 27 48  1  0
 29 49  1  0
 31 50  1  0
M  CHG  2  24   1  26  -1
M  END
>  <meeko>  (8) 
{"is_sidechain": [false], "free_energy": -7.11, "intermolecular_energy": -11.05, "internal_energy": -0.945}

$$$$
3oe5_ligand
     RDKit          3D

 50 52  0  0  0  0  0  0  0  0999 V2000
   22.8270  -29.9630    6.6810 O   0  0  0  0  0  0  0  0  0  0  0  0
   21.9870  -30.7280    7.1430 C   0  0  0  0  0  0  0  0  0  0  0  0
   21.1080  -30.3590    8.1320 N   0  0  0  0  0  0  0  0  0  0  0  0
   21.2090  -29.0820    8.7850 C   0  0  0  0  0  0  0  0  0  0  0  0
   20.4650  -29.1680   10.0800 C   0  0  0  0  0  0  0  0  0  0  0  0
   20.9810  -28.8110   11.2680 C   0  0  0  0  0  0  0  0  0  0  0  0
   20.2390  -28.9110   12.5720 C   0  0  1  0  0  0  0  0  0  0  0  0
   18.8450  -29.1090   12.2420 O   0  0  0  0  0  0  0  0  0  0  0  0
   18.4140  -30.3310   12.8580 C   0  0  1  0  0  0  0  0  0  0  0  0
   17.2030  -31.2390   11.8380 S   0  0  0  0  0  0  0  0  0  0  0  0
   15.6770  -30.7610   12.6290 C   0  0  0  0  0  0  0  0  0  0  0  0
   15.6110  -29.7160   13.5480 C   0  0  0  0  0  0  0  0  0  0  0  0
   14.3810  -29.4040   14.1030 C   0  0  0  0  0  0  0  0  0  0  0  0
   13.2360  -30.0500   13.8010 N   0  0  0  0  0  0  0  0  0  0  0  0
   13.3210  -31.0450   12.8930 C   0  0  0  0  0  0  0  0  0  0  0  0
   14.5040  -31.4300   12.2830 C   0  0  0  0  0  0  0  0  0  0  0  0
   19.6770  -31.1760   13.0380 C   0  0  2  0  0  0  0  0  0  0  0  0
   19.5770  -32.1760   14.0530 O   0  0  0  0  0  0  0  0  0  0  0  0
   20.6800  -30.1070   13.4280 C   0  0  2  0  0  0  0  0  0  0  0  0
   20.5400  -29.8080   14.8270 O   0  0  0  0  0  0  0  0  0  0  0  0
   21.8900  -32.1280    6.6290 C   0  0  0  0  0  0  0  0  0  0  0  0
   22.9370  -33.0090    6.9570 C   0  0  0  0  0  0  0  0  0  0  0  0
   22.9100  -34.3380    6.5060 C   0  0  0  0  0  0  0  0  0  0  0  0
   24.0110  -35.2470    6.8530 N   0  0  0  0  0  0  0  0  0  0  0  0
   25.0810  -35.1050    6.2430 O   0  0  0  0  0  0  0  0  0  0  0  0
   23.8080  -36.0960    7.7290 O   0  0  0  0  0  0  0  0  0  0  0  0
   21.8470  -34.8140    5.7270 C   0  0  0  0  0  0  0  0  0  0  0  0
   20.8170  -33.9400    5.4110 C   0  0  0  0  0  0  0  0  0  0  0  0
   19.7450  -34.3360    4.6560 O   0  0  0  0  0  0  0  0  0  0  0  0
   20.8300  -32.6120    5.8520 C   0  0  0  0  0  0  0  0  0  0  0  0
   19.7640  -31.8220    5.4970 O   0  0  0  0  0  0  0  0  0  0  0  0
   20.5350  -31.0920    8.5460 H   0  0  0  0  0  0  0  0  0  0  0  0
   22.2654  -28.8424    8.9760 H   0  0  0  0  0  0  0  0  0  0  0  0
   20.7825  -28.2918    8.1496 H   0  0  0  0  0  0  0  0  0  0  0  0
   19.4324  -29.5466   10.0582 H   0  0  0  0  0  0  0  0  0  0  0  0
   22.0096  -28.4216   11.2880 H   0  0  0  0  0  0  0  0  0  0  0  0
   20.4363  -27.9968   13.1510 H   0  0  0  0  0  0  0  0  0  0  0  0
   17.9082  -30.1144   13.8105 H   0  0  0  0  0  0  0  0  0  0  0  0
   16.5138  -29.1524   13.8261 H   0  0  0  0  0  0  0  0  0  0  0  0
   14.3352  -28.5818   14.8323 H   0  0  0  0  0  0  0  0  0  0  0  0
   12.3991  -31.5805   12.6220 H   0  0  0  0  0  0  0  0  0  0  0  0
   14.5172  -32.2441   11.5434 H   0  0  0  0  0  0  0  0  0  0  0  0
   19.9240  -31.7634   12.1413 H   0  0  0  0  0  0  0  0  0  0  0  0
   20.2360  -31.9440   14.7350 H   0  0  0  0  0  0  0  0  0  0  0  0
   21.7308  -30.3905   13.2686 H   0  0  0  0  0  0  0  0  0  0  0  0
   20.2250  -28.8810   14.8570 H   0  0  0  0  0  0  0  0  0  0  0  0
   23.7797  -32.6550    7.5690 H   0  0  0  0  0  0  0  0  0  0  0  0
   21.8296  -35.8558    5.3744 H   0  0  0  0  0  0  0  0  0  0  0  0
   19.2130  -33.5520    4.4220 H   0  0  0  0  0  0  0  0  0  0  0  0
   18.9900  -32.4260    5.4950 H   0  0  0  0  0  0  0  0  0  0  0  0
  1  2  2  0
  2  3  1  0
  3  4  1  0
  4  5  1  0
  5  6  2  0
  6  7  1  0
  7  8  1  0
  8  9  1  0
  9 10  1  0
 10 11  1  0
 11 12  2  0
 12 13  1  0
 13 14  2  0
 14 15  1  0
 15 16  2  0
  9 17  1  0
 17 18  1  0
 17 19  1  0
 19 20  1  0
  2 21  1  0
 21 22  2  0
 22 23  1  0
 23 24  1  0
 24 25  2  0
 24 26  1  0
 23 27  2  0
 27 28  1  0
 28 29  1  0
 28 30  2  0
 30 31  1  0
 19  7  1  0
 30 21  1  0
 16 11  1  0
  3 32  1  0
  4 33  1  0
  4 34  1  0
  5 35  1  0
  6 36  1  0
  7 37  1  1
  9 38  1  1
 12 39  1  0
 13 40  1  0
 15 41  1  0
 16 42  1  0
 17 43  1  6
 18 44  1  0
 19 45  1  1
 20 46  1  0
 22 47  1  0
 27 48  1  0
 29 49  1  0
 31 50  1  0
M  CHG  2  24   1  26  -1
M  END
>  <meeko>  (9) 
{"is_sidechain": [false], "free_energy": -7.082, "intermolecular_energy": -10.964, "internal_energy": -0.99}

$$$$
