2qe4_ligand
     RDKit          3D

 46 49  0  0  0  0  0  0  0  0999 V2000
   -6.8470    3.1270   26.8930 C   0  0  0  0  0  0  0  0  0  0  0  0
   -6.2290    3.9730   27.8520 O   0  0  0  0  0  0  0  0  0  0  0  0
   -5.0890    4.6390   27.3040 C   0  0  0  0  0  0  0  0  0  0  0  0
   -5.4680    5.9220   26.5970 C   0  0  0  0  0  0  0  0  0  0  0  0
   -5.8630    7.0650   27.3060 C   0  0  0  0  0  0  0  0  0  0  0  0
   -6.2240    8.2200   26.6260 C   0  0  0  0  0  0  0  0  0  0  0  0
   -6.5940    9.3050   27.3660 O   0  0  0  0  0  0  0  0  0  0  0  0
   -6.2020    8.2670   25.2370 C   0  0  0  0  0  0  0  0  0  0  0  0
   -5.8240    7.1340   24.5010 C   0  0  0  0  0  0  0  0  0  0  0  0
   -5.4670    5.9650   25.1890 C   0  0  0  0  0  0  0  0  0  0  0  0
   -5.0990    4.8120   24.5460 O   0  0  0  0  0  0  0  0  0  0  0  0
   -5.5940    4.6360   23.2090 C   0  0  1  0  0  0  0  0  0  0  0  0
   -6.9600    3.9560   23.2170 C   0  0  0  0  0  0  0  0  0  0  0  0
   -8.1260    4.5850   23.6760 C   0  0  0  0  0  0  0  0  0  0  0  0
   -9.3570    3.9240   23.6550 C   0  0  0  0  0  0  0  0  0  0  0  0
   -9.4360    2.6230   23.1790 C   0  0  0  0  0  0  0  0  0  0  0  0
  -10.6570    2.0170   23.1780 O   0  0  0  0  0  0  0  0  0  0  0  0
   -8.3000    1.9670   22.7240 C   0  0  0  0  0  0  0  0  0  0  0  0
   -7.0690    2.6310   22.7450 C   0  0  0  0  0  0  0  0  0  0  0  0
   -5.3800    5.8800   22.3280 C   0  0  1  0  0  0  0  0  0  0  0  0
   -6.1050    5.8790   20.9710 C   0  0  0  0  0  0  0  0  0  0  0  0
   -6.7230    7.2650   20.8390 C   0  0  0  0  0  0  0  0  0  0  0  0
   -6.9920    7.6850   22.2760 C   0  0  0  0  0  0  0  0  0  0  0  0
   -5.7360    7.2070   23.0070 C   0  0  1  0  0  0  0  0  0  0  0  0
   -7.4196    2.3432   27.4104 H   0  0  0  0  0  0  0  0  0  0  0  0
   -7.5253    3.7211   26.2629 H   0  0  0  0  0  0  0  0  0  0  0  0
   -6.0748    2.6615   26.2629 H   0  0  0  0  0  0  0  0  0  0  0  0
   -4.3900    4.8760   28.1196 H   0  0  0  0  0  0  0  0  0  0  0  0
   -4.6258    3.9681   26.5656 H   0  0  0  0  0  0  0  0  0  0  0  0
   -5.8870    7.0465   28.4056 H   0  0  0  0  0  0  0  0  0  0  0  0
   -6.9530    8.9980   28.2140 H   0  0  0  0  0  0  0  0  0  0  0  0
   -6.4813    9.1937   24.7142 H   0  0  0  0  0  0  0  0  0  0  0  0
   -4.9761    3.9079   22.6631 H   0  0  0  0  0  0  0  0  0  0  0  0
   -8.0709    5.6148   24.0586 H   0  0  0  0  0  0  0  0  0  0  0  0
  -10.2623    4.4344   24.0154 H   0  0  0  0  0  0  0  0  0  0  0  0
  -10.5420    1.0880   23.4350 H   0  0  0  0  0  0  0  0  0  0  0  0
   -8.3674    0.9346   22.3504 H   0  0  0  0  0  0  0  0  0  0  0  0
   -6.1688    2.1101   22.3867 H   0  0  0  0  0  0  0  0  0  0  0  0
   -4.2960    5.8066   22.1564 H   0  0  0  0  0  0  0  0  0  0  0  0
   -5.3914    5.6968   20.1540 H   0  0  0  0  0  0  0  0  0  0  0  0
   -6.8653    5.0860   20.9150 H   0  0  0  0  0  0  0  0  0  0  0  0
   -6.0233    7.9606   20.3526 H   0  0  0  0  0  0  0  0  0  0  0  0
   -7.6321    7.2665   20.2197 H   0  0  0  0  0  0  0  0  0  0  0  0
   -7.1061    8.7762   22.3555 H   0  0  0  0  0  0  0  0  0  0  0  0
   -7.9222    7.2653   22.6865 H   0  0  0  0  0  0  0  0  0  0  0  0
   -4.9335    7.9534   22.9125 H   0  0  0  0  0  0  0  0  0  0  0  0
  1  2  1  0
  2  3  1  0
  3  4  1  0
  4  5  2  0
  5  6  1  0
  6  7  1  0
  6  8  2  0
  8  9  1  0
  9 10  2  0
 10 11  1  0
 11 12  1  0
 12 13  1  0
 13 14  2  0
 14 15  1  0
 15 16  2  0
 16 17  1  0
 16 18  1  0
 18 19  2  0
 12 20  1  0
 20 21  1  0
 21 22  1  0
 22 23  1  0
 23 24  1  0
 10  4  1  0
 19 13  1  0
 24 20  1  0
 24  9  1  0
  1 25  1  0
  1 26  1  0
  1 27  1  0
  3 28  1  0
  3 29  1  0
  5 30  1  0
  7 31  1  0
  8 32  1  0
 12 33  1  6
 14 34  1  0
 15 35  1  0
 17 36  1  0
 18 37  1  0
 19 38  1  0
 20 39  1  6
 21 40  1  0
 21 41  1  0
 22 42  1  0
 22 43  1  0
 23 44  1  0
 23 45  1  0
 24 46  1  1
M  END
>  <meeko>  (1) 
{"is_sidechain": [false], "free_energy": -8.313, "intermolecular_energy": -10.257, "internal_energy": -0.917}

$$$$
2qe4_ligand
     RDKit          3D

 46 49  0  0  0  0  0  0  0  0999 V2000
   -6.3550    8.3410   20.2940 C   0  0  0  0  0  0  0  0  0  0  0  0
   -6.7290    7.1310   20.9390 O   0  0  0  0  0  0  0  0  0  0  0  0
   -7.4660    7.3840   22.1370 C   0  0  0  0  0  0  0  0  0  0  0  0
   -6.6350    7.1380   23.3770 C   0  0  0  0  0  0  0  0  0  0  0  0
   -5.3080    7.5810   23.4740 C   0  0  0  0  0  0  0  0  0  0  0  0
   -4.5650    7.3210   24.6180 C   0  0  0  0  0  0  0  0  0  0  0  0
   -3.2810    7.7810   24.6620 O   0  0  0  0  0  0  0  0  0  0  0  0
   -5.1180    6.6210   25.6840 C   0  0  0  0  0  0  0  0  0  0  0  0
   -6.4390    6.1520   25.6090 C   0  0  0  0  0  0  0  0  0  0  0  0
   -7.1850    6.4090   24.4490 C   0  0  0  0  0  0  0  0  0  0  0  0
   -8.4760    5.9770   24.2910 O   0  0  0  0  0  0  0  0  0  0  0  0
   -8.8660    4.8250   25.0550 C   0  0  1  0  0  0  0  0  0  0  0  0
   -8.5560    3.5360   24.3000 C   0  0  0  0  0  0  0  0  0  0  0  0
   -7.2530    3.0460   24.1250 C   0  0  0  0  0  0  0  0  0  0  0  0
   -7.0190    1.8550   23.4320 C   0  0  0  0  0  0  0  0  0  0  0  0
   -8.0840    1.1420   22.9010 C   0  0  0  0  0  0  0  0  0  0  0  0
   -7.8090   -0.0140   22.2340 O   0  0  0  0  0  0  0  0  0  0  0  0
   -9.3860    1.6030   23.0500 C   0  0  0  0  0  0  0  0  0  0  0  0
   -9.6180    2.7940   23.7440 C   0  0  0  0  0  0  0  0  0  0  0  0
   -8.4760    4.9380   26.5400 C   0  0  1  0  0  0  0  0  0  0  0  0
   -8.6180    3.6530   27.3750 C   0  0  0  0  0  0  0  0  0  0  0  0
   -7.3380    3.5570   28.1960 C   0  0  0  0  0  0  0  0  0  0  0  0
   -6.2940    4.2450   27.3290 C   0  0  0  0  0  0  0  0  0  0  0  0
   -7.0530    5.4560   26.7840 C   0  0  1  0  0  0  0  0  0  0  0  0
   -6.1195    9.1028   21.0517 H   0  0  0  0  0  0  0  0  0  0  0  0
   -5.4699    8.1631   19.6655 H   0  0  0  0  0  0  0  0  0  0  0  0
   -7.1861    8.6936   19.6655 H   0  0  0  0  0  0  0  0  0  0  0  0
   -7.7983    8.4326   22.1346 H   0  0  0  0  0  0  0  0  0  0  0  0
   -8.3229    6.6947   22.1604 H   0  0  0  0  0  0  0  0  0  0  0  0
   -4.8538    8.1367   22.6404 H   0  0  0  0  0  0  0  0  0  0  0  0
   -3.2830    8.7320   24.4680 H   0  0  0  0  0  0  0  0  0  0  0  0
   -4.5195    6.4342   26.5878 H   0  0  0  0  0  0  0  0  0  0  0  0
   -9.9610    4.7790   25.1486 H   0  0  0  0  0  0  0  0  0  0  0  0
   -6.4028    3.6076   24.5394 H   0  0  0  0  0  0  0  0  0  0  0  0
   -5.9912    1.4833   23.3077 H   0  0  0  0  0  0  0  0  0  0  0  0
   -8.2980   -0.0110   21.3950 H   0  0  0  0  0  0  0  0  0  0  0  0
  -10.2273    1.0356   22.6254 H   0  0  0  0  0  0  0  0  0  0  0  0
  -10.6492    3.1594   23.8585 H   0  0  0  0  0  0  0  0  0  0  0  0
   -9.2236    5.6708   26.8777 H   0  0  0  0  0  0  0  0  0  0  0  0
   -9.4946    3.7191   28.0361 H   0  0  0  0  0  0  0  0  0  0  0  0
   -8.7621    2.7671   26.7391 H   0  0  0  0  0  0  0  0  0  0  0  0
   -7.4509    4.0766   29.1590 H   0  0  0  0  0  0  0  0  0  0  0  0
   -7.0684    2.5191   28.4411 H   0  0  0  0  0  0  0  0  0  0  0  0
   -5.4255    4.5578   27.9272 H   0  0  0  0  0  0  0  0  0  0  0  0
   -5.8852    3.5957   26.5408 H   0  0  0  0  0  0  0  0  0  0  0  0
   -7.0264    6.2799   27.5123 H   0  0  0  0  0  0  0  0  0  0  0  0
  1  2  1  0
  2  3  1  0
  3  4  1  0
  4  5  2  0
  5  6  1  0
  6  7  1  0
  6  8  2  0
  8  9  1  0
  9 10  2  0
 10 11  1  0
 11 12  1  0
 12 13  1  0
 13 14  2  0
 14 15  1  0
 15 16  2  0
 16 17  1  0
 16 18  1  0
 18 19  2  0
 12 20  1  0
 20 21  1  0
 21 22  1  0
 22 23  1  0
 23 24  1  0
 10  4  1  0
 19 13  1  0
 24 20  1  0
 24  9  1  0
  1 25  1  0
  1 26  1  0
  1 27  1  0
  3 28  1  0
  3 29  1  0
  5 30  1  0
  7 31  1  0
  8 32  1  0
 12 33  1  1
 14 34  1  0
 15 35  1  0
 17 36  1  0
 18 37  1  0
 19 38  1  0
 20 39  1  1
 21 40  1  0
 21 41  1  0
 22 42  1  0
 22 43  1  0
 23 44  1  0
 23 45  1  0
 24 46  1  1
M  END
>  <meeko>  (2) 
{"is_sidechain": [false], "free_energy": -8.137, "intermolecular_energy": -10.291, "internal_energy": -0.666}

$$$$
2qe4_ligand
     RDKit          3D

 46 49  0  0  0  0  0  0  0  0999 V2000
   -8.2010    2.4760   29.7210 C   0  0  0  0  0  0  0  0  0  0  0  0
   -7.4240    3.4520   29.0410 O   0  0  0  0  0  0  0  0  0  0  0  0
   -7.4400    3.2400   27.6270 C   0  0  0  0  0  0  0  0  0  0  0  0
   -7.8360    4.4890   26.8710 C   0  0  0  0  0  0  0  0  0  0  0  0
   -8.8960    5.3030   27.2970 C   0  0  0  0  0  0  0  0  0  0  0  0
   -9.2480    6.4310   26.5690 C   0  0  0  0  0  0  0  0  0  0  0  0
  -10.2820    7.1900   27.0310 O   0  0  0  0  0  0  0  0  0  0  0  0
   -8.5620    6.7760   25.4100 C   0  0  0  0  0  0  0  0  0  0  0  0
   -7.5060    5.9720   24.9520 C   0  0  0  0  0  0  0  0  0  0  0  0
   -7.1570    4.8280   25.6850 C   0  0  0  0  0  0  0  0  0  0  0  0
   -6.1480    3.9840   25.3010 O   0  0  0  0  0  0  0  0  0  0  0  0
   -5.8230    3.9660   23.9020 C   0  0  1  0  0  0  0  0  0  0  0  0
   -6.6840    2.9510   23.1530 C   0  0  0  0  0  0  0  0  0  0  0  0
   -8.0400    2.7400   23.4390 C   0  0  0  0  0  0  0  0  0  0  0  0
   -8.7900    1.8040   22.7200 C   0  0  0  0  0  0  0  0  0  0  0  0
   -8.1900    1.0650   21.7100 C   0  0  0  0  0  0  0  0  0  0  0  0
   -8.9590    0.1650   21.0350 O   0  0  0  0  0  0  0  0  0  0  0  0
   -6.8470    1.2450   21.4060 C   0  0  0  0  0  0  0  0  0  0  0  0
   -6.1000    2.1810   22.1260 C   0  0  0  0  0  0  0  0  0  0  0  0
   -5.6470    5.3770   23.3140 C   0  0  1  0  0  0  0  0  0  0  0  0
   -5.5570    5.4650   21.7810 C   0  0  0  0  0  0  0  0  0  0  0  0
   -6.4640    6.6240   21.3850 C   0  0  0  0  0  0  0  0  0  0  0  0
   -7.5320    6.6390   22.4680 C   0  0  0  0  0  0  0  0  0  0  0  0
   -6.7250    6.3810   23.7410 C   0  0  1  0  0  0  0  0  0  0  0  0
   -8.0924    2.6125   30.8071 H   0  0  0  0  0  0  0  0  0  0  0  0
   -9.2588    2.5894   29.4412 H   0  0  0  0  0  0  0  0  0  0  0  0
   -7.8534    1.4706   29.4412 H   0  0  0  0  0  0  0  0  0  0  0  0
   -6.4350    2.9323   27.3027 H   0  0  0  0  0  0  0  0  0  0  0  0
   -8.1847    2.4604   27.4088 H   0  0  0  0  0  0  0  0  0  0  0  0
   -9.4505    5.0463   28.2117 H   0  0  0  0  0  0  0  0  0  0  0  0
  -11.1180    6.7770   26.7630 H   0  0  0  0  0  0  0  0  0  0  0  0
   -8.8468    7.6797   24.8513 H   0  0  0  0  0  0  0  0  0  0  0  0
   -4.8088    3.5683   23.7497 H   0  0  0  0  0  0  0  0  0  0  0  0
   -8.5212    3.3192   24.2408 H   0  0  0  0  0  0  0  0  0  0  0  0
   -9.8541    1.6536   22.9546 H   0  0  0  0  0  0  0  0  0  0  0  0
   -9.0300    0.4500   20.1100 H   0  0  0  0  0  0  0  0  0  0  0  0
   -6.3755    0.6560   20.6055 H   0  0  0  0  0  0  0  0  0  0  0  0
   -5.0353    2.3200   21.8870 H   0  0  0  0  0  0  0  0  0  0  0  0
   -4.6707    5.6410   23.7465 H   0  0  0  0  0  0  0  0  0  0  0  0
   -4.5214    5.6630   21.4676 H   0  0  0  0  0  0  0  0  0  0  0  0
   -5.8635    4.5245   21.2998 H   0  0  0  0  0  0  0  0  0  0  0  0
   -5.9055    7.5716   21.3729 H   0  0  0  0  0  0  0  0  0  0  0  0
   -6.8850    6.5075   20.3755 H   0  0  0  0  0  0  0  0  0  0  0  0
   -8.0394    7.6140   22.5110 H   0  0  0  0  0  0  0  0  0  0  0  0
   -8.3319    5.9024   22.3019 H   0  0  0  0  0  0  0  0  0  0  0  0
   -6.2957    7.3218   24.1159 H   0  0  0  0  0  0  0  0  0  0  0  0
  1  2  1  0
  2  3  1  0
  3  4  1  0
  4  5  2  0
  5  6  1  0
  6  7  1  0
  6  8  2  0
  8  9  1  0
  9 10  2  0
 10 11  1  0
 11 12  1  0
 12 13  1  0
 13 14  2  0
 14 15  1  0
 15 16  2  0
 16 17  1  0
 16 18  1  0
 18 19  2  0
 12 20  1  0
 20 21  1  0
 21 22  1  0
 22 23  1  0
 23 24  1  0
 10  4  1  0
 19 13  1  0
 24 20  1  0
 24  9  1  0
  1 25  1  0
  1 26  1  0
  1 27  1  0
  3 28  1  0
  3 29  1  0
  5 30  1  0
  7 31  1  0
  8 32  1  0
 12 33  1  1
 14 34  1  0
 15 35  1  0
 17 36  1  0
 18 37  1  0
 19 38  1  0
 20 39  1  1
 21 40  1  0
 21 41  1  0
 22 42  1  0
 22 43  1  0
 23 44  1  0
 23 45  1  0
 24 46  1  1
M  END
>  <meeko>  (3) 
{"is_sidechain": [false], "free_energy": -7.563, "intermolecular_energy": -9.637, "internal_energy": -0.611}

$$$$
2qe4_ligand
     RDKit          3D

 46 49  0  0  0  0  0  0  0  0999 V2000
   -5.5520    3.4890   21.0860 C   0  0  0  0  0  0  0  0  0  0  0  0
   -5.8440    2.1100   21.2630 O   0  0  0  0  0  0  0  0  0  0  0  0
   -5.7220    1.7230   22.6340 C   0  0  0  0  0  0  0  0  0  0  0  0
   -6.9680    2.0480   23.4280 C   0  0  0  0  0  0  0  0  0  0  0  0
   -8.1710    1.3570   23.2270 C   0  0  0  0  0  0  0  0  0  0  0  0
   -9.3030    1.6940   23.9580 C   0  0  0  0  0  0  0  0  0  0  0  0
  -10.4450    0.9850   23.7260 O   0  0  0  0  0  0  0  0  0  0  0  0
   -9.2660    2.7160   24.8990 C   0  0  0  0  0  0  0  0  0  0  0  0
   -8.0790    3.4340   25.1110 C   0  0  0  0  0  0  0  0  0  0  0  0
   -6.9400    3.0980   24.3660 C   0  0  0  0  0  0  0  0  0  0  0  0
   -5.7460    3.7570   24.5040 O   0  0  0  0  0  0  0  0  0  0  0  0
   -5.8090    5.1060   24.9940 C   0  0  1  0  0  0  0  0  0  0  0  0
   -5.9930    6.0960   23.8470 C   0  0  0  0  0  0  0  0  0  0  0  0
   -7.1130    6.0920   23.0040 C   0  0  0  0  0  0  0  0  0  0  0  0
   -7.2400    7.0260   21.9710 C   0  0  0  0  0  0  0  0  0  0  0  0
   -6.2460    7.9710   21.7670 C   0  0  0  0  0  0  0  0  0  0  0  0
   -6.4120    8.8620   20.7480 O   0  0  0  0  0  0  0  0  0  0  0  0
   -5.1200    7.9990   22.5790 C   0  0  0  0  0  0  0  0  0  0  0  0
   -4.9950    7.0650   23.6110 C   0  0  0  0  0  0  0  0  0  0  0  0
   -6.6890    5.2410   26.2500 C   0  0  1  0  0  0  0  0  0  0  0  0
   -7.0250    6.6770   26.6880 C   0  0  0  0  0  0  0  0  0  0  0  0
   -8.5150    6.6680   27.0050 C   0  0  0  0  0  0  0  0  0  0  0  0
   -9.0790    5.5950   26.0870 C   0  0  0  0  0  0  0  0  0  0  0  0
   -8.0240    4.4900   26.1730 C   0  0  1  0  0  0  0  0  0  0  0  0
   -5.4499    3.9713   22.0693 H   0  0  0  0  0  0  0  0  0  0  0  0
   -4.6114    3.5957   20.5258 H   0  0  0  0  0  0  0  0  0  0  0  0
   -6.3687    3.9678   20.5258 H   0  0  0  0  0  0  0  0  0  0  0  0
   -5.5429    0.6387   22.6823 H   0  0  0  0  0  0  0  0  0  0  0  0
   -4.8839    2.2848   23.0722 H   0  0  0  0  0  0  0  0  0  0  0  0
   -8.2187    0.5444   22.4872 H   0  0  0  0  0  0  0  0  0  0  0  0
  -10.2670    0.3190   23.0430 H   0  0  0  0  0  0  0  0  0  0  0  0
  -10.1681    2.9624   25.4783 H   0  0  0  0  0  0  0  0  0  0  0  0
   -4.8367    5.4100   25.4090 H   0  0  0  0  0  0  0  0  0  0  0  0
   -7.9038    5.3429   23.1574 H   0  0  0  0  0  0  0  0  0  0  0  0
   -8.1273    7.0110   21.3211 H   0  0  0  0  0  0  0  0  0  0  0  0
   -6.1440    8.4370   19.9180 H   0  0  0  0  0  0  0  0  0  0  0  0
   -4.3335    8.7496   22.4115 H   0  0  0  0  0  0  0  0  0  0  0  0
   -4.1011    7.0857   24.2518 H   0  0  0  0  0  0  0  0  0  0  0  0
   -6.0241    4.7833   26.9973 H   0  0  0  0  0  0  0  0  0  0  0  0
   -6.4438    6.9526   27.5803 H   0  0  0  0  0  0  0  0  0  0  0  0
   -6.7787    7.4103   25.9059 H   0  0  0  0  0  0  0  0  0  0  0  0
   -8.6888    6.4108   28.0603 H   0  0  0  0  0  0  0  0  0  0  0  0
   -8.9871    7.6493   26.8499 H   0  0  0  0  0  0  0  0  0  0  0  0
  -10.0561    5.2393   26.4460 H   0  0  0  0  0  0  0  0  0  0  0  0
   -9.2581    5.9485   25.0609 H   0  0  0  0  0  0  0  0  0  0  0  0
   -8.2027    3.8618   27.0581 H   0  0  0  0  0  0  0  0  0  0  0  0
  1  2  1  0
  2  3  1  0
  3  4  1  0
  4  5  2  0
  5  6  1  0
  6  7  1  0
  6  8  2  0
  8  9  1  0
  9 10  2  0
 10 11  1  0
 11 12  1  0
 12 13  1  0
 13 14  2  0
 14 15  1  0
 15 16  2  0
 16 17  1  0
 16 18  1  0
 18 19  2  0
 12 20  1  0
 20 21  1  0
 21 22  1  0
 22 23  1  0
 23 24  1  0
 10  4  1  0
 19 13  1  0
 24 20  1  0
 24  9  1  0
  1 25  1  0
  1 26  1  0
  1 27  1  0
  3 28  1  0
  3 29  1  0
  5 30  1  0
  7 31  1  0
  8 32  1  0
 12 33  1  1
 14 34  1  0
 15 35  1  0
 17 36  1  0
 18 37  1  0
 19 38  1  0
 20 39  1  1
 21 40  1  0
 21 41  1  0
 22 42  1  0
 22 43  1  0
 23 44  1  0
 23 45  1  0
 24 46  1  1
M  END
>  <meeko>  (4) 
{"is_sidechain": [false], "free_energy": -7.144, "intermolecular_energy": -8.821, "internal_energy": -0.91}

$$$$
2qe4_ligand
     RDKit          3D

 46 49  0  0  0  0  0  0  0  0999 V2000
   -8.6830    1.2660   23.4550 C   0  0  0  0  0  0  0  0  0  0  0  0
   -7.7180    2.3080   23.4940 O   0  0  0  0  0  0  0  0  0  0  0  0
   -6.7530    2.0880   24.5260 C   0  0  0  0  0  0  0  0  0  0  0  0
   -6.9190    3.0590   25.6740 C   0  0  0  0  0  0  0  0  0  0  0  0
   -7.8370    2.8290   26.7070 C   0  0  0  0  0  0  0  0  0  0  0  0
   -7.9800    3.7500   27.7360 C   0  0  0  0  0  0  0  0  0  0  0  0
   -8.8840    3.4720   28.7190 O   0  0  0  0  0  0  0  0  0  0  0  0
   -7.2200    4.9130   27.7620 C   0  0  0  0  0  0  0  0  0  0  0  0
   -6.3030    5.1780   26.7330 C   0  0  0  0  0  0  0  0  0  0  0  0
   -6.1660    4.2490   25.6910 C   0  0  0  0  0  0  0  0  0  0  0  0
   -5.3030    4.4370   24.6430 O   0  0  0  0  0  0  0  0  0  0  0  0
   -4.9540    5.7960   24.3330 C   0  0  1  0  0  0  0  0  0  0  0  0
   -5.9540    6.4080   23.3560 C   0  0  0  0  0  0  0  0  0  0  0  0
   -7.3430    6.3330   23.5350 C   0  0  0  0  0  0  0  0  0  0  0  0
   -8.2190    6.9170   22.6160 C   0  0  0  0  0  0  0  0  0  0  0  0
   -7.7170    7.5800   21.5060 C   0  0  0  0  0  0  0  0  0  0  0  0
   -8.6090    8.1350   20.6370 O   0  0  0  0  0  0  0  0  0  0  0  0
   -6.3480    7.6680   21.2950 C   0  0  0  0  0  0  0  0  0  0  0  0
   -5.4730    7.0830   22.2150 C   0  0  0  0  0  0  0  0  0  0  0  0
   -4.5320    6.5990   25.5770 C   0  0  1  0  0  0  0  0  0  0  0  0
   -4.3940    8.1190   25.3850 C   0  0  0  0  0  0  0  0  0  0  0  0
   -5.0870    8.7460   26.5880 C   0  0  0  0  0  0  0  0  0  0  0  0
   -6.1610    7.7370   26.9600 C   0  0  0  0  0  0  0  0  0  0  0  0
   -5.4370    6.3990   26.7980 C   0  0  1  0  0  0  0  0  0  0  0  0
   -8.9514    0.9762   24.4816 H   0  0  0  0  0  0  0  0  0  0  0  0
   -9.5813    1.6178   22.9266 H   0  0  0  0  0  0  0  0  0  0  0  0
   -8.2634    0.3973   22.9266 H   0  0  0  0  0  0  0  0  0  0  0  0
   -6.8693    1.0631   24.9082 H   0  0  0  0  0  0  0  0  0  0  0  0
   -5.7530    2.2407   24.0940 H   0  0  0  0  0  0  0  0  0  0  0  0
   -8.4476    1.9140   26.7028 H   0  0  0  0  0  0  0  0  0  0  0  0
   -9.0540    4.2820   29.2260 H   0  0  0  0  0  0  0  0  0  0  0  0
   -7.3372    5.6271   28.5904 H   0  0  0  0  0  0  0  0  0  0  0  0
   -4.0173    5.8308   23.7573 H   0  0  0  0  0  0  0  0  0  0  0  0
   -7.7488    5.8068   24.4116 H   0  0  0  0  0  0  0  0  0  0  0  0
   -9.3058    6.8509   22.7728 H   0  0  0  0  0  0  0  0  0  0  0  0
   -8.8370    9.0240   20.9520 H   0  0  0  0  0  0  0  0  0  0  0  0
   -5.9551    8.1932   20.4120 H   0  0  0  0  0  0  0  0  0  0  0  0
   -4.3882    7.1505   22.0457 H   0  0  0  0  0  0  0  0  0  0  0  0
   -3.5358    6.1668   25.7523 H   0  0  0  0  0  0  0  0  0  0  0  0
   -3.3331    8.4084   25.3586 H   0  0  0  0  0  0  0  0  0  0  0  0
   -4.8410    8.4527   24.4369 H   0  0  0  0  0  0  0  0  0  0  0  0
   -4.3787    8.8871   27.4177 H   0  0  0  0  0  0  0  0  0  0  0  0
   -5.4993    9.7418   26.3679 H   0  0  0  0  0  0  0  0  0  0  0  0
   -6.4992    7.8819   27.9966 H   0  0  0  0  0  0  0  0  0  0  0  0
   -7.0688    7.8192   26.3442 H   0  0  0  0  0  0  0  0  0  0  0  0
   -4.8657    6.1633   27.7080 H   0  0  0  0  0  0  0  0  0  0  0  0
  1  2  1  0
  2  3  1  0
  3  4  1  0
  4  5  2  0
  5  6  1  0
  6  7  1  0
  6  8  2  0
  8  9  1  0
  9 10  2  0
 10 11  1  0
 11 12  1  0
 12 13  1  0
 13 14  2  0
 14 15  1  0
 15 16  2  0
 16 17  1  0
 16 18  1  0
 18 19  2  0
 12 20  1  0
 20 21  1  0
 21 22  1  0
 22 23  1  0
 23 24  1  0
 10  4  1  0
 19 13  1  0
 24 20  1  0
 24  9  1  0
  1 25  1  0
  1 26  1  0
  1 27  1  0
  3 28  1  0
  3 29  1  0
  5 30  1  0
  7 31  1  0
  8 32  1  0
 12 33  1  6
 14 34  1  0
 15 35  1  0
 17 36  1  0
 18 37  1  0
 19 38  1  0
 20 39  1  1
 21 40  1  0
 21 41  1  0
 22 42  1  0
 22 43  1  0
 23 44  1  0
 23 45  1  0
 24 46  1  1
M  END
>  <meeko>  (5) 
{"is_sidechain": [false], "free_energy": -6.651, "intermolecular_energy": -8.35, "internal_energy": -0.773}

$$$$
2qe4_ligand
     RDKit          3D

 46 49  0  0  0  0  0  0  0  0999 V2000
   -5.1980    7.8110   26.3960 C   0  0  0  0  0  0  0  0  0  0  0  0
   -4.4400    8.0750   25.2240 O   0  0  0  0  0  0  0  0  0  0  0  0
   -4.2870    6.8990   24.4250 C   0  0  0  0  0  0  0  0  0  0  0  0
   -5.5310    6.5940   23.6210 C   0  0  0  0  0  0  0  0  0  0  0  0
   -6.1610    7.5720   22.8390 C   0  0  0  0  0  0  0  0  0  0  0  0
   -7.3140    7.2650   22.1280 C   0  0  0  0  0  0  0  0  0  0  0  0
   -7.8820    8.2530   21.3780 O   0  0  0  0  0  0  0  0  0  0  0  0
   -7.8650    5.9900   22.1780 C   0  0  0  0  0  0  0  0  0  0  0  0
   -7.2640    4.9940   22.9640 C   0  0  0  0  0  0  0  0  0  0  0  0
   -6.1040    5.3090   23.6870 C   0  0  0  0  0  0  0  0  0  0  0  0
   -5.4630    4.3990   24.4870 O   0  0  0  0  0  0  0  0  0  0  0  0
   -6.2620    3.3230   25.0050 C   0  0  1  0  0  0  0  0  0  0  0  0
   -6.9210    3.7160   26.3240 C   0  0  0  0  0  0  0  0  0  0  0  0
   -7.5760    4.9410   26.5170 C   0  0  0  0  0  0  0  0  0  0  0  0
   -8.1730    5.2530   27.7420 C   0  0  0  0  0  0  0  0  0  0  0  0
   -8.1170    4.3450   28.7900 C   0  0  0  0  0  0  0  0  0  0  0  0
   -8.7130    4.6910   29.9660 O   0  0  0  0  0  0  0  0  0  0  0  0
   -7.4710    3.1270   28.6350 C   0  0  0  0  0  0  0  0  0  0  0  0
   -6.8750    2.8160   27.4080 C   0  0  0  0  0  0  0  0  0  0  0  0
   -7.1090    2.6370   23.9180 C   0  0  1  0  0  0  0  0  0  0  0  0
   -8.1830    1.6550   24.4180 C   0  0  0  0  0  0  0  0  0  0  0  0
   -9.4380    1.9810   23.6180 C   0  0  0  0  0  0  0  0  0  0  0  0
   -9.3030    3.4650   23.3140 C   0  0  0  0  0  0  0  0  0  0  0  0
   -7.8200    3.6040   22.9630 C   0  0  1  0  0  0  0  0  0  0  0  0
   -4.5856    8.0243   27.2845 H   0  0  0  0  0  0  0  0  0  0  0  0
   -6.0931    8.4503   26.4055 H   0  0  0  0  0  0  0  0  0  0  0  0
   -5.5023    6.7540   26.4055 H   0  0  0  0  0  0  0  0  0  0  0  0
   -3.4446    7.0468   23.7333 H   0  0  0  0  0  0  0  0  0  0  0  0
   -4.1031    6.0508   25.1009 H   0  0  0  0  0  0  0  0  0  0  0  0
   -5.7404    8.5871   22.7882 H   0  0  0  0  0  0  0  0  0  0  0  0
   -8.7260    7.9310   21.0240 H   0  0  0  0  0  0  0  0  0  0  0  0
   -8.7731    5.7610   21.6010 H   0  0  0  0  0  0  0  0  0  0  0  0
   -5.6224    2.4811   25.3087 H   0  0  0  0  0  0  0  0  0  0  0  0
   -7.6207    5.6673   25.6921 H   0  0  0  0  0  0  0  0  0  0  0  0
   -8.6863    6.2167   27.8750 H   0  0  0  0  0  0  0  0  0  0  0  0
   -9.3530    4.0020   30.2040 H   0  0  0  0  0  0  0  0  0  0  0  0
   -7.4278    2.4119   29.4697 H   0  0  0  0  0  0  0  0  0  0  0  0
   -6.3609    1.8511   27.2869 H   0  0  0  0  0  0  0  0  0  0  0  0
   -6.3232    2.0741   23.3929 H   0  0  0  0  0  0  0  0  0  0  0  0
   -7.8694    0.6167   24.2348 H   0  0  0  0  0  0  0  0  0  0  0  0
   -8.3526    1.7528   25.5004 H   0  0  0  0  0  0  0  0  0  0  0  0
   -9.4737    1.3929   22.6891 H   0  0  0  0  0  0  0  0  0  0  0  0
  -10.3628    1.7422   24.1637 H   0  0  0  0  0  0  0  0  0  0  0  0
   -9.9401    3.7555   22.4657 H   0  0  0  0  0  0  0  0  0  0  0  0
   -9.6164    4.1111   24.1473 H   0  0  0  0  0  0  0  0  0  0  0  0
   -7.6538    3.3472   21.9064 H   0  0  0  0  0  0  0  0  0  0  0  0
  1  2  1  0
  2  3  1  0
  3  4  1  0
  4  5  2  0
  5  6  1  0
  6  7  1  0
  6  8  2  0
  8  9  1  0
  9 10  2  0
 10 11  1  0
 11 12  1  0
 12 13  1  0
 13 14  2  0
 14 15  1  0
 15 16  2  0
 16 17  1  0
 16 18  1  0
 18 19  2  0
 12 20  1  0
 20 21  1  0
 21 22  1  0
 22 23  1  0
 23 24  1  0
 10  4  1  0
 19 13  1  0
 24 20  1  0
 24  9  1  0
  1 25  1  0
  1 26  1  0
  1 27  1  0
  3 28  1  0
  3 29  1  0
  5 30  1  0
  7 31  1  0
  8 32  1  0
 12 33  1  1
 14 34  1  0
 15 35  1  0
 17 36  1  0
 18 37  1  0
 19 38  1  0
 20 39  1  6
 21 40  1  0
 21 41  1  0
 22 42  1  0
 22 43  1  0
 23 44  1  0
 23 45  1  0
 24 46  1  6
M  END
>  <meeko>  (6) 
{"is_sidechain": [false], "free_energy": -6.47, "intermolecular_energy": -8.085, "internal_energy": -0.815}

$$$$
2qe4_ligand
     RDKit          3D

 46 49  0  0  0  0  0  0  0  0999 V2000
   -9.0550    0.7130   24.0640 C   0  0  0  0  0  0  0  0  0  0  0  0
  -10.1120    1.2650   23.2910 O   0  0  0  0  0  0  0  0  0  0  0  0
   -9.9140    2.6610   23.0580 C   0  0  0  0  0  0  0  0  0  0  0  0
   -8.4620    2.9920   22.7950 C   0  0  0  0  0  0  0  0  0  0  0  0
   -7.6410    2.1500   22.0310 C   0  0  0  0  0  0  0  0  0  0  0  0
   -6.3060    2.4720   21.8250 C   0  0  0  0  0  0  0  0  0  0  0  0
   -5.5550    1.6200   21.0690 O   0  0  0  0  0  0  0  0  0  0  0  0
   -5.7590    3.6280   22.3680 C   0  0  0  0  0  0  0  0  0  0  0  0
   -6.5530    4.4830   23.1490 C   0  0  0  0  0  0  0  0  0  0  0  0
   -7.8990    4.1510   23.3620 C   0  0  0  0  0  0  0  0  0  0  0  0
   -8.7390    4.9250   24.1220 O   0  0  0  0  0  0  0  0  0  0  0  0
   -8.1220    5.7520   25.1200 C   0  0  1  0  0  0  0  0  0  0  0  0
   -7.9600    4.9950   26.4350 C   0  0  0  0  0  0  0  0  0  0  0  0
   -8.4150    5.4910   27.6650 C   0  0  0  0  0  0  0  0  0  0  0  0
   -8.2510    4.7550   28.8430 C   0  0  0  0  0  0  0  0  0  0  0  0
   -7.6250    3.5180   28.8050 C   0  0  0  0  0  0  0  0  0  0  0  0
   -7.4860    2.8360   29.9770 O   0  0  0  0  0  0  0  0  0  0  0  0
   -7.1560    3.0010   27.6050 C   0  0  0  0  0  0  0  0  0  0  0  0
   -7.3220    3.7370   26.4280 C   0  0  0  0  0  0  0  0  0  0  0  0
   -6.9350    6.5630   24.5700 C   0  0  1  0  0  0  0  0  0  0  0  0
   -6.0580    7.2720   25.6160 C   0  0  0  0  0  0  0  0  0  0  0  0
   -4.6190    6.9900   25.2000 C   0  0  0  0  0  0  0  0  0  0  0  0
   -4.6970    5.6410   24.5030 C   0  0  0  0  0  0  0  0  0  0  0  0
   -5.9790    5.7620   23.6770 C   0  0  1  0  0  0  0  0  0  0  0  0
   -9.2823    0.8317   25.1337 H   0  0  0  0  0  0  0  0  0  0  0  0
   -8.9480   -0.3561   23.8283 H   0  0  0  0  0  0  0  0  0  0  0  0
   -8.1165    1.2361   23.8283 H   0  0  0  0  0  0  0  0  0  0  0  0
  -10.5108    2.9633   22.1848 H   0  0  0  0  0  0  0  0  0  0  0  0
  -10.2275    3.2038   23.9620 H   0  0  0  0  0  0  0  0  0  0  0  0
   -8.0564    1.2304   21.5930 H   0  0  0  0  0  0  0  0  0  0  0  0
   -5.5650    0.7430   21.4830 H   0  0  0  0  0  0  0  0  0  0  0  0
   -4.7024    3.8737   22.1858 H   0  0  0  0  0  0  0  0  0  0  0  0
   -8.7956    6.5728   25.4072 H   0  0  0  0  0  0  0  0  0  0  0  0
   -8.9082    6.4735   27.7041 H   0  0  0  0  0  0  0  0  0  0  0  0
   -8.6182    5.1569   29.7988 H   0  0  0  0  0  0  0  0  0  0  0  0
   -8.3540    2.4900   30.2380 H   0  0  0  0  0  0  0  0  0  0  0  0
   -6.6580    2.0205   27.5804 H   0  0  0  0  0  0  0  0  0  0  0  0
   -6.9479    3.3272   25.4782 H   0  0  0  0  0  0  0  0  0  0  0  0
   -7.4781    7.3195   23.9845 H   0  0  0  0  0  0  0  0  0  0  0  0
   -6.2542    8.3544   25.6121 H   0  0  0  0  0  0  0  0  0  0  0  0
   -6.2662    6.9121   26.6344 H   0  0  0  0  0  0  0  0  0  0  0  0
   -4.2516    7.7654   24.5117 H   0  0  0  0  0  0  0  0  0  0  0  0
   -3.9239    6.9872   26.0526 H   0  0  0  0  0  0  0  0  0  0  0  0
   -3.8224    5.4777   23.8561 H   0  0  0  0  0  0  0  0  0  0  0  0
   -4.7057    4.7899   25.1998 H   0  0  0  0  0  0  0  0  0  0  0  0
   -5.7705    6.2705   22.7241 H   0  0  0  0  0  0  0  0  0  0  0  0
  1  2  1  0
  2  3  1  0
  3  4  1  0
  4  5  2  0
  5  6  1  0
  6  7  1  0
  6  8  2  0
  8  9  1  0
  9 10  2  0
 10 11  1  0
 11 12  1  0
 12 13  1  0
 13 14  2  0
 14 15  1  0
 15 16  2  0
 16 17  1  0
 16 18  1  0
 18 19  2  0
 12 20  1  0
 20 21  1  0
 21 22  1  0
 22 23  1  0
 23 24  1  0
 10  4  1  0
 19 13  1  0
 24 20  1  0
 24  9  1  0
  1 25  1  0
  1 26  1  0
  1 27  1  0
  3 28  1  0
  3 29  1  0
  5 30  1  0
  7 31  1  0
  8 32  1  0
 12 33  1  1
 14 34  1  0
 15 35  1  0
 17 36  1  0
 18 37  1  0
 19 38  1  0
 20 39  1  6
 21 40  1  0
 21 41  1  0
 22 42  1  0
 22 43  1  0
 23 44  1  0
 23 45  1  0
 24 46  1  6
M  END
>  <meeko>  (7) 
{"is_sidechain": [false], "free_energy": -6.464, "intermolecular_energy": -8.925, "internal_energy": 0.032}

$$$$
2qe4_ligand
     RDKit          3D

 46 49  0  0  0  0  0  0  0  0999 V2000
   -7.4870    7.7660   26.9090 C   0  0  0  0  0  0  0  0  0  0  0  0
   -8.5320    7.3530   27.7780 O   0  0  0  0  0  0  0  0  0  0  0  0
   -9.3900    6.4000   27.1450 C   0  0  0  0  0  0  0  0  0  0  0  0
   -8.7370    5.0410   27.0230 C   0  0  0  0  0  0  0  0  0  0  0  0
   -8.4550    4.2550   28.1480 C   0  0  0  0  0  0  0  0  0  0  0  0
   -7.8360    3.0210   28.0030 C   0  0  0  0  0  0  0  0  0  0  0  0
   -7.5910    2.2940   29.1320 O   0  0  0  0  0  0  0  0  0  0  0  0
   -7.4840    2.5420   26.7460 C   0  0  0  0  0  0  0  0  0  0  0  0
   -7.7400    3.3140   25.6030 C   0  0  0  0  0  0  0  0  0  0  0  0
   -8.3590    4.5640   25.7520 C   0  0  0  0  0  0  0  0  0  0  0  0
   -8.6330    5.3850   24.6890 O   0  0  0  0  0  0  0  0  0  0  0  0
   -7.8150    5.2170   23.5200 C   0  0  1  0  0  0  0  0  0  0  0  0
   -6.5590    6.0790   23.6020 C   0  0  0  0  0  0  0  0  0  0  0  0
   -6.3750    7.2380   22.8350 C   0  0  0  0  0  0  0  0  0  0  0  0
   -5.2090    8.0010   22.9510 C   0  0  0  0  0  0  0  0  0  0  0  0
   -4.2120    7.6110   23.8330 C   0  0  0  0  0  0  0  0  0  0  0  0
   -3.0930    8.3840   23.9130 O   0  0  0  0  0  0  0  0  0  0  0  0
   -4.3590    6.4640   24.6020 C   0  0  0  0  0  0  0  0  0  0  0  0
   -5.5260    5.7040   24.4850 C   0  0  0  0  0  0  0  0  0  0  0  0
   -7.6880    3.7440   23.0920 C   0  0  1  0  0  0  0  0  0  0  0  0
   -6.6300    3.4420   22.0160 C   0  0  0  0  0  0  0  0  0  0  0  0
   -5.8910    2.2030   22.5070 C   0  0  0  0  0  0  0  0  0  0  0  0
   -5.9820    2.3000   24.0220 C   0  0  0  0  0  0  0  0  0  0  0  0
   -7.4210    2.7680   24.2450 C   0  0  1  0  0  0  0  0  0  0  0  0
   -6.6272    8.1058   27.5051 H   0  0  0  0  0  0  0  0  0  0  0  0
   -7.1822    6.9207   26.2745 H   0  0  0  0  0  0  0  0  0  0  0  0
   -7.8424    8.5913   26.2745 H   0  0  0  0  0  0  0  0  0  0  0  0
  -10.3095    6.2998   27.7404 H   0  0  0  0  0  0  0  0  0  0  0  0
   -9.6099    6.7630   26.1302 H   0  0  0  0  0  0  0  0  0  0  0  0
   -8.7253    4.6174   29.1508 H   0  0  0  0  0  0  0  0  0  0  0  0
   -7.9720    2.7610   29.8930 H   0  0  0  0  0  0  0  0  0  0  0  0
   -7.0044    1.5569   26.6478 H   0  0  0  0  0  0  0  0  0  0  0  0
   -8.3204    5.6301   22.6346 H   0  0  0  0  0  0  0  0  0  0  0  0
   -7.1599    7.5519   22.1312 H   0  0  0  0  0  0  0  0  0  0  0  0
   -5.0825    8.9093   22.3436 H   0  0  0  0  0  0  0  0  0  0  0  0
   -2.4870    7.9870   24.5590 H   0  0  0  0  0  0  0  0  0  0  0  0
   -3.5639    6.1564   25.2971 H   0  0  0  0  0  0  0  0  0  0  0  0
   -5.6408    4.7952   25.0940 H   0  0  0  0  0  0  0  0  0  0  0  0
   -8.6898    3.5838   22.6670 H   0  0  0  0  0  0  0  0  0  0  0  0
   -7.1125    3.2431   21.0477 H   0  0  0  0  0  0  0  0  0  0  0  0
   -5.9472    4.2913   21.8658 H   0  0  0  0  0  0  0  0  0  0  0  0
   -6.3787    1.2865   22.1434 H   0  0  0  0  0  0  0  0  0  0  0  0
   -4.8529    2.1571   22.1462 H   0  0  0  0  0  0  0  0  0  0  0  0
   -5.8059    1.3217   24.4931 H   0  0  0  0  0  0  0  0  0  0  0  0
   -5.2316    2.9737   24.4614 H   0  0  0  0  0  0  0  0  0  0  0  0
   -8.1066    1.9079   24.2337 H   0  0  0  0  0  0  0  0  0  0  0  0
  1  2  1  0
  2  3  1  0
  3  4  1  0
  4  5  2  0
  5  6  1  0
  6  7  1  0
  6  8  2  0
  8  9  1  0
  9 10  2  0
 10 11  1  0
 11 12  1  0
 12 13  1  0
 13 14  2  0
 14 15  1  0
 15 16  2  0
 16 17  1  0
 16 18  1  0
 18 19  2  0
 12 20  1  0
 20 21  1  0
 21 22  1  0
 22 23  1  0
 23 24  1  0
 10  4  1  0
 19 13  1  0
 24 20  1  0
 24  9  1  0
  1 25  1  0
  1 26  1  0
  1 27  1  0
  3 28  1  0
  3 29  1  0
  5 30  1  0
  7 31  1  0
  8 32  1  0
 12 33  1  6
 14 34  1  0
 15 35  1  0
 17 36  1  0
 18 37  1  0
 19 38  1  0
 20 39  1  6
 21 40  1  0
 21 41  1  0
 22 42  1  0
 22 43  1  0
 23 44  1  0
 23 45  1  0
 24 46  1  6
M  END
>  <meeko>  (8) 
{"is_sidechain": [false], "free_energy": -5.901, "intermolecular_energy": -7.493, "internal_energy": -0.705}

$$$$
2qe4_ligand
     RDKit          3D

 46 49  0  0  0  0  0  0  0  0999 V2000
   -5.5750    7.8980   26.7530 C   0  0  0  0  0  0  0  0  0  0  0  0
   -5.6040    8.6430   25.5440 O   0  0  0  0  0  0  0  0  0  0  0  0
   -4.5990    8.1960   24.6310 C   0  0  0  0  0  0  0  0  0  0  0  0
   -5.1970    7.6040   23.3740 C   0  0  0  0  0  0  0  0  0  0  0  0
   -5.7750    8.4100   22.3830 C   0  0  0  0  0  0  0  0  0  0  0  0
   -6.3350    7.8340   21.2500 C   0  0  0  0  0  0  0  0  0  0  0  0
   -6.8790    8.6660   20.3150 O   0  0  0  0  0  0  0  0  0  0  0  0
   -6.3330    6.4550   21.0760 C   0  0  0  0  0  0  0  0  0  0  0  0
   -5.7740    5.6230   22.0580 C   0  0  0  0  0  0  0  0  0  0  0  0
   -5.2160    6.2060   23.2050 C   0  0  0  0  0  0  0  0  0  0  0  0
   -4.6620    5.4650   24.2160 O   0  0  0  0  0  0  0  0  0  0  0  0
   -5.1310    4.1150   24.3540 C   0  0  1  0  0  0  0  0  0  0  0  0
   -6.3600    4.0520   25.2560 C   0  0  0  0  0  0  0  0  0  0  0  0
   -7.6270    4.5020   24.8560 C   0  0  0  0  0  0  0  0  0  0  0  0
   -8.7260    4.4160   25.7150 C   0  0  0  0  0  0  0  0  0  0  0  0
   -8.5700    3.8840   26.9870 C   0  0  0  0  0  0  0  0  0  0  0  0
   -9.6690    3.8190   27.7910 O   0  0  0  0  0  0  0  0  0  0  0  0
   -7.3290    3.4360   27.4180 C   0  0  0  0  0  0  0  0  0  0  0  0
   -6.2310    3.5220   26.5560 C   0  0  0  0  0  0  0  0  0  0  0  0
   -5.1410    3.3490   23.0190 C   0  0  1  0  0  0  0  0  0  0  0  0
   -5.8670    1.9930   23.0220 C   0  0  0  0  0  0  0  0  0  0  0  0
   -6.7140    1.9810   21.7560 C   0  0  0  0  0  0  0  0  0  0  0  0
   -7.0390    3.4480   21.5190 C   0  0  0  0  0  0  0  0  0  0  0  0
   -5.7130    4.1420   21.8370 C   0  0  1  0  0  0  0  0  0  0  0  0
   -5.6018    8.5878   27.6095 H   0  0  0  0  0  0  0  0  0  0  0  0
   -6.4478    7.2297   26.7929 H   0  0  0  0  0  0  0  0  0  0  0  0
   -4.6529    7.2996   26.7929 H   0  0  0  0  0  0  0  0  0  0  0  0
   -3.9654    9.0514   24.3539 H   0  0  0  0  0  0  0  0  0  0  0  0
   -4.0122    7.4108   25.1300 H   0  0  0  0  0  0  0  0  0  0  0  0
   -5.7850    9.5033   22.5034 H   0  0  0  0  0  0  0  0  0  0  0  0
   -7.5560    9.2150   20.7410 H   0  0  0  0  0  0  0  0  0  0  0  0
   -6.7702    6.0153   20.1674 H   0  0  0  0  0  0  0  0  0  0  0  0
   -4.4012    3.5116   24.9138 H   0  0  0  0  0  0  0  0  0  0  0  0
   -7.7575    4.9291   23.8508 H   0  0  0  0  0  0  0  0  0  0  0  0
   -9.7134    4.7696   25.3832 H   0  0  0  0  0  0  0  0  0  0  0  0
   -9.4610    3.2610   28.5570 H   0  0  0  0  0  0  0  0  0  0  0  0
   -7.2102    3.0172   28.4282 H   0  0  0  0  0  0  0  0  0  0  0  0
   -5.2473    3.1691   26.8992 H   0  0  0  0  0  0  0  0  0  0  0  0
   -4.0619    3.1778   22.8919 H   0  0  0  0  0  0  0  0  0  0  0  0
   -5.1399    1.1678   23.0057 H   0  0  0  0  0  0  0  0  0  0  0  0
   -6.4814    1.8615   23.9249 H   0  0  0  0  0  0  0  0  0  0  0  0
   -6.1476    1.5641   20.9102 H   0  0  0  0  0  0  0  0  0  0  0  0
   -7.6149    1.3576   21.8544 H   0  0  0  0  0  0  0  0  0  0  0  0
   -7.3387    3.6243   20.4754 H   0  0  0  0  0  0  0  0  0  0  0  0
   -7.8795    3.8127   22.1277 H   0  0  0  0  0  0  0  0  0  0  0  0
   -5.0517    4.1201   20.9583 H   0  0  0  0  0  0  0  0  0  0  0  0
  1  2  1  0
  2  3  1  0
  3  4  1  0
  4  5  2  0
  5  6  1  0
  6  7  1  0
  6  8  2  0
  8  9  1  0
  9 10  2  0
 10 11  1  0
 11 12  1  0
 12 13  1  0
 13 14  2  0
 14 15  1  0
 15 16  2  0
 16 17  1  0
 16 18  1  0
 18 19  2  0
 12 20  1  0
 20 21  1  0
 21 22  1  0
 22 23  1  0
 23 24  1  0
 10  4  1  0
 19 13  1  0
 24 20  1  0
 24  9  1  0
  1 25  1  0
  1 26  1  0
  1 27  1  0
  3 28  1  0
  3 29  1  0
  5 30  1  0
  7 31  1  0
  8 32  1  0
 12 33  1  1
 14 34  1  0
 15 35  1  0
 17 36  1  0
 18 37  1  0
 19 38  1  0
 20 39  1  6
 21 40  1  0
 21 41  1  0
 22 42  1  0
 22 43  1  0
 23 44  1  0
 23 45  1  0
 24 46  1  6
M  END
>  <meeko>  (9) 
{"is_sidechain": [false], "free_energy": -5.749, "intermolecular_energy": -7.127, "internal_energy": -0.883}

$$$$
