4jxs_ligand
     RDKit          3D

 31 32  0  0  0  0  0  0  0  0999 V2000
   75.5830    3.5370   18.3720 O   0  0  0  0  0  0  0  0  0  0  0  0
   75.1230    4.7230   18.3490 C   0  0  0  0  0  0  0  0  0  0  0  0
   75.1920    5.5610   19.3040 O   0  0  0  0  0  0  0  0  0  0  0  0
   74.4340    5.1750   17.0740 C   0  0  0  0  0  0  0  0  0  0  0  0
   73.5070    6.2300   17.0870 C   0  0  0  0  0  0  0  0  0  0  0  0
   72.8720    6.6470   15.9130 C   0  0  0  0  0  0  0  0  0  0  0  0
   73.1520    6.0220   14.6910 C   0  0  0  0  0  0  0  0  0  0  0  0
   72.4500    6.4630   13.4280 C   0  0  0  0  0  0  0  0  0  0  0  0
   72.1280    7.8920   13.4770 N   0  0  0  0  0  0  0  0  0  0  0  0
   73.2400    8.9370   12.7340 S   0  0  0  0  0  0  0  0  0  0  0  0
   73.5370    8.3440   11.4520 O   0  0  0  0  0  0  0  0  0  0  0  0
   74.2020    9.2390   13.7690 O   0  0  0  0  0  0  0  0  0  0  0  0
   72.4080   10.4350   12.4310 C   0  0  0  0  0  0  0  0  0  0  0  0
   72.1750   10.9460   11.1100 C   0  0  0  0  0  0  0  0  0  0  0  0
   71.5580   12.1780   11.1280 C   0  0  0  0  0  0  0  0  0  0  0  0
   71.2410   12.7100   12.7200 S   0  0  0  0  0  0  0  0  0  0  0  0
   71.8960   11.2810   13.3950 C   0  0  0  0  0  0  0  0  0  0  0  0
   71.8780   10.9850   14.9410 C   0  0  0  0  0  0  0  0  0  0  0  0
   72.7720   11.5550   15.6370 O   0  0  0  0  0  0  0  0  0  0  0  0
   70.9420   10.2440   15.3570 O   0  0  0  0  0  0  0  0  0  0  0  0
   74.0710    4.9650   14.6690 C   0  0  0  0  0  0  0  0  0  0  0  0
   74.7040    4.5500   15.8450 C   0  0  0  0  0  0  0  0  0  0  0  0
   73.2768    6.7364   18.0360 H   0  0  0  0  0  0  0  0  0  0  0  0
   72.1464    7.4729   15.9494 H   0  0  0  0  0  0  0  0  0  0  0  0
   73.1063    6.2716   12.5662 H   0  0  0  0  0  0  0  0  0  0  0  0
   71.5124    5.8958   13.3322 H   0  0  0  0  0  0  0  0  0  0  0  0
   71.1700    8.1360   13.2380 H   0  0  0  0  0  0  0  0  0  0  0  0
   72.4567   10.4149   10.1888 H   0  0  0  0  0  0  0  0  0  0  0  0
   71.3003   12.7506   10.2248 H   0  0  0  0  0  0  0  0  0  0  0  0
   74.2965    4.4575   13.7195 H   0  0  0  0  0  0  0  0  0  0  0  0
   75.4253    3.7204   15.8071 H   0  0  0  0  0  0  0  0  0  0  0  0
  1  2  2  0
  2  3  1  0
  2  4  1  0
  4  5  2  0
  5  6  1  0
  6  7  2  0
  7  8  1  0
  8  9  1  0
  9 10  1  0
 10 11  2  0
 10 12  2  0
 10 13  1  0
 13 14  1  0
 14 15  2  0
 15 16  1  0
 16 17  1  0
 17 18  1  0
 18 19  2  0
 18 20  1  0
  7 21  1  0
 21 22  2  0
 22  4  1  0
 17 13  2  0
  5 23  1  0
  6 24  1  0
  8 25  1  0
  8 26  1  0
  9 27  1  0
 14 28  1  0
 15 29  1  0
 21 30  1  0
 22 31  1  0
M  CHG  2   3  -1  20  -1
M  END
>  <meeko>  (1) 
{"is_sidechain": [false], "free_energy": -7.193, "intermolecular_energy": -9.716, "internal_energy": -0.634}

$$$$
4jxs_ligand
     RDKit          3D

 31 32  0  0  0  0  0  0  0  0999 V2000
   76.7350    4.4680   19.7100 O   0  0  0  0  0  0  0  0  0  0  0  0
   75.7010    4.0380   19.1040 C   0  0  0  0  0  0  0  0  0  0  0  0
   75.2430    2.8540   19.1750 O   0  0  0  0  0  0  0  0  0  0  0  0
   74.9540    5.0220   18.2220 C   0  0  0  0  0  0  0  0  0  0  0  0
   74.4720    6.2350   18.7390 C   0  0  0  0  0  0  0  0  0  0  0  0
   73.7840    7.1430   17.9270 C   0  0  0  0  0  0  0  0  0  0  0  0
   73.5630    6.8610   16.5730 C   0  0  0  0  0  0  0  0  0  0  0  0
   72.8030    7.8350   15.7040 C   0  0  0  0  0  0  0  0  0  0  0  0
   73.6710    8.4060   14.6690 N   0  0  0  0  0  0  0  0  0  0  0  0
   72.9760    8.6020   13.1330 S   0  0  0  0  0  0  0  0  0  0  0  0
   71.5530    8.7070   13.3580 O   0  0  0  0  0  0  0  0  0  0  0  0
   73.6300    7.6120   12.3080 O   0  0  0  0  0  0  0  0  0  0  0  0
   73.5180   10.1390   12.5210 C   0  0  0  0  0  0  0  0  0  0  0  0
   74.3130   10.2700   11.3340 C   0  0  0  0  0  0  0  0  0  0  0  0
   74.6740   11.5770   11.0890 C   0  0  0  0  0  0  0  0  0  0  0  0
   74.0440   12.6440   12.2640 S   0  0  0  0  0  0  0  0  0  0  0  0
   73.2570   11.3700   13.0900 C   0  0  0  0  0  0  0  0  0  0  0  0
   72.3270   11.6100   14.3380 C   0  0  0  0  0  0  0  0  0  0  0  0
   71.1210   11.9170   14.0950 O   0  0  0  0  0  0  0  0  0  0  0  0
   72.8560   11.4250   15.4720 O   0  0  0  0  0  0  0  0  0  0  0  0
   74.0360    5.6510   16.0490 C   0  0  0  0  0  0  0  0  0  0  0  0
   74.7240    4.7460   16.8650 C   0  0  0  0  0  0  0  0  0  0  0  0
   74.6380    6.4753   19.7995 H   0  0  0  0  0  0  0  0  0  0  0  0
   73.4136    8.0860   18.3554 H   0  0  0  0  0  0  0  0  0  0  0  0
   71.9662    7.3089   15.2213 H   0  0  0  0  0  0  0  0  0  0  0  0
   72.4304    8.6528   16.3384 H   0  0  0  0  0  0  0  0  0  0  0  0
   74.2060    9.2260   14.9440 H   0  0  0  0  0  0  0  0  0  0  0  0
   74.6014    9.4239   10.6929 H   0  0  0  0  0  0  0  0  0  0  0  0
   75.2941   11.8952   10.2380 H   0  0  0  0  0  0  0  0  0  0  0  0
   73.8655    5.4107   14.9892 H   0  0  0  0  0  0  0  0  0  0  0  0
   75.0909    3.8020   16.4357 H   0  0  0  0  0  0  0  0  0  0  0  0
  1  2  2  0
  2  3  1  0
  2  4  1  0
  4  5  2  0
  5  6  1  0
  6  7  2  0
  7  8  1  0
  8  9  1  0
  9 10  1  0
 10 11  2  0
 10 12  2  0
 10 13  1  0
 13 14  1  0
 14 15  2  0
 15 16  1  0
 16 17  1  0
 17 18  1  0
 18 19  2  0
 18 20  1  0
  7 21  1  0
 21 22  2  0
 22  4  1  0
 17 13  2  0
  5 23  1  0
  6 24  1  0
  8 25  1  0
  8 26  1  0
  9 27  1  0
 14 28  1  0
 15 29  1  0
 21 30  1  0
 22 31  1  0
M  CHG  2   3  -1  20  -1
M  END
>  <meeko>  (2) 
{"is_sidechain": [false], "free_energy": -7.089, "intermolecular_energy": -9.608, "internal_energy": -0.602}

$$$$
4jxs_ligand
     RDKit          3D

 31 32  0  0  0  0  0  0  0  0999 V2000
   74.7610    4.0300   21.9680 O   0  0  0  0  0  0  0  0  0  0  0  0
   75.0620    5.2640   22.0470 C   0  0  0  0  0  0  0  0  0  0  0  0
   74.5290    6.1990   21.3690 O   0  0  0  0  0  0  0  0  0  0  0  0
   76.1500    5.6510   23.0320 C   0  0  0  0  0  0  0  0  0  0  0  0
   76.5790    6.9830   23.1500 C   0  0  0  0  0  0  0  0  0  0  0  0
   77.5810    7.3410   24.0580 C   0  0  0  0  0  0  0  0  0  0  0  0
   78.1770    6.3740   24.8780 C   0  0  0  0  0  0  0  0  0  0  0  0
   79.2720    6.7600   25.8440 C   0  0  0  0  0  0  0  0  0  0  0  0
   79.0690    6.1280   27.1500 N   0  0  0  0  0  0  0  0  0  0  0  0
   80.1210    4.8540   27.5380 S   0  0  0  0  0  0  0  0  0  0  0  0
   81.1240    4.8450   26.4990 O   0  0  0  0  0  0  0  0  0  0  0  0
   79.2480    3.7530   27.8790 O   0  0  0  0  0  0  0  0  0  0  0  0
   80.9170    5.2840   29.0240 C   0  0  0  0  0  0  0  0  0  0  0  0
   82.3380    5.1890   29.2040 C   0  0  0  0  0  0  0  0  0  0  0  0
   82.7250    5.5200   30.4840 C   0  0  0  0  0  0  0  0  0  0  0  0
   81.3940    5.9630   31.4590 S   0  0  0  0  0  0  0  0  0  0  0  0
   80.2960    5.7470   30.1660 C   0  0  0  0  0  0  0  0  0  0  0  0
   78.7600    6.0720   30.2910 C   0  0  0  0  0  0  0  0  0  0  0  0
   78.0100    5.1250   30.6770 O   0  0  0  0  0  0  0  0  0  0  0  0
   78.4200    7.2650   30.0440 O   0  0  0  0  0  0  0  0  0  0  0  0
   77.7600    5.0410   24.7630 C   0  0  0  0  0  0  0  0  0  0  0  0
   76.7570    4.6870   23.8540 C   0  0  0  0  0  0  0  0  0  0  0  0
   76.1196    7.7574   22.5181 H   0  0  0  0  0  0  0  0  0  0  0  0
   77.9036    8.3902   24.1288 H   0  0  0  0  0  0  0  0  0  0  0  0
   80.2414    6.4381   25.4357 H   0  0  0  0  0  0  0  0  0  0  0  0
   79.2523    7.8518   25.9769 H   0  0  0  0  0  0  0  0  0  0  0  0
   78.9490    6.7650   27.9350 H   0  0  0  0  0  0  0  0  0  0  0  0
   83.0376    4.8866   28.4108 H   0  0  0  0  0  0  0  0  0  0  0  0
   83.7669    5.5013   30.8363 H   0  0  0  0  0  0  0  0  0  0  0  0
   78.2246    4.2674   25.3920 H   0  0  0  0  0  0  0  0  0  0  0  0
   76.4385    3.6366   23.7818 H   0  0  0  0  0  0  0  0  0  0  0  0
  1  2  2  0
  2  3  1  0
  2  4  1  0
  4  5  2  0
  5  6  1  0
  6  7  2  0
  7  8  1  0
  8  9  1  0
  9 10  1  0
 10 11  2  0
 10 12  2  0
 10 13  1  0
 13 14  1  0
 14 15  2  0
 15 16  1  0
 16 17  1  0
 17 18  1  0
 18 19  2  0
 18 20  1  0
  7 21  1  0
 21 22  2  0
 22  4  1  0
 17 13  2  0
  5 23  1  0
  6 24  1  0
  8 25  1  0
  8 26  1  0
  9 27  1  0
 14 28  1  0
 15 29  1  0
 21 30  1  0
 22 31  1  0
M  CHG  2   3  -1  20  -1
M  END
>  <meeko>  (3) 
{"is_sidechain": [false], "free_energy": -7.028, "intermolecular_energy": -9.585, "internal_energy": -0.542}

$$$$
4jxs_ligand
     RDKit          3D

 31 32  0  0  0  0  0  0  0  0999 V2000
   75.8020    4.9610   22.7680 O   0  0  0  0  0  0  0  0  0  0  0  0
   76.4420    5.9450   23.2600 C   0  0  0  0  0  0  0  0  0  0  0  0
   76.3020    7.1630   22.9170 O   0  0  0  0  0  0  0  0  0  0  0  0
   77.4580    5.6400   24.3450 C   0  0  0  0  0  0  0  0  0  0  0  0
   77.6700    4.3250   24.7890 C   0  0  0  0  0  0  0  0  0  0  0  0
   78.6070    4.0430   25.7890 C   0  0  0  0  0  0  0  0  0  0  0  0
   79.3600    5.0720   26.3700 C   0  0  0  0  0  0  0  0  0  0  0  0
   80.3560    4.7660   27.4620 C   0  0  0  0  0  0  0  0  0  0  0  0
   79.6760    4.3850   28.7040 N   0  0  0  0  0  0  0  0  0  0  0  0
   79.3080    5.6480   29.7760 S   0  0  0  0  0  0  0  0  0  0  0  0
   79.5900    5.1360   31.0960 O   0  0  0  0  0  0  0  0  0  0  0  0
   78.0330    6.1520   29.3190 O   0  0  0  0  0  0  0  0  0  0  0  0
   80.4450    6.9290   29.4630 C   0  0  0  0  0  0  0  0  0  0  0  0
   80.0680    8.1790   28.8670 C   0  0  0  0  0  0  0  0  0  0  0  0
   81.1510    9.0050   28.6600 C   0  0  0  0  0  0  0  0  0  0  0  0
   82.6080    8.2940   29.1960 S   0  0  0  0  0  0  0  0  0  0  0  0
   81.7970    6.8910   29.7400 C   0  0  0  0  0  0  0  0  0  0  0  0
   82.5340    5.7180   30.4900 C   0  0  0  0  0  0  0  0  0  0  0  0
   82.7230    5.8730   31.7350 O   0  0  0  0  0  0  0  0  0  0  0  0
   82.8250    4.7050   29.7920 O   0  0  0  0  0  0  0  0  0  0  0  0
   79.1510    6.3880   25.9380 C   0  0  0  0  0  0  0  0  0  0  0  0
   78.2130    6.6660   24.9370 C   0  0  0  0  0  0  0  0  0  0  0  0
   77.0901    3.5033   24.3435 H   0  0  0  0  0  0  0  0  0  0  0  0
   78.7538    3.0049   26.1219 H   0  0  0  0  0  0  0  0  0  0  0  0
   81.0021    3.9371   27.1372 H   0  0  0  0  0  0  0  0  0  0  0  0
   80.9536    5.6694   27.6534 H   0  0  0  0  0  0  0  0  0  0  0  0
   78.8930    3.7440   28.5990 H   0  0  0  0  0  0  0  0  0  0  0  0
   79.0336    8.4467   28.6056 H   0  0  0  0  0  0  0  0  0  0  0  0
   81.0850   10.0037   28.2037 H   0  0  0  0  0  0  0  0  0  0  0  0
   79.7282    7.2088   26.3887 H   0  0  0  0  0  0  0  0  0  0  0  0
   78.0646    7.7052   24.6084 H   0  0  0  0  0  0  0  0  0  0  0  0
  1  2  2  0
  2  3  1  0
  2  4  1  0
  4  5  2  0
  5  6  1  0
  6  7  2  0
  7  8  1  0
  8  9  1  0
  9 10  1  0
 10 11  2  0
 10 12  2  0
 10 13  1  0
 13 14  1  0
 14 15  2  0
 15 16  1  0
 16 17  1  0
 17 18  1  0
 18 19  2  0
 18 20  1  0
  7 21  1  0
 21 22  2  0
 22  4  1  0
 17 13  2  0
  5 23  1  0
  6 24  1  0
  8 25  1  0
  8 26  1  0
  9 27  1  0
 14 28  1  0
 15 29  1  0
 21 30  1  0
 22 31  1  0
M  CHG  2   3  -1  20  -1
M  END
>  <meeko>  (4) 
{"is_sidechain": [false], "free_energy": -7.027, "intermolecular_energy": -9.431, "internal_energy": -0.695}

$$$$
4jxs_ligand
     RDKit          3D

 31 32  0  0  0  0  0  0  0  0999 V2000
   80.8450    4.9940   27.5330 O   0  0  0  0  0  0  0  0  0  0  0  0
   79.6780    4.5090   27.3790 C   0  0  0  0  0  0  0  0  0  0  0  0
   79.1340    3.6410   28.1340 O   0  0  0  0  0  0  0  0  0  0  0  0
   78.8690    5.0080   26.1960 C   0  0  0  0  0  0  0  0  0  0  0  0
   78.0940    4.1260   25.4260 C   0  0  0  0  0  0  0  0  0  0  0  0
   77.3480    4.5850   24.3360 C   0  0  0  0  0  0  0  0  0  0  0  0
   77.3550    5.9430   23.9890 C   0  0  0  0  0  0  0  0  0  0  0  0
   76.5630    6.4320   22.7990 C   0  0  0  0  0  0  0  0  0  0  0  0
   75.4880    5.4940   22.4600 N   0  0  0  0  0  0  0  0  0  0  0  0
   75.5380    4.8290   20.9000 S   0  0  0  0  0  0  0  0  0  0  0  0
   74.7630    3.6130   20.9670 O   0  0  0  0  0  0  0  0  0  0  0  0
   76.9260    4.9260   20.5070 O   0  0  0  0  0  0  0  0  0  0  0  0
   74.6890    5.9280   19.8500 C   0  0  0  0  0  0  0  0  0  0  0  0
   74.0790    7.1400   20.3180 C   0  0  0  0  0  0  0  0  0  0  0  0
   73.4090    7.8070   19.3150 C   0  0  0  0  0  0  0  0  0  0  0  0
   73.5290    6.9960   17.8170 S   0  0  0  0  0  0  0  0  0  0  0  0
   74.5050    5.7640   18.4920 C   0  0  0  0  0  0  0  0  0  0  0  0
   75.1280    4.6030   17.6280 C   0  0  0  0  0  0  0  0  0  0  0  0
   75.4380    3.5410   18.2480 O   0  0  0  0  0  0  0  0  0  0  0  0
   75.2150    4.8170   16.3850 O   0  0  0  0  0  0  0  0  0  0  0  0
   78.1300    6.8290   24.7480 C   0  0  0  0  0  0  0  0  0  0  0  0
   78.8750    6.3660   25.8380 C   0  0  0  0  0  0  0  0  0  0  0  0
   78.0734    3.0570   25.6843 H   0  0  0  0  0  0  0  0  0  0  0  0
   76.7507    3.8744   23.7459 H   0  0  0  0  0  0  0  0  0  0  0  0
   76.1233    7.4116   23.0379 H   0  0  0  0  0  0  0  0  0  0  0  0
   77.2413    6.5131   21.9368 H   0  0  0  0  0  0  0  0  0  0  0  0
   75.2830    4.7860   23.1610 H   0  0  0  0  0  0  0  0  0  0  0  0
   74.1393    7.4955   21.3572 H   0  0  0  0  0  0  0  0  0  0  0  0
   72.8619    8.7499   19.4620 H   0  0  0  0  0  0  0  0  0  0  0  0
   78.1531    7.8969   24.4851 H   0  0  0  0  0  0  0  0  0  0  0  0
   79.4753    7.0773   26.4242 H   0  0  0  0  0  0  0  0  0  0  0  0
  1  2  2  0
  2  3  1  0
  2  4  1  0
  4  5  2  0
  5  6  1  0
  6  7  2  0
  7  8  1  0
  8  9  1  0
  9 10  1  0
 10 11  2  0
 10 12  2  0
 10 13  1  0
 13 14  1  0
 14 15  2  0
 15 16  1  0
 16 17  1  0
 17 18  1  0
 18 19  2  0
 18 20  1  0
  7 21  1  0
 21 22  2  0
 22  4  1  0
 17 13  2  0
  5 23  1  0
  6 24  1  0
  8 25  1  0
  8 26  1  0
  9 27  1  0
 14 28  1  0
 15 29  1  0
 21 30  1  0
 22 31  1  0
M  CHG  2   3  -1  20  -1
M  END
>  <meeko>  (5) 
{"is_sidechain": [false], "free_energy": -6.962, "intermolecular_energy": -10.434, "internal_energy": 0.396}

$$$$
4jxs_ligand
     RDKit          3D

 31 32  0  0  0  0  0  0  0  0999 V2000
   77.4360    5.1050   24.1820 O   0  0  0  0  0  0  0  0  0  0  0  0
   76.8870    5.9630   23.4190 C   0  0  0  0  0  0  0  0  0  0  0  0
   76.6820    7.1850   23.7070 O   0  0  0  0  0  0  0  0  0  0  0  0
   76.4390    5.4870   22.0490 C   0  0  0  0  0  0  0  0  0  0  0  0
   77.3690    5.2490   21.0250 C   0  0  0  0  0  0  0  0  0  0  0  0
   76.9570    4.8090   19.7630 C   0  0  0  0  0  0  0  0  0  0  0  0
   75.6000    4.5910   19.4930 C   0  0  0  0  0  0  0  0  0  0  0  0
   75.1560    4.1350   18.1230 C   0  0  0  0  0  0  0  0  0  0  0  0
   73.7810    4.5600   17.8460 N   0  0  0  0  0  0  0  0  0  0  0  0
   73.5210    5.3280   16.3550 S   0  0  0  0  0  0  0  0  0  0  0  0
   72.2250    4.8770   15.9040 O   0  0  0  0  0  0  0  0  0  0  0  0
   74.7670    5.1670   15.6400 O   0  0  0  0  0  0  0  0  0  0  0  0
   73.3930    7.0330   16.6750 C   0  0  0  0  0  0  0  0  0  0  0  0
   73.4980    7.5910   17.9940 C   0  0  0  0  0  0  0  0  0  0  0  0
   73.2980    8.9540   18.0020 C   0  0  0  0  0  0  0  0  0  0  0  0
   73.0070    9.5660   16.4340 S   0  0  0  0  0  0  0  0  0  0  0  0
   73.1810    8.0170   15.7300 C   0  0  0  0  0  0  0  0  0  0  0  0
   73.1230    7.7780   14.1740 C   0  0  0  0  0  0  0  0  0  0  0  0
   72.1210    7.1360   13.7360 O   0  0  0  0  0  0  0  0  0  0  0  0
   74.0570    8.2940   13.4950 O   0  0  0  0  0  0  0  0  0  0  0  0
   74.6630    4.8310   20.5070 C   0  0  0  0  0  0  0  0  0  0  0  0
   75.0790    5.2700   21.7680 C   0  0  0  0  0  0  0  0  0  0  0  0
   78.4397    5.4112   21.2183 H   0  0  0  0  0  0  0  0  0  0  0  0
   77.7049    4.6327   18.9759 H   0  0  0  0  0  0  0  0  0  0  0  0
   75.8256    4.5684   17.3655 H   0  0  0  0  0  0  0  0  0  0  0  0
   75.1956    3.0362   18.0904 H   0  0  0  0  0  0  0  0  0  0  0  0
   73.0580    3.8720   18.0430 H   0  0  0  0  0  0  0  0  0  0  0  0
   73.7135    6.9979   18.8950 H   0  0  0  0  0  0  0  0  0  0  0  0
   73.3227    9.5744   18.9100 H   0  0  0  0  0  0  0  0  0  0  0  0
   73.5924    4.6729   20.3097 H   0  0  0  0  0  0  0  0  0  0  0  0
   74.3294    5.4484   22.5530 H   0  0  0  0  0  0  0  0  0  0  0  0
  1  2  2  0
  2  3  1  0
  2  4  1  0
  4  5  2  0
  5  6  1  0
  6  7  2  0
  7  8  1  0
  8  9  1  0
  9 10  1  0
 10 11  2  0
 10 12  2  0
 10 13  1  0
 13 14  1  0
 14 15  2  0
 15 16  1  0
 16 17  1  0
 17 18  1  0
 18 19  2  0
 18 20  1  0
  7 21  1  0
 21 22  2  0
 22  4  1  0
 17 13  2  0
  5 23  1  0
  6 24  1  0
  8 25  1  0
  8 26  1  0
  9 27  1  0
 14 28  1  0
 15 29  1  0
 21 30  1  0
 22 31  1  0
M  CHG  2   3  -1  20  -1
M  END
>  <meeko>  (6) 
{"is_sidechain": [false], "free_energy": -6.952, "intermolecular_energy": -9.359, "internal_energy": -0.665}

$$$$
4jxs_ligand
     RDKit          3D

 31 32  0  0  0  0  0  0  0  0999 V2000
   74.9860    3.3760   20.1970 O   0  0  0  0  0  0  0  0  0  0  0  0
   75.6710    4.2910   19.6370 C   0  0  0  0  0  0  0  0  0  0  0  0
   76.9000    4.5330   19.8570 O   0  0  0  0  0  0  0  0  0  0  0  0
   74.9590    5.1680   18.6230 C   0  0  0  0  0  0  0  0  0  0  0  0
   74.4710    6.4360   18.9780 C   0  0  0  0  0  0  0  0  0  0  0  0
   73.8160    7.2440   18.0430 C   0  0  0  0  0  0  0  0  0  0  0  0
   73.6360    6.8070   16.7250 C   0  0  0  0  0  0  0  0  0  0  0  0
   72.9110    7.6750   15.7240 C   0  0  0  0  0  0  0  0  0  0  0  0
   73.5110    9.0100   15.6530 N   0  0  0  0  0  0  0  0  0  0  0  0
   72.5250   10.2430   15.0290 S   0  0  0  0  0  0  0  0  0  0  0  0
   73.1000   11.4800   15.5000 O   0  0  0  0  0  0  0  0  0  0  0  0
   71.1750    9.7890   15.2790 O   0  0  0  0  0  0  0  0  0  0  0  0
   72.7050   10.2130   13.2990 C   0  0  0  0  0  0  0  0  0  0  0  0
   73.2270    9.0810   12.5870 C   0  0  0  0  0  0  0  0  0  0  0  0
   73.3360    9.3200   11.2350 C   0  0  0  0  0  0  0  0  0  0  0  0
   72.7950   10.8850   10.8170 S   0  0  0  0  0  0  0  0  0  0  0  0
   72.3800   11.2420   12.4370 C   0  0  0  0  0  0  0  0  0  0  0  0
   71.6850   12.5900   12.8610 C   0  0  0  0  0  0  0  0  0  0  0  0
   70.5070   12.4990   13.3240 O   0  0  0  0  0  0  0  0  0  0  0  0
   72.3840   13.6380   12.7490 O   0  0  0  0  0  0  0  0  0  0  0  0
   74.1150    5.5410   16.3630 C   0  0  0  0  0  0  0  0  0  0  0  0
   74.7700    4.7350   17.3000 C   0  0  0  0  0  0  0  0  0  0  0  0
   74.6060    6.7994   20.0074 H   0  0  0  0  0  0  0  0  0  0  0  0
   73.4388    8.2319   18.3459 H   0  0  0  0  0  0  0  0  0  0  0  0
   72.9663    7.2028   14.7321 H   0  0  0  0  0  0  0  0  0  0  0  0
   71.8638    7.7786   16.0443 H   0  0  0  0  0  0  0  0  0  0  0  0
   74.0080    9.3160   16.4870 H   0  0  0  0  0  0  0  0  0  0  0  0
   73.5077    8.1316   13.0663 H   0  0  0  0  0  0  0  0  0  0  0  0
   73.7253    8.5896   10.5105 H   0  0  0  0  0  0  0  0  0  0  0  0
   73.9749    5.1782   15.3341 H   0  0  0  0  0  0  0  0  0  0  0  0
   75.1432    3.7459   16.9959 H   0  0  0  0  0  0  0  0  0  0  0  0
  1  2  2  0
  2  3  1  0
  2  4  1  0
  4  5  2  0
  5  6  1  0
  6  7  2  0
  7  8  1  0
  8  9  1  0
  9 10  1  0
 10 11  2  0
 10 12  2  0
 10 13  1  0
 13 14  1  0
 14 15  2  0
 15 16  1  0
 16 17  1  0
 17 18  1  0
 18 19  2  0
 18 20  1  0
  7 21  1  0
 21 22  2  0
 22  4  1  0
 17 13  2  0
  5 23  1  0
  6 24  1  0
  8 25  1  0
  8 26  1  0
  9 27  1  0
 14 28  1  0
 15 29  1  0
 21 30  1  0
 22 31  1  0
M  CHG  2   3  -1  20  -1
M  END
>  <meeko>  (7) 
{"is_sidechain": [false], "free_energy": -6.844, "intermolecular_energy": -9.597, "internal_energy": -0.282}

$$$$
4jxs_ligand
     RDKit          3D

 31 32  0  0  0  0  0  0  0  0999 V2000
   72.5600   13.3150   12.7920 O   0  0  0  0  0  0  0  0  0  0  0  0
   71.7040   12.4550   13.1760 C   0  0  0  0  0  0  0  0  0  0  0  0
   70.4670   12.6810   13.3730 O   0  0  0  0  0  0  0  0  0  0  0  0
   72.2000   11.0420   13.4180 C   0  0  0  0  0  0  0  0  0  0  0  0
   73.1650   10.4600   12.5790 C   0  0  0  0  0  0  0  0  0  0  0  0
   73.6230    9.1570   12.8020 C   0  0  0  0  0  0  0  0  0  0  0  0
   73.1310    8.4030   13.8750 C   0  0  0  0  0  0  0  0  0  0  0  0
   73.6140    6.9900   14.1010 C   0  0  0  0  0  0  0  0  0  0  0  0
   74.0250    6.7900   15.4940 N   0  0  0  0  0  0  0  0  0  0  0  0
   73.6780    5.2710   16.1670 S   0  0  0  0  0  0  0  0  0  0  0  0
   74.3130    4.3060   15.3010 O   0  0  0  0  0  0  0  0  0  0  0  0
   72.2680    5.3260   16.4820 O   0  0  0  0  0  0  0  0  0  0  0  0
   74.4880    5.1990   17.7060 C   0  0  0  0  0  0  0  0  0  0  0  0
   75.3470    4.1130   18.0860 C   0  0  0  0  0  0  0  0  0  0  0  0
   75.8180    4.2470   19.3740 C   0  0  0  0  0  0  0  0  0  0  0  0
   75.2510    5.6760   20.1160 S   0  0  0  0  0  0  0  0  0  0  0  0
   74.3990    6.1440   18.7080 C   0  0  0  0  0  0  0  0  0  0  0  0
   73.6300    7.5130   18.5940 C   0  0  0  0  0  0  0  0  0  0  0  0
   72.6320    7.6690   19.3610 O   0  0  0  0  0  0  0  0  0  0  0  0
   74.1090    8.3560   17.7820 O   0  0  0  0  0  0  0  0  0  0  0  0
   72.1640    8.9720   14.7130 C   0  0  0  0  0  0  0  0  0  0  0  0
   71.7080   10.2760   14.4870 C   0  0  0  0  0  0  0  0  0  0  0  0
   73.5667   11.0378   11.7336 H   0  0  0  0  0  0  0  0  0  0  0  0
   74.3759    8.7209   12.1289 H   0  0  0  0  0  0  0  0  0  0  0  0
   72.8002    6.2895   13.8623 H   0  0  0  0  0  0  0  0  0  0  0  0
   74.4825    6.8091   13.4507 H   0  0  0  0  0  0  0  0  0  0  0  0
   74.9680    7.0940   15.7230 H   0  0  0  0  0  0  0  0  0  0  0  0
   75.6000    3.2709   17.4250 H   0  0  0  0  0  0  0  0  0  0  0  0
   76.4806    3.5196   19.8657 H   0  0  0  0  0  0  0  0  0  0  0  0
   71.7600    8.3902   15.5546 H   0  0  0  0  0  0  0  0  0  0  0  0
   70.9513   10.7080   15.1584 H   0  0  0  0  0  0  0  0  0  0  0  0
  1  2  2  0
  2  3  1  0
  2  4  1  0
  4  5  2  0
  5  6  1  0
  6  7  2  0
  7  8  1  0
  8  9  1  0
  9 10  1  0
 10 11  2  0
 10 12  2  0
 10 13  1  0
 13 14  1  0
 14 15  2  0
 15 16  1  0
 16 17  1  0
 17 18  1  0
 18 19  2  0
 18 20  1  0
  7 21  1  0
 21 22  2  0
 22  4  1  0
 17 13  2  0
  5 23  1  0
  6 24  1  0
  8 25  1  0
  8 26  1  0
  9 27  1  0
 14 28  1  0
 15 29  1  0
 21 30  1  0
 22 31  1  0
M  CHG  2   3  -1  20  -1
M  END
>  <meeko>  (8) 
{"is_sidechain": [false], "free_energy": -6.824, "intermolecular_energy": -9.361, "internal_energy": -0.491}

$$$$
4jxs_ligand
     RDKit          3D

 31 32  0  0  0  0  0  0  0  0999 V2000
   75.4950    6.7500   22.3480 O   0  0  0  0  0  0  0  0  0  0  0  0
   75.2520    5.5730   21.9300 C   0  0  0  0  0  0  0  0  0  0  0  0
   75.1710    4.5320   22.6580 O   0  0  0  0  0  0  0  0  0  0  0  0
   75.0410    5.3960   20.4370 C   0  0  0  0  0  0  0  0  0  0  0  0
   74.4860    6.4240   19.6580 C   0  0  0  0  0  0  0  0  0  0  0  0
   74.2920    6.2630   18.2820 C   0  0  0  0  0  0  0  0  0  0  0  0
   74.6530    5.0670   17.6480 C   0  0  0  0  0  0  0  0  0  0  0  0
   74.4250    4.8890   16.1660 C   0  0  0  0  0  0  0  0  0  0  0  0
   73.1140    5.4130   15.7680 N   0  0  0  0  0  0  0  0  0  0  0  0
   73.0620    6.2650   14.3010 S   0  0  0  0  0  0  0  0  0  0  0  0
   71.8180    5.8870   13.6730 O   0  0  0  0  0  0  0  0  0  0  0  0
   74.3810    6.0940   13.7340 O   0  0  0  0  0  0  0  0  0  0  0  0
   72.9490    7.9560   14.6970 C   0  0  0  0  0  0  0  0  0  0  0  0
   72.5340    8.4300   15.9870 C   0  0  0  0  0  0  0  0  0  0  0  0
   72.4580    9.8040   16.0380 C   0  0  0  0  0  0  0  0  0  0  0  0
   72.9040   10.5240   14.5550 S   0  0  0  0  0  0  0  0  0  0  0  0
   73.2320    9.0040   13.8440 C   0  0  0  0  0  0  0  0  0  0  0  0
   73.8150    8.8520   12.3890 C   0  0  0  0  0  0  0  0  0  0  0  0
   74.9960    9.2770   12.2050 O   0  0  0  0  0  0  0  0  0  0  0  0
   73.0700    8.2730   11.5470 O   0  0  0  0  0  0  0  0  0  0  0  0
   75.2020    4.0330   18.4180 C   0  0  0  0  0  0  0  0  0  0  0  0
   75.3950    4.1990   19.7940 C   0  0  0  0  0  0  0  0  0  0  0  0
   74.1991    7.3715   20.1376 H   0  0  0  0  0  0  0  0  0  0  0  0
   73.8526    7.0818   17.6933 H   0  0  0  0  0  0  0  0  0  0  0  0
   75.2098    5.4272   15.6143 H   0  0  0  0  0  0  0  0  0  0  0  0
   74.4576    3.8143   15.9335 H   0  0  0  0  0  0  0  0  0  0  0  0
   72.3360    4.7630   15.8500 H   0  0  0  0  0  0  0  0  0  0  0  0
   72.3032    7.7712   16.8371 H   0  0  0  0  0  0  0  0  0  0  0  0
   72.1470   10.3705   16.9281 H   0  0  0  0  0  0  0  0  0  0  0  0
   75.4832    3.0843   17.9375 H   0  0  0  0  0  0  0  0  0  0  0  0
   75.8314    3.3780   20.3818 H   0  0  0  0  0  0  0  0  0  0  0  0
  1  2  2  0
  2  3  1  0
  2  4  1  0
  4  5  2  0
  5  6  1  0
  6  7  2  0
  7  8  1  0
  8  9  1  0
  9 10  1  0
 10 11  2  0
 10 12  2  0
 10 13  1  0
 13 14  1  0
 14 15  2  0
 15 16  1  0
 16 17  1  0
 17 18  1  0
 18 19  2  0
 18 20  1  0
  7 21  1  0
 21 22  2  0
 22  4  1  0
 17 13  2  0
  5 23  1  0
  6 24  1  0
  8 25  1  0
  8 26  1  0
  9 27  1  0
 14 28  1  0
 15 29  1  0
 21 30  1  0
 22 31  1  0
M  CHG  2   3  -1  20  -1
M  END
>  <meeko>  (9) 
{"is_sidechain": [false], "free_energy": -6.798, "intermolecular_energy": -9.319, "internal_energy": -0.497}

$$$$
