1w4o_ligand
     RDKit          3D

 32 33  0  0  0  0  0  0  0  0999 V2000
   34.8590   -5.3520   11.3820 O   0  0  0  0  0  0  0  0  0  0  0  0
   35.3870   -4.2530   11.5090 C   0  0  0  0  0  0  0  0  0  0  0  0
   36.6890   -4.1060   12.1690 C   0  0  0  0  0  0  0  0  0  0  0  0
   37.2080   -2.8830   12.2910 C   0  0  0  0  0  0  0  0  0  0  0  0
   36.5600   -1.7430   11.8380 N   0  0  0  0  0  0  0  0  0  0  0  0
   37.2890   -0.4590   11.9460 C   0  0  2  0  0  0  0  0  0  0  0  0
   38.7030   -0.7350   11.8350 O   0  0  0  0  0  0  0  0  0  0  0  0
   39.3830    0.4600   12.3140 C   0  0  2  0  0  0  0  0  0  0  0  0
   40.5610    0.0610   13.2030 C   0  0  0  0  0  0  0  0  0  0  0  0
   40.2820   -1.0290   14.0770 O   0  0  0  0  0  0  0  0  0  0  0  0
   38.3480    1.3120   13.0620 C   0  0  1  0  0  0  0  0  0  0  0  0
   37.9490    2.3710   12.2010 O   0  0  0  0  0  0  0  0  0  0  0  0
   37.6690    3.7910   12.9720 P   0  0  0  0  0  0  0  0  0  0  0  0
   38.5260    3.6740   14.2170 O   0  0  0  0  0  0  0  0  0  0  0  0
   38.1190    4.8190   11.9510 O   0  0  0  0  0  0  0  0  0  0  0  0
   36.1640    3.7630   13.2160 O   0  0  0  0  0  0  0  0  0  0  0  0
   37.1660    0.3800   13.2260 C   0  0  2  0  0  0  0  0  0  0  0  0
   37.3030   -0.4260   14.4120 O   0  0  0  0  0  0  0  0  0  0  0  0
   35.3540   -1.8350   11.1620 C   0  0  0  0  0  0  0  0  0  0  0  0
   34.7190   -0.8990   10.6810 O   0  0  0  0  0  0  0  0  0  0  0  0
   34.8280   -3.0980   11.0470 N   0  0  0  0  0  0  0  0  0  0  0  0
   37.2257   -4.9852   12.5549 H   0  0  0  0  0  0  0  0  0  0  0  0
   38.1916   -2.7739   12.7712 H   0  0  0  0  0  0  0  0  0  0  0  0
   36.8168    0.1363   11.1506 H   0  0  0  0  0  0  0  0  0  0  0  0
   39.7987    1.0507   11.4844 H   0  0  0  0  0  0  0  0  0  0  0  0
   41.4037   -0.2217   12.5549 H   0  0  0  0  0  0  0  0  0  0  0  0
   40.7895    0.9292   13.8386 H   0  0  0  0  0  0  0  0  0  0  0  0
   39.3280   -0.9240   14.3990 H   0  0  0  0  0  0  0  0  0  0  0  0
   38.7214    1.7228   14.0117 H   0  0  0  0  0  0  0  0  0  0  0  0
   36.1932    0.8791   13.3467 H   0  0  0  0  0  0  0  0  0  0  0  0
   36.4310   -0.8570   14.4980 H   0  0  0  0  0  0  0  0  0  0  0  0
   33.9430   -3.1660   10.5750 H   0  0  0  0  0  0  0  0  0  0  0  0
  1  2  2  0
  2  3  1  0
  3  4  2  0
  4  5  1  0
  5  6  1  0
  6  7  1  0
  7  8  1  0
  8  9  1  0
  9 10  1  0
  8 11  1  0
 11 12  1  0
 12 13  1  0
 13 14  2  0
 13 15  1  0
 13 16  1  0
 11 17  1  0
 17 18  1  0
  5 19  1  0
 19 20  2  0
 19 21  1  0
 21  2  1  0
 17  6  1  0
  3 22  1  0
  4 23  1  0
  6 24  1  6
  8 25  1  6
  9 26  1  0
  9 27  1  0
 10 28  1  0
 11 29  1  1
 17 30  1  1
 18 31  1  0
 21 32  1  0
M  CHG  2  15  -1  16  -1
M  END
>  <meeko>  (1) 
{"is_sidechain": [false], "free_energy": -5.673, "intermolecular_energy": -7.332, "internal_energy": -0.794}

$$$$
1w4o_ligand
     RDKit          3D

 32 33  0  0  0  0  0  0  0  0999 V2000
   34.6950   -5.3530   11.5250 O   0  0  0  0  0  0  0  0  0  0  0  0
   35.3620   -4.3610   11.7980 C   0  0  0  0  0  0  0  0  0  0  0  0
   36.7390   -4.4830   12.2890 C   0  0  0  0  0  0  0  0  0  0  0  0
   37.4120   -3.3700   12.5840 C   0  0  0  0  0  0  0  0  0  0  0  0
   36.8590   -2.1030   12.4640 N   0  0  0  0  0  0  0  0  0  0  0  0
   37.7450   -0.9470   12.7280 C   0  0  2  0  0  0  0  0  0  0  0  0
   37.0220   -0.0060   13.5530 O   0  0  0  0  0  0  0  0  0  0  0  0
   37.7600    1.2470   13.4740 C   0  0  2  0  0  0  0  0  0  0  0  0
   36.7820    2.4110   13.3220 C   0  0  0  0  0  0  0  0  0  0  0  0
   35.4120    2.0220   13.3370 O   0  0  0  0  0  0  0  0  0  0  0  0
   38.7290    1.1370   12.2880 C   0  0  1  0  0  0  0  0  0  0  0  0
   40.0260    0.8700   12.8060 O   0  0  0  0  0  0  0  0  0  0  0  0
   41.1730    1.9370   12.3230 P   0  0  0  0  0  0  0  0  0  0  0  0
   41.7380    1.2840   11.0760 O   0  0  0  0  0  0  0  0  0  0  0  0
   40.3760    3.2080   12.1020 O   0  0  0  0  0  0  0  0  0  0  0  0
   42.1240    1.9890   13.5140 O   0  0  0  0  0  0  0  0  0  0  0  0
   38.2610   -0.1010   11.5540 C   0  0  2  0  0  0  0  0  0  0  0  0
   37.2130    0.2170   10.6190 O   0  0  0  0  0  0  0  0  0  0  0  0
   35.5810   -1.9330   11.9550 C   0  0  0  0  0  0  0  0  0  0  0  0
   35.0130   -0.8600   11.7650 O   0  0  0  0  0  0  0  0  0  0  0  0
   34.8980   -3.0870   11.6600 N   0  0  0  0  0  0  0  0  0  0  0  0
   37.2064   -5.4712   12.4112 H   0  0  0  0  0  0  0  0  0  0  0  0
   38.4497   -3.4602   12.9375 H   0  0  0  0  0  0  0  0  0  0  0  0
   38.6310   -1.4356   13.1596 H   0  0  0  0  0  0  0  0  0  0  0  0
   38.3380    1.4377   14.3903 H   0  0  0  0  0  0  0  0  0  0  0  0
   36.9508    3.1150   14.1501 H   0  0  0  0  0  0  0  0  0  0  0  0
   36.9742    2.8617   12.3372 H   0  0  0  0  0  0  0  0  0  0  0  0
   35.2210    1.5470   12.4640 H   0  0  0  0  0  0  0  0  0  0  0  0
   38.7562    2.0389   11.6588 H   0  0  0  0  0  0  0  0  0  0  0  0
   39.0291   -0.5980   10.9433 H   0  0  0  0  0  0  0  0  0  0  0  0
   36.4490   -0.2970   10.9470 H   0  0  0  0  0  0  0  0  0  0  0  0
   33.9620   -2.9680   11.3100 H   0  0  0  0  0  0  0  0  0  0  0  0
  1  2  2  0
  2  3  1  0
  3  4  2  0
  4  5  1  0
  5  6  1  0
  6  7  1  0
  7  8  1  0
  8  9  1  0
  9 10  1  0
  8 11  1  0
 11 12  1  0
 12 13  1  0
 13 14  2  0
 13 15  1  0
 13 16  1  0
 11 17  1  0
 17 18  1  0
  5 19  1  0
 19 20  2  0
 19 21  1  0
 21  2  1  0
 17  6  1  0
  3 22  1  0
  4 23  1  0
  6 24  1  1
  8 25  1  1
  9 26  1  0
  9 27  1  0
 10 28  1  0
 11 29  1  6
 17 30  1  6
 18 31  1  0
 21 32  1  0
M  CHG  2  15  -1  16  -1
M  END
>  <meeko>  (2) 
{"is_sidechain": [false], "free_energy": -5.33, "intermolecular_energy": -7.334, "internal_energy": -0.348}

$$$$
1w4o_ligand
     RDKit          3D

 32 33  0  0  0  0  0  0  0  0999 V2000
   38.4980    5.1460   14.1110 O   0  0  0  0  0  0  0  0  0  0  0  0
   38.2670    3.9620   13.8900 C   0  0  0  0  0  0  0  0  0  0  0  0
   39.3510    2.9780   13.8080 C   0  0  0  0  0  0  0  0  0  0  0  0
   39.0410    1.7060   13.5490 C   0  0  0  0  0  0  0  0  0  0  0  0
   37.7380    1.2800   13.3350 N   0  0  0  0  0  0  0  0  0  0  0  0
   37.5200   -0.1740   13.1570 C   0  0  2  0  0  0  0  0  0  0  0  0
   38.8120   -0.8190   13.1080 O   0  0  0  0  0  0  0  0  0  0  0  0
   38.5750   -2.1500   12.5650 C   0  0  2  0  0  0  0  0  0  0  0  0
   39.6640   -2.4920   11.5480 C   0  0  0  0  0  0  0  0  0  0  0  0
   40.0220   -1.4080   10.6970 O   0  0  0  0  0  0  0  0  0  0  0  0
   37.1720   -2.1510   11.9440 C   0  0  1  0  0  0  0  0  0  0  0  0
   36.2920   -2.8020   12.8510 O   0  0  0  0  0  0  0  0  0  0  0  0
   35.6050   -4.1670   12.2560 P   0  0  0  0  0  0  0  0  0  0  0  0
   35.0310   -3.7060   10.9300 O   0  0  0  0  0  0  0  0  0  0  0  0
   36.7790   -5.1240   12.1740 O   0  0  0  0  0  0  0  0  0  0  0  0
   34.5710   -4.5280   13.3180 O   0  0  0  0  0  0  0  0  0  0  0  0
   36.7940   -0.6860   11.9050 C   0  0  2  0  0  0  0  0  0  0  0  0
   37.2830   -0.0570   10.7050 O   0  0  0  0  0  0  0  0  0  0  0  0
   36.6760    2.1600   13.4540 C   0  0  0  0  0  0  0  0  0  0  0  0
   35.4850    1.8810   13.3300 O   0  0  0  0  0  0  0  0  0  0  0  0
   37.0090    3.4670   13.7150 N   0  0  0  0  0  0  0  0  0  0  0  0
   40.3977    3.2818   13.9568 H   0  0  0  0  0  0  0  0  0  0  0  0
   39.8522    0.9645   13.5033 H   0  0  0  0  0  0  0  0  0  0  0  0
   36.8593   -0.4086   14.0046 H   0  0  0  0  0  0  0  0  0  0  0  0
   38.6192   -2.9227   13.3467 H   0  0  0  0  0  0  0  0  0  0  0  0
   40.5619   -2.8120   12.0970 H   0  0  0  0  0  0  0  0  0  0  0  0
   39.2585   -3.2841   10.9013 H   0  0  0  0  0  0  0  0  0  0  0  0
   39.7000   -1.6340    9.7640 H   0  0  0  0  0  0  0  0  0  0  0  0
   37.1279   -2.6442   10.9618 H   0  0  0  0  0  0  0  0  0  0  0  0
   35.7126   -0.4847   11.8966 H   0  0  0  0  0  0  0  0  0  0  0  0
   36.5890    0.5960   10.4900 H   0  0  0  0  0  0  0  0  0  0  0  0
   36.2410    4.1130   13.7810 H   0  0  0  0  0  0  0  0  0  0  0  0
  1  2  2  0
  2  3  1  0
  3  4  2  0
  4  5  1  0
  5  6  1  0
  6  7  1  0
  7  8  1  0
  8  9  1  0
  9 10  1  0
  8 11  1  0
 11 12  1  0
 12 13  1  0
 13 14  2  0
 13 15  1  0
 13 16  1  0
 11 17  1  0
 17 18  1  0
  5 19  1  0
 19 20  2  0
 19 21  1  0
 21  2  1  0
 17  6  1  0
  3 22  1  0
  4 23  1  0
  6 24  1  1
  8 25  1  1
  9 26  1  0
  9 27  1  0
 10 28  1  0
 11 29  1  6
 17 30  1  1
 18 31  1  0
 21 32  1  0
M  CHG  2  15  -1  16  -1
M  END
>  <meeko>  (3) 
{"is_sidechain": [false], "free_energy": -5.221, "intermolecular_energy": -6.767, "internal_energy": -0.775}

$$$$
1w4o_ligand
     RDKit          3D

 32 33  0  0  0  0  0  0  0  0999 V2000
   34.7270   -4.2940   11.6330 O   0  0  0  0  0  0  0  0  0  0  0  0
   35.4220   -3.2970   11.7950 C   0  0  0  0  0  0  0  0  0  0  0  0
   36.3970   -3.2200   12.8890 C   0  0  0  0  0  0  0  0  0  0  0  0
   37.1160   -2.1040   13.0260 C   0  0  0  0  0  0  0  0  0  0  0  0
   36.9670   -1.0080   12.1900 N   0  0  0  0  0  0  0  0  0  0  0  0
   37.8950    0.1290   12.3870 C   0  0  2  0  0  0  0  0  0  0  0  0
   38.8470   -0.2410   13.4100 O   0  0  0  0  0  0  0  0  0  0  0  0
   39.4810    0.9990   13.8350 C   0  0  2  0  0  0  0  0  0  0  0  0
   39.6130    1.0150   15.3570 C   0  0  0  0  0  0  0  0  0  0  0  0
   39.7180    2.3210   15.9150 O   0  0  0  0  0  0  0  0  0  0  0  0
   38.6240    2.1590   13.3090 C   0  0  1  0  0  0  0  0  0  0  0  0
   39.2680    2.6930   12.1590 O   0  0  0  0  0  0  0  0  0  0  0  0
   39.6000    4.2950   12.2600 P   0  0  0  0  0  0  0  0  0  0  0  0
   39.9890    4.4690   13.7150 O   0  0  0  0  0  0  0  0  0  0  0  0
   40.7180    4.4690   11.2490 O   0  0  0  0  0  0  0  0  0  0  0  0
   38.2820    4.9490   11.8590 O   0  0  0  0  0  0  0  0  0  0  0  0
   37.3480    1.4860   12.8530 C   0  0  2  0  0  0  0  0  0  0  0  0
   36.4180    1.3450   13.9440 O   0  0  0  0  0  0  0  0  0  0  0  0
   36.0980   -1.0510   11.1110 C   0  0  0  0  0  0  0  0  0  0  0  0
   35.9220   -0.1590   10.2850 O   0  0  0  0  0  0  0  0  0  0  0  0
   35.3610   -2.2030   10.9850 N   0  0  0  0  0  0  0  0  0  0  0  0
   36.5324   -4.0640   13.5813 H   0  0  0  0  0  0  0  0  0  0  0  0
   37.8581   -2.0515   13.8363 H   0  0  0  0  0  0  0  0  0  0  0  0
   38.2720    0.2917   11.3665 H   0  0  0  0  0  0  0  0  0  0  0  0
   40.4989    1.0949   13.4292 H   0  0  0  0  0  0  0  0  0  0  0  0
   38.7264    0.5255   15.7864 H   0  0  0  0  0  0  0  0  0  0  0  0
   40.5472    0.4882   15.6013 H   0  0  0  0  0  0  0  0  0  0  0  0
   40.0770    2.9320   15.1920 H   0  0  0  0  0  0  0  0  0  0  0  0
   38.4620    2.9556   14.0501 H   0  0  0  0  0  0  0  0  0  0  0  0
   36.7835    2.0329   12.0834 H   0  0  0  0  0  0  0  0  0  0  0  0
   36.6810    2.0540   14.5620 H   0  0  0  0  0  0  0  0  0  0  0  0
   34.7140   -2.2300   10.2150 H   0  0  0  0  0  0  0  0  0  0  0  0
  1  2  2  0
  2  3  1  0
  3  4  2  0
  4  5  1  0
  5  6  1  0
  6  7  1  0
  7  8  1  0
  8  9  1  0
  9 10  1  0
  8 11  1  0
 11 12  1  0
 12 13  1  0
 13 14  2  0
 13 15  1  0
 13 16  1  0
 11 17  1  0
 17 18  1  0
  5 19  1  0
 19 20  2  0
 19 21  1  0
 21  2  1  0
 17  6  1  0
  3 22  1  0
  4 23  1  0
  6 24  1  6
  8 25  1  6
  9 26  1  0
  9 27  1  0
 10 28  1  0
 11 29  1  1
 17 30  1  6
 18 31  1  0
 21 32  1  0
M  CHG  2  15  -1  16  -1
M  END
>  <meeko>  (4) 
{"is_sidechain": [false], "free_energy": -5.114, "intermolecular_energy": -6.555, "internal_energy": -0.848}

$$$$
1w4o_ligand
     RDKit          3D

 32 33  0  0  0  0  0  0  0  0999 V2000
   37.9180    5.1470   12.5040 O   0  0  0  0  0  0  0  0  0  0  0  0
   37.7980    3.9390   12.6770 C   0  0  0  0  0  0  0  0  0  0  0  0
   36.4920    3.3390   12.9680 C   0  0  0  0  0  0  0  0  0  0  0  0
   36.4240    2.0210   13.1610 C   0  0  0  0  0  0  0  0  0  0  0  0
   37.5400    1.1970   13.1190 N   0  0  0  0  0  0  0  0  0  0  0  0
   37.3150   -0.2600   13.2510 C   0  0  2  0  0  0  0  0  0  0  0  0
   38.4000   -0.8140   14.0290 O   0  0  0  0  0  0  0  0  0  0  0  0
   38.3500   -2.2540   13.8190 C   0  0  2  0  0  0  0  0  0  0  0  0
   39.7650   -2.7940   13.6160 C   0  0  0  0  0  0  0  0  0  0  0  0
   40.6060   -1.9390   12.8490 O   0  0  0  0  0  0  0  0  0  0  0  0
   37.4450   -2.5120   12.6060 C   0  0  1  0  0  0  0  0  0  0  0  0
   36.1780   -2.9420   13.0880 O   0  0  0  0  0  0  0  0  0  0  0  0
   35.6000   -4.2860   12.3470 P   0  0  0  0  0  0  0  0  0  0  0  0
   36.8370   -5.1530   12.2070 O   0  0  0  0  0  0  0  0  0  0  0  0
   34.5500   -4.7810   13.3240 O   0  0  0  0  0  0  0  0  0  0  0  0
   35.0370   -3.7450   11.0370 O   0  0  0  0  0  0  0  0  0  0  0  0
   37.2640   -1.1400   11.9940 C   0  0  2  0  0  0  0  0  0  0  0  0
   38.3360   -0.8350   11.0810 O   0  0  0  0  0  0  0  0  0  0  0  0
   38.7870    1.7080   12.7960 C   0  0  0  0  0  0  0  0  0  0  0  0
   39.8280    1.0650   12.6860 O   0  0  0  0  0  0  0  0  0  0  0  0
   38.8430    3.0670   12.6040 N   0  0  0  0  0  0  0  0  0  0  0  0
   35.5877    3.9626   13.0259 H   0  0  0  0  0  0  0  0  0  0  0  0
   35.4420    1.5680   13.3619 H   0  0  0  0  0  0  0  0  0  0  0  0
   36.3032   -0.2925   13.6813 H   0  0  0  0  0  0  0  0  0  0  0  0
   37.9342   -2.7782   14.6921 H   0  0  0  0  0  0  0  0  0  0  0  0
   40.2260   -2.9368   14.6045 H   0  0  0  0  0  0  0  0  0  0  0  0
   39.6693   -3.7346   13.0537 H   0  0  0  0  0  0  0  0  0  0  0  0
   40.1260   -1.0530   12.7440 H   0  0  0  0  0  0  0  0  0  0  0  0
   37.8514   -3.2575   11.9067 H   0  0  0  0  0  0  0  0  0  0  0  0
   36.3506   -1.0159   11.3937 H   0  0  0  0  0  0  0  0  0  0  0  0
   38.7390   -1.7060   10.9020 H   0  0  0  0  0  0  0  0  0  0  0  0
   39.7510    3.4440   12.3900 H   0  0  0  0  0  0  0  0  0  0  0  0
  1  2  2  0
  2  3  1  0
  3  4  2  0
  4  5  1  0
  5  6  1  0
  6  7  1  0
  7  8  1  0
  8  9  1  0
  9 10  1  0
  8 11  1  0
 11 12  1  0
 12 13  1  0
 13 14  2  0
 13 15  1  0
 13 16  1  0
 11 17  1  0
 17 18  1  0
  5 19  1  0
 19 20  2  0
 19 21  1  0
 21  2  1  0
 17  6  1  0
  3 22  1  0
  4 23  1  0
  6 24  1  1
  8 25  1  1
  9 26  1  0
  9 27  1  0
 10 28  1  0
 11 29  1  6
 17 30  1  6
 18 31  1  0
 21 32  1  0
M  CHG  2  15  -1  16  -1
M  END
>  <meeko>  (5) 
{"is_sidechain": [false], "free_energy": -5.013, "intermolecular_energy": -6.571, "internal_energy": -0.702}

$$$$
1w4o_ligand
     RDKit          3D

 32 33  0  0  0  0  0  0  0  0999 V2000
   36.8680    4.9760   13.1680 O   0  0  0  0  0  0  0  0  0  0  0  0
   37.1630    3.7980   13.0040 C   0  0  0  0  0  0  0  0  0  0  0  0
   36.1340    2.7530   12.9780 C   0  0  0  0  0  0  0  0  0  0  0  0
   36.5150    1.4850   12.8120 C   0  0  0  0  0  0  0  0  0  0  0  0
   37.8450    1.1120   12.6820 N   0  0  0  0  0  0  0  0  0  0  0  0
   38.1260   -0.3150   12.4030 C   0  0  2  0  0  0  0  0  0  0  0  0
   36.9400   -0.9010   11.8210 O   0  0  0  0  0  0  0  0  0  0  0  0
   37.1190   -2.3430   11.9140 C   0  0  2  0  0  0  0  0  0  0  0  0
   35.8100   -2.9960   12.3570 C   0  0  0  0  0  0  0  0  0  0  0  0
   35.4700   -2.7450   13.7160 O   0  0  0  0  0  0  0  0  0  0  0  0
   38.2660   -2.6030   12.8990 C   0  0  1  0  0  0  0  0  0  0  0  0
   39.4310   -2.9110   12.1440 O   0  0  0  0  0  0  0  0  0  0  0  0
   40.1360   -4.3350   12.5490 P   0  0  0  0  0  0  0  0  0  0  0  0
   40.3860   -4.1770   14.0360 O   0  0  0  0  0  0  0  0  0  0  0  0
   39.0810   -5.3530   12.1590 O   0  0  0  0  0  0  0  0  0  0  0  0
   41.3890   -4.3620   11.6800 O   0  0  0  0  0  0  0  0  0  0  0  0
   38.4860   -1.2590   13.5590 C   0  0  2  0  0  0  0  0  0  0  0  0
   37.6070   -1.0870   14.6880 O   0  0  0  0  0  0  0  0  0  0  0  0
   38.8490    2.0660   12.6480 C   0  0  0  0  0  0  0  0  0  0  0  0
   40.0490    1.8510   12.4930 O   0  0  0  0  0  0  0  0  0  0  0  0
   38.4430    3.3660   12.8250 N   0  0  0  0  0  0  0  0  0  0  0  0
   35.0705    3.0093   13.0929 H   0  0  0  0  0  0  0  0  0  0  0  0
   35.7424    0.7028   12.7768 H   0  0  0  0  0  0  0  0  0  0  0  0
   39.0280   -0.2490   11.7768 H   0  0  0  0  0  0  0  0  0  0  0  0
   37.3788   -2.7844   10.9405 H   0  0  0  0  0  0  0  0  0  0  0  0
   34.9990   -2.6120   11.7207 H   0  0  0  0  0  0  0  0  0  0  0  0
   35.9466   -4.0830   12.2582 H   0  0  0  0  0  0  0  0  0  0  0  0
   35.1810   -3.6260   14.1250 H   0  0  0  0  0  0  0  0  0  0  0  0
   38.0565   -3.4152   13.6107 H   0  0  0  0  0  0  0  0  0  0  0  0
   39.4935   -1.1024   13.9719 H   0  0  0  0  0  0  0  0  0  0  0  0
   38.1500   -0.5860   15.3260 H   0  0  0  0  0  0  0  0  0  0  0  0
   39.1720    4.0590   12.8210 H   0  0  0  0  0  0  0  0  0  0  0  0
  1  2  2  0
  2  3  1  0
  3  4  2  0
  4  5  1  0
  5  6  1  0
  6  7  1  0
  7  8  1  0
  8  9  1  0
  9 10  1  0
  8 11  1  0
 11 12  1  0
 12 13  1  0
 13 14  2  0
 13 15  1  0
 13 16  1  0
 11 17  1  0
 17 18  1  0
  5 19  1  0
 19 20  2  0
 19 21  1  0
 21  2  1  0
 17  6  1  0
  3 22  1  0
  4 23  1  0
  6 24  1  6
  8 25  1  6
  9 26  1  0
  9 27  1  0
 10 28  1  0
 11 29  1  1
 17 30  1  1
 18 31  1  0
 21 32  1  0
M  CHG  2  15  -1  16  -1
M  END
>  <meeko>  (6) 
{"is_sidechain": [false], "free_energy": -4.929, "intermolecular_energy": -6.377, "internal_energy": -0.786}

$$$$
1w4o_ligand
     RDKit          3D

 32 33  0  0  0  0  0  0  0  0999 V2000
   36.6060    4.0560   12.9210 O   0  0  0  0  0  0  0  0  0  0  0  0
   36.9520    2.8810   12.9440 C   0  0  0  0  0  0  0  0  0  0  0  0
   38.2900    2.4900   13.4020 C   0  0  0  0  0  0  0  0  0  0  0  0
   38.6170    1.1970   13.3910 C   0  0  0  0  0  0  0  0  0  0  0  0
   37.7510    0.2080   12.9460 N   0  0  0  0  0  0  0  0  0  0  0  0
   38.1990   -1.1970   13.0790 C   0  0  2  0  0  0  0  0  0  0  0  0
   37.3680   -2.0160   12.2260 O   0  0  0  0  0  0  0  0  0  0  0  0
   37.5780   -3.3900   12.6620 C   0  0  2  0  0  0  0  0  0  0  0  0
   36.2400   -4.1260   12.7070 C   0  0  0  0  0  0  0  0  0  0  0  0
   35.1930   -3.3860   13.3270 O   0  0  0  0  0  0  0  0  0  0  0  0
   38.2660   -3.3390   14.0330 C   0  0  1  0  0  0  0  0  0  0  0  0
   39.6480   -3.6120   13.8410 O   0  0  0  0  0  0  0  0  0  0  0  0
   40.3590   -4.3900   15.0970 P   0  0  0  0  0  0  0  0  0  0  0  0
   41.0170   -3.2600   15.8650 O   0  0  0  0  0  0  0  0  0  0  0  0
   39.1830   -5.0600   15.7830 O   0  0  0  0  0  0  0  0  0  0  0  0
   41.3210   -5.3530   14.4110 O   0  0  0  0  0  0  0  0  0  0  0  0
   38.1350   -1.8900   14.4480 C   0  0  2  0  0  0  0  0  0  0  0  0
   36.8780   -1.6520   15.1120 O   0  0  0  0  0  0  0  0  0  0  0  0
   36.4600    0.5200   12.5530 C   0  0  0  0  0  0  0  0  0  0  0  0
   35.6000   -0.2790   12.1860 O   0  0  0  0  0  0  0  0  0  0  0  0
   36.1390    1.8550   12.5650 N   0  0  0  0  0  0  0  0  0  0  0  0
   39.0087    3.2478   13.7474 H   0  0  0  0  0  0  0  0  0  0  0  0
   39.6143    0.9023   13.7495 H   0  0  0  0  0  0  0  0  0  0  0  0
   39.2682   -1.1167   12.8331 H   0  0  0  0  0  0  0  0  0  0  0  0
   38.2198   -3.9453   11.9622 H   0  0  0  0  0  0  0  0  0  0  0  0
   35.9368   -4.3562   11.6750 H   0  0  0  0  0  0  0  0  0  0  0  0
   36.3940   -5.0300   13.3145 H   0  0  0  0  0  0  0  0  0  0  0  0
   34.6660   -4.0300   13.9040 H   0  0  0  0  0  0  0  0  0  0  0  0
   37.8436   -4.0467   14.7615 H   0  0  0  0  0  0  0  0  0  0  0  0
   38.8924   -1.5424   15.1660 H   0  0  0  0  0  0  0  0  0  0  0  0
   37.0960   -0.9730   15.7790 H   0  0  0  0  0  0  0  0  0  0  0  0
   35.2080    2.0870   12.2610 H   0  0  0  0  0  0  0  0  0  0  0  0
  1  2  2  0
  2  3  1  0
  3  4  2  0
  4  5  1  0
  5  6  1  0
  6  7  1  0
  7  8  1  0
  8  9  1  0
  9 10  1  0
  8 11  1  0
 11 12  1  0
 12 13  1  0
 13 14  2  0
 13 15  1  0
 13 16  1  0
 11 17  1  0
 17 18  1  0
  5 19  1  0
 19 20  2  0
 19 21  1  0
 21  2  1  0
 17  6  1  0
  3 22  1  0
  4 23  1  0
  6 24  1  6
  8 25  1  6
  9 26  1  0
  9 27  1  0
 10 28  1  0
 11 29  1  1
 17 30  1  1
 18 31  1  0
 21 32  1  0
M  CHG  2  15  -1  16  -1
M  END
>  <meeko>  (7) 
{"is_sidechain": [false], "free_energy": -4.551, "intermolecular_energy": -6.366, "internal_energy": -0.309}

$$$$
1w4o_ligand
     RDKit          3D

 32 33  0  0  0  0  0  0  0  0999 V2000
   34.3220   -5.2830   11.6100 O   0  0  0  0  0  0  0  0  0  0  0  0
   35.1410   -4.3860   11.7790 C   0  0  0  0  0  0  0  0  0  0  0  0
   35.1110   -3.1650   10.9660 C   0  0  0  0  0  0  0  0  0  0  0  0
   36.0350   -2.2290   11.1850 C   0  0  0  0  0  0  0  0  0  0  0  0
   37.0360   -2.3700   12.1350 N   0  0  0  0  0  0  0  0  0  0  0  0
   37.9390   -1.2160   12.3470 C   0  0  2  0  0  0  0  0  0  0  0  0
   39.2630   -1.7270   12.6260 O   0  0  0  0  0  0  0  0  0  0  0  0
   40.0120   -0.6120   13.1890 C   0  0  2  0  0  0  0  0  0  0  0  0
   40.8420   -1.0980   14.3760 C   0  0  0  0  0  0  0  0  0  0  0  0
   40.1960   -2.0920   15.1660 O   0  0  0  0  0  0  0  0  0  0  0  0
   38.9990    0.4710   13.5860 C   0  0  1  0  0  0  0  0  0  0  0  0
   39.0240    1.4820   12.5860 O   0  0  0  0  0  0  0  0  0  0  0  0
   39.4220    2.9700   13.1480 P   0  0  0  0  0  0  0  0  0  0  0  0
   40.8950    2.8230   13.4790 O   0  0  0  0  0  0  0  0  0  0  0  0
   39.0940    3.8700   11.9710 O   0  0  0  0  0  0  0  0  0  0  0  0
   38.5020    3.1450   14.3510 O   0  0  0  0  0  0  0  0  0  0  0  0
   37.6630   -0.2350   13.4960 C   0  0  2  0  0  0  0  0  0  0  0  0
   37.3550   -0.9200   14.7260 O   0  0  0  0  0  0  0  0  0  0  0  0
   37.0760   -3.4800   12.9640 C   0  0  0  0  0  0  0  0  0  0  0  0
   37.8870   -3.6840   13.8650 O   0  0  0  0  0  0  0  0  0  0  0  0
   36.1210   -4.4380   12.7250 N   0  0  0  0  0  0  0  0  0  0  0  0
   34.3422   -3.0247   10.1919 H   0  0  0  0  0  0  0  0  0  0  0  0
   36.0022   -1.3062   10.5872 H   0  0  0  0  0  0  0  0  0  0  0  0
   37.7928   -0.6421   11.4200 H   0  0  0  0  0  0  0  0  0  0  0  0
   40.7194   -0.1879   12.4612 H   0  0  0  0  0  0  0  0  0  0  0  0
   41.7825   -1.5192   13.9912 H   0  0  0  0  0  0  0  0  0  0  0  0
   41.0038   -0.2277   15.0290 H   0  0  0  0  0  0  0  0  0  0  0  0
   40.9170   -2.6030   15.6610 H   0  0  0  0  0  0  0  0  0  0  0  0
   39.1971    0.9162   14.5722 H   0  0  0  0  0  0  0  0  0  0  0  0
   36.7988    0.4246   13.3282 H   0  0  0  0  0  0  0  0  0  0  0  0
   38.0320   -1.6230   14.7720 H   0  0  0  0  0  0  0  0  0  0  0  0
   36.1600   -5.2540   13.3110 H   0  0  0  0  0  0  0  0  0  0  0  0
  1  2  2  0
  2  3  1  0
  3  4  2  0
  4  5  1  0
  5  6  1  0
  6  7  1  0
  7  8  1  0
  8  9  1  0
  9 10  1  0
  8 11  1  0
 11 12  1  0
 12 13  1  0
 13 14  2  0
 13 15  1  0
 13 16  1  0
 11 17  1  0
 17 18  1  0
  5 19  1  0
 19 20  2  0
 19 21  1  0
 21  2  1  0
 17  6  1  0
  3 22  1  0
  4 23  1  0
  6 24  1  6
  8 25  1  6
  9 26  1  0
  9 27  1  0
 10 28  1  0
 11 29  1  1
 17 30  1  6
 18 31  1  0
 21 32  1  0
M  CHG  2  15  -1  16  -1
M  END
>  <meeko>  (8) 
{"is_sidechain": [false], "free_energy": -4.45, "intermolecular_energy": -5.847, "internal_energy": -0.698}

$$$$
1w4o_ligand
     RDKit          3D

 32 33  0  0  0  0  0  0  0  0999 V2000
   34.2340   -4.8080   11.9500 O   0  0  0  0  0  0  0  0  0  0  0  0
   35.1020   -3.9630   12.1410 C   0  0  0  0  0  0  0  0  0  0  0  0
   35.4580   -2.9910   11.1010 C   0  0  0  0  0  0  0  0  0  0  0  0
   36.4200   -2.1040   11.3590 C   0  0  0  0  0  0  0  0  0  0  0  0
   37.1120   -2.0750   12.5620 N   0  0  0  0  0  0  0  0  0  0  0  0
   38.0870   -0.9780   12.7580 C   0  0  2  0  0  0  0  0  0  0  0  0
   38.5150   -0.5190   11.4560 O   0  0  0  0  0  0  0  0  0  0  0  0
   39.7190    0.2690   11.6860 C   0  0  2  0  0  0  0  0  0  0  0  0
   40.7640   -0.0670   10.6230 C   0  0  0  0  0  0  0  0  0  0  0  0
   40.6530   -1.3880   10.1000 O   0  0  0  0  0  0  0  0  0  0  0  0
   40.2080   -0.0390   13.1070 C   0  0  1  0  0  0  0  0  0  0  0  0
   39.8240    1.0420   13.9470 O   0  0  0  0  0  0  0  0  0  0  0  0
   41.0030    1.5520   14.9650 P   0  0  0  0  0  0  0  0  0  0  0  0
   41.2240    2.9900   14.5340 O   0  0  0  0  0  0  0  0  0  0  0  0
   40.3720    1.3590   16.3310 O   0  0  0  0  0  0  0  0  0  0  0  0
   42.1570    0.6010   14.6640 O   0  0  0  0  0  0  0  0  0  0  0  0
   39.3960   -1.2500   13.5130 C   0  0  2  0  0  0  0  0  0  0  0  0
   40.0270   -2.4680   13.0730 O   0  0  0  0  0  0  0  0  0  0  0  0
   36.7780   -2.9370   13.5930 C   0  0  0  0  0  0  0  0  0  0  0  0
   37.2920   -2.9670   14.7090 O   0  0  0  0  0  0  0  0  0  0  0  0
   35.7890   -3.8480   13.3120 N   0  0  0  0  0  0  0  0  0  0  0  0
   34.9424   -2.9938   10.1293 H   0  0  0  0  0  0  0  0  0  0  0  0
   36.6758   -1.3643   10.5860 H   0  0  0  0  0  0  0  0  0  0  0  0
   37.5167   -0.2794   13.3879 H   0  0  0  0  0  0  0  0  0  0  0  0
   39.5210    1.3479   11.6043 H   0  0  0  0  0  0  0  0  0  0  0  0
   40.6534    0.6448    9.7917 H   0  0  0  0  0  0  0  0  0  0  0  0
   41.7478    0.0014   11.1102 H   0  0  0  0  0  0  0  0  0  0  0  0
   41.5860   -1.6970    9.8550 H   0  0  0  0  0  0  0  0  0  0  0  0
   41.2950   -0.1945   13.1720 H   0  0  0  0  0  0  0  0  0  0  0  0
   39.2718   -1.3842   14.5977 H   0  0  0  0  0  0  0  0  0  0  0  0
   39.5280   -2.7070   12.2680 H   0  0  0  0  0  0  0  0  0  0  0  0
   35.5570   -4.4890   14.0520 H   0  0  0  0  0  0  0  0  0  0  0  0
  1  2  2  0
  2  3  1  0
  3  4  2  0
  4  5  1  0
  5  6  1  0
  6  7  1  0
  7  8  1  0
  8  9  1  0
  9 10  1  0
  8 11  1  0
 11 12  1  0
 12 13  1  0
 13 14  2  0
 13 15  1  0
 13 16  1  0
 11 17  1  0
 17 18  1  0
  5 19  1  0
 19 20  2  0
 19 21  1  0
 21  2  1  0
 17  6  1  0
  3 22  1  0
  4 23  1  0
  6 24  1  1
  8 25  1  1
  9 26  1  0
  9 27  1  0
 10 28  1  0
 11 29  1  6
 17 30  1  1
 18 31  1  0
 21 32  1  0
M  CHG  2  15  -1  16  -1
M  END
>  <meeko>  (9) 
{"is_sidechain": [false], "free_energy": -4.31, "intermolecular_energy": -5.828, "internal_energy": -0.535}

$$$$
