3myg_ligand
     RDKit          3D

 57 60  0  0  0  0  0  0  0  0999 V2000
  -12.2680   21.3670   81.6170 C   0  0  0  0  0  0  0  0  0  0  0  0
  -11.6760   22.1890   80.4830 C   0  0  0  0  0  0  0  0  0  0  0  0
  -11.0040   21.3000   79.4590 N   0  0  2  0  0  0  0  0  0  0  0  0
   -9.5820   21.8050   79.1320 C   0  0  0  0  0  0  0  0  0  0  0  0
   -9.2690   23.0720   79.8830 C   0  0  0  0  0  0  0  0  0  0  0  0
   -9.4290   24.4080   79.4020 C   0  0  0  0  0  0  0  0  0  0  0  0
   -9.0460   25.3420   80.3510 C   0  0  0  0  0  0  0  0  0  0  0  0
   -9.0780   26.6900   80.2010 N   0  0  0  0  0  0  0  0  0  0  0  0
   -8.1230   27.6580   80.4720 C   0  0  0  0  0  0  0  0  0  0  0  0
   -7.8650   28.1040   81.6790 N   0  0  0  0  0  0  0  0  0  0  0  0
   -6.8910   29.0760   81.8620 C   0  0  0  0  0  0  0  0  0  0  0  0
   -6.6810   29.5110   83.2850 C   0  0  0  0  0  0  0  0  0  0  0  0
   -6.1750   29.6050   80.8510 C   0  0  0  0  0  0  0  0  0  0  0  0
   -6.4150   29.1640   79.5630 N   0  0  0  0  0  0  0  0  0  0  0  0
   -5.8950   29.4670   78.3240 C   0  0  0  0  0  0  0  0  0  0  0  0
   -4.7870   30.4730   77.9220 C   0  0  0  0  0  0  0  0  0  0  0  0
   -4.3340   30.7660   76.6160 C   0  0  0  0  0  0  0  0  0  0  0  0
   -3.3650   31.6830   76.6040 N   0  0  0  0  0  0  0  0  0  0  0  0
   -3.1950   31.9790   77.9010 N   0  0  0  0  0  0  0  0  0  0  0  0
   -4.0260   31.2780   78.7330 C   0  0  0  0  0  0  0  0  0  0  0  0
   -6.5870   28.6530   77.4430 C   0  0  0  0  0  0  0  0  0  0  0  0
   -7.5090   27.8660   78.0890 N   0  0  0  0  0  0  0  0  0  0  0  0
   -7.3710   28.2050   79.3530 C   0  0  0  0  0  0  0  0  0  0  0  0
   -8.5270   24.4670   81.7400 S   0  0  0  0  0  0  0  0  0  0  0  0
   -8.7930   22.9500   81.1250 N   0  0  0  0  0  0  0  0  0  0  0  0
  -11.8730   20.9120   78.2300 C   0  0  0  0  0  0  0  0  0  0  0  0
  -10.9630   20.6720   77.0080 C   0  0  0  0  0  0  0  0  0  0  0  0
  -12.5740   19.5720   78.5340 C   0  0  0  0  0  0  0  0  0  0  0  0
  -12.9320   22.0100   77.9340 C   0  0  0  0  0  0  0  0  0  0  0  0
  -12.6200   22.7310   76.7440 O   0  0  0  0  0  0  0  0  0  0  0  0
  -11.9587   21.7964   82.5814 H   0  0  0  0  0  0  0  0  0  0  0  0
  -13.3656   21.3799   81.5450 H   0  0  0  0  0  0  0  0  0  0  0  0
  -11.9079   20.3301   81.5450 H   0  0  0  0  0  0  0  0  0  0  0  0
  -12.4805   22.7570   79.9929 H   0  0  0  0  0  0  0  0  0  0  0  0
  -10.9216   22.8709   80.9025 H   0  0  0  0  0  0  0  0  0  0  0  0
  -10.7970   20.4030   79.9360 H   0  0  0  0  0  0  0  0  0  0  0  0
   -8.8527   21.0312   79.4137 H   0  0  0  0  0  0  0  0  0  0  0  0
   -9.5262   22.0159   78.0538 H   0  0  0  0  0  0  0  0  0  0  0  0
   -9.8092   24.6634   78.4019 H   0  0  0  0  0  0  0  0  0  0  0  0
   -9.9250   27.1170   79.8260 H   0  0  0  0  0  0  0  0  0  0  0  0
   -7.0567   28.7327   83.9656 H   0  0  0  0  0  0  0  0  0  0  0  0
   -5.6075   29.6689   83.4655 H   0  0  0  0  0  0  0  0  0  0  0  0
   -7.2251   30.4498   83.4655 H   0  0  0  0  0  0  0  0  0  0  0  0
   -5.4132   30.3739   81.0468 H   0  0  0  0  0  0  0  0  0  0  0  0
   -4.7360   30.2905   75.7092 H   0  0  0  0  0  0  0  0  0  0  0  0
   -2.4920   32.6700   78.1480 H   0  0  0  0  0  0  0  0  0  0  0  0
   -4.0742   31.3460   79.8298 H   0  0  0  0  0  0  0  0  0  0  0  0
   -6.4185   28.6384   76.3561 H   0  0  0  0  0  0  0  0  0  0  0  0
   -9.9522   20.4054   77.3503 H   0  0  0  0  0  0  0  0  0  0  0  0
  -11.3730   19.8513   76.4011 H   0  0  0  0  0  0  0  0  0  0  0  0
  -10.9149   21.5882   76.4011 H   0  0  0  0  0  0  0  0  0  0  0  0
  -12.6459   19.4346   79.6230 H   0  0  0  0  0  0  0  0  0  0  0  0
  -13.5838   19.5792   78.0979 H   0  0  0  0  0  0  0  0  0  0  0  0
  -11.9922   18.7466   78.0979 H   0  0  0  0  0  0  0  0  0  0  0  0
  -13.9166   21.5340   77.8156 H   0  0  0  0  0  0  0  0  0  0  0  0
  -12.9378   22.7189   78.7750 H   0  0  0  0  0  0  0  0  0  0  0  0
  -13.3460   23.3680   76.5950 H   0  0  0  0  0  0  0  0  0  0  0  0
  1  2  1  0
  2  3  1  0
  3  4  1  0
  4  5  1  0
  5  6  1  0
  6  7  2  0
  7  8  1  0
  8  9  1  0
  9 10  2  0
 10 11  1  0
 11 12  1  0
 11 13  2  0
 13 14  1  0
 14 15  1  0
 15 16  1  0
 16 17  1  0
 17 18  2  0
 18 19  1  0
 19 20  1  0
 15 21  2  0
 21 22  1  0
 22 23  2  0
  7 24  1  0
 24 25  1  0
  3 26  1  0
 26 27  1  0
 26 28  1  0
 26 29  1  0
 29 30  1  0
 25  5  2  0
 23  9  1  0
 23 14  1  0
 20 16  2  0
  1 31  1  0
  1 32  1  0
  1 33  1  0
  2 34  1  0
  2 35  1  0
  3 36  1  1
  4 37  1  0
  4 38  1  0
  6 39  1  0
  8 40  1  0
 12 41  1  0
 12 42  1  0
 12 43  1  0
 13 44  1  0
 17 45  1  0
 19 46  1  0
 20 47  1  0
 21 48  1  0
 27 49  1  0
 27 50  1  0
 27 51  1  0
 28 52  1  0
 28 53  1  0
 28 54  1  0
 29 55  1  0
 29 56  1  0
 30 57  1  0
M  CHG  1   3   1
M  END
>  <meeko>  (1) 
{"is_sidechain": [false], "free_energy": -8.59, "intermolecular_energy": -12.859, "internal_energy": -0.369}

$$$$
3myg_ligand
     RDKit          3D

 57 60  0  0  0  0  0  0  0  0999 V2000
  -11.9000   22.1720   82.2000 C   0  0  0  0  0  0  0  0  0  0  0  0
  -11.5760   22.7270   80.8220 C   0  0  0  0  0  0  0  0  0  0  0  0
  -10.9250   21.6750   79.9500 N   0  0  2  0  0  0  0  0  0  0  0  0
   -9.4280   21.9820   79.7330 C   0  0  0  0  0  0  0  0  0  0  0  0
   -9.1080   23.4080   80.0930 C   0  0  0  0  0  0  0  0  0  0  0  0
   -9.2370   24.5510   79.2440 C   0  0  0  0  0  0  0  0  0  0  0  0
   -8.8550   25.7140   79.8910 C   0  0  0  0  0  0  0  0  0  0  0  0
   -8.8620   26.9620   79.3580 N   0  0  0  0  0  0  0  0  0  0  0  0
   -7.8980   27.6450   78.6310 C   0  0  0  0  0  0  0  0  0  0  0  0
   -7.7050   27.4750   77.3440 N   0  0  0  0  0  0  0  0  0  0  0  0
   -6.7170   28.2010   76.6940 C   0  0  0  0  0  0  0  0  0  0  0  0
   -6.5850   27.9260   75.2220 C   0  0  0  0  0  0  0  0  0  0  0  0
   -5.9240   29.0940   77.3170 C   0  0  0  0  0  0  0  0  0  0  0  0
   -6.0940   29.3040   78.6730 N   0  0  0  0  0  0  0  0  0  0  0  0
   -5.4870   30.1100   79.6100 C   0  0  0  0  0  0  0  0  0  0  0  0
   -4.3280   31.1280   79.4570 C   0  0  0  0  0  0  0  0  0  0  0  0
   -3.6900   31.8550   80.4860 C   0  0  0  0  0  0  0  0  0  0  0  0
   -2.7240   32.6520   80.0260 N   0  0  0  0  0  0  0  0  0  0  0  0
   -2.7420   32.4390   78.7020 N   0  0  0  0  0  0  0  0  0  0  0  0
   -3.6890   31.5310   78.3100 C   0  0  0  0  0  0  0  0  0  0  0  0
   -6.1460   29.8290   80.7960 C   0  0  0  0  0  0  0  0  0  0  0  0
   -7.1280   28.8850   80.6240 N   0  0  0  0  0  0  0  0  0  0  0  0
   -7.0610   28.6010   79.3410 C   0  0  0  0  0  0  0  0  0  0  0  0
   -8.3750   25.2720   81.4840 S   0  0  0  0  0  0  0  0  0  0  0  0
   -8.6550   23.6450   81.3280 N   0  0  0  0  0  0  0  0  0  0  0  0
  -11.7160   21.2760   78.6730 C   0  0  0  0  0  0  0  0  0  0  0  0
  -10.7300   20.8860   77.5540 C   0  0  0  0  0  0  0  0  0  0  0  0
  -12.5500   20.0180   78.9910 C   0  0  0  0  0  0  0  0  0  0  0  0
  -12.6510   22.4310   78.2180 C   0  0  0  0  0  0  0  0  0  0  0  0
  -12.6480   22.5800   76.7990 O   0  0  0  0  0  0  0  0  0  0  0  0
  -11.5043   22.8499   82.9706 H   0  0  0  0  0  0  0  0  0  0  0  0
  -12.9907   22.0851   82.3131 H   0  0  0  0  0  0  0  0  0  0  0  0
  -11.4394   21.1795   82.3131 H   0  0  0  0  0  0  0  0  0  0  0  0
  -12.5067   23.0650   80.3429 H   0  0  0  0  0  0  0  0  0  0  0  0
  -10.8747   23.5662   80.9395 H   0  0  0  0  0  0  0  0  0  0  0  0
  -10.8760   20.8090   80.5170 H   0  0  0  0  0  0  0  0  0  0  0  0
   -8.8285   21.3093   80.3639 H   0  0  0  0  0  0  0  0  0  0  0  0
   -9.1913   21.8292   78.6697 H   0  0  0  0  0  0  0  0  0  0  0  0
   -9.5955   24.5114   78.2048 H   0  0  0  0  0  0  0  0  0  0  0  0
   -9.6940   27.5390   79.4820 H   0  0  0  0  0  0  0  0  0  0  0  0
   -6.1134   26.9434   75.0734 H   0  0  0  0  0  0  0  0  0  0  0  0
   -7.5822   27.9280   74.7577 H   0  0  0  0  0  0  0  0  0  0  0  0
   -5.9628   28.7053   74.7577 H   0  0  0  0  0  0  0  0  0  0  0  0
   -5.1550   29.6463   76.7570 H   0  0  0  0  0  0  0  0  0  0  0  0
   -3.9597   31.7732   81.5493 H   0  0  0  0  0  0  0  0  0  0  0  0
   -2.0790   32.9470   78.1240 H   0  0  0  0  0  0  0  0  0  0  0  0
   -3.8961   31.1928   77.2840 H   0  0  0  0  0  0  0  0  0  0  0  0
   -5.9107   30.3049   81.7594 H   0  0  0  0  0  0  0  0  0  0  0  0
   -9.7954   20.5163   78.0012 H   0  0  0  0  0  0  0  0  0  0  0  0
  -11.1758   20.0965   76.9312 H   0  0  0  0  0  0  0  0  0  0  0  0
  -10.5151   21.7669   76.9312 H   0  0  0  0  0  0  0  0  0  0  0  0
  -12.6301   19.8972   80.0814 H   0  0  0  0  0  0  0  0  0  0  0  0
  -13.5559   20.1261   78.5592 H   0  0  0  0  0  0  0  0  0  0  0  0
  -12.0587   19.1336   78.5592 H   0  0  0  0  0  0  0  0  0  0  0  0
  -13.6762   22.2133   78.5521 H   0  0  0  0  0  0  0  0  0  0  0  0
  -12.2837   23.3673   78.6634 H   0  0  0  0  0  0  0  0  0  0  0  0
  -13.2410   21.8930   76.4370 H   0  0  0  0  0  0  0  0  0  0  0  0
  1  2  1  0
  2  3  1  0
  3  4  1  0
  4  5  1  0
  5  6  1  0
  6  7  2  0
  7  8  1  0
  8  9  1  0
  9 10  2  0
 10 11  1  0
 11 12  1  0
 11 13  2  0
 13 14  1  0
 14 15  1  0
 15 16  1  0
 16 17  1  0
 17 18  2  0
 18 19  1  0
 19 20  1  0
 15 21  2  0
 21 22  1  0
 22 23  2  0
  7 24  1  0
 24 25  1  0
  3 26  1  0
 26 27  1  0
 26 28  1  0
 26 29  1  0
 29 30  1  0
 25  5  2  0
 23  9  1  0
 23 14  1  0
 20 16  2  0
  1 31  1  0
  1 32  1  0
  1 33  1  0
  2 34  1  0
  2 35  1  0
  3 36  1  1
  4 37  1  0
  4 38  1  0
  6 39  1  0
  8 40  1  0
 12 41  1  0
 12 42  1  0
 12 43  1  0
 13 44  1  0
 17 45  1  0
 19 46  1  0
 20 47  1  0
 21 48  1  0
 27 49  1  0
 27 50  1  0
 27 51  1  0
 28 52  1  0
 28 53  1  0
 28 54  1  0
 29 55  1  0
 29 56  1  0
 30 57  1  0
M  CHG  1   3   1
M  END
>  <meeko>  (2) 
{"is_sidechain": [false], "free_energy": -8.585, "intermolecular_energy": -12.643, "internal_energy": -0.577}

$$$$
3myg_ligand
     RDKit          3D

 57 60  0  0  0  0  0  0  0  0999 V2000
   -7.8370   21.8870   79.8550 C   0  0  0  0  0  0  0  0  0  0  0  0
   -9.0630   21.1680   80.3920 C   0  0  0  0  0  0  0  0  0  0  0  0
  -10.1840   22.1430   80.6830 N   0  0  2  0  0  0  0  0  0  0  0  0
  -10.0550   22.7310   82.1040 C   0  0  0  0  0  0  0  0  0  0  0  0
   -9.5680   24.1550   82.0620 C   0  0  0  0  0  0  0  0  0  0  0  0
   -9.7580   25.0870   80.9960 C   0  0  0  0  0  0  0  0  0  0  0  0
   -9.1810   26.3140   81.2820 C   0  0  0  0  0  0  0  0  0  0  0  0
   -9.1860   27.4050   80.4750 N   0  0  0  0  0  0  0  0  0  0  0  0
   -8.2500   27.8650   79.5620 C   0  0  0  0  0  0  0  0  0  0  0  0
   -8.1990   27.4670   78.3130 N   0  0  0  0  0  0  0  0  0  0  0  0
   -7.2270   27.9790   77.4650 C   0  0  0  0  0  0  0  0  0  0  0  0
   -7.2640   27.4530   76.0570 C   0  0  0  0  0  0  0  0  0  0  0  0
   -6.3090   28.8850   77.8540 C   0  0  0  0  0  0  0  0  0  0  0  0
   -6.3270   29.3320   79.1620 N   0  0  0  0  0  0  0  0  0  0  0  0
   -5.5690   30.2220   79.8900 C   0  0  0  0  0  0  0  0  0  0  0  0
   -4.3550   31.0870   79.4650 C   0  0  0  0  0  0  0  0  0  0  0  0
   -3.4840   31.8080   80.3120 C   0  0  0  0  0  0  0  0  0  0  0  0
   -2.5330   32.4560   79.6350 N   0  0  0  0  0  0  0  0  0  0  0  0
   -2.7930   32.1500   78.3550 N   0  0  0  0  0  0  0  0  0  0  0  0
   -3.8780   31.3300   78.2010 C   0  0  0  0  0  0  0  0  0  0  0  0
   -6.1260   30.2040   81.1580 C   0  0  0  0  0  0  0  0  0  0  0  0
   -7.1910   29.3400   81.2370 N   0  0  0  0  0  0  0  0  0  0  0  0
   -7.2750   28.8420   80.0220 C   0  0  0  0  0  0  0  0  0  0  0  0
   -8.4640   26.1840   82.8410 S   0  0  0  0  0  0  0  0  0  0  0  0
   -8.8890   24.6050   83.1210 N   0  0  0  0  0  0  0  0  0  0  0  0
  -11.6090   21.6690   80.2840 C   0  0  0  0  0  0  0  0  0  0  0  0
  -11.5060   20.4210   79.3830 C   0  0  0  0  0  0  0  0  0  0  0  0
  -12.3540   21.2340   81.5630 C   0  0  0  0  0  0  0  0  0  0  0  0
  -12.3930   22.8080   79.5740 C   0  0  0  0  0  0  0  0  0  0  0  0
  -11.6640   23.3340   78.4660 O   0  0  0  0  0  0  0  0  0  0  0  0
   -7.2249   22.2459   80.6956 H   0  0  0  0  0  0  0  0  0  0  0  0
   -7.2449   21.1931   79.2403 H   0  0  0  0  0  0  0  0  0  0  0  0
   -8.1536   22.7425   79.2403 H   0  0  0  0  0  0  0  0  0  0  0  0
   -9.4071   20.4379   79.6447 H   0  0  0  0  0  0  0  0  0  0  0  0
   -8.7883   20.6623   81.3294 H   0  0  0  0  0  0  0  0  0  0  0  0
  -10.0060   22.9800   80.0990 H   0  0  0  0  0  0  0  0  0  0  0  0
  -11.0391   22.7027   82.5947 H   0  0  0  0  0  0  0  0  0  0  0  0
   -9.3244   22.1295   82.6648 H   0  0  0  0  0  0  0  0  0  0  0  0
  -10.2956   24.8589   80.0638 H   0  0  0  0  0  0  0  0  0  0  0  0
   -9.9950   28.0260   80.5040 H   0  0  0  0  0  0  0  0  0  0  0  0
   -7.3412   26.3559   76.0774 H   0  0  0  0  0  0  0  0  0  0  0  0
   -8.1349   27.8722   75.5318 H   0  0  0  0  0  0  0  0  0  0  0  0
   -6.3430   27.7461   75.5318 H   0  0  0  0  0  0  0  0  0  0  0  0
   -5.5586   29.2623   77.1436 H   0  0  0  0  0  0  0  0  0  0  0  0
   -3.5788   31.8328   81.4076 H   0  0  0  0  0  0  0  0  0  0  0  0
   -2.1880   32.5360   77.6370 H   0  0  0  0  0  0  0  0  0  0  0  0
   -4.2855   30.9436   77.2551 H   0  0  0  0  0  0  0  0  0  0  0  0
   -5.7596   30.8089   82.0005 H   0  0  0  0  0  0  0  0  0  0  0  0
  -11.4317   19.5207   80.0107 H   0  0  0  0  0  0  0  0  0  0  0  0
  -12.4015   20.3523   78.7479 H   0  0  0  0  0  0  0  0  0  0  0  0
  -10.6113   20.5001   78.7479 H   0  0  0  0  0  0  0  0  0  0  0  0
  -11.7886   21.5641   82.4469 H   0  0  0  0  0  0  0  0  0  0  0  0
  -13.3552   21.6895   81.5770 H   0  0  0  0  0  0  0  0  0  0  0  0
  -12.4494   20.1382   81.5770 H   0  0  0  0  0  0  0  0  0  0  0  0
  -13.3530   22.4100   79.2135 H   0  0  0  0  0  0  0  0  0  0  0  0
  -12.5525   23.6202   80.2985 H   0  0  0  0  0  0  0  0  0  0  0  0
  -11.3260   24.2100   78.7360 H   0  0  0  0  0  0  0  0  0  0  0  0
  1  2  1  0
  2  3  1  0
  3  4  1  0
  4  5  1  0
  5  6  1  0
  6  7  2  0
  7  8  1  0
  8  9  1  0
  9 10  2  0
 10 11  1  0
 11 12  1  0
 11 13  2  0
 13 14  1  0
 14 15  1  0
 15 16  1  0
 16 17  1  0
 17 18  2  0
 18 19  1  0
 19 20  1  0
 15 21  2  0
 21 22  1  0
 22 23  2  0
  7 24  1  0
 24 25  1  0
  3 26  1  0
 26 27  1  0
 26 28  1  0
 26 29  1  0
 29 30  1  0
 25  5  2  0
 23  9  1  0
 23 14  1  0
 20 16  2  0
  1 31  1  0
  1 32  1  0
  1 33  1  0
  2 34  1  0
  2 35  1  0
  3 36  1  6
  4 37  1  0
  4 38  1  0
  6 39  1  0
  8 40  1  0
 12 41  1  0
 12 42  1  0
 12 43  1  0
 13 44  1  0
 17 45  1  0
 19 46  1  0
 20 47  1  0
 21 48  1  0
 27 49  1  0
 27 50  1  0
 27 51  1  0
 28 52  1  0
 28 53  1  0
 28 54  1  0
 29 55  1  0
 29 56  1  0
 30 57  1  0
M  CHG  1   3   1
M  END
>  <meeko>  (3) 
{"is_sidechain": [false], "free_energy": -8.49, "intermolecular_energy": -11.959, "internal_energy": -1.119}

$$$$
3myg_ligand
     RDKit          3D

 57 60  0  0  0  0  0  0  0  0999 V2000
  -11.6200   21.1290   77.9000 C   0  0  0  0  0  0  0  0  0  0  0  0
  -11.1880   20.8000   79.3200 C   0  0  0  0  0  0  0  0  0  0  0  0
  -11.0140   22.0590   80.1430 N   0  0  2  0  0  0  0  0  0  0  0  0
   -9.5650   22.1900   80.6570 C   0  0  0  0  0  0  0  0  0  0  0  0
   -9.1290   23.6310   80.6940 C   0  0  0  0  0  0  0  0  0  0  0  0
   -9.3540   24.6140   79.6810 C   0  0  0  0  0  0  0  0  0  0  0  0
   -8.8190   25.8430   80.0340 C   0  0  0  0  0  0  0  0  0  0  0  0
   -8.8660   26.9750   79.2890 N   0  0  0  0  0  0  0  0  0  0  0  0
   -7.8840   27.6190   78.5500 C   0  0  0  0  0  0  0  0  0  0  0  0
   -7.6650   27.3850   77.2780 N   0  0  0  0  0  0  0  0  0  0  0  0
   -6.6600   28.0750   76.6140 C   0  0  0  0  0  0  0  0  0  0  0  0
   -6.4980   27.7280   75.1600 C   0  0  0  0  0  0  0  0  0  0  0  0
   -5.8750   28.9940   77.2090 C   0  0  0  0  0  0  0  0  0  0  0  0
   -6.0720   29.2700   78.5500 N   0  0  0  0  0  0  0  0  0  0  0  0
   -5.4810   30.1180   79.4590 C   0  0  0  0  0  0  0  0  0  0  0  0
   -4.3130   31.1220   79.2820 C   0  0  0  0  0  0  0  0  0  0  0  0
   -3.6050   31.7960   80.3020 C   0  0  0  0  0  0  0  0  0  0  0  0
   -2.6520   32.5960   79.8200 N   0  0  0  0  0  0  0  0  0  0  0  0
   -2.7480   32.4370   78.4920 N   0  0  0  0  0  0  0  0  0  0  0  0
   -3.7310   31.5610   78.1180 C   0  0  0  0  0  0  0  0  0  0  0  0
   -6.1650   29.8980   80.6430 C   0  0  0  0  0  0  0  0  0  0  0  0
   -7.1490   28.9510   80.4970 N   0  0  0  0  0  0  0  0  0  0  0  0
   -7.0570   28.6040   79.2310 C   0  0  0  0  0  0  0  0  0  0  0  0
   -8.0940   25.6510   81.5830 S   0  0  0  0  0  0  0  0  0  0  0  0
   -8.4630   24.0460   81.7750 N   0  0  0  0  0  0  0  0  0  0  0  0
  -12.1240   22.3330   81.1950 C   0  0  0  0  0  0  0  0  0  0  0  0
  -12.7250   23.7350   80.9600 C   0  0  0  0  0  0  0  0  0  0  0  0
  -13.2640   21.3170   80.9770 C   0  0  0  0  0  0  0  0  0  0  0  0
  -11.5630   22.2000   82.6380 C   0  0  0  0  0  0  0  0  0  0  0  0
  -11.8070   20.9020   83.1770 O   0  0  0  0  0  0  0  0  0  0  0  0
  -12.4948   21.7952   77.9280 H   0  0  0  0  0  0  0  0  0  0  0  0
  -10.7947   21.6294   77.3723 H   0  0  0  0  0  0  0  0  0  0  0  0
  -11.8830   20.2004   77.3723 H   0  0  0  0  0  0  0  0  0  0  0  0
  -11.9540   20.1662   79.7907 H   0  0  0  0  0  0  0  0  0  0  0  0
  -10.2228   20.2740   79.2783 H   0  0  0  0  0  0  0  0  0  0  0  0
  -11.0690   22.8540   79.4800 H   0  0  0  0  0  0  0  0  0  0  0  0
   -9.5050   21.7707   81.6722 H   0  0  0  0  0  0  0  0  0  0  0  0
   -8.9012   21.6425   79.9717 H   0  0  0  0  0  0  0  0  0  0  0  0
   -9.8859   24.4193   78.7380 H   0  0  0  0  0  0  0  0  0  0  0  0
   -9.7500   27.4800   79.2260 H   0  0  0  0  0  0  0  0  0  0  0  0
   -6.0342   26.7346   75.0696 H   0  0  0  0  0  0  0  0  0  0  0  0
   -7.4844   27.7178   74.6734 H   0  0  0  0  0  0  0  0  0  0  0  0
   -5.8568   28.4777   74.6734 H   0  0  0  0  0  0  0  0  0  0  0  0
   -5.0918   29.5153   76.6390 H   0  0  0  0  0  0  0  0  0  0  0  0
   -3.8160   31.6747   81.3747 H   0  0  0  0  0  0  0  0  0  0  0  0
   -2.1090   32.9570   77.8980 H   0  0  0  0  0  0  0  0  0  0  0  0
   -4.0004   31.2679   77.0926 H   0  0  0  0  0  0  0  0  0  0  0  0
   -5.9465   30.4190   81.5868 H   0  0  0  0  0  0  0  0  0  0  0  0
  -12.9300   24.2132   81.9292 H   0  0  0  0  0  0  0  0  0  0  0  0
  -12.0112   24.3494   80.3917 H   0  0  0  0  0  0  0  0  0  0  0  0
  -13.6622   23.6416   80.3917 H   0  0  0  0  0  0  0  0  0  0  0  0
  -13.6444   20.9780   81.9519 H   0  0  0  0  0  0  0  0  0  0  0  0
  -14.0778   21.7948   80.4118 H   0  0  0  0  0  0  0  0  0  0  0  0
  -12.8827   20.4537   80.4118 H   0  0  0  0  0  0  0  0  0  0  0  0
  -10.4781   22.3802   82.6176 H   0  0  0  0  0  0  0  0  0  0  0  0
  -12.0712   22.9389   83.2750 H   0  0  0  0  0  0  0  0  0  0  0  0
  -12.7690   20.8330   83.3340 H   0  0  0  0  0  0  0  0  0  0  0  0
  1  2  1  0
  2  3  1  0
  3  4  1  0
  4  5  1  0
  5  6  1  0
  6  7  2  0
  7  8  1  0
  8  9  1  0
  9 10  2  0
 10 11  1  0
 11 12  1  0
 11 13  2  0
 13 14  1  0
 14 15  1  0
 15 16  1  0
 16 17  1  0
 17 18  2  0
 18 19  1  0
 19 20  1  0
 15 21  2  0
 21 22  1  0
 22 23  2  0
  7 24  1  0
 24 25  1  0
  3 26  1  0
 26 27  1  0
 26 28  1  0
 26 29  1  0
 29 30  1  0
 25  5  2  0
 23  9  1  0
 23 14  1  0
 20 16  2  0
  1 31  1  0
  1 32  1  0
  1 33  1  0
  2 34  1  0
  2 35  1  0
  3 36  1  6
  4 37  1  0
  4 38  1  0
  6 39  1  0
  8 40  1  0
 12 41  1  0
 12 42  1  0
 12 43  1  0
 13 44  1  0
 17 45  1  0
 19 46  1  0
 20 47  1  0
 21 48  1  0
 27 49  1  0
 27 50  1  0
 27 51  1  0
 28 52  1  0
 28 53  1  0
 28 54  1  0
 29 55  1  0
 29 56  1  0
 30 57  1  0
M  CHG  1   3   1
M  END
>  <meeko>  (4) 
{"is_sidechain": [false], "free_energy": -8.458, "intermolecular_energy": -12.255, "internal_energy": -0.775}

$$$$
3myg_ligand
     RDKit          3D

 57 60  0  0  0  0  0  0  0  0999 V2000
  -12.8660   20.9150   80.8670 C   0  0  0  0  0  0  0  0  0  0  0  0
  -13.4140   22.2350   80.3470 C   0  0  0  0  0  0  0  0  0  0  0  0
  -13.2170   23.3440   81.3590 N   0  0  2  0  0  0  0  0  0  0  0  0
  -12.0060   23.0540   82.2710 C   0  0  0  0  0  0  0  0  0  0  0  0
  -10.7920   23.8260   81.8260 C   0  0  0  0  0  0  0  0  0  0  0  0
  -10.7850   25.0490   81.0880 C   0  0  0  0  0  0  0  0  0  0  0  0
   -9.4950   25.4910   80.8430 C   0  0  0  0  0  0  0  0  0  0  0  0
   -9.1530   26.6170   80.1680 N   0  0  0  0  0  0  0  0  0  0  0  0
   -8.2120   27.5960   80.4510 C   0  0  0  0  0  0  0  0  0  0  0  0
   -7.9770   28.0470   81.6600 N   0  0  0  0  0  0  0  0  0  0  0  0
   -7.0160   29.0300   81.8540 C   0  0  0  0  0  0  0  0  0  0  0  0
   -6.8300   29.4710   83.2790 C   0  0  0  0  0  0  0  0  0  0  0  0
   -6.2900   29.5640   80.8520 C   0  0  0  0  0  0  0  0  0  0  0  0
   -6.5070   29.1170   79.5620 N   0  0  0  0  0  0  0  0  0  0  0  0
   -5.9720   29.4220   78.3300 C   0  0  0  0  0  0  0  0  0  0  0  0
   -4.8690   30.4390   77.9400 C   0  0  0  0  0  0  0  0  0  0  0  0
   -4.5020   30.8410   76.6370 C   0  0  0  0  0  0  0  0  0  0  0  0
   -3.5120   31.7360   76.6370 N   0  0  0  0  0  0  0  0  0  0  0  0
   -3.2430   31.9080   77.9400 N   0  0  0  0  0  0  0  0  0  0  0  0
   -4.0320   31.1500   78.7640 C   0  0  0  0  0  0  0  0  0  0  0  0
   -6.6430   28.5980   77.4410 C   0  0  0  0  0  0  0  0  0  0  0  0
   -7.5660   27.8040   78.0760 N   0  0  0  0  0  0  0  0  0  0  0  0
   -7.4500   28.1470   79.3400 C   0  0  0  0  0  0  0  0  0  0  0  0
   -8.4260   24.3440   81.5530 S   0  0  0  0  0  0  0  0  0  0  0  0
   -9.5940   23.3280   82.1460 N   0  0  0  0  0  0  0  0  0  0  0  0
  -14.5020   23.8270   82.0870 C   0  0  0  0  0  0  0  0  0  0  0  0
  -15.7230   23.0550   81.5480 C   0  0  0  0  0  0  0  0  0  0  0  0
  -14.3760   23.4720   83.5830 C   0  0  0  0  0  0  0  0  0  0  0  0
  -14.6900   25.3600   81.9180 C   0  0  0  0  0  0  0  0  0  0  0  0
  -14.7870   25.7290   80.5440 O   0  0  0  0  0  0  0  0  0  0  0  0
  -12.8698   20.9243   81.9670 H   0  0  0  0  0  0  0  0  0  0  0  0
  -13.4954   20.0887   80.5051 H   0  0  0  0  0  0  0  0  0  0  0  0
  -11.8364   20.7774   80.5051 H   0  0  0  0  0  0  0  0  0  0  0  0
  -12.8898   22.5001   79.4170 H   0  0  0  0  0  0  0  0  0  0  0  0
  -14.4922   22.1174   80.1633 H   0  0  0  0  0  0  0  0  0  0  0  0
  -12.8810   24.1690   80.8300 H   0  0  0  0  0  0  0  0  0  0  0  0
  -12.2564   23.3425   83.3025 H   0  0  0  0  0  0  0  0  0  0  0  0
  -11.7761   21.9798   82.2137 H   0  0  0  0  0  0  0  0  0  0  0  0
  -11.6920   25.5750   80.7552 H   0  0  0  0  0  0  0  0  0  0  0  0
   -9.6380   26.8280   79.2960 H   0  0  0  0  0  0  0  0  0  0  0  0
   -7.1667   28.6727   83.9568 H   0  0  0  0  0  0  0  0  0  0  0  0
   -5.7661   29.6825   83.4615 H   0  0  0  0  0  0  0  0  0  0  0  0
   -7.4212   30.3805   83.4615 H   0  0  0  0  0  0  0  0  0  0  0  0
   -5.5388   30.3410   81.0568 H   0  0  0  0  0  0  0  0  0  0  0  0
   -4.9795   30.4586   75.7228 H   0  0  0  0  0  0  0  0  0  0  0  0
   -2.5070   32.5590   78.1970 H   0  0  0  0  0  0  0  0  0  0  0  0
   -4.0013   31.1175   79.8631 H   0  0  0  0  0  0  0  0  0  0  0  0
   -6.4585   28.5818   76.3567 H   0  0  0  0  0  0  0  0  0  0  0  0
  -16.3198   22.6777   82.3915 H   0  0  0  0  0  0  0  0  0  0  0  0
  -16.3401   23.7274   80.9340 H   0  0  0  0  0  0  0  0  0  0  0  0
  -15.3802   22.2092   80.9340 H   0  0  0  0  0  0  0  0  0  0  0  0
  -14.6824   24.3354   84.1918 H   0  0  0  0  0  0  0  0  0  0  0  0
  -15.0243   22.6133   83.8120 H   0  0  0  0  0  0  0  0  0  0  0  0
  -13.3314   23.2142   83.8120 H   0  0  0  0  0  0  0  0  0  0  0  0
  -15.6112   25.6658   82.4356 H   0  0  0  0  0  0  0  0  0  0  0  0
  -13.8118   25.8637   82.3482 H   0  0  0  0  0  0  0  0  0  0  0  0
  -15.7220   25.9580   80.3740 H   0  0  0  0  0  0  0  0  0  0  0  0
  1  2  1  0
  2  3  1  0
  3  4  1  0
  4  5  1  0
  5  6  1  0
  6  7  2  0
  7  8  1  0
  8  9  1  0
  9 10  2  0
 10 11  1  0
 11 12  1  0
 11 13  2  0
 13 14  1  0
 14 15  1  0
 15 16  1  0
 16 17  1  0
 17 18  2  0
 18 19  1  0
 19 20  1  0
 15 21  2  0
 21 22  1  0
 22 23  2  0
  7 24  1  0
 24 25  1  0
  3 26  1  0
 26 27  1  0
 26 28  1  0
 26 29  1  0
 29 30  1  0
 25  5  2  0
 23  9  1  0
 23 14  1  0
 20 16  2  0
  1 31  1  0
  1 32  1  0
  1 33  1  0
  2 34  1  0
  2 35  1  0
  3 36  1  6
  4 37  1  0
  4 38  1  0
  6 39  1  0
  8 40  1  0
 12 41  1  0
 12 42  1  0
 12 43  1  0
 13 44  1  0
 17 45  1  0
 19 46  1  0
 20 47  1  0
 21 48  1  0
 27 49  1  0
 27 50  1  0
 27 51  1  0
 28 52  1  0
 28 53  1  0
 28 54  1  0
 29 55  1  0
 29 56  1  0
 30 57  1  0
M  CHG  1   3   1
M  END
>  <meeko>  (5) 
{"is_sidechain": [false], "free_energy": -8.373, "intermolecular_energy": -11.975, "internal_energy": -0.928}

$$$$
3myg_ligand
     RDKit          3D

 57 60  0  0  0  0  0  0  0  0999 V2000
   -8.7130   22.0540   79.3830 C   0  0  0  0  0  0  0  0  0  0  0  0
   -9.8510   21.2580   80.0040 C   0  0  0  0  0  0  0  0  0  0  0  0
  -10.9930   22.1660   80.4090 N   0  0  2  0  0  0  0  0  0  0  0  0
  -10.8870   22.5600   81.8970 C   0  0  0  0  0  0  0  0  0  0  0  0
  -10.0820   23.8210   82.0700 C   0  0  0  0  0  0  0  0  0  0  0  0
  -10.2020   25.0190   81.3010 C   0  0  0  0  0  0  0  0  0  0  0  0
   -9.3080   25.9890   81.7230 C   0  0  0  0  0  0  0  0  0  0  0  0
   -9.1730   27.2320   81.1970 N   0  0  0  0  0  0  0  0  0  0  0  0
   -8.1340   28.1480   81.2800 C   0  0  0  0  0  0  0  0  0  0  0  0
   -7.7180   28.6710   82.4080 N   0  0  0  0  0  0  0  0  0  0  0  0
   -6.6700   29.5810   82.4000 C   0  0  0  0  0  0  0  0  0  0  0  0
   -6.2760   30.1160   83.7480 C   0  0  0  0  0  0  0  0  0  0  0  0
   -6.0370   29.9710   81.2760 C   0  0  0  0  0  0  0  0  0  0  0  0
   -6.4450   29.4440   80.0650 N   0  0  0  0  0  0  0  0  0  0  0  0
   -6.0450   29.6050   78.7570 C   0  0  0  0  0  0  0  0  0  0  0  0
   -4.9270   30.4910   78.1520 C   0  0  0  0  0  0  0  0  0  0  0  0
   -4.6560   30.7050   76.7820 C   0  0  0  0  0  0  0  0  0  0  0  0
   -3.6210   31.5250   76.5880 N   0  0  0  0  0  0  0  0  0  0  0  0
   -3.2270   31.8370   77.8320 N   0  0  0  0  0  0  0  0  0  0  0  0
   -3.9800   31.2400   78.8070 C   0  0  0  0  0  0  0  0  0  0  0  0
   -6.8810   28.7730   78.0290 C   0  0  0  0  0  0  0  0  0  0  0  0
   -7.7750   28.1120   78.8360 N   0  0  0  0  0  0  0  0  0  0  0  0
   -7.4770   28.5430   80.0430 C   0  0  0  0  0  0  0  0  0  0  0  0
   -8.4120   25.3150   83.0290 S   0  0  0  0  0  0  0  0  0  0  0  0
   -9.1590   23.8350   83.0350 N   0  0  0  0  0  0  0  0  0  0  0  0
  -12.4050   21.7230   79.9340 C   0  0  0  0  0  0  0  0  0  0  0  0
  -12.3030   20.3690   79.2020 C   0  0  0  0  0  0  0  0  0  0  0  0
  -13.2870   21.4910   81.1790 C   0  0  0  0  0  0  0  0  0  0  0  0
  -13.0470   22.8060   79.0220 C   0  0  0  0  0  0  0  0  0  0  0  0
  -12.1730   23.1810   77.9600 O   0  0  0  0  0  0  0  0  0  0  0  0
   -8.0918   22.4885   80.1801 H   0  0  0  0  0  0  0  0  0  0  0  0
   -8.0974   21.3886   78.7600 H   0  0  0  0  0  0  0  0  0  0  0  0
   -9.1270   22.8605   78.7600 H   0  0  0  0  0  0  0  0  0  0  0  0
  -10.2179   20.5241   79.2713 H   0  0  0  0  0  0  0  0  0  0  0  0
   -9.4724   20.7500   80.9032 H   0  0  0  0  0  0  0  0  0  0  0  0
  -10.8260   23.0770   79.9440 H   0  0  0  0  0  0  0  0  0  0  0  0
  -11.8983   22.7219   82.2983 H   0  0  0  0  0  0  0  0  0  0  0  0
  -10.3810   21.7466   82.4377 H   0  0  0  0  0  0  0  0  0  0  0  0
  -10.9163   25.1543   80.4755 H   0  0  0  0  0  0  0  0  0  0  0  0
   -9.9370   27.6080   80.6350 H   0  0  0  0  0  0  0  0  0  0  0  0
   -6.7315   29.4975   84.5354 H   0  0  0  0  0  0  0  0  0  0  0  0
   -5.1809   30.0884   83.8476 H   0  0  0  0  0  0  0  0  0  0  0  0
   -6.6273   31.1536   83.8476 H   0  0  0  0  0  0  0  0  0  0  0  0
   -5.2106   30.6956   81.3214 H   0  0  0  0  0  0  0  0  0  0  0  0
   -5.2339   30.2467   75.9659 H   0  0  0  0  0  0  0  0  0  0  0  0
   -2.4360   32.4630   77.9420 H   0  0  0  0  0  0  0  0  0  0  0  0
   -3.8525   31.3399   79.8950 H   0  0  0  0  0  0  0  0  0  0  0  0
   -6.8343   28.6560   76.9362 H   0  0  0  0  0  0  0  0  0  0  0  0
  -12.2418   19.5564   79.9409 H   0  0  0  0  0  0  0  0  0  0  0  0
  -13.1928   20.2251   78.5716 H   0  0  0  0  0  0  0  0  0  0  0  0
  -11.4016   20.3600   78.5716 H   0  0  0  0  0  0  0  0  0  0  0  0
  -12.6874   21.6487   82.0877 H   0  0  0  0  0  0  0  0  0  0  0  0
  -14.1296   22.1981   81.1684 H   0  0  0  0  0  0  0  0  0  0  0  0
  -13.6726   20.4609   81.1684 H   0  0  0  0  0  0  0  0  0  0  0  0
  -13.9783   22.4064   78.5941 H   0  0  0  0  0  0  0  0  0  0  0  0
  -13.2478   23.6975   79.6343 H   0  0  0  0  0  0  0  0  0  0  0  0
  -11.5920   22.4160   77.7820 H   0  0  0  0  0  0  0  0  0  0  0  0
  1  2  1  0
  2  3  1  0
  3  4  1  0
  4  5  1  0
  5  6  1  0
  6  7  2  0
  7  8  1  0
  8  9  1  0
  9 10  2  0
 10 11  1  0
 11 12  1  0
 11 13  2  0
 13 14  1  0
 14 15  1  0
 15 16  1  0
 16 17  1  0
 17 18  2  0
 18 19  1  0
 19 20  1  0
 15 21  2  0
 21 22  1  0
 22 23  2  0
  7 24  1  0
 24 25  1  0
  3 26  1  0
 26 27  1  0
 26 28  1  0
 26 29  1  0
 29 30  1  0
 25  5  2  0
 23  9  1  0
 23 14  1  0
 20 16  2  0
  1 31  1  0
  1 32  1  0
  1 33  1  0
  2 34  1  0
  2 35  1  0
  3 36  1  6
  4 37  1  0
  4 38  1  0
  6 39  1  0
  8 40  1  0
 12 41  1  0
 12 42  1  0
 12 43  1  0
 13 44  1  0
 17 45  1  0
 19 46  1  0
 20 47  1  0
 21 48  1  0
 27 49  1  0
 27 50  1  0
 27 51  1  0
 28 52  1  0
 28 53  1  0
 28 54  1  0
 29 55  1  0
 29 56  1  0
 30 57  1  0
M  CHG  1   3   1
M  END
>  <meeko>  (6) 
{"is_sidechain": [false], "free_energy": -8.267, "intermolecular_energy": -11.921, "internal_energy": -0.823}

$$$$
3myg_ligand
     RDKit          3D

 57 60  0  0  0  0  0  0  0  0999 V2000
  -11.4490   20.5700   79.8670 C   0  0  0  0  0  0  0  0  0  0  0  0
  -12.3880   21.7420   79.6320 C   0  0  0  0  0  0  0  0  0  0  0  0
  -12.1040   22.8710   80.6010 N   0  0  2  0  0  0  0  0  0  0  0  0
  -10.7740   22.6390   81.3490 C   0  0  0  0  0  0  0  0  0  0  0  0
   -9.8870   23.8530   81.2700 C   0  0  0  0  0  0  0  0  0  0  0  0
  -10.1300   25.0360   80.5070 C   0  0  0  0  0  0  0  0  0  0  0  0
   -9.1090   25.9610   80.6580 C   0  0  0  0  0  0  0  0  0  0  0  0
   -9.0440   27.1800   80.0670 N   0  0  0  0  0  0  0  0  0  0  0  0
   -8.1010   27.7250   79.2080 C   0  0  0  0  0  0  0  0  0  0  0  0
   -8.0110   27.4120   77.9380 N   0  0  0  0  0  0  0  0  0  0  0  0
   -7.0360   28.0060   77.1480 C   0  0  0  0  0  0  0  0  0  0  0  0
   -7.0260   27.5730   75.7090 C   0  0  0  0  0  0  0  0  0  0  0  0
   -6.1520   28.9080   77.6180 C   0  0  0  0  0  0  0  0  0  0  0  0
   -6.2120   29.2660   78.9520 N   0  0  0  0  0  0  0  0  0  0  0  0
   -5.4960   30.1260   79.7550 C   0  0  0  0  0  0  0  0  0  0  0  0
   -4.2980   31.0500   79.4180 C   0  0  0  0  0  0  0  0  0  0  0  0
   -3.4680   31.7370   80.3310 C   0  0  0  0  0  0  0  0  0  0  0  0
   -2.5200   32.4530   79.7210 N   0  0  0  0  0  0  0  0  0  0  0  0
   -2.7430   32.2260   78.4180 N   0  0  0  0  0  0  0  0  0  0  0  0
   -3.8000   31.3900   78.1840 C   0  0  0  0  0  0  0  0  0  0  0  0
   -6.0810   30.0090   81.0060 C   0  0  0  0  0  0  0  0  0  0  0  0
   -7.1220   29.1140   81.0020 N   0  0  0  0  0  0  0  0  0  0  0  0
   -7.1640   28.6960   79.7550 C   0  0  0  0  0  0  0  0  0  0  0  0
   -7.9550   25.2670   81.7300 S   0  0  0  0  0  0  0  0  0  0  0  0
   -8.7540   23.8350   81.9780 N   0  0  0  0  0  0  0  0  0  0  0  0
  -13.3010   23.3130   81.4880 C   0  0  0  0  0  0  0  0  0  0  0  0
  -14.6180   22.7870   80.8800 C   0  0  0  0  0  0  0  0  0  0  0  0
  -13.1520   22.6500   82.8720 C   0  0  0  0  0  0  0  0  0  0  0  0
  -13.3340   24.8600   81.6410 C   0  0  0  0  0  0  0  0  0  0  0  0
  -13.6440   25.5020   80.4060 O   0  0  0  0  0  0  0  0  0  0  0  0
  -11.3227   20.4124   80.9483 H   0  0  0  0  0  0  0  0  0  0  0  0
  -11.8733   19.6631   79.4114 H   0  0  0  0  0  0  0  0  0  0  0  0
  -10.4714   20.7863   79.4114 H   0  0  0  0  0  0  0  0  0  0  0  0
  -12.2542   22.1089   78.6037 H   0  0  0  0  0  0  0  0  0  0  0  0
  -13.4213   21.3987   79.7886 H   0  0  0  0  0  0  0  0  0  0  0  0
  -11.8730   23.7020   80.0260 H   0  0  0  0  0  0  0  0  0  0  0  0
  -10.9896   22.4201   82.4052 H   0  0  0  0  0  0  0  0  0  0  0  0
  -10.2513   21.7939   80.8771 H   0  0  0  0  0  0  0  0  0  0  0  0
  -11.0180   25.1934   79.8772 H   0  0  0  0  0  0  0  0  0  0  0  0
   -9.7920   27.8490   80.2490 H   0  0  0  0  0  0  0  0  0  0  0  0
   -7.0006   26.4745   75.6568 H   0  0  0  0  0  0  0  0  0  0  0  0
   -7.9329   27.9430   75.2084 H   0  0  0  0  0  0  0  0  0  0  0  0
   -6.1371   27.9845   75.2084 H   0  0  0  0  0  0  0  0  0  0  0  0
   -5.3966   29.3513   76.9525 H   0  0  0  0  0  0  0  0  0  0  0  0
   -3.5889   31.6878   81.4232 H   0  0  0  0  0  0  0  0  0  0  0  0
   -2.1330   32.6750   77.7410 H   0  0  0  0  0  0  0  0  0  0  0  0
   -4.1754   31.0572   77.2051 H   0  0  0  0  0  0  0  0  0  0  0  0
   -5.7509   30.5662   81.8951 H   0  0  0  0  0  0  0  0  0  0  0  0
  -15.3105   22.5104   81.6887 H   0  0  0  0  0  0  0  0  0  0  0  0
  -15.0743   23.5719   80.2589 H   0  0  0  0  0  0  0  0  0  0  0  0
  -14.4081   21.9037   80.2589 H   0  0  0  0  0  0  0  0  0  0  0  0
  -13.3207   23.4006   83.6582 H   0  0  0  0  0  0  0  0  0  0  0  0
  -13.8908   21.8413   82.9726 H   0  0  0  0  0  0  0  0  0  0  0  0
  -12.1382   22.2351   82.9726 H   0  0  0  0  0  0  0  0  0  0  0  0
  -14.0981   25.1291   82.3851 H   0  0  0  0  0  0  0  0  0  0  0  0
  -12.3373   25.1957   81.9632 H   0  0  0  0  0  0  0  0  0  0  0  0
  -13.5730   24.8250   79.7040 H   0  0  0  0  0  0  0  0  0  0  0  0
  1  2  1  0
  2  3  1  0
  3  4  1  0
  4  5  1  0
  5  6  1  0
  6  7  2  0
  7  8  1  0
  8  9  1  0
  9 10  2  0
 10 11  1  0
 11 12  1  0
 11 13  2  0
 13 14  1  0
 14 15  1  0
 15 16  1  0
 16 17  1  0
 17 18  2  0
 18 19  1  0
 19 20  1  0
 15 21  2  0
 21 22  1  0
 22 23  2  0
  7 24  1  0
 24 25  1  0
  3 26  1  0
 26 27  1  0
 26 28  1  0
 26 29  1  0
 29 30  1  0
 25  5  2  0
 23  9  1  0
 23 14  1  0
 20 16  2  0
  1 31  1  0
  1 32  1  0
  1 33  1  0
  2 34  1  0
  2 35  1  0
  3 36  1  6
  4 37  1  0
  4 38  1  0
  6 39  1  0
  8 40  1  0
 12 41  1  0
 12 42  1  0
 12 43  1  0
 13 44  1  0
 17 45  1  0
 19 46  1  0
 20 47  1  0
 21 48  1  0
 27 49  1  0
 27 50  1  0
 27 51  1  0
 28 52  1  0
 28 53  1  0
 28 54  1  0
 29 55  1  0
 29 56  1  0
 30 57  1  0
M  CHG  1   3   1
M  END
>  <meeko>  (7) 
{"is_sidechain": [false], "free_energy": -8.241, "intermolecular_energy": -11.802, "internal_energy": -0.903}

$$$$
3myg_ligand
     RDKit          3D

 57 60  0  0  0  0  0  0  0  0999 V2000
  -14.2100   23.6340   79.7480 C   0  0  0  0  0  0  0  0  0  0  0  0
  -14.2400   22.6170   80.8780 C   0  0  0  0  0  0  0  0  0  0  0  0
  -12.9540   22.6510   81.6760 N   0  0  2  0  0  0  0  0  0  0  0  0
  -11.8130   21.9380   80.9210 C   0  0  0  0  0  0  0  0  0  0  0  0
  -10.6600   22.8730   80.6690 C   0  0  0  0  0  0  0  0  0  0  0  0
  -10.7070   24.1090   79.9530 C   0  0  0  0  0  0  0  0  0  0  0  0
   -9.4640   24.7200   79.9060 C   0  0  0  0  0  0  0  0  0  0  0  0
   -9.1800   25.9010   79.3020 N   0  0  0  0  0  0  0  0  0  0  0  0
   -8.3860   26.9630   79.7100 C   0  0  0  0  0  0  0  0  0  0  0  0
   -8.3500   27.4080   80.9440 N   0  0  0  0  0  0  0  0  0  0  0  0
   -7.5270   28.4780   81.2660 C   0  0  0  0  0  0  0  0  0  0  0  0
   -7.5650   28.9030   82.7070 C   0  0  0  0  0  0  0  0  0  0  0  0
   -6.7420   29.1050   80.3680 C   0  0  0  0  0  0  0  0  0  0  0  0
   -6.7500   28.6680   79.0560 N   0  0  0  0  0  0  0  0  0  0  0  0
   -6.1020   29.0530   77.9040 C   0  0  0  0  0  0  0  0  0  0  0  0
   -5.0700   30.1850   77.6660 C   0  0  0  0  0  0  0  0  0  0  0  0
   -4.7310   30.7840   76.4320 C   0  0  0  0  0  0  0  0  0  0  0  0
   -3.8030   31.7340   76.5630 N   0  0  0  0  0  0  0  0  0  0  0  0
   -3.5460   31.7450   77.8790 N   0  0  0  0  0  0  0  0  0  0  0  0
   -4.2820   30.8320   78.5860 C   0  0  0  0  0  0  0  0  0  0  0  0
   -6.5700   28.1870   76.9300 C   0  0  0  0  0  0  0  0  0  0  0  0
   -7.4770   27.2890   77.4360 N   0  0  0  0  0  0  0  0  0  0  0  0
   -7.5540   27.6130   78.7090 C   0  0  0  0  0  0  0  0  0  0  0  0
   -8.3680   23.7000   80.7540 S   0  0  0  0  0  0  0  0  0  0  0  0
   -9.4660   22.5240   81.1570 N   0  0  0  0  0  0  0  0  0  0  0  0
  -13.0870   22.2890   83.1810 C   0  0  0  0  0  0  0  0  0  0  0  0
  -14.2390   23.1010   83.8090 C   0  0  0  0  0  0  0  0  0  0  0  0
  -13.4800   20.8010   83.2910 C   0  0  0  0  0  0  0  0  0  0  0  0
  -11.7500   22.5420   83.9310 C   0  0  0  0  0  0  0  0  0  0  0  0
  -11.0810   21.3200   84.2360 O   0  0  0  0  0  0  0  0  0  0  0  0
  -14.1800   24.6496   80.1695 H   0  0  0  0  0  0  0  0  0  0  0  0
  -13.3164   23.4676   79.1285 H   0  0  0  0  0  0  0  0  0  0  0  0
  -15.1119   23.5205   79.1285 H   0  0  0  0  0  0  0  0  0  0  0  0
  -15.0834   22.8467   81.5458 H   0  0  0  0  0  0  0  0  0  0  0  0
  -14.3543   21.6136   80.4420 H   0  0  0  0  0  0  0  0  0  0  0  0
  -12.6250   23.6340   81.6640 H   0  0  0  0  0  0  0  0  0  0  0  0
  -11.4605   21.0877   81.5233 H   0  0  0  0  0  0  0  0  0  0  0  0
  -12.1997   21.5921   79.9510 H   0  0  0  0  0  0  0  0  0  0  0  0
  -11.6173   24.5241   79.4957 H   0  0  0  0  0  0  0  0  0  0  0  0
   -9.5910   26.0910   78.3890 H   0  0  0  0  0  0  0  0  0  0  0  0
   -7.4857   28.0162   83.3530 H   0  0  0  0  0  0  0  0  0  0  0  0
   -6.7240   29.5819   82.9114 H   0  0  0  0  0  0  0  0  0  0  0  0
   -8.5131   29.4219   82.9114 H   0  0  0  0  0  0  0  0  0  0  0  0
   -6.1063   29.9493   80.6731 H   0  0  0  0  0  0  0  0  0  0  0  0
   -5.1820   30.4989   75.4701 H   0  0  0  0  0  0  0  0  0  0  0  0
   -2.8550   32.4030   78.2280 H   0  0  0  0  0  0  0  0  0  0  0  0
   -4.2488   30.6531   79.6708 H   0  0  0  0  0  0  0  0  0  0  0  0
   -6.2530   28.2152   75.8770 H   0  0  0  0  0  0  0  0  0  0  0  0
  -14.1677   23.0508   84.9055 H   0  0  0  0  0  0  0  0  0  0  0  0
  -14.1678   24.1497   83.4846 H   0  0  0  0  0  0  0  0  0  0  0  0
  -15.2027   22.6814   83.4846 H   0  0  0  0  0  0  0  0  0  0  0  0
  -13.5545   20.5189   84.3516 H   0  0  0  0  0  0  0  0  0  0  0  0
  -14.4512   20.6410   82.7999 H   0  0  0  0  0  0  0  0  0  0  0  0
  -12.7145   20.1823   82.7999 H   0  0  0  0  0  0  0  0  0  0  0  0
  -11.0960   23.1587   83.2970 H   0  0  0  0  0  0  0  0  0  0  0  0
  -11.9773   23.0557   84.8767 H   0  0  0  0  0  0  0  0  0  0  0  0
  -10.7380   21.4000   85.1480 H   0  0  0  0  0  0  0  0  0  0  0  0
  1  2  1  0
  2  3  1  0
  3  4  1  0
  4  5  1  0
  5  6  1  0
  6  7  2  0
  7  8  1  0
  8  9  1  0
  9 10  2  0
 10 11  1  0
 11 12  1  0
 11 13  2  0
 13 14  1  0
 14 15  1  0
 15 16  1  0
 16 17  1  0
 17 18  2  0
 18 19  1  0
 19 20  1  0
 15 21  2  0
 21 22  1  0
 22 23  2  0
  7 24  1  0
 24 25  1  0
  3 26  1  0
 26 27  1  0
 26 28  1  0
 26 29  1  0
 29 30  1  0
 25  5  2  0
 23  9  1  0
 23 14  1  0
 20 16  2  0
  1 31  1  0
  1 32  1  0
  1 33  1  0
  2 34  1  0
  2 35  1  0
  3 36  1  1
  4 37  1  0
  4 38  1  0
  6 39  1  0
  8 40  1  0
 12 41  1  0
 12 42  1  0
 12 43  1  0
 13 44  1  0
 17 45  1  0
 19 46  1  0
 20 47  1  0
 21 48  1  0
 27 49  1  0
 27 50  1  0
 27 51  1  0
 28 52  1  0
 28 53  1  0
 28 54  1  0
 29 55  1  0
 29 56  1  0
 30 57  1  0
M  CHG  1   3   1
M  END
>  <meeko>  (8) 
{"is_sidechain": [false], "free_energy": -8.035, "intermolecular_energy": -11.613, "internal_energy": -0.784}

$$$$
3myg_ligand
     RDKit          3D

 57 60  0  0  0  0  0  0  0  0999 V2000
   -6.2100   28.8400   81.9310 C   0  0  0  0  0  0  0  0  0  0  0  0
   -6.6280   29.9720   82.8570 C   0  0  0  0  0  0  0  0  0  0  0  0
   -7.5770   29.4790   83.9270 N   0  0  2  0  0  0  0  0  0  0  0  0
   -9.0420   29.5440   83.4430 C   0  0  0  0  0  0  0  0  0  0  0  0
   -9.5850   28.1680   83.1640 C   0  0  0  0  0  0  0  0  0  0  0  0
   -9.9190   27.6300   81.8830 C   0  0  0  0  0  0  0  0  0  0  0  0
  -10.3940   26.3320   81.9830 C   0  0  0  0  0  0  0  0  0  0  0  0
  -10.7940   25.5480   80.9500 N   0  0  0  0  0  0  0  0  0  0  0  0
  -10.2720   24.3640   80.4510 C   0  0  0  0  0  0  0  0  0  0  0  0
   -9.0210   24.0010   80.6070 N   0  0  0  0  0  0  0  0  0  0  0  0
   -8.5810   22.7970   80.0750 C   0  0  0  0  0  0  0  0  0  0  0  0
   -7.1310   22.4830   80.3150 C   0  0  0  0  0  0  0  0  0  0  0  0
   -9.3800   21.9550   79.3900 C   0  0  0  0  0  0  0  0  0  0  0  0
  -10.7060   22.3000   79.2020 N   0  0  0  0  0  0  0  0  0  0  0  0
  -11.7790   21.7070   78.5740 C   0  0  0  0  0  0  0  0  0  0  0  0
  -11.8770   20.3610   77.8120 C   0  0  0  0  0  0  0  0  0  0  0  0
  -11.6500   20.1430   76.4350 C   0  0  0  0  0  0  0  0  0  0  0  0
  -11.8150   18.8650   76.0870 N   0  0  0  0  0  0  0  0  0  0  0  0
  -12.1480   18.2640   77.2380 N   0  0  0  0  0  0  0  0  0  0  0  0
  -12.1990   19.1200   78.3050 C   0  0  0  0  0  0  0  0  0  0  0  0
  -12.8280   22.5930   78.7610 C   0  0  0  0  0  0  0  0  0  0  0  0
  -12.4420   23.7010   79.4740 N   0  0  0  0  0  0  0  0  0  0  0  0
  -11.1670   23.4830   79.7170 C   0  0  0  0  0  0  0  0  0  0  0  0
  -10.3760   25.9150   83.6520 S   0  0  0  0  0  0  0  0  0  0  0  0
   -9.7790   27.3590   84.2080 N   0  0  0  0  0  0  0  0  0  0  0  0
   -7.3220   30.0270   85.3580 C   0  0  0  0  0  0  0  0  0  0  0  0
   -8.6280   30.6210   85.9260 C   0  0  0  0  0  0  0  0  0  0  0  0
   -6.9360   28.8450   86.2710 C   0  0  0  0  0  0  0  0  0  0  0  0
   -6.1830   31.0850   85.3500 C   0  0  0  0  0  0  0  0  0  0  0  0
   -6.6420   32.3530   85.8150 O   0  0  0  0  0  0  0  0  0  0  0  0
   -5.8905   27.9748   82.5305 H   0  0  0  0  0  0  0  0  0  0  0  0
   -7.0611   28.5521   81.2964 H   0  0  0  0  0  0  0  0  0  0  0  0
   -5.3760   29.1744   81.2964 H   0  0  0  0  0  0  0  0  0  0  0  0
   -5.7322   30.3923   83.3374 H   0  0  0  0  0  0  0  0  0  0  0  0
   -7.1430   30.7391   82.2601 H   0  0  0  0  0  0  0  0  0  0  0  0
   -7.4320   28.4550   84.0020 H   0  0  0  0  0  0  0  0  0  0  0  0
   -9.6560   30.0210   84.2211 H   0  0  0  0  0  0  0  0  0  0  0  0
   -9.0752   30.1270   82.5108 H   0  0  0  0  0  0  0  0  0  0  0  0
   -9.8123   28.1781   80.9353 H   0  0  0  0  0  0  0  0  0  0  0  0
  -11.6150   25.8310   80.4150 H   0  0  0  0  0  0  0  0  0  0  0  0
   -6.9391   22.4414   81.3973 H   0  0  0  0  0  0  0  0  0  0  0  0
   -6.8864   21.5111   79.8617 H   0  0  0  0  0  0  0  0  0  0  0  0
   -6.5062   23.2667   79.8617 H   0  0  0  0  0  0  0  0  0  0  0  0
   -8.9846   21.0106   78.9878 H   0  0  0  0  0  0  0  0  0  0  0  0
  -11.3687   20.9377   75.7284 H   0  0  0  0  0  0  0  0  0  0  0  0
  -12.3270   17.2640   77.2240 H   0  0  0  0  0  0  0  0  0  0  0  0
  -12.4474   18.8657   79.3460 H   0  0  0  0  0  0  0  0  0  0  0  0
  -13.8479   22.4283   78.3834 H   0  0  0  0  0  0  0  0  0  0  0  0
   -8.5908   30.6041   87.0252 H   0  0  0  0  0  0  0  0  0  0  0  0
   -8.7402   31.6587   85.5788 H   0  0  0  0  0  0  0  0  0  0  0  0
   -9.4839   30.0236   85.5788 H   0  0  0  0  0  0  0  0  0  0  0  0
   -7.0348   29.1475   87.3240 H   0  0  0  0  0  0  0  0  0  0  0  0
   -7.6028   27.9935   86.0700 H   0  0  0  0  0  0  0  0  0  0  0  0
   -5.8952   28.5511   86.0700 H   0  0  0  0  0  0  0  0  0  0  0  0
   -5.3689   30.7383   86.0035 H   0  0  0  0  0  0  0  0  0  0  0  0
   -5.8312   31.2046   84.3146 H   0  0  0  0  0  0  0  0  0  0  0  0
   -7.0030   32.8290   85.0420 H   0  0  0  0  0  0  0  0  0  0  0  0
  1  2  1  0
  2  3  1  0
  3  4  1  0
  4  5  1  0
  5  6  1  0
  6  7  2  0
  7  8  1  0
  8  9  1  0
  9 10  2  0
 10 11  1  0
 11 12  1  0
 11 13  2  0
 13 14  1  0
 14 15  1  0
 15 16  1  0
 16 17  1  0
 17 18  2  0
 18 19  1  0
 19 20  1  0
 15 21  2  0
 21 22  1  0
 22 23  2  0
  7 24  1  0
 24 25  1  0
  3 26  1  0
 26 27  1  0
 26 28  1  0
 26 29  1  0
 29 30  1  0
 25  5  2  0
 23  9  1  0
 23 14  1  0
 20 16  2  0
  1 31  1  0
  1 32  1  0
  1 33  1  0
  2 34  1  0
  2 35  1  0
  3 36  1  1
  4 37  1  0
  4 38  1  0
  6 39  1  0
  8 40  1  0
 12 41  1  0
 12 42  1  0
 12 43  1  0
 13 44  1  0
 17 45  1  0
 19 46  1  0
 20 47  1  0
 21 48  1  0
 27 49  1  0
 27 50  1  0
 27 51  1  0
 28 52  1  0
 28 53  1  0
 28 54  1  0
 29 55  1  0
 29 56  1  0
 30 57  1  0
M  CHG  1   3   1
M  END
>  <meeko>  (9) 
{"is_sidechain": [false], "free_energy": -8.005, "intermolecular_energy": -11.309, "internal_energy": -1.042}

$$$$
