4pcs_ligand
     RDKit          3D

 32 33  0  0  0  0  0  0  0  0999 V2000
   27.6150    5.1550   55.7940 C   0  0  0  0  0  0  0  0  0  0  0  0
   29.0570    5.2080   56.2610 C   0  0  2  0  0  0  0  0  0  0  0  0
   29.5160    6.6410   56.3130 N   0  0  0  0  0  0  0  0  0  0  0  0
   31.0220    6.6130   56.2480 C   0  0  1  0  0  0  0  0  0  0  0  0
   31.5330    6.9820   57.5680 C   0  0  0  0  0  0  0  0  0  0  0  0
   31.9440    7.2880   58.6540 C   0  0  0  0  0  0  0  0  0  0  0  0
   32.4310    7.6480   59.9500 C   0  0  0  0  0  0  0  0  0  0  0  0
   31.6680    7.3630   61.0860 C   0  0  0  0  0  0  0  0  0  0  0  0
   32.1450    7.7130   62.3510 C   0  0  0  0  0  0  0  0  0  0  0  0
   33.3810    8.3440   62.4820 C   0  0  0  0  0  0  0  0  0  0  0  0
   34.1420    8.6290   61.3490 C   0  0  0  0  0  0  0  0  0  0  0  0
   33.6680    8.2820   60.0820 C   0  0  0  0  0  0  0  0  0  0  0  0
   31.3980    5.1600   55.8590 C   0  0  2  0  0  0  0  0  0  0  0  0
   32.3940    5.0880   54.8410 O   0  0  0  0  0  0  0  0  0  0  0  0
   30.0840    4.6050   55.3030 C   0  0  2  0  0  0  0  0  0  0  0  0
   29.8800    5.1290   53.9840 O   0  0  0  0  0  0  0  0  0  0  0  0
   26.9473    5.1305   56.6678 H   0  0  0  0  0  0  0  0  0  0  0  0
   27.3930    6.0456   55.1877 H   0  0  0  0  0  0  0  0  0  0  0  0
   27.4589    4.2505   55.1877 H   0  0  0  0  0  0  0  0  0  0  0  0
   29.0295    4.6561   57.2121 H   0  0  0  0  0  0  0  0  0  0  0  0
   29.1880    7.1050   55.4530 H   0  0  0  0  0  0  0  0  0  0  0  0
   29.1520    7.1660   57.1170 H   0  0  0  0  0  0  0  0  0  0  0  0
   31.4504    7.3143   55.5169 H   0  0  0  0  0  0  0  0  0  0  0  0
   30.6932    6.8637   60.9837 H   0  0  0  0  0  0  0  0  0  0  0  0
   31.5445    7.4904   63.2453 H   0  0  0  0  0  0  0  0  0  0  0  0
   33.7560    8.6171   63.4794 H   0  0  0  0  0  0  0  0  0  0  0  0
   35.1169    9.1278   61.4532 H   0  0  0  0  0  0  0  0  0  0  0  0
   34.2688    8.5080   59.1887 H   0  0  0  0  0  0  0  0  0  0  0  0
   31.8164    4.6150   56.7180 H   0  0  0  0  0  0  0  0  0  0  0  0
   33.2690    4.9750   55.2610 H   0  0  0  0  0  0  0  0  0  0  0  0
   30.0409    3.5080   55.2345 H   0  0  0  0  0  0  0  0  0  0  0  0
   30.4330    4.5780   53.3870 H   0  0  0  0  0  0  0  0  0  0  0  0
  1  2  1  0
  2  3  1  0
  3  4  1  0
  4  5  1  0
  5  6  3  0
  6  7  1  0
  7  8  2  0
  8  9  1  0
  9 10  2  0
 10 11  1  0
 11 12  2  0
  4 13  1  0
 13 14  1  0
 13 15  1  0
 15 16  1  0
 15  2  1  0
 12  7  1  0
  1 17  1  0
  1 18  1  0
  1 19  1  0
  2 20  1  1
  3 21  1  0
  3 22  1  0
  4 23  1  6
  8 24  1  0
  9 25  1  0
 10 26  1  0
 11 27  1  0
 12 28  1  0
 13 29  1  1
 14 30  1  0
 15 31  1  6
 16 32  1  0
M  CHG  1   3   1
M  END
>  <meeko>  (1) 
{"is_sidechain": [false], "free_energy": -6.971, "intermolecular_energy": -7.786, "internal_energy": -0.152}

$$$$
4pcs_ligand
     RDKit          3D

 32 33  0  0  0  0  0  0  0  0999 V2000
   29.5030    4.7050   55.4480 C   0  0  0  0  0  0  0  0  0  0  0  0
   30.1450    5.4200   56.6220 C   0  0  2  0  0  0  0  0  0  0  0  0
   30.2770    6.8860   56.3050 N   0  0  0  0  0  0  0  0  0  0  0  0
   31.3550    7.4270   57.2100 C   0  0  1  0  0  0  0  0  0  0  0  0
   30.7120    8.2700   58.2160 C   0  0  0  0  0  0  0  0  0  0  0  0
   30.1760    8.9620   59.0380 C   0  0  0  0  0  0  0  0  0  0  0  0
   29.5370    9.7910   60.0140 C   0  0  0  0  0  0  0  0  0  0  0  0
   29.3440   11.1500   59.7560 C   0  0  0  0  0  0  0  0  0  0  0  0
   28.7170   11.9580   60.7070 C   0  0  0  0  0  0  0  0  0  0  0  0
   28.2830   11.4080   61.9130 C   0  0  0  0  0  0  0  0  0  0  0  0
   28.4760   10.0520   62.1710 C   0  0  0  0  0  0  0  0  0  0  0  0
   29.1030    9.2410   61.2230 C   0  0  0  0  0  0  0  0  0  0  0  0
   32.0380    6.1830   57.8360 C   0  0  2  0  0  0  0  0  0  0  0  0
   33.4630    6.2590   57.8270 O   0  0  0  0  0  0  0  0  0  0  0  0
   31.6000    5.0480   56.9080 C   0  0  2  0  0  0  0  0  0  0  0  0
   32.3630    5.1190   55.6950 O   0  0  0  0  0  0  0  0  0  0  0  0
   28.8117    3.9351   55.8211 H   0  0  0  0  0  0  0  0  0  0  0  0
   28.9476    5.4308   54.8358 H   0  0  0  0  0  0  0  0  0  0  0  0
   30.2842    4.2307   54.8358 H   0  0  0  0  0  0  0  0  0  0  0  0
   29.4935    5.1461   57.4649 H   0  0  0  0  0  0  0  0  0  0  0  0
   30.6290    6.9650   55.3390 H   0  0  0  0  0  0  0  0  0  0  0  0
   29.3940    7.4070   56.3660 H   0  0  0  0  0  0  0  0  0  0  0  0
   32.1066    8.0414   56.6927 H   0  0  0  0  0  0  0  0  0  0  0  0
   29.6856   11.5836   58.8045 H   0  0  0  0  0  0  0  0  0  0  0  0
   28.5654   13.0286   60.5048 H   0  0  0  0  0  0  0  0  0  0  0  0
   27.7881   12.0448   62.6610 H   0  0  0  0  0  0  0  0  0  0  0  0
   28.1338    9.6200   63.1230 H   0  0  0  0  0  0  0  0  0  0  0  0
   29.2551    8.1709   61.4275 H   0  0  0  0  0  0  0  0  0  0  0  0
   31.7553    6.0650   58.8925 H   0  0  0  0  0  0  0  0  0  0  0  0
   33.8230    5.5160   58.3500 H   0  0  0  0  0  0  0  0  0  0  0  0
   31.7305    4.0380   57.3239 H   0  0  0  0  0  0  0  0  0  0  0  0
   32.7760    4.2340   55.5850 H   0  0  0  0  0  0  0  0  0  0  0  0
  1  2  1  0
  2  3  1  0
  3  4  1  0
  4  5  1  0
  5  6  3  0
  6  7  1  0
  7  8  2  0
  8  9  1  0
  9 10  2  0
 10 11  1  0
 11 12  2  0
  4 13  1  0
 13 14  1  0
 13 15  1  0
 15 16  1  0
 15  2  1  0
 12  7  1  0
  1 17  1  0
  1 18  1  0
  1 19  1  0
  2 20  1  1
  3 21  1  0
  3 22  1  0
  4 23  1  6
  8 24  1  0
  9 25  1  0
 10 26  1  0
 11 27  1  0
 12 28  1  0
 13 29  1  1
 14 30  1  0
 15 31  1  1
 16 32  1  0
M  CHG  1   3   1
M  END
>  <meeko>  (2) 
{"is_sidechain": [false], "free_energy": -6.373, "intermolecular_energy": -7.114, "internal_energy": -0.157}

$$$$
4pcs_ligand
     RDKit          3D

 32 33  0  0  0  0  0  0  0  0999 V2000
   27.2560    5.7360   55.8980 C   0  0  0  0  0  0  0  0  0  0  0  0
   28.6540    5.2320   56.1990 C   0  0  2  0  0  0  0  0  0  0  0  0
   29.5970    6.4000   56.3090 N   0  0  0  0  0  0  0  0  0  0  0  0
   30.9840    5.8600   56.0700 C   0  0  1  0  0  0  0  0  0  0  0  0
   31.6960    5.8770   57.3470 C   0  0  0  0  0  0  0  0  0  0  0  0
   32.2740    5.8950   58.3990 C   0  0  0  0  0  0  0  0  0  0  0  0
   32.9670    5.9210   59.6510 C   0  0  0  0  0  0  0  0  0  0  0  0
   34.2670    6.4260   59.7180 C   0  0  0  0  0  0  0  0  0  0  0  0
   34.9420    6.4540   60.9400 C   0  0  0  0  0  0  0  0  0  0  0  0
   34.3180    5.9790   62.0930 C   0  0  0  0  0  0  0  0  0  0  0  0
   33.0200    5.4750   62.0270 C   0  0  0  0  0  0  0  0  0  0  0  0
   32.3430    5.4440   60.8060 C   0  0  0  0  0  0  0  0  0  0  0  0
   30.7840    4.4200   55.5290 C   0  0  2  0  0  0  0  0  0  0  0  0
   31.6040    4.1230   54.4010 O   0  0  0  0  0  0  0  0  0  0  0  0
   29.3190    4.4220   55.0860 C   0  0  2  0  0  0  0  0  0  0  0  0
   29.2110    5.1310   53.8430 O   0  0  0  0  0  0  0  0  0  0  0  0
   26.7243    5.9277   56.8417 H   0  0  0  0  0  0  0  0  0  0  0  0
   27.3194    6.6679   55.3170 H   0  0  0  0  0  0  0  0  0  0  0  0
   26.7102    4.9781   55.3170 H   0  0  0  0  0  0  0  0  0  0  0  0
   28.5065    4.6204   57.1013 H   0  0  0  0  0  0  0  0  0  0  0  0
   29.3880    7.0440   55.5310 H   0  0  0  0  0  0  0  0  0  0  0  0
   29.5090    6.9250   57.1880 H   0  0  0  0  0  0  0  0  0  0  0  0
   31.5750    6.4472   55.3517 H   0  0  0  0  0  0  0  0  0  0  0  0
   34.7591    6.8015   58.8087 H   0  0  0  0  0  0  0  0  0  0  0  0
   35.9665    6.8510   60.9931 H   0  0  0  0  0  0  0  0  0  0  0  0
   34.8504    6.0020   63.0553 H   0  0  0  0  0  0  0  0  0  0  0  0
   32.5286    5.1014   62.9375 H   0  0  0  0  0  0  0  0  0  0  0  0
   31.3195    5.0444   60.7539 H   0  0  0  0  0  0  0  0  0  0  0  0
   31.0471    3.6702   56.2897 H   0  0  0  0  0  0  0  0  0  0  0  0
   32.4270    3.6960   54.7110 H   0  0  0  0  0  0  0  0  0  0  0  0
   28.8825    3.4232   54.9382 H   0  0  0  0  0  0  0  0  0  0  0  0
   30.1300    5.2250   53.5070 H   0  0  0  0  0  0  0  0  0  0  0  0
  1  2  1  0
  2  3  1  0
  3  4  1  0
  4  5  1  0
  5  6  3  0
  6  7  1  0
  7  8  2  0
  8  9  1  0
  9 10  2  0
 10 11  1  0
 11 12  2  0
  4 13  1  0
 13 14  1  0
 13 15  1  0
 15 16  1  0
 15  2  1  0
 12  7  1  0
  1 17  1  0
  1 18  1  0
  1 19  1  0
  2 20  1  1
  3 21  1  0
  3 22  1  0
  4 23  1  6
  8 24  1  0
  9 25  1  0
 10 26  1  0
 11 27  1  0
 12 28  1  0
 13 29  1  1
 14 30  1  0
 15 31  1  6
 16 32  1  0
M  CHG  1   3   1
M  END
>  <meeko>  (3) 
{"is_sidechain": [false], "free_energy": -6.091, "intermolecular_energy": -6.803, "internal_energy": -0.153}

$$$$
4pcs_ligand
     RDKit          3D

 32 33  0  0  0  0  0  0  0  0999 V2000
   30.9480    4.0160   54.9370 C   0  0  0  0  0  0  0  0  0  0  0  0
   31.2350    5.3510   55.5960 C   0  0  2  0  0  0  0  0  0  0  0  0
   31.4480    5.1470   57.0730 N   0  0  0  0  0  0  0  0  0  0  0  0
   31.1940    6.4790   57.7330 C   0  0  1  0  0  0  0  0  0  0  0  0
   32.4810    7.0050   58.1850 C   0  0  0  0  0  0  0  0  0  0  0  0
   33.5420    7.4290   58.5540 C   0  0  0  0  0  0  0  0  0  0  0  0
   34.8030    7.9400   58.9960 C   0  0  0  0  0  0  0  0  0  0  0  0
   34.9740    9.3140   59.1800 C   0  0  0  0  0  0  0  0  0  0  0  0
   36.2040    9.8120   59.6140 C   0  0  0  0  0  0  0  0  0  0  0  0
   37.2610    8.9390   59.8650 C   0  0  0  0  0  0  0  0  0  0  0  0
   37.0930    7.5670   59.6800 C   0  0  0  0  0  0  0  0  0  0  0  0
   35.8640    7.0660   59.2450 C   0  0  0  0  0  0  0  0  0  0  0  0
   30.5460    7.3700   56.6420 C   0  0  2  0  0  0  0  0  0  0  0  0
   29.4140    8.1010   57.1090 O   0  0  0  0  0  0  0  0  0  0  0  0
   30.0780    6.3500   55.6000 C   0  0  2  0  0  0  0  0  0  0  0  0
   28.8890    5.7080   56.0810 O   0  0  0  0  0  0  0  0  0  0  0  0
   30.7839    3.2525   55.7116 H   0  0  0  0  0  0  0  0  0  0  0  0
   30.0479    4.1023   54.3106 H   0  0  0  0  0  0  0  0  0  0  0  0
   31.8040    3.7247   54.3106 H   0  0  0  0  0  0  0  0  0  0  0  0
   32.0868    5.7346   55.0153 H   0  0  0  0  0  0  0  0  0  0  0  0
   30.7140    4.5040   57.4070 H   0  0  0  0  0  0  0  0  0  0  0  0
   32.3600    4.7410   57.3100 H   0  0  0  0  0  0  0  0  0  0  0  0
   30.5303    6.4251   58.6085 H   0  0  0  0  0  0  0  0  0  0  0  0
   34.1398   10.0035   58.9830 H   0  0  0  0  0  0  0  0  0  0  0  0
   36.3389   10.8942   59.7579 H   0  0  0  0  0  0  0  0  0  0  0  0
   38.2287    9.3326   60.2094 H   0  0  0  0  0  0  0  0  0  0  0  0
   37.9286    6.8792   59.8767 H   0  0  0  0  0  0  0  0  0  0  0  0
   35.7316    5.9839   59.0985 H   0  0  0  0  0  0  0  0  0  0  0  0
   31.2551    8.1277   56.2771 H   0  0  0  0  0  0  0  0  0  0  0  0
   28.8050    8.2570   56.3610 H   0  0  0  0  0  0  0  0  0  0  0  0
   29.8501    6.7746   54.6112 H   0  0  0  0  0  0  0  0  0  0  0  0
   28.5540    6.2750   56.8120 H   0  0  0  0  0  0  0  0  0  0  0  0
  1  2  1  0
  2  3  1  0
  3  4  1  0
  4  5  1  0
  5  6  3  0
  6  7  1  0
  7  8  2  0
  8  9  1  0
  9 10  2  0
 10 11  1  0
 11 12  2  0
  4 13  1  0
 13 14  1  0
 13 15  1  0
 15 16  1  0
 15  2  1  0
 12  7  1  0
  1 17  1  0
  1 18  1  0
  1 19  1  0
  2 20  1  6
  3 21  1  0
  3 22  1  0
  4 23  1  1
  8 24  1  0
  9 25  1  0
 10 26  1  0
 11 27  1  0
 12 28  1  0
 13 29  1  6
 14 30  1  0
 15 31  1  6
 16 32  1  0
M  CHG  1   3   1
M  END
>  <meeko>  (4) 
{"is_sidechain": [false], "free_energy": -5.975, "intermolecular_energy": -6.677, "internal_energy": -0.15}

$$$$
4pcs_ligand
     RDKit          3D

 32 33  0  0  0  0  0  0  0  0999 V2000
   35.5860    4.2530   59.4840 C   0  0  0  0  0  0  0  0  0  0  0  0
   34.4430    5.1310   59.0120 C   0  0  2  0  0  0  0  0  0  0  0  0
   33.5450    5.4550   60.1760 N   0  0  0  0  0  0  0  0  0  0  0  0
   32.2070    5.8390   59.5960 C   0  0  1  0  0  0  0  0  0  0  0  0
   32.0390    7.2790   59.7800 C   0  0  0  0  0  0  0  0  0  0  0  0
   31.9070    8.4620   59.9360 C   0  0  0  0  0  0  0  0  0  0  0  0
   31.7450    9.8720   60.1250 C   0  0  0  0  0  0  0  0  0  0  0  0
   30.4780   10.4000   60.3830 C   0  0  0  0  0  0  0  0  0  0  0  0
   30.3200   11.7750   60.5700 C   0  0  0  0  0  0  0  0  0  0  0  0
   31.4270   12.6200   60.5000 C   0  0  0  0  0  0  0  0  0  0  0  0
   32.6920   12.0940   60.2420 C   0  0  0  0  0  0  0  0  0  0  0  0
   32.8530   10.7200   60.0540 C   0  0  0  0  0  0  0  0  0  0  0  0
   32.2730    5.4420   58.0980 C   0  0  2  0  0  0  0  0  0  0  0  0
   31.1030    4.7650   57.6430 O   0  0  0  0  0  0  0  0  0  0  0  0
   33.4540    4.4700   58.0530 C   0  0  2  0  0  0  0  0  0  0  0  0
   33.0350    3.2060   58.5870 O   0  0  0  0  0  0  0  0  0  0  0  0
   35.6064    4.2374   60.5837 H   0  0  0  0  0  0  0  0  0  0  0  0
   35.4432    3.2302   59.1053 H   0  0  0  0  0  0  0  0  0  0  0  0
   36.5374    4.6547   59.1053 H   0  0  0  0  0  0  0  0  0  0  0  0
   34.9611    5.9727   58.5292 H   0  0  0  0  0  0  0  0  0  0  0  0
   33.4000    4.5840   60.7100 H   0  0  0  0  0  0  0  0  0  0  0  0
   33.9300    6.1600   60.8160 H   0  0  0  0  0  0  0  0  0  0  0  0
   31.3511    5.3403   60.0742 H   0  0  0  0  0  0  0  0  0  0  0  0
   29.6049    9.7332   60.4389 H   0  0  0  0  0  0  0  0  0  0  0  0
   29.3222   12.1914   60.7725 H   0  0  0  0  0  0  0  0  0  0  0  0
   31.3020   13.7027   60.6485 H   0  0  0  0  0  0  0  0  0  0  0  0
   33.5641   12.7621   60.1865 H   0  0  0  0  0  0  0  0  0  0  0  0
   33.8513   10.3055   59.8502 H   0  0  0  0  0  0  0  0  0  0  0  0
   32.3677    6.3301   57.4559 H   0  0  0  0  0  0  0  0  0  0  0  0
   31.2060    4.5560   56.6940 H   0  0  0  0  0  0  0  0  0  0  0  0
   33.8610    4.2875   57.0475 H   0  0  0  0  0  0  0  0  0  0  0  0
   32.1540    3.0240   58.1880 H   0  0  0  0  0  0  0  0  0  0  0  0
  1  2  1  0
  2  3  1  0
  3  4  1  0
  4  5  1  0
  5  6  3  0
  6  7  1  0
  7  8  2  0
  8  9  1  0
  9 10  2  0
 10 11  1  0
 11 12  2  0
  4 13  1  0
 13 14  1  0
 13 15  1  0
 15 16  1  0
 15  2  1  0
 12  7  1  0
  1 17  1  0
  1 18  1  0
  1 19  1  0
  2 20  1  6
  3 21  1  0
  3 22  1  0
  4 23  1  1
  8 24  1  0
  9 25  1  0
 10 26  1  0
 11 27  1  0
 12 28  1  0
 13 29  1  6
 14 30  1  0
 15 31  1  6
 16 32  1  0
M  CHG  1   3   1
M  END
>  <meeko>  (5) 
{"is_sidechain": [false], "free_energy": -5.965, "intermolecular_energy": -6.662, "internal_energy": -0.152}

$$$$
4pcs_ligand
     RDKit          3D

 32 33  0  0  0  0  0  0  0  0999 V2000
   31.2260    4.9740   55.6060 C   0  0  0  0  0  0  0  0  0  0  0  0
   31.3470    5.5860   56.9880 C   0  0  2  0  0  0  0  0  0  0  0  0
   32.2050    6.8210   56.9180 N   0  0  0  0  0  0  0  0  0  0  0  0
   32.7230    7.0670   58.3120 C   0  0  1  0  0  0  0  0  0  0  0  0
   32.0390    8.2460   58.8410 C   0  0  0  0  0  0  0  0  0  0  0  0
   31.4750    9.2160   59.2670 C   0  0  0  0  0  0  0  0  0  0  0  0
   30.7980   10.3700   59.7750 C   0  0  0  0  0  0  0  0  0  0  0  0
   29.4020   10.4220   59.7610 C   0  0  0  0  0  0  0  0  0  0  0  0
   28.7410   11.5470   60.2600 C   0  0  0  0  0  0  0  0  0  0  0  0
   29.4730   12.6160   60.7730 C   0  0  0  0  0  0  0  0  0  0  0  0
   30.8670   12.5650   60.7880 C   0  0  0  0  0  0  0  0  0  0  0  0
   31.5310   11.4430   60.2880 C   0  0  0  0  0  0  0  0  0  0  0  0
   32.3860    5.7840   59.1150 C   0  0  2  0  0  0  0  0  0  0  0  0
   33.4690    5.3210   59.9190 O   0  0  0  0  0  0  0  0  0  0  0  0
   32.1130    4.7540   58.0160 C   0  0  2  0  0  0  0  0  0  0  0  0
   33.3630    4.3300   57.4570 O   0  0  0  0  0  0  0  0  0  0  0  0
   31.0134    3.8987   55.6985 H   0  0  0  0  0  0  0  0  0  0  0  0
   30.4073    5.4639   55.0585 H   0  0  0  0  0  0  0  0  0  0  0  0
   32.1695    5.1155   55.0585 H   0  0  0  0  0  0  0  0  0  0  0  0
   30.2979    5.7211   57.2899 H   0  0  0  0  0  0  0  0  0  0  0  0
   33.0230    6.5990   56.3300 H   0  0  0  0  0  0  0  0  0  0  0  0
   31.7310    7.6360   56.5090 H   0  0  0  0  0  0  0  0  0  0  0  0
   33.8048    7.2607   58.3595 H   0  0  0  0  0  0  0  0  0  0  0  0
   28.8238    9.5778   59.3574 H   0  0  0  0  0  0  0  0  0  0  0  0
   27.6419   11.5890   60.2479 H   0  0  0  0  0  0  0  0  0  0  0  0
   28.9512   13.5008   61.1665 H   0  0  0  0  0  0  0  0  0  0  0  0
   31.4435   13.4093   61.1940 H   0  0  0  0  0  0  0  0  0  0  0  0
   32.6303   11.4040   60.2980 H   0  0  0  0  0  0  0  0  0  0  0  0
   31.5554    5.9610   59.8141 H   0  0  0  0  0  0  0  0  0  0  0  0
   33.3300    4.3760   60.1250 H   0  0  0  0  0  0  0  0  0  0  0  0
   31.5768    3.8544   58.3525 H   0  0  0  0  0  0  0  0  0  0  0  0
   33.3200    3.3480   57.4160 H   0  0  0  0  0  0  0  0  0  0  0  0
  1  2  1  0
  2  3  1  0
  3  4  1  0
  4  5  1  0
  5  6  3  0
  6  7  1  0
  7  8  2  0
  8  9  1  0
  9 10  2  0
 10 11  1  0
 11 12  2  0
  4 13  1  0
 13 14  1  0
 13 15  1  0
 15 16  1  0
 15  2  1  0
 12  7  1  0
  1 17  1  0
  1 18  1  0
  1 19  1  0
  2 20  1  1
  3 21  1  0
  3 22  1  0
  4 23  1  6
  8 24  1  0
  9 25  1  0
 10 26  1  0
 11 27  1  0
 12 28  1  0
 13 29  1  1
 14 30  1  0
 15 31  1  1
 16 32  1  0
M  CHG  1   3   1
M  END
>  <meeko>  (6) 
{"is_sidechain": [false], "free_energy": -5.753, "intermolecular_energy": -6.422, "internal_energy": -0.156}

$$$$
4pcs_ligand
     RDKit          3D

 32 33  0  0  0  0  0  0  0  0999 V2000
   35.5530    6.1990   59.1220 C   0  0  0  0  0  0  0  0  0  0  0  0
   34.0450    6.1860   59.2800 C   0  0  2  0  0  0  0  0  0  0  0  0
   33.6750    6.7410   60.6300 N   0  0  0  0  0  0  0  0  0  0  0  0
   32.2940    6.2250   60.9450 C   0  0  1  0  0  0  0  0  0  0  0  0
   31.3650    7.3490   60.8450 C   0  0  0  0  0  0  0  0  0  0  0  0
   30.6090    8.2780   60.7630 C   0  0  0  0  0  0  0  0  0  0  0  0
   29.7100    9.3870   60.6600 C   0  0  0  0  0  0  0  0  0  0  0  0
   30.0660   10.5070   59.9050 C   0  0  0  0  0  0  0  0  0  0  0  0
   29.1870   11.5870   59.8020 C   0  0  0  0  0  0  0  0  0  0  0  0
   27.9550   11.5480   60.4520 C   0  0  0  0  0  0  0  0  0  0  0  0
   27.5980   10.4320   61.2070 C   0  0  0  0  0  0  0  0  0  0  0  0
   28.4750    9.3500   61.3130 C   0  0  0  0  0  0  0  0  0  0  0  0
   32.0060    5.1300   59.8860 C   0  0  2  0  0  0  0  0  0  0  0  0
   31.4390    3.9440   60.4410 O   0  0  0  0  0  0  0  0  0  0  0  0
   33.3990    4.8020   59.3430 C   0  0  2  0  0  0  0  0  0  0  0  0
   34.0910    3.9900   60.3020 O   0  0  0  0  0  0  0  0  0  0  0  0
   36.0257    6.2031   60.1152 H   0  0  0  0  0  0  0  0  0  0  0  0
   35.8714    5.3036   58.5681 H   0  0  0  0  0  0  0  0  0  0  0  0
   35.8559    7.0998   58.5681 H   0  0  0  0  0  0  0  0  0  0  0  0
   33.6998    6.7451   58.3978 H   0  0  0  0  0  0  0  0  0  0  0  0
   34.3150    6.3240   61.3230 H   0  0  0  0  0  0  0  0  0  0  0  0
   33.7550    7.7620   60.6960 H   0  0  0  0  0  0  0  0  0  0  0  0
   32.1945    5.7994   61.9544 H   0  0  0  0  0  0  0  0  0  0  0  0
   31.0384   10.5382   59.3918 H   0  0  0  0  0  0  0  0  0  0  0  0
   29.4672   12.4691   59.2075 H   0  0  0  0  0  0  0  0  0  0  0  0
   27.2632   12.3992   60.3692 H   0  0  0  0  0  0  0  0  0  0  0  0
   26.6252   10.4034   61.7196 H   0  0  0  0  0  0  0  0  0  0  0  0
   28.1939    8.4698   61.9098 H   0  0  0  0  0  0  0  0  0  0  0  0
   31.2791    5.4829   59.1396 H   0  0  0  0  0  0  0  0  0  0  0  0
   32.1120    3.4970   60.9890 H   0  0  0  0  0  0  0  0  0  0  0  0
   33.4040    4.2618   58.3848 H   0  0  0  0  0  0  0  0  0  0  0  0
   33.7430    4.2580   61.1820 H   0  0  0  0  0  0  0  0  0  0  0  0
  1  2  1  0
  2  3  1  0
  3  4  1  0
  4  5  1  0
  5  6  3  0
  6  7  1  0
  7  8  2  0
  8  9  1  0
  9 10  2  0
 10 11  1  0
 11 12  2  0
  4 13  1  0
 13 14  1  0
 13 15  1  0
 15 16  1  0
 15  2  1  0
 12  7  1  0
  1 17  1  0
  1 18  1  0
  1 19  1  0
  2 20  1  6
  3 21  1  0
  3 22  1  0
  4 23  1  1
  8 24  1  0
  9 25  1  0
 10 26  1  0
 11 27  1  0
 12 28  1  0
 13 29  1  6
 14 30  1  0
 15 31  1  6
 16 32  1  0
M  CHG  1   3   1
M  END
>  <meeko>  (7) 
{"is_sidechain": [false], "free_energy": -5.667, "intermolecular_energy": -6.331, "internal_energy": -0.151}

$$$$
4pcs_ligand
     RDKit          3D

 32 33  0  0  0  0  0  0  0  0999 V2000
   26.4380   12.4710   61.1400 C   0  0  0  0  0  0  0  0  0  0  0  0
   27.6830   11.6450   61.3970 C   0  0  2  0  0  0  0  0  0  0  0  0
   28.2090   11.1090   60.0920 N   0  0  0  0  0  0  0  0  0  0  0  0
   29.0660    9.9150   60.4290 C   0  0  1  0  0  0  0  0  0  0  0  0
   30.4610   10.2880   60.2000 C   0  0  0  0  0  0  0  0  0  0  0  0
   31.6040   10.6010   60.0070 C   0  0  0  0  0  0  0  0  0  0  0  0
   32.9660   10.9710   59.7750 C   0  0  0  0  0  0  0  0  0  0  0  0
   33.8590   10.0420   59.2340 C   0  0  0  0  0  0  0  0  0  0  0  0
   35.1880   10.4030   59.0040 C   0  0  0  0  0  0  0  0  0  0  0  0
   35.6240   11.6910   59.3130 C   0  0  0  0  0  0  0  0  0  0  0  0
   34.7350   12.6190   59.8530 C   0  0  0  0  0  0  0  0  0  0  0  0
   33.4050   12.2600   60.0850 C   0  0  0  0  0  0  0  0  0  0  0  0
   28.7790    9.6040   61.9210 C   0  0  2  0  0  0  0  0  0  0  0  0
   28.5750    8.2160   62.1790 O   0  0  0  0  0  0  0  0  0  0  0  0
   27.4690   10.3510   62.1810 C   0  0  2  0  0  0  0  0  0  0  0  0
   26.3880    9.6080   61.6000 O   0  0  0  0  0  0  0  0  0  0  0  0
   25.9904   12.7680   62.0999 H   0  0  0  0  0  0  0  0  0  0  0  0
   26.7067   13.3706   60.5668 H   0  0  0  0  0  0  0  0  0  0  0  0
   25.7136   11.8738   60.5668 H   0  0  0  0  0  0  0  0  0  0  0  0
   28.3304   12.3411   61.9505 H   0  0  0  0  0  0  0  0  0  0  0  0
   27.4030   10.7550   59.5530 H   0  0  0  0  0  0  0  0  0  0  0  0
   28.6930   11.8100   59.5180 H   0  0  0  0  0  0  0  0  0  0  0  0
   28.8550    9.0254   59.8174 H   0  0  0  0  0  0  0  0  0  0  0  0
   33.5148    9.0263   58.9894 H   0  0  0  0  0  0  0  0  0  0  0  0
   35.8910    9.6714   58.5791 H   0  0  0  0  0  0  0  0  0  0  0  0
   36.6709   11.9751   59.1304 H   0  0  0  0  0  0  0  0  0  0  0  0
   35.0809   13.6344   60.0966 H   0  0  0  0  0  0  0  0  0  0  0  0
   32.7038   12.9923   60.5117 H   0  0  0  0  0  0  0  0  0  0  0  0
   29.6262    9.9000   62.5572 H   0  0  0  0  0  0  0  0  0  0  0  0
   28.7830    7.7090   61.3690 H   0  0  0  0  0  0  0  0  0  0  0  0
   27.2320   10.5065   63.2438 H   0  0  0  0  0  0  0  0  0  0  0  0
   26.7750    9.1210   60.8390 H   0  0  0  0  0  0  0  0  0  0  0  0
  1  2  1  0
  2  3  1  0
  3  4  1  0
  4  5  1  0
  5  6  3  0
  6  7  1  0
  7  8  2  0
  8  9  1  0
  9 10  2  0
 10 11  1  0
 11 12  2  0
  4 13  1  0
 13 14  1  0
 13 15  1  0
 15 16  1  0
 15  2  1  0
 12  7  1  0
  1 17  1  0
  1 18  1  0
  1 19  1  0
  2 20  1  1
  3 21  1  0
  3 22  1  0
  4 23  1  6
  8 24  1  0
  9 25  1  0
 10 26  1  0
 11 27  1  0
 12 28  1  0
 13 29  1  1
 14 30  1  0
 15 31  1  1
 16 32  1  0
M  CHG  1   3   1
M  END
>  <meeko>  (8) 
{"is_sidechain": [false], "free_energy": -5.564, "intermolecular_energy": -6.215, "internal_energy": -0.153}

$$$$
4pcs_ligand
     RDKit          3D

 32 33  0  0  0  0  0  0  0  0999 V2000
   31.6740    5.5010   55.6730 C   0  0  0  0  0  0  0  0  0  0  0  0
   31.3850    5.9710   57.0860 C   0  0  2  0  0  0  0  0  0  0  0  0
   31.8760    7.3840   57.2560 N   0  0  0  0  0  0  0  0  0  0  0  0
   32.0610    7.6020   58.7360 C   0  0  1  0  0  0  0  0  0  0  0  0
   31.0040    8.5040   59.1890 C   0  0  0  0  0  0  0  0  0  0  0  0
   30.1340    9.2470   59.5530 C   0  0  0  0  0  0  0  0  0  0  0  0
   29.0960   10.1300   59.9920 C   0  0  0  0  0  0  0  0  0  0  0  0
   28.1720    9.7000   60.9470 C   0  0  0  0  0  0  0  0  0  0  0  0
   27.1610   10.5620   61.3770 C   0  0  0  0  0  0  0  0  0  0  0  0
   27.0750   11.8520   60.8550 C   0  0  0  0  0  0  0  0  0  0  0  0
   27.9970   12.2820   59.9010 C   0  0  0  0  0  0  0  0  0  0  0  0
   29.0080   11.4220   59.4680 C   0  0  0  0  0  0  0  0  0  0  0  0
   31.9490    6.1960   59.3820 C   0  0  2  0  0  0  0  0  0  0  0  0
   32.9620    5.9400   60.3530 O   0  0  0  0  0  0  0  0  0  0  0  0
   32.1580    5.2550   58.1930 C   0  0  2  0  0  0  0  0  0  0  0  0
   33.5540    5.2260   57.8640 O   0  0  0  0  0  0  0  0  0  0  0  0
   32.2499    4.5645   55.7087 H   0  0  0  0  0  0  0  0  0  0  0  0
   30.7258    5.3284   55.1428 H   0  0  0  0  0  0  0  0  0  0  0  0
   32.2559    6.2693   55.1428 H   0  0  0  0  0  0  0  0  0  0  0  0
   30.3027    5.8014   57.1857 H   0  0  0  0  0  0  0  0  0  0  0  0
   32.8120    7.4420   56.8260 H   0  0  0  0  0  0  0  0  0  0  0  0
   31.2770    8.0900   56.8110 H   0  0  0  0  0  0  0  0  0  0  0  0
   33.0255    8.0577   59.0044 H   0  0  0  0  0  0  0  0  0  0  0  0
   28.2406    8.6829   61.3602 H   0  0  0  0  0  0  0  0  0  0  0  0
   26.4321   10.2231   62.1279 H   0  0  0  0  0  0  0  0  0  0  0  0
   26.2795   12.5310   61.1958 H   0  0  0  0  0  0  0  0  0  0  0  0
   27.9276   13.2997   59.4893 H   0  0  0  0  0  0  0  0  0  0  0  0
   29.7345   11.7614   58.7150 H   0  0  0  0  0  0  0  0  0  0  0  0
   30.9937    6.0795   59.9147 H   0  0  0  0  0  0  0  0  0  0  0  0
   32.6820    5.1900   60.9130 H   0  0  0  0  0  0  0  0  0  0  0  0
   31.8352    4.2177   58.3656 H   0  0  0  0  0  0  0  0  0  0  0  0
   33.8280    6.1650   57.7680 H   0  0  0  0  0  0  0  0  0  0  0  0
  1  2  1  0
  2  3  1  0
  3  4  1  0
  4  5  1  0
  5  6  3  0
  6  7  1  0
  7  8  2  0
  8  9  1  0
  9 10  2  0
 10 11  1  0
 11 12  2  0
  4 13  1  0
 13 14  1  0
 13 15  1  0
 15 16  1  0
 15  2  1  0
 12  7  1  0
  1 17  1  0
  1 18  1  0
  1 19  1  0
  2 20  1  1
  3 21  1  0
  3 22  1  0
  4 23  1  6
  8 24  1  0
  9 25  1  0
 10 26  1  0
 11 27  1  0
 12 28  1  0
 13 29  1  1
 14 30  1  0
 15 31  1  1
 16 32  1  0
M  CHG  1   3   1
M  END
>  <meeko>  (9) 
{"is_sidechain": [false], "free_energy": -5.539, "intermolecular_energy": -6.186, "internal_energy": -0.154}

$$$$
