4f2w_ligand
     RDKit          3D

 40 42  0  0  0  0  0  0  0  0999 V2000
   10.2010  -18.5120  -10.1600 C   0  0  0  0  0  0  0  0  0  0  0  0
    8.9980  -19.0720   -8.9230 S   0  0  0  0  0  0  0  0  0  0  0  0
    7.5550  -19.2860  -10.0130 C   0  0  0  0  0  0  0  0  0  0  0  0
    7.0670  -17.9970  -10.6910 C   0  0  1  0  0  0  0  0  0  0  0  0
    6.3560  -18.2420  -12.0300 C   0  0  0  0  0  0  0  0  0  0  0  0
    5.0320  -17.5330  -11.9260 N   0  0  1  0  0  0  0  0  0  0  0  0
    3.9340  -18.0620  -12.7880 C   0  0  0  0  0  0  0  0  0  0  0  0
    4.1660  -19.4630  -13.2230 C   0  0  0  0  0  0  0  0  0  0  0  0
    4.8510  -19.9160  -14.3390 C   0  0  0  0  0  0  0  0  0  0  0  0
    4.8230  -21.2920  -14.3350 N   0  0  0  0  0  0  0  0  0  0  0  0
    4.1320  -21.7390  -13.2360 C   0  0  0  0  0  0  0  0  0  0  0  0
    3.8040  -23.0050  -12.7820 C   0  0  0  0  0  0  0  0  0  0  0  0
    4.1840  -24.1750  -13.4110 N   0  0  0  0  0  0  0  0  0  0  0  0
    3.0660  -23.0880  -11.6630 N   0  0  0  0  0  0  0  0  0  0  0  0
    2.6980  -21.9500  -11.0440 C   0  0  0  0  0  0  0  0  0  0  0  0
    2.9660  -20.6820  -11.4130 N   0  0  0  0  0  0  0  0  0  0  0  0
    3.7120  -20.6210  -12.5380 C   0  0  0  0  0  0  0  0  0  0  0  0
    4.7120  -17.4540  -10.4600 C   0  0  0  0  0  0  0  0  0  0  0  0
    6.0850  -17.1660   -9.8570 C   0  0  2  0  0  0  0  0  0  0  0  0
    6.3690  -15.7790  -10.0940 O   0  0  0  0  0  0  0  0  0  0  0  0
   11.0853  -18.1004   -9.6514 H   0  0  0  0  0  0  0  0  0  0  0  0
   10.5026  -19.3623  -10.7893 H   0  0  0  0  0  0  0  0  0  0  0  0
    9.7446  -17.7338  -10.7893 H   0  0  0  0  0  0  0  0  0  0  0  0
    7.8234  -20.0066  -10.7996 H   0  0  0  0  0  0  0  0  0  0  0  0
    6.7302  -19.6321   -9.3728 H   0  0  0  0  0  0  0  0  0  0  0  0
    8.0107  -17.4485  -10.8273 H   0  0  0  0  0  0  0  0  0  0  0  0
    6.9481  -17.8283  -12.8596 H   0  0  0  0  0  0  0  0  0  0  0  0
    6.2260  -19.3160  -12.2293 H   0  0  0  0  0  0  0  0  0  0  0  0
    5.1980  -16.5550  -12.2330 H   0  0  0  0  0  0  0  0  0  0  0  0
    2.9921  -18.0217  -12.2212 H   0  0  0  0  0  0  0  0  0  0  0  0
    3.8939  -17.4374  -13.6926 H   0  0  0  0  0  0  0  0  0  0  0  0
    5.3345  -19.2839  -15.0984 H   0  0  0  0  0  0  0  0  0  0  0  0
    5.2260  -21.8950  -15.0420 H   0  0  0  0  0  0  0  0  0  0  0  0
    4.9430  -24.0890  -14.0730 H   0  0  0  0  0  0  0  0  0  0  0  0
    4.3190  -24.9100  -12.7210 H   0  0  0  0  0  0  0  0  0  0  0  0
    2.1062  -22.0703  -10.1246 H   0  0  0  0  0  0  0  0  0  0  0  0
    4.0026  -16.6405  -10.2480 H   0  0  0  0  0  0  0  0  0  0  0  0
    4.2297  -18.3579  -10.0595 H   0  0  0  0  0  0  0  0  0  0  0  0
    6.1441  -17.3952   -8.7828 H   0  0  0  0  0  0  0  0  0  0  0  0
    6.3550  -15.3150   -9.2350 H   0  0  0  0  0  0  0  0  0  0  0  0
  1  2  1  0
  2  3  1  0
  3  4  1  0
  4  5  1  0
  5  6  1  0
  6  7  1  0
  7  8  1  0
  8  9  2  0
  9 10  1  0
 10 11  1  0
 11 12  2  0
 12 13  1  0
 12 14  1  0
 14 15  2  0
 15 16  1  0
 16 17  2  0
  6 18  1  0
 18 19  1  0
 19 20  1  0
 19  4  1  0
 17  8  1  0
 17 11  1  0
  1 21  1  0
  1 22  1  0
  1 23  1  0
  3 24  1  0
  3 25  1  0
  4 26  1  6
  5 27  1  0
  5 28  1  0
  6 29  1  6
  7 30  1  0
  7 31  1  0
  9 32  1  0
 10 33  1  0
 13 34  1  0
 13 35  1  0
 15 36  1  0
 18 37  1  0
 18 38  1  0
 19 39  1  1
 20 40  1  0
M  CHG  1   6   1
M  END
>  <meeko>  (1) 
{"is_sidechain": [false], "free_energy": -9.052, "intermolecular_energy": -11.698, "internal_energy": -0.269}

$$$$
4f2w_ligand
     RDKit          3D

 40 42  0  0  0  0  0  0  0  0999 V2000
   14.2030  -17.6360  -12.4190 C   0  0  0  0  0  0  0  0  0  0  0  0
   14.5380  -19.0870  -11.3830 S   0  0  0  0  0  0  0  0  0  0  0  0
   12.8220  -19.6020  -11.0580 C   0  0  0  0  0  0  0  0  0  0  0  0
   12.0110  -18.6210  -10.1980 C   0  0  1  0  0  0  0  0  0  0  0  0
   10.5420  -18.5010  -10.6300 C   0  0  0  0  0  0  0  0  0  0  0  0
    9.7290  -18.7450   -9.3870 N   0  0  1  0  0  0  0  0  0  0  0  0
    8.3440  -19.2590   -9.5970 C   0  0  0  0  0  0  0  0  0  0  0  0
    7.4420  -18.2510  -10.2130 C   0  0  0  0  0  0  0  0  0  0  0  0
    7.2520  -16.9290   -9.8470 C   0  0  0  0  0  0  0  0  0  0  0  0
    6.3300  -16.3710  -10.7040 N   0  0  0  0  0  0  0  0  0  0  0  0
    5.9210  -17.3090  -11.6200 C   0  0  0  0  0  0  0  0  0  0  0  0
    5.0140  -17.2710  -12.6640 C   0  0  0  0  0  0  0  0  0  0  0  0
    4.3020  -16.1440  -13.0290 N   0  0  0  0  0  0  0  0  0  0  0  0
    4.8180  -18.4050  -13.3540 N   0  0  0  0  0  0  0  0  0  0  0  0
    5.5130  -19.5040  -13.0050 C   0  0  0  0  0  0  0  0  0  0  0  0
    6.4080  -19.6360  -12.0070 N   0  0  0  0  0  0  0  0  0  0  0  0
    6.5930  -18.4820  -11.3280 C   0  0  0  0  0  0  0  0  0  0  0  0
   10.5880  -19.5790   -8.4800 C   0  0  0  0  0  0  0  0  0  0  0  0
   11.9670  -18.9630   -8.7040 C   0  0  2  0  0  0  0  0  0  0  0  0
   12.0050  -17.7310   -7.9690 O   0  0  0  0  0  0  0  0  0  0  0  0
   14.0021  -16.7656  -11.7771 H   0  0  0  0  0  0  0  0  0  0  0  0
   15.0770  -17.4292  -13.0541 H   0  0  0  0  0  0  0  0  0  0  0  0
   13.3268  -17.8333  -13.0541 H   0  0  0  0  0  0  0  0  0  0  0  0
   12.3092  -19.7157  -12.0245 H   0  0  0  0  0  0  0  0  0  0  0  0
   12.8814  -20.5406  -10.4875 H   0  0  0  0  0  0  0  0  0  0  0  0
   12.5595  -17.6810  -10.3579 H   0  0  0  0  0  0  0  0  0  0  0  0
   10.3406  -17.4957  -11.0285 H   0  0  0  0  0  0  0  0  0  0  0  0
   10.2932  -19.2197  -11.4247 H   0  0  0  0  0  0  0  0  0  0  0  0
    9.6300  -17.8250   -8.9150 H   0  0  0  0  0  0  0  0  0  0  0  0
    8.3917  -20.1377  -10.2570 H   0  0  0  0  0  0  0  0  0  0  0  0
    7.9317  -19.5121   -8.6091 H   0  0  0  0  0  0  0  0  0  0  0  0
    7.7521  -16.4130   -9.0141 H   0  0  0  0  0  0  0  0  0  0  0  0
    5.9810  -15.4210  -10.6630 H   0  0  0  0  0  0  0  0  0  0  0  0
    4.7530  -15.5400  -13.7020 H   0  0  0  0  0  0  0  0  0  0  0  0
    3.3500  -16.4020  -13.2800 H   0  0  0  0  0  0  0  0  0  0  0  0
    5.3272  -20.4045  -13.6088 H   0  0  0  0  0  0  0  0  0  0  0  0
   10.2725  -19.4842   -7.4305 H   0  0  0  0  0  0  0  0  0  0  0  0
   10.5421  -20.6578   -8.6901 H   0  0  0  0  0  0  0  0  0  0  0  0
   12.7920  -19.6227   -8.3970 H   0  0  0  0  0  0  0  0  0  0  0  0
   12.8910  -17.3350   -8.0850 H   0  0  0  0  0  0  0  0  0  0  0  0
  1  2  1  0
  2  3  1  0
  3  4  1  0
  4  5  1  0
  5  6  1  0
  6  7  1  0
  7  8  1  0
  8  9  2  0
  9 10  1  0
 10 11  1  0
 11 12  2  0
 12 13  1  0
 12 14  1  0
 14 15  2  0
 15 16  1  0
 16 17  2  0
  6 18  1  0
 18 19  1  0
 19 20  1  0
 19  4  1  0
 17  8  1  0
 17 11  1  0
  1 21  1  0
  1 22  1  0
  1 23  1  0
  3 24  1  0
  3 25  1  0
  4 26  1  1
  5 27  1  0
  5 28  1  0
  6 29  1  1
  7 30  1  0
  7 31  1  0
  9 32  1  0
 10 33  1  0
 13 34  1  0
 13 35  1  0
 15 36  1  0
 18 37  1  0
 18 38  1  0
 19 39  1  1
 20 40  1  0
M  CHG  1   6   1
M  END
>  <meeko>  (2) 
{"is_sidechain": [false], "free_energy": -6.086, "intermolecular_energy": -7.742, "internal_energy": -0.392}

$$$$
