4gr0_ligand
     RDKit          3D

 74 77  0  0  0  0  0  0  0  0999 V2000
   -8.4370   27.4520  -11.4240 C   0  0  0  0  0  0  0  0  0  0  0  0
   -7.4390   28.0480  -10.4310 C   0  0  2  0  0  0  0  0  0  0  0  0
   -8.0970   28.3680   -9.1660 N   0  0  0  0  0  0  0  0  0  0  0  0
   -7.3710   28.6500   -8.0270 C   0  0  0  0  0  0  0  0  0  0  0  0
   -6.1430   28.5350   -7.9890 O   0  0  0  0  0  0  0  0  0  0  0  0
   -8.1840   28.9190   -6.7380 C   0  0  2  0  0  0  0  0  0  0  0  0
   -7.6910   30.2200   -6.1120 C   0  0  0  0  0  0  0  0  0  0  0  0
   -8.1200   27.8450   -5.7610 N   0  0  0  0  0  0  0  0  0  0  0  0
   -8.8050   27.8480   -4.5820 C   0  0  0  0  0  0  0  0  0  0  0  0
   -9.5840   28.7430   -4.2590 O   0  0  0  0  0  0  0  0  0  0  0  0
   -8.5380   26.6600   -3.6620 C   0  0  2  0  0  0  0  0  0  0  0  0
   -9.0380   25.3480   -4.2820 C   0  0  0  0  0  0  0  0  0  0  0  0
   -7.9150   24.4700   -4.7140 C   0  0  0  0  0  0  0  0  0  0  0  0
   -6.6350   24.7040   -5.1500 C   0  0  0  0  0  0  0  0  0  0  0  0
   -6.0880   23.4150   -5.3970 C   0  0  0  0  0  0  0  0  0  0  0  0
   -4.7480   23.0710   -5.8820 C   0  0  0  0  0  0  0  0  0  0  0  0
   -3.6100   23.6710   -5.3240 C   0  0  0  0  0  0  0  0  0  0  0  0
   -2.3260   23.3510   -5.7820 C   0  0  0  0  0  0  0  0  0  0  0  0
   -2.1380   22.4190   -6.8140 C   0  0  0  0  0  0  0  0  0  0  0  0
   -0.7890   22.0850   -7.2990 C   0  0  0  0  0  0  0  0  0  0  0  0
   -0.5640   20.9280   -8.0670 C   0  0  0  0  0  0  0  0  0  0  0  0
    0.7150   20.6050   -8.5300 C   0  0  0  0  0  0  0  0  0  0  0  0
    1.7920   21.4350   -8.2330 C   0  0  0  0  0  0  0  0  0  0  0  0
    1.5860   22.5850   -7.4760 C   0  0  0  0  0  0  0  0  0  0  0  0
    2.9170   23.6140   -7.1100 Cl  0  0  0  0  0  0  0  0  0  0  0  0
    0.3110   22.9110   -7.0120 C   0  0  0  0  0  0  0  0  0  0  0  0
   -3.2780   21.8190   -7.3700 C   0  0  0  0  0  0  0  0  0  0  0  0
   -4.5630   22.1400   -6.9120 C   0  0  0  0  0  0  0  0  0  0  0  0
   -7.0000   22.4690   -5.1150 N   0  0  0  0  0  0  0  0  0  0  0  0
   -8.1360   23.1310   -4.6920 O   0  0  0  0  0  0  0  0  0  0  0  0
   -9.0780   26.9170   -2.2500 C   0  0  0  0  0  0  0  0  0  0  0  0
   -7.9390   26.5510   -0.8500 P   0  0  2  0  0  5  0  0  0  0  0  0
   -7.3220   27.8760   -0.4650 O   0  0  0  0  0  0  0  0  0  0  0  0
   -7.0050   25.4380   -1.3140 O   0  0  0  0  0  0  0  0  0  0  0  0
   -9.0480   25.9510    0.4340 C   0  0  0  0  0  0  0  0  0  0  0  0
   -8.6740   24.8670    1.2380 C   0  0  0  0  0  0  0  0  0  0  0  0
   -9.5270   24.4020    2.2400 C   0  0  0  0  0  0  0  0  0  0  0  0
  -10.7600   25.0220    2.4370 C   0  0  0  0  0  0  0  0  0  0  0  0
  -11.9180   24.3930    3.7940 Br  0  0  0  0  0  0  0  0  0  0  0  0
  -11.1480   26.0980    1.6410 C   0  0  0  0  0  0  0  0  0  0  0  0
  -10.2920   26.5600    0.6400 C   0  0  0  0  0  0  0  0  0  0  0  0
   -6.7160   29.2520  -11.0820 C   0  0  0  0  0  0  0  0  0  0  0  0
   -5.3530   29.2620  -11.0020 N   0  0  0  0  0  0  0  0  0  0  0  0
   -7.2850   30.0850  -11.7880 O   0  0  0  0  0  0  0  0  0  0  0  0
   -9.2547   26.9637  -10.8736 H   0  0  0  0  0  0  0  0  0  0  0  0
   -8.8477   28.2529  -12.0564 H   0  0  0  0  0  0  0  0  0  0  0  0
   -7.9267   26.7106  -12.0564 H   0  0  0  0  0  0  0  0  0  0  0  0
   -6.6639   27.3083  -10.1818 H   0  0  0  0  0  0  0  0  0  0  0  0
   -9.0460   28.7470   -9.2200 H   0  0  0  0  0  0  0  0  0  0  0  0
   -9.2411   28.9901   -7.0337 H   0  0  0  0  0  0  0  0  0  0  0  0
   -7.7233   30.1347   -5.0158 H   0  0  0  0  0  0  0  0  0  0  0  0
   -6.6572   30.4134   -6.4344 H   0  0  0  0  0  0  0  0  0  0  0  0
   -8.3370   31.0499   -6.4344 H   0  0  0  0  0  0  0  0  0  0  0  0
   -7.5980   26.9930   -5.9980 H   0  0  0  0  0  0  0  0  0  0  0  0
   -7.4497   26.5436   -3.5523 H   0  0  0  0  0  0  0  0  0  0  0  0
   -9.6420   24.8105   -3.5361 H   0  0  0  0  0  0  0  0  0  0  0  0
   -9.6341   25.5988   -5.1718 H   0  0  0  0  0  0  0  0  0  0  0  0
   -6.1397   25.6775   -5.2802 H   0  0  0  0  0  0  0  0  0  0  0  0
   -3.7279   24.4050   -4.5133 H   0  0  0  0  0  0  0  0  0  0  0  0
   -1.4513   23.8377   -5.3258 H   0  0  0  0  0  0  0  0  0  0  0  0
   -1.4090   20.2660   -8.3074 H   0  0  0  0  0  0  0  0  0  0  0  0
    0.8700   19.6953   -9.1287 H   0  0  0  0  0  0  0  0  0  0  0  0
    2.8001   21.1838   -8.5943 H   0  0  0  0  0  0  0  0  0  0  0  0
    0.1655   23.8238   -6.4156 H   0  0  0  0  0  0  0  0  0  0  0  0
   -3.1611   21.0837   -8.1797 H   0  0  0  0  0  0  0  0  0  0  0  0
   -5.4384   21.6541   -7.3677 H   0  0  0  0  0  0  0  0  0  0  0  0
   -9.3532   27.9801   -2.1867 H   0  0  0  0  0  0  0  0  0  0  0  0
   -9.9181   26.2172   -2.1299 H   0  0  0  0  0  0  0  0  0  0  0  0
   -7.7013   24.3787    1.0787 H   0  0  0  0  0  0  0  0  0  0  0  0
   -9.2282   23.5515    2.8704 H   0  0  0  0  0  0  0  0  0  0  0  0
  -12.1235   26.5806    1.8007 H   0  0  0  0  0  0  0  0  0  0  0  0
  -10.5966   27.4079    0.0089 H   0  0  0  0  0  0  0  0  0  0  0  0
   -4.8920   30.1000  -11.3310 H   0  0  0  0  0  0  0  0  0  0  0  0
   -4.8790   28.8380  -10.1930 H   0  0  0  0  0  0  0  0  0  0  0  0
  1  2  1  0
  2  3  1  0
  3  4  1  0
  4  5  2  0
  4  6  1  0
  6  7  1  0
  6  8  1  0
  8  9  1  0
  9 10  2  0
  9 11  1  0
 11 12  1  0
 12 13  1  0
 13 14  2  0
 14 15  1  0
 15 16  1  0
 16 17  2  0
 17 18  1  0
 18 19  2  0
 19 20  1  0
 20 21  2  0
 21 22  1  0
 22 23  2  0
 23 24  1  0
 24 25  1  0
 24 26  2  0
 19 27  1  0
 27 28  2  0
 15 29  2  0
 29 30  1  0
 11 31  1  0
 31 32  1  0
 32 33  2  0
 32 34  1  6
 32 35  1  0
 35 36  2  0
 36 37  1  0
 37 38  2  0
 38 39  1  0
 38 40  1  0
 40 41  2  0
  2 42  1  0
 42 43  1  0
 42 44  2  0
 30 13  1  0
 41 35  1  0
 28 16  1  0
 26 20  1  0
  1 45  1  0
  1 46  1  0
  1 47  1  0
  2 48  1  1
  3 49  1  0
  6 50  1  6
  7 51  1  0
  7 52  1  0
  7 53  1  0
  8 54  1  0
 11 55  1  1
 12 56  1  0
 12 57  1  0
 14 58  1  0
 17 59  1  0
 18 60  1  0
 21 61  1  0
 22 62  1  0
 23 63  1  0
 26 64  1  0
 27 65  1  0
 28 66  1  0
 31 67  1  0
 31 68  1  0
 36 69  1  0
 37 70  1  0
 40 71  1  0
 41 72  1  0
 43 73  1  0
 43 74  1  0
M  CHG  1  34  -1
M  END
>  <meeko>  (1) 
{"is_sidechain": [false], "free_energy": -11.335, "intermolecular_energy": -19.287, "internal_energy": -1.653}

$$$$
4gr0_ligand
     RDKit          3D

 74 77  0  0  0  0  0  0  0  0999 V2000
   -9.1820   23.1140    3.6910 C   0  0  0  0  0  0  0  0  0  0  0  0
  -10.3030   23.6580    2.8060 C   0  0  2  0  0  0  0  0  0  0  0  0
   -9.8780   24.8760    2.1210 N   0  0  0  0  0  0  0  0  0  0  0  0
   -9.3070   24.8350    0.8650 C   0  0  0  0  0  0  0  0  0  0  0  0
   -9.0240   23.7710    0.3100 O   0  0  0  0  0  0  0  0  0  0  0  0
   -8.8480   26.1880    0.2710 C   0  0  2  0  0  0  0  0  0  0  0  0
   -9.5050   27.3160    1.0620 C   0  0  0  0  0  0  0  0  0  0  0  0
   -9.1390   26.3430   -1.1440 N   0  0  0  0  0  0  0  0  0  0  0  0
   -8.2880   25.9670   -2.1410 C   0  0  0  0  0  0  0  0  0  0  0  0
   -7.2100   25.4130   -1.9320 O   0  0  0  0  0  0  0  0  0  0  0  0
   -8.7510   26.2870   -3.5590 C   0  0  2  0  0  0  0  0  0  0  0  0
   -9.1880   25.0210   -4.3060 C   0  0  0  0  0  0  0  0  0  0  0  0
   -8.0270   24.1880   -4.7250 C   0  0  0  0  0  0  0  0  0  0  0  0
   -6.7700   24.4740   -5.1950 C   0  0  0  0  0  0  0  0  0  0  0  0
   -6.1570   23.2080   -5.4030 C   0  0  0  0  0  0  0  0  0  0  0  0
   -4.8090   22.9180   -5.9010 C   0  0  0  0  0  0  0  0  0  0  0  0
   -3.6980   23.6140   -5.4010 C   0  0  0  0  0  0  0  0  0  0  0  0
   -2.4070   23.3460   -5.8720 C   0  0  0  0  0  0  0  0  0  0  0  0
   -2.1830   22.3730   -6.8570 C   0  0  0  0  0  0  0  0  0  0  0  0
   -0.8270   22.0930   -7.3560 C   0  0  0  0  0  0  0  0  0  0  0  0
   -0.5550   20.9270   -8.0950 C   0  0  0  0  0  0  0  0  0  0  0  0
    0.7310   20.6560   -8.5710 C   0  0  0  0  0  0  0  0  0  0  0  0
    1.7690   21.5480   -8.3150 C   0  0  0  0  0  0  0  0  0  0  0  0
    1.5170   22.7070   -7.5850 C   0  0  0  0  0  0  0  0  0  0  0  0
    2.7990   23.8110   -7.2700 Cl  0  0  0  0  0  0  0  0  0  0  0  0
    0.2340   22.9810   -7.1090 C   0  0  0  0  0  0  0  0  0  0  0  0
   -3.2960   21.6770   -7.3540 C   0  0  0  0  0  0  0  0  0  0  0  0
   -4.5890   21.9450   -6.8840 C   0  0  0  0  0  0  0  0  0  0  0  0
   -7.0110   22.2260   -5.0670 N   0  0  0  0  0  0  0  0  0  0  0  0
   -8.1740   22.8410   -4.6480 O   0  0  0  0  0  0  0  0  0  0  0  0
   -7.7030   27.1140   -4.3150 C   0  0  0  0  0  0  0  0  0  0  0  0
   -8.0560   28.9090   -4.5210 P   0  0  2  0  0  5  0  0  0  0  0  0
   -7.0710   29.6270   -3.6290 O   0  0  0  0  0  0  0  0  0  0  0  0
   -9.5440   29.1050   -4.2440 O   0  0  0  0  0  0  0  0  0  0  0  0
   -7.6940   29.2000   -6.2590 C   0  0  0  0  0  0  0  0  0  0  0  0
   -7.6630   28.1310   -7.1630 C   0  0  0  0  0  0  0  0  0  0  0  0
   -7.3900   28.3510   -8.5130 C   0  0  0  0  0  0  0  0  0  0  0  0
   -7.1450   29.6480   -8.9620 C   0  0  0  0  0  0  0  0  0  0  0  0
   -6.7740   29.9510  -10.7920 Br  0  0  0  0  0  0  0  0  0  0  0  0
   -7.1670   30.7230   -8.0750 C   0  0  0  0  0  0  0  0  0  0  0  0
   -7.4420   30.4970   -6.7250 C   0  0  0  0  0  0  0  0  0  0  0  0
  -11.5910   23.8310    3.6490 C   0  0  0  0  0  0  0  0  0  0  0  0
  -11.6580   23.1260    4.8160 N   0  0  0  0  0  0  0  0  0  0  0  0
  -12.4540   24.6750    3.4040 O   0  0  0  0  0  0  0  0  0  0  0  0
   -9.4533   23.2457    4.7488 H   0  0  0  0  0  0  0  0  0  0  0  0
   -9.0350   22.0444    3.4806 H   0  0  0  0  0  0  0  0  0  0  0  0
   -8.2508   23.6604    3.4806 H   0  0  0  0  0  0  0  0  0  0  0  0
  -10.5384   22.9387    2.0078 H   0  0  0  0  0  0  0  0  0  0  0  0
  -10.3380   25.7480    2.3960 H   0  0  0  0  0  0  0  0  0  0  0  0
   -7.7518   26.2220    0.3559 H   0  0  0  0  0  0  0  0  0  0  0  0
   -9.3923   27.1226    2.1390 H   0  0  0  0  0  0  0  0  0  0  0  0
   -9.0220   28.2712    0.8085 H   0  0  0  0  0  0  0  0  0  0  0  0
  -10.5742   27.3672    0.8085 H   0  0  0  0  0  0  0  0  0  0  0  0
  -10.0690   26.6760   -1.4240 H   0  0  0  0  0  0  0  0  0  0  0  0
   -9.6475   26.9211   -3.4946 H   0  0  0  0  0  0  0  0  0  0  0  0
   -9.8326   24.4236   -3.6444 H   0  0  0  0  0  0  0  0  0  0  0  0
   -9.7261   25.3323   -5.2135 H   0  0  0  0  0  0  0  0  0  0  0  0
   -6.3316   25.4672   -5.3724 H   0  0  0  0  0  0  0  0  0  0  0  0
   -3.8435   24.3820   -4.6271 H   0  0  0  0  0  0  0  0  0  0  0  0
   -1.5544   23.9078   -5.4628 H   0  0  0  0  0  0  0  0  0  0  0  0
   -1.3686   20.2162   -8.3018 H   0  0  0  0  0  0  0  0  0  0  0  0
    0.9228   19.7389   -9.1473 H   0  0  0  0  0  0  0  0  0  0  0  0
    2.7826   21.3384   -8.6873 H   0  0  0  0  0  0  0  0  0  0  0  0
    0.0513   23.9012   -6.5347 H   0  0  0  0  0  0  0  0  0  0  0  0
   -3.1509   20.9073   -8.1263 H   0  0  0  0  0  0  0  0  0  0  0  0
   -5.4422   21.3837   -7.2926 H   0  0  0  0  0  0  0  0  0  0  0  0
   -6.7509   27.0219   -3.7719 H   0  0  0  0  0  0  0  0  0  0  0  0
   -7.6922   26.7030   -5.3353 H   0  0  0  0  0  0  0  0  0  0  0  0
   -7.8556   27.1088   -6.8053 H   0  0  0  0  0  0  0  0  0  0  0  0
   -7.3682   27.5072   -9.2184 H   0  0  0  0  0  0  0  0  0  0  0  0
   -6.9690   31.7429   -8.4363 H   0  0  0  0  0  0  0  0  0  0  0  0
   -7.4609   31.3431   -6.0224 H   0  0  0  0  0  0  0  0  0  0  0  0
  -12.5400   23.1580    5.3080 H   0  0  0  0  0  0  0  0  0  0  0  0
  -11.1880   22.2140    4.8960 H   0  0  0  0  0  0  0  0  0  0  0  0
  1  2  1  0
  2  3  1  0
  3  4  1  0
  4  5  2  0
  4  6  1  0
  6  7  1  0
  6  8  1  0
  8  9  1  0
  9 10  2  0
  9 11  1  0
 11 12  1  0
 12 13  1  0
 13 14  2  0
 14 15  1  0
 15 16  1  0
 16 17  2  0
 17 18  1  0
 18 19  2  0
 19 20  1  0
 20 21  2  0
 21 22  1  0
 22 23  2  0
 23 24  1  0
 24 25  1  0
 24 26  2  0
 19 27  1  0
 27 28  2  0
 15 29  2  0
 29 30  1  0
 11 31  1  0
 31 32  1  0
 32 33  2  0
 32 34  1  1
 32 35  1  0
 35 36  2  0
 36 37  1  0
 37 38  2  0
 38 39  1  0
 38 40  1  0
 40 41  2  0
  2 42  1  0
 42 43  1  0
 42 44  2  0
 30 13  1  0
 41 35  1  0
 28 16  1  0
 26 20  1  0
  1 45  1  0
  1 46  1  0
  1 47  1  0
  2 48  1  6
  3 49  1  0
  6 50  1  6
  7 51  1  0
  7 52  1  0
  7 53  1  0
  8 54  1  0
 11 55  1  1
 12 56  1  0
 12 57  1  0
 14 58  1  0
 17 59  1  0
 18 60  1  0
 21 61  1  0
 22 62  1  0
 23 63  1  0
 26 64  1  0
 27 65  1  0
 28 66  1  0
 31 67  1  0
 31 68  1  0
 36 69  1  0
 37 70  1  0
 40 71  1  0
 41 72  1  0
 43 73  1  0
 43 74  1  0
M  CHG  1  34  -1
M  END
>  <meeko>  (2) 
{"is_sidechain": [false], "free_energy": -11.202, "intermolecular_energy": -19.615, "internal_energy": -1.098}

$$$$
4gr0_ligand
     RDKit          3D

 74 77  0  0  0  0  0  0  0  0999 V2000
   -8.2810   28.5560   -8.8140 C   0  0  0  0  0  0  0  0  0  0  0  0
   -8.1960   29.9320   -8.1540 C   0  0  2  0  0  0  0  0  0  0  0  0
   -8.4770   29.8380   -6.7230 N   0  0  0  0  0  0  0  0  0  0  0  0
   -7.6470   29.1390   -5.8690 C   0  0  0  0  0  0  0  0  0  0  0  0
   -6.6980   28.4690   -6.2840 O   0  0  0  0  0  0  0  0  0  0  0  0
   -8.0840   29.0680   -4.3870 C   0  0  2  0  0  0  0  0  0  0  0  0
   -7.2350   30.0470   -3.5810 C   0  0  0  0  0  0  0  0  0  0  0  0
   -7.9920   27.7400   -3.8050 N   0  0  0  0  0  0  0  0  0  0  0  0
   -8.7110   26.6660   -4.2410 C   0  0  0  0  0  0  0  0  0  0  0  0
   -9.4720   26.7140   -5.2060 O   0  0  0  0  0  0  0  0  0  0  0  0
   -8.5240   25.3790   -3.4440 C   0  0  2  0  0  0  0  0  0  0  0  0
   -8.7310   24.1400   -4.3230 C   0  0  0  0  0  0  0  0  0  0  0  0
   -7.4430   23.5860   -4.8250 C   0  0  0  0  0  0  0  0  0  0  0  0
   -6.1860   24.1080   -5.0010 C   0  0  0  0  0  0  0  0  0  0  0  0
   -5.4100   23.0360   -5.5200 C   0  0  0  0  0  0  0  0  0  0  0  0
   -3.9920   23.0330   -5.8950 C   0  0  0  0  0  0  0  0  0  0  0  0
   -3.0550   23.7610   -5.1480 C   0  0  0  0  0  0  0  0  0  0  0  0
   -1.6990   23.7670   -5.5000 C   0  0  0  0  0  0  0  0  0  0  0  0
   -1.2370   23.0440   -6.6090 C   0  0  0  0  0  0  0  0  0  0  0  0
    0.1870   23.0530   -6.9830 C   0  0  0  0  0  0  0  0  0  0  0  0
    0.9500   24.2320   -6.8950 C   0  0  0  0  0  0  0  0  0  0  0  0
    2.3020   24.2470   -7.2490 C   0  0  0  0  0  0  0  0  0  0  0  0
    2.9150   23.0810   -7.6990 C   0  0  0  0  0  0  0  0  0  0  0  0
    2.1750   21.9050   -7.7910 C   0  0  0  0  0  0  0  0  0  0  0  0
    2.9330   20.4620   -8.3450 Cl  0  0  0  0  0  0  0  0  0  0  0  0
    0.8250   21.8870   -7.4380 C   0  0  0  0  0  0  0  0  0  0  0  0
   -2.1770   22.3150   -7.3540 C   0  0  0  0  0  0  0  0  0  0  0  0
   -3.5340   22.3100   -7.0030 C   0  0  0  0  0  0  0  0  0  0  0  0
   -6.1720   21.9350   -5.6370 N   0  0  0  0  0  0  0  0  0  0  0  0
   -7.4370   22.2840   -5.2060 O   0  0  0  0  0  0  0  0  0  0  0  0
   -9.3810   25.3810   -2.1720 C   0  0  0  0  0  0  0  0  0  0  0  0
   -8.5200   25.7740   -0.5940 P   0  0  2  0  0  5  0  0  0  0  0  0
   -7.5080   26.8440   -0.9330 O   0  0  0  0  0  0  0  0  0  0  0  0
   -8.0010   24.4560   -0.0280 O   0  0  0  0  0  0  0  0  0  0  0  0
   -9.8390   26.4290    0.4400 C   0  0  0  0  0  0  0  0  0  0  0  0
  -11.1300   25.8910    0.3630 C   0  0  0  0  0  0  0  0  0  0  0  0
  -12.1550   26.3910    1.1670 C   0  0  0  0  0  0  0  0  0  0  0  0
  -11.8880   27.4340    2.0520 C   0  0  0  0  0  0  0  0  0  0  0  0
  -13.2760   28.1130    3.1440 Br  0  0  0  0  0  0  0  0  0  0  0  0
  -10.6100   27.9840    2.1370 C   0  0  0  0  0  0  0  0  0  0  0  0
   -9.5880   27.4810    1.3310 C   0  0  0  0  0  0  0  0  0  0  0  0
   -9.1140   30.9260   -8.9070 C   0  0  0  0  0  0  0  0  0  0  0  0
   -9.4950   30.5710  -10.1690 N   0  0  0  0  0  0  0  0  0  0  0  0
   -9.6310   31.9090   -8.3750 O   0  0  0  0  0  0  0  0  0  0  0  0
   -8.3290   27.7789   -8.0369 H   0  0  0  0  0  0  0  0  0  0  0  0
   -9.1840   28.5048   -9.4400 H   0  0  0  0  0  0  0  0  0  0  0  0
   -7.3911   28.3940   -9.4400 H   0  0  0  0  0  0  0  0  0  0  0  0
   -7.1714   30.3252   -8.2285 H   0  0  0  0  0  0  0  0  0  0  0  0
   -9.0490   30.5810   -6.3130 H   0  0  0  0  0  0  0  0  0  0  0  0
   -9.1503   29.3359   -4.3522 H   0  0  0  0  0  0  0  0  0  0  0  0
   -7.3899   29.8684   -2.5067 H   0  0  0  0  0  0  0  0  0  0  0  0
   -6.1730   29.9007   -3.8277 H   0  0  0  0  0  0  0  0  0  0  0  0
   -7.5301   31.0776   -3.8277 H   0  0  0  0  0  0  0  0  0  0  0  0
   -7.2860   27.5670   -3.0790 H   0  0  0  0  0  0  0  0  0  0  0  0
   -7.4793   25.3317   -3.1029 H   0  0  0  0  0  0  0  0  0  0  0  0
   -9.2426   23.3669   -3.7309 H   0  0  0  0  0  0  0  0  0  0  0  0
   -9.3324   24.4399   -5.1939 H   0  0  0  0  0  0  0  0  0  0  0  0
   -5.8514   25.1338   -4.7868 H   0  0  0  0  0  0  0  0  0  0  0  0
   -3.3897   24.3362   -4.2722 H   0  0  0  0  0  0  0  0  0  0  0  0
   -0.9856   24.3479   -4.8970 H   0  0  0  0  0  0  0  0  0  0  0  0
    0.4739   25.1584   -6.5413 H   0  0  0  0  0  0  0  0  0  0  0  0
    2.8810   25.1791   -7.1721 H   0  0  0  0  0  0  0  0  0  0  0  0
    3.9784   23.0886   -7.9804 H   0  0  0  0  0  0  0  0  0  0  0  0
    0.2544   20.9499   -7.5169 H   0  0  0  0  0  0  0  0  0  0  0  0
   -1.8429   21.7375   -8.2286 H   0  0  0  0  0  0  0  0  0  0  0  0
   -4.2485   21.7304   -7.6060 H   0  0  0  0  0  0  0  0  0  0  0  0
  -10.1797   26.1247   -2.3097 H   0  0  0  0  0  0  0  0  0  0  0  0
   -9.7317   24.3445   -2.0589 H   0  0  0  0  0  0  0  0  0  0  0  0
  -11.3374   25.0680   -0.3367 H   0  0  0  0  0  0  0  0  0  0  0  0
  -13.1670   25.9648    1.1027 H   0  0  0  0  0  0  0  0  0  0  0  0
  -10.4083   28.8096    2.8353 H   0  0  0  0  0  0  0  0  0  0  0  0
   -8.5785   27.9132    1.3955 H   0  0  0  0  0  0  0  0  0  0  0  0
  -10.0030   31.2680  -10.6960 H   0  0  0  0  0  0  0  0  0  0  0  0
   -8.8700   30.0020  -10.7570 H   0  0  0  0  0  0  0  0  0  0  0  0
  1  2  1  0
  2  3  1  0
  3  4  1  0
  4  5  2  0
  4  6  1  0
  6  7  1  0
  6  8  1  0
  8  9  1  0
  9 10  2  0
  9 11  1  0
 11 12  1  0
 12 13  1  0
 13 14  2  0
 14 15  1  0
 15 16  1  0
 16 17  2  0
 17 18  1  0
 18 19  2  0
 19 20  1  0
 20 21  2  0
 21 22  1  0
 22 23  2  0
 23 24  1  0
 24 25  1  0
 24 26  2  0
 19 27  1  0
 27 28  2  0
 15 29  2  0
 29 30  1  0
 11 31  1  0
 31 32  1  0
 32 33  2  0
 32 34  1  1
 32 35  1  0
 35 36  2  0
 36 37  1  0
 37 38  2  0
 38 39  1  0
 38 40  1  0
 40 41  2  0
  2 42  1  0
 42 43  1  0
 42 44  2  0
 30 13  1  0
 41 35  1  0
 28 16  1  0
 26 20  1  0
  1 45  1  0
  1 46  1  0
  1 47  1  0
  2 48  1  1
  3 49  1  0
  6 50  1  6
  7 51  1  0
  7 52  1  0
  7 53  1  0
  8 54  1  0
 11 55  1  1
 12 56  1  0
 12 57  1  0
 14 58  1  0
 17 59  1  0
 18 60  1  0
 21 61  1  0
 22 62  1  0
 23 63  1  0
 26 64  1  0
 27 65  1  0
 28 66  1  0
 31 67  1  0
 31 68  1  0
 36 69  1  0
 37 70  1  0
 40 71  1  0
 41 72  1  0
 43 73  1  0
 43 74  1  0
M  CHG  1  34  -1
M  END
>  <meeko>  (3) 
{"is_sidechain": [false], "free_energy": -11.071, "intermolecular_energy": -19.009, "internal_energy": -1.482}

$$$$
4gr0_ligand
     RDKit          3D

 74 77  0  0  0  0  0  0  0  0999 V2000
   -9.9150   22.9670    2.3260 C   0  0  0  0  0  0  0  0  0  0  0  0
   -9.4310   24.1700    3.1350 C   0  0  2  0  0  0  0  0  0  0  0  0
   -8.7270   25.1210    2.2770 N   0  0  0  0  0  0  0  0  0  0  0  0
   -9.4010   26.1190    1.6010 C   0  0  0  0  0  0  0  0  0  0  0  0
  -10.6330   26.1870    1.5960 O   0  0  0  0  0  0  0  0  0  0  0  0
   -8.5500   27.0260    0.6820 C   0  0  2  0  0  0  0  0  0  0  0  0
   -8.7760   28.4800    1.0860 C   0  0  0  0  0  0  0  0  0  0  0  0
   -8.8250   26.8590   -0.7350 N   0  0  0  0  0  0  0  0  0  0  0  0
   -8.2900   25.8670   -1.5020 C   0  0  0  0  0  0  0  0  0  0  0  0
   -7.5600   24.9870   -1.0490 O   0  0  0  0  0  0  0  0  0  0  0  0
   -8.6460   25.9150   -2.9850 C   0  0  2  0  0  0  0  0  0  0  0  0
   -9.0150   24.5250   -3.5180 C   0  0  0  0  0  0  0  0  0  0  0  0
   -7.9560   23.9640   -4.4020 C   0  0  0  0  0  0  0  0  0  0  0  0
   -6.5840   23.9670   -4.3660 C   0  0  0  0  0  0  0  0  0  0  0  0
   -6.1820   23.2460   -5.5220 C   0  0  0  0  0  0  0  0  0  0  0  0
   -4.8230   22.9440   -5.9830 C   0  0  0  0  0  0  0  0  0  0  0  0
   -3.7170   23.5990   -5.4230 C   0  0  0  0  0  0  0  0  0  0  0  0
   -2.4160   23.3200   -5.8580 C   0  0  0  0  0  0  0  0  0  0  0  0
   -2.1770   22.3760   -6.8680 C   0  0  0  0  0  0  0  0  0  0  0  0
   -0.8100   22.0850   -7.3300 C   0  0  0  0  0  0  0  0  0  0  0  0
   -0.5300   20.9210   -8.0700 C   0  0  0  0  0  0  0  0  0  0  0  0
    0.7660   20.6390   -8.5100 C   0  0  0  0  0  0  0  0  0  0  0  0
    1.8060   21.5170   -8.2170 C   0  0  0  0  0  0  0  0  0  0  0  0
    1.5460   22.6730   -7.4860 C   0  0  0  0  0  0  0  0  0  0  0  0
    2.8310   23.7600   -7.1250 Cl  0  0  0  0  0  0  0  0  0  0  0  0
    0.2530   22.9580   -7.0450 C   0  0  0  0  0  0  0  0  0  0  0  0
   -3.2860   21.7210   -7.4260 C   0  0  0  0  0  0  0  0  0  0  0  0
   -4.5880   22.0000   -6.9910 C   0  0  0  0  0  0  0  0  0  0  0  0
   -7.2650   22.8320   -6.2030 N   0  0  0  0  0  0  0  0  0  0  0  0
   -8.3660   23.2840   -5.5030 O   0  0  0  0  0  0  0  0  0  0  0  0
   -7.5510   26.6140   -3.7990 C   0  0  0  0  0  0  0  0  0  0  0  0
   -8.1060   27.8670   -5.0280 P   0  0  2  0  0  5  0  0  0  0  0  0
   -9.4130   27.3490   -5.5820 O   0  0  0  0  0  0  0  0  0  0  0  0
   -6.9520   28.0780   -6.0030 O   0  0  0  0  0  0  0  0  0  0  0  0
   -8.3620   29.3390   -4.0250 C   0  0  0  0  0  0  0  0  0  0  0  0
   -9.3160   30.2930   -4.4020 C   0  0  0  0  0  0  0  0  0  0  0  0
   -9.5230   31.4330   -3.6250 C   0  0  0  0  0  0  0  0  0  0  0  0
   -8.7730   31.6210   -2.4660 C   0  0  0  0  0  0  0  0  0  0  0  0
   -9.0520   33.1650   -1.4100 Br  0  0  0  0  0  0  0  0  0  0  0  0
   -7.8160   30.6840   -2.0800 C   0  0  0  0  0  0  0  0  0  0  0  0
   -7.6120   29.5440   -2.8600 C   0  0  0  0  0  0  0  0  0  0  0  0
   -8.5940   23.6800    4.3430 C   0  0  0  0  0  0  0  0  0  0  0  0
   -8.8830   22.4350    4.8220 N   0  0  0  0  0  0  0  0  0  0  0  0
   -7.6040   24.2760    4.7690 O   0  0  0  0  0  0  0  0  0  0  0  0
  -10.2360   22.1691    3.0118 H   0  0  0  0  0  0  0  0  0  0  0  0
  -10.7619   23.2683    1.6920 H   0  0  0  0  0  0  0  0  0  0  0  0
   -9.0954   22.5978    1.6920 H   0  0  0  0  0  0  0  0  0  0  0  0
  -10.2900   24.7214    3.5449 H   0  0  0  0  0  0  0  0  0  0  0  0
   -7.7360   25.2800    2.4770 H   0  0  0  0  0  0  0  0  0  0  0  0
   -7.4999   26.7286    0.8194 H   0  0  0  0  0  0  0  0  0  0  0  0
   -8.7881   28.5581    2.1832 H   0  0  0  0  0  0  0  0  0  0  0  0
   -7.9639   29.1030    0.6830 H   0  0  0  0  0  0  0  0  0  0  0  0
   -9.7389   28.8271    0.6830 H   0  0  0  0  0  0  0  0  0  0  0  0
   -9.5260   27.4660   -1.1760 H   0  0  0  0  0  0  0  0  0  0  0  0
   -9.5496   26.5308   -3.1044 H   0  0  0  0  0  0  0  0  0  0  0  0
   -9.1616   23.8457   -2.6653 H   0  0  0  0  0  0  0  0  0  0  0  0
   -9.9350   24.6239   -4.1128 H   0  0  0  0  0  0  0  0  0  0  0  0
   -5.9358   24.4281   -3.6062 H   0  0  0  0  0  0  0  0  0  0  0  0
   -3.8741   24.3440   -4.6291 H   0  0  0  0  0  0  0  0  0  0  0  0
   -1.5673   23.8495   -5.4005 H   0  0  0  0  0  0  0  0  0  0  0  0
   -1.3453   20.2213   -8.3060 H   0  0  0  0  0  0  0  0  0  0  0  0
    0.9643   19.7240   -9.0874 H   0  0  0  0  0  0  0  0  0  0  0  0
    2.8277   21.2985   -8.5612 H   0  0  0  0  0  0  0  0  0  0  0  0
    0.0643   23.8756   -6.4684 H   0  0  0  0  0  0  0  0  0  0  0  0
   -3.1298   20.9751   -8.2192 H   0  0  0  0  0  0  0  0  0  0  0  0
   -5.4375   21.4706   -7.4472 H   0  0  0  0  0  0  0  0  0  0  0  0
   -6.8789   27.1184   -3.0892 H   0  0  0  0  0  0  0  0  0  0  0  0
   -7.0789   25.8170   -4.3922 H   0  0  0  0  0  0  0  0  0  0  0  0
   -9.9064   30.1421   -5.3177 H   0  0  0  0  0  0  0  0  0  0  0  0
  -10.2737   32.1788   -3.9255 H   0  0  0  0  0  0  0  0  0  0  0  0
   -7.2247   30.8418   -1.1659 H   0  0  0  0  0  0  0  0  0  0  0  0
   -6.8578   28.8025   -2.5577 H   0  0  0  0  0  0  0  0  0  0  0  0
   -8.4120   22.1640    5.6740 H   0  0  0  0  0  0  0  0  0  0  0  0
   -9.8430   22.0680    4.7610 H   0  0  0  0  0  0  0  0  0  0  0  0
  1  2  1  0
  2  3  1  0
  3  4  1  0
  4  5  2  0
  4  6  1  0
  6  7  1  0
  6  8  1  0
  8  9  1  0
  9 10  2  0
  9 11  1  0
 11 12  1  0
 12 13  1  0
 13 14  2  0
 14 15  1  0
 15 16  1  0
 16 17  2  0
 17 18  1  0
 18 19  2  0
 19 20  1  0
 20 21  2  0
 21 22  1  0
 22 23  2  0
 23 24  1  0
 24 25  1  0
 24 26  2  0
 19 27  1  0
 27 28  2  0
 15 29  2  0
 29 30  1  0
 11 31  1  0
 31 32  1  0
 32 33  2  0
 32 34  1  6
 32 35  1  0
 35 36  2  0
 36 37  1  0
 37 38  2  0
 38 39  1  0
 38 40  1  0
 40 41  2  0
  2 42  1  0
 42 43  1  0
 42 44  2  0
 30 13  1  0
 41 35  1  0
 28 16  1  0
 26 20  1  0
  1 45  1  0
  1 46  1  0
  1 47  1  0
  2 48  1  1
  3 49  1  0
  6 50  1  6
  7 51  1  0
  7 52  1  0
  7 53  1  0
  8 54  1  0
 11 55  1  1
 12 56  1  0
 12 57  1  0
 14 58  1  0
 17 59  1  0
 18 60  1  0
 21 61  1  0
 22 62  1  0
 23 63  1  0
 26 64  1  0
 27 65  1  0
 28 66  1  0
 31 67  1  0
 31 68  1  0
 36 69  1  0
 37 70  1  0
 40 71  1  0
 41 72  1  0
 43 73  1  0
 43 74  1  0
M  CHG  1  34  -1
M  END
>  <meeko>  (4) 
{"is_sidechain": [false], "free_energy": -11.068, "intermolecular_energy": -18.977, "internal_energy": -1.508}

$$$$
4gr0_ligand
     RDKit          3D

 74 77  0  0  0  0  0  0  0  0999 V2000
   -8.7770   32.0190    0.6900 C   0  0  0  0  0  0  0  0  0  0  0  0
   -7.5780   31.6840   -0.1970 C   0  0  2  0  0  0  0  0  0  0  0  0
   -7.9730   30.7940   -1.2860 N   0  0  0  0  0  0  0  0  0  0  0  0
   -7.2170   30.6820   -2.4360 C   0  0  0  0  0  0  0  0  0  0  0  0
   -6.2420   31.4070   -2.6500 O   0  0  0  0  0  0  0  0  0  0  0  0
   -7.7710   29.7490   -3.5390 C   0  0  2  0  0  0  0  0  0  0  0  0
   -9.1130   30.2970   -4.0140 C   0  0  0  0  0  0  0  0  0  0  0  0
   -7.9240   28.3650   -3.1220 N   0  0  0  0  0  0  0  0  0  0  0  0
   -8.4970   27.3970   -3.8920 C   0  0  0  0  0  0  0  0  0  0  0  0
   -8.8960   27.5980   -5.0380 O   0  0  0  0  0  0  0  0  0  0  0  0
   -8.6290   26.0250   -3.2380 C   0  0  2  0  0  0  0  0  0  0  0  0
   -9.0650   24.9600   -4.2520 C   0  0  0  0  0  0  0  0  0  0  0  0
   -7.9190   24.1380   -4.7300 C   0  0  0  0  0  0  0  0  0  0  0  0
   -6.6370   24.4300   -5.1260 C   0  0  0  0  0  0  0  0  0  0  0  0
   -6.0600   23.1750   -5.4610 C   0  0  0  0  0  0  0  0  0  0  0  0
   -4.7060   22.8940   -5.9490 C   0  0  0  0  0  0  0  0  0  0  0  0
   -3.6000   23.5700   -5.4130 C   0  0  0  0  0  0  0  0  0  0  0  0
   -2.3040   23.3110   -5.8740 C   0  0  0  0  0  0  0  0  0  0  0  0
   -2.0700   22.3670   -6.8850 C   0  0  0  0  0  0  0  0  0  0  0  0
   -0.7070   22.0970   -7.3730 C   0  0  0  0  0  0  0  0  0  0  0  0
   -0.4330   20.9620   -8.1570 C   0  0  0  0  0  0  0  0  0  0  0  0
    0.8580   20.7000   -8.6230 C   0  0  0  0  0  0  0  0  0  0  0  0
    1.9000   21.5710   -8.3120 C   0  0  0  0  0  0  0  0  0  0  0  0
    1.6450   22.7000   -7.5380 C   0  0  0  0  0  0  0  0  0  0  0  0
    2.9310   23.7780   -7.1540 Cl  0  0  0  0  0  0  0  0  0  0  0  0
    0.3560   22.9640   -7.0710 C   0  0  0  0  0  0  0  0  0  0  0  0
   -3.1780   21.6910   -7.4180 C   0  0  0  0  0  0  0  0  0  0  0  0
   -4.4760   21.9500   -6.9570 C   0  0  0  0  0  0  0  0  0  0  0  0
   -6.9570   22.1920   -5.2670 N   0  0  0  0  0  0  0  0  0  0  0  0
   -8.1130   22.7980   -4.8140 O   0  0  0  0  0  0  0  0  0  0  0  0
   -9.5180   26.0860   -1.9890 C   0  0  0  0  0  0  0  0  0  0  0  0
   -8.6640   26.3260   -0.3770 P   0  0  2  0  0  5  0  0  0  0  0  0
   -8.2980   27.7910   -0.3190 O   0  0  0  0  0  0  0  0  0  0  0  0
   -7.5320   25.3050   -0.3140 O   0  0  0  0  0  0  0  0  0  0  0  0
   -9.9410   25.9260    0.8260 C   0  0  0  0  0  0  0  0  0  0  0  0
  -11.1810   26.5770    0.7820 C   0  0  0  0  0  0  0  0  0  0  0  0
  -12.1780   26.2660    1.7080 C   0  0  0  0  0  0  0  0  0  0  0  0
  -11.9330   25.3020    2.6840 C   0  0  0  0  0  0  0  0  0  0  0  0
  -13.2820   24.8780    3.9410 Br  0  0  0  0  0  0  0  0  0  0  0  0
  -10.7020   24.6500    2.7450 C   0  0  0  0  0  0  0  0  0  0  0  0
   -9.7090   24.9630    1.8160 C   0  0  0  0  0  0  0  0  0  0  0  0
   -6.4260   31.1300    0.6770 C   0  0  0  0  0  0  0  0  0  0  0  0
   -6.4400   29.7880    0.9290 N   0  0  0  0  0  0  0  0  0  0  0  0
   -5.4420   31.7950    1.0030 O   0  0  0  0  0  0  0  0  0  0  0  0
   -8.4850   31.9374    1.7474 H   0  0  0  0  0  0  0  0  0  0  0  0
   -9.1127   33.0453    0.4805 H   0  0  0  0  0  0  0  0  0  0  0  0
   -9.5961   31.3153    0.4805 H   0  0  0  0  0  0  0  0  0  0  0  0
   -7.1993   32.5951   -0.6834 H   0  0  0  0  0  0  0  0  0  0  0  0
   -8.5720   30.0000   -1.0430 H   0  0  0  0  0  0  0  0  0  0  0  0
   -7.0303   29.7371   -4.3522 H   0  0  0  0  0  0  0  0  0  0  0  0
   -9.7345   30.5508   -3.1426 H   0  0  0  0  0  0  0  0  0  0  0  0
   -8.9466   31.1992   -4.6209 H   0  0  0  0  0  0  0  0  0  0  0  0
   -9.6256   29.5362   -4.6209 H   0  0  0  0  0  0  0  0  0  0  0  0
   -7.5040   28.0680   -2.2330 H   0  0  0  0  0  0  0  0  0  0  0  0
   -7.6351   25.7121   -2.8854 H   0  0  0  0  0  0  0  0  0  0  0  0
   -9.8022   24.2973   -3.7752 H   0  0  0  0  0  0  0  0  0  0  0  0
   -9.4963   25.4773   -5.1217 H   0  0  0  0  0  0  0  0  0  0  0  0
   -6.1602   25.4201   -5.1736 H   0  0  0  0  0  0  0  0  0  0  0  0
   -3.7535   24.3150   -4.6183 H   0  0  0  0  0  0  0  0  0  0  0  0
   -1.4550   23.8566   -5.4364 H   0  0  0  0  0  0  0  0  0  0  0  0
   -1.2492   20.2685   -8.4077 H   0  0  0  0  0  0  0  0  0  0  0  0
    1.0515   19.8067   -9.2350 H   0  0  0  0  0  0  0  0  0  0  0  0
    2.9181   21.3680   -8.6758 H   0  0  0  0  0  0  0  0  0  0  0  0
    0.1711   23.8601   -6.4604 H   0  0  0  0  0  0  0  0  0  0  0  0
   -3.0253   20.9447   -8.2115 H   0  0  0  0  0  0  0  0  0  0  0  0
   -5.3256   21.4041   -7.3931 H   0  0  0  0  0  0  0  0  0  0  0  0
  -10.2213   26.9214   -2.1211 H   0  0  0  0  0  0  0  0  0  0  0  0
   -9.9894   25.0944   -1.9213 H   0  0  0  0  0  0  0  0  0  0  0  0
  -11.3702   27.3391    0.0117 H   0  0  0  0  0  0  0  0  0  0  0  0
  -13.1505   26.7784    1.6676 H   0  0  0  0  0  0  0  0  0  0  0  0
  -10.5147   23.8932    3.5210 H   0  0  0  0  0  0  0  0  0  0  0  0
   -8.7371   24.4497    1.8616 H   0  0  0  0  0  0  0  0  0  0  0  0
   -5.7500   29.4500    1.5850 H   0  0  0  0  0  0  0  0  0  0  0  0
   -7.3350   29.2840    0.9930 H   0  0  0  0  0  0  0  0  0  0  0  0
  1  2  1  0
  2  3  1  0
  3  4  1  0
  4  5  2  0
  4  6  1  0
  6  7  1  0
  6  8  1  0
  8  9  1  0
  9 10  2  0
  9 11  1  0
 11 12  1  0
 12 13  1  0
 13 14  2  0
 14 15  1  0
 15 16  1  0
 16 17  2  0
 17 18  1  0
 18 19  2  0
 19 20  1  0
 20 21  2  0
 21 22  1  0
 22 23  2  0
 23 24  1  0
 24 25  1  0
 24 26  2  0
 19 27  1  0
 27 28  2  0
 15 29  2  0
 29 30  1  0
 11 31  1  0
 31 32  1  0
 32 33  2  0
 32 34  1  6
 32 35  1  0
 35 36  2  0
 36 37  1  0
 37 38  2  0
 38 39  1  0
 38 40  1  0
 40 41  2  0
  2 42  1  0
 42 43  1  0
 42 44  2  0
 30 13  1  0
 41 35  1  0
 28 16  1  0
 26 20  1  0
  1 45  1  0
  1 46  1  0
  1 47  1  0
  2 48  1  6
  3 49  1  0
  6 50  1  6
  7 51  1  0
  7 52  1  0
  7 53  1  0
  8 54  1  0
 11 55  1  1
 12 56  1  0
 12 57  1  0
 14 58  1  0
 17 59  1  0
 18 60  1  0
 21 61  1  0
 22 62  1  0
 23 63  1  0
 26 64  1  0
 27 65  1  0
 28 66  1  0
 31 67  1  0
 31 68  1  0
 36 69  1  0
 37 70  1  0
 40 71  1  0
 41 72  1  0
 43 73  1  0
 43 74  1  0
M  CHG  1  34  -1
M  END
>  <meeko>  (5) 
{"is_sidechain": [false], "free_energy": -11.007, "intermolecular_energy": -18.349, "internal_energy": -2.032}

$$$$
4gr0_ligand
     RDKit          3D

 74 77  0  0  0  0  0  0  0  0999 V2000
  -12.4090   27.5930    3.6230 C   0  0  0  0  0  0  0  0  0  0  0  0
  -12.2110   26.5540    2.5200 C   0  0  2  0  0  0  0  0  0  0  0  0
  -11.0360   26.8740    1.7120 N   0  0  0  0  0  0  0  0  0  0  0  0
   -9.9350   26.0420    1.6780 C   0  0  0  0  0  0  0  0  0  0  0  0
   -9.8400   25.0540    2.4100 O   0  0  0  0  0  0  0  0  0  0  0  0
   -8.7340   26.5210    0.8280 C   0  0  2  0  0  0  0  0  0  0  0  0
   -8.3660   27.9380    1.2570 C   0  0  0  0  0  0  0  0  0  0  0  0
   -8.9710   26.4850   -0.6050 N   0  0  0  0  0  0  0  0  0  0  0  0
   -8.5120   25.4980   -1.4280 C   0  0  0  0  0  0  0  0  0  0  0  0
   -7.8940   24.5160   -1.0200 O   0  0  0  0  0  0  0  0  0  0  0  0
   -8.8050   25.6890   -2.9130 C   0  0  2  0  0  0  0  0  0  0  0  0
   -9.1920   24.3640   -3.5820 C   0  0  0  0  0  0  0  0  0  0  0  0
   -8.1020   23.8350   -4.4490 C   0  0  0  0  0  0  0  0  0  0  0  0
   -6.7320   23.8860   -4.3960 C   0  0  0  0  0  0  0  0  0  0  0  0
   -6.2900   23.1710   -5.5420 C   0  0  0  0  0  0  0  0  0  0  0  0
   -4.9160   22.9140   -5.9840 C   0  0  0  0  0  0  0  0  0  0  0  0
   -3.8350   23.5670   -5.3730 C   0  0  0  0  0  0  0  0  0  0  0  0
   -2.5200   23.3300   -5.7900 C   0  0  0  0  0  0  0  0  0  0  0  0
   -2.2410   22.4320   -6.8300 C   0  0  0  0  0  0  0  0  0  0  0  0
   -0.8590   22.1850   -7.2730 C   0  0  0  0  0  0  0  0  0  0  0  0
   -0.5290   21.0280   -8.0010 C   0  0  0  0  0  0  0  0  0  0  0  0
    0.7820   20.7880   -8.4230 C   0  0  0  0  0  0  0  0  0  0  0  0
    1.7870   21.7030   -8.1220 C   0  0  0  0  0  0  0  0  0  0  0  0
    1.4770   22.8540   -7.4030 C   0  0  0  0  0  0  0  0  0  0  0  0
    2.7190   23.9880   -7.0330 Cl  0  0  0  0  0  0  0  0  0  0  0  0
    0.1690   23.0970   -6.9810 C   0  0  0  0  0  0  0  0  0  0  0  0
   -3.3240   21.7780   -7.4390 C   0  0  0  0  0  0  0  0  0  0  0  0
   -4.6410   22.0150   -7.0230 C   0  0  0  0  0  0  0  0  0  0  0  0
   -7.3500   22.7160   -6.2330 N   0  0  0  0  0  0  0  0  0  0  0  0
   -8.4750   23.1340   -5.5500 O   0  0  0  0  0  0  0  0  0  0  0  0
   -7.6570   26.4210   -3.6180 C   0  0  0  0  0  0  0  0  0  0  0  0
   -8.1260   27.6450   -4.9100 P   0  0  2  0  0  5  0  0  0  0  0  0
   -9.4210   27.1410   -5.5040 O   0  0  0  0  0  0  0  0  0  0  0  0
   -6.9260   27.7960   -5.8390 O   0  0  0  0  0  0  0  0  0  0  0  0
   -8.3870   29.1560   -3.9670 C   0  0  0  0  0  0  0  0  0  0  0  0
   -7.8190   29.3010   -2.6950 C   0  0  0  0  0  0  0  0  0  0  0  0
   -8.0120   30.4730   -1.9630 C   0  0  0  0  0  0  0  0  0  0  0  0
   -8.7790   31.5030   -2.5030 C   0  0  0  0  0  0  0  0  0  0  0  0
   -9.0430   33.0930   -1.5120 Br  0  0  0  0  0  0  0  0  0  0  0  0
   -9.3560   31.3720   -3.7650 C   0  0  0  0  0  0  0  0  0  0  0  0
   -9.1600   30.1980   -4.4950 C   0  0  0  0  0  0  0  0  0  0  0  0
  -13.5160   26.4140    1.6980 C   0  0  0  0  0  0  0  0  0  0  0  0
  -14.6740   26.2830    2.4080 N   0  0  0  0  0  0  0  0  0  0  0  0
  -13.5710   26.5770    0.4790 O   0  0  0  0  0  0  0  0  0  0  0  0
  -12.3164   27.1070    4.6054 H   0  0  0  0  0  0  0  0  0  0  0  0
  -11.6443   28.3781    3.5288 H   0  0  0  0  0  0  0  0  0  0  0  0
  -13.4088   28.0418    3.5288 H   0  0  0  0  0  0  0  0  0  0  0  0
  -12.0057   25.5676    2.9615 H   0  0  0  0  0  0  0  0  0  0  0  0
  -11.1810   27.4880    0.9060 H   0  0  0  0  0  0  0  0  0  0  0  0
   -7.9084   25.8179    1.0122 H   0  0  0  0  0  0  0  0  0  0  0  0
   -8.3509   27.9963    2.3553 H   0  0  0  0  0  0  0  0  0  0  0  0
   -7.3716   28.1939    0.8625 H   0  0  0  0  0  0  0  0  0  0  0  0
   -9.1102   28.6455    0.8625 H   0  0  0  0  0  0  0  0  0  0  0  0
   -9.5890   27.1920   -1.0210 H   0  0  0  0  0  0  0  0  0  0  0  0
   -9.6844   26.3424   -3.0119 H   0  0  0  0  0  0  0  0  0  0  0  0
   -9.4142   23.6232   -2.7998 H   0  0  0  0  0  0  0  0  0  0  0  0
  -10.0707   24.5491   -4.2173 H   0  0  0  0  0  0  0  0  0  0  0  0
   -6.1100   24.3747   -3.6316 H   0  0  0  0  0  0  0  0  0  0  0  0
   -4.0238   24.2762   -4.5536 H   0  0  0  0  0  0  0  0  0  0  0  0
   -1.6918   23.8570   -5.2936 H   0  0  0  0  0  0  0  0  0  0  0  0
   -1.3164   20.2989   -8.2427 H   0  0  0  0  0  0  0  0  0  0  0  0
    1.0191   19.8771   -8.9923 H   0  0  0  0  0  0  0  0  0  0  0  0
    2.8203   21.5176   -8.4505 H   0  0  0  0  0  0  0  0  0  0  0  0
   -0.0593   24.0117   -6.4142 H   0  0  0  0  0  0  0  0  0  0  0  0
   -3.1353   21.0672   -8.2570 H   0  0  0  0  0  0  0  0  0  0  0  0
   -5.4698   21.4883   -7.5186 H   0  0  0  0  0  0  0  0  0  0  0  0
   -7.0791   26.9537   -2.8484 H   0  0  0  0  0  0  0  0  0  0  0  0
   -7.0992   25.6373   -4.1515 H   0  0  0  0  0  0  0  0  0  0  0  0
   -7.2163   28.4849   -2.2700 H   0  0  0  0  0  0  0  0  0  0  0  0
   -7.5613   30.5831   -0.9656 H   0  0  0  0  0  0  0  0  0  0  0  0
   -9.9623   32.1888   -4.1835 H   0  0  0  0  0  0  0  0  0  0  0  0
   -9.6153   30.0908   -5.4906 H   0  0  0  0  0  0  0  0  0  0  0  0
  -15.5080   26.0840    1.8720 H   0  0  0  0  0  0  0  0  0  0  0  0
  -14.6690   25.8150    3.3250 H   0  0  0  0  0  0  0  0  0  0  0  0
  1  2  1  0
  2  3  1  0
  3  4  1  0
  4  5  2  0
  4  6  1  0
  6  7  1  0
  6  8  1  0
  8  9  1  0
  9 10  2  0
  9 11  1  0
 11 12  1  0
 12 13  1  0
 13 14  2  0
 14 15  1  0
 15 16  1  0
 16 17  2  0
 17 18  1  0
 18 19  2  0
 19 20  1  0
 20 21  2  0
 21 22  1  0
 22 23  2  0
 23 24  1  0
 24 25  1  0
 24 26  2  0
 19 27  1  0
 27 28  2  0
 15 29  2  0
 29 30  1  0
 11 31  1  0
 31 32  1  0
 32 33  2  0
 32 34  1  6
 32 35  1  0
 35 36  2  0
 36 37  1  0
 37 38  2  0
 38 39  1  0
 38 40  1  0
 40 41  2  0
  2 42  1  0
 42 43  1  0
 42 44  2  0
 30 13  1  0
 41 35  1  0
 28 16  1  0
 26 20  1  0
  1 45  1  0
  1 46  1  0
  1 47  1  0
  2 48  1  1
  3 49  1  0
  6 50  1  6
  7 51  1  0
  7 52  1  0
  7 53  1  0
  8 54  1  0
 11 55  1  1
 12 56  1  0
 12 57  1  0
 14 58  1  0
 17 59  1  0
 18 60  1  0
 21 61  1  0
 22 62  1  0
 23 63  1  0
 26 64  1  0
 27 65  1  0
 28 66  1  0
 31 67  1  0
 31 68  1  0
 36 69  1  0
 37 70  1  0
 40 71  1  0
 41 72  1  0
 43 73  1  0
 43 74  1  0
M  CHG  1  34  -1
M  END
>  <meeko>  (6) 
{"is_sidechain": [false], "free_energy": -10.938, "intermolecular_energy": -18.794, "internal_energy": -1.471}

$$$$
4gr0_ligand
     RDKit          3D

 74 77  0  0  0  0  0  0  0  0999 V2000
   -7.9890   28.4340    3.0420 C   0  0  0  0  0  0  0  0  0  0  0  0
   -9.0620   28.4070    1.9530 C   0  0  2  0  0  0  0  0  0  0  0  0
   -8.9090   27.2260    1.1060 N   0  0  0  0  0  0  0  0  0  0  0  0
  -10.0040   26.5120    0.6610 C   0  0  0  0  0  0  0  0  0  0  0  0
  -11.1480   26.7630    1.0460 O   0  0  0  0  0  0  0  0  0  0  0  0
   -9.7070   25.2500   -0.1830 C   0  0  2  0  0  0  0  0  0  0  0  0
   -8.3560   24.6830    0.2440 C   0  0  0  0  0  0  0  0  0  0  0  0
   -9.7140   25.4820   -1.6180 N   0  0  0  0  0  0  0  0  0  0  0  0
   -8.8810   26.3560   -2.2520 C   0  0  0  0  0  0  0  0  0  0  0  0
   -8.0090   26.9970   -1.6680 O   0  0  0  0  0  0  0  0  0  0  0  0
   -9.1030   26.5070   -3.7540 C   0  0  2  0  0  0  0  0  0  0  0  0
   -9.4910   25.1710   -4.4000 C   0  0  0  0  0  0  0  0  0  0  0  0
   -8.3000   24.3390   -4.7270 C   0  0  0  0  0  0  0  0  0  0  0  0
   -7.0680   24.6100   -5.2700 C   0  0  0  0  0  0  0  0  0  0  0  0
   -6.3990   23.3560   -5.3080 C   0  0  0  0  0  0  0  0  0  0  0  0
   -5.0490   23.0580   -5.7970 C   0  0  0  0  0  0  0  0  0  0  0  0
   -4.8490   22.1000   -6.8020 C   0  0  0  0  0  0  0  0  0  0  0  0
   -3.5640   21.8060   -7.2740 C   0  0  0  0  0  0  0  0  0  0  0  0
   -2.4360   22.4600   -6.7560 C   0  0  0  0  0  0  0  0  0  0  0  0
   -1.0840   22.1480   -7.2480 C   0  0  0  0  0  0  0  0  0  0  0  0
   -0.8460   21.0030   -8.0310 C   0  0  0  0  0  0  0  0  0  0  0  0
    0.4360   20.7020   -8.4990 C   0  0  0  0  0  0  0  0  0  0  0  0
    1.5040   21.5410   -8.1930 C   0  0  0  0  0  0  0  0  0  0  0  0
    1.2850   22.6790   -7.4200 C   0  0  0  0  0  0  0  0  0  0  0  0
    2.6040   23.7180   -7.0420 Cl  0  0  0  0  0  0  0  0  0  0  0  0
    0.0060   22.9830   -6.9500 C   0  0  0  0  0  0  0  0  0  0  0  0
   -2.6390   23.4180   -5.7520 C   0  0  0  0  0  0  0  0  0  0  0  0
   -3.9250   23.7130   -5.2790 C   0  0  0  0  0  0  0  0  0  0  0  0
   -7.1950   22.3970   -4.8060 N   0  0  0  0  0  0  0  0  0  0  0  0
   -8.3770   23.0140   -4.4480 O   0  0  0  0  0  0  0  0  0  0  0  0
   -7.9060   27.1910   -4.4270 C   0  0  0  0  0  0  0  0  0  0  0  0
   -8.0110   29.0160   -4.6440 P   0  0  2  0  0  5  0  0  0  0  0  0
   -6.9470   29.5980   -3.7430 O   0  0  0  0  0  0  0  0  0  0  0  0
   -9.4610   29.4140   -4.3850 O   0  0  0  0  0  0  0  0  0  0  0  0
   -7.5930   29.2470   -6.3790 C   0  0  0  0  0  0  0  0  0  0  0  0
   -7.5910   28.1550   -7.2560 C   0  0  0  0  0  0  0  0  0  0  0  0
   -7.2750   28.3300   -8.6040 C   0  0  0  0  0  0  0  0  0  0  0  0
   -6.9570   29.6020   -9.0760 C   0  0  0  0  0  0  0  0  0  0  0  0
   -6.5280   29.8420  -10.9030 Br  0  0  0  0  0  0  0  0  0  0  0  0
   -6.9490   30.6980   -8.2150 C   0  0  0  0  0  0  0  0  0  0  0  0
   -7.2670   30.5190   -6.8680 C   0  0  0  0  0  0  0  0  0  0  0  0
   -9.0420   29.7440    1.1720 C   0  0  0  0  0  0  0  0  0  0  0  0
   -8.4580   29.7230   -0.0620 N   0  0  0  0  0  0  0  0  0  0  0  0
   -9.6550   30.7490    1.5320 O   0  0  0  0  0  0  0  0  0  0  0  0
   -8.4701   28.4219    4.0311 H   0  0  0  0  0  0  0  0  0  0  0  0
   -7.3399   27.5519    2.9391 H   0  0  0  0  0  0  0  0  0  0  0  0
   -7.3851   29.3476    2.9391 H   0  0  0  0  0  0  0  0  0  0  0  0
  -10.0605   28.3182    2.4060 H   0  0  0  0  0  0  0  0  0  0  0  0
   -8.0530   27.1630    0.5490 H   0  0  0  0  0  0  0  0  0  0  0  0
  -10.5214   24.5357    0.0084 H   0  0  0  0  0  0  0  0  0  0  0  0
   -8.2990   24.6591    1.3423 H   0  0  0  0  0  0  0  0  0  0  0  0
   -8.2452   23.6625   -0.1512 H   0  0  0  0  0  0  0  0  0  0  0  0
   -7.5501   25.3188   -0.1512 H   0  0  0  0  0  0  0  0  0  0  0  0
  -10.3170   24.8970   -2.2090 H   0  0  0  0  0  0  0  0  0  0  0  0
   -9.9617   27.1759   -3.9130 H   0  0  0  0  0  0  0  0  0  0  0  0
  -10.1326   24.6129   -3.7022 H   0  0  0  0  0  0  0  0  0  0  0  0
  -10.0188   25.3903   -5.3398 H   0  0  0  0  0  0  0  0  0  0  0  0
   -6.6827   25.5850   -5.6030 H   0  0  0  0  0  0  0  0  0  0  0  0
   -5.7155   21.5714   -7.2260 H   0  0  0  0  0  0  0  0  0  0  0  0
   -3.4369   21.0504   -8.0633 H   0  0  0  0  0  0  0  0  0  0  0  0
   -1.6831   20.3338   -8.2788 H   0  0  0  0  0  0  0  0  0  0  0  0
    0.6012   19.8019   -9.1093 H   0  0  0  0  0  0  0  0  0  0  0  0
    2.5144   21.3068   -8.5593 H   0  0  0  0  0  0  0  0  0  0  0  0
   -0.1499   23.8852   -6.3403 H   0  0  0  0  0  0  0  0  0  0  0  0
   -1.7731   23.9476   -5.3280 H   0  0  0  0  0  0  0  0  0  0  0  0
   -4.0530   24.4691   -4.4904 H   0  0  0  0  0  0  0  0  0  0  0  0
   -7.0150   26.9785   -3.8179 H   0  0  0  0  0  0  0  0  0  0  0  0
   -7.8742   26.7801   -5.4469 H   0  0  0  0  0  0  0  0  0  0  0  0
   -7.8404   27.1520   -6.8795 H   0  0  0  0  0  0  0  0  0  0  0  0
   -7.2769   27.4696   -9.2894 H   0  0  0  0  0  0  0  0  0  0  0  0
   -6.6935   31.6982   -8.5950 H   0  0  0  0  0  0  0  0  0  0  0  0
   -7.2617   31.3819   -6.1858 H   0  0  0  0  0  0  0  0  0  0  0  0
   -8.3510   30.6170   -0.5210 H   0  0  0  0  0  0  0  0  0  0  0  0
   -7.6780   29.0790   -0.2540 H   0  0  0  0  0  0  0  0  0  0  0  0
  1  2  1  0
  2  3  1  0
  3  4  1  0
  4  5  2  0
  4  6  1  0
  6  7  1  0
  6  8  1  0
  8  9  1  0
  9 10  2  0
  9 11  1  0
 11 12  1  0
 12 13  1  0
 13 14  2  0
 14 15  1  0
 15 16  1  0
 16 17  2  0
 17 18  1  0
 18 19  2  0
 19 20  1  0
 20 21  2  0
 21 22  1  0
 22 23  2  0
 23 24  1  0
 24 25  1  0
 24 26  2  0
 19 27  1  0
 27 28  2  0
 15 29  2  0
 29 30  1  0
 11 31  1  0
 31 32  1  0
 32 33  2  0
 32 34  1  1
 32 35  1  0
 35 36  2  0
 36 37  1  0
 37 38  2  0
 38 39  1  0
 38 40  1  0
 40 41  2  0
  2 42  1  0
 42 43  1  0
 42 44  2  0
 30 13  1  0
 41 35  1  0
 28 16  1  0
 26 20  1  0
  1 45  1  0
  1 46  1  0
  1 47  1  0
  2 48  1  1
  3 49  1  0
  6 50  1  6
  7 51  1  0
  7 52  1  0
  7 53  1  0
  8 54  1  0
 11 55  1  1
 12 56  1  0
 12 57  1  0
 14 58  1  0
 17 59  1  0
 18 60  1  0
 21 61  1  0
 22 62  1  0
 23 63  1  0
 26 64  1  0
 27 65  1  0
 28 66  1  0
 31 67  1  0
 31 68  1  0
 36 69  1  0
 37 70  1  0
 40 71  1  0
 41 72  1  0
 43 73  1  0
 43 74  1  0
M  CHG  1  34  -1
M  END
>  <meeko>  (7) 
{"is_sidechain": [false], "free_energy": -10.562, "intermolecular_energy": -18.199, "internal_energy": -1.427}

$$$$
4gr0_ligand
     RDKit          3D

 74 77  0  0  0  0  0  0  0  0999 V2000
   -8.9260   33.3930   -3.0190 C   0  0  0  0  0  0  0  0  0  0  0  0
   -9.8500   32.1800   -3.1250 C   0  0  2  0  0  0  0  0  0  0  0  0
   -9.1210   31.0160   -3.6230 N   0  0  0  0  0  0  0  0  0  0  0  0
   -8.3680   30.2230   -2.7810 C   0  0  0  0  0  0  0  0  0  0  0  0
   -8.1790   30.5190   -1.5980 O   0  0  0  0  0  0  0  0  0  0  0  0
   -7.5990   29.0530   -3.4390 C   0  0  2  0  0  0  0  0  0  0  0  0
   -7.4810   29.3270   -4.9360 C   0  0  0  0  0  0  0  0  0  0  0  0
   -8.2040   27.7490   -3.2230 N   0  0  0  0  0  0  0  0  0  0  0  0
   -7.9600   26.9680   -2.1320 C   0  0  0  0  0  0  0  0  0  0  0  0
   -7.2370   27.3220   -1.2010 O   0  0  0  0  0  0  0  0  0  0  0  0
   -8.6370   25.6020   -2.1340 C   0  0  2  0  0  0  0  0  0  0  0  0
   -9.0510   25.1830   -3.5500 C   0  0  0  0  0  0  0  0  0  0  0  0
   -7.9950   24.3790   -4.2270 C   0  0  0  0  0  0  0  0  0  0  0  0
   -6.6670   24.5900   -4.5030 C   0  0  0  0  0  0  0  0  0  0  0  0
   -6.2390   23.4140   -5.1770 C   0  0  0  0  0  0  0  0  0  0  0  0
   -4.9080   23.0980   -5.7040 C   0  0  0  0  0  0  0  0  0  0  0  0
   -4.7510   22.1510   -6.7270 C   0  0  0  0  0  0  0  0  0  0  0  0
   -3.4830   21.8410   -7.2350 C   0  0  0  0  0  0  0  0  0  0  0  0
   -2.3310   22.4670   -6.7380 C   0  0  0  0  0  0  0  0  0  0  0  0
   -0.9980   22.1390   -7.2680 C   0  0  0  0  0  0  0  0  0  0  0  0
   -0.8000   21.0000   -8.0710 C   0  0  0  0  0  0  0  0  0  0  0  0
    0.4630   20.6820   -8.5760 C   0  0  0  0  0  0  0  0  0  0  0  0
    1.5530   21.4990   -8.2870 C   0  0  0  0  0  0  0  0  0  0  0  0
    1.3750   22.6310   -7.4960 C   0  0  0  0  0  0  0  0  0  0  0  0
    2.7210   23.6430   -7.1400 Cl  0  0  0  0  0  0  0  0  0  0  0  0
    0.1140   22.9510   -6.9890 C   0  0  0  0  0  0  0  0  0  0  0  0
   -2.4910   23.4160   -5.7160 C   0  0  0  0  0  0  0  0  0  0  0  0
   -3.7590   23.7270   -5.2070 C   0  0  0  0  0  0  0  0  0  0  0  0
   -7.2630   22.5510   -5.2860 N   0  0  0  0  0  0  0  0  0  0  0  0
   -8.3550   23.1580   -4.6960 O   0  0  0  0  0  0  0  0  0  0  0  0
   -9.7850   25.5460   -1.1170 C   0  0  0  0  0  0  0  0  0  0  0  0
   -9.3830   24.8740    0.5480 P   0  0  2  0  0  5  0  0  0  0  0  0
   -7.9210   25.1820    0.7750 O   0  0  0  0  0  0  0  0  0  0  0  0
   -9.8110   23.4100    0.5540 O   0  0  0  0  0  0  0  0  0  0  0  0
  -10.4310   25.8420    1.6450 C   0  0  0  0  0  0  0  0  0  0  0  0
  -11.7020   26.2520    1.2250 C   0  0  0  0  0  0  0  0  0  0  0  0
  -12.5220   26.9970    2.0740 C   0  0  0  0  0  0  0  0  0  0  0  0
  -12.0670   27.3350    3.3480 C   0  0  0  0  0  0  0  0  0  0  0  0
  -13.1760   28.3450    4.5000 Br  0  0  0  0  0  0  0  0  0  0  0  0
  -10.8020   26.9390    3.7780 C   0  0  0  0  0  0  0  0  0  0  0  0
   -9.9860   26.1930    2.9260 C   0  0  0  0  0  0  0  0  0  0  0  0
  -11.0940   32.5480   -3.9710 C   0  0  0  0  0  0  0  0  0  0  0  0
  -10.8620   33.1930   -5.1520 N   0  0  0  0  0  0  0  0  0  0  0  0
  -12.2310   32.1500   -3.7150 O   0  0  0  0  0  0  0  0  0  0  0  0
   -8.7479   33.6268   -1.9590 H   0  0  0  0  0  0  0  0  0  0  0  0
   -7.9681   33.1683   -3.5109 H   0  0  0  0  0  0  0  0  0  0  0  0
   -9.3970   34.2568   -3.5109 H   0  0  0  0  0  0  0  0  0  0  0  0
  -10.2161   31.8941   -2.1279 H   0  0  0  0  0  0  0  0  0  0  0  0
   -9.4690   30.5840   -4.4830 H   0  0  0  0  0  0  0  0  0  0  0  0
   -6.6107   29.0072   -2.9581 H   0  0  0  0  0  0  0  0  0  0  0  0
   -7.0504   30.3270   -5.0929 H   0  0  0  0  0  0  0  0  0  0  0  0
   -6.8289   28.5705   -5.3969 H   0  0  0  0  0  0  0  0  0  0  0  0
   -8.4787   29.2810   -5.3969 H   0  0  0  0  0  0  0  0  0  0  0  0
   -8.9230   27.4230   -3.8800 H   0  0  0  0  0  0  0  0  0  0  0  0
   -7.9033   24.8525   -1.8025 H   0  0  0  0  0  0  0  0  0  0  0  0
   -9.9698   24.5814   -3.4877 H   0  0  0  0  0  0  0  0  0  0  0  0
   -9.2122   26.0969   -4.1406 H   0  0  0  0  0  0  0  0  0  0  0  0
   -6.0647   25.4767   -4.2561 H   0  0  0  0  0  0  0  0  0  0  0  0
   -5.6372   21.6441   -7.1365 H   0  0  0  0  0  0  0  0  0  0  0  0
   -3.3894   21.0941   -8.0371 H   0  0  0  0  0  0  0  0  0  0  0  0
   -1.6550   20.3487   -8.3050 H   0  0  0  0  0  0  0  0  0  0  0  0
    0.5964   19.7870   -9.2014 H   0  0  0  0  0  0  0  0  0  0  0  0
    2.5495   21.2514   -8.6816 H   0  0  0  0  0  0  0  0  0  0  0  0
   -0.0100   23.8481   -6.3647 H   0  0  0  0  0  0  0  0  0  0  0  0
   -1.6053   23.9245   -5.3075 H   0  0  0  0  0  0  0  0  0  0  0  0
   -3.8535   24.4752   -4.4062 H   0  0  0  0  0  0  0  0  0  0  0  0
  -10.1599   26.5712   -0.9809 H   0  0  0  0  0  0  0  0  0  0  0  0
  -10.5149   24.8424   -1.5439 H   0  0  0  0  0  0  0  0  0  0  0  0
  -12.0570   25.9851    0.2186 H   0  0  0  0  0  0  0  0  0  0  0  0
  -13.5206   27.3154    1.7403 H   0  0  0  0  0  0  0  0  0  0  0  0
  -10.4486   27.2127    4.7831 H   0  0  0  0  0  0  0  0  0  0  0  0
   -8.9871   25.8787    3.2627 H   0  0  0  0  0  0  0  0  0  0  0  0
  -11.6770   33.5260   -5.6470 H   0  0  0  0  0  0  0  0  0  0  0  0
  -10.0520   33.8210   -5.2470 H   0  0  0  0  0  0  0  0  0  0  0  0
  1  2  1  0
  2  3  1  0
  3  4  1  0
  4  5  2  0
  4  6  1  0
  6  7  1  0
  6  8  1  0
  8  9  1  0
  9 10  2  0
  9 11  1  0
 11 12  1  0
 12 13  1  0
 13 14  2  0
 14 15  1  0
 15 16  1  0
 16 17  2  0
 17 18  1  0
 18 19  2  0
 19 20  1  0
 20 21  2  0
 21 22  1  0
 22 23  2  0
 23 24  1  0
 24 25  1  0
 24 26  2  0
 19 27  1  0
 27 28  2  0
 15 29  2  0
 29 30  1  0
 11 31  1  0
 31 32  1  0
 32 33  2  0
 32 34  1  6
 32 35  1  0
 35 36  2  0
 36 37  1  0
 37 38  2  0
 38 39  1  0
 38 40  1  0
 40 41  2  0
  2 42  1  0
 42 43  1  0
 42 44  2  0
 30 13  1  0
 41 35  1  0
 28 16  1  0
 26 20  1  0
  1 45  1  0
  1 46  1  0
  1 47  1  0
  2 48  1  1
  3 49  1  0
  6 50  1  1
  7 51  1  0
  7 52  1  0
  7 53  1  0
  8 54  1  0
 11 55  1  1
 12 56  1  0
 12 57  1  0
 14 58  1  0
 17 59  1  0
 18 60  1  0
 21 61  1  0
 22 62  1  0
 23 63  1  0
 26 64  1  0
 27 65  1  0
 28 66  1  0
 31 67  1  0
 31 68  1  0
 36 69  1  0
 37 70  1  0
 40 71  1  0
 41 72  1  0
 43 73  1  0
 43 74  1  0
M  CHG  1  34  -1
M  END
>  <meeko>  (8) 
{"is_sidechain": [false], "free_energy": -10.402, "intermolecular_energy": -17.778, "internal_energy": -1.574}

$$$$
4gr0_ligand
     RDKit          3D

 74 77  0  0  0  0  0  0  0  0999 V2000
   -9.7730   31.1560    0.7240 C   0  0  0  0  0  0  0  0  0  0  0  0
   -8.9000   31.6110   -0.4460 C   0  0  2  0  0  0  0  0  0  0  0  0
   -8.3550   30.4610   -1.1630 N   0  0  0  0  0  0  0  0  0  0  0  0
   -8.2380   30.4590   -2.5390 C   0  0  0  0  0  0  0  0  0  0  0  0
   -8.6880   31.3720   -3.2350 O   0  0  0  0  0  0  0  0  0  0  0  0
   -7.6980   29.1600   -3.1830 C   0  0  2  0  0  0  0  0  0  0  0  0
   -7.7840   29.2960   -4.7010 C   0  0  0  0  0  0  0  0  0  0  0  0
   -8.3880   27.9550   -2.7560 N   0  0  0  0  0  0  0  0  0  0  0  0
   -8.0510   27.2380   -1.6460 C   0  0  0  0  0  0  0  0  0  0  0  0
   -7.1560   27.5770   -0.8730 O   0  0  0  0  0  0  0  0  0  0  0  0
   -8.8540   25.9610   -1.4160 C   0  0  2  0  0  0  0  0  0  0  0  0
   -9.5220   25.4780   -2.7090 C   0  0  0  0  0  0  0  0  0  0  0  0
   -8.5720   24.7420   -3.5890 C   0  0  0  0  0  0  0  0  0  0  0  0
   -7.2090   24.7630   -3.7490 C   0  0  0  0  0  0  0  0  0  0  0  0
   -6.9410   23.8040   -4.7630 C   0  0  0  0  0  0  0  0  0  0  0  0
   -5.6470   23.4170   -5.3340 C   0  0  0  0  0  0  0  0  0  0  0  0
   -5.5690   22.4150   -6.3120 C   0  0  0  0  0  0  0  0  0  0  0  0
   -4.3380   22.0360   -6.8610 C   0  0  0  0  0  0  0  0  0  0  0  0
   -3.1440   22.6470   -6.4510 C   0  0  0  0  0  0  0  0  0  0  0  0
   -1.8490   22.2460   -7.0240 C   0  0  0  0  0  0  0  0  0  0  0  0
   -1.7410   21.1060   -7.8410 C   0  0  0  0  0  0  0  0  0  0  0  0
   -0.5140   20.7200   -8.3870 C   0  0  0  0  0  0  0  0  0  0  0  0
    0.6300   21.4700   -8.1250 C   0  0  0  0  0  0  0  0  0  0  0  0
    0.5410   22.6020   -7.3200 C   0  0  0  0  0  0  0  0  0  0  0  0
    1.9530   23.5310   -6.9970 Cl  0  0  0  0  0  0  0  0  0  0  0  0
   -0.6840   22.9900   -6.7730 C   0  0  0  0  0  0  0  0  0  0  0  0
   -3.2250   23.6500   -5.4730 C   0  0  0  0  0  0  0  0  0  0  0  0
   -4.4570   24.0300   -4.9230 C   0  0  0  0  0  0  0  0  0  0  0  0
   -8.0900   23.2410   -5.1760 N   0  0  0  0  0  0  0  0  0  0  0  0
   -9.1020   23.8300   -4.4440 O   0  0  0  0  0  0  0  0  0  0  0  0
   -9.8290   26.1190   -0.2430 C   0  0  0  0  0  0  0  0  0  0  0  0
   -9.1220   25.9580    1.4490 P   0  0  2  0  0  5  0  0  0  0  0  0
   -8.8450   27.3690    1.9150 O   0  0  0  0  0  0  0  0  0  0  0  0
   -7.9430   24.9950    1.3500 O   0  0  0  0  0  0  0  0  0  0  0  0
  -10.4670   25.2150    2.3860 C   0  0  0  0  0  0  0  0  0  0  0  0
  -11.6940   25.8790    2.5060 C   0  0  0  0  0  0  0  0  0  0  0  0
  -12.7430   25.3040    3.2250 C   0  0  0  0  0  0  0  0  0  0  0  0
  -12.5630   24.0610    3.8290 C   0  0  0  0  0  0  0  0  0  0  0  0
  -13.9820   23.2790    4.8050 Br  0  0  0  0  0  0  0  0  0  0  0  0
  -11.3450   23.3900    3.7230 C   0  0  0  0  0  0  0  0  0  0  0  0
  -10.2990   23.9690    3.0020 C   0  0  0  0  0  0  0  0  0  0  0  0
   -7.8210   32.5980    0.0650 C   0  0  0  0  0  0  0  0  0  0  0  0
   -7.6920   32.7150    1.4190 N   0  0  0  0  0  0  0  0  0  0  0  0
   -6.9910   33.1360   -0.6690 O   0  0  0  0  0  0  0  0  0  0  0  0
   -9.2786   31.4137    1.6723 H   0  0  0  0  0  0  0  0  0  0  0  0
  -10.7493   31.6600    0.6707 H   0  0  0  0  0  0  0  0  0  0  0  0
   -9.9191   30.0670    0.6707 H   0  0  0  0  0  0  0  0  0  0  0  0
   -9.5080   32.1568   -1.1825 H   0  0  0  0  0  0  0  0  0  0  0  0
   -7.7300   29.8420   -0.6410 H   0  0  0  0  0  0  0  0  0  0  0  0
   -6.6572   29.0427   -2.8469 H   0  0  0  0  0  0  0  0  0  0  0  0
   -8.3559   30.2003   -4.9563 H   0  0  0  0  0  0  0  0  0  0  0  0
   -6.7700   29.3729   -5.1203 H   0  0  0  0  0  0  0  0  0  0  0  0
   -8.2882   28.4128   -5.1203 H   0  0  0  0  0  0  0  0  0  0  0  0
   -9.2330   27.6640   -3.2620 H   0  0  0  0  0  0  0  0  0  0  0  0
   -8.1569   25.1620   -1.1232 H   0  0  0  0  0  0  0  0  0  0  0  0
  -10.3557   24.8091   -2.4491 H   0  0  0  0  0  0  0  0  0  0  0  0
   -9.8766   26.3627   -3.2582 H   0  0  0  0  0  0  0  0  0  0  0  0
   -6.4815   25.3870   -3.2092 H   0  0  0  0  0  0  0  0  0  0  0  0
   -6.4896   21.9189   -6.6533 H   0  0  0  0  0  0  0  0  0  0  0  0
   -4.3068   21.2463   -7.6262 H   0  0  0  0  0  0  0  0  0  0  0  0
   -2.6389   20.5074   -8.0540 H   0  0  0  0  0  0  0  0  0  0  0  0
   -0.4517   19.8247   -9.0231 H   0  0  0  0  0  0  0  0  0  0  0  0
    1.5983   21.1695   -8.5518 H   0  0  0  0  0  0  0  0  0  0  0  0
   -0.7373   23.8874   -6.1391 H   0  0  0  0  0  0  0  0  0  0  0  0
   -2.3050   24.1471   -5.1318 H   0  0  0  0  0  0  0  0  0  0  0  0
   -4.4895   24.8202   -4.1584 H   0  0  0  0  0  0  0  0  0  0  0  0
  -10.2840   27.1175   -0.3202 H   0  0  0  0  0  0  0  0  0  0  0  0
  -10.5363   25.2822   -0.3410 H   0  0  0  0  0  0  0  0  0  0  0  0
  -11.8321   26.8610    2.0301 H   0  0  0  0  0  0  0  0  0  0  0  0
  -13.7057   25.8286    3.3144 H   0  0  0  0  0  0  0  0  0  0  0  0
  -11.2093   22.4104    4.2046 H   0  0  0  0  0  0  0  0  0  0  0  0
   -9.3367   23.4429    2.9174 H   0  0  0  0  0  0  0  0  0  0  0  0
   -7.0640   33.4370    1.7470 H   0  0  0  0  0  0  0  0  0  0  0  0
   -8.5110   32.5910    2.0290 H   0  0  0  0  0  0  0  0  0  0  0  0
  1  2  1  0
  2  3  1  0
  3  4  1  0
  4  5  2  0
  4  6  1  0
  6  7  1  0
  6  8  1  0
  8  9  1  0
  9 10  2  0
  9 11  1  0
 11 12  1  0
 12 13  1  0
 13 14  2  0
 14 15  1  0
 15 16  1  0
 16 17  2  0
 17 18  1  0
 18 19  2  0
 19 20  1  0
 20 21  2  0
 21 22  1  0
 22 23  2  0
 23 24  1  0
 24 25  1  0
 24 26  2  0
 19 27  1  0
 27 28  2  0
 15 29  2  0
 29 30  1  0
 11 31  1  0
 31 32  1  0
 32 33  2  0
 32 34  1  6
 32 35  1  0
 35 36  2  0
 36 37  1  0
 37 38  2  0
 38 39  1  0
 38 40  1  0
 40 41  2  0
  2 42  1  0
 42 43  1  0
 42 44  2  0
 30 13  1  0
 41 35  1  0
 28 16  1  0
 26 20  1  0
  1 45  1  0
  1 46  1  0
  1 47  1  0
  2 48  1  6
  3 49  1  0
  6 50  1  6
  7 51  1  0
  7 52  1  0
  7 53  1  0
  8 54  1  0
 11 55  1  1
 12 56  1  0
 12 57  1  0
 14 58  1  0
 17 59  1  0
 18 60  1  0
 21 61  1  0
 22 62  1  0
 23 63  1  0
 26 64  1  0
 27 65  1  0
 28 66  1  0
 31 67  1  0
 31 68  1  0
 36 69  1  0
 37 70  1  0
 40 71  1  0
 41 72  1  0
 43 73  1  0
 43 74  1  0
M  CHG  1  34  -1
M  END
>  <meeko>  (9) 
{"is_sidechain": [false], "free_energy": -10.342, "intermolecular_energy": -17.613, "internal_energy": -1.638}

$$$$
