4rfm_ligand
     RDKit          3D

 63 68  0  0  0  0  0  0  0  0999 V2000
   13.9300    3.8800    6.1280 C   0  0  0  0  0  0  0  0  0  0  0  0
   15.0990    3.2200    5.4500 C   0  0  1  0  0  0  0  0  0  0  0  0
   16.4580    3.8040    5.8210 C   0  0  0  0  0  0  0  0  0  0  0  0
   17.5710    2.8100    5.8330 C   0  0  0  0  0  0  0  0  0  0  0  0
   18.8250    3.1290    6.1610 N   0  0  0  0  0  0  0  0  0  0  0  0
   19.4930    1.9730    6.0050 N   0  0  0  0  0  0  0  0  0  0  0  0
   18.7010    0.9000    5.6900 C   0  0  0  0  0  0  0  0  0  0  0  0
   19.1410   -0.4680    5.5100 C   0  0  0  0  0  0  0  0  0  0  0  0
   19.2090   -0.9720    4.3950 O   0  0  0  0  0  0  0  0  0  0  0  0
   19.4310   -1.1230    6.6970 N   0  0  0  0  0  0  0  0  0  0  0  0
   19.9050   -2.4200    6.7990 C   0  0  0  0  0  0  0  0  0  0  0  0
   19.1460   -3.5760    7.0740 C   0  0  0  0  0  0  0  0  0  0  0  0
   19.8900   -4.6830    7.1280 N   0  0  0  0  0  0  0  0  0  0  0  0
   21.1430   -4.2460    6.8560 N   0  0  0  0  0  0  0  0  0  0  0  0
   22.2490   -5.2050    6.9390 C   0  0  2  0  0  0  0  0  0  0  0  0
   22.6600   -5.4930    8.3900 C   0  0  0  0  0  0  0  0  0  0  0  0
   22.8370   -6.8340    8.7910 C   0  0  0  0  0  0  0  0  0  0  0  0
   23.2070   -7.1540   10.0980 C   0  0  0  0  0  0  0  0  0  0  0  0
   23.3990   -6.1430   11.0330 C   0  0  0  0  0  0  0  0  0  0  0  0
   23.2160   -4.8150   10.6620 C   0  0  0  0  0  0  0  0  0  0  0  0
   22.8470   -4.4910    9.3530 C   0  0  0  0  0  0  0  0  0  0  0  0
   23.4080   -5.0650    5.9210 C   0  0  1  0  0  0  0  0  0  0  0  0
   24.7850   -4.7330    6.5270 C   0  0  0  0  0  0  0  0  0  0  0  0
   25.5980   -5.8820    7.1220 C   0  0  0  0  0  0  0  0  0  0  0  0
   25.4730   -7.2190    6.3970 C   0  0  0  0  0  0  0  0  0  0  0  0
   25.1670   -7.0490    4.9250 C   0  0  0  0  0  0  0  0  0  0  0  0
   23.5450   -6.3500    4.6840 S   0  0  0  0  0  0  0  0  0  0  0  0
   22.5810   -7.3990    4.9350 O   0  0  0  0  0  0  0  0  0  0  0  0
   23.5650   -5.6920    3.3890 O   0  0  0  0  0  0  0  0  0  0  0  0
   21.1890   -2.8880    6.6780 C   0  0  0  0  0  0  0  0  0  0  0  0
   17.4370    1.4400    5.5180 C   0  0  0  0  0  0  0  0  0  0  0  0
   16.1590    0.7940    5.1110 C   0  0  0  0  0  0  0  0  0  0  0  0
   14.9770    1.7280    5.0780 C   0  0  2  0  0  0  0  0  0  0  0  0
   14.9120    2.7830    4.0350 C   0  0  0  0  0  0  0  0  0  0  0  0
   13.7250    3.0250    3.3800 F   0  0  0  0  0  0  0  0  0  0  0  0
   15.9180    2.9330    3.1090 F   0  0  0  0  0  0  0  0  0  0  0  0
   14.0521    3.8110    7.2190 H   0  0  0  0  0  0  0  0  0  0  0  0
   13.8830    4.9379    5.8304 H   0  0  0  0  0  0  0  0  0  0  0  0
   12.9999    3.3737    5.8304 H   0  0  0  0  0  0  0  0  0  0  0  0
   16.7058    4.5899    5.0923 H   0  0  0  0  0  0  0  0  0  0  0  0
   16.3665    4.1869    6.8482 H   0  0  0  0  0  0  0  0  0  0  0  0
   20.5000    1.9940    6.1170 H   0  0  0  0  0  0  0  0  0  0  0  0
   19.1950   -0.6790    7.5700 H   0  0  0  0  0  0  0  0  0  0  0  0
   18.0568   -3.5666    7.2277 H   0  0  0  0  0  0  0  0  0  0  0  0
   21.8111   -6.1369    6.5520 H   0  0  0  0  0  0  0  0  0  0  0  0
   22.6806   -7.6415    8.0606 H   0  0  0  0  0  0  0  0  0  0  0  0
   23.3467   -8.2057   10.3884 H   0  0  0  0  0  0  0  0  0  0  0  0
   23.6946   -6.3926   12.0627 H   0  0  0  0  0  0  0  0  0  0  0  0
   23.3624   -4.0151   11.4028 H   0  0  0  0  0  0  0  0  0  0  0  0
   22.7015   -3.4367    9.0750 H   0  0  0  0  0  0  0  0  0  0  0  0
   23.0725   -4.1688    5.3785 H   0  0  0  0  0  0  0  0  0  0  0  0
   25.3930   -4.2790    5.7306 H   0  0  0  0  0  0  0  0  0  0  0  0
   24.5603   -4.0804    7.3835 H   0  0  0  0  0  0  0  0  0  0  0  0
   26.6580   -5.5884    7.1113 H   0  0  0  0  0  0  0  0  0  0  0  0
   25.1940   -6.0469    8.1318 H   0  0  0  0  0  0  0  0  0  0  0  0
   26.4212   -7.7670    6.5000 H   0  0  0  0  0  0  0  0  0  0  0  0
   24.6376   -7.7712    6.8522 H   0  0  0  0  0  0  0  0  0  0  0  0
   25.9167   -6.3802    4.4770 H   0  0  0  0  0  0  0  0  0  0  0  0
   25.1961   -8.0385    4.4453 H   0  0  0  0  0  0  0  0  0  0  0  0
   22.0872   -2.2859    6.4760 H   0  0  0  0  0  0  0  0  0  0  0  0
   16.2920    0.3704    4.1046 H   0  0  0  0  0  0  0  0  0  0  0  0
   15.9361    0.0293    5.8697 H   0  0  0  0  0  0  0  0  0  0  0  0
   14.3368    0.9019    5.4211 H   0  0  0  0  0  0  0  0  0  0  0  0
  2  1  1  1
  2  3  1  0
  3  4  1  0
  4  5  2  0
  5  6  1  0
  6  7  1  0
  7  8  1  0
  8  9  2  0
  8 10  1  0
 10 11  1  0
 11 12  1  0
 12 13  2  0
 13 14  1  0
 14 15  1  0
 15 16  1  0
 16 17  2  0
 17 18  1  0
 18 19  2  0
 19 20  1  0
 20 21  2  0
 15 22  1  0
 22 23  1  0
 23 24  1  0
 24 25  1  0
 25 26  1  0
 26 27  1  0
 27 28  2  0
 27 29  2  0
 14 30  1  0
  7 31  2  0
 31 32  1  0
 32 33  1  0
 33 34  1  0
 34 35  1  0
 34 36  1  0
 33  2  1  0
 34  2  1  0
 31  4  1  0
 30 11  2  0
 21 16  1  0
 27 22  1  0
  1 37  1  0
  1 38  1  0
  1 39  1  0
  3 40  1  0
  3 41  1  0
  6 42  1  0
 10 43  1  0
 12 44  1  0
 15 45  1  6
 17 46  1  0
 18 47  1  0
 19 48  1  0
 20 49  1  0
 21 50  1  0
 22 51  1  6
 23 52  1  0
 23 53  1  0
 24 54  1  0
 24 55  1  0
 25 56  1  0
 25 57  1  0
 26 58  1  0
 26 59  1  0
 30 60  1  0
 32 61  1  0
 32 62  1  0
 33 63  1  1
M  END
>  <meeko>  (1) 
{"is_sidechain": [false], "free_energy": -11.58, "intermolecular_energy": -14.965, "internal_energy": -1.132}

$$$$
4rfm_ligand
     RDKit          3D

 63 68  0  0  0  0  0  0  0  0999 V2000
   13.4390    3.3540    5.6970 C   0  0  0  0  0  0  0  0  0  0  0  0
   14.7900    3.0240    5.1250 C   0  0  1  0  0  0  0  0  0  0  0  0
   15.9370    3.8520    5.6920 C   0  0  0  0  0  0  0  0  0  0  0  0
   17.2370    3.1240    5.7760 C   0  0  0  0  0  0  0  0  0  0  0  0
   18.3480    3.6760    6.2710 N   0  0  0  0  0  0  0  0  0  0  0  0
   19.2690    2.7090    6.1240 N   0  0  0  0  0  0  0  0  0  0  0  0
   18.7750    1.5220    5.6490 C   0  0  0  0  0  0  0  0  0  0  0  0
   19.5270    0.3030    5.4370 C   0  0  0  0  0  0  0  0  0  0  0  0
   19.1160   -0.5750    4.6870 O   0  0  0  0  0  0  0  0  0  0  0  0
   20.6970    0.2310    6.1770 N   0  0  0  0  0  0  0  0  0  0  0  0
   21.6110   -0.8070    6.1290 C   0  0  0  0  0  0  0  0  0  0  0  0
   22.8660   -0.7980    5.4880 C   0  0  0  0  0  0  0  0  0  0  0  0
   23.5150   -1.9590    5.6000 N   0  0  0  0  0  0  0  0  0  0  0  0
   22.6840   -2.7230    6.3500 N   0  0  0  0  0  0  0  0  0  0  0  0
   23.0460   -4.1250    6.5810 C   0  0  2  0  0  0  0  0  0  0  0  0
   23.3240   -4.4170    8.0620 C   0  0  0  0  0  0  0  0  0  0  0  0
   22.6800   -5.5170    8.6680 C   0  0  0  0  0  0  0  0  0  0  0  0
   22.8930   -5.8270   10.0120 C   0  0  0  0  0  0  0  0  0  0  0  0
   23.7450   -5.0400   10.7800 C   0  0  0  0  0  0  0  0  0  0  0  0
   24.3790   -3.9430   10.2050 C   0  0  0  0  0  0  0  0  0  0  0  0
   24.1690   -3.6310    8.8590 C   0  0  0  0  0  0  0  0  0  0  0  0
   23.9980   -4.8050    5.5660 C   0  0  1  0  0  0  0  0  0  0  0  0
   25.4600   -4.9580    6.0290 C   0  0  0  0  0  0  0  0  0  0  0  0
   25.7950   -6.1280    6.9530 C   0  0  0  0  0  0  0  0  0  0  0  0
   25.0210   -7.4160    6.6890 C   0  0  0  0  0  0  0  0  0  0  0  0
   24.6070   -7.5520    5.2400 C   0  0  0  0  0  0  0  0  0  0  0  0
   23.4080   -6.3080    4.7980 S   0  0  0  0  0  0  0  0  0  0  0  0
   22.1420   -6.7060    5.3730 O   0  0  0  0  0  0  0  0  0  0  0  0
   23.5140   -6.1230    3.3610 O   0  0  0  0  0  0  0  0  0  0  0  0
   21.5220   -2.0690    6.6620 C   0  0  0  0  0  0  0  0  0  0  0  0
   17.4470    1.7900    5.3610 C   0  0  0  0  0  0  0  0  0  0  0  0
   16.3950    0.9230    4.7630 C   0  0  0  0  0  0  0  0  0  0  0  0
   15.0440    1.5800    4.6470 C   0  0  2  0  0  0  0  0  0  0  0  0
   14.8520    2.6840    3.6720 C   0  0  0  0  0  0  0  0  0  0  0  0
   13.7160    2.7210    2.8960 F   0  0  0  0  0  0  0  0  0  0  0  0
   15.8890    3.1270    2.8850 F   0  0  0  0  0  0  0  0  0  0  0  0
   13.4928    3.3409    6.7956 H   0  0  0  0  0  0  0  0  0  0  0  0
   13.1311    4.3538    5.3569 H   0  0  0  0  0  0  0  0  0  0  0  0
   12.7048    2.6088    5.3569 H   0  0  0  0  0  0  0  0  0  0  0  0
   16.0766    4.7333    5.0486 H   0  0  0  0  0  0  0  0  0  0  0  0
   15.6562    4.1151    6.7225 H   0  0  0  0  0  0  0  0  0  0  0  0
   20.2290    2.9370    6.3570 H   0  0  0  0  0  0  0  0  0  0  0  0
   20.8720    0.9290    6.8830 H   0  0  0  0  0  0  0  0  0  0  0  0
   23.2684    0.0741    4.9518 H   0  0  0  0  0  0  0  0  0  0  0  0
   22.1266   -4.6725    6.3264 H   0  0  0  0  0  0  0  0  0  0  0  0
   21.9985   -6.1407    8.0708 H   0  0  0  0  0  0  0  0  0  0  0  0
   22.3874   -6.6932   10.4638 H   0  0  0  0  0  0  0  0  0  0  0  0
   23.9170   -5.2842   11.8387 H   0  0  0  0  0  0  0  0  0  0  0  0
   25.0492   -3.3178   10.8132 H   0  0  0  0  0  0  0  0  0  0  0  0
   24.6729   -2.7578    8.4190 H   0  0  0  0  0  0  0  0  0  0  0  0
   23.9919   -4.0466    4.7692 H   0  0  0  0  0  0  0  0  0  0  0  0
   26.0806   -5.0639    5.1270 H   0  0  0  0  0  0  0  0  0  0  0  0
   25.6543   -4.0611    6.6355 H   0  0  0  0  0  0  0  0  0  0  0  0
   26.8672   -6.3488    6.8451 H   0  0  0  0  0  0  0  0  0  0  0  0
   25.5083   -5.8054    7.9648 H   0  0  0  0  0  0  0  0  0  0  0  0
   25.6577   -8.2722    6.9566 H   0  0  0  0  0  0  0  0  0  0  0  0
   24.1058   -7.3890    7.2987 H   0  0  0  0  0  0  0  0  0  0  0  0
   25.4947   -7.4393    4.6002 H   0  0  0  0  0  0  0  0  0  0  0  0
   24.1522   -8.5433    5.0972 H   0  0  0  0  0  0  0  0  0  0  0  0
   20.6756   -2.4783    7.2329 H   0  0  0  0  0  0  0  0  0  0  0  0
   16.7228    0.6285    3.7551 H   0  0  0  0  0  0  0  0  0  0  0  0
   16.2714    0.0645    5.4395 H   0  0  0  0  0  0  0  0  0  0  0  0
   14.5732    0.6084    4.8575 H   0  0  0  0  0  0  0  0  0  0  0  0
  2  1  1  6
  2  3  1  0
  3  4  1  0
  4  5  2  0
  5  6  1  0
  6  7  1  0
  7  8  1  0
  8  9  2  0
  8 10  1  0
 10 11  1  0
 11 12  1  0
 12 13  2  0
 13 14  1  0
 14 15  1  0
 15 16  1  0
 16 17  2  0
 17 18  1  0
 18 19  2  0
 19 20  1  0
 20 21  2  0
 15 22  1  0
 22 23  1  0
 23 24  1  0
 24 25  1  0
 25 26  1  0
 26 27  1  0
 27 28  2  0
 27 29  2  0
 14 30  1  0
  7 31  2  0
 31 32  1  0
 32 33  1  0
 33 34  1  0
 34 35  1  0
 34 36  1  0
 33  2  1  0
 34  2  1  0
 31  4  1  0
 30 11  2  0
 21 16  1  0
 27 22  1  0
  1 37  1  0
  1 38  1  0
  1 39  1  0
  3 40  1  0
  3 41  1  0
  6 42  1  0
 10 43  1  0
 12 44  1  0
 15 45  1  6
 17 46  1  0
 18 47  1  0
 19 48  1  0
 20 49  1  0
 21 50  1  0
 22 51  1  6
 23 52  1  0
 23 53  1  0
 24 54  1  0
 24 55  1  0
 25 56  1  0
 25 57  1  0
 26 58  1  0
 26 59  1  0
 30 60  1  0
 32 61  1  0
 32 62  1  0
 33 63  1  6
M  END
>  <meeko>  (2) 
{"is_sidechain": [false], "free_energy": -11.377, "intermolecular_energy": -14.833, "internal_energy": -1.001}

$$$$
4rfm_ligand
     RDKit          3D

 63 68  0  0  0  0  0  0  0  0999 V2000
   12.7850    2.8420    5.3890 C   0  0  0  0  0  0  0  0  0  0  0  0
   14.2100    2.7910    4.9130 C   0  0  1  0  0  0  0  0  0  0  0  0
   15.1540    3.7450    5.6370 C   0  0  0  0  0  0  0  0  0  0  0  0
   16.5500    3.2380    5.7800 C   0  0  0  0  0  0  0  0  0  0  0  0
   17.5090    3.9220    6.4100 N   0  0  0  0  0  0  0  0  0  0  0  0
   18.5920    3.1370    6.2730 N   0  0  0  0  0  0  0  0  0  0  0  0
   18.3450    1.9310    5.6710 C   0  0  0  0  0  0  0  0  0  0  0  0
   19.3100    0.8760    5.4370 C   0  0  0  0  0  0  0  0  0  0  0  0
   19.0910   -0.0150    4.6240 O   0  0  0  0  0  0  0  0  0  0  0  0
   20.4420    0.9670    6.2310 N   0  0  0  0  0  0  0  0  0  0  0  0
   21.5270    0.1080    6.1770 C   0  0  0  0  0  0  0  0  0  0  0  0
   21.5120   -1.2470    5.7870 C   0  0  0  0  0  0  0  0  0  0  0  0
   22.7150   -1.8200    5.8570 N   0  0  0  0  0  0  0  0  0  0  0  0
   23.5280   -0.8170    6.2690 N   0  0  0  0  0  0  0  0  0  0  0  0
   24.9310   -1.1320    6.5570 C   0  0  2  0  0  0  0  0  0  0  0  0
   25.8990   -0.1660    5.8600 C   0  0  0  0  0  0  0  0  0  0  0  0
   26.8110    0.5660    6.6490 C   0  0  0  0  0  0  0  0  0  0  0  0
   27.7110    1.4610    6.0690 C   0  0  0  0  0  0  0  0  0  0  0  0
   27.7130    1.6490    4.6910 C   0  0  0  0  0  0  0  0  0  0  0  0
   26.8120    0.9480    3.8960 C   0  0  0  0  0  0  0  0  0  0  0  0
   25.9110    0.0490    4.4740 C   0  0  0  0  0  0  0  0  0  0  0  0
   25.3520   -2.6220    6.5690 C   0  0  1  0  0  0  0  0  0  0  0  0
   26.7980   -2.9060    6.1180 C   0  0  0  0  0  0  0  0  0  0  0  0
   27.9160   -2.7000    7.1400 C   0  0  0  0  0  0  0  0  0  0  0  0
   27.5630   -3.0620    8.5800 C   0  0  0  0  0  0  0  0  0  0  0  0
   26.5090   -4.1430    8.6610 C   0  0  0  0  0  0  0  0  0  0  0  0
   24.9430   -3.5580    8.0370 S   0  0  0  0  0  0  0  0  0  0  0  0
   24.3740   -2.6920    9.0460 O   0  0  0  0  0  0  0  0  0  0  0  0
   24.2060   -4.7320    7.6030 O   0  0  0  0  0  0  0  0  0  0  0  0
   22.8410    0.3460    6.4940 C   0  0  0  0  0  0  0  0  0  0  0  0
   17.0160    1.9990    5.2890 C   0  0  0  0  0  0  0  0  0  0  0  0
   16.1760    1.0250    4.5400 C   0  0  0  0  0  0  0  0  0  0  0  0
   14.7440    1.4560    4.3560 C   0  0  2  0  0  0  0  0  0  0  0  0
   14.4370    2.5940    3.4510 C   0  0  0  0  0  0  0  0  0  0  0  0
   13.3710    2.5090    2.5840 F   0  0  0  0  0  0  0  0  0  0  0  0
   15.4370    3.2700    2.7920 F   0  0  0  0  0  0  0  0  0  0  0  0
   12.7656    2.8427    6.4888 H   0  0  0  0  0  0  0  0  0  0  0  0
   12.3055    3.7579    5.0132 H   0  0  0  0  0  0  0  0  0  0  0  0
   12.2412    1.9627    5.0132 H   0  0  0  0  0  0  0  0  0  0  0  0
   15.1867    4.6898    5.0746 H   0  0  0  0  0  0  0  0  0  0  0  0
   14.7576    3.8669    6.6558 H   0  0  0  0  0  0  0  0  0  0  0  0
   19.4780    3.5000    6.6050 H   0  0  0  0  0  0  0  0  0  0  0  0
   20.4620    1.6420    6.9780 H   0  0  0  0  0  0  0  0  0  0  0  0
   20.6046   -1.7757    5.4597 H   0  0  0  0  0  0  0  0  0  0  0  0
   25.0219   -0.9338    7.6352 H   0  0  0  0  0  0  0  0  0  0  0  0
   26.8127    0.4289    7.7404 H   0  0  0  0  0  0  0  0  0  0  0  0
   28.4184    2.0175    6.7014 H   0  0  0  0  0  0  0  0  0  0  0  0
   28.4250    2.3500    4.2310 H   0  0  0  0  0  0  0  0  0  0  0  0
   26.8085    1.1019    2.8068 H   0  0  0  0  0  0  0  0  0  0  0  0
   25.2024   -0.4968    3.8337 H   0  0  0  0  0  0  0  0  0  0  0  0
   24.6889   -3.0077    5.7806 H   0  0  0  0  0  0  0  0  0  0  0  0
   26.8401   -3.9559    5.7926 H   0  0  0  0  0  0  0  0  0  0  0  0
   26.9963   -2.1587    5.3355 H   0  0  0  0  0  0  0  0  0  0  0  0
   28.7726   -3.3190    6.8349 H   0  0  0  0  0  0  0  0  0  0  0  0
   28.1284   -1.6207    7.1427 H   0  0  0  0  0  0  0  0  0  0  0  0
   28.4720   -3.4162    9.0881 H   0  0  0  0  0  0  0  0  0  0  0  0
   27.1567   -2.1607    9.0623 H   0  0  0  0  0  0  0  0  0  0  0  0
   26.8339   -5.0076    8.0635 H   0  0  0  0  0  0  0  0  0  0  0  0
   26.3811   -4.4291    9.7154 H   0  0  0  0  0  0  0  0  0  0  0  0
   23.2632    1.2935    6.8602 H   0  0  0  0  0  0  0  0  0  0  0  0
   16.6223    0.8781    3.5454 H   0  0  0  0  0  0  0  0  0  0  0  0
   16.1534    0.1022    5.1382 H   0  0  0  0  0  0  0  0  0  0  0  0
   14.4336    0.4053    4.4541 H   0  0  0  0  0  0  0  0  0  0  0  0
  2  1  1  6
  2  3  1  0
  3  4  1  0
  4  5  2  0
  5  6  1  0
  6  7  1  0
  7  8  1  0
  8  9  2  0
  8 10  1  0
 10 11  1  0
 11 12  1  0
 12 13  2  0
 13 14  1  0
 14 15  1  0
 15 16  1  0
 16 17  2  0
 17 18  1  0
 18 19  2  0
 19 20  1  0
 20 21  2  0
 15 22  1  0
 22 23  1  0
 23 24  1  0
 24 25  1  0
 25 26  1  0
 26 27  1  0
 27 28  2  0
 27 29  2  0
 14 30  1  0
  7 31  2  0
 31 32  1  0
 32 33  1  0
 33 34  1  0
 34 35  1  0
 34 36  1  0
 33  2  1  0
 34  2  1  0
 31  4  1  0
 30 11  2  0
 21 16  1  0
 27 22  1  0
  1 37  1  0
  1 38  1  0
  1 39  1  0
  3 40  1  0
  3 41  1  0
  6 42  1  0
 10 43  1  0
 12 44  1  0
 15 45  1  1
 17 46  1  0
 18 47  1  0
 19 48  1  0
 20 49  1  0
 21 50  1  0
 22 51  1  6
 23 52  1  0
 23 53  1  0
 24 54  1  0
 24 55  1  0
 25 56  1  0
 25 57  1  0
 26 58  1  0
 26 59  1  0
 30 60  1  0
 32 61  1  0
 32 62  1  0
 33 63  1  6
M  END
>  <meeko>  (3) 
{"is_sidechain": [false], "free_energy": -11.248, "intermolecular_energy": -15.025, "internal_energy": -0.644}

$$$$
4rfm_ligand
     RDKit          3D

 63 68  0  0  0  0  0  0  0  0999 V2000
   13.4440    3.3510    5.7130 C   0  0  0  0  0  0  0  0  0  0  0  0
   14.7790    2.9840    5.1250 C   0  0  1  0  0  0  0  0  0  0  0  0
   15.9500    3.8030    5.6560 C   0  0  0  0  0  0  0  0  0  0  0  0
   17.2390    3.0540    5.7330 C   0  0  0  0  0  0  0  0  0  0  0  0
   18.3670    3.5960    6.1990 N   0  0  0  0  0  0  0  0  0  0  0  0
   19.2690    2.6100    6.0570 N   0  0  0  0  0  0  0  0  0  0  0  0
   18.7460    1.4230    5.6150 C   0  0  0  0  0  0  0  0  0  0  0  0
   19.4720    0.1860    5.4170 C   0  0  0  0  0  0  0  0  0  0  0  0
   19.0640   -0.6740    4.6450 O   0  0  0  0  0  0  0  0  0  0  0  0
   20.6150    0.0780    6.1950 N   0  0  0  0  0  0  0  0  0  0  0  0
   21.5020   -0.9840    6.1670 C   0  0  0  0  0  0  0  0  0  0  0  0
   21.1910   -2.3480    6.3400 C   0  0  0  0  0  0  0  0  0  0  0  0
   22.2660   -3.1370    6.2800 N   0  0  0  0  0  0  0  0  0  0  0  0
   23.2860   -2.2780    6.0350 N   0  0  0  0  0  0  0  0  0  0  0  0
   24.6530   -2.8080    6.0140 C   0  0  2  0  0  0  0  0  0  0  0  0
   25.1030   -3.1980    4.5990 C   0  0  0  0  0  0  0  0  0  0  0  0
   26.0920   -2.4180    3.9640 C   0  0  0  0  0  0  0  0  0  0  0  0
   26.5370   -2.7240    2.6770 C   0  0  0  0  0  0  0  0  0  0  0  0
   25.9970   -3.8100    1.9960 C   0  0  0  0  0  0  0  0  0  0  0  0
   25.0120   -4.5840    2.5990 C   0  0  0  0  0  0  0  0  0  0  0  0
   24.5650   -4.2810    3.8890 C   0  0  0  0  0  0  0  0  0  0  0  0
   25.0740   -3.7720    7.1500 C   0  0  1  0  0  0  0  0  0  0  0  0
   26.4350   -4.4680    6.9570 C   0  0  0  0  0  0  0  0  0  0  0  0
   27.6960   -3.6810    7.3130 C   0  0  0  0  0  0  0  0  0  0  0  0
   27.5680   -2.7460    8.5120 C   0  0  0  0  0  0  0  0  0  0  0  0
   26.5410   -3.2280    9.5120 C   0  0  0  0  0  0  0  0  0  0  0  0
   24.8980   -3.1640    8.8230 S   0  0  0  0  0  0  0  0  0  0  0  0
   24.4860   -1.7770    8.8160 O   0  0  0  0  0  0  0  0  0  0  0  0
   24.1050   -4.1420    9.5500 O   0  0  0  0  0  0  0  0  0  0  0  0
   22.8630   -0.9760    5.9870 C   0  0  0  0  0  0  0  0  0  0  0  0
   17.4180    1.7090    5.3440 C   0  0  0  0  0  0  0  0  0  0  0  0
   16.3410    0.8480    4.7820 C   0  0  0  0  0  0  0  0  0  0  0  0
   15.0000    1.5260    4.6740 C   0  0  2  0  0  0  0  0  0  0  0  0
   14.8110    2.6130    3.6790 C   0  0  0  0  0  0  0  0  0  0  0  0
   13.6630    2.6540    2.9220 F   0  0  0  0  0  0  0  0  0  0  0  0
   15.8420    3.0210    2.8660 F   0  0  0  0  0  0  0  0  0  0  0  0
   13.5095    3.3330    6.8109 H   0  0  0  0  0  0  0  0  0  0  0  0
   13.1612    4.3602    5.3790 H   0  0  0  0  0  0  0  0  0  0  0  0
   12.6851    2.6282    5.3790 H   0  0  0  0  0  0  0  0  0  0  0  0
   16.0937    4.6687    4.9927 H   0  0  0  0  0  0  0  0  0  0  0  0
   15.6914    4.0914    6.6855 H   0  0  0  0  0  0  0  0  0  0  0  0
   20.2360    2.8250    6.2700 H   0  0  0  0  0  0  0  0  0  0  0  0
   20.7840    0.7640    6.9130 H   0  0  0  0  0  0  0  0  0  0  0  0
   20.1703   -2.7226    6.5068 H   0  0  0  0  0  0  0  0  0  0  0  0
   25.2687   -1.9442    6.3051 H   0  0  0  0  0  0  0  0  0  0  0  0
   26.5200   -1.5534    4.4924 H   0  0  0  0  0  0  0  0  0  0  0  0
   27.3139   -2.1070    2.2018 H   0  0  0  0  0  0  0  0  0  0  0  0
   26.3484   -4.0558    0.9830 H   0  0  0  0  0  0  0  0  0  0  0  0
   24.5817   -5.4398    2.0582 H   0  0  0  0  0  0  0  0  0  0  0  0
   23.7821   -4.8995    4.3522 H   0  0  0  0  0  0  0  0  0  0  0  0
   24.2988   -4.5439    7.0347 H   0  0  0  0  0  0  0  0  0  0  0  0
   26.4295   -5.3765    7.5772 H   0  0  0  0  0  0  0  0  0  0  0  0
   26.5095   -4.6336    5.8721 H   0  0  0  0  0  0  0  0  0  0  0  0
   28.4967   -4.4033    7.5300 H   0  0  0  0  0  0  0  0  0  0  0  0
   27.9049   -3.0359    6.4469 H   0  0  0  0  0  0  0  0  0  0  0  0
   28.5448   -2.6787    9.0134 H   0  0  0  0  0  0  0  0  0  0  0  0
   27.2381   -1.7653    8.1388 H   0  0  0  0  0  0  0  0  0  0  0  0
   26.7727   -4.2658    9.7935 H   0  0  0  0  0  0  0  0  0  0  0  0
   26.5765   -2.5719   10.3942 H   0  0  0  0  0  0  0  0  0  0  0  0
   23.4957   -0.0895    5.8330 H   0  0  0  0  0  0  0  0  0  0  0  0
   16.6467    0.5263    3.7755 H   0  0  0  0  0  0  0  0  0  0  0  0
   16.2139    0.0064    5.4788 H   0  0  0  0  0  0  0  0  0  0  0  0
   14.5160    0.5675    4.9127 H   0  0  0  0  0  0  0  0  0  0  0  0
  2  1  1  1
  2  3  1  0
  3  4  1  0
  4  5  2  0
  5  6  1  0
  6  7  1  0
  7  8  1  0
  8  9  2  0
  8 10  1  0
 10 11  1  0
 11 12  1  0
 12 13  2  0
 13 14  1  0
 14 15  1  0
 15 16  1  0
 16 17  2  0
 17 18  1  0
 18 19  2  0
 19 20  1  0
 20 21  2  0
 15 22  1  0
 22 23  1  0
 23 24  1  0
 24 25  1  0
 25 26  1  0
 26 27  1  0
 27 28  2  0
 27 29  2  0
 14 30  1  0
  7 31  2  0
 31 32  1  0
 32 33  1  0
 33 34  1  0
 34 35  1  0
 34 36  1  0
 33  2  1  0
 34  2  1  0
 31  4  1  0
 30 11  2  0
 21 16  1  0
 27 22  1  0
  1 37  1  0
  1 38  1  0
  1 39  1  0
  3 40  1  0
  3 41  1  0
  6 42  1  0
 10 43  1  0
 12 44  1  0
 15 45  1  1
 17 46  1  0
 18 47  1  0
 19 48  1  0
 20 49  1  0
 21 50  1  0
 22 51  1  1
 23 52  1  0
 23 53  1  0
 24 54  1  0
 24 55  1  0
 25 56  1  0
 25 57  1  0
 26 58  1  0
 26 59  1  0
 30 60  1  0
 32 61  1  0
 32 62  1  0
 33 63  1  1
M  END
>  <meeko>  (4) 
{"is_sidechain": [false], "free_energy": -11.098, "intermolecular_energy": -14.598, "internal_energy": -0.876}

$$$$
4rfm_ligand
     RDKit          3D

 63 68  0  0  0  0  0  0  0  0999 V2000
   13.3100    3.0550    5.6130 C   0  0  0  0  0  0  0  0  0  0  0  0
   14.7060    2.8620    5.0890 C   0  0  1  0  0  0  0  0  0  0  0  0
   15.7470    3.7880    5.7080 C   0  0  0  0  0  0  0  0  0  0  0  0
   17.1070    3.1860    5.8350 C   0  0  0  0  0  0  0  0  0  0  0  0
   18.1400    3.8350    6.3780 N   0  0  0  0  0  0  0  0  0  0  0  0
   19.1550    2.9620    6.2570 N   0  0  0  0  0  0  0  0  0  0  0  0
   18.7940    1.7400    5.7520 C   0  0  0  0  0  0  0  0  0  0  0  0
   19.6670    0.6000    5.5590 C   0  0  0  0  0  0  0  0  0  0  0  0
   19.3230   -0.3530    4.8690 O   0  0  0  0  0  0  0  0  0  0  0  0
   20.8690    0.6930    6.2430 N   0  0  0  0  0  0  0  0  0  0  0  0
   21.8890   -0.2420    6.1960 C   0  0  0  0  0  0  0  0  0  0  0  0
   23.2160   -0.0220    5.7730 C   0  0  0  0  0  0  0  0  0  0  0  0
   23.9650   -1.1250    5.8230 N   0  0  0  0  0  0  0  0  0  0  0  0
   23.1240   -2.0670    6.3140 N   0  0  0  0  0  0  0  0  0  0  0  0
   23.6020   -3.4500    6.4010 C   0  0  2  0  0  0  0  0  0  0  0  0
   24.6830   -3.7590    5.3550 C   0  0  0  0  0  0  0  0  0  0  0  0
   24.3290   -3.7400    3.9890 C   0  0  0  0  0  0  0  0  0  0  0  0
   25.2700   -4.0170    2.9960 C   0  0  0  0  0  0  0  0  0  0  0  0
   26.5800   -4.3250    3.3470 C   0  0  0  0  0  0  0  0  0  0  0  0
   26.9460   -4.3630    4.6890 C   0  0  0  0  0  0  0  0  0  0  0  0
   26.0060   -4.0850    5.6860 C   0  0  0  0  0  0  0  0  0  0  0  0
   22.5540   -4.5650    6.6420 C   0  0  1  0  0  0  0  0  0  0  0  0
   22.8190   -5.8930    5.9070 C   0  0  0  0  0  0  0  0  0  0  0  0
   23.8240   -6.8630    6.5260 C   0  0  0  0  0  0  0  0  0  0  0  0
   23.8370   -6.9090    8.0510 C   0  0  0  0  0  0  0  0  0  0  0  0
   22.4920   -6.5630    8.6490 C   0  0  0  0  0  0  0  0  0  0  0  0
   22.0730   -4.8580    8.3400 S   0  0  0  0  0  0  0  0  0  0  0  0
   22.8690   -4.0490    9.2370 O   0  0  0  0  0  0  0  0  0  0  0  0
   20.6240   -4.7700    8.3930 O   0  0  0  0  0  0  0  0  0  0  0  0
   21.8630   -1.5740    6.5250 C   0  0  0  0  0  0  0  0  0  0  0  0
   17.4590    1.8840    5.4160 C   0  0  0  0  0  0  0  0  0  0  0  0
   16.5180    0.9280    4.7710 C   0  0  0  0  0  0  0  0  0  0  0  0
   15.1150    1.4550    4.6090 C   0  0  2  0  0  0  0  0  0  0  0  0
   14.8550    2.5480    3.6370 C   0  0  0  0  0  0  0  0  0  0  0  0
   13.7500    2.4860    2.8190 F   0  0  0  0  0  0  0  0  0  0  0  0
   15.8740    3.0980    2.8950 F   0  0  0  0  0  0  0  0  0  0  0  0
   13.3276    3.0526    6.7129 H   0  0  0  0  0  0  0  0  0  0  0  0
   12.9135    4.0165    5.2548 H   0  0  0  0  0  0  0  0  0  0  0  0
   12.6675    2.2371    5.2548 H   0  0  0  0  0  0  0  0  0  0  0  0
   15.8256    4.6871    5.0791 H   0  0  0  0  0  0  0  0  0  0  0  0
   15.4040    4.0092    6.7295 H   0  0  0  0  0  0  0  0  0  0  0  0
   20.0790    3.2770    6.5290 H   0  0  0  0  0  0  0  0  0  0  0  0
   20.9960    1.4390    6.9080 H   0  0  0  0  0  0  0  0  0  0  0  0
   23.5936    0.9552    5.4374 H   0  0  0  0  0  0  0  0  0  0  0  0
   24.1020   -3.4876    7.3801 H   0  0  0  0  0  0  0  0  0  0  0  0
   23.2939   -3.5029    3.7020 H   0  0  0  0  0  0  0  0  0  0  0  0
   24.9756   -3.9917    1.9364 H   0  0  0  0  0  0  0  0  0  0  0  0
   27.3247   -4.5380    2.5660 H   0  0  0  0  0  0  0  0  0  0  0  0
   27.9805   -4.6131    4.9670 H   0  0  0  0  0  0  0  0  0  0  0  0
   26.3081   -4.1225    6.7431 H   0  0  0  0  0  0  0  0  0  0  0  0
   21.6780   -4.1027    6.1636 H   0  0  0  0  0  0  0  0  0  0  0  0
   21.8578   -6.4222    5.8293 H   0  0  0  0  0  0  0  0  0  0  0  0
   23.2756   -5.5940    4.9520 H   0  0  0  0  0  0  0  0  0  0  0  0
   23.5911   -7.8732    6.1582 H   0  0  0  0  0  0  0  0  0  0  0  0
   24.8183   -6.5009    6.2258 H   0  0  0  0  0  0  0  0  0  0  0  0
   24.1158   -7.9237    8.3716 H   0  0  0  0  0  0  0  0  0  0  0  0
   24.5632   -6.1616    8.4032 H   0  0  0  0  0  0  0  0  0  0  0  0
   21.7226   -7.2091    8.2011 H   0  0  0  0  0  0  0  0  0  0  0  0
   22.5421   -6.7193    9.7367 H   0  0  0  0  0  0  0  0  0  0  0  0
   20.9930   -2.1398    6.8897 H   0  0  0  0  0  0  0  0  0  0  0  0
   16.9098    0.6782    3.7739 H   0  0  0  0  0  0  0  0  0  0  0  0
   16.4521    0.0534    5.4349 H   0  0  0  0  0  0  0  0  0  0  0  0
   14.7318    0.4404    4.7930 H   0  0  0  0  0  0  0  0  0  0  0  0
  2  1  1  6
  2  3  1  0
  3  4  1  0
  4  5  2  0
  5  6  1  0
  6  7  1  0
  7  8  1  0
  8  9  2  0
  8 10  1  0
 10 11  1  0
 11 12  1  0
 12 13  2  0
 13 14  1  0
 14 15  1  0
 15 16  1  0
 16 17  2  0
 17 18  1  0
 18 19  2  0
 19 20  1  0
 20 21  2  0
 15 22  1  0
 22 23  1  0
 23 24  1  0
 24 25  1  0
 25 26  1  0
 26 27  1  0
 27 28  2  0
 27 29  2  0
 14 30  1  0
  7 31  2  0
 31 32  1  0
 32 33  1  0
 33 34  1  0
 34 35  1  0
 34 36  1  0
 33  2  1  0
 34  2  1  0
 31  4  1  0
 30 11  2  0
 21 16  1  0
 27 22  1  0
  1 37  1  0
  1 38  1  0
  1 39  1  0
  3 40  1  0
  3 41  1  0
  6 42  1  0
 10 43  1  0
 12 44  1  0
 15 45  1  1
 17 46  1  0
 18 47  1  0
 19 48  1  0
 20 49  1  0
 21 50  1  0
 22 51  1  6
 23 52  1  0
 23 53  1  0
 24 54  1  0
 24 55  1  0
 25 56  1  0
 25 57  1  0
 26 58  1  0
 26 59  1  0
 30 60  1  0
 32 61  1  0
 32 62  1  0
 33 63  1  6
M  END
>  <meeko>  (5) 
{"is_sidechain": [false], "free_energy": -11.075, "intermolecular_energy": -14.743, "internal_energy": -0.702}

$$$$
4rfm_ligand
     RDKit          3D

 63 68  0  0  0  0  0  0  0  0999 V2000
   13.2620    3.2150    5.6430 C   0  0  0  0  0  0  0  0  0  0  0  0
   14.6300    2.9410    5.0830 C   0  0  1  0  0  0  0  0  0  0  0  0
   15.7500    3.7530    5.7240 C   0  0  0  0  0  0  0  0  0  0  0  0
   17.0610    3.0430    5.7940 C   0  0  0  0  0  0  0  0  0  0  0  0
   18.1500    3.5830    6.3460 N   0  0  0  0  0  0  0  0  0  0  0  0
   19.0920    2.6420    6.1640 N   0  0  0  0  0  0  0  0  0  0  0  0
   18.6290    1.4770    5.6080 C   0  0  0  0  0  0  0  0  0  0  0  0
   19.4070    0.2850    5.3430 C   0  0  0  0  0  0  0  0  0  0  0  0
   19.0030   -0.5790    4.5720 O   0  0  0  0  0  0  0  0  0  0  0  0
   20.5930    0.2200    6.0570 N   0  0  0  0  0  0  0  0  0  0  0  0
   21.5310   -0.7930    5.9580 C   0  0  0  0  0  0  0  0  0  0  0  0
   21.3830   -2.1260    6.3920 C   0  0  0  0  0  0  0  0  0  0  0  0
   22.4730   -2.8660    6.1770 N   0  0  0  0  0  0  0  0  0  0  0  0
   23.3300   -2.0110    5.5670 N   0  0  0  0  0  0  0  0  0  0  0  0
   24.6900   -2.4760    5.2790 C   0  0  2  0  0  0  0  0  0  0  0  0
   25.7420   -1.3840    5.5220 C   0  0  0  0  0  0  0  0  0  0  0  0
   26.5920   -1.4970    6.6410 C   0  0  0  0  0  0  0  0  0  0  0  0
   27.5620   -0.5320    6.9120 C   0  0  0  0  0  0  0  0  0  0  0  0
   27.6980    0.5700    6.0750 C   0  0  0  0  0  0  0  0  0  0  0  0
   26.8610    0.7090    4.9730 C   0  0  0  0  0  0  0  0  0  0  0  0
   25.8880   -0.2580    4.6980 C   0  0  0  0  0  0  0  0  0  0  0  0
   24.9050   -3.3570    4.0240 C   0  0  1  0  0  0  0  0  0  0  0  0
   26.1960   -3.0760    3.2310 C   0  0  0  0  0  0  0  0  0  0  0  0
   27.4970   -3.6910    3.7440 C   0  0  0  0  0  0  0  0  0  0  0  0
   27.3650   -5.0770    4.3700 C   0  0  0  0  0  0  0  0  0  0  0  0
   26.2080   -5.8620    3.7930 C   0  0  0  0  0  0  0  0  0  0  0  0
   24.6480   -5.1160    4.2270 S   0  0  0  0  0  0  0  0  0  0  0  0
   24.3890   -5.4320    5.6140 O   0  0  0  0  0  0  0  0  0  0  0  0
   23.6950   -5.5260    3.2100 O   0  0  0  0  0  0  0  0  0  0  0  0
   22.8040   -0.7520    5.4440 C   0  0  0  0  0  0  0  0  0  0  0  0
   17.3030    1.7400    5.3070 C   0  0  0  0  0  0  0  0  0  0  0  0
   16.2800    0.8920    4.6350 C   0  0  0  0  0  0  0  0  0  0  0  0
   14.9210    1.5320    4.5270 C   0  0  2  0  0  0  0  0  0  0  0  0
   14.7300    2.6890    3.6150 C   0  0  0  0  0  0  0  0  0  0  0  0
   13.6110    2.7530    2.8160 F   0  0  0  0  0  0  0  0  0  0  0  0
   15.7760    3.1950    2.8790 F   0  0  0  0  0  0  0  0  0  0  0  0
   13.3071    3.2060    6.7420 H   0  0  0  0  0  0  0  0  0  0  0  0
   12.9153    4.2004    5.2984 H   0  0  0  0  0  0  0  0  0  0  0  0
   12.5626    2.4391    5.2984 H   0  0  0  0  0  0  0  0  0  0  0  0
   15.8875    4.6733    5.1373 H   0  0  0  0  0  0  0  0  0  0  0  0
   15.4424    3.9494    6.7617 H   0  0  0  0  0  0  0  0  0  0  0  0
   20.0420    2.8710    6.4320 H   0  0  0  0  0  0  0  0  0  0  0  0
   20.7650    0.8990    6.7820 H   0  0  0  0  0  0  0  0  0  0  0  0
   20.4661   -2.5153    6.8586 H   0  0  0  0  0  0  0  0  0  0  0  0
   24.8643   -3.2469    6.0440 H   0  0  0  0  0  0  0  0  0  0  0  0
   26.4884   -2.3620    7.3126 H   0  0  0  0  0  0  0  0  0  0  0  0
   28.2190   -0.6427    7.7873 H   0  0  0  0  0  0  0  0  0  0  0  0
   28.4655    1.3298    6.2839 H   0  0  0  0  0  0  0  0  0  0  0  0
   26.9645    1.5838    4.3142 H   0  0  0  0  0  0  0  0  0  0  0  0
   25.2298   -0.1339    3.8255 H   0  0  0  0  0  0  0  0  0  0  0  0
   24.0657   -3.0067    3.4053 H   0  0  0  0  0  0  0  0  0  0  0  0
   26.0393   -3.4471    2.2074 H   0  0  0  0  0  0  0  0  0  0  0  0
   26.3475   -1.9906    3.3253 H   0  0  0  0  0  0  0  0  0  0  0  0
   28.1938   -3.7667    2.8962 H   0  0  0  0  0  0  0  0  0  0  0  0
   27.8487   -3.0280    4.5482 H   0  0  0  0  0  0  0  0  0  0  0  0
   28.2954   -5.6357    4.1907 H   0  0  0  0  0  0  0  0  0  0  0  0
   27.1764   -4.9429    5.4454 H   0  0  0  0  0  0  0  0  0  0  0  0
   26.3018   -5.8875    2.6973 H   0  0  0  0  0  0  0  0  0  0  0  0
   26.2357   -6.8809    4.2067 H   0  0  0  0  0  0  0  0  0  0  0  0
   23.3069    0.1269    5.0142 H   0  0  0  0  0  0  0  0  0  0  0  0
   16.6350    0.6630    3.6194 H   0  0  0  0  0  0  0  0  0  0  0  0
   16.1572   -0.0071    5.2567 H   0  0  0  0  0  0  0  0  0  0  0  0
   14.4638    0.5417    4.6690 H   0  0  0  0  0  0  0  0  0  0  0  0
  2  1  1  6
  2  3  1  0
  3  4  1  0
  4  5  2  0
  5  6  1  0
  6  7  1  0
  7  8  1  0
  8  9  2  0
  8 10  1  0
 10 11  1  0
 11 12  1  0
 12 13  2  0
 13 14  1  0
 14 15  1  0
 15 16  1  0
 16 17  2  0
 17 18  1  0
 18 19  2  0
 19 20  1  0
 20 21  2  0
 15 22  1  0
 22 23  1  0
 23 24  1  0
 24 25  1  0
 25 26  1  0
 26 27  1  0
 27 28  2  0
 27 29  2  0
 14 30  1  0
  7 31  2  0
 31 32  1  0
 32 33  1  0
 33 34  1  0
 34 35  1  0
 34 36  1  0
 33  2  1  0
 34  2  1  0
 31  4  1  0
 30 11  2  0
 21 16  1  0
 27 22  1  0
  1 37  1  0
  1 38  1  0
  1 39  1  0
  3 40  1  0
  3 41  1  0
  6 42  1  0
 10 43  1  0
 12 44  1  0
 15 45  1  1
 17 46  1  0
 18 47  1  0
 19 48  1  0
 20 49  1  0
 21 50  1  0
 22 51  1  6
 23 52  1  0
 23 53  1  0
 24 54  1  0
 24 55  1  0
 25 56  1  0
 25 57  1  0
 26 58  1  0
 26 59  1  0
 30 60  1  0
 32 61  1  0
 32 62  1  0
 33 63  1  6
M  END
>  <meeko>  (6) 
{"is_sidechain": [false], "free_energy": -10.93, "intermolecular_energy": -14.726, "internal_energy": -0.531}

$$$$
4rfm_ligand
     RDKit          3D

 63 68  0  0  0  0  0  0  0  0999 V2000
   13.4030    3.5150    5.6490 C   0  0  0  0  0  0  0  0  0  0  0  0
   14.7080    3.0560    5.0580 C   0  0  1  0  0  0  0  0  0  0  0  0
   15.9290    3.8220    5.5520 C   0  0  0  0  0  0  0  0  0  0  0  0
   17.1740    3.0040    5.6390 C   0  0  0  0  0  0  0  0  0  0  0  0
   18.3370    3.4940    6.0770 N   0  0  0  0  0  0  0  0  0  0  0  0
   19.1800    2.4550    5.9550 N   0  0  0  0  0  0  0  0  0  0  0  0
   18.5850    1.2870    5.5540 C   0  0  0  0  0  0  0  0  0  0  0  0
   19.2380    0.0050    5.3850 C   0  0  0  0  0  0  0  0  0  0  0  0
   19.1270   -0.6320    4.3440 O   0  0  0  0  0  0  0  0  0  0  0  0
   19.9440   -0.4140    6.5020 N   0  0  0  0  0  0  0  0  0  0  0  0
   20.6850   -1.5800    6.5870 C   0  0  0  0  0  0  0  0  0  0  0  0
   20.1910   -2.8780    6.8310 C   0  0  0  0  0  0  0  0  0  0  0  0
   21.1540   -3.8000    6.8770 N   0  0  0  0  0  0  0  0  0  0  0  0
   22.2870   -3.0980    6.6290 N   0  0  0  0  0  0  0  0  0  0  0  0
   23.5720   -3.7980    6.7110 C   0  0  2  0  0  0  0  0  0  0  0  0
   23.7080   -4.8930    5.6420 C   0  0  0  0  0  0  0  0  0  0  0  0
   22.7990   -5.9720    5.6580 C   0  0  0  0  0  0  0  0  0  0  0  0
   22.8780   -6.9960    4.7130 C   0  0  0  0  0  0  0  0  0  0  0  0
   23.8700   -6.9670    3.7390 C   0  0  0  0  0  0  0  0  0  0  0  0
   24.7850   -5.9190    3.7140 C   0  0  0  0  0  0  0  0  0  0  0  0
   24.7070   -4.8910    4.6580 C   0  0  0  0  0  0  0  0  0  0  0  0
   24.1160   -4.1530    8.1170 C   0  0  1  0  0  0  0  0  0  0  0  0
   24.1890   -5.6580    8.4380 C   0  0  0  0  0  0  0  0  0  0  0  0
   25.3850   -6.4450    7.9030 C   0  0  0  0  0  0  0  0  0  0  0  0
   26.7090   -5.6850    7.8720 C   0  0  0  0  0  0  0  0  0  0  0  0
   26.7860   -4.6190    8.9420 C   0  0  0  0  0  0  0  0  0  0  0  0
   25.6100   -3.3150    8.6320 S   0  0  0  0  0  0  0  0  0  0  0  0
   26.1350   -2.5080    7.5520 O   0  0  0  0  0  0  0  0  0  0  0  0
   25.3290   -2.6960    9.9170 O   0  0  0  0  0  0  0  0  0  0  0  0
   22.0410   -1.7590    6.4760 C   0  0  0  0  0  0  0  0  0  0  0  0
   17.2730    1.6400    5.2880 C   0  0  0  0  0  0  0  0  0  0  0  0
   16.1420    0.8250    4.7630 C   0  0  0  0  0  0  0  0  0  0  0  0
   14.8410    1.5750    4.6490 C   0  0  2  0  0  0  0  0  0  0  0  0
   14.7020    2.6420    3.6240 C   0  0  0  0  0  0  0  0  0  0  0  0
   13.5480    2.7260    2.8770 F   0  0  0  0  0  0  0  0  0  0  0  0
   15.7440    2.9670    2.7880 F   0  0  0  0  0  0  0  0  0  0  0  0
   13.4693    3.4917    6.7468 H   0  0  0  0  0  0  0  0  0  0  0  0
   13.1907    4.5417    5.3162 H   0  0  0  0  0  0  0  0  0  0  0  0
   12.5947    2.8472    5.3162 H   0  0  0  0  0  0  0  0  0  0  0  0
   16.1137    4.6580    4.8613 H   0  0  0  0  0  0  0  0  0  0  0  0
   15.6990    4.1550    6.5749 H   0  0  0  0  0  0  0  0  0  0  0  0
   20.1600    2.6210    6.1510 H   0  0  0  0  0  0  0  0  0  0  0  0
   19.8490    0.1020    7.3620 H   0  0  0  0  0  0  0  0  0  0  0  0
   19.1238   -3.1063    6.9689 H   0  0  0  0  0  0  0  0  0  0  0  0
   24.3043   -3.0199    6.4495 H   0  0  0  0  0  0  0  0  0  0  0  0
   22.0147   -6.0067    6.4285 H   0  0  0  0  0  0  0  0  0  0  0  0
   22.1560   -7.8255    4.7387 H   0  0  0  0  0  0  0  0  0  0  0  0
   23.9312   -7.7705    2.9902 H   0  0  0  0  0  0  0  0  0  0  0  0
   25.5737   -5.8994    2.9475 H   0  0  0  0  0  0  0  0  0  0  0  0
   25.4386   -4.0701    4.6286 H   0  0  0  0  0  0  0  0  0  0  0  0
   23.3128   -3.7310    8.7390 H   0  0  0  0  0  0  0  0  0  0  0  0
   24.1931   -5.7597    9.5333 H   0  0  0  0  0  0  0  0  0  0  0  0
   23.3195   -6.0928    7.9234 H   0  0  0  0  0  0  0  0  0  0  0  0
   25.5184   -7.3330    8.5383 H   0  0  0  0  0  0  0  0  0  0  0  0
   25.1474   -6.6821    6.8555 H   0  0  0  0  0  0  0  0  0  0  0  0
   27.5306   -6.4000    8.0257 H   0  0  0  0  0  0  0  0  0  0  0  0
   26.7870   -5.1861    6.8948 H   0  0  0  0  0  0  0  0  0  0  0  0
   26.5687   -5.0743    9.9195 H   0  0  0  0  0  0  0  0  0  0  0  0
   27.7977   -4.1873    8.9339 H   0  0  0  0  0  0  0  0  0  0  0  0
   22.7905   -0.9739    6.2975 H   0  0  0  0  0  0  0  0  0  0  0  0
   16.4168    0.4571    3.7634 H   0  0  0  0  0  0  0  0  0  0  0  0
   15.9760    0.0124    5.4856 H   0  0  0  0  0  0  0  0  0  0  0  0
   14.3066    0.6530    4.9215 H   0  0  0  0  0  0  0  0  0  0  0  0
  2  1  1  1
  2  3  1  0
  3  4  1  0
  4  5  2  0
  5  6  1  0
  6  7  1  0
  7  8  1  0
  8  9  2  0
  8 10  1  0
 10 11  1  0
 11 12  1  0
 12 13  2  0
 13 14  1  0
 14 15  1  0
 15 16  1  0
 16 17  2  0
 17 18  1  0
 18 19  2  0
 19 20  1  0
 20 21  2  0
 15 22  1  0
 22 23  1  0
 23 24  1  0
 24 25  1  0
 25 26  1  0
 26 27  1  0
 27 28  2  0
 27 29  2  0
 14 30  1  0
  7 31  2  0
 31 32  1  0
 32 33  1  0
 33 34  1  0
 34 35  1  0
 34 36  1  0
 33  2  1  0
 34  2  1  0
 31  4  1  0
 30 11  2  0
 21 16  1  0
 27 22  1  0
  1 37  1  0
  1 38  1  0
  1 39  1  0
  3 40  1  0
  3 41  1  0
  6 42  1  0
 10 43  1  0
 12 44  1  0
 15 45  1  6
 17 46  1  0
 18 47  1  0
 19 48  1  0
 20 49  1  0
 21 50  1  0
 22 51  1  1
 23 52  1  0
 23 53  1  0
 24 54  1  0
 24 55  1  0
 25 56  1  0
 25 57  1  0
 26 58  1  0
 26 59  1  0
 30 60  1  0
 32 61  1  0
 32 62  1  0
 33 63  1  1
M  END
>  <meeko>  (7) 
{"is_sidechain": [false], "free_energy": -9.646, "intermolecular_energy": -13.153, "internal_energy": -0.445}

$$$$
4rfm_ligand
     RDKit          3D

 63 68  0  0  0  0  0  0  0  0999 V2000
   19.0410    2.3120    4.9970 C   0  0  0  0  0  0  0  0  0  0  0  0
   17.6060    1.9900    5.3110 C   0  0  1  0  0  0  0  0  0  0  0  0
   16.8650    3.0830    6.0730 C   0  0  0  0  0  0  0  0  0  0  0  0
   15.4130    3.1840    5.7450 C   0  0  0  0  0  0  0  0  0  0  0  0
   14.6070    4.0990    6.2920 N   0  0  0  0  0  0  0  0  0  0  0  0
   13.4060    3.8130    5.7610 N   0  0  0  0  0  0  0  0  0  0  0  0
   13.4250    2.8180    4.8180 C   0  0  0  0  0  0  0  0  0  0  0  0
   12.2920    2.3390    4.0540 C   0  0  0  0  0  0  0  0  0  0  0  0
   12.3470    2.2370    2.8330 O   0  0  0  0  0  0  0  0  0  0  0  0
   11.1760    2.0550    4.8250 N   0  0  0  0  0  0  0  0  0  0  0  0
    9.9800    1.5490    4.3450 C   0  0  0  0  0  0  0  0  0  0  0  0
    8.7510    2.2340    4.2550 C   0  0  0  0  0  0  0  0  0  0  0  0
    7.7690    1.4730    3.7670 N   0  0  0  0  0  0  0  0  0  0  0  0
    8.3740    0.2880    3.5080 N   0  0  0  0  0  0  0  0  0  0  0  0
    7.5460   -0.8320    3.0520 C   0  0  2  0  0  0  0  0  0  0  0  0
    7.3010   -1.8640    4.1620 C   0  0  0  0  0  0  0  0  0  0  0  0
    5.9730   -2.2290    4.4680 C   0  0  0  0  0  0  0  0  0  0  0  0
    5.6920   -3.1590    5.4690 C   0  0  0  0  0  0  0  0  0  0  0  0
    6.7310   -3.7380    6.1910 C   0  0  0  0  0  0  0  0  0  0  0  0
    8.0470   -3.3810    5.9150 C   0  0  0  0  0  0  0  0  0  0  0  0
    8.3320   -2.4510    4.9110 C   0  0  0  0  0  0  0  0  0  0  0  0
    7.8180   -1.4060    1.6400 C   0  0  1  0  0  0  0  0  0  0  0  0
    8.0730   -2.9250    1.5810 C   0  0  0  0  0  0  0  0  0  0  0  0
    6.8590   -3.8530    1.6000 C   0  0  0  0  0  0  0  0  0  0  0  0
    5.6260   -3.3360    0.8630 C   0  0  0  0  0  0  0  0  0  0  0  0
    5.9830   -2.4050   -0.2740 C   0  0  0  0  0  0  0  0  0  0  0  0
    6.7040   -0.8930    0.3380 S   0  0  0  0  0  0  0  0  0  0  0  0
    5.6290   -0.0910    0.8800 O   0  0  0  0  0  0  0  0  0  0  0  0
    7.5220   -0.3590   -0.7370 O   0  0  0  0  0  0  0  0  0  0  0  0
    9.6960    0.2950    3.8680 C   0  0  0  0  0  0  0  0  0  0  0  0
   14.7290    2.3530    4.8310 C   0  0  0  0  0  0  0  0  0  0  0  0
   15.3640    1.2400    4.0730 C   0  0  0  0  0  0  0  0  0  0  0  0
   16.8370    1.0710    4.3410 C   0  0  2  0  0  0  0  0  0  0  0  0
   17.2850    0.5770    5.6690 C   0  0  0  0  0  0  0  0  0  0  0  0
   18.2820   -0.3690    5.7460 F   0  0  0  0  0  0  0  0  0  0  0  0
   16.3790    0.2860    6.6620 F   0  0  0  0  0  0  0  0  0  0  0  0
   19.6022    2.4379    5.9347 H   0  0  0  0  0  0  0  0  0  0  0  0
   19.4819    1.4905    4.4133 H   0  0  0  0  0  0  0  0  0  0  0  0
   19.0886    3.2432    4.4133 H   0  0  0  0  0  0  0  0  0  0  0  0
   16.9615    2.8784    7.1495 H   0  0  0  0  0  0  0  0  0  0  0  0
   17.3220    4.0387    5.7767 H   0  0  0  0  0  0  0  0  0  0  0  0
   12.6070    4.3330    6.1030 H   0  0  0  0  0  0  0  0  0  0  0  0
   11.1750    2.3190    5.7980 H   0  0  0  0  0  0  0  0  0  0  0  0
    8.6158    3.2836    4.5550 H   0  0  0  0  0  0  0  0  0  0  0  0
    6.5715   -0.3646    2.8471 H   0  0  0  0  0  0  0  0  0  0  0  0
    5.1443   -1.7720    3.9072 H   0  0  0  0  0  0  0  0  0  0  0  0
    4.6497   -3.4345    5.6874 H   0  0  0  0  0  0  0  0  0  0  0  0
    6.5126   -4.4755    6.9774 H   0  0  0  0  0  0  0  0  0  0  0  0
    8.8683   -3.8333    6.4903 H   0  0  0  0  0  0  0  0  0  0  0  0
    9.3771   -2.1761    4.7057 H   0  0  0  0  0  0  0  0  0  0  0  0
    8.7749   -0.9103    1.4196 H   0  0  0  0  0  0  0  0  0  0  0  0
    8.6271   -3.1288    0.6529 H   0  0  0  0  0  0  0  0  0  0  0  0
    8.6096   -3.1520    2.5140 H   0  0  0  0  0  0  0  0  0  0  0  0
    7.1543   -4.8071    1.1390 H   0  0  0  0  0  0  0  0  0  0  0  0
    6.5642   -3.9437    2.6559 H   0  0  0  0  0  0  0  0  0  0  0  0
    5.0717   -4.1946    0.4560 H   0  0  0  0  0  0  0  0  0  0  0  0
    5.0179   -2.7688    1.5830 H   0  0  0  0  0  0  0  0  0  0  0  0
    6.7054   -2.9058   -0.9353 H   0  0  0  0  0  0  0  0  0  0  0  0
    5.0636   -2.1564   -0.8244 H   0  0  0  0  0  0  0  0  0  0  0  0
   10.3984   -0.5479    3.7891 H   0  0  0  0  0  0  0  0  0  0  0  0
   14.8545    0.3035    4.3439 H   0  0  0  0  0  0  0  0  0  0  0  0
   15.2634    1.4869    3.0058 H   0  0  0  0  0  0  0  0  0  0  0  0
   16.9756    0.7773    3.2900 H   0  0  0  0  0  0  0  0  0  0  0  0
  2  1  1  6
  2  3  1  0
  3  4  1  0
  4  5  2  0
  5  6  1  0
  6  7  1  0
  7  8  1  0
  8  9  2  0
  8 10  1  0
 10 11  1  0
 11 12  1  0
 12 13  2  0
 13 14  1  0
 14 15  1  0
 15 16  1  0
 16 17  2  0
 17 18  1  0
 18 19  2  0
 19 20  1  0
 20 21  2  0
 15 22  1  0
 22 23  1  0
 23 24  1  0
 24 25  1  0
 25 26  1  0
 26 27  1  0
 27 28  2  0
 27 29  2  0
 14 30  1  0
  7 31  2  0
 31 32  1  0
 32 33  1  0
 33 34  1  0
 34 35  1  0
 34 36  1  0
 33  2  1  0
 34  2  1  0
 31  4  1  0
 30 11  2  0
 21 16  1  0
 27 22  1  0
  1 37  1  0
  1 38  1  0
  1 39  1  0
  3 40  1  0
  3 41  1  0
  6 42  1  0
 10 43  1  0
 12 44  1  0
 15 45  1  6
 17 46  1  0
 18 47  1  0
 19 48  1  0
 20 49  1  0
 21 50  1  0
 22 51  1  6
 23 52  1  0
 23 53  1  0
 24 54  1  0
 24 55  1  0
 25 56  1  0
 25 57  1  0
 26 58  1  0
 26 59  1  0
 30 60  1  0
 32 61  1  0
 32 62  1  0
 33 63  1  6
M  END
>  <meeko>  (8) 
{"is_sidechain": [false], "free_energy": -9.354, "intermolecular_energy": -12.37, "internal_energy": -0.85}

$$$$
4rfm_ligand
     RDKit          3D

 63 68  0  0  0  0  0  0  0  0999 V2000
   13.9590    2.4910    5.8340 C   0  0  0  0  0  0  0  0  0  0  0  0
   15.3550    2.3380    5.2960 C   0  0  1  0  0  0  0  0  0  0  0  0
   16.3720    3.3060    5.8910 C   0  0  0  0  0  0  0  0  0  0  0  0
   17.7530    2.7510    6.0090 C   0  0  0  0  0  0  0  0  0  0  0  0
   18.7700    3.4400    6.5310 N   0  0  0  0  0  0  0  0  0  0  0  0
   19.8120    2.6000    6.4100 N   0  0  0  0  0  0  0  0  0  0  0  0
   19.4860    1.3600    5.9240 C   0  0  0  0  0  0  0  0  0  0  0  0
   20.3940    0.2470    5.7350 C   0  0  0  0  0  0  0  0  0  0  0  0
   20.0130   -0.8050    5.2340 O   0  0  0  0  0  0  0  0  0  0  0  0
   21.6780    0.4880    6.1970 N   0  0  0  0  0  0  0  0  0  0  0  0
   22.7400   -0.3950    6.1020 C   0  0  0  0  0  0  0  0  0  0  0  0
   23.8560   -0.2830    5.2480 C   0  0  0  0  0  0  0  0  0  0  0  0
   24.7070   -1.3040    5.3710 N   0  0  0  0  0  0  0  0  0  0  0  0
   24.1530   -2.0740    6.3390 N   0  0  0  0  0  0  0  0  0  0  0  0
   24.7870   -3.3570    6.6570 C   0  0  2  0  0  0  0  0  0  0  0  0
   23.7830   -4.3820    7.2040 C   0  0  0  0  0  0  0  0  0  0  0  0
   23.8710   -5.7190    6.7640 C   0  0  0  0  0  0  0  0  0  0  0  0
   22.9830   -6.6910    7.2250 C   0  0  0  0  0  0  0  0  0  0  0  0
   21.9840   -6.3460    8.1300 C   0  0  0  0  0  0  0  0  0  0  0  0
   21.8720   -5.0300    8.5660 C   0  0  0  0  0  0  0  0  0  0  0  0
   22.7610   -4.0540    8.1070 C   0  0  0  0  0  0  0  0  0  0  0  0
   26.1730   -3.3290    7.3470 C   0  0  1  0  0  0  0  0  0  0  0  0
   27.3610   -2.9700    6.4330 C   0  0  0  0  0  0  0  0  0  0  0  0
   27.6080   -1.4920    6.1330 C   0  0  0  0  0  0  0  0  0  0  0  0
   27.3110   -0.5310    7.2810 C   0  0  0  0  0  0  0  0  0  0  0  0
   27.4920   -1.1790    8.6360 C   0  0  0  0  0  0  0  0  0  0  0  0
   26.2750   -2.4550    8.9040 S   0  0  0  0  0  0  0  0  0  0  0  0
   25.0200   -1.7980    9.1970 O   0  0  0  0  0  0  0  0  0  0  0  0
   26.8450   -3.3750    9.8730 O   0  0  0  0  0  0  0  0  0  0  0  0
   22.9590   -1.5680    6.7800 C   0  0  0  0  0  0  0  0  0  0  0  0
   18.1430    1.4560    5.6030 C   0  0  0  0  0  0  0  0  0  0  0  0
   17.2260    0.4610    4.9810 C   0  0  0  0  0  0  0  0  0  0  0  0
   15.8060    0.9390    4.8290 C   0  0  2  0  0  0  0  0  0  0  0  0
   15.4980    2.0100    3.8470 C   0  0  0  0  0  0  0  0  0  0  0  0
   14.3860    1.9010    3.0420 F   0  0  0  0  0  0  0  0  0  0  0  0
   16.4890    2.5840    3.0850 F   0  0  0  0  0  0  0  0  0  0  0  0
   13.9874    2.4879    6.9336 H   0  0  0  0  0  0  0  0  0  0  0  0
   13.5321    3.4413    5.4809 H   0  0  0  0  0  0  0  0  0  0  0  0
   13.3364    1.6557    5.4809 H   0  0  0  0  0  0  0  0  0  0  0  0
   16.4133    4.1991    5.2502 H   0  0  0  0  0  0  0  0  0  0  0  0
   16.0337    3.5287    6.9137 H   0  0  0  0  0  0  0  0  0  0  0  0
   20.7280    2.9490    6.6660 H   0  0  0  0  0  0  0  0  0  0  0  0
   21.8560    1.3220    6.7340 H   0  0  0  0  0  0  0  0  0  0  0  0
   24.0092    0.5566    4.5540 H   0  0  0  0  0  0  0  0  0  0  0  0
   25.1080   -3.7358    5.6754 H   0  0  0  0  0  0  0  0  0  0  0  0
   24.6539   -6.0004    6.0444 H   0  0  0  0  0  0  0  0  0  0  0  0
   23.0725   -7.7294    6.8733 H   0  0  0  0  0  0  0  0  0  0  0  0
   21.2854   -7.1112    8.4993 H   0  0  0  0  0  0  0  0  0  0  0  0
   21.0786   -4.7555    9.2767 H   0  0  0  0  0  0  0  0  0  0  0  0
   22.6580   -3.0166    8.4580 H   0  0  0  0  0  0  0  0  0  0  0  0
   26.2748   -4.3943    7.6014 H   0  0  0  0  0  0  0  0  0  0  0  0
   28.2713   -3.3650    6.9077 H   0  0  0  0  0  0  0  0  0  0  0  0
   27.1041   -3.4113    5.4587 H   0  0  0  0  0  0  0  0  0  0  0  0
   28.6664   -1.3742    5.8574 H   0  0  0  0  0  0  0  0  0  0  0  0
   26.9082   -1.2259    5.3271 H   0  0  0  0  0  0  0  0  0  0  0  0
   27.9923    0.3294    7.2069 H   0  0  0  0  0  0  0  0  0  0  0  0
   26.2593   -0.2203    7.1952 H   0  0  0  0  0  0  0  0  0  0  0  0
   28.4967   -1.6234    8.6906 H   0  0  0  0  0  0  0  0  0  0  0  0
   27.3678   -0.4088    9.4115 H   0  0  0  0  0  0  0  0  0  0  0  0
   22.2989   -2.0178    7.5363 H   0  0  0  0  0  0  0  0  0  0  0  0
   17.6144    0.2112    3.9826 H   0  0  0  0  0  0  0  0  0  0  0  0
   17.1963   -0.4064    5.6568 H   0  0  0  0  0  0  0  0  0  0  0  0
   15.4596   -0.0855    5.0302 H   0  0  0  0  0  0  0  0  0  0  0  0
  2  1  1  6
  2  3  1  0
  3  4  1  0
  4  5  2  0
  5  6  1  0
  6  7  1  0
  7  8  1  0
  8  9  2  0
  8 10  1  0
 10 11  1  0
 11 12  1  0
 12 13  2  0
 13 14  1  0
 14 15  1  0
 15 16  1  0
 16 17  2  0
 17 18  1  0
 18 19  2  0
 19 20  1  0
 20 21  2  0
 15 22  1  0
 22 23  1  0
 23 24  1  0
 24 25  1  0
 25 26  1  0
 26 27  1  0
 27 28  2  0
 27 29  2  0
 14 30  1  0
  7 31  2  0
 31 32  1  0
 32 33  1  0
 33 34  1  0
 34 35  1  0
 34 36  1  0
 33  2  1  0
 34  2  1  0
 31  4  1  0
 30 11  2  0
 21 16  1  0
 27 22  1  0
  1 37  1  0
  1 38  1  0
  1 39  1  0
  3 40  1  0
  3 41  1  0
  6 42  1  0
 10 43  1  0
 12 44  1  0
 15 45  1  6
 17 46  1  0
 18 47  1  0
 19 48  1  0
 20 49  1  0
 21 50  1  0
 22 51  1  1
 23 52  1  0
 23 53  1  0
 24 54  1  0
 24 55  1  0
 25 56  1  0
 25 57  1  0
 26 58  1  0
 26 59  1  0
 30 60  1  0
 32 61  1  0
 32 62  1  0
 33 63  1  6
M  END
>  <meeko>  (9) 
{"is_sidechain": [false], "free_energy": -8.817, "intermolecular_energy": -13.246, "internal_energy": 0.719}

$$$$
