3fur_ligand
     RDKit          3D

 43 46  0  0  0  0  0  0  0  0999 V2000
    4.0080    3.9130   25.4100 O   0  0  0  0  0  0  0  0  0  0  0  0
    4.8870    4.9400   25.9180 S   0  0  0  0  0  0  0  0  0  0  0  0
    6.2760    5.0410   25.5260 O   0  0  0  0  0  0  0  0  0  0  0  0
    4.2140    6.4350   25.5120 N   0  0  0  0  0  0  0  0  0  0  0  0
    4.9770    7.6400   25.4240 C   0  0  0  0  0  0  0  0  0  0  0  0
    4.4640    8.6580   24.6170 C   0  0  0  0  0  0  0  0  0  0  0  0
    5.1860    9.8390   24.4130 C   0  0  0  0  0  0  0  0  0  0  0  0
    4.4990   11.0420   23.3820 Cl  0  0  0  0  0  0  0  0  0  0  0  0
    6.4370   10.0110   25.0120 C   0  0  0  0  0  0  0  0  0  0  0  0
    7.1800   11.1460   24.7870 O   0  0  0  0  0  0  0  0  0  0  0  0
    6.9270   12.2410   25.5790 C   0  0  0  0  0  0  0  0  0  0  0  0
    6.9570   13.5690   25.1800 C   0  0  0  0  0  0  0  0  0  0  0  0
    6.6940   14.6150   26.0000 N   0  0  0  0  0  0  0  0  0  0  0  0
    6.3710   14.3500   27.2780 C   0  0  0  0  0  0  0  0  0  0  0  0
    6.0930   15.3970   28.1460 C   0  0  0  0  0  0  0  0  0  0  0  0
    5.7500   15.1730   29.4820 C   0  0  0  0  0  0  0  0  0  0  0  0
    5.6780   13.8740   29.9710 C   0  0  0  0  0  0  0  0  0  0  0  0
    5.9510   12.8030   29.1210 C   0  0  0  0  0  0  0  0  0  0  0  0
    6.2980   13.0310   27.7780 C   0  0  0  0  0  0  0  0  0  0  0  0
    6.5790   11.9770   26.9000 C   0  0  0  0  0  0  0  0  0  0  0  0
    6.9790    8.9670   25.7670 C   0  0  0  0  0  0  0  0  0  0  0  0
    8.5540    9.0900   26.4640 Cl  0  0  0  0  0  0  0  0  0  0  0  0
    6.2540    7.7870   25.9700 C   0  0  0  0  0  0  0  0  0  0  0  0
    4.8720    4.8930   27.6910 C   0  0  0  0  0  0  0  0  0  0  0  0
    6.0820    4.8650   28.4040 C   0  0  0  0  0  0  0  0  0  0  0  0
    6.0720    4.8490   29.8000 C   0  0  0  0  0  0  0  0  0  0  0  0
    4.8580    4.8500   30.4820 C   0  0  0  0  0  0  0  0  0  0  0  0
    4.8460    4.8300   32.2020 Cl  0  0  0  0  0  0  0  0  0  0  0  0
    3.6540    4.8610   29.7810 C   0  0  0  0  0  0  0  0  0  0  0  0
    3.6550    4.8770   28.3810 C   0  0  0  0  0  0  0  0  0  0  0  0
    2.1130    4.8370   27.6070 Cl  0  0  0  0  0  0  0  0  0  0  0  0
    3.2520    6.4930   25.8520 H   0  0  0  0  0  0  0  0  0  0  0  0
    3.4826    8.5300   24.1370 H   0  0  0  0  0  0  0  0  0  0  0  0
    7.2102   13.7867   24.1319 H   0  0  0  0  0  0  0  0  0  0  0  0
    6.1441   16.4303   27.7723 H   0  0  0  0  0  0  0  0  0  0  0  0
    5.5372   16.0238   30.1459 H   0  0  0  0  0  0  0  0  0  0  0  0
    5.4074   13.6921   31.0216 H   0  0  0  0  0  0  0  0  0  0  0  0
    5.8945   11.7733   29.5037 H   0  0  0  0  0  0  0  0  0  0  0  0
    6.5245   10.9375   27.2556 H   0  0  0  0  0  0  0  0  0  0  0  0
    6.6925    6.9708   26.5629 H   0  0  0  0  0  0  0  0  0  0  0  0
    7.0389    4.8557   27.8616 H   0  0  0  0  0  0  0  0  0  0  0  0
    7.0193    4.8357   30.3589 H   0  0  0  0  0  0  0  0  0  0  0  0
    2.7002    4.8571   30.3289 H   0  0  0  0  0  0  0  0  0  0  0  0
  1  2  2  0
  2  3  2  0
  2  4  1  0
  4  5  1  0
  5  6  2  0
  6  7  1  0
  7  8  1  0
  7  9  2  0
  9 10  1  0
 10 11  1  0
 11 12  2  0
 12 13  1  0
 13 14  2  0
 14 15  1  0
 15 16  2  0
 16 17  1  0
 17 18  2  0
 18 19  1  0
 19 20  2  0
  9 21  1  0
 21 22  1  0
 21 23  2  0
  2 24  1  0
 24 25  2  0
 25 26  1  0
 26 27  2  0
 27 28  1  0
 27 29  1  0
 29 30  2  0
 30 31  1  0
 23  5  1  0
 30 24  1  0
 20 11  1  0
 19 14  1  0
  4 32  1  0
  6 33  1  0
 12 34  1  0
 15 35  1  0
 16 36  1  0
 17 37  1  0
 18 38  1  0
 20 39  1  0
 23 40  1  0
 25 41  1  0
 26 42  1  0
 29 43  1  0
M  END
>  <meeko>  (1) 
{"is_sidechain": [false], "free_energy": -11.381, "intermolecular_energy": -14.708, "internal_energy": -0.119}

$$$$
3fur_ligand
     RDKit          3D

 43 46  0  0  0  0  0  0  0  0999 V2000
    4.0280    3.8900   25.3990 O   0  0  0  0  0  0  0  0  0  0  0  0
    4.8790    4.9410   25.9060 S   0  0  0  0  0  0  0  0  0  0  0  0
    6.2610    5.0850   25.5050 O   0  0  0  0  0  0  0  0  0  0  0  0
    4.1590    6.4170   25.5110 N   0  0  0  0  0  0  0  0  0  0  0  0
    4.9040    7.6080   25.2520 C   0  0  0  0  0  0  0  0  0  0  0  0
    6.1390    7.7350   25.8940 C   0  0  0  0  0  0  0  0  0  0  0  0
    6.8970    8.9030   25.7570 C   0  0  0  0  0  0  0  0  0  0  0  0
    8.4000    8.9970   26.6000 Cl  0  0  0  0  0  0  0  0  0  0  0  0
    6.4220    9.9630   24.9790 C   0  0  0  0  0  0  0  0  0  0  0  0
    7.1320   11.1340   24.8690 O   0  0  0  0  0  0  0  0  0  0  0  0
    6.8850   12.1200   25.7950 C   0  0  0  0  0  0  0  0  0  0  0  0
    6.7970   13.4810   25.5450 C   0  0  0  0  0  0  0  0  0  0  0  0
    6.5460   14.4140   26.4940 N   0  0  0  0  0  0  0  0  0  0  0  0
    6.3550   13.9940   27.7570 C   0  0  0  0  0  0  0  0  0  0  0  0
    6.0930   14.9220   28.7560 C   0  0  0  0  0  0  0  0  0  0  0  0
    5.8850   14.5350   30.0830 C   0  0  0  0  0  0  0  0  0  0  0  0
    5.9360   13.1900   30.4290 C   0  0  0  0  0  0  0  0  0  0  0  0
    6.1970   12.2360   29.4460 C   0  0  0  0  0  0  0  0  0  0  0  0
    6.4080   12.6280   28.1130 C   0  0  0  0  0  0  0  0  0  0  0  0
    6.6730   11.6940   27.1030 C   0  0  0  0  0  0  0  0  0  0  0  0
    5.1590    9.8610   24.3900 C   0  0  0  0  0  0  0  0  0  0  0  0
    4.4850   11.1680   23.4840 Cl  0  0  0  0  0  0  0  0  0  0  0  0
    4.4020    8.6910   24.5280 C   0  0  0  0  0  0  0  0  0  0  0  0
    4.8780    4.8860   27.6790 C   0  0  0  0  0  0  0  0  0  0  0  0
    6.0940    4.8640   28.3820 C   0  0  0  0  0  0  0  0  0  0  0  0
    6.0940    4.8420   29.7780 C   0  0  0  0  0  0  0  0  0  0  0  0
    4.8850    4.8310   30.4700 C   0  0  0  0  0  0  0  0  0  0  0  0
    4.8870    4.8030   32.1890 Cl  0  0  0  0  0  0  0  0  0  0  0  0
    3.6760    4.8350   29.7780 C   0  0  0  0  0  0  0  0  0  0  0  0
    3.6670    4.8580   28.3780 C   0  0  0  0  0  0  0  0  0  0  0  0
    2.1190    4.8080   27.6160 Cl  0  0  0  0  0  0  0  0  0  0  0  0
    3.2520    6.5020   25.9750 H   0  0  0  0  0  0  0  0  0  0  0  0
    6.5187    6.9087   26.5129 H   0  0  0  0  0  0  0  0  0  0  0  0
    6.9402   13.8248   24.5100 H   0  0  0  0  0  0  0  0  0  0  0  0
    6.0479   15.9900   28.4963 H   0  0  0  0  0  0  0  0  0  0  0  0
    5.6812   15.2942   30.8525 H   0  0  0  0  0  0  0  0  0  0  0  0
    5.7716   12.8800   31.4715 H   0  0  0  0  0  0  0  0  0  0  0  0
    6.2380   11.1703   29.7155 H   0  0  0  0  0  0  0  0  0  0  0  0
    6.7136   10.6215   27.3442 H   0  0  0  0  0  0  0  0  0  0  0  0
    3.4070    8.6249   24.0637 H   0  0  0  0  0  0  0  0  0  0  0  0
    7.0468    4.8641   27.8323 H   0  0  0  0  0  0  0  0  0  0  0  0
    7.0456    4.8334   30.3297 H   0  0  0  0  0  0  0  0  0  0  0  0
    2.7262    4.8201   30.3327 H   0  0  0  0  0  0  0  0  0  0  0  0
  1  2  2  0
  2  3  2  0
  2  4  1  0
  4  5  1  0
  5  6  2  0
  6  7  1  0
  7  8  1  0
  7  9  2  0
  9 10  1  0
 10 11  1  0
 11 12  2  0
 12 13  1  0
 13 14  2  0
 14 15  1  0
 15 16  2  0
 16 17  1  0
 17 18  2  0
 18 19  1  0
 19 20  2  0
  9 21  1  0
 21 22  1  0
 21 23  2  0
  2 24  1  0
 24 25  2  0
 25 26  1  0
 26 27  2  0
 27 28  1  0
 27 29  1  0
 29 30  2  0
 30 31  1  0
 23  5  1  0
 30 24  1  0
 20 11  1  0
 19 14  1  0
  4 32  1  0
  6 33  1  0
 12 34  1  0
 15 35  1  0
 16 36  1  0
 17 37  1  0
 18 38  1  0
 20 39  1  0
 23 40  1  0
 25 41  1  0
 26 42  1  0
 29 43  1  0
M  END
>  <meeko>  (2) 
{"is_sidechain": [false], "free_energy": -11.04, "intermolecular_energy": -14.652, "internal_energy": 0.266}

$$$$
3fur_ligand
     RDKit          3D

 43 46  0  0  0  0  0  0  0  0999 V2000
    7.7590   10.5190   24.3960 O   0  0  0  0  0  0  0  0  0  0  0  0
    6.7110   11.4370   24.7790 S   0  0  0  0  0  0  0  0  0  0  0  0
    6.6610   12.8030   24.3050 O   0  0  0  0  0  0  0  0  0  0  0  0
    5.2390   10.7600   24.3010 N   0  0  0  0  0  0  0  0  0  0  0  0
    4.8710    9.4080   24.5810 C   0  0  0  0  0  0  0  0  0  0  0  0
    3.5230    9.1610   24.8540 C   0  0  0  0  0  0  0  0  0  0  0  0
    3.0920    7.8800   25.2160 C   0  0  0  0  0  0  0  0  0  0  0  0
    1.4150    7.6580   25.5630 Cl  0  0  0  0  0  0  0  0  0  0  0  0
    4.0090    6.8310   25.3150 C   0  0  0  0  0  0  0  0  0  0  0  0
    3.6100    5.5760   25.7110 O   0  0  0  0  0  0  0  0  0  0  0  0
    3.6350    5.2950   27.0570 C   0  0  0  0  0  0  0  0  0  0  0  0
    2.5330    5.1060   27.8770 C   0  0  0  0  0  0  0  0  0  0  0  0
    2.6090    4.8240   29.2010 N   0  0  0  0  0  0  0  0  0  0  0  0
    3.8310    4.7040   29.7500 C   0  0  0  0  0  0  0  0  0  0  0  0
    3.9480    4.4140   31.1030 C   0  0  0  0  0  0  0  0  0  0  0  0
    5.1940    4.2770   31.7200 C   0  0  0  0  0  0  0  0  0  0  0  0
    6.3570    4.4320   30.9750 C   0  0  0  0  0  0  0  0  0  0  0  0
    6.2700    4.7230   29.6150 C   0  0  0  0  0  0  0  0  0  0  0  0
    5.0150    4.8620   28.9970 C   0  0  0  0  0  0  0  0  0  0  0  0
    4.8940    5.1560   27.6330 C   0  0  0  0  0  0  0  0  0  0  0  0
    5.3660    7.0910   25.1050 C   0  0  0  0  0  0  0  0  0  0  0  0
    6.5560    5.8540   25.2920 Cl  0  0  0  0  0  0  0  0  0  0  0  0
    5.7960    8.3740   24.7430 C   0  0  0  0  0  0  0  0  0  0  0  0
    6.6290   11.5200   26.5480 C   0  0  0  0  0  0  0  0  0  0  0  0
    5.7900   12.4600   27.1690 C   0  0  0  0  0  0  0  0  0  0  0  0
    5.7080   12.5120   28.5620 C   0  0  0  0  0  0  0  0  0  0  0  0
    6.4680   11.6360   29.3330 C   0  0  0  0  0  0  0  0  0  0  0  0
    6.3670   11.7010   31.0480 Cl  0  0  0  0  0  0  0  0  0  0  0  0
    7.3150   10.7130   28.7230 C   0  0  0  0  0  0  0  0  0  0  0  0
    7.4030   10.6540   27.3270 C   0  0  0  0  0  0  0  0  0  0  0  0
    8.5190    9.5120   26.6720 Cl  0  0  0  0  0  0  0  0  0  0  0  0
    4.9280   11.1760   23.4210 H   0  0  0  0  0  0  0  0  0  0  0  0
    2.7937    9.9815   24.7836 H   0  0  0  0  0  0  0  0  0  0  0  0
    1.5338    5.1902   27.4247 H   0  0  0  0  0  0  0  0  0  0  0  0
    3.0357    4.2889   31.7048 H   0  0  0  0  0  0  0  0  0  0  0  0
    5.2545    4.0468   32.7939 H   0  0  0  0  0  0  0  0  0  0  0  0
    7.3405    4.3256   31.4561 H   0  0  0  0  0  0  0  0  0  0  0  0
    7.1883    4.8446   29.0218 H   0  0  0  0  0  0  0  0  0  0  0  0
    5.7963    5.2773   27.0157 H   0  0  0  0  0  0  0  0  0  0  0  0
    6.8672    8.5682   24.5856 H   0  0  0  0  0  0  0  0  0  0  0  0
    5.1970   13.1558   26.5573 H   0  0  0  0  0  0  0  0  0  0  0  0
    5.0452   13.2426   29.0488 H   0  0  0  0  0  0  0  0  0  0  0  0
    7.9161   10.0289   29.3399 H   0  0  0  0  0  0  0  0  0  0  0  0
  1  2  2  0
  2  3  2  0
  2  4  1  0
  4  5  1  0
  5  6  2  0
  6  7  1  0
  7  8  1  0
  7  9  2  0
  9 10  1  0
 10 11  1  0
 11 12  2  0
 12 13  1  0
 13 14  2  0
 14 15  1  0
 15 16  2  0
 16 17  1  0
 17 18  2  0
 18 19  1  0
 19 20  2  0
  9 21  1  0
 21 22  1  0
 21 23  2  0
  2 24  1  0
 24 25  2  0
 25 26  1  0
 26 27  2  0
 27 28  1  0
 27 29  1  0
 29 30  2  0
 30 31  1  0
 23  5  1  0
 30 24  1  0
 20 11  1  0
 19 14  1  0
  4 32  1  0
  6 33  1  0
 12 34  1  0
 15 35  1  0
 16 36  1  0
 17 37  1  0
 18 38  1  0
 20 39  1  0
 23 40  1  0
 25 41  1  0
 26 42  1  0
 29 43  1  0
M  END
>  <meeko>  (3) 
{"is_sidechain": [false], "free_energy": -8.826, "intermolecular_energy": -11.786, "internal_energy": 0.261}

$$$$
3fur_ligand
     RDKit          3D

 43 46  0  0  0  0  0  0  0  0999 V2000
    7.8310   10.5630   24.3590 O   0  0  0  0  0  0  0  0  0  0  0  0
    6.7540   11.4650   24.6920 S   0  0  0  0  0  0  0  0  0  0  0  0
    6.6990   12.8260   24.2040 O   0  0  0  0  0  0  0  0  0  0  0  0
    5.3140   10.7580   24.1620 N   0  0  0  0  0  0  0  0  0  0  0  0
    4.8350    9.5010   24.6450 C   0  0  0  0  0  0  0  0  0  0  0  0
    5.7660    8.4640   24.7440 C   0  0  0  0  0  0  0  0  0  0  0  0
    5.3660    7.1810   25.1330 C   0  0  0  0  0  0  0  0  0  0  0  0
    6.5680    5.9440   25.2080 Cl  0  0  0  0  0  0  0  0  0  0  0  0
    4.0230    6.9200   25.4200 C   0  0  0  0  0  0  0  0  0  0  0  0
    3.6040    5.6550   25.7600 O   0  0  0  0  0  0  0  0  0  0  0  0
    3.6120    5.3180   27.0930 C   0  0  0  0  0  0  0  0  0  0  0  0
    2.5060    5.0040   27.8680 C   0  0  0  0  0  0  0  0  0  0  0  0
    2.5660    4.6700   29.1800 N   0  0  0  0  0  0  0  0  0  0  0  0
    3.7760    4.6270   29.7650 C   0  0  0  0  0  0  0  0  0  0  0  0
    3.8770    4.2880   31.1070 C   0  0  0  0  0  0  0  0  0  0  0  0
    5.1110    4.2270   31.7600 C   0  0  0  0  0  0  0  0  0  0  0  0
    6.2790    4.5090   31.0610 C   0  0  0  0  0  0  0  0  0  0  0  0
    6.2080    4.8520   29.7120 C   0  0  0  0  0  0  0  0  0  0  0  0
    4.9650    4.9150   29.0590 C   0  0  0  0  0  0  0  0  0  0  0  0
    4.8600    5.2570   27.7040 C   0  0  0  0  0  0  0  0  0  0  0  0
    3.0820    7.9400   25.2590 C   0  0  0  0  0  0  0  0  0  0  0  0
    1.3990    7.6570   25.5220 Cl  0  0  0  0  0  0  0  0  0  0  0  0
    3.4850    9.2240   24.8710 C   0  0  0  0  0  0  0  0  0  0  0  0
    6.6000   11.5610   26.4560 C   0  0  0  0  0  0  0  0  0  0  0  0
    5.7130   12.4840   27.0350 C   0  0  0  0  0  0  0  0  0  0  0  0
    5.5750   12.5460   28.4230 C   0  0  0  0  0  0  0  0  0  0  0  0
    6.3270   11.6970   29.2310 C   0  0  0  0  0  0  0  0  0  0  0  0
    6.1570   11.7750   30.9400 Cl  0  0  0  0  0  0  0  0  0  0  0  0
    7.2210   10.7910   28.6640 C   0  0  0  0  0  0  0  0  0  0  0  0
    7.3650   10.7220   27.2730 C   0  0  0  0  0  0  0  0  0  0  0  0
    8.5350    9.6040   26.6730 Cl  0  0  0  0  0  0  0  0  0  0  0  0
    5.1390   11.0020   23.1860 H   0  0  0  0  0  0  0  0  0  0  0  0
    6.8240    8.6582   24.5138 H   0  0  0  0  0  0  0  0  0  0  0  0
    1.5169    5.0275   27.3873 H   0  0  0  0  0  0  0  0  0  0  0  0
    2.9609    4.0612   31.6720 H   0  0  0  0  0  0  0  0  0  0  0  0
    5.1580    3.9563   32.8251 H   0  0  0  0  0  0  0  0  0  0  0  0
    7.2533    4.4617   31.5694 H   0  0  0  0  0  0  0  0  0  0  0  0
    7.1301    5.0747   29.1551 H   0  0  0  0  0  0  0  0  0  0  0  0
    5.7670    5.4778   27.1221 H   0  0  0  0  0  0  0  0  0  0  0  0
    2.7345   10.0181   24.7437 H   0  0  0  0  0  0  0  0  0  0  0  0
    5.1265   13.1587   26.3940 H   0  0  0  0  0  0  0  0  0  0  0  0
    4.8748   13.2629   28.8766 H   0  0  0  0  0  0  0  0  0  0  0  0
    7.8150   10.1285   29.3107 H   0  0  0  0  0  0  0  0  0  0  0  0
  1  2  2  0
  2  3  2  0
  2  4  1  0
  4  5  1  0
  5  6  2  0
  6  7  1  0
  7  8  1  0
  7  9  2  0
  9 10  1  0
 10 11  1  0
 11 12  2  0
 12 13  1  0
 13 14  2  0
 14 15  1  0
 15 16  2  0
 16 17  1  0
 17 18  2  0
 18 19  1  0
 19 20  2  0
  9 21  1  0
 21 22  1  0
 21 23  2  0
  2 24  1  0
 24 25  2  0
 25 26  1  0
 26 27  2  0
 27 28  1  0
 27 29  1  0
 29 30  2  0
 30 31  1  0
 23  5  1  0
 30 24  1  0
 20 11  1  0
 19 14  1  0
  4 32  1  0
  6 33  1  0
 12 34  1  0
 15 35  1  0
 16 36  1  0
 17 37  1  0
 18 38  1  0
 20 39  1  0
 23 40  1  0
 25 41  1  0
 26 42  1  0
 29 43  1  0
M  END
>  <meeko>  (4) 
{"is_sidechain": [false], "free_energy": -8.654, "intermolecular_energy": -11.3, "internal_energy": -0.003}

$$$$
