3utu_ligand
     RDKit          3D

 82 85  0  0  0  0  0  0  0  0999 V2000
   24.0640  -13.2820   24.1580 C   0  0  0  0  0  0  0  0  0  0  0  0
   22.9720  -13.1220   25.0530 O   0  0  0  0  0  0  0  0  0  0  0  0
   21.9820  -14.0680   25.0350 C   0  0  0  0  0  0  0  0  0  0  0  0
   21.9860  -15.2040   24.2150 C   0  0  0  0  0  0  0  0  0  0  0  0
   20.9310  -16.1220   24.2680 C   0  0  0  0  0  0  0  0  0  0  0  0
   19.8700  -15.9030   25.1490 C   0  0  0  0  0  0  0  0  0  0  0  0
   18.5400  -17.0710   25.2640 S   0  0  0  0  0  0  0  0  0  0  0  0
   18.2150  -17.2770   26.6590 O   0  0  0  0  0  0  0  0  0  0  0  0
   18.8550  -18.1730   24.3880 O   0  0  0  0  0  0  0  0  0  0  0  0
   17.2690  -16.2240   24.5410 N   0  0  0  0  0  0  0  0  0  0  0  0
   17.4340  -15.8590   23.1050 C   0  0  1  0  0  0  0  0  0  0  0  0
   16.1870  -16.2590   22.3110 C   0  0  0  0  0  0  0  0  0  0  0  0
   15.9710  -17.7550   22.3810 C   0  0  0  0  0  0  0  0  0  0  0  0
   16.6690  -18.5570   21.7700 O   0  0  0  0  0  0  0  0  0  0  0  0
   14.9340  -18.1260   23.2060 N   0  0  0  0  0  0  0  0  0  0  0  0
   14.6810  -19.5180   23.5130 C   0  0  0  0  0  0  0  0  0  0  0  0
   14.6620  -19.7470   25.0030 C   0  0  0  0  0  0  0  0  0  0  0  0
   15.8350  -19.6210   25.7620 C   0  0  0  0  0  0  0  0  0  0  0  0
   15.8160  -19.8610   27.1390 C   0  0  0  0  0  0  0  0  0  0  0  0
   14.6260  -20.2350   27.7720 C   0  0  0  0  0  0  0  0  0  0  0  0
   14.6100  -20.4860   29.1830 C   0  0  0  0  0  0  0  0  0  0  0  0
   14.6040  -20.6970   30.3240 N   0  0  0  0  0  0  0  0  0  0  0  0
   13.4550  -20.3690   27.0210 C   0  0  0  0  0  0  0  0  0  0  0  0
   13.4750  -20.1280   25.6450 C   0  0  0  0  0  0  0  0  0  0  0  0
   17.7550  -14.3800   22.8630 C   0  0  0  0  0  0  0  0  0  0  0  0
   17.3780  -13.5400   23.6890 O   0  0  0  0  0  0  0  0  0  0  0  0
   18.4810  -14.0010   21.7520 N   0  0  0  0  0  0  0  0  0  0  0  0
   19.6540  -14.6550   21.1880 C   0  0  0  0  0  0  0  0  0  0  0  0
   20.4790  -13.5090   20.6320 C   0  0  0  0  0  0  0  0  0  0  0  0
   19.4210  -12.5430   20.1280 C   0  0  0  0  0  0  0  0  0  0  0  0
   18.2780  -12.6770   21.1420 C   0  0  1  0  0  0  0  0  0  0  0  0
   16.9460  -12.4790   20.3920 C   0  0  0  0  0  0  0  0  0  0  0  0
   16.3440  -13.4350   19.9030 O   0  0  0  0  0  0  0  0  0  0  0  0
   16.4110  -11.2110   20.4470 N   0  0  0  0  0  0  0  0  0  0  0  0
   15.1530  -10.8850   19.8240 C   0  0  0  0  0  0  0  0  0  0  0  0
   14.0220  -10.8670   20.8250 C   0  0  0  0  0  0  0  0  0  0  0  0
   13.6380   -9.6610   21.4260 C   0  0  0  0  0  0  0  0  0  0  0  0
   12.6310   -9.6360   22.3910 C   0  0  0  0  0  0  0  0  0  0  0  0
   11.9870  -10.8200   22.7730 C   0  0  0  0  0  0  0  0  0  0  0  0
   10.9490  -10.7920   23.8080 C   0  0  0  0  0  0  0  0  0  0  0  0
   10.3310  -11.9080   24.1290 N   0  0  0  0  0  0  0  0  0  0  0  0
   10.6610   -9.6500   24.3910 N   0  0  0  0  0  0  0  0  0  0  0  0
   12.3650  -12.0280   22.1670 C   0  0  0  0  0  0  0  0  0  0  0  0
   13.3780  -12.0500   21.2050 C   0  0  0  0  0  0  0  0  0  0  0  0
   19.8350  -14.7630   25.9550 C   0  0  0  0  0  0  0  0  0  0  0  0
   20.8940  -13.8570   25.9010 C   0  0  0  0  0  0  0  0  0  0  0  0
   20.8240  -12.4800   26.9440 Cl  0  0  0  0  0  0  0  0  0  0  0  0
   24.9921  -13.4180   24.7326 H   0  0  0  0  0  0  0  0  0  0  0  0
   23.8924  -14.1646   23.5243 H   0  0  0  0  0  0  0  0  0  0  0  0
   24.1528  -12.3873   23.5243 H   0  0  0  0  0  0  0  0  0  0  0  0
   22.8247  -15.3757   23.5243 H   0  0  0  0  0  0  0  0  0  0  0  0
   20.9375  -17.0106   23.6196 H   0  0  0  0  0  0  0  0  0  0  0  0
   16.3840  -16.6920   24.7530 H   0  0  0  0  0  0  0  0  0  0  0  0
   18.3113  -16.4218   22.7532 H   0  0  0  0  0  0  0  0  0  0  0  0
   15.3097  -15.7465   22.7326 H   0  0  0  0  0  0  0  0  0  0  0  0
   16.3269  -15.9687   21.2592 H   0  0  0  0  0  0  0  0  0  0  0  0
   14.5070  -17.4350   23.8080 H   0  0  0  0  0  0  0  0  0  0  0  0
   13.7071  -19.8081   23.0919 H   0  0  0  0  0  0  0  0  0  0  0  0
   15.4864  -20.1258   23.0749 H   0  0  0  0  0  0  0  0  0  0  0  0
   16.7756  -19.3315   25.2705 H   0  0  0  0  0  0  0  0  0  0  0  0
   16.7398  -19.7554   27.7267 H   0  0  0  0  0  0  0  0  0  0  0  0
   12.5169  -20.6644   27.5137 H   0  0  0  0  0  0  0  0  0  0  0  0
   12.5504  -20.2382   25.0594 H   0  0  0  0  0  0  0  0  0  0  0  0
   20.2116  -15.1973   21.9658 H   0  0  0  0  0  0  0  0  0  0  0  0
   19.3963  -15.4023   20.4231 H   0  0  0  0  0  0  0  0  0  0  0  0
   21.0948  -13.0469   21.4177 H   0  0  0  0  0  0  0  0  0  0  0  0
   21.1881  -13.8226   19.8517 H   0  0  0  0  0  0  0  0  0  0  0  0
   19.8087  -11.5137   20.1105 H   0  0  0  0  0  0  0  0  0  0  0  0
   19.1011  -12.7665   19.0995 H   0  0  0  0  0  0  0  0  0  0  0  0
   18.2572  -11.9269   21.9463 H   0  0  0  0  0  0  0  0  0  0  0  0
   17.0380  -10.4390   20.6650 H   0  0  0  0  0  0  0  0  0  0  0  0
   15.2327   -9.8917   19.3582 H   0  0  0  0  0  0  0  0  0  0  0  0
   14.9328  -11.6566   19.0716 H   0  0  0  0  0  0  0  0  0  0  0  0
   14.1356   -8.7245   21.1339 H   0  0  0  0  0  0  0  0  0  0  0  0
   12.3410   -8.6815   22.8545 H   0  0  0  0  0  0  0  0  0  0  0  0
   10.5570  -12.7650   23.6330 H   0  0  0  0  0  0  0  0  0  0  0  0
    9.6030  -11.9470   24.8270 H   0  0  0  0  0  0  0  0  0  0  0  0
   11.1760   -8.8130   24.1280 H   0  0  0  0  0  0  0  0  0  0  0  0
    9.9560   -9.5610   25.1080 H   0  0  0  0  0  0  0  0  0  0  0  0
   11.8606  -12.9633   22.4511 H   0  0  0  0  0  0  0  0  0  0  0  0
   13.6715  -13.0041   20.7429 H   0  0  0  0  0  0  0  0  0  0  0  0
   18.9816  -14.5817   26.6250 H   0  0  0  0  0  0  0  0  0  0  0  0
  1  2  1  0
  2  3  1  0
  3  4  2  0
  4  5  1  0
  5  6  2  0
  6  7  1  0
  7  8  2  0
  7  9  2  0
  7 10  1  0
 10 11  1  0
 11 12  1  0
 12 13  1  0
 13 14  2  0
 13 15  1  0
 15 16  1  0
 16 17  1  0
 17 18  2  0
 18 19  1  0
 19 20  2  0
 20 21  1  0
 21 22  3  0
 20 23  1  0
 23 24  2  0
 11 25  1  0
 25 26  2  0
 25 27  1  0
 27 28  1  0
 28 29  1  0
 29 30  1  0
 30 31  1  0
 31 32  1  0
 32 33  2  0
 32 34  1  0
 34 35  1  0
 35 36  1  0
 36 37  2  0
 37 38  1  0
 38 39  2  0
 39 40  1  0
 40 41  1  0
 40 42  2  0
 39 43  1  0
 43 44  2  0
  6 45  1  0
 45 46  2  0
 46 47  1  0
 46  3  1  0
 24 17  1  0
 31 27  1  0
 44 36  1  0
  1 48  1  0
  1 49  1  0
  1 50  1  0
  4 51  1  0
  5 52  1  0
 10 53  1  0
 11 54  1  6
 12 55  1  0
 12 56  1  0
 15 57  1  0
 16 58  1  0
 16 59  1  0
 18 60  1  0
 19 61  1  0
 23 62  1  0
 24 63  1  0
 28 64  1  0
 28 65  1  0
 29 66  1  0
 29 67  1  0
 30 68  1  0
 30 69  1  0
 31 70  1  1
 34 71  1  0
 35 72  1  0
 35 73  1  0
 37 74  1  0
 38 75  1  0
 41 76  1  0
 41 77  1  0
 42 78  1  0
 42 79  1  0
 43 80  1  0
 44 81  1  0
 45 82  1  0
M  CHG  1  42   1
M  END
>  <meeko>  (1) 
{"is_sidechain": [false], "free_energy": -9.958, "intermolecular_energy": -18.107, "internal_energy": -3.04}

$$$$
3utu_ligand
     RDKit          3D

 82 85  0  0  0  0  0  0  0  0999 V2000
   24.0880  -13.2130   24.1410 C   0  0  0  0  0  0  0  0  0  0  0  0
   22.8800  -13.3920   24.8680 O   0  0  0  0  0  0  0  0  0  0  0  0
   21.7030  -13.3950   24.1680 C   0  0  0  0  0  0  0  0  0  0  0  0
   21.6080  -13.5220   22.7750 C   0  0  0  0  0  0  0  0  0  0  0  0
   20.3590  -13.5200   22.1450 C   0  0  0  0  0  0  0  0  0  0  0  0
   19.2000  -13.3940   22.9120 C   0  0  0  0  0  0  0  0  0  0  0  0
   17.6020  -13.4280   22.1420 S   0  0  0  0  0  0  0  0  0  0  0  0
   17.3610  -12.1510   21.5050 O   0  0  0  0  0  0  0  0  0  0  0  0
   16.6740  -13.9870   23.0950 O   0  0  0  0  0  0  0  0  0  0  0  0
   17.8210  -14.5910   20.9360 N   0  0  0  0  0  0  0  0  0  0  0  0
   16.6670  -15.4920   20.6530 C   0  0  1  0  0  0  0  0  0  0  0  0
   16.1680  -15.2770   19.2210 C   0  0  0  0  0  0  0  0  0  0  0  0
   16.0400  -13.7990   18.9200 C   0  0  0  0  0  0  0  0  0  0  0  0
   16.7790  -13.2140   18.1350 O   0  0  0  0  0  0  0  0  0  0  0  0
   15.0100  -13.1860   19.5940 N   0  0  0  0  0  0  0  0  0  0  0  0
   14.6430  -11.8130   19.3150 C   0  0  0  0  0  0  0  0  0  0  0  0
   13.8050  -11.2410   20.4300 C   0  0  0  0  0  0  0  0  0  0  0  0
   13.9080   -9.8880   20.7830 C   0  0  0  0  0  0  0  0  0  0  0  0
   13.1480   -9.3710   21.8360 C   0  0  0  0  0  0  0  0  0  0  0  0
   12.2810  -10.2030   22.5530 C   0  0  0  0  0  0  0  0  0  0  0  0
   11.5060   -9.6710   23.6360 C   0  0  0  0  0  0  0  0  0  0  0  0
   10.8890   -9.2390   24.5180 N   0  0  0  0  0  0  0  0  0  0  0  0
   12.1780  -11.5530   22.2120 C   0  0  0  0  0  0  0  0  0  0  0  0
   12.9380  -12.0690   21.1590 C   0  0  0  0  0  0  0  0  0  0  0  0
   16.9550  -16.9790   20.8870 C   0  0  0  0  0  0  0  0  0  0  0  0
   18.1130  -17.3950   20.7580 O   0  0  0  0  0  0  0  0  0  0  0  0
   15.9380  -17.8300   21.2660 N   0  0  0  0  0  0  0  0  0  0  0  0
   15.3410  -18.9100   20.4910 C   0  0  0  0  0  0  0  0  0  0  0  0
   13.8880  -18.9160   20.9300 C   0  0  0  0  0  0  0  0  0  0  0  0
   13.9770  -18.5510   22.4010 C   0  0  0  0  0  0  0  0  0  0  0  0
   15.1370  -17.5480   22.4690 C   0  0  1  0  0  0  0  0  0  0  0  0
   15.8580  -17.7400   23.8170 C   0  0  0  0  0  0  0  0  0  0  0  0
   15.8880  -18.8390   24.3720 O   0  0  0  0  0  0  0  0  0  0  0  0
   16.5840  -16.6590   24.2660 N   0  0  0  0  0  0  0  0  0  0  0  0
   17.3410  -16.7030   25.4920 C   0  0  0  0  0  0  0  0  0  0  0  0
   18.8270  -16.7800   25.2300 C   0  0  0  0  0  0  0  0  0  0  0  0
   19.7330  -16.6540   26.2910 C   0  0  0  0  0  0  0  0  0  0  0  0
   21.1080  -16.6700   26.0590 C   0  0  0  0  0  0  0  0  0  0  0  0
   21.6040  -16.8130   24.7560 C   0  0  0  0  0  0  0  0  0  0  0  0
   23.0500  -16.8010   24.5150 C   0  0  0  0  0  0  0  0  0  0  0  0
   23.8610  -16.4470   25.4870 N   0  0  0  0  0  0  0  0  0  0  0  0
   23.5000  -17.1460   23.3290 N   0  0  0  0  0  0  0  0  0  0  0  0
   20.6980  -16.9460   23.6920 C   0  0  0  0  0  0  0  0  0  0  0  0
   19.3210  -16.9240   23.9290 C   0  0  0  0  0  0  0  0  0  0  0  0
   19.2750  -13.2390   24.2980 C   0  0  0  0  0  0  0  0  0  0  0  0
   20.5230  -13.2490   24.9200 C   0  0  0  0  0  0  0  0  0  0  0  0
   20.5630  -13.0910   26.6400 Cl  0  0  0  0  0  0  0  0  0  0  0  0
   24.9244  -13.0891   24.8446 H   0  0  0  0  0  0  0  0  0  0  0  0
   24.2689  -14.0941   23.5079 H   0  0  0  0  0  0  0  0  0  0  0  0
   24.0056  -12.3173   23.5079 H   0  0  0  0  0  0  0  0  0  0  0  0
   22.5228  -13.6240   22.1727 H   0  0  0  0  0  0  0  0  0  0  0  0
   20.2908  -13.6172   21.0514 H   0  0  0  0  0  0  0  0  0  0  0  0
   18.2180  -14.1490   20.1030 H   0  0  0  0  0  0  0  0  0  0  0  0
   15.8880  -15.2156   21.3787 H   0  0  0  0  0  0  0  0  0  0  0  0
   16.8822  -15.7292   18.5171 H   0  0  0  0  0  0  0  0  0  0  0  0
   15.1799  -15.7485   19.1142 H   0  0  0  0  0  0  0  0  0  0  0  0
   14.3360  -13.7510   20.0940 H   0  0  0  0  0  0  0  0  0  0  0  0
   15.5573  -11.2110   19.2069 H   0  0  0  0  0  0  0  0  0  0  0  0
   14.0542  -11.7893   18.3862 H   0  0  0  0  0  0  0  0  0  0  0  0
   14.5915   -9.2290   20.2275 H   0  0  0  0  0  0  0  0  0  0  0  0
   13.2317   -8.3069   22.1018 H   0  0  0  0  0  0  0  0  0  0  0  0
   11.4979  -12.2110   22.7728 H   0  0  0  0  0  0  0  0  0  0  0  0
   12.8558  -13.1347   20.8991 H   0  0  0  0  0  0  0  0  0  0  0  0
   15.4230  -18.7092   19.4126 H   0  0  0  0  0  0  0  0  0  0  0  0
   15.8383  -19.8768   20.6585 H   0  0  0  0  0  0  0  0  0  0  0  0
   13.3028  -18.1703   20.3719 H   0  0  0  0  0  0  0  0  0  0  0  0
   13.3838  -19.8770   20.7505 H   0  0  0  0  0  0  0  0  0  0  0  0
   13.0404  -18.0886   22.7458 H   0  0  0  0  0  0  0  0  0  0  0  0
   14.1395  -19.4283   23.0443 H   0  0  0  0  0  0  0  0  0  0  0  0
   14.8560  -16.4846   22.4540 H   0  0  0  0  0  0  0  0  0  0  0  0
   16.3500  -15.7410   23.8960 H   0  0  0  0  0  0  0  0  0  0  0  0
   17.1286  -15.7945   26.0747 H   0  0  0  0  0  0  0  0  0  0  0  0
   17.0437  -17.6057   26.0458 H   0  0  0  0  0  0  0  0  0  0  0  0
   19.3558  -16.5412   27.3181 H   0  0  0  0  0  0  0  0  0  0  0  0
   21.8067  -16.5699   26.9027 H   0  0  0  0  0  0  0  0  0  0  0  0
   23.4730  -16.1550   26.3800 H   0  0  0  0  0  0  0  0  0  0  0  0
   24.8640  -16.4120   25.3750 H   0  0  0  0  0  0  0  0  0  0  0  0
   22.8410  -17.4330   22.6100 H   0  0  0  0  0  0  0  0  0  0  0  0
   24.4820  -17.1570   23.0960 H   0  0  0  0  0  0  0  0  0  0  0  0
   21.0742  -17.0683   22.6656 H   0  0  0  0  0  0  0  0  0  0  0  0
   18.6204  -17.0206   23.0865 H   0  0  0  0  0  0  0  0  0  0  0  0
   18.3588  -13.1103   24.8930 H   0  0  0  0  0  0  0  0  0  0  0  0
  1  2  1  0
  2  3  1  0
  3  4  2  0
  4  5  1  0
  5  6  2  0
  6  7  1  0
  7  8  2  0
  7  9  2  0
  7 10  1  0
 10 11  1  0
 11 12  1  0
 12 13  1  0
 13 14  2  0
 13 15  1  0
 15 16  1  0
 16 17  1  0
 17 18  2  0
 18 19  1  0
 19 20  2  0
 20 21  1  0
 21 22  3  0
 20 23  1  0
 23 24  2  0
 11 25  1  0
 25 26  2  0
 25 27  1  0
 27 28  1  0
 28 29  1  0
 29 30  1  0
 30 31  1  0
 31 32  1  0
 32 33  2  0
 32 34  1  0
 34 35  1  0
 35 36  1  0
 36 37  2  0
 37 38  1  0
 38 39  2  0
 39 40  1  0
 40 41  1  0
 40 42  2  0
 39 43  1  0
 43 44  2  0
  6 45  1  0
 45 46  2  0
 46 47  1  0
 46  3  1  0
 24 17  1  0
 31 27  1  0
 44 36  1  0
  1 48  1  0
  1 49  1  0
  1 50  1  0
  4 51  1  0
  5 52  1  0
 10 53  1  0
 11 54  1  1
 12 55  1  0
 12 56  1  0
 15 57  1  0
 16 58  1  0
 16 59  1  0
 18 60  1  0
 19 61  1  0
 23 62  1  0
 24 63  1  0
 28 64  1  0
 28 65  1  0
 29 66  1  0
 29 67  1  0
 30 68  1  0
 30 69  1  0
 31 70  1  6
 34 71  1  0
 35 72  1  0
 35 73  1  0
 37 74  1  0
 38 75  1  0
 41 76  1  0
 41 77  1  0
 42 78  1  0
 42 79  1  0
 43 80  1  0
 44 81  1  0
 45 82  1  0
M  CHG  1  42   1
M  END
>  <meeko>  (2) 
{"is_sidechain": [false], "free_energy": -9.914, "intermolecular_energy": -15.783, "internal_energy": -5.286}

$$$$
3utu_ligand
     RDKit          3D

 82 85  0  0  0  0  0  0  0  0999 V2000
   24.0980  -13.3520   24.2450 C   0  0  0  0  0  0  0  0  0  0  0  0
   22.9020  -13.0660   24.9550 O   0  0  0  0  0  0  0  0  0  0  0  0
   21.8690  -13.9610   24.8640 C   0  0  0  0  0  0  0  0  0  0  0  0
   21.7860  -14.9800   23.9060 C   0  0  0  0  0  0  0  0  0  0  0  0
   20.6940  -15.8540   23.8920 C   0  0  0  0  0  0  0  0  0  0  0  0
   19.6820  -15.7090   24.8430 C   0  0  0  0  0  0  0  0  0  0  0  0
   18.3060  -16.8290   24.8710 S   0  0  0  0  0  0  0  0  0  0  0  0
   17.8610  -16.9930   26.2380 O   0  0  0  0  0  0  0  0  0  0  0  0
   18.6520  -17.9600   24.0450 O   0  0  0  0  0  0  0  0  0  0  0  0
   17.1290  -15.9550   24.0300 N   0  0  0  0  0  0  0  0  0  0  0  0
   17.4700  -15.5320   22.6410 C   0  0  1  0  0  0  0  0  0  0  0  0
   16.2930  -15.8080   21.7000 C   0  0  0  0  0  0  0  0  0  0  0  0
   15.8910  -17.2660   21.7680 C   0  0  0  0  0  0  0  0  0  0  0  0
   16.5870  -18.1690   21.3160 O   0  0  0  0  0  0  0  0  0  0  0  0
   14.6860  -17.4780   22.3980 N   0  0  0  0  0  0  0  0  0  0  0  0
   14.2180  -18.8180   22.6890 C   0  0  0  0  0  0  0  0  0  0  0  0
   13.2140  -19.2730   21.6600 C   0  0  0  0  0  0  0  0  0  0  0  0
   12.5230  -18.3410   20.8730 C   0  0  0  0  0  0  0  0  0  0  0  0
   11.5730  -18.7690   19.9400 C   0  0  0  0  0  0  0  0  0  0  0  0
   11.3000  -20.1320   19.7890 C   0  0  0  0  0  0  0  0  0  0  0  0
   10.3220  -20.5680   18.8350 C   0  0  0  0  0  0  0  0  0  0  0  0
    9.5220  -20.9150   18.0690 N   0  0  0  0  0  0  0  0  0  0  0  0
   11.9800  -21.0660   20.5740 C   0  0  0  0  0  0  0  0  0  0  0  0
   12.9290  -20.6370   21.5060 C   0  0  0  0  0  0  0  0  0  0  0  0
   17.9040  -14.0670   22.5160 C   0  0  0  0  0  0  0  0  0  0  0  0
   17.6510  -13.2850   23.4400 O   0  0  0  0  0  0  0  0  0  0  0  0
   18.5950  -13.6420   21.4000 N   0  0  0  0  0  0  0  0  0  0  0  0
   19.7890  -14.2330   20.8120 C   0  0  0  0  0  0  0  0  0  0  0  0
   20.5510  -13.0420   20.2570 C   0  0  0  0  0  0  0  0  0  0  0  0
   19.4410  -12.1230   19.7800 C   0  0  0  0  0  0  0  0  0  0  0  0
   18.3200  -12.3220   20.8090 C   0  0  1  0  0  0  0  0  0  0  0  0
   16.9690  -12.1800   20.0810 C   0  0  0  0  0  0  0  0  0  0  0  0
   16.4550  -13.1380   19.5020 O   0  0  0  0  0  0  0  0  0  0  0  0
   16.3190  -10.9780   20.2540 N   0  0  0  0  0  0  0  0  0  0  0  0
   15.0310  -10.7140   19.6650 C   0  0  0  0  0  0  0  0  0  0  0  0
   13.9280  -10.7390   20.6970 C   0  0  0  0  0  0  0  0  0  0  0  0
   13.5480   -9.5570   21.3450 C   0  0  0  0  0  0  0  0  0  0  0  0
   12.5680   -9.5720   22.3370 C   0  0  0  0  0  0  0  0  0  0  0  0
   11.9480  -10.7750   22.7010 C   0  0  0  0  0  0  0  0  0  0  0  0
   10.9390  -10.7900   23.7640 C   0  0  0  0  0  0  0  0  0  0  0  0
   10.3320  -11.9190   24.0570 N   0  0  0  0  0  0  0  0  0  0  0  0
   10.6660   -9.6720   24.4000 N   0  0  0  0  0  0  0  0  0  0  0  0
   12.3220  -11.9600   22.0480 C   0  0  0  0  0  0  0  0  0  0  0  0
   13.3080  -11.9410   21.0580 C   0  0  0  0  0  0  0  0  0  0  0  0
   19.7340  -14.6840   25.7880 C   0  0  0  0  0  0  0  0  0  0  0  0
   20.8300  -13.8210   25.8010 C   0  0  0  0  0  0  0  0  0  0  0  0
   20.8670  -12.5900   27.0140 Cl  0  0  0  0  0  0  0  0  0  0  0  0
   24.9112  -13.5465   24.9598 H   0  0  0  0  0  0  0  0  0  0  0  0
   23.9458  -14.2391   23.6126 H   0  0  0  0  0  0  0  0  0  0  0  0
   24.3636  -12.4920   23.6126 H   0  0  0  0  0  0  0  0  0  0  0  0
   22.5856  -15.0936   23.1592 H   0  0  0  0  0  0  0  0  0  0  0  0
   20.6329  -16.6509   23.1362 H   0  0  0  0  0  0  0  0  0  0  0  0
   16.2280  -16.4330   24.1100 H   0  0  0  0  0  0  0  0  0  0  0  0
   18.3441  -16.1343   22.3526 H   0  0  0  0  0  0  0  0  0  0  0  0
   15.4381  -15.1825   21.9964 H   0  0  0  0  0  0  0  0  0  0  0  0
   16.5974  -15.5704   20.6700 H   0  0  0  0  0  0  0  0  0  0  0  0
   14.2440  -16.7160   22.8940 H   0  0  0  0  0  0  0  0  0  0  0  0
   15.0751  -19.5075   22.6853 H   0  0  0  0  0  0  0  0  0  0  0  0
   13.7323  -18.8139   23.6759 H   0  0  0  0  0  0  0  0  0  0  0  0
   12.7292  -17.2668   20.9900 H   0  0  0  0  0  0  0  0  0  0  0  0
   11.0390  -18.0312   19.3232 H   0  0  0  0  0  0  0  0  0  0  0  0
   11.7686  -22.1393   20.4587 H   0  0  0  0  0  0  0  0  0  0  0  0
   13.4576  -21.3770   22.1249 H   0  0  0  0  0  0  0  0  0  0  0  0
   20.3832  -14.7564   21.5755 H   0  0  0  0  0  0  0  0  0  0  0  0
   19.5558  -14.9834   20.0423 H   0  0  0  0  0  0  0  0  0  0  0  0
   21.1558  -12.5596   21.0390 H   0  0  0  0  0  0  0  0  0  0  0  0
   21.2626  -13.3127   19.4631 H   0  0  0  0  0  0  0  0  0  0  0  0
   19.7789  -11.0762   19.7686 H   0  0  0  0  0  0  0  0  0  0  0  0
   19.1167  -12.3510   18.7539 H   0  0  0  0  0  0  0  0  0  0  0  0
   18.2754  -11.5822   21.6218 H   0  0  0  0  0  0  0  0  0  0  0  0
   16.8730  -10.1750   20.5440 H   0  0  0  0  0  0  0  0  0  0  0  0
   15.0527   -9.7218   19.1907 H   0  0  0  0  0  0  0  0  0  0  0  0
   14.8252  -11.5010   18.9245 H   0  0  0  0  0  0  0  0  0  0  0  0
   14.0277   -8.6065   21.0685 H   0  0  0  0  0  0  0  0  0  0  0  0
   12.2802   -8.6350   22.8362 H   0  0  0  0  0  0  0  0  0  0  0  0
   10.5450  -12.7550   23.5210 H   0  0  0  0  0  0  0  0  0  0  0  0
    9.6230  -11.9870   24.7730 H   0  0  0  0  0  0  0  0  0  0  0  0
   11.1730   -8.8250   24.1560 H   0  0  0  0  0  0  0  0  0  0  0  0
    9.9810   -9.6130   25.1390 H   0  0  0  0  0  0  0  0  0  0  0  0
   11.8359  -12.9093   22.3173 H   0  0  0  0  0  0  0  0  0  0  0  0
   13.5990  -12.8771   20.5589 H   0  0  0  0  0  0  0  0  0  0  0  0
   18.9188  -14.5575   26.5157 H   0  0  0  0  0  0  0  0  0  0  0  0
  1  2  1  0
  2  3  1  0
  3  4  2  0
  4  5  1  0
  5  6  2  0
  6  7  1  0
  7  8  2  0
  7  9  2  0
  7 10  1  0
 10 11  1  0
 11 12  1  0
 12 13  1  0
 13 14  2  0
 13 15  1  0
 15 16  1  0
 16 17  1  0
 17 18  2  0
 18 19  1  0
 19 20  2  0
 20 21  1  0
 21 22  3  0
 20 23  1  0
 23 24  2  0
 11 25  1  0
 25 26  2  0
 25 27  1  0
 27 28  1  0
 28 29  1  0
 29 30  1  0
 30 31  1  0
 31 32  1  0
 32 33  2  0
 32 34  1  0
 34 35  1  0
 35 36  1  0
 36 37  2  0
 37 38  1  0
 38 39  2  0
 39 40  1  0
 40 41  1  0
 40 42  2  0
 39 43  1  0
 43 44  2  0
  6 45  1  0
 45 46  2  0
 46 47  1  0
 46  3  1  0
 24 17  1  0
 31 27  1  0
 44 36  1  0
  1 48  1  0
  1 49  1  0
  1 50  1  0
  4 51  1  0
  5 52  1  0
 10 53  1  0
 11 54  1  6
 12 55  1  0
 12 56  1  0
 15 57  1  0
 16 58  1  0
 16 59  1  0
 18 60  1  0
 19 61  1  0
 23 62  1  0
 24 63  1  0
 28 64  1  0
 28 65  1  0
 29 66  1  0
 29 67  1  0
 30 68  1  0
 30 69  1  0
 31 70  1  1
 34 71  1  0
 35 72  1  0
 35 73  1  0
 37 74  1  0
 38 75  1  0
 41 76  1  0
 41 77  1  0
 42 78  1  0
 42 79  1  0
 43 80  1  0
 44 81  1  0
 45 82  1  0
M  CHG  1  42   1
M  END
>  <meeko>  (3) 
{"is_sidechain": [false], "free_energy": -9.581, "intermolecular_energy": -17.769, "internal_energy": -2.695}

$$$$
3utu_ligand
     RDKit          3D

 82 85  0  0  0  0  0  0  0  0999 V2000
   24.1160  -13.3210   24.2200 C   0  0  0  0  0  0  0  0  0  0  0  0
   22.9480  -12.9690   24.9490 O   0  0  0  0  0  0  0  0  0  0  0  0
   21.8570  -13.7900   24.8490 C   0  0  0  0  0  0  0  0  0  0  0  0
   21.7350  -14.8390   23.9280 C   0  0  0  0  0  0  0  0  0  0  0  0
   20.5820  -15.6310   23.9020 C   0  0  0  0  0  0  0  0  0  0  0  0
   19.5480  -15.3740   24.8040 C   0  0  0  0  0  0  0  0  0  0  0  0
   18.0920  -16.3870   24.8180 S   0  0  0  0  0  0  0  0  0  0  0  0
   17.5470  -16.4100   26.1580 O   0  0  0  0  0  0  0  0  0  0  0  0
   18.4050  -17.6030   24.1060 O   0  0  0  0  0  0  0  0  0  0  0  0
   17.0420  -15.5040   23.8310 N   0  0  0  0  0  0  0  0  0  0  0  0
   17.5340  -15.1570   22.4670 C   0  0  1  0  0  0  0  0  0  0  0  0
   16.4250  -15.3770   21.4330 C   0  0  0  0  0  0  0  0  0  0  0  0
   16.6230  -16.6960   20.7170 C   0  0  0  0  0  0  0  0  0  0  0  0
   16.2950  -16.8740   19.5490 O   0  0  0  0  0  0  0  0  0  0  0  0
   17.2190  -17.6630   21.4940 N   0  0  0  0  0  0  0  0  0  0  0  0
   17.6240  -18.9340   20.9300 C   0  0  0  0  0  0  0  0  0  0  0  0
   19.1170  -18.9800   20.7240 C   0  0  0  0  0  0  0  0  0  0  0  0
   19.7050  -20.0120   19.9790 C   0  0  0  0  0  0  0  0  0  0  0  0
   21.0930  -20.0650   19.8150 C   0  0  0  0  0  0  0  0  0  0  0  0
   21.9070  -19.0890   20.3990 C   0  0  0  0  0  0  0  0  0  0  0  0
   23.3310  -19.1480   20.2330 C   0  0  0  0  0  0  0  0  0  0  0  0
   24.4820  -19.2050   20.1050 N   0  0  0  0  0  0  0  0  0  0  0  0
   21.3290  -18.0620   21.1480 C   0  0  0  0  0  0  0  0  0  0  0  0
   19.9420  -18.0100   21.3110 C   0  0  0  0  0  0  0  0  0  0  0  0
   18.0890  -13.7330   22.3400 C   0  0  0  0  0  0  0  0  0  0  0  0
   17.8890  -12.9260   23.2550 O   0  0  0  0  0  0  0  0  0  0  0  0
   18.8280  -13.3750   21.2310 N   0  0  0  0  0  0  0  0  0  0  0  0
   20.0360  -14.0090   20.7200 C   0  0  0  0  0  0  0  0  0  0  0  0
   20.8340  -12.8570   20.1350 C   0  0  0  0  0  0  0  0  0  0  0  0
   19.7560  -11.9510   19.5690 C   0  0  0  0  0  0  0  0  0  0  0  0
   18.5940  -12.0840   20.5620 C   0  0  1  0  0  0  0  0  0  0  0  0
   17.2740  -11.9640   19.7760 C   0  0  0  0  0  0  0  0  0  0  0  0
   17.0190  -12.7250   18.8410 O   0  0  0  0  0  0  0  0  0  0  0  0
   16.3540  -11.0730   20.2830 N   0  0  0  0  0  0  0  0  0  0  0  0
   15.0610  -10.8810   19.6760 C   0  0  0  0  0  0  0  0  0  0  0  0
   13.9570  -10.8600   20.7060 C   0  0  0  0  0  0  0  0  0  0  0  0
   13.6250   -9.6630   21.3540 C   0  0  0  0  0  0  0  0  0  0  0  0
   12.6440   -9.6380   22.3450 C   0  0  0  0  0  0  0  0  0  0  0  0
   11.9740  -10.8140   22.7070 C   0  0  0  0  0  0  0  0  0  0  0  0
   10.9640  -10.7880   23.7690 C   0  0  0  0  0  0  0  0  0  0  0  0
   10.3870  -11.9110   24.1350 N   0  0  0  0  0  0  0  0  0  0  0  0
   10.6610   -9.6390   24.3310 N   0  0  0  0  0  0  0  0  0  0  0  0
   12.3000  -12.0130   22.0540 C   0  0  0  0  0  0  0  0  0  0  0  0
   13.2870  -12.0350   21.0660 C   0  0  0  0  0  0  0  0  0  0  0  0
   19.6390  -14.3160   25.7110 C   0  0  0  0  0  0  0  0  0  0  0  0
   20.7950  -13.5360   25.7350 C   0  0  0  0  0  0  0  0  0  0  0  0
   20.8770  -12.2620   26.9010 Cl  0  0  0  0  0  0  0  0  0  0  0  0
   24.9267  -13.5653   24.9222 H   0  0  0  0  0  0  0  0  0  0  0  0
   23.9035  -14.1950   23.5868 H   0  0  0  0  0  0  0  0  0  0  0  0
   24.4218  -12.4751   23.5868 H   0  0  0  0  0  0  0  0  0  0  0  0
   22.5521  -15.0413   23.2199 H   0  0  0  0  0  0  0  0  0  0  0  0
   20.4907  -16.4515   23.1750 H   0  0  0  0  0  0  0  0  0  0  0  0
   16.1170  -15.9400   23.8420 H   0  0  0  0  0  0  0  0  0  0  0  0
   18.3805  -15.8326   22.2747 H   0  0  0  0  0  0  0  0  0  0  0  0
   15.4505  -15.3846   21.9432 H   0  0  0  0  0  0  0  0  0  0  0  0
   16.4597  -14.5623   20.6947 H   0  0  0  0  0  0  0  0  0  0  0  0
   17.6160  -17.4070   22.3880 H   0  0  0  0  0  0  0  0  0  0  0  0
   17.3300  -19.7423   21.6157 H   0  0  0  0  0  0  0  0  0  0  0  0
   17.1307  -19.0589   19.9548 H   0  0  0  0  0  0  0  0  0  0  0  0
   19.0706  -20.7849   19.5206 H   0  0  0  0  0  0  0  0  0  0  0  0
   21.5454  -20.8760   19.2255 H   0  0  0  0  0  0  0  0  0  0  0  0
   21.9659  -17.2933   21.6101 H   0  0  0  0  0  0  0  0  0  0  0  0
   19.4933  -17.2005   21.9054 H   0  0  0  0  0  0  0  0  0  0  0  0
   20.5939  -14.4992   21.5315 H   0  0  0  0  0  0  0  0  0  0  0  0
   19.8222  -14.7952   19.9810 H   0  0  0  0  0  0  0  0  0  0  0  0
   21.4149  -12.3420   20.9143 H   0  0  0  0  0  0  0  0  0  0  0  0
   21.5715  -13.1765   19.3840 H   0  0  0  0  0  0  0  0  0  0  0  0
   20.1083  -10.9102   19.5177 H   0  0  0  0  0  0  0  0  0  0  0  0
   19.4683  -12.2274   18.5439 H   0  0  0  0  0  0  0  0  0  0  0  0
   18.5285  -11.3026   21.3335 H   0  0  0  0  0  0  0  0  0  0  0  0
   16.6930  -10.3380   20.9000 H   0  0  0  0  0  0  0  0  0  0  0  0
   15.0606   -9.9240   19.1337 H   0  0  0  0  0  0  0  0  0  0  0  0
   14.8754  -11.7223   18.9921 H   0  0  0  0  0  0  0  0  0  0  0  0
   14.1436   -8.7330   21.0782 H   0  0  0  0  0  0  0  0  0  0  0  0
   12.3951   -8.6903   22.8449 H   0  0  0  0  0  0  0  0  0  0  0  0
   10.6240  -12.7750   23.6550 H   0  0  0  0  0  0  0  0  0  0  0  0
    9.6790  -11.9520   24.8540 H   0  0  0  0  0  0  0  0  0  0  0  0
   11.1440   -8.7950   24.0330 H   0  0  0  0  0  0  0  0  0  0  0  0
    9.9730   -9.5500   25.0650 H   0  0  0  0  0  0  0  0  0  0  0  0
   11.7746  -12.9415   22.3222 H   0  0  0  0  0  0  0  0  0  0  0  0
   13.5395  -12.9824   20.5673 H   0  0  0  0  0  0  0  0  0  0  0  0
   18.8082  -14.1002   26.3989 H   0  0  0  0  0  0  0  0  0  0  0  0
  1  2  1  0
  2  3  1  0
  3  4  2  0
  4  5  1  0
  5  6  2  0
  6  7  1  0
  7  8  2  0
  7  9  2  0
  7 10  1  0
 10 11  1  0
 11 12  1  0
 12 13  1  0
 13 14  2  0
 13 15  1  0
 15 16  1  0
 16 17  1  0
 17 18  2  0
 18 19  1  0
 19 20  2  0
 20 21  1  0
 21 22  3  0
 20 23  1  0
 23 24  2  0
 11 25  1  0
 25 26  2  0
 25 27  1  0
 27 28  1  0
 28 29  1  0
 29 30  1  0
 30 31  1  0
 31 32  1  0
 32 33  2  0
 32 34  1  0
 34 35  1  0
 35 36  1  0
 36 37  2  0
 37 38  1  0
 38 39  2  0
 39 40  1  0
 40 41  1  0
 40 42  2  0
 39 43  1  0
 43 44  2  0
  6 45  1  0
 45 46  2  0
 46 47  1  0
 46  3  1  0
 24 17  1  0
 31 27  1  0
 44 36  1  0
  1 48  1  0
  1 49  1  0
  1 50  1  0
  4 51  1  0
  5 52  1  0
 10 53  1  0
 11 54  1  6
 12 55  1  0
 12 56  1  0
 15 57  1  0
 16 58  1  0
 16 59  1  0
 18 60  1  0
 19 61  1  0
 23 62  1  0
 24 63  1  0
 28 64  1  0
 28 65  1  0
 29 66  1  0
 29 67  1  0
 30 68  1  0
 30 69  1  0
 31 70  1  1
 34 71  1  0
 35 72  1  0
 35 73  1  0
 37 74  1  0
 38 75  1  0
 41 76  1  0
 41 77  1  0
 42 78  1  0
 42 79  1  0
 43 80  1  0
 44 81  1  0
 45 82  1  0
M  CHG  1  42   1
M  END
>  <meeko>  (4) 
{"is_sidechain": [false], "free_energy": -9.576, "intermolecular_energy": -17.12, "internal_energy": -3.333}

$$$$
3utu_ligand
     RDKit          3D

 82 85  0  0  0  0  0  0  0  0999 V2000
   20.8280  -12.7860   27.0570 C   0  0  0  0  0  0  0  0  0  0  0  0
   21.8240  -13.7350   26.7010 O   0  0  0  0  0  0  0  0  0  0  0  0
   21.5010  -14.6860   25.7700 C   0  0  0  0  0  0  0  0  0  0  0  0
   20.7440  -15.8340   26.0380 C   0  0  0  0  0  0  0  0  0  0  0  0
   20.4580  -16.7510   25.0210 C   0  0  0  0  0  0  0  0  0  0  0  0
   20.9290  -16.5150   23.7280 C   0  0  0  0  0  0  0  0  0  0  0  0
   20.5480  -17.6420   22.4110 S   0  0  0  0  0  0  0  0  0  0  0  0
   20.7930  -18.9940   22.8640 O   0  0  0  0  0  0  0  0  0  0  0  0
   21.1540  -17.1220   21.2090 O   0  0  0  0  0  0  0  0  0  0  0  0
   18.8800  -17.4310   22.2440 N   0  0  0  0  0  0  0  0  0  0  0  0
   18.4260  -16.4150   21.2520 C   0  0  1  0  0  0  0  0  0  0  0  0
   17.0730  -16.8210   20.6590 C   0  0  0  0  0  0  0  0  0  0  0  0
   16.4420  -17.9220   21.4850 C   0  0  0  0  0  0  0  0  0  0  0  0
   16.6340  -19.1130   21.2630 O   0  0  0  0  0  0  0  0  0  0  0  0
   15.6550  -17.4590   22.5130 N   0  0  0  0  0  0  0  0  0  0  0  0
   15.0960  -18.3640   23.4970 C   0  0  0  0  0  0  0  0  0  0  0  0
   15.9440  -18.3930   24.7440 C   0  0  0  0  0  0  0  0  0  0  0  0
   15.9740  -19.5310   25.5630 C   0  0  0  0  0  0  0  0  0  0  0  0
   16.7400  -19.5410   26.7330 C   0  0  0  0  0  0  0  0  0  0  0  0
   17.4790  -18.4120   27.0990 C   0  0  0  0  0  0  0  0  0  0  0  0
   18.2600  -18.4230   28.3010 C   0  0  0  0  0  0  0  0  0  0  0  0
   18.8830  -18.4330   29.2800 N   0  0  0  0  0  0  0  0  0  0  0  0
   17.4490  -17.2720   26.2910 C   0  0  0  0  0  0  0  0  0  0  0  0
   16.6840  -17.2630   25.1220 C   0  0  0  0  0  0  0  0  0  0  0  0
   18.3450  -14.9860   21.8030 C   0  0  0  0  0  0  0  0  0  0  0  0
   17.7860  -14.7920   22.8890 O   0  0  0  0  0  0  0  0  0  0  0  0
   18.9180  -13.9420   21.1070 N   0  0  0  0  0  0  0  0  0  0  0  0
   20.2290  -13.9050   20.4730 C   0  0  0  0  0  0  0  0  0  0  0  0
   20.6710  -12.4610   20.6320 C   0  0  0  0  0  0  0  0  0  0  0  0
   19.3700  -11.6910   20.4910 C   0  0  0  0  0  0  0  0  0  0  0  0
   18.3250  -12.5950   21.1590 C   0  0  1  0  0  0  0  0  0  0  0  0
   16.9900  -12.4200   20.4090 C   0  0  0  0  0  0  0  0  0  0  0  0
   16.3930  -13.3880   19.9390 O   0  0  0  0  0  0  0  0  0  0  0  0
   16.4480  -11.1540   20.4420 N   0  0  0  0  0  0  0  0  0  0  0  0
   15.1860  -10.8470   19.8170 C   0  0  0  0  0  0  0  0  0  0  0  0
   14.0550  -10.8280   20.8190 C   0  0  0  0  0  0  0  0  0  0  0  0
   13.6460   -9.6170   21.3910 C   0  0  0  0  0  0  0  0  0  0  0  0
   12.6390   -9.5900   22.3560 C   0  0  0  0  0  0  0  0  0  0  0  0
   12.0210  -10.7780   22.7680 C   0  0  0  0  0  0  0  0  0  0  0  0
   10.9840  -10.7470   23.8030 C   0  0  0  0  0  0  0  0  0  0  0  0
   10.3650  -11.8610   24.1260 N   0  0  0  0  0  0  0  0  0  0  0  0
   10.6990   -9.6030   24.3850 N   0  0  0  0  0  0  0  0  0  0  0  0
   12.4260  -11.9920   22.1910 C   0  0  0  0  0  0  0  0  0  0  0  0
   13.4380  -12.0150   21.2290 C   0  0  0  0  0  0  0  0  0  0  0  0
   21.7080  -15.3910   23.4460 C   0  0  0  0  0  0  0  0  0  0  0  0
   21.9820  -14.4780   24.4650 C   0  0  0  0  0  0  0  0  0  0  0  0
   22.9190  -13.0830   24.0590 Cl  0  0  0  0  0  0  0  0  0  0  0  0
   20.7591  -12.7204   28.1529 H   0  0  0  0  0  0  0  0  0  0  0  0
   21.0965  -11.8013   26.6468 H   0  0  0  0  0  0  0  0  0  0  0  0
   19.8574  -13.1018   26.6468 H   0  0  0  0  0  0  0  0  0  0  0  0
   20.3713  -16.0159   27.0568 H   0  0  0  0  0  0  0  0  0  0  0  0
   19.8659  -17.6521   25.2386 H   0  0  0  0  0  0  0  0  0  0  0  0
   18.4300  -18.3440   22.1410 H   0  0  0  0  0  0  0  0  0  0  0  0
   19.1999  -16.3969   20.4705 H   0  0  0  0  0  0  0  0  0  0  0  0
   16.4049  -15.9472   20.6494 H   0  0  0  0  0  0  0  0  0  0  0  0
   17.2293  -17.1894   19.6344 H   0  0  0  0  0  0  0  0  0  0  0  0
   15.6710  -16.4750   22.7480 H   0  0  0  0  0  0  0  0  0  0  0  0
   14.0815  -18.0293   23.7590 H   0  0  0  0  0  0  0  0  0  0  0  0
   15.0674  -19.3763   23.0676 H   0  0  0  0  0  0  0  0  0  0  0  0
   15.3915  -20.4212   25.2834 H   0  0  0  0  0  0  0  0  0  0  0  0
   16.7611  -20.4396   27.3671 H   0  0  0  0  0  0  0  0  0  0  0  0
   18.0281  -16.3812   26.5757 H   0  0  0  0  0  0  0  0  0  0  0  0
   16.6618  -16.3614   24.4922 H   0  0  0  0  0  0  0  0  0  0  0  0
   20.9282  -14.5864   20.9798 H   0  0  0  0  0  0  0  0  0  0  0  0
   20.2009  -14.2267   19.4215 H   0  0  0  0  0  0  0  0  0  0  0  0
   21.1256  -12.2926   21.6194 H   0  0  0  0  0  0  0  0  0  0  0  0
   21.4365  -12.1580   19.9025 H   0  0  0  0  0  0  0  0  0  0  0  0
   19.4329  -10.7208   21.0055 H   0  0  0  0  0  0  0  0  0  0  0  0
   19.1246  -11.4656   19.4427 H   0  0  0  0  0  0  0  0  0  0  0  0
   18.0869  -12.3627   22.2075 H   0  0  0  0  0  0  0  0  0  0  0  0
   17.0700  -10.3740   20.6440 H   0  0  0  0  0  0  0  0  0  0  0  0
   15.2559   -9.8584   19.3398 H   0  0  0  0  0  0  0  0  0  0  0  0
   14.9723  -11.6296   19.0741 H   0  0  0  0  0  0  0  0  0  0  0  0
   14.1236   -8.6775   21.0762 H   0  0  0  0  0  0  0  0  0  0  0  0
   12.3285   -8.6308   22.7959 H   0  0  0  0  0  0  0  0  0  0  0  0
   10.5890  -12.7190   23.6310 H   0  0  0  0  0  0  0  0  0  0  0  0
    9.6370  -11.8970   24.8250 H   0  0  0  0  0  0  0  0  0  0  0  0
   11.2150   -8.7670   24.1210 H   0  0  0  0  0  0  0  0  0  0  0  0
    9.9940   -9.5120   25.1020 H   0  0  0  0  0  0  0  0  0  0  0  0
   11.9431  -12.9312   22.4986 H   0  0  0  0  0  0  0  0  0  0  0  0
   13.7524  -12.9735   20.7903 H   0  0  0  0  0  0  0  0  0  0  0  0
   22.1013  -15.2271   22.4319 H   0  0  0  0  0  0  0  0  0  0  0  0
  1  2  1  0
  2  3  1  0
  3  4  2  0
  4  5  1  0
  5  6  2  0
  6  7  1  0
  7  8  2  0
  7  9  2  0
  7 10  1  0
 10 11  1  0
 11 12  1  0
 12 13  1  0
 13 14  2  0
 13 15  1  0
 15 16  1  0
 16 17  1  0
 17 18  2  0
 18 19  1  0
 19 20  2  0
 20 21  1  0
 21 22  3  0
 20 23  1  0
 23 24  2  0
 11 25  1  0
 25 26  2  0
 25 27  1  0
 27 28  1  0
 28 29  1  0
 29 30  1  0
 30 31  1  0
 31 32  1  0
 32 33  2  0
 32 34  1  0
 34 35  1  0
 35 36  1  0
 36 37  2  0
 37 38  1  0
 38 39  2  0
 39 40  1  0
 40 41  1  0
 40 42  2  0
 39 43  1  0
 43 44  2  0
  6 45  1  0
 45 46  2  0
 46 47  1  0
 46  3  1  0
 24 17  1  0
 31 27  1  0
 44 36  1  0
  1 48  1  0
  1 49  1  0
  1 50  1  0
  4 51  1  0
  5 52  1  0
 10 53  1  0
 11 54  1  6
 12 55  1  0
 12 56  1  0
 15 57  1  0
 16 58  1  0
 16 59  1  0
 18 60  1  0
 19 61  1  0
 23 62  1  0
 24 63  1  0
 28 64  1  0
 28 65  1  0
 29 66  1  0
 29 67  1  0
 30 68  1  0
 30 69  1  0
 31 70  1  1
 34 71  1  0
 35 72  1  0
 35 73  1  0
 37 74  1  0
 38 75  1  0
 41 76  1  0
 41 77  1  0
 42 78  1  0
 42 79  1  0
 43 80  1  0
 44 81  1  0
 45 82  1  0
M  CHG  1  42   1
M  END
>  <meeko>  (5) 
{"is_sidechain": [false], "free_energy": -9.501, "intermolecular_energy": -16.642, "internal_energy": -3.675}

$$$$
3utu_ligand
     RDKit          3D

 82 85  0  0  0  0  0  0  0  0999 V2000
   19.8940  -20.2530   24.6340 C   0  0  0  0  0  0  0  0  0  0  0  0
   21.1540  -19.6040   24.7290 O   0  0  0  0  0  0  0  0  0  0  0  0
   21.1740  -18.2350   24.7260 C   0  0  0  0  0  0  0  0  0  0  0  0
   20.8340  -17.4340   25.8250 C   0  0  0  0  0  0  0  0  0  0  0  0
   20.8880  -16.0400   25.7320 C   0  0  0  0  0  0  0  0  0  0  0  0
   21.2880  -15.4430   24.5340 C   0  0  0  0  0  0  0  0  0  0  0  0
   21.4040  -13.6780   24.4020 S   0  0  0  0  0  0  0  0  0  0  0  0
   22.0380  -13.3410   23.1460 O   0  0  0  0  0  0  0  0  0  0  0  0
   21.9040  -13.1820   25.6620 O   0  0  0  0  0  0  0  0  0  0  0  0
   19.7770  -13.2280   24.3150 N   0  0  0  0  0  0  0  0  0  0  0  0
   18.8640  -14.1470   23.5750 C   0  0  1  0  0  0  0  0  0  0  0  0
   17.8380  -14.7570   24.5350 C   0  0  0  0  0  0  0  0  0  0  0  0
   17.5410  -16.1910   24.1500 C   0  0  0  0  0  0  0  0  0  0  0  0
   18.1960  -16.8040   23.3140 O   0  0  0  0  0  0  0  0  0  0  0  0
   16.4840  -16.7400   24.8380 N   0  0  0  0  0  0  0  0  0  0  0  0
   16.1560  -18.1450   24.7110 C   0  0  0  0  0  0  0  0  0  0  0  0
   16.2950  -18.8530   26.0360 C   0  0  0  0  0  0  0  0  0  0  0  0
   15.2870  -19.7090   26.5000 C   0  0  0  0  0  0  0  0  0  0  0  0
   15.4100  -20.3400   27.7420 C   0  0  0  0  0  0  0  0  0  0  0  0
   16.5400  -20.1170   28.5350 C   0  0  0  0  0  0  0  0  0  0  0  0
   16.6610  -20.7610   29.8100 C   0  0  0  0  0  0  0  0  0  0  0  0
   16.7510  -21.2770   30.8460 N   0  0  0  0  0  0  0  0  0  0  0  0
   17.5450  -19.2590   28.0820 C   0  0  0  0  0  0  0  0  0  0  0  0
   17.4210  -18.6290   26.8420 C   0  0  0  0  0  0  0  0  0  0  0  0
   18.1450  -13.4990   22.3860 C   0  0  0  0  0  0  0  0  0  0  0  0
   16.9490  -13.2020   22.4960 O   0  0  0  0  0  0  0  0  0  0  0  0
   18.8370  -13.2260   21.2240 N   0  0  0  0  0  0  0  0  0  0  0  0
   20.0390  -13.8800   20.7270 C   0  0  0  0  0  0  0  0  0  0  0  0
   20.7920  -12.7690   20.0150 C   0  0  0  0  0  0  0  0  0  0  0  0
   19.6740  -11.9370   19.4110 C   0  0  0  0  0  0  0  0  0  0  0  0
   18.5510  -12.0030   20.4550 C   0  0  1  0  0  0  0  0  0  0  0  0
   17.2030  -11.9770   19.7100 C   0  0  0  0  0  0  0  0  0  0  0  0
   16.9180  -12.8410   18.8790 O   0  0  0  0  0  0  0  0  0  0  0  0
   16.2970  -11.0350   20.1450 N   0  0  0  0  0  0  0  0  0  0  0  0
   14.9810  -10.9170   19.5690 C   0  0  0  0  0  0  0  0  0  0  0  0
   13.9060  -10.8930   20.6290 C   0  0  0  0  0  0  0  0  0  0  0  0
   13.5430   -9.6820   21.2330 C   0  0  0  0  0  0  0  0  0  0  0  0
   12.5900   -9.6510   22.2500 C   0  0  0  0  0  0  0  0  0  0  0  0
   11.9790  -10.8350   22.6840 C   0  0  0  0  0  0  0  0  0  0  0  0
   10.9990  -10.8000   23.7730 C   0  0  0  0  0  0  0  0  0  0  0  0
   10.7440   -9.6570   24.3720 N   0  0  0  0  0  0  0  0  0  0  0  0
   10.3960  -11.9140   24.1240 N   0  0  0  0  0  0  0  0  0  0  0  0
   12.3360  -12.0490   22.0760 C   0  0  0  0  0  0  0  0  0  0  0  0
   13.2950  -12.0760   21.0610 C   0  0  0  0  0  0  0  0  0  0  0  0
   21.6060  -16.2230   23.4210 C   0  0  0  0  0  0  0  0  0  0  0  0
   21.5560  -17.6130   23.5240 C   0  0  0  0  0  0  0  0  0  0  0  0
   21.9930  -18.5360   22.1290 Cl  0  0  0  0  0  0  0  0  0  0  0  0
   19.5071  -20.4523   25.6442 H   0  0  0  0  0  0  0  0  0  0  0  0
   19.1883  -19.6062   24.0921 H   0  0  0  0  0  0  0  0  0  0  0  0
   20.0109  -21.2031   24.0921 H   0  0  0  0  0  0  0  0  0  0  0  0
   20.5221  -17.9061   26.7683 H   0  0  0  0  0  0  0  0  0  0  0  0
   20.6171  -15.4170   26.5971 H   0  0  0  0  0  0  0  0  0  0  0  0
   19.4440  -12.9710   25.2470 H   0  0  0  0  0  0  0  0  0  0  0  0
   19.5086  -14.9306   23.1502 H   0  0  0  0  0  0  0  0  0  0  0  0
   18.2403  -14.7326   25.5585 H   0  0  0  0  0  0  0  0  0  0  0  0
   16.9074  -14.1731   24.4801 H   0  0  0  0  0  0  0  0  0  0  0  0
   16.0940  -16.2440   25.6290 H   0  0  0  0  0  0  0  0  0  0  0  0
   15.1187  -18.2420   24.3580 H   0  0  0  0  0  0  0  0  0  0  0  0
   16.8512  -18.6043   23.9928 H   0  0  0  0  0  0  0  0  0  0  0  0
   14.3934  -19.8857   25.8834 H   0  0  0  0  0  0  0  0  0  0  0  0
   14.6157  -21.0136   28.0961 H   0  0  0  0  0  0  0  0  0  0  0  0
   18.4351  -19.0794   28.7028 H   0  0  0  0  0  0  0  0  0  0  0  0
   18.2139  -17.9506   26.4939 H   0  0  0  0  0  0  0  0  0  0  0  0
   20.6349  -14.2869   21.5573 H   0  0  0  0  0  0  0  0  0  0  0  0
   19.8165  -14.7318   20.0675 H   0  0  0  0  0  0  0  0  0  0  0  0
   21.3877  -12.1763   20.7248 H   0  0  0  0  0  0  0  0  0  0  0  0
   21.5108  -13.1391   19.2691 H   0  0  0  0  0  0  0  0  0  0  0  0
   20.0011  -10.8984   19.2547 H   0  0  0  0  0  0  0  0  0  0  0  0
   19.3564  -12.3090   18.4258 H   0  0  0  0  0  0  0  0  0  0  0  0
   18.4953  -11.1588   21.1580 H   0  0  0  0  0  0  0  0  0  0  0  0
   16.6540  -10.2330   20.6600 H   0  0  0  0  0  0  0  0  0  0  0  0
   14.9289   -9.9846   18.9876 H   0  0  0  0  0  0  0  0  0  0  0  0
   14.8087  -11.7931   18.9266 H   0  0  0  0  0  0  0  0  0  0  0  0
   14.0151   -8.7455   20.9011 H   0  0  0  0  0  0  0  0  0  0  0  0
   12.3162   -8.6921   22.7142 H   0  0  0  0  0  0  0  0  0  0  0  0
   11.2540   -8.8230   24.0950 H   0  0  0  0  0  0  0  0  0  0  0  0
   10.0850   -9.5750   25.1330 H   0  0  0  0  0  0  0  0  0  0  0  0
   10.6070  -12.7730   23.6230 H   0  0  0  0  0  0  0  0  0  0  0  0
    9.7140  -11.9600   24.8670 H   0  0  0  0  0  0  0  0  0  0  0  0
   11.8575  -12.9846   22.4010 H   0  0  0  0  0  0  0  0  0  0  0  0
   13.5723  -13.0343   20.5975 H   0  0  0  0  0  0  0  0  0  0  0  0
   21.8932  -15.7462   22.4722 H   0  0  0  0  0  0  0  0  0  0  0  0
  1  2  1  0
  2  3  1  0
  3  4  2  0
  4  5  1  0
  5  6  2  0
  6  7  1  0
  7  8  2  0
  7  9  2  0
  7 10  1  0
 10 11  1  0
 11 12  1  0
 12 13  1  0
 13 14  2  0
 13 15  1  0
 15 16  1  0
 16 17  1  0
 17 18  2  0
 18 19  1  0
 19 20  2  0
 20 21  1  0
 21 22  3  0
 20 23  1  0
 23 24  2  0
 11 25  1  0
 25 26  2  0
 25 27  1  0
 27 28  1  0
 28 29  1  0
 29 30  1  0
 30 31  1  0
 31 32  1  0
 32 33  2  0
 32 34  1  0
 34 35  1  0
 35 36  1  0
 36 37  2  0
 37 38  1  0
 38 39  2  0
 39 40  1  0
 40 41  1  0
 40 42  2  0
 39 43  1  0
 43 44  2  0
  6 45  1  0
 45 46  2  0
 46 47  1  0
 46  3  1  0
 24 17  1  0
 31 27  1  0
 44 36  1  0
  1 48  1  0
  1 49  1  0
  1 50  1  0
  4 51  1  0
  5 52  1  0
 10 53  1  0
 11 54  1  6
 12 55  1  0
 12 56  1  0
 15 57  1  0
 16 58  1  0
 16 59  1  0
 18 60  1  0
 19 61  1  0
 23 62  1  0
 24 63  1  0
 28 64  1  0
 28 65  1  0
 29 66  1  0
 29 67  1  0
 30 68  1  0
 30 69  1  0
 31 70  1  1
 34 71  1  0
 35 72  1  0
 35 73  1  0
 37 74  1  0
 38 75  1  0
 41 76  1  0
 41 77  1  0
 42 78  1  0
 42 79  1  0
 43 80  1  0
 44 81  1  0
 45 82  1  0
M  CHG  1  42   1
M  END
>  <meeko>  (6) 
{"is_sidechain": [false], "free_energy": -9.307, "intermolecular_energy": -17.227, "internal_energy": -2.737}

$$$$
3utu_ligand
     RDKit          3D

 82 85  0  0  0  0  0  0  0  0999 V2000
   22.5980  -20.2780   25.0880 C   0  0  0  0  0  0  0  0  0  0  0  0
   21.4100  -19.6180   24.6710 O   0  0  0  0  0  0  0  0  0  0  0  0
   21.3990  -18.2490   24.6810 C   0  0  0  0  0  0  0  0  0  0  0  0
   21.2460  -17.4650   25.8320 C   0  0  0  0  0  0  0  0  0  0  0  0
   21.2510  -16.0680   25.7470 C   0  0  0  0  0  0  0  0  0  0  0  0
   21.4140  -15.4540   24.5040 C   0  0  0  0  0  0  0  0  0  0  0  0
   21.4640  -13.6850   24.3730 S   0  0  0  0  0  0  0  0  0  0  0  0
   22.0140  -13.3250   23.0850 O   0  0  0  0  0  0  0  0  0  0  0  0
   22.0190  -13.1770   25.6040 O   0  0  0  0  0  0  0  0  0  0  0  0
   19.8210  -13.2890   24.3800 N   0  0  0  0  0  0  0  0  0  0  0  0
   18.9060  -14.2020   23.6360 C   0  0  1  0  0  0  0  0  0  0  0  0
   17.9080  -14.8510   24.6010 C   0  0  0  0  0  0  0  0  0  0  0  0
   17.4940  -16.2160   24.0940 C   0  0  0  0  0  0  0  0  0  0  0  0
   18.1160  -17.2400   24.3560 O   0  0  0  0  0  0  0  0  0  0  0  0
   16.3490  -16.1980   23.3320 N   0  0  0  0  0  0  0  0  0  0  0  0
   15.7210  -17.4270   22.8920 C   0  0  0  0  0  0  0  0  0  0  0  0
   15.4190  -17.3790   21.4150 C   0  0  0  0  0  0  0  0  0  0  0  0
   14.4230  -18.1950   20.8610 C   0  0  0  0  0  0  0  0  0  0  0  0
   14.1670  -18.1650   19.4870 C   0  0  0  0  0  0  0  0  0  0  0  0
   14.9090  -17.3240   18.6510 C   0  0  0  0  0  0  0  0  0  0  0  0
   14.6490  -17.3000   17.2410 C   0  0  0  0  0  0  0  0  0  0  0  0
   14.4410  -17.2900   16.1000 N   0  0  0  0  0  0  0  0  0  0  0  0
   15.9080  -16.5140   19.1950 C   0  0  0  0  0  0  0  0  0  0  0  0
   16.1630  -16.5440   20.5680 C   0  0  0  0  0  0  0  0  0  0  0  0
   18.1530  -13.5340   22.4790 C   0  0  0  0  0  0  0  0  0  0  0  0
   16.9720  -13.2040   22.6420 O   0  0  0  0  0  0  0  0  0  0  0  0
   18.8000  -13.2810   21.2870 N   0  0  0  0  0  0  0  0  0  0  0  0
   19.9960  -13.9280   20.7660 C   0  0  0  0  0  0  0  0  0  0  0  0
   20.7040  -12.8250   20.0000 C   0  0  0  0  0  0  0  0  0  0  0  0
   19.5530  -12.0270   19.4130 C   0  0  0  0  0  0  0  0  0  0  0  0
   18.4670  -12.0840   20.4960 C   0  0  1  0  0  0  0  0  0  0  0  0
   17.0940  -12.1010   19.7980 C   0  0  0  0  0  0  0  0  0  0  0  0
   16.7250  -13.0760   19.1430 O   0  0  0  0  0  0  0  0  0  0  0  0
   16.2640  -11.0390   20.0840 N   0  0  0  0  0  0  0  0  0  0  0  0
   14.9360  -10.9370   19.5340 C   0  0  0  0  0  0  0  0  0  0  0  0
   13.8830  -10.8990   20.6170 C   0  0  0  0  0  0  0  0  0  0  0  0
   13.5230   -9.6780   21.2020 C   0  0  0  0  0  0  0  0  0  0  0  0
   12.5920   -9.6330   22.2390 C   0  0  0  0  0  0  0  0  0  0  0  0
   12.0010  -10.8120   22.7120 C   0  0  0  0  0  0  0  0  0  0  0  0
   11.0440  -10.7610   23.8210 C   0  0  0  0  0  0  0  0  0  0  0  0
   10.8450   -9.6210   24.4460 N   0  0  0  0  0  0  0  0  0  0  0  0
   10.4050  -11.8580   24.1620 N   0  0  0  0  0  0  0  0  0  0  0  0
   12.3550  -12.0350   22.1230 C   0  0  0  0  0  0  0  0  0  0  0  0
   13.2920  -12.0770   21.0880 C   0  0  0  0  0  0  0  0  0  0  0  0
   21.5410  -16.2180   23.3420 C   0  0  0  0  0  0  0  0  0  0  0  0
   21.5420  -17.6090   23.4360 C   0  0  0  0  0  0  0  0  0  0  0  0
   21.7390  -18.5110   21.9750 Cl  0  0  0  0  0  0  0  0  0  0  0  0
   22.6385  -20.3005   26.1870 H   0  0  0  0  0  0  0  0  0  0  0  0
   22.6012  -21.3072   24.6998 H   0  0  0  0  0  0  0  0  0  0  0  0
   23.4736  -19.7370   24.6998 H   0  0  0  0  0  0  0  0  0  0  0  0
   21.1209  -17.9515   26.8106 H   0  0  0  0  0  0  0  0  0  0  0  0
   21.1273  -15.4578   26.6538 H   0  0  0  0  0  0  0  0  0  0  0  0
   19.5230  -13.0900   25.3380 H   0  0  0  0  0  0  0  0  0  0  0  0
   19.5525  -14.9653   23.1785 H   0  0  0  0  0  0  0  0  0  0  0  0
   18.3779  -14.9589   25.5897 H   0  0  0  0  0  0  0  0  0  0  0  0
   17.0156  -14.2120   24.6739 H   0  0  0  0  0  0  0  0  0  0  0  0
   15.7910  -15.3550   23.2910 H   0  0  0  0  0  0  0  0  0  0  0  0
   16.3985  -18.2698   23.0938 H   0  0  0  0  0  0  0  0  0  0  0  0
   14.7756  -17.5540   23.4398 H   0  0  0  0  0  0  0  0  0  0  0  0
   13.8393  -18.8630   21.5114 H   0  0  0  0  0  0  0  0  0  0  0  0
   13.3796  -18.8048   19.0619 H   0  0  0  0  0  0  0  0  0  0  0  0
   16.4947  -15.8516   18.5416 H   0  0  0  0  0  0  0  0  0  0  0  0
   16.9547  -15.9069   20.9891 H   0  0  0  0  0  0  0  0  0  0  0  0
   20.6269  -14.3024   21.5856 H   0  0  0  0  0  0  0  0  0  0  0  0
   19.7662  -14.8008   20.1372 H   0  0  0  0  0  0  0  0  0  0  0  0
   21.3134  -12.2040   20.6731 H   0  0  0  0  0  0  0  0  0  0  0  0
   21.4025  -13.2037   19.2393 H   0  0  0  0  0  0  0  0  0  0  0  0
   19.8571  -10.9878   19.2193 H   0  0  0  0  0  0  0  0  0  0  0  0
   19.2090  -12.4292   18.4487 H   0  0  0  0  0  0  0  0  0  0  0  0
   18.4206  -11.2218   21.1775 H   0  0  0  0  0  0  0  0  0  0  0  0
   16.6890  -10.1850   20.4380 H   0  0  0  0  0  0  0  0  0  0  0  0
   14.8672  -10.0153   18.9376 H   0  0  0  0  0  0  0  0  0  0  0  0
   14.7543  -11.8249   18.9106 H   0  0  0  0  0  0  0  0  0  0  0  0
   13.9795   -8.7452   20.8395 H   0  0  0  0  0  0  0  0  0  0  0  0
   12.3200   -8.6665   22.6883 H   0  0  0  0  0  0  0  0  0  0  0  0
   11.3820   -8.8020   24.1760 H   0  0  0  0  0  0  0  0  0  0  0  0
   10.2050   -9.5300   25.2220 H   0  0  0  0  0  0  0  0  0  0  0  0
   10.5720  -12.7150   23.6400 H   0  0  0  0  0  0  0  0  0  0  0  0
    9.7360  -11.8930   24.9170 H   0  0  0  0  0  0  0  0  0  0  0  0
   11.8916  -12.9671   22.4786 H   0  0  0  0  0  0  0  0  0  0  0  0
   13.5674  -13.0430   20.6398 H   0  0  0  0  0  0  0  0  0  0  0  0
   21.6393  -15.7273   22.3624 H   0  0  0  0  0  0  0  0  0  0  0  0
  1  2  1  0
  2  3  1  0
  3  4  2  0
  4  5  1  0
  5  6  2  0
  6  7  1  0
  7  8  2  0
  7  9  2  0
  7 10  1  0
 10 11  1  0
 11 12  1  0
 12 13  1  0
 13 14  2  0
 13 15  1  0
 15 16  1  0
 16 17  1  0
 17 18  2  0
 18 19  1  0
 19 20  2  0
 20 21  1  0
 21 22  3  0
 20 23  1  0
 23 24  2  0
 11 25  1  0
 25 26  2  0
 25 27  1  0
 27 28  1  0
 28 29  1  0
 29 30  1  0
 30 31  1  0
 31 32  1  0
 32 33  2  0
 32 34  1  0
 34 35  1  0
 35 36  1  0
 36 37  2  0
 37 38  1  0
 38 39  2  0
 39 40  1  0
 40 41  1  0
 40 42  2  0
 39 43  1  0
 43 44  2  0
  6 45  1  0
 45 46  2  0
 46 47  1  0
 46  3  1  0
 24 17  1  0
 31 27  1  0
 44 36  1  0
  1 48  1  0
  1 49  1  0
  1 50  1  0
  4 51  1  0
  5 52  1  0
 10 53  1  0
 11 54  1  6
 12 55  1  0
 12 56  1  0
 15 57  1  0
 16 58  1  0
 16 59  1  0
 18 60  1  0
 19 61  1  0
 23 62  1  0
 24 63  1  0
 28 64  1  0
 28 65  1  0
 29 66  1  0
 29 67  1  0
 30 68  1  0
 30 69  1  0
 31 70  1  1
 34 71  1  0
 35 72  1  0
 35 73  1  0
 37 74  1  0
 38 75  1  0
 41 76  1  0
 41 77  1  0
 42 78  1  0
 42 79  1  0
 43 80  1  0
 44 81  1  0
 45 82  1  0
M  CHG  1  42   1
M  END
>  <meeko>  (7) 
{"is_sidechain": [false], "free_energy": -9.179, "intermolecular_energy": -16.804, "internal_energy": -2.927}

$$$$
3utu_ligand
     RDKit          3D

 82 85  0  0  0  0  0  0  0  0999 V2000
   22.3300  -19.6010   29.2680 C   0  0  0  0  0  0  0  0  0  0  0  0
   21.0040  -19.9240   28.8720 O   0  0  0  0  0  0  0  0  0  0  0  0
   20.3750  -19.0870   27.9900 C   0  0  0  0  0  0  0  0  0  0  0  0
   20.9370  -18.6300   26.7910 C   0  0  0  0  0  0  0  0  0  0  0  0
   20.2160  -17.7800   25.9470 C   0  0  0  0  0  0  0  0  0  0  0  0
   18.9240  -17.3870   26.3030 C   0  0  0  0  0  0  0  0  0  0  0  0
   17.9730  -16.3400   25.2320 S   0  0  0  0  0  0  0  0  0  0  0  0
   17.1810  -15.4370   26.0390 O   0  0  0  0  0  0  0  0  0  0  0  0
   17.3730  -17.1830   24.2260 O   0  0  0  0  0  0  0  0  0  0  0  0
   19.1800  -15.4450   24.4590 N   0  0  0  0  0  0  0  0  0  0  0  0
   18.9020  -13.9970   24.2340 C   0  0  1  0  0  0  0  0  0  0  0  0
   20.2050  -13.1930   24.2980 C   0  0  0  0  0  0  0  0  0  0  0  0
   21.2940  -14.0010   24.9700 C   0  0  0  0  0  0  0  0  0  0  0  0
   21.2910  -14.2510   26.1710 O   0  0  0  0  0  0  0  0  0  0  0  0
   22.2690  -14.4410   24.1050 N   0  0  0  0  0  0  0  0  0  0  0  0
   23.3040  -15.3540   24.5440 C   0  0  0  0  0  0  0  0  0  0  0  0
   23.0610  -16.7420   24.0070 C   0  0  0  0  0  0  0  0  0  0  0  0
   22.0970  -16.9680   23.0140 C   0  0  0  0  0  0  0  0  0  0  0  0
   21.8570  -18.2610   22.5410 C   0  0  0  0  0  0  0  0  0  0  0  0
   22.5750  -19.3440   23.0600 C   0  0  0  0  0  0  0  0  0  0  0  0
   22.3240  -20.6700   22.5760 C   0  0  0  0  0  0  0  0  0  0  0  0
   22.1100  -21.7430   22.1890 N   0  0  0  0  0  0  0  0  0  0  0  0
   23.5320  -19.1280   24.0540 C   0  0  0  0  0  0  0  0  0  0  0  0
   23.7710  -17.8350   24.5260 C   0  0  0  0  0  0  0  0  0  0  0  0
   18.1660  -13.6920   22.9240 C   0  0  0  0  0  0  0  0  0  0  0  0
   16.9290  -13.6870   22.9170 O   0  0  0  0  0  0  0  0  0  0  0  0
   18.8800  -13.3970   21.7810 N   0  0  0  0  0  0  0  0  0  0  0  0
   20.1130  -14.0170   21.3140 C   0  0  0  0  0  0  0  0  0  0  0  0
   20.8530  -12.8860   20.6240 C   0  0  0  0  0  0  0  0  0  0  0  0
   19.7300  -12.0820   19.9930 C   0  0  0  0  0  0  0  0  0  0  0  0
   18.5820  -12.1810   21.0060 C   0  0  1  0  0  0  0  0  0  0  0  0
   17.2530  -12.1900   20.2260 C   0  0  0  0  0  0  0  0  0  0  0  0
   16.8770  -13.1960   19.6220 O   0  0  0  0  0  0  0  0  0  0  0  0
   16.4610  -11.0740   20.3810 N   0  0  0  0  0  0  0  0  0  0  0  0
   15.1740  -10.9560   19.7430 C   0  0  0  0  0  0  0  0  0  0  0  0
   14.0510  -10.9160   20.7520 C   0  0  0  0  0  0  0  0  0  0  0  0
   13.6880   -9.7010   21.3480 C   0  0  0  0  0  0  0  0  0  0  0  0
   12.6890   -9.6550   22.3200 C   0  0  0  0  0  0  0  0  0  0  0  0
   12.0310  -10.8280   22.7140 C   0  0  0  0  0  0  0  0  0  0  0  0
   11.0010  -10.7780   23.7560 C   0  0  0  0  0  0  0  0  0  0  0  0
   10.7120   -9.6260   24.3200 N   0  0  0  0  0  0  0  0  0  0  0  0
   10.3910  -11.8900   24.1020 N   0  0  0  0  0  0  0  0  0  0  0  0
   12.3880  -12.0450   22.1130 C   0  0  0  0  0  0  0  0  0  0  0  0
   13.3930  -12.0870   21.1440 C   0  0  0  0  0  0  0  0  0  0  0  0
   18.3560  -17.8100   27.5060 C   0  0  0  0  0  0  0  0  0  0  0  0
   19.0790  -18.6640   28.3390 C   0  0  0  0  0  0  0  0  0  0  0  0
   18.3200  -19.1910   29.8000 Cl  0  0  0  0  0  0  0  0  0  0  0  0
   22.3913  -19.5861   30.3662 H   0  0  0  0  0  0  0  0  0  0  0  0
   23.0251  -20.3561   28.8722 H   0  0  0  0  0  0  0  0  0  0  0  0
   22.6000  -18.6108   28.8722 H   0  0  0  0  0  0  0  0  0  0  0  0
   21.9539  -18.9425   26.5112 H   0  0  0  0  0  0  0  0  0  0  0  0
   20.6638  -17.4228   25.0079 H   0  0  0  0  0  0  0  0  0  0  0  0
   20.0810  -15.6320   24.9050 H   0  0  0  0  0  0  0  0  0  0  0  0
   18.2212  -13.6946   25.0434 H   0  0  0  0  0  0  0  0  0  0  0  0
   20.5226  -12.9365   23.2766 H   0  0  0  0  0  0  0  0  0  0  0  0
   20.0297  -12.2774   24.8819 H   0  0  0  0  0  0  0  0  0  0  0  0
   22.1290  -14.3470   23.1080 H   0  0  0  0  0  0  0  0  0  0  0  0
   24.2787  -14.9938   24.1830 H   0  0  0  0  0  0  0  0  0  0  0  0
   23.2926  -15.3956   25.6432 H   0  0  0  0  0  0  0  0  0  0  0  0
   21.5258  -16.1218   22.6045 H   0  0  0  0  0  0  0  0  0  0  0  0
   21.1018  -18.4277   21.7588 H   0  0  0  0  0  0  0  0  0  0  0  0
   24.0980  -19.9766   24.4656 H   0  0  0  0  0  0  0  0  0  0  0  0
   24.5231  -17.6724   25.3121 H   0  0  0  0  0  0  0  0  0  0  0  0
   20.6981  -14.4092   22.1589 H   0  0  0  0  0  0  0  0  0  0  0  0
   19.9309  -14.8730   20.6476 H   0  0  0  0  0  0  0  0  0  0  0  0
   21.4146  -12.2795   21.3498 H   0  0  0  0  0  0  0  0  0  0  0  0
   21.5996  -13.2356   19.8958 H   0  0  0  0  0  0  0  0  0  0  0  0
   20.0335  -11.0347   19.8483 H   0  0  0  0  0  0  0  0  0  0  0  0
   19.4486  -12.4591   18.9987 H   0  0  0  0  0  0  0  0  0  0  0  0
   18.4852  -11.3397   21.7080 H   0  0  0  0  0  0  0  0  0  0  0  0
   16.9050  -10.2150   20.6970 H   0  0  0  0  0  0  0  0  0  0  0  0
   15.1537  -10.0295   19.1503 H   0  0  0  0  0  0  0  0  0  0  0  0
   15.0273  -11.8378   19.1020 H   0  0  0  0  0  0  0  0  0  0  0  0
   14.1964   -8.7735   21.0460 H   0  0  0  0  0  0  0  0  0  0  0  0
   12.4162   -8.6936   22.7796 H   0  0  0  0  0  0  0  0  0  0  0  0
   11.2290   -8.7940   24.0500 H   0  0  0  0  0  0  0  0  0  0  0  0
   10.0190   -9.5330   25.0480 H   0  0  0  0  0  0  0  0  0  0  0  0
   10.6290  -12.7570   23.6280 H   0  0  0  0  0  0  0  0  0  0  0  0
    9.6750  -11.9260   24.8130 H   0  0  0  0  0  0  0  0  0  0  0  0
   11.8731  -12.9715   22.4069 H   0  0  0  0  0  0  0  0  0  0  0  0
   13.6693  -13.0480   20.6855 H   0  0  0  0  0  0  0  0  0  0  0  0
   17.3491  -17.4735   27.7940 H   0  0  0  0  0  0  0  0  0  0  0  0
  1  2  1  0
  2  3  1  0
  3  4  2  0
  4  5  1  0
  5  6  2  0
  6  7  1  0
  7  8  2  0
  7  9  2  0
  7 10  1  0
 10 11  1  0
 11 12  1  0
 12 13  1  0
 13 14  2  0
 13 15  1  0
 15 16  1  0
 16 17  1  0
 17 18  2  0
 18 19  1  0
 19 20  2  0
 20 21  1  0
 21 22  3  0
 20 23  1  0
 23 24  2  0
 11 25  1  0
 25 26  2  0
 25 27  1  0
 27 28  1  0
 28 29  1  0
 29 30  1  0
 30 31  1  0
 31 32  1  0
 32 33  2  0
 32 34  1  0
 34 35  1  0
 35 36  1  0
 36 37  2  0
 37 38  1  0
 38 39  2  0
 39 40  1  0
 40 41  1  0
 40 42  2  0
 39 43  1  0
 43 44  2  0
  6 45  1  0
 45 46  2  0
 46 47  1  0
 46  3  1  0
 24 17  1  0
 31 27  1  0
 44 36  1  0
  1 48  1  0
  1 49  1  0
  1 50  1  0
  4 51  1  0
  5 52  1  0
 10 53  1  0
 11 54  1  1
 12 55  1  0
 12 56  1  0
 15 57  1  0
 16 58  1  0
 16 59  1  0
 18 60  1  0
 19 61  1  0
 23 62  1  0
 24 63  1  0
 28 64  1  0
 28 65  1  0
 29 66  1  0
 29 67  1  0
 30 68  1  0
 30 69  1  0
 31 70  1  1
 34 71  1  0
 35 72  1  0
 35 73  1  0
 37 74  1  0
 38 75  1  0
 41 76  1  0
 41 77  1  0
 42 78  1  0
 42 79  1  0
 43 80  1  0
 44 81  1  0
 45 82  1  0
M  CHG  1  42   1
M  END
>  <meeko>  (8) 
{"is_sidechain": [false], "free_energy": -9.015, "intermolecular_energy": -16.001, "internal_energy": -3.432}

$$$$
3utu_ligand
     RDKit          3D

 82 85  0  0  0  0  0  0  0  0999 V2000
   18.9750  -19.0720   29.9740 C   0  0  0  0  0  0  0  0  0  0  0  0
   18.8680  -19.2920   28.5750 O   0  0  0  0  0  0  0  0  0  0  0  0
   19.0680  -18.2250   27.7390 C   0  0  0  0  0  0  0  0  0  0  0  0
   18.2330  -17.1020   27.6720 C   0  0  0  0  0  0  0  0  0  0  0  0
   18.5190  -16.0550   26.7900 C   0  0  0  0  0  0  0  0  0  0  0  0
   19.6490  -16.1310   25.9730 C   0  0  0  0  0  0  0  0  0  0  0  0
   20.0560  -14.8000   24.8730 S   0  0  0  0  0  0  0  0  0  0  0  0
   21.4840  -14.8050   24.6370 O   0  0  0  0  0  0  0  0  0  0  0  0
   19.3700  -13.6220   25.3480 O   0  0  0  0  0  0  0  0  0  0  0  0
   19.2790  -15.2740   23.4490 N   0  0  0  0  0  0  0  0  0  0  0  0
   19.5510  -14.4570   22.2320 C   0  0  1  0  0  0  0  0  0  0  0  0
   20.1180  -15.3420   21.1170 C   0  0  0  0  0  0  0  0  0  0  0  0
   20.5520  -16.6810   21.6730 C   0  0  0  0  0  0  0  0  0  0  0  0
   21.6760  -16.8820   22.1200 O   0  0  0  0  0  0  0  0  0  0  0  0
   19.5640  -17.6370   21.6450 N   0  0  0  0  0  0  0  0  0  0  0  0
   19.7520  -18.9280   22.2740 C   0  0  0  0  0  0  0  0  0  0  0  0
   18.7210  -19.1580   23.3510 C   0  0  0  0  0  0  0  0  0  0  0  0
   18.7670  -20.3070   24.1530 C   0  0  0  0  0  0  0  0  0  0  0  0
   17.7920  -20.5270   25.1300 C   0  0  0  0  0  0  0  0  0  0  0  0
   16.7570  -19.6040   25.3130 C   0  0  0  0  0  0  0  0  0  0  0  0
   15.7560  -19.8350   26.3130 C   0  0  0  0  0  0  0  0  0  0  0  0
   14.9420  -20.0300   27.1160 N   0  0  0  0  0  0  0  0  0  0  0  0
   16.7010  -18.4600   24.5130 C   0  0  0  0  0  0  0  0  0  0  0  0
   17.6760  -18.2410   23.5360 C   0  0  0  0  0  0  0  0  0  0  0  0
   18.3370  -13.6780   21.7110 C   0  0  0  0  0  0  0  0  0  0  0  0
   18.3080  -12.4490   21.8470 O   0  0  0  0  0  0  0  0  0  0  0  0
   17.3090  -14.3420   21.0730 N   0  0  0  0  0  0  0  0  0  0  0  0
   16.6140  -15.5430   21.5150 C   0  0  0  0  0  0  0  0  0  0  0  0
   16.2760  -16.2660   20.2230 C   0  0  0  0  0  0  0  0  0  0  0  0
   15.9810  -15.1250   19.2650 C   0  0  0  0  0  0  0  0  0  0  0  0
   16.9680  -14.0240   19.6770 C   0  0  1  0  0  0  0  0  0  0  0  0
   16.2880  -12.6610   19.4450 C   0  0  0  0  0  0  0  0  0  0  0  0
   16.8960  -11.7280   18.9180 O   0  0  0  0  0  0  0  0  0  0  0  0
   14.9380  -12.6110   19.7170 N   0  0  0  0  0  0  0  0  0  0  0  0
   14.1610  -11.4140   19.5120 C   0  0  0  0  0  0  0  0  0  0  0  0
   13.3250  -11.0770   20.7240 C   0  0  0  0  0  0  0  0  0  0  0  0
   13.3050   -9.7660   21.2180 C   0  0  0  0  0  0  0  0  0  0  0  0
   12.5800   -9.4490   22.3670 C   0  0  0  0  0  0  0  0  0  0  0  0
   11.8590  -10.4410   23.0440 C   0  0  0  0  0  0  0  0  0  0  0  0
   11.1210  -10.1080   24.2670 C   0  0  0  0  0  0  0  0  0  0  0  0
   10.7440  -11.0760   25.0730 N   0  0  0  0  0  0  0  0  0  0  0  0
   10.8550   -8.8480   24.5270 N   0  0  0  0  0  0  0  0  0  0  0  0
   11.8720  -11.7530   22.5470 C   0  0  0  0  0  0  0  0  0  0  0  0
   12.6040  -12.0680   21.3990 C   0  0  0  0  0  0  0  0  0  0  0  0
   20.4780  -17.2540   26.0050 C   0  0  0  0  0  0  0  0  0  0  0  0
   20.1900  -18.2900   26.8930 C   0  0  0  0  0  0  0  0  0  0  0  0
   21.2670  -19.6420   26.9230 Cl  0  0  0  0  0  0  0  0  0  0  0  0
   18.5558  -19.9339   30.5138 H   0  0  0  0  0  0  0  0  0  0  0  0
   20.0337  -18.9487   30.2459 H   0  0  0  0  0  0  0  0  0  0  0  0
   18.4184  -18.1630   30.2459 H   0  0  0  0  0  0  0  0  0  0  0  0
   17.3450  -17.0433   28.3185 H   0  0  0  0  0  0  0  0  0  0  0  0
   17.8580  -15.1772   26.7401 H   0  0  0  0  0  0  0  0  0  0  0  0
   19.4030  -16.2800   23.3120 H   0  0  0  0  0  0  0  0  0  0  0  0
   20.2895  -13.7018   22.5390 H   0  0  0  0  0  0  0  0  0  0  0  0
   19.3437  -15.5013   20.3521 H   0  0  0  0  0  0  0  0  0  0  0  0
   20.9910  -14.8407   20.6737 H   0  0  0  0  0  0  0  0  0  0  0  0
   18.6150  -17.3660   21.4220 H   0  0  0  0  0  0  0  0  0  0  0  0
   19.6593  -19.7164   21.5125 H   0  0  0  0  0  0  0  0  0  0  0  0
   20.7512  -18.9527   22.7333 H   0  0  0  0  0  0  0  0  0  0  0  0
   19.5753  -21.0398   24.0125 H   0  0  0  0  0  0  0  0  0  0  0  0
   17.8388  -21.4294   25.7573 H   0  0  0  0  0  0  0  0  0  0  0  0
   15.8890  -17.7312   24.6522 H   0  0  0  0  0  0  0  0  0  0  0  0
   17.6233  -17.3408   22.9060 H   0  0  0  0  0  0  0  0  0  0  0  0
   17.2657  -16.1609   22.1502 H   0  0  0  0  0  0  0  0  0  0  0  0
   15.7238  -15.3191   22.1211 H   0  0  0  0  0  0  0  0  0  0  0  0
   17.1270  -16.8681   19.8718 H   0  0  0  0  0  0  0  0  0  0  0  0
   15.4407  -16.9743   20.3264 H   0  0  0  0  0  0  0  0  0  0  0  0
   16.1543  -15.4348   18.2239 H   0  0  0  0  0  0  0  0  0  0  0  0
   14.9336  -14.7926   19.3148 H   0  0  0  0  0  0  0  0  0  0  0  0
   17.9014  -13.9707   19.0974 H   0  0  0  0  0  0  0  0  0  0  0  0
   14.5510  -13.3180   20.3380 H   0  0  0  0  0  0  0  0  0  0  0  0
   14.8438  -10.5766   19.3057 H   0  0  0  0  0  0  0  0  0  0  0  0
   13.4820  -11.5866   18.6640 H   0  0  0  0  0  0  0  0  0  0  0  0
   13.8668   -8.9785   20.6944 H   0  0  0  0  0  0  0  0  0  0  0  0
   12.5745   -8.4153   22.7431 H   0  0  0  0  0  0  0  0  0  0  0  0
   10.9390  -12.0410   24.8210 H   0  0  0  0  0  0  0  0  0  0  0  0
   10.2270  -10.9070   25.9240 H   0  0  0  0  0  0  0  0  0  0  0  0
   11.1820   -8.1270   23.8880 H   0  0  0  0  0  0  0  0  0  0  0  0
   10.3500   -8.5510   25.3490 H   0  0  0  0  0  0  0  0  0  0  0  0
   11.3022  -12.5389   23.0644 H   0  0  0  0  0  0  0  0  0  0  0  0
   12.6134  -13.1019   21.0236 H   0  0  0  0  0  0  0  0  0  0  0  0
   21.3492  -17.3209   25.3368 H   0  0  0  0  0  0  0  0  0  0  0  0
  1  2  1  0
  2  3  1  0
  3  4  2  0
  4  5  1  0
  5  6  2  0
  6  7  1  0
  7  8  2  0
  7  9  2  0
  7 10  1  0
 10 11  1  0
 11 12  1  0
 12 13  1  0
 13 14  2  0
 13 15  1  0
 15 16  1  0
 16 17  1  0
 17 18  2  0
 18 19  1  0
 19 20  2  0
 20 21  1  0
 21 22  3  0
 20 23  1  0
 23 24  2  0
 11 25  1  0
 25 26  2  0
 25 27  1  0
 27 28  1  0
 28 29  1  0
 29 30  1  0
 30 31  1  0
 31 32  1  0
 32 33  2  0
 32 34  1  0
 34 35  1  0
 35 36  1  0
 36 37  2  0
 37 38  1  0
 38 39  2  0
 39 40  1  0
 40 41  1  0
 40 42  2  0
 39 43  1  0
 43 44  2  0
  6 45  1  0
 45 46  2  0
 46 47  1  0
 46  3  1  0
 24 17  1  0
 31 27  1  0
 44 36  1  0
  1 48  1  0
  1 49  1  0
  1 50  1  0
  4 51  1  0
  5 52  1  0
 10 53  1  0
 11 54  1  1
 12 55  1  0
 12 56  1  0
 15 57  1  0
 16 58  1  0
 16 59  1  0
 18 60  1  0
 19 61  1  0
 23 62  1  0
 24 63  1  0
 28 64  1  0
 28 65  1  0
 29 66  1  0
 29 67  1  0
 30 68  1  0
 30 69  1  0
 31 70  1  6
 34 71  1  0
 35 72  1  0
 35 73  1  0
 37 74  1  0
 38 75  1  0
 41 76  1  0
 41 77  1  0
 42 78  1  0
 42 79  1  0
 43 80  1  0
 44 81  1  0
 45 82  1  0
M  CHG  1  42   1
M  END
>  <meeko>  (9) 
{"is_sidechain": [false], "free_energy": -8.912, "intermolecular_energy": -14.928, "internal_energy": -4.318}

$$$$
