4dld_ligand
     RDKit          3D

 33 33  0  0  0  0  0  0  0  0999 V2000
    0.1480   33.5330  104.4140 N   0  0  0  0  0  0  0  0  0  0  0  0
    0.9000   33.8640  103.1600 C   0  0  1  0  0  0  0  0  0  0  0  0
    0.5480   35.2780  102.6610 C   0  0  0  0  0  0  0  0  0  0  0  0
   -0.4550   35.2980  101.5100 C   0  0  0  0  0  0  0  0  0  0  0  0
    0.0890   35.2410  100.2020 C   0  0  0  0  0  0  0  0  0  0  0  0
   -0.7220   35.2400   99.0660 C   0  0  0  0  0  0  0  0  0  0  0  0
    0.0450   35.2060   97.5200 Cl  0  0  0  0  0  0  0  0  0  0  0  0
   -2.0970   35.2990   99.2400 C   0  0  0  0  0  0  0  0  0  0  0  0
   -2.9850   35.2960   98.1020 N   0  0  0  0  0  0  0  0  0  0  0  0
   -3.0270   34.2710   97.4080 O   0  0  0  0  0  0  0  0  0  0  0  0
   -3.6710   36.3130   97.9230 O   0  0  0  0  0  0  0  0  0  0  0  0
   -2.6700   35.3920  100.5140 C   0  0  0  0  0  0  0  0  0  0  0  0
   -1.8570   35.4050  101.6650 C   0  0  0  0  0  0  0  0  0  0  0  0
   -2.5730   35.5300  102.9990 C   0  0  0  0  0  0  0  0  0  0  0  0
   -3.7730   34.5950  103.1450 C   0  0  0  0  0  0  0  0  0  0  0  0
   -3.6310   33.8960  104.4690 C   0  0  0  0  0  0  0  0  0  0  0  0
   -4.5440   33.0790  104.7930 O   0  0  0  0  0  0  0  0  0  0  0  0
   -2.7020   34.2790  105.2380 O   0  0  0  0  0  0  0  0  0  0  0  0
    2.4310   33.6520  103.3470 C   0  0  0  0  0  0  0  0  0  0  0  0
    2.8190   33.2180  104.4610 O   0  0  0  0  0  0  0  0  0  0  0  0
    3.0880   34.0010  102.3160 O   0  0  0  0  0  0  0  0  0  0  0  0
    0.6720   32.9550  105.1050 H   0  0  0  0  0  0  0  0  0  0  0  0
   -0.6970   32.9400  104.2550 H   0  0  0  0  0  0  0  0  0  0  0  0
   -0.1920   34.4190  104.8110 H   0  0  0  0  0  0  0  0  0  0  0  0
    0.5844   33.1648  102.3717 H   0  0  0  0  0  0  0  0  0  0  0  0
    0.1216   35.8453  103.5014 H   0  0  0  0  0  0  0  0  0  0  0  0
    1.4793   35.7222  102.2797 H   0  0  0  0  0  0  0  0  0  0  0  0
    1.1812   35.1963  100.0789 H   0  0  0  0  0  0  0  0  0  0  0  0
   -3.7633   35.4554  100.6174 H   0  0  0  0  0  0  0  0  0  0  0  0
   -1.8554   35.3010  103.8006 H   0  0  0  0  0  0  0  0  0  0  0  0
   -2.9588   36.5583  103.0604 H   0  0  0  0  0  0  0  0  0  0  0  0
   -4.7077   35.1745  103.1227 H   0  0  0  0  0  0  0  0  0  0  0  0
   -3.8053   33.8680  102.3201 H   0  0  0  0  0  0  0  0  0  0  0  0
  1  2  1  0
  2  3  1  0
  3  4  1  0
  4  5  2  0
  5  6  1  0
  6  7  1  0
  6  8  2  0
  8  9  1  0
  9 10  2  0
  9 11  1  0
  8 12  1  0
 12 13  2  0
 13 14  1  0
 14 15  1  0
 15 16  1  0
 16 17  2  0
 16 18  1  0
  2 19  1  0
 19 20  2  0
 19 21  1  0
 13  4  1  0
  1 22  1  0
  1 23  1  0
  1 24  1  0
  2 25  1  6
  3 26  1  0
  3 27  1  0
  5 28  1  0
 12 29  1  0
 14 30  1  0
 14 31  1  0
 15 32  1  0
 15 33  1  0
M  CHG  5   1   1   9   1  11  -1  18  -1  21  -1
M  END
>  <meeko>  (1) 
{"is_sidechain": [false], "free_energy": -7.779, "intermolecular_energy": -11.19, "internal_energy": -0.939}

$$$$
4dld_ligand
     RDKit          3D

 33 33  0  0  0  0  0  0  0  0999 V2000
    0.5910   34.7600  100.3540 N   0  0  0  0  0  0  0  0  0  0  0  0
   -0.5590   34.9260   99.4070 C   0  0  1  0  0  0  0  0  0  0  0  0
   -1.4540   36.1080   99.8230 C   0  0  0  0  0  0  0  0  0  0  0  0
   -2.9450   35.7770   99.8500 C   0  0  0  0  0  0  0  0  0  0  0  0
   -3.5890   35.6850   98.5910 C   0  0  0  0  0  0  0  0  0  0  0  0
   -4.9460   35.3760   98.4780 C   0  0  0  0  0  0  0  0  0  0  0  0
   -5.6410   35.3250   96.8990 Cl  0  0  0  0  0  0  0  0  0  0  0  0
   -5.6700   35.1610   99.6420 C   0  0  0  0  0  0  0  0  0  0  0  0
   -7.0750   34.8340   99.5880 N   0  0  0  0  0  0  0  0  0  0  0  0
   -7.3970   33.7710   99.0410 O   0  0  0  0  0  0  0  0  0  0  0  0
   -7.8570   35.6310  100.1270 O   0  0  0  0  0  0  0  0  0  0  0  0
   -5.0760   35.2780  100.9050 C   0  0  0  0  0  0  0  0  0  0  0  0
   -3.7090   35.6000  101.0260 C   0  0  0  0  0  0  0  0  0  0  0  0
   -3.1660   35.7260  102.4400 C   0  0  0  0  0  0  0  0  0  0  0  0
   -2.5830   34.4270  102.9930 C   0  0  0  0  0  0  0  0  0  0  0  0
   -3.3990   34.0540  104.2010 C   0  0  0  0  0  0  0  0  0  0  0  0
   -4.6490   33.9250  104.0360 O   0  0  0  0  0  0  0  0  0  0  0  0
   -2.8160   34.0470  105.3230 O   0  0  0  0  0  0  0  0  0  0  0  0
   -0.0660   35.0300   97.9340 C   0  0  0  0  0  0  0  0  0  0  0  0
   -0.5040   34.1770   97.1200 O   0  0  0  0  0  0  0  0  0  0  0  0
    0.7700   35.9760   97.7770 O   0  0  0  0  0  0  0  0  0  0  0  0
    1.2350   35.5770  100.4150 H   0  0  0  0  0  0  0  0  0  0  0  0
    1.2550   34.0010  100.0830 H   0  0  0  0  0  0  0  0  0  0  0  0
    0.2000   34.4910  101.2670 H   0  0  0  0  0  0  0  0  0  0  0  0
   -1.1857   34.0237   99.4622 H   0  0  0  0  0  0  0  0  0  0  0  0
   -1.1531   36.4324  100.8301 H   0  0  0  0  0  0  0  0  0  0  0  0
   -1.3156   36.8945   99.0665 H   0  0  0  0  0  0  0  0  0  0  0  0
   -3.0033   35.8620   97.6769 H   0  0  0  0  0  0  0  0  0  0  0  0
   -5.6810   35.1174  101.8096 H   0  0  0  0  0  0  0  0  0  0  0  0
   -2.3744   36.4898  102.4410 H   0  0  0  0  0  0  0  0  0  0  0  0
   -4.0135   35.9982  103.0862 H   0  0  0  0  0  0  0  0  0  0  0  0
   -2.6463   33.6324  102.2350 H   0  0  0  0  0  0  0  0  0  0  0  0
   -1.5240   34.5563  103.2609 H   0  0  0  0  0  0  0  0  0  0  0  0
  1  2  1  0
  2  3  1  0
  3  4  1  0
  4  5  2  0
  5  6  1  0
  6  7  1  0
  6  8  2  0
  8  9  1  0
  9 10  2  0
  9 11  1  0
  8 12  1  0
 12 13  2  0
 13 14  1  0
 14 15  1  0
 15 16  1  0
 16 17  2  0
 16 18  1  0
  2 19  1  0
 19 20  2  0
 19 21  1  0
 13  4  1  0
  1 22  1  0
  1 23  1  0
  1 24  1  0
  2 25  1  6
  3 26  1  0
  3 27  1  0
  5 28  1  0
 12 29  1  0
 14 30  1  0
 14 31  1  0
 15 32  1  0
 15 33  1  0
M  CHG  5   1   1   9   1  11  -1  18  -1  21  -1
M  END
>  <meeko>  (2) 
{"is_sidechain": [false], "free_energy": -7.611, "intermolecular_energy": -11.218, "internal_energy": -0.67}

$$$$
4dld_ligand
     RDKit          3D

 33 33  0  0  0  0  0  0  0  0999 V2000
    1.0650   37.8860  101.0190 N   0  0  0  0  0  0  0  0  0  0  0  0
   -0.4090   37.6220  101.0810 C   0  0  1  0  0  0  0  0  0  0  0  0
   -0.7070   36.1170  100.9420 C   0  0  0  0  0  0  0  0  0  0  0  0
   -2.0930   35.8100  100.3800 C   0  0  0  0  0  0  0  0  0  0  0  0
   -2.2250   35.8640   98.9700 C   0  0  0  0  0  0  0  0  0  0  0  0
   -3.4360   35.5910   98.3310 C   0  0  0  0  0  0  0  0  0  0  0  0
   -3.4960   35.7220   96.6120 Cl  0  0  0  0  0  0  0  0  0  0  0  0
   -4.5330   35.2630   99.1150 C   0  0  0  0  0  0  0  0  0  0  0  0
   -5.8100   34.9670   98.5100 N   0  0  0  0  0  0  0  0  0  0  0  0
   -6.0780   33.7780   98.2880 O   0  0  0  0  0  0  0  0  0  0  0  0
   -6.5610   35.9270   98.2890 O   0  0  0  0  0  0  0  0  0  0  0  0
   -4.4510   35.2340  100.5120 C   0  0  0  0  0  0  0  0  0  0  0  0
   -3.2340   35.5190  101.1640 C   0  0  0  0  0  0  0  0  0  0  0  0
   -3.2550   35.4830  102.6830 C   0  0  0  0  0  0  0  0  0  0  0  0
   -4.3210   34.5550  103.2630 C   0  0  0  0  0  0  0  0  0  0  0  0
   -3.7360   33.9240  104.4970 C   0  0  0  0  0  0  0  0  0  0  0  0
   -4.3670   32.9480  105.0020 O   0  0  0  0  0  0  0  0  0  0  0  0
   -2.7480   34.4990  105.0370 O   0  0  0  0  0  0  0  0  0  0  0  0
   -1.0420   38.2490  102.3570 C   0  0  0  0  0  0  0  0  0  0  0  0
   -2.1520   38.8250  102.2240 O   0  0  0  0  0  0  0  0  0  0  0  0
   -0.2940   38.1120  103.3760 O   0  0  0  0  0  0  0  0  0  0  0  0
    1.6400   37.3580  101.7100 H   0  0  0  0  0  0  0  0  0  0  0  0
    1.3270   38.8700  101.2520 H   0  0  0  0  0  0  0  0  0  0  0  0
    1.3650   37.7300  100.0480 H   0  0  0  0  0  0  0  0  0  0  0  0
   -0.8867   38.1179  100.2232 H   0  0  0  0  0  0  0  0  0  0  0  0
    0.0444   35.6757  100.2707 H   0  0  0  0  0  0  0  0  0  0  0  0
   -0.6714   35.6896  101.9550 H   0  0  0  0  0  0  0  0  0  0  0  0
   -1.3478   36.1287   98.3613 H   0  0  0  0  0  0  0  0  0  0  0  0
   -5.3433   34.9869  101.1059 H   0  0  0  0  0  0  0  0  0  0  0  0
   -2.2701   35.1429  103.0355 H   0  0  0  0  0  0  0  0  0  0  0  0
   -3.4959   36.5006  103.0243 H   0  0  0  0  0  0  0  0  0  0  0  0
   -5.2208   35.1312  103.5245 H   0  0  0  0  0  0  0  0  0  0  0  0
   -4.6109   33.7868  102.5310 H   0  0  0  0  0  0  0  0  0  0  0  0
  1  2  1  0
  2  3  1  0
  3  4  1  0
  4  5  2  0
  5  6  1  0
  6  7  1  0
  6  8  2  0
  8  9  1  0
  9 10  2  0
  9 11  1  0
  8 12  1  0
 12 13  2  0
 13 14  1  0
 14 15  1  0
 15 16  1  0
 16 17  2  0
 16 18  1  0
  2 19  1  0
 19 20  2  0
 19 21  1  0
 13  4  1  0
  1 22  1  0
  1 23  1  0
  1 24  1  0
  2 25  1  6
  3 26  1  0
  3 27  1  0
  5 28  1  0
 12 29  1  0
 14 30  1  0
 14 31  1  0
 15 32  1  0
 15 33  1  0
M  CHG  5   1   1   9   1  11  -1  18  -1  21  -1
M  END
>  <meeko>  (3) 
{"is_sidechain": [false], "free_energy": -7.565, "intermolecular_energy": -11.08, "internal_energy": -0.741}

$$$$
4dld_ligand
     RDKit          3D

 33 33  0  0  0  0  0  0  0  0999 V2000
    1.2200   34.8290  100.0470 N   0  0  0  0  0  0  0  0  0  0  0  0
   -0.0900   34.9060   99.3240 C   0  0  1  0  0  0  0  0  0  0  0  0
   -0.8760   36.1650   99.7330 C   0  0  0  0  0  0  0  0  0  0  0  0
   -2.3390   35.8980  100.0770 C   0  0  0  0  0  0  0  0  0  0  0  0
   -3.2740   36.0800   99.0280 C   0  0  0  0  0  0  0  0  0  0  0  0
   -4.6400   35.8560   99.2100 C   0  0  0  0  0  0  0  0  0  0  0  0
   -5.6960   36.1430   97.8750 Cl  0  0  0  0  0  0  0  0  0  0  0  0
   -5.0780   35.4480  100.4610 C   0  0  0  0  0  0  0  0  0  0  0  0
   -6.4780   35.1960  100.7070 N   0  0  0  0  0  0  0  0  0  0  0  0
   -7.0120   34.2670  100.0880 O   0  0  0  0  0  0  0  0  0  0  0  0
   -7.0360   35.9120  101.5520 O   0  0  0  0  0  0  0  0  0  0  0  0
   -4.1890   35.2910  101.5320 C   0  0  0  0  0  0  0  0  0  0  0  0
   -2.8100   35.5260  101.3580 C   0  0  0  0  0  0  0  0  0  0  0  0
   -1.9330   35.3510  102.5860 C   0  0  0  0  0  0  0  0  0  0  0  0
   -2.1640   36.4080  103.6650 C   0  0  0  0  0  0  0  0  0  0  0  0
   -1.5270   37.6820  103.1790 C   0  0  0  0  0  0  0  0  0  0  0  0
   -0.3020   37.8560  103.4500 O   0  0  0  0  0  0  0  0  0  0  0  0
   -2.2850   38.5600  102.6740 O   0  0  0  0  0  0  0  0  0  0  0  0
    0.1080   34.7910   97.7840 C   0  0  0  0  0  0  0  0  0  0  0  0
   -0.8250   34.2680   97.1220 O   0  0  0  0  0  0  0  0  0  0  0  0
    1.2460   35.2250   97.4170 O   0  0  0  0  0  0  0  0  0  0  0  0
    1.3070   35.4570  100.8740 H   0  0  0  0  0  0  0  0  0  0  0  0
    2.0380   35.1380   99.4740 H   0  0  0  0  0  0  0  0  0  0  0  0
    1.3860   33.8400  100.2780 H   0  0  0  0  0  0  0  0  0  0  0  0
   -0.7020   34.0427   99.6243 H   0  0  0  0  0  0  0  0  0  0  0  0
   -0.3882   36.6063  100.6146 H   0  0  0  0  0  0  0  0  0  0  0  0
   -0.8710   36.8400   98.8644 H   0  0  0  0  0  0  0  0  0  0  0  0
   -2.9132   36.4072   98.0417 H   0  0  0  0  0  0  0  0  0  0  0  0
   -4.5699   34.9819  102.5166 H   0  0  0  0  0  0  0  0  0  0  0  0
   -2.1381   34.3615  103.0204 H   0  0  0  0  0  0  0  0  0  0  0  0
   -0.8901   35.4566  102.2524 H   0  0  0  0  0  0  0  0  0  0  0  0
   -3.2424   36.5603  103.8195 H   0  0  0  0  0  0  0  0  0  0  0  0
   -1.7262   36.0918  104.6233 H   0  0  0  0  0  0  0  0  0  0  0  0
  1  2  1  0
  2  3  1  0
  3  4  1  0
  4  5  2  0
  5  6  1  0
  6  7  1  0
  6  8  2  0
  8  9  1  0
  9 10  2  0
  9 11  1  0
  8 12  1  0
 12 13  2  0
 13 14  1  0
 14 15  1  0
 15 16  1  0
 16 17  2  0
 16 18  1  0
  2 19  1  0
 19 20  2  0
 19 21  1  0
 13  4  1  0
  1 22  1  0
  1 23  1  0
  1 24  1  0
  2 25  1  1
  3 26  1  0
  3 27  1  0
  5 28  1  0
 12 29  1  0
 14 30  1  0
 14 31  1  0
 15 32  1  0
 15 33  1  0
M  CHG  5   1   1   9   1  11  -1  18  -1  21  -1
M  END
>  <meeko>  (4) 
{"is_sidechain": [false], "free_energy": -7.497, "intermolecular_energy": -10.953, "internal_energy": -0.771}

$$$$
4dld_ligand
     RDKit          3D

 33 33  0  0  0  0  0  0  0  0999 V2000
   -1.5080   33.4630  103.5850 N   0  0  0  0  0  0  0  0  0  0  0  0
   -2.3560   34.5730  104.1280 C   0  0  1  0  0  0  0  0  0  0  0  0
   -2.1360   35.8760  103.3380 C   0  0  0  0  0  0  0  0  0  0  0  0
   -1.4630   35.6730  101.9830 C   0  0  0  0  0  0  0  0  0  0  0  0
   -2.3270   35.5120  100.8710 C   0  0  0  0  0  0  0  0  0  0  0  0
   -1.8370   35.3320   99.5760 C   0  0  0  0  0  0  0  0  0  0  0  0
   -2.9770   35.1090   98.2990 Cl  0  0  0  0  0  0  0  0  0  0  0  0
   -0.4630   35.3080   99.3910 C   0  0  0  0  0  0  0  0  0  0  0  0
    0.1020   35.1290   98.0740 N   0  0  0  0  0  0  0  0  0  0  0  0
   -0.0900   34.0440   97.5090 O   0  0  0  0  0  0  0  0  0  0  0  0
    0.7100   36.0950   97.5900 O   0  0  0  0  0  0  0  0  0  0  0  0
    0.4230   35.4280  100.4690 C   0  0  0  0  0  0  0  0  0  0  0  0
   -0.0650   35.5990  101.7800 C   0  0  0  0  0  0  0  0  0  0  0  0
    0.9760   35.6970  102.8830 C   0  0  0  0  0  0  0  0  0  0  0  0
    2.2260   34.8570  102.6260 C   0  0  0  0  0  0  0  0  0  0  0  0
    2.0520   33.5640  103.3760 C   0  0  0  0  0  0  0  0  0  0  0  0
    2.8260   33.3560  104.3580 O   0  0  0  0  0  0  0  0  0  0  0  0
    1.2600   32.7060  102.8880 O   0  0  0  0  0  0  0  0  0  0  0  0
   -3.8540   34.1560  104.2000 C   0  0  0  0  0  0  0  0  0  0  0  0
   -4.6040   34.5440  103.2680 O   0  0  0  0  0  0  0  0  0  0  0  0
   -4.1130   33.4930  105.2540 O   0  0  0  0  0  0  0  0  0  0  0  0
   -0.9840   33.6920  102.7140 H   0  0  0  0  0  0  0  0  0  0  0  0
   -2.0540   32.6270  103.2770 H   0  0  0  0  0  0  0  0  0  0  0  0
   -0.8960   33.1440  104.3480 H   0  0  0  0  0  0  0  0  0  0  0  0
   -2.0398   34.7753  105.1620 H   0  0  0  0  0  0  0  0  0  0  0  0
   -3.1150   36.3489  103.1708 H   0  0  0  0  0  0  0  0  0  0  0  0
   -1.4606   36.5028  103.9387 H   0  0  0  0  0  0  0  0  0  0  0  0
   -3.4149   35.5294  101.0329 H   0  0  0  0  0  0  0  0  0  0  0  0
    1.5078   35.3885  100.2911 H   0  0  0  0  0  0  0  0  0  0  0  0
    1.2795   36.7497  102.9812 H   0  0  0  0  0  0  0  0  0  0  0  0
    0.5099   35.3066  103.7997 H   0  0  0  0  0  0  0  0  0  0  0  0
    2.3318   34.6575  101.5494 H   0  0  0  0  0  0  0  0  0  0  0  0
    3.1295   35.3864  102.9627 H   0  0  0  0  0  0  0  0  0  0  0  0
  1  2  1  0
  2  3  1  0
  3  4  1  0
  4  5  2  0
  5  6  1  0
  6  7  1  0
  6  8  2  0
  8  9  1  0
  9 10  2  0
  9 11  1  0
  8 12  1  0
 12 13  2  0
 13 14  1  0
 14 15  1  0
 15 16  1  0
 16 17  2  0
 16 18  1  0
  2 19  1  0
 19 20  2  0
 19 21  1  0
 13  4  1  0
  1 22  1  0
  1 23  1  0
  1 24  1  0
  2 25  1  1
  3 26  1  0
  3 27  1  0
  5 28  1  0
 12 29  1  0
 14 30  1  0
 14 31  1  0
 15 32  1  0
 15 33  1  0
M  CHG  5   1   1   9   1  11  -1  18  -1  21  -1
M  END
>  <meeko>  (5) 
{"is_sidechain": [false], "free_energy": -7.381, "intermolecular_energy": -10.971, "internal_energy": -0.586}

$$$$
4dld_ligand
     RDKit          3D

 33 33  0  0  0  0  0  0  0  0999 V2000
    1.1990   34.8750   98.9950 N   0  0  0  0  0  0  0  0  0  0  0  0
   -0.2820   34.8900   99.2220 C   0  0  1  0  0  0  0  0  0  0  0  0
   -0.6780   35.9920  100.2230 C   0  0  0  0  0  0  0  0  0  0  0  0
   -1.4830   35.4850  101.4170 C   0  0  0  0  0  0  0  0  0  0  0  0
   -2.8930   35.5140  101.2810 C   0  0  0  0  0  0  0  0  0  0  0  0
   -3.7410   35.0660  102.2960 C   0  0  0  0  0  0  0  0  0  0  0  0
   -5.4440   35.1790  102.0420 Cl  0  0  0  0  0  0  0  0  0  0  0  0
   -3.1700   34.5870  103.4660 C   0  0  0  0  0  0  0  0  0  0  0  0
   -3.9960   34.1060  104.5480 N   0  0  0  0  0  0  0  0  0  0  0  0
   -4.3980   34.9350  105.3750 O   0  0  0  0  0  0  0  0  0  0  0  0
   -4.2720   32.8980  104.5480 O   0  0  0  0  0  0  0  0  0  0  0  0
   -1.7820   34.5750  103.6510 C   0  0  0  0  0  0  0  0  0  0  0  0
   -0.9200   35.0360  102.6350 C   0  0  0  0  0  0  0  0  0  0  0  0
    0.5670   35.0030  102.9420 C   0  0  0  0  0  0  0  0  0  0  0  0
    1.2550   33.7050  102.5220 C   0  0  0  0  0  0  0  0  0  0  0  0
    2.7080   34.0260  102.2990 C   0  0  0  0  0  0  0  0  0  0  0  0
    2.9800   34.8950  101.4180 O   0  0  0  0  0  0  0  0  0  0  0  0
    3.5640   33.3030  102.8860 O   0  0  0  0  0  0  0  0  0  0  0  0
   -1.0590   34.9870   97.8770 C   0  0  0  0  0  0  0  0  0  0  0  0
   -2.1860   34.4310   97.8230 O   0  0  0  0  0  0  0  0  0  0  0  0
   -0.3930   35.6040   96.9860 O   0  0  0  0  0  0  0  0  0  0  0  0
    1.5070   34.4180   98.1110 H   0  0  0  0  0  0  0  0  0  0  0  0
    1.7290   34.3190   99.7030 H   0  0  0  0  0  0  0  0  0  0  0  0
    1.5320   35.8440   99.0810 H   0  0  0  0  0  0  0  0  0  0  0  0
   -0.5716   33.9321   99.6786 H   0  0  0  0  0  0  0  0  0  0  0  0
    0.2415   36.4632  100.6005 H   0  0  0  0  0  0  0  0  0  0  0  0
   -1.3234   36.6984   99.6804 H   0  0  0  0  0  0  0  0  0  0  0  0
   -3.3322   35.9004  100.3494 H   0  0  0  0  0  0  0  0  0  0  0  0
   -1.3608   34.2029  104.5966 H   0  0  0  0  0  0  0  0  0  0  0  0
    1.0490   35.8380  102.4125 H   0  0  0  0  0  0  0  0  0  0  0  0
    0.6703   35.0813  104.0343 H   0  0  0  0  0  0  0  0  0  0  0  0
    1.1529   32.9501  103.3155 H   0  0  0  0  0  0  0  0  0  0  0  0
    0.7991   33.2987  101.6071 H   0  0  0  0  0  0  0  0  0  0  0  0
  1  2  1  0
  2  3  1  0
  3  4  1  0
  4  5  2  0
  5  6  1  0
  6  7  1  0
  6  8  2  0
  8  9  1  0
  9 10  2  0
  9 11  1  0
  8 12  1  0
 12 13  2  0
 13 14  1  0
 14 15  1  0
 15 16  1  0
 16 17  2  0
 16 18  1  0
  2 19  1  0
 19 20  2  0
 19 21  1  0
 13  4  1  0
  1 22  1  0
  1 23  1  0
  1 24  1  0
  2 25  1  1
  3 26  1  0
  3 27  1  0
  5 28  1  0
 12 29  1  0
 14 30  1  0
 14 31  1  0
 15 32  1  0
 15 33  1  0
M  CHG  5   1   1   9   1  11  -1  18  -1  21  -1
M  END
>  <meeko>  (6) 
{"is_sidechain": [false], "free_energy": -7.221, "intermolecular_energy": -10.209, "internal_energy": -1.118}

$$$$
4dld_ligand
     RDKit          3D

 33 33  0  0  0  0  0  0  0  0999 V2000
    1.0510   37.3360  101.0880 N   0  0  0  0  0  0  0  0  0  0  0  0
    1.0780   36.2440  102.1130 C   0  0  1  0  0  0  0  0  0  0  0  0
    0.4830   34.9400  101.5510 C   0  0  0  0  0  0  0  0  0  0  0  0
   -0.8010   35.1400  100.7490 C   0  0  0  0  0  0  0  0  0  0  0  0
   -0.6750   35.0850   99.3390 C   0  0  0  0  0  0  0  0  0  0  0  0
   -1.7760   35.2400   98.4930 C   0  0  0  0  0  0  0  0  0  0  0  0
   -1.5060   35.1930   96.7900 Cl  0  0  0  0  0  0  0  0  0  0  0  0
   -3.0200   35.4570   99.0680 C   0  0  0  0  0  0  0  0  0  0  0  0
   -4.1950   35.6190   98.2440 N   0  0  0  0  0  0  0  0  0  0  0  0
   -4.3980   36.7350   97.7470 O   0  0  0  0  0  0  0  0  0  0  0  0
   -4.8970   34.6140   98.0660 O   0  0  0  0  0  0  0  0  0  0  0  0
   -3.1780   35.5520  100.4560 C   0  0  0  0  0  0  0  0  0  0  0  0
   -2.0700   35.4080  101.3140 C   0  0  0  0  0  0  0  0  0  0  0  0
   -2.3430   35.5510  102.8020 C   0  0  0  0  0  0  0  0  0  0  0  0
   -2.4480   34.2170  103.5400 C   0  0  0  0  0  0  0  0  0  0  0  0
   -3.8450   34.1240  104.0900 C   0  0  0  0  0  0  0  0  0  0  0  0
   -3.9900   33.5420  105.2060 O   0  0  0  0  0  0  0  0  0  0  0  0
   -4.7960   34.4880  103.3400 O   0  0  0  0  0  0  0  0  0  0  0  0
    2.5090   36.0520  102.6970 C   0  0  0  0  0  0  0  0  0  0  0  0
    3.4740   36.4420  101.9910 O   0  0  0  0  0  0  0  0  0  0  0  0
    2.4880   35.4710  103.8280 O   0  0  0  0  0  0  0  0  0  0  0  0
    1.5080   37.1030  100.1800 H   0  0  0  0  0  0  0  0  0  0  0  0
    1.5830   38.1900  101.3670 H   0  0  0  0  0  0  0  0  0  0  0  0
    0.0710   37.6290  100.9770 H   0  0  0  0  0  0  0  0  0  0  0  0
    0.4364   36.5450  102.9543 H   0  0  0  0  0  0  0  0  0  0  0  0
    1.2318   34.4724  100.8947 H   0  0  0  0  0  0  0  0  0  0  0  0
    0.2248   34.3092  102.4144 H   0  0  0  0  0  0  0  0  0  0  0  0
    0.3182   34.9154   98.8976 H   0  0  0  0  0  0  0  0  0  0  0  0
   -4.1754   35.7406  100.8799 H   0  0  0  0  0  0  0  0  0  0  0  0
   -1.5240   36.1322  103.2507 H   0  0  0  0  0  0  0  0  0  0  0  0
   -3.3177   36.0508  102.9027 H   0  0  0  0  0  0  0  0  0  0  0  0
   -2.2601   33.3855  102.8448 H   0  0  0  0  0  0  0  0  0  0  0  0
   -1.7044   34.1574  104.3484 H   0  0  0  0  0  0  0  0  0  0  0  0
  1  2  1  0
  2  3  1  0
  3  4  1  0
  4  5  2  0
  5  6  1  0
  6  7  1  0
  6  8  2  0
  8  9  1  0
  9 10  2  0
  9 11  1  0
  8 12  1  0
 12 13  2  0
 13 14  1  0
 14 15  1  0
 15 16  1  0
 16 17  2  0
 16 18  1  0
  2 19  1  0
 19 20  2  0
 19 21  1  0
 13  4  1  0
  1 22  1  0
  1 23  1  0
  1 24  1  0
  2 25  1  1
  3 26  1  0
  3 27  1  0
  5 28  1  0
 12 29  1  0
 14 30  1  0
 14 31  1  0
 15 32  1  0
 15 33  1  0
M  CHG  5   1   1   9   1  11  -1  18  -1  21  -1
M  END
>  <meeko>  (7) 
{"is_sidechain": [false], "free_energy": -7.166, "intermolecular_energy": -10.692, "internal_energy": -0.555}

$$$$
4dld_ligand
     RDKit          3D

 33 33  0  0  0  0  0  0  0  0999 V2000
   -0.7180   35.1010  103.5900 N   0  0  0  0  0  0  0  0  0  0  0  0
   -1.0590   36.2030  102.6330 C   0  0  1  0  0  0  0  0  0  0  0  0
   -2.4610   35.9980  102.0300 C   0  0  0  0  0  0  0  0  0  0  0  0
   -2.4520   35.6750  100.5380 C   0  0  0  0  0  0  0  0  0  0  0  0
   -1.1800   35.6050   99.9180 C   0  0  0  0  0  0  0  0  0  0  0  0
   -1.0350   35.3050   98.5620 C   0  0  0  0  0  0  0  0  0  0  0  0
    0.5580   35.2810   97.9000 Cl  0  0  0  0  0  0  0  0  0  0  0  0
   -2.1810   35.0760   97.8140 C   0  0  0  0  0  0  0  0  0  0  0  0
   -2.0930   34.7570   96.4090 N   0  0  0  0  0  0  0  0  0  0  0  0
   -2.1050   35.6980   95.6040 O   0  0  0  0  0  0  0  0  0  0  0  0
   -1.9760   33.5590   96.1130 O   0  0  0  0  0  0  0  0  0  0  0  0
   -3.4570   35.1710   98.3830 C   0  0  0  0  0  0  0  0  0  0  0  0
   -3.6110   35.4840   99.7480 C   0  0  0  0  0  0  0  0  0  0  0  0
   -5.0360   35.5860  100.2630 C   0  0  0  0  0  0  0  0  0  0  0  0
   -6.0960   35.4830   99.1680 C   0  0  0  0  0  0  0  0  0  0  0  0
   -7.1910   34.5950   99.6940 C   0  0  0  0  0  0  0  0  0  0  0  0
   -7.7560   33.8200   98.8650 O   0  0  0  0  0  0  0  0  0  0  0  0
   -7.5830   34.7880  100.8810 O   0  0  0  0  0  0  0  0  0  0  0  0
   -0.8840   37.6010  103.2950 C   0  0  0  0  0  0  0  0  0  0  0  0
    0.2680   38.1060  103.2770 O   0  0  0  0  0  0  0  0  0  0  0  0
   -1.9680   38.0220  103.8110 O   0  0  0  0  0  0  0  0  0  0  0  0
   -0.1550   34.3230  103.1870 H   0  0  0  0  0  0  0  0  0  0  0  0
   -1.5500   34.5820  103.9500 H   0  0  0  0  0  0  0  0  0  0  0  0
   -0.2710   35.5340  104.4100 H   0  0  0  0  0  0  0  0  0  0  0  0
   -0.3476   36.1660  101.7949 H   0  0  0  0  0  0  0  0  0  0  0  0
   -2.9483   35.1671  102.5612 H   0  0  0  0  0  0  0  0  0  0  0  0
   -3.0010   36.9491  102.1473 H   0  0  0  0  0  0  0  0  0  0  0  0
   -0.2803   35.7925  100.5225 H   0  0  0  0  0  0  0  0  0  0  0  0
   -4.3465   34.9998   97.7590 H   0  0  0  0  0  0  0  0  0  0  0  0
   -5.2029   34.7730  100.9849 H   0  0  0  0  0  0  0  0  0  0  0  0
   -5.1416   36.5817  100.7185 H   0  0  0  0  0  0  0  0  0  0  0  0
   -6.4977   36.4806   98.9367 H   0  0  0  0  0  0  0  0  0  0  0  0
   -5.6657   35.0685   98.2444 H   0  0  0  0  0  0  0  0  0  0  0  0
  1  2  1  0
  2  3  1  0
  3  4  1  0
  4  5  2  0
  5  6  1  0
  6  7  1  0
  6  8  2  0
  8  9  1  0
  9 10  2  0
  9 11  1  0
  8 12  1  0
 12 13  2  0
 13 14  1  0
 14 15  1  0
 15 16  1  0
 16 17  2  0
 16 18  1  0
  2 19  1  0
 19 20  2  0
 19 21  1  0
 13  4  1  0
  1 22  1  0
  1 23  1  0
  1 24  1  0
  2 25  1  6
  3 26  1  0
  3 27  1  0
  5 28  1  0
 12 29  1  0
 14 30  1  0
 14 31  1  0
 15 32  1  0
 15 33  1  0
M  CHG  5   1   1   9   1  11  -1  18  -1  21  -1
M  END
>  <meeko>  (8) 
{"is_sidechain": [false], "free_energy": -7.119, "intermolecular_energy": -10.517, "internal_energy": -0.662}

$$$$
4dld_ligand
     RDKit          3D

 33 33  0  0  0  0  0  0  0  0999 V2000
   -6.6810   36.4180   97.9720 N   0  0  0  0  0  0  0  0  0  0  0  0
   -6.1530   35.2610   98.7660 C   0  0  1  0  0  0  0  0  0  0  0  0
   -5.0410   35.7120   99.7300 C   0  0  0  0  0  0  0  0  0  0  0  0
   -3.6280   35.4890   99.1950 C   0  0  0  0  0  0  0  0  0  0  0  0
   -3.5240   35.1350   97.8270 C   0  0  0  0  0  0  0  0  0  0  0  0
   -2.2900   34.9160   97.2130 C   0  0  0  0  0  0  0  0  0  0  0  0
   -2.2780   34.4520   95.5510 Cl  0  0  0  0  0  0  0  0  0  0  0  0
   -1.1420   35.0500   97.9810 C   0  0  0  0  0  0  0  0  0  0  0  0
    0.1630   34.8400   97.4000 N   0  0  0  0  0  0  0  0  0  0  0  0
    0.9620   35.7850   97.4270 O   0  0  0  0  0  0  0  0  0  0  0  0
    0.4000   33.7110   96.9460 O   0  0  0  0  0  0  0  0  0  0  0  0
   -1.2060   35.3640   99.3440 C   0  0  0  0  0  0  0  0  0  0  0  0
   -2.4500   35.5750   99.9730 C   0  0  0  0  0  0  0  0  0  0  0  0
   -2.4130   35.8890  101.4590 C   0  0  0  0  0  0  0  0  0  0  0  0
   -1.2870   36.8410  101.8600 C   0  0  0  0  0  0  0  0  0  0  0  0
   -1.9180   37.9780  102.6180 C   0  0  0  0  0  0  0  0  0  0  0  0
   -2.3110   38.9750  101.9420 O   0  0  0  0  0  0  0  0  0  0  0  0
   -1.8730   37.9360  103.8810 O   0  0  0  0  0  0  0  0  0  0  0  0
   -7.3040   34.4980   99.4850 C   0  0  0  0  0  0  0  0  0  0  0  0
   -8.0700   33.8050   98.7680 O   0  0  0  0  0  0  0  0  0  0  0  0
   -7.3210   34.7320  100.7350 O   0  0  0  0  0  0  0  0  0  0  0  0
   -6.0510   37.2470   97.9260 H   0  0  0  0  0  0  0  0  0  0  0  0
   -7.5460   36.8450   98.3730 H   0  0  0  0  0  0  0  0  0  0  0  0
   -6.9390   36.0600   97.0430 H   0  0  0  0  0  0  0  0  0  0  0  0
   -5.6929   34.5445   98.0696 H   0  0  0  0  0  0  0  0  0  0  0  0
   -5.1702   36.7861   99.9290 H   0  0  0  0  0  0  0  0  0  0  0  0
   -5.1384   35.0987  100.6380 H   0  0  0  0  0  0  0  0  0  0  0  0
   -4.4428   35.0297   97.2314 H   0  0  0  0  0  0  0  0  0  0  0  0
   -0.2780   35.4467   99.9289 H   0  0  0  0  0  0  0  0  0  0  0  0
   -3.3721   36.3481  101.7405 H   0  0  0  0  0  0  0  0  0  0  0  0
   -2.2313   34.9390  101.9829 H   0  0  0  0  0  0  0  0  0  0  0  0
   -0.5606   36.3182  102.4996 H   0  0  0  0  0  0  0  0  0  0  0  0
   -0.7523   37.2109  100.9727 H   0  0  0  0  0  0  0  0  0  0  0  0
  1  2  1  0
  2  3  1  0
  3  4  1  0
  4  5  2  0
  5  6  1  0
  6  7  1  0
  6  8  2  0
  8  9  1  0
  9 10  2  0
  9 11  1  0
  8 12  1  0
 12 13  2  0
 13 14  1  0
 14 15  1  0
 15 16  1  0
 16 17  2  0
 16 18  1  0
  2 19  1  0
 19 20  2  0
 19 21  1  0
 13  4  1  0
  1 22  1  0
  1 23  1  0
  1 24  1  0
  2 25  1  6
  3 26  1  0
  3 27  1  0
  5 28  1  0
 12 29  1  0
 14 30  1  0
 14 31  1  0
 15 32  1  0
 15 33  1  0
M  CHG  5   1   1   9   1  11  -1  18  -1  21  -1
M  END
>  <meeko>  (9) 
{"is_sidechain": [false], "free_energy": -7.095, "intermolecular_energy": -10.717, "internal_energy": -0.429}

$$$$
