4m0z_ligand
     RDKit          3D

 39 41  0  0  0  0  0  0  0  0999 V2000
    2.4270    4.7050   22.3710 C   0  0  0  0  0  0  0  0  0  0  0  0
    3.5170    5.6000   22.5580 O   0  0  0  0  0  0  0  0  0  0  0  0
    4.5890    5.1300   23.2670 C   0  0  0  0  0  0  0  0  0  0  0  0
    4.5320    4.4020   24.4440 C   0  0  0  0  0  0  0  0  0  0  0  0
    5.7170    4.0100   25.0650 C   0  0  0  0  0  0  0  0  0  0  0  0
    6.9730    4.3230   24.5180 C   0  0  0  0  0  0  0  0  0  0  0  0
    8.1210    3.9260   25.2160 C   0  0  0  0  0  0  0  0  0  0  0  0
    9.3890    4.2200   24.7370 C   0  0  0  0  0  0  0  0  0  0  0  0
    9.5310    4.9030   23.5350 C   0  0  0  0  0  0  0  0  0  0  0  0
    8.4010    5.3030   22.7900 C   0  0  0  0  0  0  0  0  0  0  0  0
    8.6430    5.9380   21.5250 N   0  0  0  0  0  0  0  0  0  0  0  0
    8.2030    5.5190   20.2840 C   0  0  0  0  0  0  0  0  0  0  0  0
    8.5960    6.4530   19.3610 C   0  0  0  0  0  0  0  0  0  0  0  0
    8.3870    6.4600   17.9920 N   0  0  0  0  0  0  0  0  0  0  0  0
    7.1730    6.5450   17.3690 C   0  0  0  0  0  0  0  0  0  0  0  0
    7.2900    6.5520   16.0100 N   0  0  0  0  0  0  0  0  0  0  0  0
    6.0650    6.6030   17.8870 O   0  0  0  0  0  0  0  0  0  0  0  0
    9.2810    7.4340   20.1170 C   0  0  0  0  0  0  0  0  0  0  0  0
    9.9020    8.6600   19.6050 C   0  0  0  0  0  0  0  0  0  0  0  0
   11.0550    9.0220   20.2420 N   0  0  0  0  0  0  0  0  0  0  0  0
    9.4330    9.3200   18.6800 O   0  0  0  0  0  0  0  0  0  0  0  0
    9.3080    7.1170   21.4230 N   0  0  0  0  0  0  0  0  0  0  0  0
    7.0780    5.0350   23.2920 C   0  0  0  0  0  0  0  0  0  0  0  0
    5.8400    5.4400   22.7150 C   0  0  0  0  0  0  0  0  0  0  0  0
    2.0407    4.3878   23.3509 H   0  0  0  0  0  0  0  0  0  0  0  0
    1.6288    5.2117   21.8088 H   0  0  0  0  0  0  0  0  0  0  0  0
    2.7687    3.8235   21.8088 H   0  0  0  0  0  0  0  0  0  0  0  0
    3.5601    4.1355   24.8849 H   0  0  0  0  0  0  0  0  0  0  0  0
    5.6677    3.4421   26.0057 H   0  0  0  0  0  0  0  0  0  0  0  0
    8.0149    3.3716   26.1601 H   0  0  0  0  0  0  0  0  0  0  0  0
   10.2789    3.9137   25.3064 H   0  0  0  0  0  0  0  0  0  0  0  0
   10.5383    5.1351   23.1590 H   0  0  0  0  0  0  0  0  0  0  0  0
    7.6376    4.5991   20.0740 H   0  0  0  0  0  0  0  0  0  0  0  0
    9.2080    6.3120   17.4140 H   0  0  0  0  0  0  0  0  0  0  0  0
    6.4080    6.7250   15.5440 H   0  0  0  0  0  0  0  0  0  0  0  0
    8.0730    7.0550   15.6160 H   0  0  0  0  0  0  0  0  0  0  0  0
   11.3940    8.4460   21.0050 H   0  0  0  0  0  0  0  0  0  0  0  0
   11.5520    9.8530   19.9600 H   0  0  0  0  0  0  0  0  0  0  0  0
    5.8671    6.0280   21.7857 H   0  0  0  0  0  0  0  0  0  0  0  0
  1  2  1  0
  2  3  1  0
  3  4  2  0
  4  5  1  0
  5  6  2  0
  6  7  1  0
  7  8  2  0
  8  9  1  0
  9 10  2  0
 10 11  1  0
 11 12  1  0
 12 13  2  0
 13 14  1  0
 14 15  1  0
 15 16  1  0
 15 17  2  0
 13 18  1  0
 18 19  1  0
 19 20  1  0
 19 21  2  0
 18 22  2  0
 10 23  1  0
 23 24  2  0
 24  3  1  0
 23  6  1  0
 22 11  1  0
  1 25  1  0
  1 26  1  0
  1 27  1  0
  4 28  1  0
  5 29  1  0
  7 30  1  0
  8 31  1  0
  9 32  1  0
 12 33  1  0
 14 34  1  0
 16 35  1  0
 16 36  1  0
 20 37  1  0
 20 38  1  0
 24 39  1  0
M  END
>  <meeko>  (1) 
{"is_sidechain": [false], "free_energy": -7.73, "intermolecular_energy": -9.538, "internal_energy": -0.747}

$$$$
4m0z_ligand
     RDKit          3D

 39 41  0  0  0  0  0  0  0  0999 V2000
   10.9060    3.9000   23.7760 C   0  0  0  0  0  0  0  0  0  0  0  0
   10.1890    3.8770   25.0050 O   0  0  0  0  0  0  0  0  0  0  0  0
    8.8300    4.0220   24.9310 C   0  0  0  0  0  0  0  0  0  0  0  0
    7.9150    3.6280   25.8930 C   0  0  0  0  0  0  0  0  0  0  0  0
    6.5530    3.8230   25.6640 C   0  0  0  0  0  0  0  0  0  0  0  0
    6.0840    4.4270   24.4850 C   0  0  0  0  0  0  0  0  0  0  0  0
    4.7010    4.5580   24.3100 C   0  0  0  0  0  0  0  0  0  0  0  0
    4.1750    5.1290   23.1600 C   0  0  0  0  0  0  0  0  0  0  0  0
    5.0310    5.5980   22.1690 C   0  0  0  0  0  0  0  0  0  0  0  0
    6.4310    5.5040   22.3150 C   0  0  0  0  0  0  0  0  0  0  0  0
    7.2370    6.0790   21.2760 N   0  0  0  0  0  0  0  0  0  0  0  0
    7.2380    5.7380   19.9370 C   0  0  0  0  0  0  0  0  0  0  0  0
    8.1030    6.5830   19.2890 C   0  0  0  0  0  0  0  0  0  0  0  0
    8.4340    6.6190   17.9440 N   0  0  0  0  0  0  0  0  0  0  0  0
    7.8080    7.3700   16.9870 C   0  0  0  0  0  0  0  0  0  0  0  0
    8.3760    7.2120   15.7570 N   0  0  0  0  0  0  0  0  0  0  0  0
    6.8450    8.1110   17.1250 O   0  0  0  0  0  0  0  0  0  0  0  0
    8.6020    7.4300   20.3060 C   0  0  0  0  0  0  0  0  0  0  0  0
    9.5660    8.5230   20.1420 C   0  0  0  0  0  0  0  0  0  0  0  0
   10.3040    8.8020   21.2580 N   0  0  0  0  0  0  0  0  0  0  0  0
    9.7060    9.1480   19.0940 O   0  0  0  0  0  0  0  0  0  0  0  0
    8.0770    7.1210   21.5050 N   0  0  0  0  0  0  0  0  0  0  0  0
    6.9900    4.8810   23.4880 C   0  0  0  0  0  0  0  0  0  0  0  0
    8.3670    4.6290   23.7550 C   0  0  0  0  0  0  0  0  0  0  0  0
   11.9860    3.9346   23.9821 H   0  0  0  0  0  0  0  0  0  0  0  0
   10.6719    2.9939   23.1979 H   0  0  0  0  0  0  0  0  0  0  0  0
   10.6143    4.7893   23.1979 H   0  0  0  0  0  0  0  0  0  0  0  0
    8.2594    3.1653   26.8296 H   0  0  0  0  0  0  0  0  0  0  0  0
    5.8286    3.4961   26.4245 H   0  0  0  0  0  0  0  0  0  0  0  0
    4.0201    4.2023   25.0973 H   0  0  0  0  0  0  0  0  0  0  0  0
    3.0855    5.2105   23.0325 H   0  0  0  0  0  0  0  0  0  0  0  0
    4.6101    6.0488   21.2581 H   0  0  0  0  0  0  0  0  0  0  0  0
    6.6499    4.9324   19.4731 H   0  0  0  0  0  0  0  0  0  0  0  0
    9.1550    5.9710   17.6440 H   0  0  0  0  0  0  0  0  0  0  0  0
    7.9900    7.8450   15.0660 H   0  0  0  0  0  0  0  0  0  0  0  0
    9.3810    7.1210   15.7200 H   0  0  0  0  0  0  0  0  0  0  0  0
   10.1420    8.2600   22.1000 H   0  0  0  0  0  0  0  0  0  0  0  0
   10.9910    9.5400   21.2400 H   0  0  0  0  0  0  0  0  0  0  0  0
    9.1068    4.9269   22.9973 H   0  0  0  0  0  0  0  0  0  0  0  0
  1  2  1  0
  2  3  1  0
  3  4  2  0
  4  5  1  0
  5  6  2  0
  6  7  1  0
  7  8  2  0
  8  9  1  0
  9 10  2  0
 10 11  1  0
 11 12  1  0
 12 13  2  0
 13 14  1  0
 14 15  1  0
 15 16  1  0
 15 17  2  0
 13 18  1  0
 18 19  1  0
 19 20  1  0
 19 21  2  0
 18 22  2  0
 10 23  1  0
 23 24  2  0
 24  3  1  0
 23  6  1  0
 22 11  1  0
  1 25  1  0
  1 26  1  0
  1 27  1  0
  4 28  1  0
  5 29  1  0
  7 30  1  0
  8 31  1  0
  9 32  1  0
 12 33  1  0
 14 34  1  0
 16 35  1  0
 16 36  1  0
 20 37  1  0
 20 38  1  0
 24 39  1  0
M  END
>  <meeko>  (2) 
{"is_sidechain": [false], "free_energy": -7.572, "intermolecular_energy": -9.244, "internal_energy": -0.847}

$$$$
4m0z_ligand
     RDKit          3D

 39 41  0  0  0  0  0  0  0  0999 V2000
   11.0540    3.8360   23.7730 C   0  0  0  0  0  0  0  0  0  0  0  0
   10.4030    3.9560   25.0320 O   0  0  0  0  0  0  0  0  0  0  0  0
    9.0360    4.0140   25.0190 C   0  0  0  0  0  0  0  0  0  0  0  0
    8.1870    3.4440   25.9540 C   0  0  0  0  0  0  0  0  0  0  0  0
    6.8080    3.5700   25.7930 C   0  0  0  0  0  0  0  0  0  0  0  0
    6.2540    4.2750   24.7110 C   0  0  0  0  0  0  0  0  0  0  0  0
    4.8590    4.3290   24.5960 C   0  0  0  0  0  0  0  0  0  0  0  0
    4.2530    4.9940   23.5400 C   0  0  0  0  0  0  0  0  0  0  0  0
    5.0360    5.6360   22.5880 C   0  0  0  0  0  0  0  0  0  0  0  0
    6.4440    5.6230   22.6780 C   0  0  0  0  0  0  0  0  0  0  0  0
    7.1690    6.3730   21.6920 N   0  0  0  0  0  0  0  0  0  0  0  0
    8.1460    7.3240   21.9200 C   0  0  0  0  0  0  0  0  0  0  0  0
    8.6240    7.7350   20.7020 C   0  0  0  0  0  0  0  0  0  0  0  0
    9.6040    8.6750   20.4290 N   0  0  0  0  0  0  0  0  0  0  0  0
   10.8690    8.4050   19.9830 C   0  0  0  0  0  0  0  0  0  0  0  0
   11.5970    9.5400   19.7820 N   0  0  0  0  0  0  0  0  0  0  0  0
   11.3730    7.3100   19.7710 O   0  0  0  0  0  0  0  0  0  0  0  0
    7.8860    6.9830   19.7580 C   0  0  0  0  0  0  0  0  0  0  0  0
    8.0150    7.0410   18.2980 C   0  0  0  0  0  0  0  0  0  0  0  0
    9.0330    6.2870   17.7860 N   0  0  0  0  0  0  0  0  0  0  0  0
    7.2770    7.7120   17.5800 O   0  0  0  0  0  0  0  0  0  0  0  0
    7.0080    6.1630   20.3600 N   0  0  0  0  0  0  0  0  0  0  0  0
    7.0880    4.9070   23.7490 C   0  0  0  0  0  0  0  0  0  0  0  0
    8.4880    4.7210   23.9400 C   0  0  0  0  0  0  0  0  0  0  0  0
   12.1245    3.6387   23.9311 H   0  0  0  0  0  0  0  0  0  0  0  0
   10.6076    3.0050   23.2071 H   0  0  0  0  0  0  0  0  0  0  0  0
   10.9333    4.7715   23.2071 H   0  0  0  0  0  0  0  0  0  0  0  0
    8.5974    2.8970   26.8156 H   0  0  0  0  0  0  0  0  0  0  0  0
    6.1371    3.1062   26.5311 H   0  0  0  0  0  0  0  0  0  0  0  0
    4.2340    3.8362   25.3552 H   0  0  0  0  0  0  0  0  0  0  0  0
    3.1563    5.0131   23.4565 H   0  0  0  0  0  0  0  0  0  0  0  0
    4.5510    6.1618   21.7523 H   0  0  0  0  0  0  0  0  0  0  0  0
    8.4805    7.6865   22.9032 H   0  0  0  0  0  0  0  0  0  0  0  0
    9.3760    9.6370   20.6560 H   0  0  0  0  0  0  0  0  0  0  0  0
   12.4940    9.3560   19.3490 H   0  0  0  0  0  0  0  0  0  0  0  0
   11.1110   10.3410   19.4030 H   0  0  0  0  0  0  0  0  0  0  0  0
    9.6190    5.7580   18.4240 H   0  0  0  0  0  0  0  0  0  0  0  0
    9.2000    6.2660   16.7920 H   0  0  0  0  0  0  0  0  0  0  0  0
    9.1761    5.1561   23.2002 H   0  0  0  0  0  0  0  0  0  0  0  0
  1  2  1  0
  2  3  1  0
  3  4  2  0
  4  5  1  0
  5  6  2  0
  6  7  1  0
  7  8  2  0
  8  9  1  0
  9 10  2  0
 10 11  1  0
 11 12  1  0
 12 13  2  0
 13 14  1  0
 14 15  1  0
 15 16  1  0
 15 17  2  0
 13 18  1  0
 18 19  1  0
 19 20  1  0
 19 21  2  0
 18 22  2  0
 10 23  1  0
 23 24  2  0
 24  3  1  0
 23  6  1  0
 22 11  1  0
  1 25  1  0
  1 26  1  0
  1 27  1  0
  4 28  1  0
  5 29  1  0
  7 30  1  0
  8 31  1  0
  9 32  1  0
 12 33  1  0
 14 34  1  0
 16 35  1  0
 16 36  1  0
 20 37  1  0
 20 38  1  0
 24 39  1  0
M  END
>  <meeko>  (3) 
{"is_sidechain": [false], "free_energy": -7.45, "intermolecular_energy": -9.205, "internal_energy": -0.733}

$$$$
4m0z_ligand
     RDKit          3D

 39 41  0  0  0  0  0  0  0  0999 V2000
    7.7650    9.6060   11.8950 C   0  0  0  0  0  0  0  0  0  0  0  0
    7.6440   11.0200   12.0020 O   0  0  0  0  0  0  0  0  0  0  0  0
    6.6680   11.4960   12.8340 C   0  0  0  0  0  0  0  0  0  0  0  0
    5.6000   12.2950   12.4650 C   0  0  0  0  0  0  0  0  0  0  0  0
    4.6940   12.7220   13.4350 C   0  0  0  0  0  0  0  0  0  0  0  0
    4.8300   12.3480   14.7830 C   0  0  0  0  0  0  0  0  0  0  0  0
    3.9010   12.8440   15.7070 C   0  0  0  0  0  0  0  0  0  0  0  0
    3.9920   12.5260   17.0550 C   0  0  0  0  0  0  0  0  0  0  0  0
    5.0070   11.6860   17.4990 C   0  0  0  0  0  0  0  0  0  0  0  0
    5.9500   11.1480   16.5970 C   0  0  0  0  0  0  0  0  0  0  0  0
    6.9190   10.2340   17.1320 N   0  0  0  0  0  0  0  0  0  0  0  0
    7.9870   10.5380   17.9550 C   0  0  0  0  0  0  0  0  0  0  0  0
    8.6100    9.3620   18.2870 C   0  0  0  0  0  0  0  0  0  0  0  0
    9.7250    9.1680   19.0850 N   0  0  0  0  0  0  0  0  0  0  0  0
   10.9750    9.6710   18.8480 C   0  0  0  0  0  0  0  0  0  0  0  0
   11.8620    9.3270   19.8250 N   0  0  0  0  0  0  0  0  0  0  0  0
   11.3440   10.3480   17.8980 O   0  0  0  0  0  0  0  0  0  0  0  0
    7.8580    8.3620   17.6260 C   0  0  0  0  0  0  0  0  0  0  0  0
    8.1040    6.9170   17.6570 C   0  0  0  0  0  0  0  0  0  0  0  0
    7.2170    6.1740   16.9290 N   0  0  0  0  0  0  0  0  0  0  0  0
    9.0250    6.4010   18.2850 O   0  0  0  0  0  0  0  0  0  0  0  0
    6.8390    8.8940   16.9290 N   0  0  0  0  0  0  0  0  0  0  0  0
    5.8900   11.4980   15.2010 C   0  0  0  0  0  0  0  0  0  0  0  0
    6.8050   11.1170   14.1770 C   0  0  0  0  0  0  0  0  0  0  0  0
    7.8028    9.1640   12.9016 H   0  0  0  0  0  0  0  0  0  0  0  0
    6.8980    9.2040   11.3504 H   0  0  0  0  0  0  0  0  0  0  0  0
    8.6877    9.3571   11.3504 H   0  0  0  0  0  0  0  0  0  0  0  0
    5.4668   12.5911   11.4140 H   0  0  0  0  0  0  0  0  0  0  0  0
    3.8534   13.3665   13.1384 H   0  0  0  0  0  0  0  0  0  0  0  0
    3.0864   13.4959   15.3586 H   0  0  0  0  0  0  0  0  0  0  0  0
    3.2636   12.9371   17.7695 H   0  0  0  0  0  0  0  0  0  0  0  0
    5.0761   11.4372   18.5683 H   0  0  0  0  0  0  0  0  0  0  0  0
    8.2845   11.5443   18.2851 H   0  0  0  0  0  0  0  0  0  0  0  0
    9.6090    8.5330   19.8680 H   0  0  0  0  0  0  0  0  0  0  0  0
   12.7590    9.7850   19.7150 H   0  0  0  0  0  0  0  0  0  0  0  0
   11.5190    9.3100   20.7760 H   0  0  0  0  0  0  0  0  0  0  0  0
    6.4690    6.6490   16.4360 H   0  0  0  0  0  0  0  0  0  0  0  0
    7.3060    5.1700   16.8930 H   0  0  0  0  0  0  0  0  0  0  0  0
    7.6658   10.4914   14.4554 H   0  0  0  0  0  0  0  0  0  0  0  0
  1  2  1  0
  2  3  1  0
  3  4  2  0
  4  5  1  0
  5  6  2  0
  6  7  1  0
  7  8  2  0
  8  9  1  0
  9 10  2  0
 10 11  1  0
 11 12  1  0
 12 13  2  0
 13 14  1  0
 14 15  1  0
 15 16  1  0
 15 17  2  0
 13 18  1  0
 18 19  1  0
 19 20  1  0
 19 21  2  0
 18 22  2  0
 10 23  1  0
 23 24  2  0
 24  3  1  0
 23  6  1  0
 22 11  1  0
  1 25  1  0
  1 26  1  0
  1 27  1  0
  4 28  1  0
  5 29  1  0
  7 30  1  0
  8 31  1  0
  9 32  1  0
 12 33  1  0
 14 34  1  0
 16 35  1  0
 16 36  1  0
 20 37  1  0
 20 38  1  0
 24 39  1  0
M  END
>  <meeko>  (4) 
{"is_sidechain": [false], "free_energy": -7.391, "intermolecular_energy": -8.982, "internal_energy": -0.886}

$$$$
4m0z_ligand
     RDKit          3D

 39 41  0  0  0  0  0  0  0  0999 V2000
    2.0790    5.3220   21.8870 C   0  0  0  0  0  0  0  0  0  0  0  0
    3.4290    5.7700   21.8860 O   0  0  0  0  0  0  0  0  0  0  0  0
    4.2720    5.1960   22.7970 C   0  0  0  0  0  0  0  0  0  0  0  0
    3.8970    4.4030   23.8680 C   0  0  0  0  0  0  0  0  0  0  0  0
    4.8750    3.9040   24.7280 C   0  0  0  0  0  0  0  0  0  0  0  0
    6.2390    4.1750   24.5270 C   0  0  0  0  0  0  0  0  0  0  0  0
    7.1620    3.6700   25.4510 C   0  0  0  0  0  0  0  0  0  0  0  0
    8.5210    3.9180   25.3170 C   0  0  0  0  0  0  0  0  0  0  0  0
    8.9830    4.6630   24.2390 C   0  0  0  0  0  0  0  0  0  0  0  0
    8.0890    5.1730   23.2730 C   0  0  0  0  0  0  0  0  0  0  0  0
    8.6610    5.8690   22.1550 N   0  0  0  0  0  0  0  0  0  0  0  0
    9.4340    7.0150   22.1940 C   0  0  0  0  0  0  0  0  0  0  0  0
    9.8310    7.2970   20.9110 C   0  0  0  0  0  0  0  0  0  0  0  0
   10.6110    8.3470   20.4580 N   0  0  0  0  0  0  0  0  0  0  0  0
   11.9760    8.3460   20.3620 C   0  0  0  0  0  0  0  0  0  0  0  0
   12.4570    9.5170   19.8570 N   0  0  0  0  0  0  0  0  0  0  0  0
   12.7500    7.4510   20.6760 O   0  0  0  0  0  0  0  0  0  0  0  0
    9.2590    6.2670   20.1280 C   0  0  0  0  0  0  0  0  0  0  0  0
    9.3830    6.0990   18.6760 C   0  0  0  0  0  0  0  0  0  0  0  0
    8.2290    5.7260   18.0460 N   0  0  0  0  0  0  0  0  0  0  0  0
   10.4340    6.2720   18.0630 O   0  0  0  0  0  0  0  0  0  0  0  0
    8.5530    5.4080   20.8830 N   0  0  0  0  0  0  0  0  0  0  0  0
    6.6730    4.9530   23.4190 C   0  0  0  0  0  0  0  0  0  0  0  0
    5.6320    5.4650   22.5900 C   0  0  0  0  0  0  0  0  0  0  0  0
    1.7317    5.2067   22.9243 H   0  0  0  0  0  0  0  0  0  0  0  0
    1.4478    6.0588   21.3687 H   0  0  0  0  0  0  0  0  0  0  0  0
    2.0135    4.3540   21.3687 H   0  0  0  0  0  0  0  0  0  0  0  0
    2.8361    4.1683   24.0393 H   0  0  0  0  0  0  0  0  0  0  0  0
    4.5713    3.2835   25.5840 H   0  0  0  0  0  0  0  0  0  0  0  0
    6.8038    3.0662   26.2978 H   0  0  0  0  0  0  0  0  0  0  0  0
    9.2297    3.5262   26.0615 H   0  0  0  0  0  0  0  0  0  0  0  0
   10.0607    4.8581   24.1369 H   0  0  0  0  0  0  0  0  0  0  0  0
    9.6857    7.5967   23.0930 H   0  0  0  0  0  0  0  0  0  0  0  0
   10.1210    9.2120   20.2540 H   0  0  0  0  0  0  0  0  0  0  0  0
   13.4540    9.4850   19.6810 H   0  0  0  0  0  0  0  0  0  0  0  0
   11.9210    9.9600   19.1240 H   0  0  0  0  0  0  0  0  0  0  0  0
    7.3910    5.5890   18.6010 H   0  0  0  0  0  0  0  0  0  0  0  0
    8.2190    5.5850   17.0480 H   0  0  0  0  0  0  0  0  0  0  0  0
    5.9116    6.1064   21.7412 H   0  0  0  0  0  0  0  0  0  0  0  0
  1  2  1  0
  2  3  1  0
  3  4  2  0
  4  5  1  0
  5  6  2  0
  6  7  1  0
  7  8  2  0
  8  9  1  0
  9 10  2  0
 10 11  1  0
 11 12  1  0
 12 13  2  0
 13 14  1  0
 14 15  1  0
 15 16  1  0
 15 17  2  0
 13 18  1  0
 18 19  1  0
 19 20  1  0
 19 21  2  0
 18 22  2  0
 10 23  1  0
 23 24  2  0
 24  3  1  0
 23  6  1  0
 22 11  1  0
  1 25  1  0
  1 26  1  0
  1 27  1  0
  4 28  1  0
  5 29  1  0
  7 30  1  0
  8 31  1  0
  9 32  1  0
 12 33  1  0
 14 34  1  0
 16 35  1  0
 16 36  1  0
 20 37  1  0
 20 38  1  0
 24 39  1  0
M  END
>  <meeko>  (5) 
{"is_sidechain": [false], "free_energy": -7.34, "intermolecular_energy": -8.949, "internal_energy": -0.854}

$$$$
4m0z_ligand
     RDKit          3D

 39 41  0  0  0  0  0  0  0  0999 V2000
    6.3780    9.8420   12.4680 C   0  0  0  0  0  0  0  0  0  0  0  0
    5.2460   10.6950   12.5910 O   0  0  0  0  0  0  0  0  0  0  0  0
    5.1240   11.3960   13.7590 C   0  0  0  0  0  0  0  0  0  0  0  0
    4.2560   12.4510   13.9900 C   0  0  0  0  0  0  0  0  0  0  0  0
    4.2620   13.0840   15.2320 C   0  0  0  0  0  0  0  0  0  0  0  0
    5.1190   12.6700   16.2650 C   0  0  0  0  0  0  0  0  0  0  0  0
    5.0940   13.3760   17.4740 C   0  0  0  0  0  0  0  0  0  0  0  0
    5.9290   13.0270   18.5260 C   0  0  0  0  0  0  0  0  0  0  0  0
    6.7940   11.9470   18.3910 C   0  0  0  0  0  0  0  0  0  0  0  0
    6.8350   11.1960   17.1970 C   0  0  0  0  0  0  0  0  0  0  0  0
    7.7050   10.0540   17.1740 N   0  0  0  0  0  0  0  0  0  0  0  0
    9.0300   10.0240   16.7800 C   0  0  0  0  0  0  0  0  0  0  0  0
    9.5000    8.7510   16.9840 C   0  0  0  0  0  0  0  0  0  0  0  0
   10.7640    8.2440   16.7330 N   0  0  0  0  0  0  0  0  0  0  0  0
   11.1960    7.7260   15.5430 C   0  0  0  0  0  0  0  0  0  0  0  0
   12.4990    7.3280   15.5980 N   0  0  0  0  0  0  0  0  0  0  0  0
   10.5590    7.5900   14.5080 O   0  0  0  0  0  0  0  0  0  0  0  0
    8.3940    8.0440   17.5130 C   0  0  0  0  0  0  0  0  0  0  0  0
    8.3650    6.6330   17.9110 C   0  0  0  0  0  0  0  0  0  0  0  0
    7.2420    5.9570   17.5260 N   0  0  0  0  0  0  0  0  0  0  0  0
    9.2690    6.0900   18.5420 O   0  0  0  0  0  0  0  0  0  0  0  0
    7.3130    8.8350   17.6250 N   0  0  0  0  0  0  0  0  0  0  0  0
    6.0000   11.5680   16.0850 C   0  0  0  0  0  0  0  0  0  0  0  0
    5.9780   10.9770   14.7880 C   0  0  0  0  0  0  0  0  0  0  0  0
    6.7413    9.5682   13.4695 H   0  0  0  0  0  0  0  0  0  0  0  0
    6.0934    8.9318   11.9197 H   0  0  0  0  0  0  0  0  0  0  0  0
    7.1744   10.3664   11.9197 H   0  0  0  0  0  0  0  0  0  0  0  0
    3.5679   12.7863   13.2000 H   0  0  0  0  0  0  0  0  0  0  0  0
    3.5790   13.9282   15.4073 H   0  0  0  0  0  0  0  0  0  0  0  0
    4.4006   14.2217   17.5919 H   0  0  0  0  0  0  0  0  0  0  0  0
    5.9066   13.6026   19.4631 H   0  0  0  0  0  0  0  0  0  0  0  0
    7.4555   11.6741   19.2264 H   0  0  0  0  0  0  0  0  0  0  0  0
    9.6049   10.8699   16.3751 H   0  0  0  0  0  0  0  0  0  0  0  0
   11.3890    8.1880   17.5310 H   0  0  0  0  0  0  0  0  0  0  0  0
   12.8590    7.0460   14.6940 H   0  0  0  0  0  0  0  0  0  0  0  0
   13.1350    7.8990   16.1370 H   0  0  0  0  0  0  0  0  0  0  0  0
    6.5220    6.4550   17.0140 H   0  0  0  0  0  0  0  0  0  0  0  0
    7.1320    4.9820   17.7570 H   0  0  0  0  0  0  0  0  0  0  0  0
    6.6695   10.1463   14.5836 H   0  0  0  0  0  0  0  0  0  0  0  0
  1  2  1  0
  2  3  1  0
  3  4  2  0
  4  5  1  0
  5  6  2  0
  6  7  1  0
  7  8  2  0
  8  9  1  0
  9 10  2  0
 10 11  1  0
 11 12  1  0
 12 13  2  0
 13 14  1  0
 14 15  1  0
 15 16  1  0
 15 17  2  0
 13 18  1  0
 18 19  1  0
 19 20  1  0
 19 21  2  0
 18 22  2  0
 10 23  1  0
 23 24  2  0
 24  3  1  0
 23  6  1  0
 22 11  1  0
  1 25  1  0
  1 26  1  0
  1 27  1  0
  4 28  1  0
  5 29  1  0
  7 30  1  0
  8 31  1  0
  9 32  1  0
 12 33  1  0
 14 34  1  0
 16 35  1  0
 16 36  1  0
 20 37  1  0
 20 38  1  0
 24 39  1  0
M  END
>  <meeko>  (6) 
{"is_sidechain": [false], "free_energy": -7.254, "intermolecular_energy": -8.726, "internal_energy": -0.971}

$$$$
4m0z_ligand
     RDKit          3D

 39 41  0  0  0  0  0  0  0  0999 V2000
    6.4910   13.5360   20.0440 C   0  0  0  0  0  0  0  0  0  0  0  0
    6.9550   12.6570   19.0250 O   0  0  0  0  0  0  0  0  0  0  0  0
    6.2560   12.6500   17.8500 C   0  0  0  0  0  0  0  0  0  0  0  0
    5.1500   13.4300   17.5530 C   0  0  0  0  0  0  0  0  0  0  0  0
    4.5270   13.2940   16.3130 C   0  0  0  0  0  0  0  0  0  0  0  0
    5.0030   12.3920   15.3460 C   0  0  0  0  0  0  0  0  0  0  0  0
    4.3050   12.2840   14.1360 C   0  0  0  0  0  0  0  0  0  0  0  0
    4.7150   11.4000   13.1490 C   0  0  0  0  0  0  0  0  0  0  0  0
    5.8470   10.6180   13.3490 C   0  0  0  0  0  0  0  0  0  0  0  0
    6.5910   10.7110   14.5440 C   0  0  0  0  0  0  0  0  0  0  0  0
    7.7850    9.9200   14.6340 N   0  0  0  0  0  0  0  0  0  0  0  0
    7.9750    8.7810   15.3940 C   0  0  0  0  0  0  0  0  0  0  0  0
    9.2340    8.3050   15.1290 C   0  0  0  0  0  0  0  0  0  0  0  0
    9.8680    7.1920   15.6560 N   0  0  0  0  0  0  0  0  0  0  0  0
   10.5470    7.1450   16.8420 C   0  0  0  0  0  0  0  0  0  0  0  0
   11.0430    5.9020   17.1030 N   0  0  0  0  0  0  0  0  0  0  0  0
   10.7440    8.0600   17.6310 O   0  0  0  0  0  0  0  0  0  0  0  0
    9.7660    9.2130   14.1830 C   0  0  0  0  0  0  0  0  0  0  0  0
   11.0940    9.1550   13.5640 C   0  0  0  0  0  0  0  0  0  0  0  0
   11.2020    9.8380   12.3850 N   0  0  0  0  0  0  0  0  0  0  0  0
   12.0420    8.5430   14.0520 O   0  0  0  0  0  0  0  0  0  0  0  0
    8.8880   10.1870   13.8890 N   0  0  0  0  0  0  0  0  0  0  0  0
    6.1570   11.5990   15.5930 C   0  0  0  0  0  0  0  0  0  0  0  0
    6.7370   11.7520   16.8860 C   0  0  0  0  0  0  0  0  0  0  0  0
    6.7181   13.1059   21.0306 H   0  0  0  0  0  0  0  0  0  0  0  0
    6.9925   14.5100   19.9444 H   0  0  0  0  0  0  0  0  0  0  0  0
    5.4039   13.6714   19.9444 H   0  0  0  0  0  0  0  0  0  0  0  0
    4.7664   14.1510   18.2898 H   0  0  0  0  0  0  0  0  0  0  0  0
    3.6422   13.9070   16.0863 H   0  0  0  0  0  0  0  0  0  0  0  0
    3.4171   12.9107   13.9660 H   0  0  0  0  0  0  0  0  0  0  0  0
    4.1463   11.3179   12.2110 H   0  0  0  0  0  0  0  0  0  0  0  0
    6.1671    9.9168   12.5643 H   0  0  0  0  0  0  0  0  0  0  0  0
    7.2465    8.3357   16.0876 H   0  0  0  0  0  0  0  0  0  0  0  0
    9.8860    6.3670   15.0650 H   0  0  0  0  0  0  0  0  0  0  0  0
   11.4510    5.8320   18.0280 H   0  0  0  0  0  0  0  0  0  0  0  0
   10.4700    5.1120   16.8420 H   0  0  0  0  0  0  0  0  0  0  0  0
   10.3860   10.3200   12.0230 H   0  0  0  0  0  0  0  0  0  0  0  0
   12.0780    9.8530   11.8860 H   0  0  0  0  0  0  0  0  0  0  0  0
    7.6091   11.1322   17.1416 H   0  0  0  0  0  0  0  0  0  0  0  0
  1  2  1  0
  2  3  1  0
  3  4  2  0
  4  5  1  0
  5  6  2  0
  6  7  1  0
  7  8  2  0
  8  9  1  0
  9 10  2  0
 10 11  1  0
 11 12  1  0
 12 13  2  0
 13 14  1  0
 14 15  1  0
 15 16  1  0
 15 17  2  0
 13 18  1  0
 18 19  1  0
 19 20  1  0
 19 21  2  0
 18 22  2  0
 10 23  1  0
 23 24  2  0
 24  3  1  0
 23  6  1  0
 22 11  1  0
  1 25  1  0
  1 26  1  0
  1 27  1  0
  4 28  1  0
  5 29  1  0
  7 30  1  0
  8 31  1  0
  9 32  1  0
 12 33  1  0
 14 34  1  0
 16 35  1  0
 16 36  1  0
 20 37  1  0
 20 38  1  0
 24 39  1  0
M  END
>  <meeko>  (7) 
{"is_sidechain": [false], "free_energy": -7.197, "intermolecular_energy": -8.732, "internal_energy": -0.895}

$$$$
4m0z_ligand
     RDKit          3D

 39 41  0  0  0  0  0  0  0  0999 V2000
    3.2020   11.7370   16.7740 C   0  0  0  0  0  0  0  0  0  0  0  0
    4.0220   12.7400   16.1850 O   0  0  0  0  0  0  0  0  0  0  0  0
    4.6380   12.4220   15.0060 C   0  0  0  0  0  0  0  0  0  0  0  0
    4.3010   12.9070   13.7530 C   0  0  0  0  0  0  0  0  0  0  0  0
    5.0110   12.4710   12.6350 C   0  0  0  0  0  0  0  0  0  0  0  0
    6.0740   11.5600   12.7490 C   0  0  0  0  0  0  0  0  0  0  0  0
    6.7190   11.1410   11.5780 C   0  0  0  0  0  0  0  0  0  0  0  0
    7.7640   10.2290   11.6220 C   0  0  0  0  0  0  0  0  0  0  0  0
    8.1970    9.7340   12.8470 C   0  0  0  0  0  0  0  0  0  0  0  0
    7.5890   10.1470   14.0520 C   0  0  0  0  0  0  0  0  0  0  0  0
    8.1480    9.6410   15.2730 N   0  0  0  0  0  0  0  0  0  0  0  0
    9.0320   10.2880   16.1160 C   0  0  0  0  0  0  0  0  0  0  0  0
    9.2500    9.4760   17.2000 C   0  0  0  0  0  0  0  0  0  0  0  0
   10.0620    9.6980   18.3000 N   0  0  0  0  0  0  0  0  0  0  0  0
   11.2850    9.1260   18.5190 C   0  0  0  0  0  0  0  0  0  0  0  0
   11.8550    9.5590   19.6800 N   0  0  0  0  0  0  0  0  0  0  0  0
   11.8680    8.3090   17.8190 O   0  0  0  0  0  0  0  0  0  0  0  0
    8.4540    8.3320   16.9530 C   0  0  0  0  0  0  0  0  0  0  0  0
    8.3220    7.1530   17.8160 C   0  0  0  0  0  0  0  0  0  0  0  0
    9.3460    6.2540   17.7110 N   0  0  0  0  0  0  0  0  0  0  0  0
    7.3720    6.9730   18.5740 O   0  0  0  0  0  0  0  0  0  0  0  0
    7.7910    8.4360   15.7880 N   0  0  0  0  0  0  0  0  0  0  0  0
    6.4790   11.0660   14.0180 C   0  0  0  0  0  0  0  0  0  0  0  0
    5.7010   11.5160   15.1240 C   0  0  0  0  0  0  0  0  0  0  0  0
    3.2624   11.8109   17.8699 H   0  0  0  0  0  0  0  0  0  0  0  0
    2.1595   11.8809   16.4537 H   0  0  0  0  0  0  0  0  0  0  0  0
    3.5502   10.7440   16.4537 H   0  0  0  0  0  0  0  0  0  0  0  0
    3.4799   13.6303   13.6409 H   0  0  0  0  0  0  0  0  0  0  0  0
    4.7321   12.8493   11.6405 H   0  0  0  0  0  0  0  0  0  0  0  0
    6.3915   11.5417   10.6073 H   0  0  0  0  0  0  0  0  0  0  0  0
    8.2481    9.8989   10.6910 H   0  0  0  0  0  0  0  0  0  0  0  0
    9.0250    9.0104   12.8775 H   0  0  0  0  0  0  0  0  0  0  0  0
    9.4809   11.2780   15.9476 H   0  0  0  0  0  0  0  0  0  0  0  0
    9.6700   10.2780   19.0340 H   0  0  0  0  0  0  0  0  0  0  0  0
   12.8050    9.2260   19.7950 H   0  0  0  0  0  0  0  0  0  0  0  0
   11.7240   10.5310   19.9250 H   0  0  0  0  0  0  0  0  0  0  0  0
   10.1020    6.4480   17.0630 H   0  0  0  0  0  0  0  0  0  0  0  0
    9.3400    5.4120   18.2640 H   0  0  0  0  0  0  0  0  0  0  0  0
    5.9481   11.1315   16.1245 H   0  0  0  0  0  0  0  0  0  0  0  0
  1  2  1  0
  2  3  1  0
  3  4  2  0
  4  5  1  0
  5  6  2  0
  6  7  1  0
  7  8  2  0
  8  9  1  0
  9 10  2  0
 10 11  1  0
 11 12  1  0
 12 13  2  0
 13 14  1  0
 14 15  1  0
 15 16  1  0
 15 17  2  0
 13 18  1  0
 18 19  1  0
 19 20  1  0
 19 21  2  0
 18 22  2  0
 10 23  1  0
 23 24  2  0
 24  3  1  0
 23  6  1  0
 22 11  1  0
  1 25  1  0
  1 26  1  0
  1 27  1  0
  4 28  1  0
  5 29  1  0
  7 30  1  0
  8 31  1  0
  9 32  1  0
 12 33  1  0
 14 34  1  0
 16 35  1  0
 16 36  1  0
 20 37  1  0
 20 38  1  0
 24 39  1  0
M  END
>  <meeko>  (8) 
{"is_sidechain": [false], "free_energy": -7.124, "intermolecular_energy": -8.629, "internal_energy": -0.908}

$$$$
4m0z_ligand
     RDKit          3D

 39 41  0  0  0  0  0  0  0  0999 V2000
    5.1970   12.8610   17.2930 C   0  0  0  0  0  0  0  0  0  0  0  0
    4.2520   12.7420   16.2360 O   0  0  0  0  0  0  0  0  0  0  0  0
    4.7470   12.4460   14.9950 C   0  0  0  0  0  0  0  0  0  0  0  0
    4.2930   12.9600   13.7920 C   0  0  0  0  0  0  0  0  0  0  0  0
    4.8860   12.5430   12.6010 C   0  0  0  0  0  0  0  0  0  0  0  0
    5.9470   11.6220   12.5900 C   0  0  0  0  0  0  0  0  0  0  0  0
    6.4700   11.2240   11.3530 C   0  0  0  0  0  0  0  0  0  0  0  0
    7.5060   10.3050   11.2750 C   0  0  0  0  0  0  0  0  0  0  0  0
    8.0530    9.7810   12.4410 C   0  0  0  0  0  0  0  0  0  0  0  0
    7.5690   10.1710   13.7080 C   0  0  0  0  0  0  0  0  0  0  0  0
    8.2410    9.6350   14.8580 N   0  0  0  0  0  0  0  0  0  0  0  0
    8.0800    8.3760   15.4050 C   0  0  0  0  0  0  0  0  0  0  0  0
    8.9640    8.2540   16.4460 C   0  0  0  0  0  0  0  0  0  0  0  0
    9.1630    7.1760   17.2920 N   0  0  0  0  0  0  0  0  0  0  0  0
    8.5420    6.9770   18.4950 C   0  0  0  0  0  0  0  0  0  0  0  0
    8.9270    5.8110   19.0870 N   0  0  0  0  0  0  0  0  0  0  0  0
    7.7350    7.7080   19.0520 O   0  0  0  0  0  0  0  0  0  0  0  0
    9.6470    9.4930   16.4800 C   0  0  0  0  0  0  0  0  0  0  0  0
   10.7090    9.8830   17.4130 C   0  0  0  0  0  0  0  0  0  0  0  0
   11.8720   10.2790   16.8170 N   0  0  0  0  0  0  0  0  0  0  0  0
   10.5780    9.8580   18.6350 O   0  0  0  0  0  0  0  0  0  0  0  0
    9.2060   10.3230   15.5200 N   0  0  0  0  0  0  0  0  0  0  0  0
    6.4700   11.0980   13.8030 C   0  0  0  0  0  0  0  0  0  0  0  0
    5.8080   11.5300   14.9890 C   0  0  0  0  0  0  0  0  0  0  0  0
    4.6761   12.7954   18.2596 H   0  0  0  0  0  0  0  0  0  0  0  0
    5.9349   12.0487   17.2183 H   0  0  0  0  0  0  0  0  0  0  0  0
    5.7105   13.8309   17.2183 H   0  0  0  0  0  0  0  0  0  0  0  0
    3.4714   13.6912   13.7761 H   0  0  0  0  0  0  0  0  0  0  0  0
    4.5142   12.9448   11.6469 H   0  0  0  0  0  0  0  0  0  0  0  0
    6.0520   11.6474   10.4278 H   0  0  0  0  0  0  0  0  0  0  0  0
    7.8934    9.9919   10.2943 H   0  0  0  0  0  0  0  0  0  0  0  0
    8.8744    9.0523   12.3750 H   0  0  0  0  0  0  0  0  0  0  0  0
    7.3691    7.6083   15.0655 H   0  0  0  0  0  0  0  0  0  0  0  0
    9.8900    6.5220   17.0200 H   0  0  0  0  0  0  0  0  0  0  0  0
    8.3930    5.6030   19.9220 H   0  0  0  0  0  0  0  0  0  0  0  0
    9.0800    5.0150   18.4840 H   0  0  0  0  0  0  0  0  0  0  0  0
   11.9300   10.2740   15.8040 H   0  0  0  0  0  0  0  0  0  0  0  0
   12.6590   10.5640   17.3790 H   0  0  0  0  0  0  0  0  0  0  0  0
    6.1483   11.1223   15.9523 H   0  0  0  0  0  0  0  0  0  0  0  0
  1  2  1  0
  2  3  1  0
  3  4  2  0
  4  5  1  0
  5  6  2  0
  6  7  1  0
  7  8  2  0
  8  9  1  0
  9 10  2  0
 10 11  1  0
 11 12  1  0
 12 13  2  0
 13 14  1  0
 14 15  1  0
 15 16  1  0
 15 17  2  0
 13 18  1  0
 18 19  1  0
 19 20  1  0
 19 21  2  0
 18 22  2  0
 10 23  1  0
 23 24  2  0
 24  3  1  0
 23  6  1  0
 22 11  1  0
  1 25  1  0
  1 26  1  0
  1 27  1  0
  4 28  1  0
  5 29  1  0
  7 30  1  0
  8 31  1  0
  9 32  1  0
 12 33  1  0
 14 34  1  0
 16 35  1  0
 16 36  1  0
 20 37  1  0
 20 38  1  0
 24 39  1  0
M  END
>  <meeko>  (9) 
{"is_sidechain": [false], "free_energy": -6.966, "intermolecular_energy": -8.374, "internal_energy": -0.968}

$$$$
