4ivb_ligand
     RDKit          3D

 42 45  0  0  0  0  0  0  0  0999 V2000
   10.7720   57.3580   -2.4540 C   0  0  0  0  0  0  0  0  0  0  0  0
    9.9340   56.7400   -1.3460 C   0  0  1  0  0  0  0  0  0  0  0  0
   10.7500   56.2640   -0.2870 O   0  0  0  0  0  0  0  0  0  0  0  0
    8.8790   57.6770   -0.8300 C   0  0  0  0  0  0  0  0  0  0  0  0
    8.9690   58.9790   -1.0800 N   0  0  0  0  0  0  0  0  0  0  0  0
    7.8250   59.5460   -0.6060 C   0  0  0  0  0  0  0  0  0  0  0  0
    7.3640   60.8750   -0.6280 C   0  0  0  0  0  0  0  0  0  0  0  0
    6.1490   61.2450   -0.1240 N   0  0  0  0  0  0  0  0  0  0  0  0
    5.4170   60.2350    0.3750 C   0  0  0  0  0  0  0  0  0  0  0  0
    4.1610   60.3140    0.9060 N   0  0  0  0  0  0  0  0  0  0  0  0
    3.7350   59.0550    1.2730 C   0  0  0  0  0  0  0  0  0  0  0  0
    4.7400   58.1470    0.9830 C   0  0  0  0  0  0  0  0  0  0  0  0
    5.8000   58.9130    0.4370 C   0  0  0  0  0  0  0  0  0  0  0  0
    7.0330   58.5700   -0.0400 C   0  0  0  0  0  0  0  0  0  0  0  0
    7.7260   57.3980   -0.0860 N   0  0  0  0  0  0  0  0  0  0  0  0
    7.3340   56.1570    0.5760 C   0  0  2  0  0  0  0  0  0  0  0  0
    6.2450   55.3120   -0.1090 C   0  0  0  0  0  0  0  0  0  0  0  0
    6.0550   53.9720    0.6070 C   0  0  0  0  0  0  0  0  0  0  0  0
    5.7500   54.1700    2.0970 C   0  0  1  0  0  0  0  0  0  0  0  0
    5.5910   52.8670    2.7660 C   0  0  0  0  0  0  0  0  0  0  0  0
    5.4680   51.8390    3.2910 N   0  0  0  0  0  0  0  0  0  0  0  0
    6.8580   54.9860    2.7760 C   0  0  0  0  0  0  0  0  0  0  0  0
    7.0890   56.3300    2.0820 C   0  0  0  0  0  0  0  0  0  0  0  0
   11.5823   57.9556   -2.0110 H   0  0  0  0  0  0  0  0  0  0  0  0
   11.2030   56.5599   -3.0763 H   0  0  0  0  0  0  0  0  0  0  0  0
   10.1369   58.0056   -3.0763 H   0  0  0  0  0  0  0  0  0  0  0  0
    9.4102   55.8817   -1.7920 H   0  0  0  0  0  0  0  0  0  0  0  0
   10.1470   55.8500    0.3550 H   0  0  0  0  0  0  0  0  0  0  0  0
    8.0089   61.6490   -1.0696 H   0  0  0  0  0  0  0  0  0  0  0  0
    3.6370   61.1740    0.9860 H   0  0  0  0  0  0  0  0  0  0  0  0
    2.7602   58.8123    1.7211 H   0  0  0  0  0  0  0  0  0  0  0  0
    4.7196   57.0589    1.1430 H   0  0  0  0  0  0  0  0  0  0  0  0
    8.2332   55.5357    0.4523 H   0  0  0  0  0  0  0  0  0  0  0  0
    5.2953   55.8668   -0.0908 H   0  0  0  0  0  0  0  0  0  0  0  0
    6.5571   55.1133   -1.1449 H   0  0  0  0  0  0  0  0  0  0  0  0
    5.2184   53.4322    0.1394 H   0  0  0  0  0  0  0  0  0  0  0  0
    6.9891   53.3978    0.5189 H   0  0  0  0  0  0  0  0  0  0  0  0
    4.8066   54.7290    2.1839 H   0  0  0  0  0  0  0  0  0  0  0  0
    6.5722   55.1712    3.8220 H   0  0  0  0  0  0  0  0  0  0  0  0
    7.7916   54.4075    2.7144 H   0  0  0  0  0  0  0  0  0  0  0  0
    6.2020   56.9639    2.2283 H   0  0  0  0  0  0  0  0  0  0  0  0
    7.9829   56.7947    2.5236 H   0  0  0  0  0  0  0  0  0  0  0  0
  1  2  1  0
  2  3  1  0
  2  4  1  0
  4  5  2  0
  5  6  1  0
  6  7  2  0
  7  8  1  0
  8  9  2  0
  9 10  1  0
 10 11  1  0
 11 12  2  0
 12 13  1  0
 13 14  2  0
 14 15  1  0
 15 16  1  0
 16 17  1  0
 17 18  1  0
 18 19  1  0
 19 20  1  0
 20 21  3  0
 19 22  1  0
 22 23  1  0
 15  4  1  0
 23 16  1  0
 14  6  1  0
 13  9  1  0
  1 24  1  0
  1 25  1  0
  1 26  1  0
  2 27  1  6
  3 28  1  0
  7 29  1  0
 10 30  1  0
 11 31  1  0
 12 32  1  0
 16 33  1  6
 17 34  1  0
 17 35  1  0
 18 36  1  0
 18 37  1  0
 19 38  1  1
 22 39  1  0
 22 40  1  0
 23 41  1  0
 23 42  1  0
M  END
>  <meeko>  (1) 
{"is_sidechain": [false], "free_energy": -9.03, "intermolecular_energy": -10.35, "internal_energy": -0.194}

$$$$
4ivb_ligand
     RDKit          3D

 42 45  0  0  0  0  0  0  0  0999 V2000
    6.4670   55.3350    3.8820 C   0  0  0  0  0  0  0  0  0  0  0  0
    5.6850   55.2400    2.5810 C   0  0  1  0  0  0  0  0  0  0  0  0
    4.2860   55.2170    2.8210 O   0  0  0  0  0  0  0  0  0  0  0  0
    6.0440   56.3280    1.6110 C   0  0  0  0  0  0  0  0  0  0  0  0
    5.2220   57.3570    1.4340 N   0  0  0  0  0  0  0  0  0  0  0  0
    5.8630   58.2300    0.6080 C   0  0  0  0  0  0  0  0  0  0  0  0
    5.4890   59.4920    0.1140 C   0  0  0  0  0  0  0  0  0  0  0  0
    6.3000   60.2440   -0.6890 N   0  0  0  0  0  0  0  0  0  0  0  0
    7.4970   59.6910   -0.9520 C   0  0  0  0  0  0  0  0  0  0  0  0
    8.5080   60.2340   -1.6920 N   0  0  0  0  0  0  0  0  0  0  0  0
    9.5870   59.3760   -1.6970 C   0  0  0  0  0  0  0  0  0  0  0  0
    9.2620   58.2520   -0.9540 C   0  0  0  0  0  0  0  0  0  0  0  0
    7.9330   58.4610   -0.5110 C   0  0  0  0  0  0  0  0  0  0  0  0
    7.0920   57.7100    0.2610 C   0  0  0  0  0  0  0  0  0  0  0  0
    7.1830   56.4670    0.8080 N   0  0  0  0  0  0  0  0  0  0  0  0
    8.2370   55.4950    0.5290 C   0  0  2  0  0  0  0  0  0  0  0  0
    7.8430   54.0070    0.5610 C   0  0  0  0  0  0  0  0  0  0  0  0
    9.0000   53.1200    0.0930 C   0  0  0  0  0  0  0  0  0  0  0  0
   10.2710   53.3770    0.9140 C   0  0  1  0  0  0  0  0  0  0  0  0
   11.3740   52.5260    0.4330 C   0  0  0  0  0  0  0  0  0  0  0  0
   12.2400   51.8550    0.0500 N   0  0  0  0  0  0  0  0  0  0  0  0
   10.6720   54.8570    0.8490 C   0  0  0  0  0  0  0  0  0  0  0  0
    9.5370   55.7800    1.2960 C   0  0  0  0  0  0  0  0  0  0  0  0
    5.7749   55.2509    4.7328 H   0  0  0  0  0  0  0  0  0  0  0  0
    7.2042   54.5198    3.9271 H   0  0  0  0  0  0  0  0  0  0  0  0
    6.9876   56.3030    3.9271 H   0  0  0  0  0  0  0  0  0  0  0  0
    5.9720   54.2867    2.1132 H   0  0  0  0  0  0  0  0  0  0  0  0
    4.0330   56.1320    3.0350 H   0  0  0  0  0  0  0  0  0  0  0  0
    4.5008   59.8915    0.3856 H   0  0  0  0  0  0  0  0  0  0  0  0
    8.4560   61.1390   -2.1380 H   0  0  0  0  0  0  0  0  0  0  0  0
   10.5459   59.5538   -2.2058 H   0  0  0  0  0  0  0  0  0  0  0  0
    9.9019   57.3806   -0.7510 H   0  0  0  0  0  0  0  0  0  0  0  0
    8.4341   55.6685   -0.5392 H   0  0  0  0  0  0  0  0  0  0  0  0
    7.5711   53.7295    1.5901 H   0  0  0  0  0  0  0  0  0  0  0  0
    6.9908   53.8566   -0.1181 H   0  0  0  0  0  0  0  0  0  0  0  0
    8.7095   52.0649    0.2041 H   0  0  0  0  0  0  0  0  0  0  0  0
    9.2141   53.3575   -0.9595 H   0  0  0  0  0  0  0  0  0  0  0  0
   10.0602   53.1222    1.9631 H   0  0  0  0  0  0  0  0  0  0  0  0
   11.5400   55.0186    1.5051 H   0  0  0  0  0  0  0  0  0  0  0  0
   10.9126   55.0975   -0.1971 H   0  0  0  0  0  0  0  0  0  0  0  0
    9.3572   55.6291    2.3707 H   0  0  0  0  0  0  0  0  0  0  0  0
    9.8371   56.8177    1.0882 H   0  0  0  0  0  0  0  0  0  0  0  0
  1  2  1  0
  2  3  1  0
  2  4  1  0
  4  5  2  0
  5  6  1  0
  6  7  2  0
  7  8  1  0
  8  9  2  0
  9 10  1  0
 10 11  1  0
 11 12  2  0
 12 13  1  0
 13 14  2  0
 14 15  1  0
 15 16  1  0
 16 17  1  0
 17 18  1  0
 18 19  1  0
 19 20  1  0
 20 21  3  0
 19 22  1  0
 22 23  1  0
 15  4  1  0
 23 16  1  0
 14  6  1  0
 13  9  1  0
  1 24  1  0
  1 25  1  0
  1 26  1  0
  2 27  1  6
  3 28  1  0
  7 29  1  0
 10 30  1  0
 11 31  1  0
 12 32  1  0
 16 33  1  1
 17 34  1  0
 17 35  1  0
 18 36  1  0
 18 37  1  0
 19 38  1  6
 22 39  1  0
 22 40  1  0
 23 41  1  0
 23 42  1  0
M  END
>  <meeko>  (2) 
{"is_sidechain": [false], "free_energy": -8.299, "intermolecular_energy": -9.328, "internal_energy": -0.378}

$$$$
4ivb_ligand
     RDKit          3D

 42 45  0  0  0  0  0  0  0  0999 V2000
    4.3200   58.6910    1.7000 C   0  0  0  0  0  0  0  0  0  0  0  0
    4.7690   59.5890    0.5580 C   0  0  1  0  0  0  0  0  0  0  0  0
    4.8440   60.9460    0.9690 O   0  0  0  0  0  0  0  0  0  0  0  0
    6.0670   59.1420   -0.0520 C   0  0  0  0  0  0  0  0  0  0  0  0
    6.7310   59.9540   -0.8670 N   0  0  0  0  0  0  0  0  0  0  0  0
    7.9110   59.3380   -1.1550 C   0  0  0  0  0  0  0  0  0  0  0  0
    9.0100   59.7440   -1.9330 C   0  0  0  0  0  0  0  0  0  0  0  0
   10.1390   58.9860   -2.0720 N   0  0  0  0  0  0  0  0  0  0  0  0
   10.1250   57.8290   -1.3890 C   0  0  0  0  0  0  0  0  0  0  0  0
   11.1270   56.9030   -1.3210 N   0  0  0  0  0  0  0  0  0  0  0  0
   10.7460   55.8720   -0.4880 C   0  0  0  0  0  0  0  0  0  0  0  0
    9.4700   56.1330   -0.0170 C   0  0  0  0  0  0  0  0  0  0  0  0
    9.0880   57.3610   -0.6130 C   0  0  0  0  0  0  0  0  0  0  0  0
    7.9550   58.1180   -0.5150 C   0  0  0  0  0  0  0  0  0  0  0  0
    6.7580   57.9350    0.1090 N   0  0  0  0  0  0  0  0  0  0  0  0
    6.3130   56.6960    0.7400 C   0  0  2  0  0  0  0  0  0  0  0  0
    6.8990   56.3660    2.1250 C   0  0  0  0  0  0  0  0  0  0  0  0
    6.2240   55.1320    2.7290 C   0  0  0  0  0  0  0  0  0  0  0  0
    6.3150   53.9250    1.7860 C   0  0  1  0  0  0  0  0  0  0  0  0
    5.6430   52.7570    2.3820 C   0  0  0  0  0  0  0  0  0  0  0  0
    5.1110   51.8380    2.8530 N   0  0  0  0  0  0  0  0  0  0  0  0
    5.7000   54.2550    0.4190 C   0  0  0  0  0  0  0  0  0  0  0  0
    6.3380   55.4920   -0.2150 C   0  0  0  0  0  0  0  0  0  0  0  0
    4.5601   59.1711    2.6601 H   0  0  0  0  0  0  0  0  0  0  0  0
    3.2342   58.5278    1.6330 H   0  0  0  0  0  0  0  0  0  0  0  0
    4.8409   57.7245    1.6330 H   0  0  0  0  0  0  0  0  0  0  0  0
    4.0014   59.5055   -0.2255 H   0  0  0  0  0  0  0  0  0  0  0  0
    4.1560   61.0620    1.6470 H   0  0  0  0  0  0  0  0  0  0  0  0
    8.9589   60.7127   -2.4517 H   0  0  0  0  0  0  0  0  0  0  0  0
   12.0110   56.9940   -1.8010 H   0  0  0  0  0  0  0  0  0  0  0  0
   11.3540   54.9897   -0.2392 H   0  0  0  0  0  0  0  0  0  0  0  0
    8.8772   55.5165    0.6747 H   0  0  0  0  0  0  0  0  0  0  0  0
    5.2610   56.9194    0.9709 H   0  0  0  0  0  0  0  0  0  0  0  0
    7.9768   56.1718    2.0221 H   0  0  0  0  0  0  0  0  0  0  0  0
    6.7226   57.2226    2.7922 H   0  0  0  0  0  0  0  0  0  0  0  0
    6.7195   54.8821    3.6787 H   0  0  0  0  0  0  0  0  0  0  0  0
    5.1612   55.3642    2.8919 H   0  0  0  0  0  0  0  0  0  0  0  0
    7.3776   53.6827    1.6370 H   0  0  0  0  0  0  0  0  0  0  0  0
    5.8469   53.3964   -0.2527 H   0  0  0  0  0  0  0  0  0  0  0  0
    4.6309   54.4649    0.5702 H   0  0  0  0  0  0  0  0  0  0  0  0
    7.3826   55.2624   -0.4722 H   0  0  0  0  0  0  0  0  0  0  0  0
    5.7599   55.7543   -1.1133 H   0  0  0  0  0  0  0  0  0  0  0  0
  1  2  1  0
  2  3  1  0
  2  4  1  0
  4  5  2  0
  5  6  1  0
  6  7  2  0
  7  8  1  0
  8  9  2  0
  9 10  1  0
 10 11  1  0
 11 12  2  0
 12 13  1  0
 13 14  2  0
 14 15  1  0
 15 16  1  0
 16 17  1  0
 17 18  1  0
 18 19  1  0
 19 20  1  0
 20 21  3  0
 19 22  1  0
 22 23  1  0
 15  4  1  0
 23 16  1  0
 14  6  1  0
 13  9  1  0
  1 24  1  0
  1 25  1  0
  1 26  1  0
  2 27  1  6
  3 28  1  0
  7 29  1  0
 10 30  1  0
 11 31  1  0
 12 32  1  0
 16 33  1  6
 17 34  1  0
 17 35  1  0
 18 36  1  0
 18 37  1  0
 19 38  1  1
 22 39  1  0
 22 40  1  0
 23 41  1  0
 23 42  1  0
M  END
>  <meeko>  (3) 
{"is_sidechain": [false], "free_energy": -8.09, "intermolecular_energy": -9.737, "internal_energy": 0.27}

$$$$
4ivb_ligand
     RDKit          3D

 42 45  0  0  0  0  0  0  0  0999 V2000
    5.1300   52.1780    1.1320 C   0  0  0  0  0  0  0  0  0  0  0  0
    6.0560   52.7710    2.1820 C   0  0  1  0  0  0  0  0  0  0  0  0
    6.3270   51.8380    3.2170 O   0  0  0  0  0  0  0  0  0  0  0  0
    7.3310   53.3020    1.5920 C   0  0  0  0  0  0  0  0  0  0  0  0
    8.3840   52.5020    1.4600 N   0  0  0  0  0  0  0  0  0  0  0  0
    9.3320   53.2130    0.7890 C   0  0  0  0  0  0  0  0  0  0  0  0
   10.6200   52.8640    0.3450 C   0  0  0  0  0  0  0  0  0  0  0  0
   11.4200   53.7230   -0.3570 N   0  0  0  0  0  0  0  0  0  0  0  0
   10.8680   54.9220   -0.6100 C   0  0  0  0  0  0  0  0  0  0  0  0
   11.4260   55.9490   -1.3160 N   0  0  0  0  0  0  0  0  0  0  0  0
   10.5320   56.9970   -1.3890 C   0  0  0  0  0  0  0  0  0  0  0  0
    9.3790   56.6420   -0.7070 C   0  0  0  0  0  0  0  0  0  0  0  0
    9.6190   55.3380   -0.2060 C   0  0  0  0  0  0  0  0  0  0  0  0
    8.8500   54.4780    0.5250 C   0  0  0  0  0  0  0  0  0  0  0  0
    7.6250   54.5830    1.1090 N   0  0  0  0  0  0  0  0  0  0  0  0
    6.8510   55.8150    1.2370 C   0  0  2  0  0  0  0  0  0  0  0  0
    6.1690   56.0750    2.5930 C   0  0  0  0  0  0  0  0  0  0  0  0
    5.5350   57.4680    2.6320 C   0  0  0  0  0  0  0  0  0  0  0  0
    4.5560   57.6730    1.4690 C   0  0  1  0  0  0  0  0  0  0  0  0
    3.9750   59.0260    1.5190 C   0  0  0  0  0  0  0  0  0  0  0  0
    3.5200   60.0930    1.5600 N   0  0  0  0  0  0  0  0  0  0  0  0
    5.2550   57.4420    0.1220 C   0  0  0  0  0  0  0  0  0  0  0  0
    5.9140   56.0630    0.0460 C   0  0  0  0  0  0  0  0  0  0  0  0
    4.3035   51.6487    1.6288 H   0  0  0  0  0  0  0  0  0  0  0  0
    4.7239   52.9845    0.5037 H   0  0  0  0  0  0  0  0  0  0  0  0
    5.6926   51.4718    0.5037 H   0  0  0  0  0  0  0  0  0  0  0  0
    5.5237   53.6283    2.6199 H   0  0  0  0  0  0  0  0  0  0  0  0
    5.6160   51.9460    3.8720 H   0  0  0  0  0  0  0  0  0  0  0  0
   11.0003   51.8571    0.5720 H   0  0  0  0  0  0  0  0  0  0  0  0
   12.3460   55.9140   -1.7310 H   0  0  0  0  0  0  0  0  0  0  0  0
   10.7053   57.9542   -1.9026 H   0  0  0  0  0  0  0  0  0  0  0  0
    8.4682   57.2458   -0.5809 H   0  0  0  0  0  0  0  0  0  0  0  0
    7.6361   56.5851    1.2110 H   0  0  0  0  0  0  0  0  0  0  0  0
    5.3859   55.3191    2.7522 H   0  0  0  0  0  0  0  0  0  0  0  0
    6.9304   56.0150    3.3846 H   0  0  0  0  0  0  0  0  0  0  0  0
    4.9922   57.5872    3.5813 H   0  0  0  0  0  0  0  0  0  0  0  0
    6.3376   58.2150    2.5432 H   0  0  0  0  0  0  0  0  0  0  0  0
    3.7445   56.9370    1.5681 H   0  0  0  0  0  0  0  0  0  0  0  0
    4.5101   57.5243   -0.6832 H   0  0  0  0  0  0  0  0  0  0  0  0
    6.0436   58.2013    0.0143 H   0  0  0  0  0  0  0  0  0  0  0  0
    5.1290   55.2924    0.0435 H   0  0  0  0  0  0  0  0  0  0  0  0
    6.5123   56.0192   -0.8760 H   0  0  0  0  0  0  0  0  0  0  0  0
  1  2  1  0
  2  3  1  0
  2  4  1  0
  4  5  2  0
  5  6  1  0
  6  7  2  0
  7  8  1  0
  8  9  2  0
  9 10  1  0
 10 11  1  0
 11 12  2  0
 12 13  1  0
 13 14  2  0
 14 15  1  0
 15 16  1  0
 16 17  1  0
 17 18  1  0
 18 19  1  0
 19 20  1  0
 20 21  3  0
 19 22  1  0
 22 23  1  0
 15  4  1  0
 23 16  1  0
 14  6  1  0
 13  9  1  0
  1 24  1  0
  1 25  1  0
  1 26  1  0
  2 27  1  1
  3 28  1  0
  7 29  1  0
 10 30  1  0
 11 31  1  0
 12 32  1  0
 16 33  1  1
 17 34  1  0
 17 35  1  0
 18 36  1  0
 18 37  1  0
 19 38  1  6
 22 39  1  0
 22 40  1  0
 23 41  1  0
 23 42  1  0
M  END
>  <meeko>  (4) 
{"is_sidechain": [false], "free_energy": -7.744, "intermolecular_energy": -8.439, "internal_energy": -0.631}

$$$$
4ivb_ligand
     RDKit          3D

 42 45  0  0  0  0  0  0  0  0999 V2000
   11.1410   53.8470    1.6030 C   0  0  0  0  0  0  0  0  0  0  0  0
   10.6030   54.5760    0.3820 C   0  0  1  0  0  0  0  0  0  0  0  0
   10.8120   53.8210   -0.8020 O   0  0  0  0  0  0  0  0  0  0  0  0
    9.1570   54.9540    0.5270 C   0  0  0  0  0  0  0  0  0  0  0  0
    8.3370   54.1830    1.2340 N   0  0  0  0  0  0  0  0  0  0  0  0
    7.1440   54.8360    1.2940 C   0  0  0  0  0  0  0  0  0  0  0  0
    5.9340   54.5120    1.9340 C   0  0  0  0  0  0  0  0  0  0  0  0
    4.8400   55.3310    1.9080 N   0  0  0  0  0  0  0  0  0  0  0  0
    5.0170   56.4830    1.2390 C   0  0  0  0  0  0  0  0  0  0  0  0
    4.1090   57.4920    1.0850 N   0  0  0  0  0  0  0  0  0  0  0  0
    4.6810   58.5210    0.3670 C   0  0  0  0  0  0  0  0  0  0  0  0
    5.9800   58.1650    0.0440 C   0  0  0  0  0  0  0  0  0  0  0  0
    6.1660   56.8680    0.5840 C   0  0  0  0  0  0  0  0  0  0  0  0
    7.2370   56.0200    0.5930 C   0  0  0  0  0  0  0  0  0  0  0  0
    8.4710   56.0650    0.0210 N   0  0  0  0  0  0  0  0  0  0  0  0
    8.9130   57.0510   -0.9610 C   0  0  2  0  0  0  0  0  0  0  0  0
   10.2510   56.7790   -1.6740 C   0  0  0  0  0  0  0  0  0  0  0  0
   10.5040   57.8040   -2.7830 C   0  0  0  0  0  0  0  0  0  0  0  0
   10.4440   59.2390   -2.2440 C   0  0  1  0  0  0  0  0  0  0  0  0
   10.6710   60.2060   -3.3330 C   0  0  0  0  0  0  0  0  0  0  0  0
   10.8490   60.9650   -4.1930 N   0  0  0  0  0  0  0  0  0  0  0  0
    9.0950   59.5090   -1.5640 C   0  0  0  0  0  0  0  0  0  0  0  0
    8.7960   58.4980   -0.4560 C   0  0  0  0  0  0  0  0  0  0  0  0
   10.7762   54.3413    2.5155 H   0  0  0  0  0  0  0  0  0  0  0  0
   10.7954   52.8028    1.5885 H   0  0  0  0  0  0  0  0  0  0  0  0
   12.2407   53.8695    1.5885 H   0  0  0  0  0  0  0  0  0  0  0  0
   11.1730   55.5133    0.3010 H   0  0  0  0  0  0  0  0  0  0  0  0
   11.6460   54.1440   -1.1860 H   0  0  0  0  0  0  0  0  0  0  0  0
    5.8653   53.5588    2.4787 H   0  0  0  0  0  0  0  0  0  0  0  0
    3.1750   57.4710    1.4680 H   0  0  0  0  0  0  0  0  0  0  0  0
    4.1881   59.4664    0.0961 H   0  0  0  0  0  0  0  0  0  0  0  0
    6.7140   58.7640   -0.5150 H   0  0  0  0  0  0  0  0  0  0  0  0
    8.1782   56.9167   -1.7685 H   0  0  0  0  0  0  0  0  0  0  0  0
   11.0676   56.8361   -0.9392 H   0  0  0  0  0  0  0  0  0  0  0  0
   10.2076   55.7777   -2.1274 H   0  0  0  0  0  0  0  0  0  0  0  0
   11.4998   57.6254   -3.2149 H   0  0  0  0  0  0  0  0  0  0  0  0
    9.7206   57.6882   -3.5464 H   0  0  0  0  0  0  0  0  0  0  0  0
   11.2394   59.3589   -1.4937 H   0  0  0  0  0  0  0  0  0  0  0  0
    9.1138   60.5184   -1.1273 H   0  0  0  0  0  0  0  0  0  0  0  0
    8.3074   59.4183   -2.3265 H   0  0  0  0  0  0  0  0  0  0  0  0
    9.5115   58.6478    0.3660 H   0  0  0  0  0  0  0  0  0  0  0  0
    7.7632   58.6595   -0.1135 H   0  0  0  0  0  0  0  0  0  0  0  0
  1  2  1  0
  2  3  1  0
  2  4  1  0
  4  5  2  0
  5  6  1  0
  6  7  2  0
  7  8  1  0
  8  9  2  0
  9 10  1  0
 10 11  1  0
 11 12  2  0
 12 13  1  0
 13 14  2  0
 14 15  1  0
 15 16  1  0
 16 17  1  0
 17 18  1  0
 18 19  1  0
 19 20  1  0
 20 21  3  0
 19 22  1  0
 22 23  1  0
 15  4  1  0
 23 16  1  0
 14  6  1  0
 13  9  1  0
  1 24  1  0
  1 25  1  0
  1 26  1  0
  2 27  1  6
  3 28  1  0
  7 29  1  0
 10 30  1  0
 11 31  1  0
 12 32  1  0
 16 33  1  1
 17 34  1  0
 17 35  1  0
 18 36  1  0
 18 37  1  0
 19 38  1  6
 22 39  1  0
 22 40  1  0
 23 41  1  0
 23 42  1  0
M  END
>  <meeko>  (5) 
{"is_sidechain": [false], "free_energy": -7.598, "intermolecular_energy": -9.771, "internal_energy": 0.869}

$$$$
4ivb_ligand
     RDKit          3D

 42 45  0  0  0  0  0  0  0  0999 V2000
   10.3460   60.0210   -2.8060 C   0  0  0  0  0  0  0  0  0  0  0  0
    9.8760   58.7310   -2.1530 C   0  0  1  0  0  0  0  0  0  0  0  0
   10.9140   58.1290   -1.3950 O   0  0  0  0  0  0  0  0  0  0  0  0
    8.6450   58.9250   -1.3150 C   0  0  0  0  0  0  0  0  0  0  0  0
    8.0380   60.1060   -1.2910 N   0  0  0  0  0  0  0  0  0  0  0  0
    6.8990   59.9450   -0.5610 C   0  0  0  0  0  0  0  0  0  0  0  0
    5.8630   60.8390   -0.2390 C   0  0  0  0  0  0  0  0  0  0  0  0
    4.7660   60.4700    0.4880 N   0  0  0  0  0  0  0  0  0  0  0  0
    4.7430   59.1770    0.8520 C   0  0  0  0  0  0  0  0  0  0  0  0
    3.7570   58.5360    1.5470 N   0  0  0  0  0  0  0  0  0  0  0  0
    4.0850   57.2040    1.6900 C   0  0  0  0  0  0  0  0  0  0  0  0
    5.3110   56.9830    1.0830 C   0  0  0  0  0  0  0  0  0  0  0  0
    5.7180   58.2430    0.5790 C   0  0  0  0  0  0  0  0  0  0  0  0
    6.8240   58.6410   -0.1180 C   0  0  0  0  0  0  0  0  0  0  0  0
    7.9660   58.0070   -0.5030 N   0  0  0  0  0  0  0  0  0  0  0  0
    8.3790   56.6740   -0.0760 C   0  0  2  0  0  0  0  0  0  0  0  0
    7.3430   55.5420   -0.2120 C   0  0  0  0  0  0  0  0  0  0  0  0
    7.9650   54.1830    0.1190 C   0  0  0  0  0  0  0  0  0  0  0  0
    8.6070   54.1840    1.5130 C   0  0  1  0  0  0  0  0  0  0  0  0
    9.2140   52.8720    1.7990 C   0  0  0  0  0  0  0  0  0  0  0  0
    9.6920   51.8380    2.0210 N   0  0  0  0  0  0  0  0  0  0  0  0
    9.6590   55.2950    1.6270 C   0  0  0  0  0  0  0  0  0  0  0  0
    9.0820   56.6710    1.2910 C   0  0  0  0  0  0  0  0  0  0  0  0
   10.6118   60.7506   -2.0269 H   0  0  0  0  0  0  0  0  0  0  0  0
   11.2270   59.8154   -3.4318 H   0  0  0  0  0  0  0  0  0  0  0  0
    9.5392   60.4303   -3.4318 H   0  0  0  0  0  0  0  0  0  0  0  0
    9.6035   58.0477   -2.9709 H   0  0  0  0  0  0  0  0  0  0  0  0
   11.6120   58.8020   -1.3090 H   0  0  0  0  0  0  0  0  0  0  0  0
    5.9384   61.8798   -0.5869 H   0  0  0  0  0  0  0  0  0  0  0  0
    2.9160   58.9880    1.8770 H   0  0  0  0  0  0  0  0  0  0  0  0
    3.4753   56.4440    2.2006 H   0  0  0  0  0  0  0  0  0  0  0  0
    5.8542   56.0294    1.0082 H   0  0  0  0  0  0  0  0  0  0  0  0
    9.1262   56.4091   -0.8386 H   0  0  0  0  0  0  0  0  0  0  0  0
    6.5090   55.7333    0.4793 H   0  0  0  0  0  0  0  0  0  0  0  0
    6.9855   55.5186   -1.2520 H   0  0  0  0  0  0  0  0  0  0  0  0
    7.1799   53.4131    0.0874 H   0  0  0  0  0  0  0  0  0  0  0  0
    8.7496   53.9722   -0.6226 H   0  0  0  0  0  0  0  0  0  0  0  0
    7.8188   54.3776    2.2555 H   0  0  0  0  0  0  0  0  0  0  0  0
   10.0445   55.3140    2.6571 H   0  0  0  0  0  0  0  0  0  0  0  0
   10.4599   55.0782    0.9048 H   0  0  0  0  0  0  0  0  0  0  0  0
    8.3543   56.9516    2.0667 H   0  0  0  0  0  0  0  0  0  0  0  0
    9.9127   57.3909    1.2511 H   0  0  0  0  0  0  0  0  0  0  0  0
  1  2  1  0
  2  3  1  0
  2  4  1  0
  4  5  2  0
  5  6  1  0
  6  7  2  0
  7  8  1  0
  8  9  2  0
  9 10  1  0
 10 11  1  0
 11 12  2  0
 12 13  1  0
 13 14  2  0
 14 15  1  0
 15 16  1  0
 16 17  1  0
 17 18  1  0
 18 19  1  0
 19 20  1  0
 20 21  3  0
 19 22  1  0
 22 23  1  0
 15  4  1  0
 23 16  1  0
 14  6  1  0
 13  9  1  0
  1 24  1  0
  1 25  1  0
  1 26  1  0
  2 27  1  6
  3 28  1  0
  7 29  1  0
 10 30  1  0
 11 31  1  0
 12 32  1  0
 16 33  1  1
 17 34  1  0
 17 35  1  0
 18 36  1  0
 18 37  1  0
 19 38  1  6
 22 39  1  0
 22 40  1  0
 23 41  1  0
 23 42  1  0
M  END
>  <meeko>  (6) 
{"is_sidechain": [false], "free_energy": -7.575, "intermolecular_energy": -9.176, "internal_energy": 0.3}

$$$$
4ivb_ligand
     RDKit          3D

 42 45  0  0  0  0  0  0  0  0999 V2000
    3.6310   56.5990    1.3070 C   0  0  0  0  0  0  0  0  0  0  0  0
    5.0100   57.2330    1.4030 C   0  0  1  0  0  0  0  0  0  0  0  0
    5.0520   58.2230    2.4200 O   0  0  0  0  0  0  0  0  0  0  0  0
    6.1000   56.2190    1.5970 C   0  0  0  0  0  0  0  0  0  0  0  0
    5.8870   55.1560    2.3660 N   0  0  0  0  0  0  0  0  0  0  0  0
    6.9890   54.3650    2.2500 C   0  0  0  0  0  0  0  0  0  0  0  0
    7.3000   53.1110    2.8060 C   0  0  0  0  0  0  0  0  0  0  0  0
    8.4650   52.4490    2.5360 N   0  0  0  0  0  0  0  0  0  0  0  0
    9.2830   53.0810    1.6770 C   0  0  0  0  0  0  0  0  0  0  0  0
   10.4850   52.6350    1.2080 N   0  0  0  0  0  0  0  0  0  0  0  0
   11.0010   53.5510    0.3160 C   0  0  0  0  0  0  0  0  0  0  0  0
   10.1190   54.6140    0.2140 C   0  0  0  0  0  0  0  0  0  0  0  0
    9.0520   54.3090    1.0960 C   0  0  0  0  0  0  0  0  0  0  0  0
    7.8980   54.9700    1.4080 C   0  0  0  0  0  0  0  0  0  0  0  0
    7.3930   56.1860    1.0620 N   0  0  0  0  0  0  0  0  0  0  0  0
    8.1180   57.2290    0.3400 C   0  0  2  0  0  0  0  0  0  0  0  0
    7.4300   58.6010    0.2150 C   0  0  0  0  0  0  0  0  0  0  0  0
    8.3680   59.6320   -0.4180 C   0  0  0  0  0  0  0  0  0  0  0  0
    8.8970   59.1500   -1.7750 C   0  0  1  0  0  0  0  0  0  0  0  0
    9.8110   60.1500   -2.3550 C   0  0  0  0  0  0  0  0  0  0  0  0
   10.5310   60.9390   -2.8080 N   0  0  0  0  0  0  0  0  0  0  0  0
    9.6080   57.7970   -1.6330 C   0  0  0  0  0  0  0  0  0  0  0  0
    8.7080   56.7400   -0.9910 C   0  0  0  0  0  0  0  0  0  0  0  0
    3.2390   56.4188    2.3189 H   0  0  0  0  0  0  0  0  0  0  0  0
    2.9531   57.2758    0.7663 H   0  0  0  0  0  0  0  0  0  0  0  0
    3.7034   55.6438    0.7663 H   0  0  0  0  0  0  0  0  0  0  0  0
    5.1969   57.7216    0.4354 H   0  0  0  0  0  0  0  0  0  0  0  0
    4.3370   58.8510    2.2160 H   0  0  0  0  0  0  0  0  0  0  0  0
    6.5744   52.6429    3.4875 H   0  0  0  0  0  0  0  0  0  0  0  0
   10.9010   51.7530    1.4730 H   0  0  0  0  0  0  0  0  0  0  0  0
   11.9541   53.4538   -0.2245 H   0  0  0  0  0  0  0  0  0  0  0  0
   10.2244   55.5076   -0.4188 H   0  0  0  0  0  0  0  0  0  0  0  0
    8.9560   57.4409    1.0203 H   0  0  0  0  0  0  0  0  0  0  0  0
    6.5333   58.4973   -0.4136 H   0  0  0  0  0  0  0  0  0  0  0  0
    7.1576   58.9485    1.2225 H   0  0  0  0  0  0  0  0  0  0  0  0
    7.8189   60.5742   -0.5623 H   0  0  0  0  0  0  0  0  0  0  0  0
    9.2255   59.7786    0.2552 H   0  0  0  0  0  0  0  0  0  0  0  0
    8.0398   59.0208   -2.4522 H   0  0  0  0  0  0  0  0  0  0  0  0
    9.9090   57.4477   -2.6317 H   0  0  0  0  0  0  0  0  0  0  0  0
   10.4821   57.9399   -0.9806 H   0  0  0  0  0  0  0  0  0  0  0  0
    7.8843   56.5060   -1.6815 H   0  0  0  0  0  0  0  0  0  0  0  0
    9.3180   55.8474   -0.7884 H   0  0  0  0  0  0  0  0  0  0  0  0
  1  2  1  0
  2  3  1  0
  2  4  1  0
  4  5  2  0
  5  6  1  0
  6  7  2  0
  7  8  1  0
  8  9  2  0
  9 10  1  0
 10 11  1  0
 11 12  2  0
 12 13  1  0
 13 14  2  0
 14 15  1  0
 15 16  1  0
 16 17  1  0
 17 18  1  0
 18 19  1  0
 19 20  1  0
 20 21  3  0
 19 22  1  0
 22 23  1  0
 15  4  1  0
 23 16  1  0
 14  6  1  0
 13  9  1  0
  1 24  1  0
  1 25  1  0
  1 26  1  0
  2 27  1  6
  3 28  1  0
  7 29  1  0
 10 30  1  0
 11 31  1  0
 12 32  1  0
 16 33  1  6
 17 34  1  0
 17 35  1  0
 18 36  1  0
 18 37  1  0
 19 38  1  1
 22 39  1  0
 22 40  1  0
 23 41  1  0
 23 42  1  0
M  END
>  <meeko>  (7) 
{"is_sidechain": [false], "free_energy": -6.412, "intermolecular_energy": -8.47, "internal_energy": 0.927}

$$$$
4ivb_ligand
     RDKit          3D

 42 45  0  0  0  0  0  0  0  0999 V2000
   11.0630   57.5030   -1.6820 C   0  0  0  0  0  0  0  0  0  0  0  0
   10.2930   57.5370   -0.3710 C   0  0  1  0  0  0  0  0  0  0  0  0
    9.3420   58.5910   -0.3600 O   0  0  0  0  0  0  0  0  0  0  0  0
    9.6400   56.2230   -0.0520 C   0  0  0  0  0  0  0  0  0  0  0  0
   10.2710   55.0860   -0.3220 N   0  0  0  0  0  0  0  0  0  0  0  0
    9.5030   54.0830    0.1860 C   0  0  0  0  0  0  0  0  0  0  0  0
    9.6920   52.6900    0.2240 C   0  0  0  0  0  0  0  0  0  0  0  0
    8.8070   51.8380    0.8240 N   0  0  0  0  0  0  0  0  0  0  0  0
    7.7500   52.4400    1.3960 C   0  0  0  0  0  0  0  0  0  0  0  0
    6.7380   51.8380    2.0890 N   0  0  0  0  0  0  0  0  0  0  0  0
    5.8630   52.7970    2.5530 C   0  0  0  0  0  0  0  0  0  0  0  0
    6.3130   54.0420    2.1430 C   0  0  0  0  0  0  0  0  0  0  0  0
    7.4930   53.7930    1.3970 C   0  0  0  0  0  0  0  0  0  0  0  0
    8.3720   54.6230    0.7610 C   0  0  0  0  0  0  0  0  0  0  0  0
    8.3950   55.9660    0.5350 N   0  0  0  0  0  0  0  0  0  0  0  0
    7.2960   56.8880    0.8060 C   0  0  2  0  0  0  0  0  0  0  0  0
    6.5820   56.7480    2.1630 C   0  0  0  0  0  0  0  0  0  0  0  0
    5.5690   57.8760    2.3730 C   0  0  0  0  0  0  0  0  0  0  0  0
    4.5600   57.9450    1.2190 C   0  0  1  0  0  0  0  0  0  0  0  0
    3.6090   59.0500    1.4350 C   0  0  0  0  0  0  0  0  0  0  0  0
    2.8620   59.9220    1.6060 N   0  0  0  0  0  0  0  0  0  0  0  0
    5.2800   58.1170   -0.1250 C   0  0  0  0  0  0  0  0  0  0  0  0
    6.3130   57.0150   -0.3680 C   0  0  0  0  0  0  0  0  0  0  0  0
   12.1418   57.4554   -1.4725 H   0  0  0  0  0  0  0  0  0  0  0  0
   10.7624   56.6172   -2.2609 H   0  0  0  0  0  0  0  0  0  0  0  0
   10.8417   58.4118   -2.2609 H   0  0  0  0  0  0  0  0  0  0  0  0
   11.0317   57.7283    0.4213 H   0  0  0  0  0  0  0  0  0  0  0  0
    8.4920   58.1860   -0.1150 H   0  0  0  0  0  0  0  0  0  0  0  0
   10.5906   52.2677   -0.2494 H   0  0  0  0  0  0  0  0  0  0  0  0
    6.6760   50.8420    2.2430 H   0  0  0  0  0  0  0  0  0  0  0  0
    4.9586   52.6059    3.1492 H   0  0  0  0  0  0  0  0  0  0  0  0
    5.8517   55.0184    2.3523 H   0  0  0  0  0  0  0  0  0  0  0  0
    7.8224   57.8484    0.9087 H   0  0  0  0  0  0  0  0  0  0  0  0
    6.0558   55.7825    2.1939 H   0  0  0  0  0  0  0  0  0  0  0  0
    7.3365   56.8035    2.9615 H   0  0  0  0  0  0  0  0  0  0  0  0
    5.0259   57.6988    3.3130 H   0  0  0  0  0  0  0  0  0  0  0  0
    6.1160   58.8295    2.4118 H   0  0  0  0  0  0  0  0  0  0  0  0
    4.0016   56.9977    1.1927 H   0  0  0  0  0  0  0  0  0  0  0  0
    4.5344   58.0891   -0.9333 H   0  0  0  0  0  0  0  0  0  0  0  0
    5.8101   59.0806   -0.1051 H   0  0  0  0  0  0  0  0  0  0  0  0
    5.7882   56.0571   -0.4986 H   0  0  0  0  0  0  0  0  0  0  0  0
    6.8873   57.2762   -1.2691 H   0  0  0  0  0  0  0  0  0  0  0  0
  1  2  1  0
  2  3  1  0
  2  4  1  0
  4  5  2  0
  5  6  1  0
  6  7  2  0
  7  8  1  0
  8  9  2  0
  9 10  1  0
 10 11  1  0
 11 12  2  0
 12 13  1  0
 13 14  2  0
 14 15  1  0
 15 16  1  0
 16 17  1  0
 17 18  1  0
 18 19  1  0
 19 20  1  0
 20 21  3  0
 19 22  1  0
 22 23  1  0
 15  4  1  0
 23 16  1  0
 14  6  1  0
 13  9  1  0
  1 24  1  0
  1 25  1  0
  1 26  1  0
  2 27  1  1
  3 28  1  0
  7 29  1  0
 10 30  1  0
 11 31  1  0
 12 32  1  0
 16 33  1  6
 17 34  1  0
 17 35  1  0
 18 36  1  0
 18 37  1  0
 19 38  1  1
 22 39  1  0
 22 40  1  0
 23 41  1  0
 23 42  1  0
M  END
>  <meeko>  (8) 
{"is_sidechain": [false], "free_energy": -6.391, "intermolecular_energy": -8.333, "internal_energy": 0.813}

$$$$
4ivb_ligand
     RDKit          3D

 42 45  0  0  0  0  0  0  0  0999 V2000
    3.8710   59.6770    1.0270 C   0  0  0  0  0  0  0  0  0  0  0  0
    5.2450   59.4970    0.4020 C   0  0  1  0  0  0  0  0  0  0  0  0
    6.0430   60.6590    0.5670 O   0  0  0  0  0  0  0  0  0  0  0  0
    5.9590   58.2800    0.9170 C   0  0  0  0  0  0  0  0  0  0  0  0
    5.5470   57.6940    2.0360 N   0  0  0  0  0  0  0  0  0  0  0  0
    6.2920   56.5620    2.1790 C   0  0  0  0  0  0  0  0  0  0  0  0
    6.2660   55.5460    3.1510 C   0  0  0  0  0  0  0  0  0  0  0  0
    7.0840   54.4520    3.1000 N   0  0  0  0  0  0  0  0  0  0  0  0
    7.9010   54.4120    2.0340 C   0  0  0  0  0  0  0  0  0  0  0  0
    8.7900   53.4240    1.7170 N   0  0  0  0  0  0  0  0  0  0  0  0
    9.4140   53.7310    0.5260 C   0  0  0  0  0  0  0  0  0  0  0  0
    8.9250   54.9450    0.0700 C   0  0  0  0  0  0  0  0  0  0  0  0
    7.9880   55.3670    1.0460 C   0  0  0  0  0  0  0  0  0  0  0  0
    7.1870   56.4710    1.1350 C   0  0  0  0  0  0  0  0  0  0  0  0
    7.0570   57.5960    0.3790 N   0  0  0  0  0  0  0  0  0  0  0  0
    7.9450   57.9920   -0.7090 C   0  0  2  0  0  0  0  0  0  0  0  0
    9.2630   57.2090   -0.8580 C   0  0  0  0  0  0  0  0  0  0  0  0
   10.0100   57.6220   -2.1280 C   0  0  0  0  0  0  0  0  0  0  0  0
   10.2560   59.1360   -2.1670 C   0  0  1  0  0  0  0  0  0  0  0  0
   10.9590   59.5110   -3.4070 C   0  0  0  0  0  0  0  0  0  0  0  0
   11.5110   59.8030   -4.3850 N   0  0  0  0  0  0  0  0  0  0  0  0
    8.9340   59.9060   -2.0500 C   0  0  0  0  0  0  0  0  0  0  0  0
    8.1480   59.5120   -0.7980 C   0  0  0  0  0  0  0  0  0  0  0  0
    3.9624   59.6650    2.1231 H   0  0  0  0  0  0  0  0  0  0  0  0
    3.4449   60.6386    0.7051 H   0  0  0  0  0  0  0  0  0  0  0  0
    3.2115   58.8576    0.7051 H   0  0  0  0  0  0  0  0  0  0  0  0
    5.0796   59.3401   -0.6741 H   0  0  0  0  0  0  0  0  0  0  0  0
    5.4530   61.3440    0.9280 H   0  0  0  0  0  0  0  0  0  0  0  0
    5.5575   55.6354    3.9877 H   0  0  0  0  0  0  0  0  0  0  0  0
    8.9340   52.5950    2.2750 H   0  0  0  0  0  0  0  0  0  0  0  0
   10.1733   53.1150    0.0220 H   0  0  0  0  0  0  0  0  0  0  0  0
    9.2052   55.4705   -0.8549 H   0  0  0  0  0  0  0  0  0  0  0  0
    7.3757   57.6771   -1.5960 H   0  0  0  0  0  0  0  0  0  0  0  0
    9.9009   57.4103    0.0153 H   0  0  0  0  0  0  0  0  0  0  0  0
    9.0261   56.1369   -0.9256 H   0  0  0  0  0  0  0  0  0  0  0  0
   10.9785   57.1014   -2.1586 H   0  0  0  0  0  0  0  0  0  0  0  0
    9.3922   57.3497   -2.9964 H   0  0  0  0  0  0  0  0  0  0  0  0
   10.8889   59.4037   -1.3080 H   0  0  0  0  0  0  0  0  0  0  0  0
    9.1534   60.9830   -2.0069 H   0  0  0  0  0  0  0  0  0  0  0  0
    8.3190   59.6590   -2.9280 H   0  0  0  0  0  0  0  0  0  0  0  0
    8.7006   59.8504    0.0909 H   0  0  0  0  0  0  0  0  0  0  0  0
    7.1575   59.9875   -0.8514 H   0  0  0  0  0  0  0  0  0  0  0  0
  1  2  1  0
  2  3  1  0
  2  4  1  0
  4  5  2  0
  5  6  1  0
  6  7  2  0
  7  8  1  0
  8  9  2  0
  9 10  1  0
 10 11  1  0
 11 12  2  0
 12 13  1  0
 13 14  2  0
 14 15  1  0
 15 16  1  0
 16 17  1  0
 17 18  1  0
 18 19  1  0
 19 20  1  0
 20 21  3  0
 19 22  1  0
 22 23  1  0
 15  4  1  0
 23 16  1  0
 14  6  1  0
 13  9  1  0
  1 24  1  0
  1 25  1  0
  1 26  1  0
  2 27  1  6
  3 28  1  0
  7 29  1  0
 10 30  1  0
 11 31  1  0
 12 32  1  0
 16 33  1  1
 17 34  1  0
 17 35  1  0
 18 36  1  0
 18 37  1  0
 19 38  1  6
 22 39  1  0
 22 40  1  0
 23 41  1  0
 23 42  1  0
M  END
>  <meeko>  (9) 
{"is_sidechain": [false], "free_energy": -6.353, "intermolecular_energy": -9.769, "internal_energy": 2.294}

$$$$
