3nx7_ligand
     RDKit          3D

 36 36  0  0  0  0  0  0  0  0999 V2000
   -6.6810   -7.4130   -9.7780 C   0  0  0  0  0  0  0  0  0  0  0  0
   -6.6480   -6.4850   -8.7020 O   0  0  0  0  0  0  0  0  0  0  0  0
   -5.4670   -6.3580   -8.0240 C   0  0  0  0  0  0  0  0  0  0  0  0
   -4.2630   -5.8920   -8.5550 C   0  0  0  0  0  0  0  0  0  0  0  0
   -3.1230   -5.8090   -7.7470 C   0  0  0  0  0  0  0  0  0  0  0  0
   -3.1950   -6.1800   -6.4010 C   0  0  0  0  0  0  0  0  0  0  0  0
   -1.7400   -6.1090   -5.3830 S   0  0  0  0  0  0  0  0  0  0  0  0
   -1.5260   -7.4210   -4.8120 O   0  0  0  0  0  0  0  0  0  0  0  0
   -0.6930   -5.4600   -6.1470 O   0  0  0  0  0  0  0  0  0  0  0  0
   -2.1550   -5.0330   -4.1480 N   0  0  0  0  0  0  0  0  0  0  0  0
   -2.6670   -5.5260   -2.8370 C   0  0  0  0  0  0  0  0  0  0  0  0
   -1.5690   -5.6950   -1.7830 C   0  0  0  0  0  0  0  0  0  0  0  0
   -0.2730   -5.6260   -2.3700 O   0  0  0  0  0  0  0  0  0  0  0  0
   -2.7630   -3.7460   -4.5800 C   0  0  0  0  0  0  0  0  0  0  0  0
   -1.8070   -2.6130   -4.2540 C   0  0  0  0  0  0  0  0  0  0  0  0
   -2.1610   -1.4350   -4.1740 O   0  0  0  0  0  0  0  0  0  0  0  0
   -0.5010   -3.0040   -4.0510 N   0  0  0  0  0  0  0  0  0  0  0  0
    0.3630   -1.9700   -3.6080 O   0  0  0  0  0  0  0  0  0  0  0  0
   -4.3880   -6.6740   -5.8700 C   0  0  0  0  0  0  0  0  0  0  0  0
   -5.5200   -6.7500   -6.6830 C   0  0  0  0  0  0  0  0  0  0  0  0
   -6.7174   -8.4371   -9.3780 H   0  0  0  0  0  0  0  0  0  0  0  0
   -7.5731   -7.2282  -10.3944 H   0  0  0  0  0  0  0  0  0  0  0  0
   -5.7780   -7.2920  -10.3944 H   0  0  0  0  0  0  0  0  0  0  0  0
   -4.2100   -5.5892   -9.6112 H   0  0  0  0  0  0  0  0  0  0  0  0
   -2.1723   -5.4526   -8.1703 H   0  0  0  0  0  0  0  0  0  0  0  0
   -3.4070   -4.8058   -2.4580 H   0  0  0  0  0  0  0  0  0  0  0  0
   -3.1069   -6.5190   -3.0115 H   0  0  0  0  0  0  0  0  0  0  0  0
   -1.6658   -4.8958   -1.0334 H   0  0  0  0  0  0  0  0  0  0  0  0
   -1.6860   -6.6837   -1.3152 H   0  0  0  0  0  0  0  0  0  0  0  0
   -0.3970   -5.2270   -3.2600 H   0  0  0  0  0  0  0  0  0  0  0  0
   -2.9486   -3.7714   -5.6639 H   0  0  0  0  0  0  0  0  0  0  0  0
   -3.7163   -3.5905   -4.0537 H   0  0  0  0  0  0  0  0  0  0  0  0
   -0.3140   -3.9350   -3.6610 H   0  0  0  0  0  0  0  0  0  0  0  0
    0.8080   -2.3780   -2.8330 H   0  0  0  0  0  0  0  0  0  0  0  0
   -4.4354   -7.0003   -4.8206 H   0  0  0  0  0  0  0  0  0  0  0  0
   -6.4659   -7.1231   -6.2633 H   0  0  0  0  0  0  0  0  0  0  0  0
  1  2  1  0
  2  3  1  0
  3  4  2  0
  4  5  1  0
  5  6  2  0
  6  7  1  0
  7  8  2  0
  7  9  2  0
  7 10  1  0
 10 11  1  0
 11 12  1  0
 12 13  1  0
 10 14  1  0
 14 15  1  0
 15 16  2  0
 15 17  1  0
 17 18  1  0
  6 19  1  0
 19 20  2  0
 20  3  1  0
  1 21  1  0
  1 22  1  0
  1 23  1  0
  4 24  1  0
  5 25  1  0
 11 26  1  0
 11 27  1  0
 12 28  1  0
 12 29  1  0
 13 30  1  0
 14 31  1  0
 14 32  1  0
 17 33  1  0
 18 34  1  0
 19 35  1  0
 20 36  1  0
M  END
>  <meeko>  (1) 
{"is_sidechain": [false], "free_energy": -6.783, "intermolecular_energy": -9.956, "internal_energy": -1.074}

$$$$
3nx7_ligand
     RDKit          3D

 36 36  0  0  0  0  0  0  0  0999 V2000
   -6.7500   -7.6460   -9.9310 C   0  0  0  0  0  0  0  0  0  0  0  0
   -6.8510   -7.5820   -8.5140 O   0  0  0  0  0  0  0  0  0  0  0  0
   -5.8240   -6.9810   -7.8430 C   0  0  0  0  0  0  0  0  0  0  0  0
   -5.8580   -6.5330   -6.5210 C   0  0  0  0  0  0  0  0  0  0  0  0
   -4.7290   -5.9340   -5.9510 C   0  0  0  0  0  0  0  0  0  0  0  0
   -3.5580   -5.7980   -6.7030 C   0  0  0  0  0  0  0  0  0  0  0  0
   -2.1350   -5.0050   -5.9920 S   0  0  0  0  0  0  0  0  0  0  0  0
   -1.0050   -5.2450   -6.8630 O   0  0  0  0  0  0  0  0  0  0  0  0
   -2.5120   -3.6510   -5.6330 O   0  0  0  0  0  0  0  0  0  0  0  0
   -1.8920   -5.8270   -4.5360 N   0  0  0  0  0  0  0  0  0  0  0  0
   -1.6590   -5.0860   -3.2640 C   0  0  0  0  0  0  0  0  0  0  0  0
   -0.2080   -4.6290   -3.0860 C   0  0  0  0  0  0  0  0  0  0  0  0
    0.0530   -3.4380   -3.8200 O   0  0  0  0  0  0  0  0  0  0  0  0
   -1.1420   -7.1090   -4.6270 C   0  0  0  0  0  0  0  0  0  0  0  0
   -2.0750   -8.2530   -4.2740 C   0  0  0  0  0  0  0  0  0  0  0  0
   -3.2560   -8.0880   -3.9640 O   0  0  0  0  0  0  0  0  0  0  0  0
   -1.4970   -9.5030   -4.3270 N   0  0  0  0  0  0  0  0  0  0  0  0
   -2.4000  -10.5800   -4.1370 O   0  0  0  0  0  0  0  0  0  0  0  0
   -3.5240   -6.2170   -8.0340 C   0  0  0  0  0  0  0  0  0  0  0  0
   -4.6550   -6.8160   -8.5930 C   0  0  0  0  0  0  0  0  0  0  0  0
   -5.8510   -8.2156  -10.2092 H   0  0  0  0  0  0  0  0  0  0  0  0
   -7.6412   -8.1446  -10.3400 H   0  0  0  0  0  0  0  0  0  0  0  0
   -6.6797   -6.6273  -10.3400 H   0  0  0  0  0  0  0  0  0  0  0  0
   -6.7753   -6.6513   -5.9256 H   0  0  0  0  0  0  0  0  0  0  0  0
   -4.7627   -5.5708   -4.9132 H   0  0  0  0  0  0  0  0  0  0  0  0
   -2.3085   -4.1983   -3.2531 H   0  0  0  0  0  0  0  0  0  0  0  0
   -1.8867   -5.7764   -2.4384 H   0  0  0  0  0  0  0  0  0  0  0  0
   -0.0201   -4.4405   -2.0187 H   0  0  0  0  0  0  0  0  0  0  0  0
    0.4544   -5.4218   -3.4638 H   0  0  0  0  0  0  0  0  0  0  0  0
    0.2290   -3.7200   -4.7460 H   0  0  0  0  0  0  0  0  0  0  0  0
   -0.7645   -7.2436   -5.6514 H   0  0  0  0  0  0  0  0  0  0  0  0
   -0.2924   -7.0931   -3.9285 H   0  0  0  0  0  0  0  0  0  0  0  0
   -0.7400   -9.6740   -4.9990 H   0  0  0  0  0  0  0  0  0  0  0  0
   -2.1280  -10.9380   -3.2640 H   0  0  0  0  0  0  0  0  0  0  0  0
   -2.6148   -6.0767   -8.6371 H   0  0  0  0  0  0  0  0  0  0  0  0
   -4.6261   -7.1625   -9.6366 H   0  0  0  0  0  0  0  0  0  0  0  0
  1  2  1  0
  2  3  1  0
  3  4  2  0
  4  5  1  0
  5  6  2  0
  6  7  1  0
  7  8  2  0
  7  9  2  0
  7 10  1  0
 10 11  1  0
 11 12  1  0
 12 13  1  0
 10 14  1  0
 14 15  1  0
 15 16  2  0
 15 17  1  0
 17 18  1  0
  6 19  1  0
 19 20  2  0
 20  3  1  0
  1 21  1  0
  1 22  1  0
  1 23  1  0
  4 24  1  0
  5 25  1  0
 11 26  1  0
 11 27  1  0
 12 28  1  0
 12 29  1  0
 13 30  1  0
 14 31  1  0
 14 32  1  0
 17 33  1  0
 18 34  1  0
 19 35  1  0
 20 36  1  0
M  END
>  <meeko>  (2) 
{"is_sidechain": [false], "free_energy": -6.771, "intermolecular_energy": -10.154, "internal_energy": -0.857}

$$$$
3nx7_ligand
     RDKit          3D

 36 36  0  0  0  0  0  0  0  0999 V2000
   -7.2780   -8.2790   -9.2360 C   0  0  0  0  0  0  0  0  0  0  0  0
   -6.2570   -7.3250   -9.4980 O   0  0  0  0  0  0  0  0  0  0  0  0
   -5.6180   -6.7830   -8.4180 C   0  0  0  0  0  0  0  0  0  0  0  0
   -6.0660   -6.8210   -7.0960 C   0  0  0  0  0  0  0  0  0  0  0  0
   -5.3100   -6.2260   -6.0790 C   0  0  0  0  0  0  0  0  0  0  0  0
   -4.0950   -5.6060   -6.3870 C   0  0  0  0  0  0  0  0  0  0  0  0
   -3.1510   -4.8200   -5.1020 S   0  0  0  0  0  0  0  0  0  0  0  0
   -2.5010   -3.6590   -5.6690 O   0  0  0  0  0  0  0  0  0  0  0  0
   -4.0050   -4.6890   -3.9380 O   0  0  0  0  0  0  0  0  0  0  0  0
   -1.9760   -5.9650   -4.6960 N   0  0  0  0  0  0  0  0  0  0  0  0
   -0.5300   -5.6060   -4.6670 C   0  0  0  0  0  0  0  0  0  0  0  0
   -0.1450   -4.7380   -3.4670 C   0  0  0  0  0  0  0  0  0  0  0  0
   -0.0250   -3.3680   -3.8360 O   0  0  0  0  0  0  0  0  0  0  0  0
   -2.2370   -7.3580   -5.1510 C   0  0  0  0  0  0  0  0  0  0  0  0
   -2.7040   -8.1850   -3.9660 C   0  0  0  0  0  0  0  0  0  0  0  0
   -2.8760   -9.4030   -4.0220 O   0  0  0  0  0  0  0  0  0  0  0  0
   -2.9220   -7.4630   -2.8120 N   0  0  0  0  0  0  0  0  0  0  0  0
   -3.2200   -8.2510   -1.6710 O   0  0  0  0  0  0  0  0  0  0  0  0
   -3.6540   -5.5390   -7.7090 C   0  0  0  0  0  0  0  0  0  0  0  0
   -4.4140   -6.1380   -8.7160 C   0  0  0  0  0  0  0  0  0  0  0  0
   -7.4017   -8.3946   -8.1491 H   0  0  0  0  0  0  0  0  0  0  0  0
   -8.2243   -7.9340   -9.6781 H   0  0  0  0  0  0  0  0  0  0  0  0
   -6.9980   -9.2465   -9.6781 H   0  0  0  0  0  0  0  0  0  0  0  0
   -7.0157   -7.3199   -6.8530 H   0  0  0  0  0  0  0  0  0  0  0  0
   -5.6709   -6.2461   -5.0401 H   0  0  0  0  0  0  0  0  0  0  0  0
    0.0593   -6.5341   -4.6298 H   0  0  0  0  0  0  0  0  0  0  0  0
   -0.3222   -5.0186   -5.5736 H   0  0  0  0  0  0  0  0  0  0  0  0
   -0.9200   -4.8338   -2.6923 H   0  0  0  0  0  0  0  0  0  0  0  0
    0.8288   -5.0819   -3.0883 H   0  0  0  0  0  0  0  0  0  0  0  0
    0.5930   -2.9620   -3.1880 H   0  0  0  0  0  0  0  0  0  0  0  0
   -3.0164   -7.3527   -5.9272 H   0  0  0  0  0  0  0  0  0  0  0  0
   -1.3161   -7.7919   -5.5676 H   0  0  0  0  0  0  0  0  0  0  0  0
   -2.3600   -6.6230   -2.6350 H   0  0  0  0  0  0  0  0  0  0  0  0
   -3.2820   -9.1570   -2.0450 H   0  0  0  0  0  0  0  0  0  0  0  0
   -2.7165   -5.0192   -7.9558 H   0  0  0  0  0  0  0  0  0  0  0  0
   -4.0607   -6.1018   -9.7571 H   0  0  0  0  0  0  0  0  0  0  0  0
  1  2  1  0
  2  3  1  0
  3  4  2  0
  4  5  1  0
  5  6  2  0
  6  7  1  0
  7  8  2  0
  7  9  2  0
  7 10  1  0
 10 11  1  0
 11 12  1  0
 12 13  1  0
 10 14  1  0
 14 15  1  0
 15 16  2  0
 15 17  1  0
 17 18  1  0
  6 19  1  0
 19 20  2  0
 20  3  1  0
  1 21  1  0
  1 22  1  0
  1 23  1  0
  4 24  1  0
  5 25  1  0
 11 26  1  0
 11 27  1  0
 12 28  1  0
 12 29  1  0
 13 30  1  0
 14 31  1  0
 14 32  1  0
 17 33  1  0
 18 34  1  0
 19 35  1  0
 20 36  1  0
M  END
>  <meeko>  (3) 
{"is_sidechain": [false], "free_energy": -6.714, "intermolecular_energy": -10.134, "internal_energy": -0.795}

$$$$
3nx7_ligand
     RDKit          3D

 36 36  0  0  0  0  0  0  0  0999 V2000
   -6.8910   -7.5990   -9.5440 C   0  0  0  0  0  0  0  0  0  0  0  0
   -6.7360   -7.4810   -8.1360 O   0  0  0  0  0  0  0  0  0  0  0  0
   -5.5810   -6.9090   -7.6810 C   0  0  0  0  0  0  0  0  0  0  0  0
   -4.3940   -6.7720   -8.4040 C   0  0  0  0  0  0  0  0  0  0  0  0
   -3.2800   -6.1620   -7.8170 C   0  0  0  0  0  0  0  0  0  0  0  0
   -3.3600   -5.6730   -6.5090 C   0  0  0  0  0  0  0  0  0  0  0  0
   -1.9350   -4.9300   -5.7510 S   0  0  0  0  0  0  0  0  0  0  0  0
   -0.7620   -5.3620   -6.4790 O   0  0  0  0  0  0  0  0  0  0  0  0
   -2.2110   -3.5180   -5.5720 O   0  0  0  0  0  0  0  0  0  0  0  0
   -1.8990   -5.6010   -4.2000 N   0  0  0  0  0  0  0  0  0  0  0  0
   -1.6840   -4.7470   -2.9980 C   0  0  0  0  0  0  0  0  0  0  0  0
   -2.9790   -4.4260   -2.2440 C   0  0  0  0  0  0  0  0  0  0  0  0
   -3.1490   -5.2840   -1.1210 O   0  0  0  0  0  0  0  0  0  0  0  0
   -1.2900   -6.9540   -4.0890 C   0  0  0  0  0  0  0  0  0  0  0  0
   -2.3600   -7.9440   -3.6640 C   0  0  0  0  0  0  0  0  0  0  0  0
   -2.9760   -8.6520   -4.4610 O   0  0  0  0  0  0  0  0  0  0  0  0
   -2.5900   -7.9920   -2.3060 N   0  0  0  0  0  0  0  0  0  0  0  0
   -3.4850   -9.0140   -1.8950 O   0  0  0  0  0  0  0  0  0  0  0  0
   -4.5340   -5.8320   -5.7710 C   0  0  0  0  0  0  0  0  0  0  0  0
   -5.6410   -6.4400   -6.3650 C   0  0  0  0  0  0  0  0  0  0  0  0
   -7.7484   -8.2517   -9.7651 H   0  0  0  0  0  0  0  0  0  0  0  0
   -7.0663   -6.6037   -9.9783 H   0  0  0  0  0  0  0  0  0  0  0  0
   -5.9782   -8.0329   -9.9783 H   0  0  0  0  0  0  0  0  0  0  0  0
   -4.3348   -7.1445   -9.4373 H   0  0  0  0  0  0  0  0  0  0  0  0
   -2.3420   -6.0671   -8.3837 H   0  0  0  0  0  0  0  0  0  0  0  0
   -1.0023   -5.2729   -2.3133 H   0  0  0  0  0  0  0  0  0  0  0  0
   -1.2646   -3.7919   -3.3472 H   0  0  0  0  0  0  0  0  0  0  0  0
   -2.9421   -3.3831   -1.8960 H   0  0  0  0  0  0  0  0  0  0  0  0
   -3.8265   -4.5776   -2.9287 H   0  0  0  0  0  0  0  0  0  0  0  0
   -3.9240   -4.9350   -0.6250 H   0  0  0  0  0  0  0  0  0  0  0  0
   -0.8765   -7.2534   -5.0633 H   0  0  0  0  0  0  0  0  0  0  0  0
   -0.4814   -6.9377   -3.3435 H   0  0  0  0  0  0  0  0  0  0  0  0
   -1.8160   -7.7960   -1.6610 H   0  0  0  0  0  0  0  0  0  0  0  0
   -4.1710   -8.5130   -1.4010 H   0  0  0  0  0  0  0  0  0  0  0  0
   -4.5863   -5.4810   -4.7298 H   0  0  0  0  0  0  0  0  0  0  0  0
   -6.5725   -6.5517   -5.7907 H   0  0  0  0  0  0  0  0  0  0  0  0
  1  2  1  0
  2  3  1  0
  3  4  2  0
  4  5  1  0
  5  6  2  0
  6  7  1  0
  7  8  2  0
  7  9  2  0
  7 10  1  0
 10 11  1  0
 11 12  1  0
 12 13  1  0
 10 14  1  0
 14 15  1  0
 15 16  2  0
 15 17  1  0
 17 18  1  0
  6 19  1  0
 19 20  2  0
 20  3  1  0
  1 21  1  0
  1 22  1  0
  1 23  1  0
  4 24  1  0
  5 25  1  0
 11 26  1  0
 11 27  1  0
 12 28  1  0
 12 29  1  0
 13 30  1  0
 14 31  1  0
 14 32  1  0
 17 33  1  0
 18 34  1  0
 19 35  1  0
 20 36  1  0
M  END
>  <meeko>  (4) 
{"is_sidechain": [false], "free_energy": -6.693, "intermolecular_energy": -9.908, "internal_energy": -0.99}

$$$$
3nx7_ligand
     RDKit          3D

 36 36  0  0  0  0  0  0  0  0999 V2000
   -2.5500   -5.4080   -7.2480 C   0  0  0  0  0  0  0  0  0  0  0  0
   -3.9080   -5.3890   -6.8280 O   0  0  0  0  0  0  0  0  0  0  0  0
   -4.8020   -6.1050   -7.5740 C   0  0  0  0  0  0  0  0  0  0  0  0
   -4.6450   -6.4720   -8.9120 C   0  0  0  0  0  0  0  0  0  0  0  0
   -5.6400   -7.2130   -9.5600 C   0  0  0  0  0  0  0  0  0  0  0  0
   -6.7880   -7.5990   -8.8600 C   0  0  0  0  0  0  0  0  0  0  0  0
   -8.0690   -8.5080   -9.6920 S   0  0  0  0  0  0  0  0  0  0  0  0
   -8.4720   -7.7530  -10.8580 O   0  0  0  0  0  0  0  0  0  0  0  0
   -7.6260   -9.8830   -9.8230 O   0  0  0  0  0  0  0  0  0  0  0  0
   -9.3430   -8.5300   -8.5820 N   0  0  0  0  0  0  0  0  0  0  0  0
   -9.7360   -9.7880   -7.8860 C   0  0  0  0  0  0  0  0  0  0  0  0
  -10.4020   -9.5460   -6.5280 C   0  0  0  0  0  0  0  0  0  0  0  0
  -11.6810  -10.1680   -6.4620 O   0  0  0  0  0  0  0  0  0  0  0  0
  -10.4900   -7.6330   -8.8880 C   0  0  0  0  0  0  0  0  0  0  0  0
  -11.5920   -8.4450   -9.5450 C   0  0  0  0  0  0  0  0  0  0  0  0
  -11.4500   -9.0210  -10.6240 O   0  0  0  0  0  0  0  0  0  0  0  0
  -12.7730   -8.4910   -8.8350 N   0  0  0  0  0  0  0  0  0  0  0  0
  -13.7520   -9.3630   -9.3760 O   0  0  0  0  0  0  0  0  0  0  0  0
   -6.9650   -7.2110   -7.5310 C   0  0  0  0  0  0  0  0  0  0  0  0
   -5.9650   -6.4750   -6.8920 C   0  0  0  0  0  0  0  0  0  0  0  0
   -1.8934   -5.4172   -6.3655 H   0  0  0  0  0  0  0  0  0  0  0  0
   -2.3655   -6.3088   -7.8517 H   0  0  0  0  0  0  0  0  0  0  0  0
   -2.3404   -4.5127   -7.8517 H   0  0  0  0  0  0  0  0  0  0  0  0
   -3.7367   -6.1779   -9.4584 H   0  0  0  0  0  0  0  0  0  0  0  0
   -5.5195   -7.4912  -10.6174 H   0  0  0  0  0  0  0  0  0  0  0  0
  -10.4410  -10.3366   -8.5279 H   0  0  0  0  0  0  0  0  0  0  0  0
   -8.8145  -10.3591   -7.7000 H   0  0  0  0  0  0  0  0  0  0  0  0
   -9.7609   -9.9595   -5.7355 H   0  0  0  0  0  0  0  0  0  0  0  0
  -10.5351   -8.4623   -6.3943 H   0  0  0  0  0  0  0  0  0  0  0  0
  -11.6810  -10.8700   -7.1510 H   0  0  0  0  0  0  0  0  0  0  0  0
  -10.8670   -7.1858   -7.9564 H   0  0  0  0  0  0  0  0  0  0  0  0
  -10.1638   -6.8317   -9.5674 H   0  0  0  0  0  0  0  0  0  0  0  0
  -12.7410   -8.4420   -7.8110 H   0  0  0  0  0  0  0  0  0  0  0  0
  -13.6850  -10.1510   -8.7930 H   0  0  0  0  0  0  0  0  0  0  0  0
   -7.8844   -7.4827   -6.9916 H   0  0  0  0  0  0  0  0  0  0  0  0
   -6.0939   -6.1828   -5.8394 H   0  0  0  0  0  0  0  0  0  0  0  0
  1  2  1  0
  2  3  1  0
  3  4  2  0
  4  5  1  0
  5  6  2  0
  6  7  1  0
  7  8  2  0
  7  9  2  0
  7 10  1  0
 10 11  1  0
 11 12  1  0
 12 13  1  0
 10 14  1  0
 14 15  1  0
 15 16  2  0
 15 17  1  0
 17 18  1  0
  6 19  1  0
 19 20  2  0
 20  3  1  0
  1 21  1  0
  1 22  1  0
  1 23  1  0
  4 24  1  0
  5 25  1  0
 11 26  1  0
 11 27  1  0
 12 28  1  0
 12 29  1  0
 13 30  1  0
 14 31  1  0
 14 32  1  0
 17 33  1  0
 18 34  1  0
 19 35  1  0
 20 36  1  0
M  END
>  <meeko>  (5) 
{"is_sidechain": [false], "free_energy": -6.533, "intermolecular_energy": -10.074, "internal_energy": -0.589}

$$$$
3nx7_ligand
     RDKit          3D

 36 36  0  0  0  0  0  0  0  0999 V2000
   -6.5190   -7.4440   -9.7790 C   0  0  0  0  0  0  0  0  0  0  0  0
   -6.4530   -6.3960   -8.8200 O   0  0  0  0  0  0  0  0  0  0  0  0
   -5.3070   -6.2980   -8.0820 C   0  0  0  0  0  0  0  0  0  0  0  0
   -4.0920   -5.7660   -8.5190 C   0  0  0  0  0  0  0  0  0  0  0  0
   -2.9910   -5.7220   -7.6560 C   0  0  0  0  0  0  0  0  0  0  0  0
   -3.1130   -6.1980   -6.3470 C   0  0  0  0  0  0  0  0  0  0  0  0
   -1.7060   -6.1760   -5.2610 S   0  0  0  0  0  0  0  0  0  0  0  0
   -1.4320   -7.5360   -4.8540 O   0  0  0  0  0  0  0  0  0  0  0  0
   -0.6740   -5.3730   -5.8870 O   0  0  0  0  0  0  0  0  0  0  0  0
   -2.2370   -5.2960   -3.9200 N   0  0  0  0  0  0  0  0  0  0  0  0
   -3.0140   -4.0350   -4.0850 C   0  0  0  0  0  0  0  0  0  0  0  0
   -2.1300   -2.8010   -4.2900 C   0  0  0  0  0  0  0  0  0  0  0  0
   -2.0240   -2.4630   -5.6690 O   0  0  0  0  0  0  0  0  0  0  0  0
   -1.3270   -5.2870   -2.7430 C   0  0  0  0  0  0  0  0  0  0  0  0
   -2.0070   -5.9980   -1.5870 C   0  0  0  0  0  0  0  0  0  0  0  0
   -2.1720   -5.4790   -0.4820 O   0  0  0  0  0  0  0  0  0  0  0  0
   -2.4300   -7.2790   -1.8690 N   0  0  0  0  0  0  0  0  0  0  0  0
   -3.1890   -7.8900   -0.8370 O   0  0  0  0  0  0  0  0  0  0  0  0
   -4.3160   -6.7570   -5.9110 C   0  0  0  0  0  0  0  0  0  0  0  0
   -5.4090   -6.7940   -6.7780 C   0  0  0  0  0  0  0  0  0  0  0  0
   -6.5800   -8.4122   -9.2605 H   0  0  0  0  0  0  0  0  0  0  0  0
   -7.4104   -7.3088  -10.4092 H   0  0  0  0  0  0  0  0  0  0  0  0
   -5.6177   -7.4217  -10.4092 H   0  0  0  0  0  0  0  0  0  0  0  0
   -4.0000   -5.3802   -9.5450 H   0  0  0  0  0  0  0  0  0  0  0  0
   -2.0317   -5.3138   -8.0068 H   0  0  0  0  0  0  0  0  0  0  0  0
   -3.6720   -4.1423   -4.9599 H   0  0  0  0  0  0  0  0  0  0  0  0
   -3.5818   -3.8783   -3.1560 H   0  0  0  0  0  0  0  0  0  0  0  0
   -2.5687   -1.9517   -3.7457 H   0  0  0  0  0  0  0  0  0  0  0  0
   -1.1230   -3.0287   -3.9103 H   0  0  0  0  0  0  0  0  0  0  0  0
   -2.5820   -1.6640   -5.7980 H   0  0  0  0  0  0  0  0  0  0  0  0
   -0.3912   -5.8067   -2.9964 H   0  0  0  0  0  0  0  0  0  0  0  0
   -1.0981   -4.2495   -2.4582 H   0  0  0  0  0  0  0  0  0  0  0  0
   -2.7180   -7.5100   -2.8260 H   0  0  0  0  0  0  0  0  0  0  0  0
   -3.2000   -7.1990   -0.1400 H   0  0  0  0  0  0  0  0  0  0  0  0
   -4.4015   -7.1647   -4.8929 H   0  0  0  0  0  0  0  0  0  0  0  0
   -6.3628   -7.2186   -6.4316 H   0  0  0  0  0  0  0  0  0  0  0  0
  1  2  1  0
  2  3  1  0
  3  4  2  0
  4  5  1  0
  5  6  2  0
  6  7  1  0
  7  8  2  0
  7  9  2  0
  7 10  1  0
 10 11  1  0
 11 12  1  0
 12 13  1  0
 10 14  1  0
 14 15  1  0
 15 16  2  0
 15 17  1  0
 17 18  1  0
  6 19  1  0
 19 20  2  0
 20  3  1  0
  1 21  1  0
  1 22  1  0
  1 23  1  0
  4 24  1  0
  5 25  1  0
 11 26  1  0
 11 27  1  0
 12 28  1  0
 12 29  1  0
 13 30  1  0
 14 31  1  0
 14 32  1  0
 17 33  1  0
 18 34  1  0
 19 35  1  0
 20 36  1  0
M  END
>  <meeko>  (6) 
{"is_sidechain": [false], "free_energy": -6.515, "intermolecular_energy": -9.723, "internal_energy": -0.914}

$$$$
3nx7_ligand
     RDKit          3D

 36 36  0  0  0  0  0  0  0  0999 V2000
   -8.2970   -8.1550   -8.3710 C   0  0  0  0  0  0  0  0  0  0  0  0
   -7.2720   -7.6450   -9.2150 O   0  0  0  0  0  0  0  0  0  0  0  0
   -6.1490   -7.1590   -8.6060 C   0  0  0  0  0  0  0  0  0  0  0  0
   -4.8960   -7.0030   -9.2020 C   0  0  0  0  0  0  0  0  0  0  0  0
   -3.8240   -6.4880   -8.4630 C   0  0  0  0  0  0  0  0  0  0  0  0
   -4.0140   -6.1150   -7.1290 C   0  0  0  0  0  0  0  0  0  0  0  0
   -2.6460   -5.4950   -6.1790 S   0  0  0  0  0  0  0  0  0  0  0  0
   -1.5310   -5.2900   -7.0770 O   0  0  0  0  0  0  0  0  0  0  0  0
   -3.1340   -4.4070   -5.3530 O   0  0  0  0  0  0  0  0  0  0  0  0
   -2.2750   -6.7580   -5.1200 N   0  0  0  0  0  0  0  0  0  0  0  0
   -3.2810   -7.2630   -4.1420 C   0  0  0  0  0  0  0  0  0  0  0  0
   -2.7400   -8.3730   -3.2360 C   0  0  0  0  0  0  0  0  0  0  0  0
   -2.7510   -7.9760   -1.8690 O   0  0  0  0  0  0  0  0  0  0  0  0
   -0.8770   -6.7960   -4.6120 C   0  0  0  0  0  0  0  0  0  0  0  0
   -0.6290   -5.5660   -3.7570 C   0  0  0  0  0  0  0  0  0  0  0  0
   -0.8980   -5.5160   -2.5560 O   0  0  0  0  0  0  0  0  0  0  0  0
   -0.0740   -4.5000   -4.4310 N   0  0  0  0  0  0  0  0  0  0  0  0
    0.2880   -3.4040   -3.6060 O   0  0  0  0  0  0  0  0  0  0  0  0
   -5.2560   -6.2940   -6.5180 C   0  0  0  0  0  0  0  0  0  0  0  0
   -6.3200   -6.8060   -7.2640 C   0  0  0  0  0  0  0  0  0  0  0  0
   -8.0103   -8.0123   -7.3187 H   0  0  0  0  0  0  0  0  0  0  0  0
   -9.2368   -7.6194   -8.5708 H   0  0  0  0  0  0  0  0  0  0  0  0
   -8.4366   -9.2277   -8.5708 H   0  0  0  0  0  0  0  0  0  0  0  0
   -4.7506   -7.2855  -10.2551 H   0  0  0  0  0  0  0  0  0  0  0  0
   -2.8347   -6.3771   -8.9309 H   0  0  0  0  0  0  0  0  0  0  0  0
   -3.6056   -6.4234   -3.5099 H   0  0  0  0  0  0  0  0  0  0  0  0
   -4.1125   -7.6910   -4.7211 H   0  0  0  0  0  0  0  0  0  0  0  0
   -3.3668   -9.2692   -3.3539 H   0  0  0  0  0  0  0  0  0  0  0  0
   -1.7007   -8.5839   -3.5280 H   0  0  0  0  0  0  0  0  0  0  0  0
   -3.6860   -7.7650   -1.6520 H   0  0  0  0  0  0  0  0  0  0  0  0
   -0.7290   -7.7023   -4.0064 H   0  0  0  0  0  0  0  0  0  0  0  0
   -0.1740   -6.8089   -5.4580 H   0  0  0  0  0  0  0  0  0  0  0  0
    0.5510   -4.6820   -5.2240 H   0  0  0  0  0  0  0  0  0  0  0  0
    1.1100   -3.0760   -4.0320 H   0  0  0  0  0  0  0  0  0  0  0  0
   -5.3957   -6.0341   -5.4583 H   0  0  0  0  0  0  0  0  0  0  0  0
   -7.3044   -6.9331   -6.7900 H   0  0  0  0  0  0  0  0  0  0  0  0
  1  2  1  0
  2  3  1  0
  3  4  2  0
  4  5  1  0
  5  6  2  0
  6  7  1  0
  7  8  2  0
  7  9  2  0
  7 10  1  0
 10 11  1  0
 11 12  1  0
 12 13  1  0
 10 14  1  0
 14 15  1  0
 15 16  2  0
 15 17  1  0
 17 18  1  0
  6 19  1  0
 19 20  2  0
 20  3  1  0
  1 21  1  0
  1 22  1  0
  1 23  1  0
  4 24  1  0
  5 25  1  0
 11 26  1  0
 11 27  1  0
 12 28  1  0
 12 29  1  0
 13 30  1  0
 14 31  1  0
 14 32  1  0
 17 33  1  0
 18 34  1  0
 19 35  1  0
 20 36  1  0
M  END
>  <meeko>  (7) 
{"is_sidechain": [false], "free_energy": -6.288, "intermolecular_energy": -9.835, "internal_energy": -0.468}

$$$$
3nx7_ligand
     RDKit          3D

 36 36  0  0  0  0  0  0  0  0999 V2000
   -4.5930   -5.9740   -5.5360 C   0  0  0  0  0  0  0  0  0  0  0  0
   -4.4700   -5.6960   -6.9250 O   0  0  0  0  0  0  0  0  0  0  0  0
   -5.3140   -6.3600   -7.7710 C   0  0  0  0  0  0  0  0  0  0  0  0
   -5.0390   -6.7140   -9.0930 C   0  0  0  0  0  0  0  0  0  0  0  0
   -5.9960   -7.3990   -9.8520 C   0  0  0  0  0  0  0  0  0  0  0  0
   -7.2240   -7.7420   -9.2780 C   0  0  0  0  0  0  0  0  0  0  0  0
   -8.4530   -8.5800  -10.2510 S   0  0  0  0  0  0  0  0  0  0  0  0
   -8.9200   -7.6650  -11.2700 O   0  0  0  0  0  0  0  0  0  0  0  0
   -7.9220   -9.8790  -10.6170 O   0  0  0  0  0  0  0  0  0  0  0  0
   -9.7080   -8.8770   -9.1600 N   0  0  0  0  0  0  0  0  0  0  0  0
  -10.8320   -7.9110   -8.9990 C   0  0  0  0  0  0  0  0  0  0  0  0
  -12.0750   -8.2860   -9.8110 C   0  0  0  0  0  0  0  0  0  0  0  0
  -13.1610   -8.6410   -8.9610 O   0  0  0  0  0  0  0  0  0  0  0  0
   -9.3270   -9.5650   -7.8970 C   0  0  0  0  0  0  0  0  0  0  0  0
  -10.5870   -9.9850   -7.1630 C   0  0  0  0  0  0  0  0  0  0  0  0
  -10.9240   -9.5090   -6.0770 O   0  0  0  0  0  0  0  0  0  0  0  0
  -11.3350  -10.9460   -7.8080 N   0  0  0  0  0  0  0  0  0  0  0  0
  -12.5810  -11.2350   -7.1940 O   0  0  0  0  0  0  0  0  0  0  0  0
   -7.5170   -7.3670   -7.9660 C   0  0  0  0  0  0  0  0  0  0  0  0
   -6.5560   -6.6870   -7.2170 C   0  0  0  0  0  0  0  0  0  0  0  0
   -4.2148   -5.1192   -4.9561 H   0  0  0  0  0  0  0  0  0  0  0  0
   -5.6510   -6.1455   -5.2887 H   0  0  0  0  0  0  0  0  0  0  0  0
   -4.0083   -6.8723   -5.2887 H   0  0  0  0  0  0  0  0  0  0  0  0
   -4.0680   -6.4542   -9.5398 H   0  0  0  0  0  0  0  0  0  0  0  0
   -5.7821   -7.6666  -10.8973 H   0  0  0  0  0  0  0  0  0  0  0  0
  -11.1088   -7.8718   -7.9351 H   0  0  0  0  0  0  0  0  0  0  0  0
  -10.4807   -6.9378   -9.3724 H   0  0  0  0  0  0  0  0  0  0  0  0
  -12.3710   -7.4265  -10.4304 H   0  0  0  0  0  0  0  0  0  0  0  0
  -11.8293   -9.1537  -10.4409 H   0  0  0  0  0  0  0  0  0  0  0  0
  -13.9030   -8.8910   -9.5560 H   0  0  0  0  0  0  0  0  0  0  0  0
   -8.7220  -10.4538   -8.1294 H   0  0  0  0  0  0  0  0  0  0  0  0
   -8.7391   -8.8829   -7.2653 H   0  0  0  0  0  0  0  0  0  0  0  0
  -11.3290  -10.9770   -8.8340 H   0  0  0  0  0  0  0  0  0  0  0  0
  -12.7880  -12.1310   -7.5400 H   0  0  0  0  0  0  0  0  0  0  0  0
   -8.4967   -7.6054   -7.5263 H   0  0  0  0  0  0  0  0  0  0  0  0
   -6.7780   -6.4044   -6.1774 H   0  0  0  0  0  0  0  0  0  0  0  0
  1  2  1  0
  2  3  1  0
  3  4  2  0
  4  5  1  0
  5  6  2  0
  6  7  1  0
  7  8  2  0
  7  9  2  0
  7 10  1  0
 10 11  1  0
 11 12  1  0
 12 13  1  0
 10 14  1  0
 14 15  1  0
 15 16  2  0
 15 17  1  0
 17 18  1  0
  6 19  1  0
 19 20  2  0
 20  3  1  0
  1 21  1  0
  1 22  1  0
  1 23  1  0
  4 24  1  0
  5 25  1  0
 11 26  1  0
 11 27  1  0
 12 28  1  0
 12 29  1  0
 13 30  1  0
 14 31  1  0
 14 32  1  0
 17 33  1  0
 18 34  1  0
 19 35  1  0
 20 36  1  0
M  END
>  <meeko>  (8) 
{"is_sidechain": [false], "free_energy": -6.1, "intermolecular_energy": -10.173, "internal_energy": 0.146}

$$$$
3nx7_ligand
     RDKit          3D

 36 36  0  0  0  0  0  0  0  0999 V2000
   -2.6290  -11.6530   -3.4950 C   0  0  0  0  0  0  0  0  0  0  0  0
   -3.2530  -10.5540   -2.8440 O   0  0  0  0  0  0  0  0  0  0  0  0
   -2.6900   -9.3220   -3.0240 C   0  0  0  0  0  0  0  0  0  0  0  0
   -2.5290   -8.3410   -2.0430 C   0  0  0  0  0  0  0  0  0  0  0  0
   -1.9310   -7.1170   -2.3620 C   0  0  0  0  0  0  0  0  0  0  0  0
   -1.4790   -6.8820   -3.6650 C   0  0  0  0  0  0  0  0  0  0  0  0
   -0.7510   -5.3140   -4.0800 S   0  0  0  0  0  0  0  0  0  0  0  0
    0.0680   -4.8900   -2.9660 O   0  0  0  0  0  0  0  0  0  0  0  0
   -0.1840   -5.4250   -5.4100 O   0  0  0  0  0  0  0  0  0  0  0  0
   -2.0740   -4.2720   -4.2190 N   0  0  0  0  0  0  0  0  0  0  0  0
   -2.1370   -3.0010   -3.4440 C   0  0  0  0  0  0  0  0  0  0  0  0
   -1.6130   -1.7900   -4.2210 C   0  0  0  0  0  0  0  0  0  0  0  0
   -2.0520   -1.8160   -5.5750 O   0  0  0  0  0  0  0  0  0  0  0  0
   -3.3990   -4.9210   -4.4120 C   0  0  0  0  0  0  0  0  0  0  0  0
   -3.6360   -5.1290   -5.8970 C   0  0  0  0  0  0  0  0  0  0  0  0
   -4.5700   -5.7990   -6.3420 O   0  0  0  0  0  0  0  0  0  0  0  0
   -2.7210   -4.5060   -6.7180 N   0  0  0  0  0  0  0  0  0  0  0  0
   -3.0230   -4.5820   -8.1020 O   0  0  0  0  0  0  0  0  0  0  0  0
   -1.6610   -7.8450   -4.6580 C   0  0  0  0  0  0  0  0  0  0  0  0
   -2.2570   -9.0650   -4.3290 C   0  0  0  0  0  0  0  0  0  0  0  0
   -2.2336  -12.3494   -2.7409 H   0  0  0  0  0  0  0  0  0  0  0  0
   -3.3663  -12.1734   -4.1239 H   0  0  0  0  0  0  0  0  0  0  0  0
   -1.8043  -11.2865   -4.1239 H   0  0  0  0  0  0  0  0  0  0  0  0
   -2.8736   -8.5314   -1.0159 H   0  0  0  0  0  0  0  0  0  0  0  0
   -1.8165   -6.3415   -1.5903 H   0  0  0  0  0  0  0  0  0  0  0  0
   -3.1850   -2.8119   -3.1684 H   0  0  0  0  0  0  0  0  0  0  0  0
   -1.4918   -3.1255   -2.5618 H   0  0  0  0  0  0  0  0  0  0  0  0
   -1.9809   -0.8704   -3.7424 H   0  0  0  0  0  0  0  0  0  0  0  0
   -0.5135   -1.8200   -4.2114 H   0  0  0  0  0  0  0  0  0  0  0  0
   -2.6230   -2.6120   -5.6630 H   0  0  0  0  0  0  0  0  0  0  0  0
   -3.4122   -5.8928   -3.8968 H   0  0  0  0  0  0  0  0  0  0  0  0
   -4.1906   -4.2807   -3.9955 H   0  0  0  0  0  0  0  0  0  0  0  0
   -2.2880   -3.6290   -6.4070 H   0  0  0  0  0  0  0  0  0  0  0  0
   -3.4950   -5.4400   -8.1730 H   0  0  0  0  0  0  0  0  0  0  0  0
   -1.3382   -7.6455   -5.6905 H   0  0  0  0  0  0  0  0  0  0  0  0
   -2.3873   -9.8329   -5.1058 H   0  0  0  0  0  0  0  0  0  0  0  0
  1  2  1  0
  2  3  1  0
  3  4  2  0
  4  5  1  0
  5  6  2  0
  6  7  1  0
  7  8  2  0
  7  9  2  0
  7 10  1  0
 10 11  1  0
 11 12  1  0
 12 13  1  0
 10 14  1  0
 14 15  1  0
 15 16  2  0
 15 17  1  0
 17 18  1  0
  6 19  1  0
 19 20  2  0
 20  3  1  0
  1 21  1  0
  1 22  1  0
  1 23  1  0
  4 24  1  0
  5 25  1  0
 11 26  1  0
 11 27  1  0
 12 28  1  0
 12 29  1  0
 13 30  1  0
 14 31  1  0
 14 32  1  0
 17 33  1  0
 18 34  1  0
 19 35  1  0
 20 36  1  0
M  END
>  <meeko>  (9) 
{"is_sidechain": [false], "free_energy": -6.002, "intermolecular_energy": -9.109, "internal_energy": -0.775}

$$$$
