3g0w_ligand
     RDKit          3D

 37 39  0  0  0  0  0  0  0  0999 V2000
   51.3760    2.4220    4.5630 C   0  0  0  0  0  0  0  0  0  0  0  0
   52.5290    3.3210    4.1950 C   0  0  0  0  0  0  0  0  0  0  0  0
   53.7870    2.7720    3.8770 C   0  0  0  0  0  0  0  0  0  0  0  0
   54.0200    1.3890    3.9090 N   0  0  0  0  0  0  0  0  0  0  0  0
   55.2100    0.9810    4.2010 C   0  0  0  0  0  0  0  0  0  0  0  0
   56.2500    1.8360    4.4260 O   0  0  0  0  0  0  0  0  0  0  0  0
   57.4530    1.0770    4.6840 C   0  0  1  0  0  0  0  0  0  0  0  0
   57.9390    1.2880    6.1060 C   0  0  0  0  0  0  0  0  0  0  0  0
   57.3520    0.4200    6.9620 F   0  0  0  0  0  0  0  0  0  0  0  0
   59.2760    1.1430    6.2220 F   0  0  0  0  0  0  0  0  0  0  0  0
   57.6310    2.5360    6.5330 F   0  0  0  0  0  0  0  0  0  0  0  0
   57.0730   -0.3730    4.4670 C   0  0  2  0  0  0  0  0  0  0  0  0
   57.5860   -0.9910    3.1630 C   0  0  1  0  0  0  0  0  0  0  0  0
   58.8610   -1.5870    3.3110 O   0  0  0  0  0  0  0  0  0  0  0  0
   56.4960   -2.0160    2.8670 C   0  0  0  0  0  0  0  0  0  0  0  0
   55.2150   -1.2660    3.2320 C   0  0  0  0  0  0  0  0  0  0  0  0
   55.6310   -0.3200    4.2730 N   0  0  0  0  0  0  0  0  0  0  0  0
   54.8580    3.6170    3.5620 C   0  0  0  0  0  0  0  0  0  0  0  0
   54.6910    4.9990    3.5180 C   0  0  0  0  0  0  0  0  0  0  0  0
   53.4410    5.5600    3.7980 C   0  0  0  0  0  0  0  0  0  0  0  0
   53.3070    6.9870    3.7320 C   0  0  0  0  0  0  0  0  0  0  0  0
   53.2330    8.1430    3.6690 N   0  0  0  0  0  0  0  0  0  0  0  0
   52.3630    4.7240    4.1340 C   0  0  0  0  0  0  0  0  0  0  0  0
   50.8050    5.4210    4.4690 Cl  0  0  0  0  0  0  0  0  0  0  0  0
   51.2952    2.3590    5.6582 H   0  0  0  0  0  0  0  0  0  0  0  0
   50.4435    2.8338    4.1496 H   0  0  0  0  0  0  0  0  0  0  0  0
   51.5480    1.4172    4.1496 H   0  0  0  0  0  0  0  0  0  0  0  0
   58.2732    1.3924    4.0223 H   0  0  0  0  0  0  0  0  0  0  0  0
   57.4759   -0.9608    5.3050 H   0  0  0  0  0  0  0  0  0  0  0  0
   57.7435   -0.2604    2.3558 H   0  0  0  0  0  0  0  0  0  0  0  0
   59.4690   -0.9550    3.7350 H   0  0  0  0  0  0  0  0  0  0  0  0
   56.4987   -2.3012    1.8046 H   0  0  0  0  0  0  0  0  0  0  0  0
   56.6219   -2.9572    3.4223 H   0  0  0  0  0  0  0  0  0  0  0  0
   54.8141   -0.7317    2.3580 H   0  0  0  0  0  0  0  0  0  0  0  0
   54.4164   -1.9410    3.5733 H   0  0  0  0  0  0  0  0  0  0  0  0
   55.8455    3.1831    3.3462 H   0  0  0  0  0  0  0  0  0  0  0  0
   55.5414    5.6485    3.2633 H   0  0  0  0  0  0  0  0  0  0  0  0
  1  2  1  0
  2  3  2  0
  3  4  1  0
  4  5  2  0
  5  6  1  0
  6  7  1  0
  7  8  1  0
  8  9  1  0
  8 10  1  0
  8 11  1  0
  7 12  1  0
 12 13  1  0
 13 14  1  0
 13 15  1  0
 15 16  1  0
 16 17  1  0
  3 18  1  0
 18 19  2  0
 19 20  1  0
 20 21  1  0
 21 22  3  0
 20 23  2  0
 23 24  1  0
 23  2  1  0
 17  5  1  0
 17 12  1  0
  1 25  1  0
  1 26  1  0
  1 27  1  0
  7 28  1  6
 12 29  1  1
 13 30  1  6
 14 31  1  0
 15 32  1  0
 15 33  1  0
 16 34  1  0
 16 35  1  0
 18 36  1  0
 19 37  1  0
M  END
>  <meeko>  (1) 
{"is_sidechain": [false], "free_energy": -9.846, "intermolecular_energy": -11.285, "internal_energy": 0.487}

$$$$
3g0w_ligand
     RDKit          3D

 37 39  0  0  0  0  0  0  0  0999 V2000
   55.8810   -0.8720    2.8930 C   0  0  0  0  0  0  0  0  0  0  0  0
   56.3640    0.0630    3.9740 C   0  0  0  0  0  0  0  0  0  0  0  0
   55.5450    1.1200    4.4180 C   0  0  0  0  0  0  0  0  0  0  0  0
   54.2750    1.3530    3.8690 N   0  0  0  0  0  0  0  0  0  0  0  0
   53.8190    2.5610    3.8890 C   0  0  0  0  0  0  0  0  0  0  0  0
   54.4960    3.5970    4.4640 O   0  0  0  0  0  0  0  0  0  0  0  0
   53.7080    4.8060    4.3630 C   0  0  1  0  0  0  0  0  0  0  0  0
   54.3860    5.8280    3.4710 C   0  0  0  0  0  0  0  0  0  0  0  0
   55.2190    6.6250    4.1770 F   0  0  0  0  0  0  0  0  0  0  0  0
   55.1030    5.2540    2.4820 F   0  0  0  0  0  0  0  0  0  0  0  0
   53.4670    6.6330    2.8860 F   0  0  0  0  0  0  0  0  0  0  0  0
   52.3840    4.3780    3.7610 C   0  0  2  0  0  0  0  0  0  0  0  0
   51.2130    4.3180    4.7460 C   0  0  1  0  0  0  0  0  0  0  0  0
   50.5140    5.5460    4.8320 O   0  0  0  0  0  0  0  0  0  0  0  0
   50.3640    3.2080    4.1340 C   0  0  0  0  0  0  0  0  0  0  0  0
   51.4090    2.1830    3.6940 C   0  0  0  0  0  0  0  0  0  0  0  0
   52.6060    2.9820    3.4110 N   0  0  0  0  0  0  0  0  0  0  0  0
   56.0120    1.9980    5.4030 C   0  0  0  0  0  0  0  0  0  0  0  0
   57.2650    1.8210    5.9830 C   0  0  0  0  0  0  0  0  0  0  0  0
   58.0790    0.7580    5.5790 C   0  0  0  0  0  0  0  0  0  0  0  0
   59.3580    0.6040    6.2090 C   0  0  0  0  0  0  0  0  0  0  0  0
   60.3870    0.5070    6.7380 N   0  0  0  0  0  0  0  0  0  0  0  0
   57.6290   -0.1200    4.5780 C   0  0  0  0  0  0  0  0  0  0  0  0
   58.6350   -1.4500    4.0840 Cl  0  0  0  0  0  0  0  0  0  0  0  0
   55.4226   -1.7595    3.3537 H   0  0  0  0  0  0  0  0  0  0  0  0
   55.1362   -0.3569    2.2686 H   0  0  0  0  0  0  0  0  0  0  0  0
   56.7321   -1.1813    2.2686 H   0  0  0  0  0  0  0  0  0  0  0  0
   53.5808    5.2829    5.3460 H   0  0  0  0  0  0  0  0  0  0  0  0
   52.1240    5.0906    2.9644 H   0  0  0  0  0  0  0  0  0  0  0  0
   51.5151    4.1286    5.7866 H   0  0  0  0  0  0  0  0  0  0  0  0
   50.4040    5.7920    5.7680 H   0  0  0  0  0  0  0  0  0  0  0  0
   49.6773    2.7787    4.8784 H   0  0  0  0  0  0  0  0  0  0  0  0
   49.7222    3.5553    3.3109 H   0  0  0  0  0  0  0  0  0  0  0  0
   51.6058    1.4580    4.4976 H   0  0  0  0  0  0  0  0  0  0  0  0
   51.0807    1.5963    2.8234 H   0  0  0  0  0  0  0  0  0  0  0  0
   55.3801    2.8395    5.7232 H   0  0  0  0  0  0  0  0  0  0  0  0
   57.6150    2.5174    6.7593 H   0  0  0  0  0  0  0  0  0  0  0  0
  1  2  1  0
  2  3  2  0
  3  4  1  0
  4  5  2  0
  5  6  1  0
  6  7  1  0
  7  8  1  0
  8  9  1  0
  8 10  1  0
  8 11  1  0
  7 12  1  0
 12 13  1  0
 13 14  1  0
 13 15  1  0
 15 16  1  0
 16 17  1  0
  3 18  1  0
 18 19  2  0
 19 20  1  0
 20 21  1  0
 21 22  3  0
 20 23  2  0
 23 24  1  0
 23  2  1  0
 17  5  1  0
 17 12  1  0
  1 25  1  0
  1 26  1  0
  1 27  1  0
  7 28  1  1
 12 29  1  6
 13 30  1  1
 14 31  1  0
 15 32  1  0
 15 33  1  0
 16 34  1  0
 16 35  1  0
 18 36  1  0
 19 37  1  0
M  END
>  <meeko>  (2) 
{"is_sidechain": [false], "free_energy": -8.054, "intermolecular_energy": -9.288, "internal_energy": 0.544}

$$$$
3g0w_ligand
     RDKit          3D

 37 39  0  0  0  0  0  0  0  0999 V2000
   54.9900    3.2960    2.8110 C   0  0  0  0  0  0  0  0  0  0  0  0
   53.7900    3.6880    3.6370 C   0  0  0  0  0  0  0  0  0  0  0  0
   53.0380    2.7050    4.3110 C   0  0  0  0  0  0  0  0  0  0  0  0
   53.3580    1.3410    4.2260 N   0  0  0  0  0  0  0  0  0  0  0  0
   54.5680    0.9840    4.4970 C   0  0  0  0  0  0  0  0  0  0  0  0
   55.5510    1.8790    4.8090 O   0  0  0  0  0  0  0  0  0  0  0  0
   56.7980    1.1770    5.0160 C   0  0  1  0  0  0  0  0  0  0  0  0
   57.2580    1.2920    6.4570 C   0  0  0  0  0  0  0  0  0  0  0  0
   57.3470    0.0780    7.0460 F   0  0  0  0  0  0  0  0  0  0  0  0
   58.4610    1.8940    6.5680 F   0  0  0  0  0  0  0  0  0  0  0  0
   56.3750    2.0210    7.1810 F   0  0  0  0  0  0  0  0  0  0  0  0
   56.5110   -0.2700    4.6690 C   0  0  2  0  0  0  0  0  0  0  0  0
   57.0720   -0.7390    3.3230 C   0  0  1  0  0  0  0  0  0  0  0  0
   58.3810   -1.2650    3.4350 O   0  0  0  0  0  0  0  0  0  0  0  0
   56.0510   -1.8000    2.9250 C   0  0  0  0  0  0  0  0  0  0  0  0
   54.7230   -1.1660    3.3370 C   0  0  0  0  0  0  0  0  0  0  0  0
   55.0700   -0.2900    4.4620 N   0  0  0  0  0  0  0  0  0  0  0  0
   51.9110    3.0750    5.0540 C   0  0  0  0  0  0  0  0  0  0  0  0
   51.5400    4.4120    5.1720 C   0  0  0  0  0  0  0  0  0  0  0  0
   52.2930    5.4050    4.5390 C   0  0  0  0  0  0  0  0  0  0  0  0
   51.8850    6.7710    4.6940 C   0  0  0  0  0  0  0  0  0  0  0  0
   51.5270    7.8650    4.8400 N   0  0  0  0  0  0  0  0  0  0  0  0
   53.4160    5.0440    3.7740 C   0  0  0  0  0  0  0  0  0  0  0  0
   54.3610    6.2800    2.9960 Cl  0  0  0  0  0  0  0  0  0  0  0  0
   55.8214    3.0244    3.4781 H   0  0  0  0  0  0  0  0  0  0  0  0
   54.7329    2.4351    2.1763 H   0  0  0  0  0  0  0  0  0  0  0  0
   55.2907    4.1426    2.1763 H   0  0  0  0  0  0  0  0  0  0  0  0
   57.6020    1.5996    4.3955 H   0  0  0  0  0  0  0  0  0  0  0  0
   56.9436   -0.9026    5.4581 H   0  0  0  0  0  0  0  0  0  0  0  0
   57.1892    0.0677    2.5844 H   0  0  0  0  0  0  0  0  0  0  0  0
   59.0050   -0.5450    3.6360 H   0  0  0  0  0  0  0  0  0  0  0  0
   56.0797   -1.9905    1.8420 H   0  0  0  0  0  0  0  0  0  0  0  0
   56.2319   -2.7765    3.3980 H   0  0  0  0  0  0  0  0  0  0  0  0
   54.2959   -0.5834    2.5074 H   0  0  0  0  0  0  0  0  0  0  0  0
   53.9663   -1.9169    3.6083 H   0  0  0  0  0  0  0  0  0  0  0  0
   51.3103    2.2993    5.5514 H   0  0  0  0  0  0  0  0  0  0  0  0
   50.6542    4.6867    5.7635 H   0  0  0  0  0  0  0  0  0  0  0  0
  1  2  1  0
  2  3  2  0
  3  4  1  0
  4  5  2  0
  5  6  1  0
  6  7  1  0
  7  8  1  0
  8  9  1  0
  8 10  1  0
  8 11  1  0
  7 12  1  0
 12 13  1  0
 13 14  1  0
 13 15  1  0
 15 16  1  0
 16 17  1  0
  3 18  1  0
 18 19  2  0
 19 20  1  0
 20 21  1  0
 21 22  3  0
 20 23  2  0
 23 24  1  0
 23  2  1  0
 17  5  1  0
 17 12  1  0
  1 25  1  0
  1 26  1  0
  1 27  1  0
  7 28  1  6
 12 29  1  1
 13 30  1  6
 14 31  1  0
 15 32  1  0
 15 33  1  0
 16 34  1  0
 16 35  1  0
 18 36  1  0
 19 37  1  0
M  END
>  <meeko>  (3) 
{"is_sidechain": [false], "free_energy": -7.463, "intermolecular_energy": -9.646, "internal_energy": 1.58}

$$$$
