3ryj_ligand
     RDKit          3D

 27 27  0  0  0  0  0  0  0  0999 V2000
   15.8390   -0.7240   16.4810 N   0  0  0  0  0  0  0  0  0  0  0  0
   15.0670    0.5540   17.2580 S   0  0  0  0  0  0  0  0  0  0  0  0
   15.6060    0.6550   18.5930 O   0  0  0  0  0  0  0  0  0  0  0  0
   13.6570    0.3820   16.9970 O   0  0  0  0  0  0  0  0  0  0  0  0
   15.6460    1.9430   16.3160 C   0  0  0  0  0  0  0  0  0  0  0  0
   16.9860    1.9940   15.9220 C   0  0  0  0  0  0  0  0  0  0  0  0
   17.4500    3.0900   15.1890 C   0  0  0  0  0  0  0  0  0  0  0  0
   16.5750    4.1370   14.8650 C   0  0  0  0  0  0  0  0  0  0  0  0
   17.0200    5.3190   14.0790 C   0  0  0  0  0  0  0  0  0  0  0  0
   16.3710    5.7000   13.1140 O   0  0  0  0  0  0  0  0  0  0  0  0
   18.1650    5.9550   14.5150 N   0  0  0  0  0  0  0  0  0  0  0  0
   18.5630    7.2280   13.9110 C   0  0  0  0  0  0  0  0  0  0  0  0
   19.2900    8.1940   14.8510 C   0  0  0  0  0  0  0  0  0  0  0  0
   18.9100    9.4750   14.6890 F   0  0  0  0  0  0  0  0  0  0  0  0
   19.0540    7.8540   16.1430 F   0  0  0  0  0  0  0  0  0  0  0  0
   20.6280    8.1290   14.6590 F   0  0  0  0  0  0  0  0  0  0  0  0
   15.2310    4.0730   15.2640 C   0  0  0  0  0  0  0  0  0  0  0  0
   14.7650    2.9810   16.0000 C   0  0  0  0  0  0  0  0  0  0  0  0
   15.1910   -1.1430   15.8120 H   0  0  0  0  0  0  0  0  0  0  0  0
   16.7220   -0.4630   16.0430 H   0  0  0  0  0  0  0  0  0  0  0  0
   17.6719    1.1760   16.1873 H   0  0  0  0  0  0  0  0  0  0  0  0
   18.5008    3.1313   14.8665 H   0  0  0  0  0  0  0  0  0  0  0  0
   18.5000    5.7590   15.4500 H   0  0  0  0  0  0  0  0  0  0  0  0
   19.2303    7.0095   13.0643 H   0  0  0  0  0  0  0  0  0  0  0  0
   17.6307    7.7316   13.6155 H   0  0  0  0  0  0  0  0  0  0  0  0
   14.5411    4.8868   14.9958 H   0  0  0  0  0  0  0  0  0  0  0  0
   13.7157    2.9385   16.3274 H   0  0  0  0  0  0  0  0  0  0  0  0
  1  2  1  0
  2  3  2  0
  2  4  2  0
  2  5  1  0
  5  6  2  0
  6  7  1  0
  7  8  2  0
  8  9  1  0
  9 10  2  0
  9 11  1  0
 11 12  1  0
 12 13  1  0
 13 14  1  0
 13 15  1  0
 13 16  1  0
  8 17  1  0
 17 18  2  0
 18  5  1  0
  1 19  1  0
  1 20  1  0
  6 21  1  0
  7 22  1  0
 11 23  1  0
 12 24  1  0
 12 25  1  0
 17 26  1  0
 18 27  1  0
M  END
>  <meeko>  (1) 
{"is_sidechain": [false], "free_energy": -7.213, "intermolecular_energy": -9.111, "internal_energy": -0.274}

$$$$
3ryj_ligand
     RDKit          3D

 27 27  0  0  0  0  0  0  0  0999 V2000
   15.8850   -0.6880   16.5520 N   0  0  0  0  0  0  0  0  0  0  0  0
   15.0540    0.5700   17.3030 S   0  0  0  0  0  0  0  0  0  0  0  0
   15.5560    0.6950   18.6500 O   0  0  0  0  0  0  0  0  0  0  0  0
   13.6570    0.3510   17.0080 O   0  0  0  0  0  0  0  0  0  0  0  0
   15.6110    1.9710   16.3670 C   0  0  0  0  0  0  0  0  0  0  0  0
   14.7440    3.0490   16.1640 C   0  0  0  0  0  0  0  0  0  0  0  0
   15.1730    4.1510   15.4190 C   0  0  0  0  0  0  0  0  0  0  0  0
   16.4640    4.1650   14.8700 C   0  0  0  0  0  0  0  0  0  0  0  0
   16.9680    5.3190   14.0780 C   0  0  0  0  0  0  0  0  0  0  0  0
   16.3500    5.7130   13.0970 O   0  0  0  0  0  0  0  0  0  0  0  0
   18.1300    5.9150   14.5250 N   0  0  0  0  0  0  0  0  0  0  0  0
   18.5870    7.1640   13.9130 C   0  0  0  0  0  0  0  0  0  0  0  0
   19.2880    8.1360   14.8670 C   0  0  0  0  0  0  0  0  0  0  0  0
   19.0590    7.8600   16.1650 F   0  0  0  0  0  0  0  0  0  0  0  0
   20.6290    8.0990   14.6690 F   0  0  0  0  0  0  0  0  0  0  0  0
   18.8840    9.4060   14.6340 F   0  0  0  0  0  0  0  0  0  0  0  0
   17.3260    3.0790   15.0830 C   0  0  0  0  0  0  0  0  0  0  0  0
   16.8980    1.9740   15.8240 C   0  0  0  0  0  0  0  0  0  0  0  0
   16.2750   -1.3010   17.2690 H   0  0  0  0  0  0  0  0  0  0  0  0
   15.3230   -1.2020   15.8760 H   0  0  0  0  0  0  0  0  0  0  0  0
   13.7294    3.0299   16.5885 H   0  0  0  0  0  0  0  0  0  0  0  0
   14.4992    5.0064   15.2633 H   0  0  0  0  0  0  0  0  0  0  0  0
   18.4420    5.7170   15.4680 H   0  0  0  0  0  0  0  0  0  0  0  0
   19.2909    6.9108   13.1065 H   0  0  0  0  0  0  0  0  0  0  0  0
   17.6828    7.6806   13.5588 H   0  0  0  0  0  0  0  0  0  0  0  0
   18.3433    3.0972   14.6650 H   0  0  0  0  0  0  0  0  0  0  0  0
   17.5679    1.1152   15.9781 H   0  0  0  0  0  0  0  0  0  0  0  0
  1  2  1  0
  2  3  2  0
  2  4  2  0
  2  5  1  0
  5  6  2  0
  6  7  1  0
  7  8  2  0
  8  9  1  0
  9 10  2  0
  9 11  1  0
 11 12  1  0
 12 13  1  0
 13 14  1  0
 13 15  1  0
 13 16  1  0
  8 17  1  0
 17 18  2  0
 18  5  1  0
  1 19  1  0
  1 20  1  0
  6 21  1  0
  7 22  1  0
 11 23  1  0
 12 24  1  0
 12 25  1  0
 17 26  1  0
 18 27  1  0
M  END
>  <meeko>  (2) 
{"is_sidechain": [false], "free_energy": -7.182, "intermolecular_energy": -9.073, "internal_energy": -0.273}

$$$$
3ryj_ligand
     RDKit          3D

 27 27  0  0  0  0  0  0  0  0999 V2000
   13.7560    0.4020   17.1280 N   0  0  0  0  0  0  0  0  0  0  0  0
   15.2940    0.8810   17.6190 S   0  0  0  0  0  0  0  0  0  0  0  0
   16.1940   -0.2270   17.4090 O   0  0  0  0  0  0  0  0  0  0  0  0
   15.1180    1.5110   18.9070 O   0  0  0  0  0  0  0  0  0  0  0  0
   15.6700    2.1400   16.4260 C   0  0  0  0  0  0  0  0  0  0  0  0
   16.9060    2.1190   15.7730 C   0  0  0  0  0  0  0  0  0  0  0  0
   17.2130    3.1130   14.8400 C   0  0  0  0  0  0  0  0  0  0  0  0
   16.2870    4.1330   14.5740 C   0  0  0  0  0  0  0  0  0  0  0  0
   16.5650    5.2070   13.5830 C   0  0  0  0  0  0  0  0  0  0  0  0
   17.6890    5.6820   13.4860 O   0  0  0  0  0  0  0  0  0  0  0  0
   15.5090    5.6020   12.7870 N   0  0  0  0  0  0  0  0  0  0  0  0
   15.7450    6.5170   11.6690 C   0  0  0  0  0  0  0  0  0  0  0  0
   14.5050    7.2630   11.1660 C   0  0  0  0  0  0  0  0  0  0  0  0
   14.7240    8.5760   10.9650 F   0  0  0  0  0  0  0  0  0  0  0  0
   14.0850    6.7310    9.9920 F   0  0  0  0  0  0  0  0  0  0  0  0
   13.4870    7.1410   12.0480 F   0  0  0  0  0  0  0  0  0  0  0  0
   15.0490    4.1420   15.2340 C   0  0  0  0  0  0  0  0  0  0  0  0
   14.7410    3.1520   16.1690 C   0  0  0  0  0  0  0  0  0  0  0  0
   13.6810   -0.6120   17.2210 H   0  0  0  0  0  0  0  0  0  0  0  0
   13.0030    0.8860   17.6140 H   0  0  0  0  0  0  0  0  0  0  0  0
   17.6335    1.3237   15.9926 H   0  0  0  0  0  0  0  0  0  0  0  0
   18.1794    3.0958   14.3148 H   0  0  0  0  0  0  0  0  0  0  0  0
   14.6950    5.0030   12.7340 H   0  0  0  0  0  0  0  0  0  0  0  0
   16.4850    7.2645   11.9910 H   0  0  0  0  0  0  0  0  0  0  0  0
   16.0881    5.8934   10.8303 H   0  0  0  0  0  0  0  0  0  0  0  0
   14.3172    4.9332   15.0137 H   0  0  0  0  0  0  0  0  0  0  0  0
   13.7768    3.1683   16.6981 H   0  0  0  0  0  0  0  0  0  0  0  0
  1  2  1  0
  2  3  2  0
  2  4  2  0
  2  5  1  0
  5  6  2  0
  6  7  1  0
  7  8  2  0
  8  9  1  0
  9 10  2  0
  9 11  1  0
 11 12  1  0
 12 13  1  0
 13 14  1  0
 13 15  1  0
 13 16  1  0
  8 17  1  0
 17 18  2  0
 18  5  1  0
  1 19  1  0
  1 20  1  0
  6 21  1  0
  7 22  1  0
 11 23  1  0
 12 24  1  0
 12 25  1  0
 17 26  1  0
 18 27  1  0
M  END
>  <meeko>  (3) 
{"is_sidechain": [false], "free_energy": -7.173, "intermolecular_energy": -9.059, "internal_energy": -0.275}

$$$$
3ryj_ligand
     RDKit          3D

 27 27  0  0  0  0  0  0  0  0999 V2000
   15.9910   -0.5690   16.6750 N   0  0  0  0  0  0  0  0  0  0  0  0
   15.0730    0.7050   17.2800 S   0  0  0  0  0  0  0  0  0  0  0  0
   15.5870    1.0460   18.5850 O   0  0  0  0  0  0  0  0  0  0  0  0
   13.6930    0.3390   17.0570 O   0  0  0  0  0  0  0  0  0  0  0  0
   15.4950    2.0120   16.1550 C   0  0  0  0  0  0  0  0  0  0  0  0
   16.5550    1.8310   15.2610 C   0  0  0  0  0  0  0  0  0  0  0  0
   16.8980    2.8590   14.3790 C   0  0  0  0  0  0  0  0  0  0  0  0
   16.1890    4.0700   14.4050 C   0  0  0  0  0  0  0  0  0  0  0  0
   16.5130    5.1890   13.4800 C   0  0  0  0  0  0  0  0  0  0  0  0
   17.6560    5.6210   13.4090 O   0  0  0  0  0  0  0  0  0  0  0  0
   15.4750    5.6750   12.7120 N   0  0  0  0  0  0  0  0  0  0  0  0
   15.7500    6.6460   11.6500 C   0  0  0  0  0  0  0  0  0  0  0  0
   14.5180    7.3620   11.0900 C   0  0  0  0  0  0  0  0  0  0  0  0
   13.4610    7.3260   11.9240 F   0  0  0  0  0  0  0  0  0  0  0  0
   14.8060    8.6650   10.8470 F   0  0  0  0  0  0  0  0  0  0  0  0
   14.1390    6.8100    9.9150 F   0  0  0  0  0  0  0  0  0  0  0  0
   15.1260    4.2380   15.3050 C   0  0  0  0  0  0  0  0  0  0  0  0
   14.7830    3.2130   16.1900 C   0  0  0  0  0  0  0  0  0  0  0  0
   16.8940   -0.5810   17.1510 H   0  0  0  0  0  0  0  0  0  0  0  0
   15.5210   -1.4720   16.7280 H   0  0  0  0  0  0  0  0  0  0  0  0
   17.1156    0.8846   15.2522 H   0  0  0  0  0  0  0  0  0  0  0  0
   17.7230    2.7193   13.6649 H   0  0  0  0  0  0  0  0  0  0  0  0
   14.6350    5.1160   12.6250 H   0  0  0  0  0  0  0  0  0  0  0  0
   16.4330    7.4080   12.0535 H   0  0  0  0  0  0  0  0  0  0  0  0
   16.1777    6.0730   10.8141 H   0  0  0  0  0  0  0  0  0  0  0  0
   14.5600    5.1812   15.3138 H   0  0  0  0  0  0  0  0  0  0  0  0
   13.9604    3.3504   16.9072 H   0  0  0  0  0  0  0  0  0  0  0  0
  1  2  1  0
  2  3  2  0
  2  4  2  0
  2  5  1  0
  5  6  2  0
  6  7  1  0
  7  8  2  0
  8  9  1  0
  9 10  2  0
  9 11  1  0
 11 12  1  0
 12 13  1  0
 13 14  1  0
 13 15  1  0
 13 16  1  0
  8 17  1  0
 17 18  2  0
 18  5  1  0
  1 19  1  0
  1 20  1  0
  6 21  1  0
  7 22  1  0
 11 23  1  0
 12 24  1  0
 12 25  1  0
 17 26  1  0
 18 27  1  0
M  END
>  <meeko>  (4) 
{"is_sidechain": [false], "free_energy": -6.946, "intermolecular_energy": -8.788, "internal_energy": -0.26}

$$$$
3ryj_ligand
     RDKit          3D

 27 27  0  0  0  0  0  0  0  0999 V2000
   19.0530    8.4680   13.1430 N   0  0  0  0  0  0  0  0  0  0  0  0
   20.0170    7.4770   14.1040 S   0  0  0  0  0  0  0  0  0  0  0  0
   20.2150    8.1390   15.3710 O   0  0  0  0  0  0  0  0  0  0  0  0
   21.1150    7.0580   13.2620 O   0  0  0  0  0  0  0  0  0  0  0  0
   18.9470    6.0850   14.3620 C   0  0  0  0  0  0  0  0  0  0  0  0
   17.6450    6.2970   14.8270 C   0  0  0  0  0  0  0  0  0  0  0  0
   16.8010    5.2040   15.0420 C   0  0  0  0  0  0  0  0  0  0  0  0
   17.2660    3.9020   14.8040 C   0  0  0  0  0  0  0  0  0  0  0  0
   16.4020    2.7090   15.0100 C   0  0  0  0  0  0  0  0  0  0  0  0
   15.3770    2.5680   14.3560 O   0  0  0  0  0  0  0  0  0  0  0  0
   16.8340    1.7870   15.9410 N   0  0  0  0  0  0  0  0  0  0  0  0
   16.1400    0.5040   16.0680 C   0  0  0  0  0  0  0  0  0  0  0  0
   15.1780    0.4000   17.2550 C   0  0  0  0  0  0  0  0  0  0  0  0
   15.4790    1.2500   18.2550 F   0  0  0  0  0  0  0  0  0  0  0  0
   13.9110    0.6690   16.8540 F   0  0  0  0  0  0  0  0  0  0  0  0
   15.1800   -0.8540   17.7620 F   0  0  0  0  0  0  0  0  0  0  0  0
   18.5730    3.7030   14.3350 C   0  0  0  0  0  0  0  0  0  0  0  0
   19.4210    4.7920   14.1230 C   0  0  0  0  0  0  0  0  0  0  0  0
   18.3020    7.9070   12.7390 H   0  0  0  0  0  0  0  0  0  0  0  0
   18.6950    9.2870   13.6320 H   0  0  0  0  0  0  0  0  0  0  0  0
   17.2872    7.3187   15.0225 H   0  0  0  0  0  0  0  0  0  0  0  0
   15.7725    5.3646   15.3977 H   0  0  0  0  0  0  0  0  0  0  0  0
   17.7970    1.8270   16.2500 H   0  0  0  0  0  0  0  0  0  0  0  0
   15.5634    0.3359   15.1464 H   0  0  0  0  0  0  0  0  0  0  0  0
   16.9213   -0.2510   16.2401 H   0  0  0  0  0  0  0  0  0  0  0  0
   18.9320    2.6830   14.1330 H   0  0  0  0  0  0  0  0  0  0  0  0
   20.4513    4.6339   13.7716 H   0  0  0  0  0  0  0  0  0  0  0  0
  1  2  1  0
  2  3  2  0
  2  4  2  0
  2  5  1  0
  5  6  2  0
  6  7  1  0
  7  8  2  0
  8  9  1  0
  9 10  2  0
  9 11  1  0
 11 12  1  0
 12 13  1  0
 13 14  1  0
 13 15  1  0
 13 16  1  0
  8 17  1  0
 17 18  2  0
 18  5  1  0
  1 19  1  0
  1 20  1  0
  6 21  1  0
  7 22  1  0
 11 23  1  0
 12 24  1  0
 12 25  1  0
 17 26  1  0
 18 27  1  0
M  END
>  <meeko>  (5) 
{"is_sidechain": [false], "free_energy": -6.587, "intermolecular_energy": -8.239, "internal_energy": -0.356}

$$$$
3ryj_ligand
     RDKit          3D

 27 27  0  0  0  0  0  0  0  0999 V2000
   20.6560    7.2640   12.9880 N   0  0  0  0  0  0  0  0  0  0  0  0
   19.0440    7.5630   13.3720 S   0  0  0  0  0  0  0  0  0  0  0  0
   18.3230    7.7710   12.1400 O   0  0  0  0  0  0  0  0  0  0  0  0
   19.0670    8.5390   14.4370 O   0  0  0  0  0  0  0  0  0  0  0  0
   18.5470    6.0010   14.0540 C   0  0  0  0  0  0  0  0  0  0  0  0
   19.4550    4.9380   14.0660 C   0  0  0  0  0  0  0  0  0  0  0  0
   19.0660    3.7030   14.5920 C   0  0  0  0  0  0  0  0  0  0  0  0
   17.7660    3.5330   15.0920 C   0  0  0  0  0  0  0  0  0  0  0  0
   17.3100    2.2400   15.6700 C   0  0  0  0  0  0  0  0  0  0  0  0
   18.0770    1.5540   16.3330 O   0  0  0  0  0  0  0  0  0  0  0  0
   15.9960    1.8890   15.4370 N   0  0  0  0  0  0  0  0  0  0  0  0
   15.4210    0.7300   16.1240 C   0  0  0  0  0  0  0  0  0  0  0  0
   14.4290    1.0630   17.2420 C   0  0  0  0  0  0  0  0  0  0  0  0
   14.9980    1.0890   18.4620 F   0  0  0  0  0  0  0  0  0  0  0  0
   13.8690    2.2780   17.0220 F   0  0  0  0  0  0  0  0  0  0  0  0
   13.4230    0.1590   17.2700 F   0  0  0  0  0  0  0  0  0  0  0  0
   16.8660    4.6080   15.0770 C   0  0  0  0  0  0  0  0  0  0  0  0
   17.2500    5.8420   14.5490 C   0  0  0  0  0  0  0  0  0  0  0  0
   21.2490    7.6680   13.7140 H   0  0  0  0  0  0  0  0  0  0  0  0
   20.8630    6.2790   12.8320 H   0  0  0  0  0  0  0  0  0  0  0  0
   20.4699    5.0729   13.6637 H   0  0  0  0  0  0  0  0  0  0  0  0
   19.7783    2.8650   14.6140 H   0  0  0  0  0  0  0  0  0  0  0  0
   15.3550    2.6040   15.1160 H   0  0  0  0  0  0  0  0  0  0  0  0
   14.8979    0.1158   15.3763 H   0  0  0  0  0  0  0  0  0  0  0  0
   16.2628    0.2114   16.6062 H   0  0  0  0  0  0  0  0  0  0  0  0
   15.8521    4.4784   15.4834 H   0  0  0  0  0  0  0  0  0  0  0  0
   16.5387    6.6807   14.5229 H   0  0  0  0  0  0  0  0  0  0  0  0
  1  2  1  0
  2  3  2  0
  2  4  2  0
  2  5  1  0
  5  6  2  0
  6  7  1  0
  7  8  2  0
  8  9  1  0
  9 10  2  0
  9 11  1  0
 11 12  1  0
 12 13  1  0
 13 14  1  0
 13 15  1  0
 13 16  1  0
  8 17  1  0
 17 18  2  0
 18  5  1  0
  1 19  1  0
  1 20  1  0
  6 21  1  0
  7 22  1  0
 11 23  1  0
 12 24  1  0
 12 25  1  0
 17 26  1  0
 18 27  1  0
M  END
>  <meeko>  (6) 
{"is_sidechain": [false], "free_energy": -6.544, "intermolecular_energy": -8.169, "internal_energy": -0.371}

$$$$
3ryj_ligand
     RDKit          3D

 27 27  0  0  0  0  0  0  0  0999 V2000
   17.3820    4.1050    8.6780 N   0  0  0  0  0  0  0  0  0  0  0  0
   16.8150    5.2700    9.7530 S   0  0  0  0  0  0  0  0  0  0  0  0
   15.4290    5.5250    9.4440 O   0  0  0  0  0  0  0  0  0  0  0  0
   17.8150    6.3130    9.7680 O   0  0  0  0  0  0  0  0  0  0  0  0
   16.8920    4.3960   11.2960 C   0  0  0  0  0  0  0  0  0  0  0  0
   17.1190    3.0170   11.2930 C   0  0  0  0  0  0  0  0  0  0  0  0
   17.1700    2.3220   12.5040 C   0  0  0  0  0  0  0  0  0  0  0  0
   16.9810    3.0070   13.7130 C   0  0  0  0  0  0  0  0  0  0  0  0
   17.0350    2.3120   15.0270 C   0  0  0  0  0  0  0  0  0  0  0  0
   17.9810    2.4920   15.7830 O   0  0  0  0  0  0  0  0  0  0  0  0
   15.9670    1.4970   15.3390 N   0  0  0  0  0  0  0  0  0  0  0  0
   15.8570    0.9260   16.6840 C   0  0  0  0  0  0  0  0  0  0  0  0
   14.6380    1.3870   17.4870 C   0  0  0  0  0  0  0  0  0  0  0  0
   14.9000    1.5510   18.7980 F   0  0  0  0  0  0  0  0  0  0  0  0
   14.1830    2.5710   17.0080 F   0  0  0  0  0  0  0  0  0  0  0  0
   13.6280    0.4940   17.3740 F   0  0  0  0  0  0  0  0  0  0  0  0
   16.7560    4.3920   13.7030 C   0  0  0  0  0  0  0  0  0  0  0  0
   16.7010    5.0890   12.4940 C   0  0  0  0  0  0  0  0  0  0  0  0
   16.6270    3.8480    8.0400 H   0  0  0  0  0  0  0  0  0  0  0  0
   18.2240    4.3850    8.1780 H   0  0  0  0  0  0  0  0  0  0  0  0
   17.2568    2.4815   10.3421 H   0  0  0  0  0  0  0  0  0  0  0  0
   17.3583    1.2382   12.5091 H   0  0  0  0  0  0  0  0  0  0  0  0
   15.1130    1.5930   14.8040 H   0  0  0  0  0  0  0  0  0  0  0  0
   15.8069   -0.1685   16.5866 H   0  0  0  0  0  0  0  0  0  0  0  0
   16.7399    1.2763   17.2388 H   0  0  0  0  0  0  0  0  0  0  0  0
   16.6223    4.9315   14.6522 H   0  0  0  0  0  0  0  0  0  0  0  0
   16.5093    6.1721   12.4851 H   0  0  0  0  0  0  0  0  0  0  0  0
  1  2  1  0
  2  3  2  0
  2  4  2  0
  2  5  1  0
  5  6  2  0
  6  7  1  0
  7  8  2  0
  8  9  1  0
  9 10  2  0
  9 11  1  0
 11 12  1  0
 12 13  1  0
 13 14  1  0
 13 15  1  0
 13 16  1  0
  8 17  1  0
 17 18  2  0
 18  5  1  0
  1 19  1  0
  1 20  1  0
  6 21  1  0
  7 22  1  0
 11 23  1  0
 12 24  1  0
 12 25  1  0
 17 26  1  0
 18 27  1  0
M  END
>  <meeko>  (7) 
{"is_sidechain": [false], "free_energy": -6.458, "intermolecular_energy": -8.101, "internal_energy": -0.331}

$$$$
3ryj_ligand
     RDKit          3D

 27 27  0  0  0  0  0  0  0  0999 V2000
   15.7610   -0.4050   17.2260 N   0  0  0  0  0  0  0  0  0  0  0  0
   14.7990    0.9600   17.4370 S   0  0  0  0  0  0  0  0  0  0  0  0
   14.9840    1.4320   18.7890 O   0  0  0  0  0  0  0  0  0  0  0  0
   13.5030    0.6160   16.9020 O   0  0  0  0  0  0  0  0  0  0  0  0
   15.5740    2.1140   16.3330 C   0  0  0  0  0  0  0  0  0  0  0  0
   14.8350    3.1940   15.8410 C   0  0  0  0  0  0  0  0  0  0  0  0
   15.4360    4.1010   14.9630 C   0  0  0  0  0  0  0  0  0  0  0  0
   16.7700    3.9150   14.5700 C   0  0  0  0  0  0  0  0  0  0  0  0
   17.4550    4.8570   13.6450 C   0  0  0  0  0  0  0  0  0  0  0  0
   17.3330    6.0660   13.7930 O   0  0  0  0  0  0  0  0  0  0  0  0
   18.2340    4.2950   12.6550 N   0  0  0  0  0  0  0  0  0  0  0  0
   19.0840    5.1510   11.8250 C   0  0  0  0  0  0  0  0  0  0  0  0
   20.5250    5.3110   12.3180 C   0  0  0  0  0  0  0  0  0  0  0  0
   21.4290    4.7370   11.5010 F   0  0  0  0  0  0  0  0  0  0  0  0
   20.8400    6.6260   12.4230 F   0  0  0  0  0  0  0  0  0  0  0  0
   20.6700    4.7660   13.5480 F   0  0  0  0  0  0  0  0  0  0  0  0
   17.5010    2.8280   15.0720 C   0  0  0  0  0  0  0  0  0  0  0  0
   16.9020    1.9190   15.9470 C   0  0  0  0  0  0  0  0  0  0  0  0
   15.1990   -1.1420   16.7990 H   0  0  0  0  0  0  0  0  0  0  0  0
   16.6160   -0.2250   16.7020 H   0  0  0  0  0  0  0  0  0  0  0  0
   13.7860    3.3295   16.1431 H   0  0  0  0  0  0  0  0  0  0  0  0
   14.8638    4.9592   14.5809 H   0  0  0  0  0  0  0  0  0  0  0  0
   18.5010    3.3220   12.7450 H   0  0  0  0  0  0  0  0  0  0  0  0
   19.1160    4.7207   10.8132 H   0  0  0  0  0  0  0  0  0  0  0  0
   18.6352    6.1546   11.8608 H   0  0  0  0  0  0  0  0  0  0  0  0
   18.5512    2.6909   14.7750 H   0  0  0  0  0  0  0  0  0  0  0  0
   17.4706    1.0580   16.3284 H   0  0  0  0  0  0  0  0  0  0  0  0
  1  2  1  0
  2  3  2  0
  2  4  2  0
  2  5  1  0
  5  6  2  0
  6  7  1  0
  7  8  2  0
  8  9  1  0
  9 10  2  0
  9 11  1  0
 11 12  1  0
 12 13  1  0
 13 14  1  0
 13 15  1  0
 13 16  1  0
  8 17  1  0
 17 18  2  0
 18  5  1  0
  1 19  1  0
  1 20  1  0
  6 21  1  0
  7 22  1  0
 11 23  1  0
 12 24  1  0
 12 25  1  0
 17 26  1  0
 18 27  1  0
M  END
>  <meeko>  (8) 
{"is_sidechain": [false], "free_energy": -6.327, "intermolecular_energy": -7.877, "internal_energy": -0.388}

$$$$
3ryj_ligand
     RDKit          3D

 27 27  0  0  0  0  0  0  0  0999 V2000
   22.2450    4.3550   12.1030 N   0  0  0  0  0  0  0  0  0  0  0  0
   20.9630    5.4290   11.9160 S   0  0  0  0  0  0  0  0  0  0  0  0
   20.6870    5.5540   10.5050 O   0  0  0  0  0  0  0  0  0  0  0  0
   21.2740    6.5650   12.7530 O   0  0  0  0  0  0  0  0  0  0  0  0
   19.6320    4.5270   12.6670 C   0  0  0  0  0  0  0  0  0  0  0  0
   19.4900    4.5460   14.0580 C   0  0  0  0  0  0  0  0  0  0  0  0
   18.4500    3.8290   14.6560 C   0  0  0  0  0  0  0  0  0  0  0  0
   17.5640    3.0850   13.8620 C   0  0  0  0  0  0  0  0  0  0  0  0
   16.4380    2.3140   14.4520 C   0  0  0  0  0  0  0  0  0  0  0  0
   15.3650    2.2400   13.8670 O   0  0  0  0  0  0  0  0  0  0  0  0
   16.6840    1.6840   15.6550 N   0  0  0  0  0  0  0  0  0  0  0  0
   15.6920    0.7580   16.2070 C   0  0  0  0  0  0  0  0  0  0  0  0
   14.7590    1.3590   17.2630 C   0  0  0  0  0  0  0  0  0  0  0  0
   15.3210    1.4290   18.4850 F   0  0  0  0  0  0  0  0  0  0  0  0
   14.3950    2.6150   16.9040 F   0  0  0  0  0  0  0  0  0  0  0  0
   13.6250    0.6290   17.3670 F   0  0  0  0  0  0  0  0  0  0  0  0
   17.7160    3.0760   12.4670 C   0  0  0  0  0  0  0  0  0  0  0  0
   18.7560    3.7890   11.8670 C   0  0  0  0  0  0  0  0  0  0  0  0
   22.3470    3.8100   11.2450 H   0  0  0  0  0  0  0  0  0  0  0  0
   23.1190    4.8040   12.3740 H   0  0  0  0  0  0  0  0  0  0  0  0
   20.1928    5.1219   14.6780 H   0  0  0  0  0  0  0  0  0  0  0  0
   18.3260    3.8479   15.7488 H   0  0  0  0  0  0  0  0  0  0  0  0
   17.6450    1.5660   15.9510 H   0  0  0  0  0  0  0  0  0  0  0  0
   15.0730    0.3871   15.3768 H   0  0  0  0  0  0  0  0  0  0  0  0
   16.2616   -0.0334   16.7162 H   0  0  0  0  0  0  0  0  0  0  0  0
   17.0127    2.5047   11.8433 H   0  0  0  0  0  0  0  0  0  0  0  0
   18.8844    3.7698   10.7747 H   0  0  0  0  0  0  0  0  0  0  0  0
  1  2  1  0
  2  3  2  0
  2  4  2  0
  2  5  1  0
  5  6  2  0
  6  7  1  0
  7  8  2  0
  8  9  1  0
  9 10  2  0
  9 11  1  0
 11 12  1  0
 12 13  1  0
 13 14  1  0
 13 15  1  0
 13 16  1  0
  8 17  1  0
 17 18  2  0
 18  5  1  0
  1 19  1  0
  1 20  1  0
  6 21  1  0
  7 22  1  0
 11 23  1  0
 12 24  1  0
 12 25  1  0
 17 26  1  0
 18 27  1  0
M  END
>  <meeko>  (9) 
{"is_sidechain": [false], "free_energy": -5.997, "intermolecular_energy": -7.521, "internal_energy": -0.327}

$$$$
