3arq_ligand
     RDKit          3D

 62 66  0  0  0  0  0  0  0  0999 V2000
   11.7710   -3.6450   21.5200 C   0  0  0  0  0  0  0  0  0  0  0  0
   12.5590   -4.2720   22.6430 C   0  0  0  0  0  0  0  0  0  0  0  0
   13.7820   -4.1400   22.7040 O   0  0  0  0  0  0  0  0  0  0  0  0
   11.7820   -5.1170   23.6780 C   0  0  2  0  0  0  0  0  0  0  0  0
   10.3740   -4.9790   23.4770 O   0  0  0  0  0  0  0  0  0  0  0  0
   12.1190   -4.6500   25.1120 C   0  0  0  0  0  0  0  0  0  0  0  0
   11.6540   -5.6310   26.1580 C   0  0  0  0  0  0  0  0  0  0  0  0
   11.4150   -6.9210   25.8890 C   0  0  0  0  0  0  0  0  0  0  0  0
   11.0130   -7.8070   27.0040 C   0  0  0  0  0  0  0  0  0  0  0  0
   11.2030   -9.0170   26.9600 O   0  0  0  0  0  0  0  0  0  0  0  0
   10.3060   -7.1780   28.1410 C   0  0  0  0  0  0  0  0  0  0  0  0
    9.3400   -7.9860   28.9350 C   0  0  0  0  0  0  0  0  0  0  0  0
    8.8730   -9.0420   28.5090 O   0  0  0  0  0  0  0  0  0  0  0  0
    8.9280   -7.4440   30.2400 C   0  0  0  0  0  0  0  0  0  0  0  0
    8.2660   -8.2630   31.1630 C   0  0  0  0  0  0  0  0  0  0  0  0
    7.8570   -7.7340   32.3880 C   0  0  0  0  0  0  0  0  0  0  0  0
    8.0990   -6.3930   32.6880 C   0  0  0  0  0  0  0  0  0  0  0  0
    8.7510   -5.5750   31.7640 C   0  0  0  0  0  0  0  0  0  0  0  0
    9.1710   -6.1060   30.5380 C   0  0  0  0  0  0  0  0  0  0  0  0
    9.8320   -5.2340   29.5490 C   0  0  0  0  0  0  0  0  0  0  0  0
    9.7590   -4.0200   29.6640 O   0  0  0  0  0  0  0  0  0  0  0  0
   10.5280   -5.8850   28.4110 C   0  0  0  0  0  0  0  0  0  0  0  0
   11.4540   -5.1140   27.5380 C   0  0  0  0  0  0  0  0  0  0  0  0
   12.0290   -4.1020   27.9070 O   0  0  0  0  0  0  0  0  0  0  0  0
   11.5550   -7.5400   24.5220 C   0  0  1  0  0  0  0  0  0  0  0  0
   10.2300   -7.9040   24.0990 O   0  0  0  0  0  0  0  0  0  0  0  0
    9.9990   -9.3090   23.9750 C   0  0  1  0  0  0  0  0  0  0  0  0
    8.8280   -9.5700   23.0400 C   0  0  0  0  0  0  0  0  0  0  0  0
    9.1710   -8.9040   21.7090 C   0  0  2  0  0  0  0  0  0  0  0  0
    8.0120   -9.0330   20.7850 N   0  0  0  0  0  0  0  0  0  0  0  0
   10.4190   -9.5490   21.0970 C   0  0  2  0  0  0  0  0  0  0  0  0
   10.0390  -10.8750   20.6990 O   0  0  0  0  0  0  0  0  0  0  0  0
   11.5600   -9.4870   22.1430 C   0  0  2  0  0  0  0  0  0  0  0  0
   12.7860  -10.2940   21.7320 C   0  0  0  0  0  0  0  0  0  0  0  0
   11.1460   -9.9670   23.4290 O   0  0  0  0  0  0  0  0  0  0  0  0
   12.1820   -6.5930   23.4850 C   0  0  0  0  0  0  0  0  0  0  0  0
   10.9753   -3.0118   21.9394 H   0  0  0  0  0  0  0  0  0  0  0  0
   12.4408   -3.0301   20.9008 H   0  0  0  0  0  0  0  0  0  0  0  0
   11.3223   -4.4358   20.9008 H   0  0  0  0  0  0  0  0  0  0  0  0
   10.2220   -4.2150   22.8900 H   0  0  0  0  0  0  0  0  0  0  0  0
   13.2092   -4.5314   25.1982 H   0  0  0  0  0  0  0  0  0  0  0  0
   11.5959   -3.6984   25.2874 H   0  0  0  0  0  0  0  0  0  0  0  0
    8.0692   -9.3185   30.9236 H   0  0  0  0  0  0  0  0  0  0  0  0
    7.3427   -8.3757   33.1186 H   0  0  0  0  0  0  0  0  0  0  0  0
    7.7753   -5.9797   33.6546 H   0  0  0  0  0  0  0  0  0  0  0  0
    8.9345   -4.5160   31.9981 H   0  0  0  0  0  0  0  0  0  0  0  0
   12.2327   -8.4037   24.5906 H   0  0  0  0  0  0  0  0  0  0  0  0
    9.7849   -9.6979   24.9814 H   0  0  0  0  0  0  0  0  0  0  0  0
    8.6904  -10.6521   22.8979 H   0  0  0  0  0  0  0  0  0  0  0  0
    7.8930   -9.1656   23.4550 H   0  0  0  0  0  0  0  0  0  0  0  0
    9.3846   -7.8381   21.8773 H   0  0  0  0  0  0  0  0  0  0  0  0
    8.2140   -8.5910   19.8800 H   0  0  0  0  0  0  0  0  0  0  0  0
    7.8430  -10.0260   20.5590 H   0  0  0  0  0  0  0  0  0  0  0  0
    7.1720   -8.6160   21.2110 H   0  0  0  0  0  0  0  0  0  0  0  0
   10.8022   -9.0315   20.2052 H   0  0  0  0  0  0  0  0  0  0  0  0
    9.0650  -10.9470   20.7420 H   0  0  0  0  0  0  0  0  0  0  0  0
   11.8207   -8.4198   22.1995 H   0  0  0  0  0  0  0  0  0  0  0  0
   13.3145  -10.6419   22.6318 H   0  0  0  0  0  0  0  0  0  0  0  0
   12.4703  -11.1615   21.1338 H   0  0  0  0  0  0  0  0  0  0  0  0
   13.4580   -9.6610   21.1338 H   0  0  0  0  0  0  0  0  0  0  0  0
   13.2767   -6.6697   23.5607 H   0  0  0  0  0  0  0  0  0  0  0  0
   11.8090   -6.9025   22.4975 H   0  0  0  0  0  0  0  0  0  0  0  0
  1  2  1  0
  2  3  2  0
  2  4  1  0
  4  5  1  6
  4  6  1  0
  6  7  1  0
  7  8  2  0
  8  9  1  0
  9 10  2  0
  9 11  1  0
 11 12  1  0
 12 13  2  0
 12 14  1  0
 14 15  2  0
 15 16  1  0
 16 17  2  0
 17 18  1  0
 18 19  2  0
 19 20  1  0
 20 21  2  0
 20 22  1  0
 22 23  1  0
 23 24  2  0
  8 25  1  0
 25 26  1  0
 26 27  1  0
 27 28  1  0
 28 29  1  0
 29 30  1  0
 29 31  1  0
 31 32  1  0
 31 33  1  0
 33 34  1  0
 33 35  1  0
 25 36  1  0
 36  4  1  0
 23  7  1  0
 35 27  1  0
 22 11  2  0
 19 14  1  0
  1 37  1  0
  1 38  1  0
  1 39  1  0
  5 40  1  0
  6 41  1  0
  6 42  1  0
 15 43  1  0
 16 44  1  0
 17 45  1  0
 18 46  1  0
 25 47  1  1
 27 48  1  1
 28 49  1  0
 28 50  1  0
 29 51  1  1
 30 52  1  0
 30 53  1  0
 30 54  1  0
 31 55  1  6
 32 56  1  0
 33 57  1  1
 34 58  1  0
 34 59  1  0
 34 60  1  0
 36 61  1  0
 36 62  1  0
M  CHG  1  30   1
M  END
>  <meeko>  (1) 
{"is_sidechain": [false], "free_energy": -11.044, "intermolecular_energy": -13.949, "internal_energy": -0.182}

$$$$
3arq_ligand
     RDKit          3D

 62 66  0  0  0  0  0  0  0  0999 V2000
    9.8320   -6.7920   29.5650 C   0  0  0  0  0  0  0  0  0  0  0  0
   10.3960   -5.7920   28.5860 C   0  0  0  0  0  0  0  0  0  0  0  0
   10.0840   -4.6020   28.6520 O   0  0  0  0  0  0  0  0  0  0  0  0
   11.3360   -6.3240   27.4810 C   0  0  2  0  0  0  0  0  0  0  0  0
   11.2120   -7.7420   27.3620 O   0  0  0  0  0  0  0  0  0  0  0  0
   12.8060   -5.9890   27.8210 C   0  0  0  0  0  0  0  0  0  0  0  0
   13.7260   -6.1890   26.6450 C   0  0  0  0  0  0  0  0  0  0  0  0
   13.2930   -6.1950   25.3770 C   0  0  0  0  0  0  0  0  0  0  0  0
   14.2920   -6.3470   24.2960 C   0  0  0  0  0  0  0  0  0  0  0  0
   14.0770   -5.9330   23.1620 O   0  0  0  0  0  0  0  0  0  0  0  0
   15.5320   -7.0850   24.6240 C   0  0  0  0  0  0  0  0  0  0  0  0
   16.2460   -7.8250   23.5480 C   0  0  0  0  0  0  0  0  0  0  0  0
   15.6990   -8.1090   22.4830 O   0  0  0  0  0  0  0  0  0  0  0  0
   17.6280   -8.2460   23.8290 C   0  0  0  0  0  0  0  0  0  0  0  0
   18.4560   -8.6780   22.7860 C   0  0  0  0  0  0  0  0  0  0  0  0
   19.7580   -9.0990   23.0650 C   0  0  0  0  0  0  0  0  0  0  0  0
   20.2280   -9.0980   24.3790 C   0  0  0  0  0  0  0  0  0  0  0  0
   19.3980   -8.6760   25.4190 C   0  0  0  0  0  0  0  0  0  0  0  0
   18.0960   -8.2430   25.1410 C   0  0  0  0  0  0  0  0  0  0  0  0
   17.2090   -7.8270   26.2430 C   0  0  0  0  0  0  0  0  0  0  0  0
   17.4910   -8.1230   27.3940 O   0  0  0  0  0  0  0  0  0  0  0  0
   15.9670   -7.0960   25.8910 C   0  0  0  0  0  0  0  0  0  0  0  0
   15.1700   -6.3930   26.9340 C   0  0  0  0  0  0  0  0  0  0  0  0
   15.6500   -5.9990   27.9850 O   0  0  0  0  0  0  0  0  0  0  0  0
   11.8510   -6.0300   24.9750 C   0  0  1  0  0  0  0  0  0  0  0  0
   11.4340   -7.2860   24.4120 O   0  0  0  0  0  0  0  0  0  0  0  0
   10.7540   -7.1910   23.1580 C   0  0  1  0  0  0  0  0  0  0  0  0
   11.6900   -7.5760   22.0220 C   0  0  0  0  0  0  0  0  0  0  0  0
   12.1900   -8.9880   22.3230 C   0  0  2  0  0  0  0  0  0  0  0  0
   13.1960   -9.3790   21.2990 N   0  0  0  0  0  0  0  0  0  0  0  0
   11.0190   -9.9770   22.3300 C   0  0  2  0  0  0  0  0  0  0  0  0
   10.5680  -10.0840   20.9710 O   0  0  0  0  0  0  0  0  0  0  0  0
    9.9540   -9.4620   23.3290 C   0  0  2  0  0  0  0  0  0  0  0  0
    8.6470  -10.2430   23.2580 C   0  0  0  0  0  0  0  0  0  0  0  0
    9.6340   -8.0800   23.1190 O   0  0  0  0  0  0  0  0  0  0  0  0
   10.9280   -5.6640   26.1500 C   0  0  0  0  0  0  0  0  0  0  0  0
   10.0255   -6.4489   30.5920 H   0  0  0  0  0  0  0  0  0  0  0  0
    8.7474   -6.8869   29.4083 H   0  0  0  0  0  0  0  0  0  0  0  0
   10.3120   -7.7693   29.4083 H   0  0  0  0  0  0  0  0  0  0  0  0
   12.1020   -8.1350   27.4410 H   0  0  0  0  0  0  0  0  0  0  0  0
   12.8642   -4.9381   28.1407 H   0  0  0  0  0  0  0  0  0  0  0  0
   13.1298   -6.6714   28.6207 H   0  0  0  0  0  0  0  0  0  0  0  0
   18.0827   -8.6858   21.7513 H   0  0  0  0  0  0  0  0  0  0  0  0
   20.4143   -9.4320   22.2475 H   0  0  0  0  0  0  0  0  0  0  0  0
   21.2540   -9.4302   24.5955 H   0  0  0  0  0  0  0  0  0  0  0  0
   19.7664   -8.6837   26.4554 H   0  0  0  0  0  0  0  0  0  0  0  0
   11.7755   -5.1972   24.2603 H   0  0  0  0  0  0  0  0  0  0  0  0
   10.4138   -6.1512   23.0439 H   0  0  0  0  0  0  0  0  0  0  0  0
   11.1493   -7.5617   21.0642 H   0  0  0  0  0  0  0  0  0  0  0  0
   12.5284   -6.8682   21.9436 H   0  0  0  0  0  0  0  0  0  0  0  0
   12.6589   -9.0062   23.3179 H   0  0  0  0  0  0  0  0  0  0  0  0
   13.9310   -9.9660   21.7130 H   0  0  0  0  0  0  0  0  0  0  0  0
   12.7600   -9.9750   20.5780 H   0  0  0  0  0  0  0  0  0  0  0  0
   13.6060   -8.5390   20.8680 H   0  0  0  0  0  0  0  0  0  0  0  0
   11.2853  -10.9879   22.6723 H   0  0  0  0  0  0  0  0  0  0  0  0
   11.2340  -10.5840   20.4590 H   0  0  0  0  0  0  0  0  0  0  0  0
   10.4170   -9.6019   24.3170 H   0  0  0  0  0  0  0  0  0  0  0  0
    8.2911  -10.4557   24.2769 H   0  0  0  0  0  0  0  0  0  0  0  0
    7.8926   -9.6475   22.7229 H   0  0  0  0  0  0  0  0  0  0  0  0
    8.8140  -11.1895   22.7229 H   0  0  0  0  0  0  0  0  0  0  0  0
   10.9489   -4.5722   26.2821 H   0  0  0  0  0  0  0  0  0  0  0  0
    9.9232   -6.0350   25.8997 H   0  0  0  0  0  0  0  0  0  0  0  0
  1  2  1  0
  2  3  2  0
  2  4  1  0
  4  5  1  6
  4  6  1  0
  6  7  1  0
  7  8  2  0
  8  9  1  0
  9 10  2  0
  9 11  1  0
 11 12  1  0
 12 13  2  0
 12 14  1  0
 14 15  2  0
 15 16  1  0
 16 17  2  0
 17 18  1  0
 18 19  2  0
 19 20  1  0
 20 21  2  0
 20 22  1  0
 22 23  1  0
 23 24  2  0
  8 25  1  0
 25 26  1  0
 26 27  1  0
 27 28  1  0
 28 29  1  0
 29 30  1  0
 29 31  1  0
 31 32  1  0
 31 33  1  0
 33 34  1  0
 33 35  1  0
 25 36  1  0
 36  4  1  0
 23  7  1  0
 35 27  1  0
 22 11  2  0
 19 14  1  0
  1 37  1  0
  1 38  1  0
  1 39  1  0
  5 40  1  0
  6 41  1  0
  6 42  1  0
 15 43  1  0
 16 44  1  0
 17 45  1  0
 18 46  1  0
 25 47  1  6
 27 48  1  6
 28 49  1  0
 28 50  1  0
 29 51  1  1
 30 52  1  0
 30 53  1  0
 30 54  1  0
 31 55  1  1
 32 56  1  0
 33 57  1  1
 34 58  1  0
 34 59  1  0
 34 60  1  0
 36 61  1  0
 36 62  1  0
M  CHG  1  30   1
M  END
>  <meeko>  (2) 
{"is_sidechain": [false], "free_energy": -10.888, "intermolecular_energy": -12.688, "internal_energy": -1.246}

$$$$
3arq_ligand
     RDKit          3D

 62 66  0  0  0  0  0  0  0  0999 V2000
    9.2700   -8.5690   21.2280 C   0  0  0  0  0  0  0  0  0  0  0  0
   10.3590   -7.5830   20.8820 C   0  0  0  0  0  0  0  0  0  0  0  0
   10.4680   -7.1430   19.7370 O   0  0  0  0  0  0  0  0  0  0  0  0
   11.3490   -7.1880   22.0000 C   0  0  2  0  0  0  0  0  0  0  0  0
   11.8130   -5.8500   21.8060 O   0  0  0  0  0  0  0  0  0  0  0  0
   12.5710   -8.1340   21.9940 C   0  0  0  0  0  0  0  0  0  0  0  0
   13.4000   -8.0080   23.2460 C   0  0  0  0  0  0  0  0  0  0  0  0
   12.9140   -7.5130   24.3920 C   0  0  0  0  0  0  0  0  0  0  0  0
   13.8030   -7.4840   25.5750 C   0  0  0  0  0  0  0  0  0  0  0  0
   13.3510   -7.4800   26.7150 O   0  0  0  0  0  0  0  0  0  0  0  0
   15.2570   -7.3870   25.3220 C   0  0  0  0  0  0  0  0  0  0  0  0
   16.1290   -6.7280   26.3320 C   0  0  0  0  0  0  0  0  0  0  0  0
   15.6710   -5.9950   27.2070 O   0  0  0  0  0  0  0  0  0  0  0  0
   17.5790   -6.9540   26.2140 C   0  0  0  0  0  0  0  0  0  0  0  0
   18.4310   -6.6210   27.2740 C   0  0  0  0  0  0  0  0  0  0  0  0
   19.8070   -6.8160   27.1430 C   0  0  0  0  0  0  0  0  0  0  0  0
   20.3320   -7.3330   25.9580 C   0  0  0  0  0  0  0  0  0  0  0  0
   19.4830   -7.6560   24.8980 C   0  0  0  0  0  0  0  0  0  0  0  0
   18.1020   -7.4710   25.0300 C   0  0  0  0  0  0  0  0  0  0  0  0
   17.2080   -7.7830   23.9000 C   0  0  0  0  0  0  0  0  0  0  0  0
   17.6720   -7.9220   22.7790 O   0  0  0  0  0  0  0  0  0  0  0  0
   15.7520   -7.8670   24.1740 C   0  0  0  0  0  0  0  0  0  0  0  0
   14.8170   -8.4530   23.1740 C   0  0  0  0  0  0  0  0  0  0  0  0
   15.1690   -9.2550   22.3240 O   0  0  0  0  0  0  0  0  0  0  0  0
   11.5060   -7.0060   24.5650 C   0  0  1  0  0  0  0  0  0  0  0  0
   11.6040   -5.5870   24.7810 O   0  0  0  0  0  0  0  0  0  0  0  0
   10.3540   -4.9020   24.8720 C   0  0  1  0  0  0  0  0  0  0  0  0
   10.2680   -4.1370   26.1850 C   0  0  0  0  0  0  0  0  0  0  0  0
   11.4680   -3.1930   26.2220 C   0  0  2  0  0  0  0  0  0  0  0  0
   11.4980   -2.4930   27.5350 N   0  0  0  0  0  0  0  0  0  0  0  0
   11.3850   -2.1790   25.0760 C   0  0  2  0  0  0  0  0  0  0  0  0
   10.2870   -1.3070   25.3820 O   0  0  0  0  0  0  0  0  0  0  0  0
   11.2430   -2.9600   23.7460 C   0  0  2  0  0  0  0  0  0  0  0  0
   10.9280   -2.0590   22.5580 C   0  0  0  0  0  0  0  0  0  0  0  0
   10.2120   -3.9570   23.8080 O   0  0  0  0  0  0  0  0  0  0  0  0
   10.6060   -7.2780   23.3480 C   0  0  0  0  0  0  0  0  0  0  0  0
    9.1817   -8.6490   22.3215 H   0  0  0  0  0  0  0  0  0  0  0  0
    8.3145   -8.2225   20.8073 H   0  0  0  0  0  0  0  0  0  0  0  0
    9.5201   -9.5541   20.8073 H   0  0  0  0  0  0  0  0  0  0  0  0
   12.6980   -5.7710   22.2090 H   0  0  0  0  0  0  0  0  0  0  0  0
   12.2146   -9.1712   21.9090 H   0  0  0  0  0  0  0  0  0  0  0  0
   13.2070   -7.8556   21.1407 H   0  0  0  0  0  0  0  0  0  0  0  0
   18.0179   -6.2076   28.2059 H   0  0  0  0  0  0  0  0  0  0  0  0
   20.4790   -6.5615   27.9758 H   0  0  0  0  0  0  0  0  0  0  0  0
   21.4168   -7.4863   25.8589 H   0  0  0  0  0  0  0  0  0  0  0  0
   19.8985   -8.0551   23.9610 H   0  0  0  0  0  0  0  0  0  0  0  0
   11.0396   -7.5343   25.4096 H   0  0  0  0  0  0  0  0  0  0  0  0
    9.5579   -5.6587   24.8112 H   0  0  0  0  0  0  0  0  0  0  0  0
    9.3315   -3.5616   26.2279 H   0  0  0  0  0  0  0  0  0  0  0  0
   10.2778   -4.8235   27.0444 H   0  0  0  0  0  0  0  0  0  0  0  0
   12.3940   -3.7736   26.0975 H   0  0  0  0  0  0  0  0  0  0  0  0
   11.0640   -1.5640   27.4640 H   0  0  0  0  0  0  0  0  0  0  0  0
   10.9190   -2.9990   28.2240 H   0  0  0  0  0  0  0  0  0  0  0  0
   12.4670   -2.4130   27.8710 H   0  0  0  0  0  0  0  0  0  0  0  0
   12.2831   -1.5543   24.9615 H   0  0  0  0  0  0  0  0  0  0  0  0
   10.0030   -1.4730   26.3020 H   0  0  0  0  0  0  0  0  0  0  0  0
   12.2256   -3.4329   23.6018 H   0  0  0  0  0  0  0  0  0  0  0  0
   10.5854   -1.0790   22.9217 H   0  0  0  0  0  0  0  0  0  0  0  0
   11.8334   -1.9274   21.9474 H   0  0  0  0  0  0  0  0  0  0  0  0
   10.1378   -2.5202   21.9474 H   0  0  0  0  0  0  0  0  0  0  0  0
   10.1843   -8.2892   23.4461 H   0  0  0  0  0  0  0  0  0  0  0  0
    9.8284   -6.5000   23.3409 H   0  0  0  0  0  0  0  0  0  0  0  0
  1  2  1  0
  2  3  2  0
  2  4  1  0
  4  5  1  6
  4  6  1  0
  6  7  1  0
  7  8  2  0
  8  9  1  0
  9 10  2  0
  9 11  1  0
 11 12  1  0
 12 13  2  0
 12 14  1  0
 14 15  2  0
 15 16  1  0
 16 17  2  0
 17 18  1  0
 18 19  2  0
 19 20  1  0
 20 21  2  0
 20 22  1  0
 22 23  1  0
 23 24  2  0
  8 25  1  0
 25 26  1  0
 26 27  1  0
 27 28  1  0
 28 29  1  0
 29 30  1  0
 29 31  1  0
 31 32  1  0
 31 33  1  0
 33 34  1  0
 33 35  1  0
 25 36  1  0
 36  4  1  0
 23  7  1  0
 35 27  1  0
 22 11  2  0
 19 14  1  0
  1 37  1  0
  1 38  1  0
  1 39  1  0
  5 40  1  0
  6 41  1  0
  6 42  1  0
 15 43  1  0
 16 44  1  0
 17 45  1  0
 18 46  1  0
 25 47  1  1
 27 48  1  1
 28 49  1  0
 28 50  1  0
 29 51  1  6
 30 52  1  0
 30 53  1  0
 30 54  1  0
 31 55  1  6
 32 56  1  0
 33 57  1  6
 34 58  1  0
 34 59  1  0
 34 60  1  0
 36 61  1  0
 36 62  1  0
M  CHG  1  30   1
M  END
>  <meeko>  (3) 
{"is_sidechain": [false], "free_energy": -10.809, "intermolecular_energy": -12.664, "internal_energy": -1.171}

$$$$
3arq_ligand
     RDKit          3D

 62 66  0  0  0  0  0  0  0  0999 V2000
    9.6570   -2.3110   31.4410 C   0  0  0  0  0  0  0  0  0  0  0  0
   10.8770   -2.2310   30.5570 C   0  0  0  0  0  0  0  0  0  0  0  0
   11.9030   -1.6720   30.9480 O   0  0  0  0  0  0  0  0  0  0  0  0
   10.7730   -2.8340   29.1380 C   0  0  2  0  0  0  0  0  0  0  0  0
    9.5490   -2.4370   28.5170 O   0  0  0  0  0  0  0  0  0  0  0  0
   10.8070   -4.3780   29.2080 C   0  0  0  0  0  0  0  0  0  0  0  0
   11.0350   -5.0070   27.8580 C   0  0  0  0  0  0  0  0  0  0  0  0
   11.5940   -4.3480   26.8340 C   0  0  0  0  0  0  0  0  0  0  0  0
   11.8180   -5.0810   25.5680 C   0  0  0  0  0  0  0  0  0  0  0  0
   12.6840   -4.7330   24.7720 O   0  0  0  0  0  0  0  0  0  0  0  0
   10.9060   -6.2070   25.2710 C   0  0  0  0  0  0  0  0  0  0  0  0
   10.6220   -6.5590   23.8540 C   0  0  0  0  0  0  0  0  0  0  0  0
   10.8540   -5.7790   22.9310 O   0  0  0  0  0  0  0  0  0  0  0  0
   10.0030   -7.8720   23.6010 C   0  0  0  0  0  0  0  0  0  0  0  0
    9.9730   -8.3960   22.3040 C   0  0  0  0  0  0  0  0  0  0  0  0
    9.3630   -9.6300   22.0700 C   0  0  0  0  0  0  0  0  0  0  0  0
    8.7770  -10.3320   23.1240 C   0  0  0  0  0  0  0  0  0  0  0  0
    8.7990   -9.8040   24.4150 C   0  0  0  0  0  0  0  0  0  0  0  0
    9.4200   -8.5720   24.6540 C   0  0  0  0  0  0  0  0  0  0  0  0
    9.4160   -7.9990   26.0130 C   0  0  0  0  0  0  0  0  0  0  0  0
    8.6450   -8.4370   26.8540 O   0  0  0  0  0  0  0  0  0  0  0  0
   10.3320   -6.8650   26.2870 C   0  0  0  0  0  0  0  0  0  0  0  0
   10.6050   -6.4200   27.6810 C   0  0  0  0  0  0  0  0  0  0  0  0
   10.4830   -7.1530   28.6500 O   0  0  0  0  0  0  0  0  0  0  0  0
   12.0360   -2.9100   26.8950 C   0  0  1  0  0  0  0  0  0  0  0  0
   11.1690   -2.1750   26.0130 O   0  0  0  0  0  0  0  0  0  0  0  0
   11.8080   -1.1470   25.2540 C   0  0  1  0  0  0  0  0  0  0  0  0
   12.2430   -1.6870   23.9000 C   0  0  0  0  0  0  0  0  0  0  0  0
   10.9900   -2.2360   23.2210 C   0  0  2  0  0  0  0  0  0  0  0  0
   11.3720   -2.8770   21.9340 N   0  0  0  0  0  0  0  0  0  0  0  0
    9.9780   -1.1100   22.9800 C   0  0  2  0  0  0  0  0  0  0  0  0
   10.5430   -0.2650   21.9660 O   0  0  0  0  0  0  0  0  0  0  0  0
    9.7030   -0.4060   24.3320 C   0  0  2  0  0  0  0  0  0  0  0  0
    8.8850    0.8700   24.1810 C   0  0  0  0  0  0  0  0  0  0  0  0
   10.9130   -0.0560   25.0190 O   0  0  0  0  0  0  0  0  0  0  0  0
   11.9590   -2.3070   28.3080 C   0  0  0  0  0  0  0  0  0  0  0  0
    9.9669   -2.2907   32.4963 H   0  0  0  0  0  0  0  0  0  0  0  0
    8.9986   -1.4541   31.2356 H   0  0  0  0  0  0  0  0  0  0  0  0
    9.1161   -3.2465   31.2356 H   0  0  0  0  0  0  0  0  0  0  0  0
    8.8270   -2.9790   28.8890 H   0  0  0  0  0  0  0  0  0  0  0  0
   11.6204   -4.6836   29.8825 H   0  0  0  0  0  0  0  0  0  0  0  0
    9.8288   -4.7196   29.5774 H   0  0  0  0  0  0  0  0  0  0  0  0
   10.4280   -7.8382   21.4722 H   0  0  0  0  0  0  0  0  0  0  0  0
    9.3444  -10.0494   21.0533 H   0  0  0  0  0  0  0  0  0  0  0  0
    8.2967  -11.3037   22.9365 H   0  0  0  0  0  0  0  0  0  0  0  0
    8.3294  -10.3544   25.2436 H   0  0  0  0  0  0  0  0  0  0  0  0
   13.0937   -2.8517   26.5987 H   0  0  0  0  0  0  0  0  0  0  0  0
   12.6779   -0.8022   25.8323 H   0  0  0  0  0  0  0  0  0  0  0  0
   12.6800   -0.8803   23.2932 H   0  0  0  0  0  0  0  0  0  0  0  0
   13.0059   -2.4712   24.0143 H   0  0  0  0  0  0  0  0  0  0  0  0
   10.5187   -2.9854   23.8739 H   0  0  0  0  0  0  0  0  0  0  0  0
   12.0620   -3.6230   22.0870 H   0  0  0  0  0  0  0  0  0  0  0  0
   10.5580   -3.3570   21.5170 H   0  0  0  0  0  0  0  0  0  0  0  0
   11.7420   -2.1710   21.2840 H   0  0  0  0  0  0  0  0  0  0  0  0
    8.9983   -1.4550   22.6179 H   0  0  0  0  0  0  0  0  0  0  0  0
    9.9580   -0.2820   21.1830 H   0  0  0  0  0  0  0  0  0  0  0  0
    9.1326   -1.1453   24.9134 H   0  0  0  0  0  0  0  0  0  0  0  0
    8.6326    1.2637   25.1766 H   0  0  0  0  0  0  0  0  0  0  0  0
    9.4719    1.6186   23.6287 H   0  0  0  0  0  0  0  0  0  0  0  0
    7.9597    0.6492   23.6287 H   0  0  0  0  0  0  0  0  0  0  0  0
   12.8908   -2.5480   28.8405 H   0  0  0  0  0  0  0  0  0  0  0  0
   11.8142   -1.2230   28.1894 H   0  0  0  0  0  0  0  0  0  0  0  0
  1  2  1  0
  2  3  2  0
  2  4  1  0
  4  5  1  6
  4  6  1  0
  6  7  1  0
  7  8  2  0
  8  9  1  0
  9 10  2  0
  9 11  1  0
 11 12  1  0
 12 13  2  0
 12 14  1  0
 14 15  2  0
 15 16  1  0
 16 17  2  0
 17 18  1  0
 18 19  2  0
 19 20  1  0
 20 21  2  0
 20 22  1  0
 22 23  1  0
 23 24  2  0
  8 25  1  0
 25 26  1  0
 26 27  1  0
 27 28  1  0
 28 29  1  0
 29 30  1  0
 29 31  1  0
 31 32  1  0
 31 33  1  0
 33 34  1  0
 33 35  1  0
 25 36  1  0
 36  4  1  0
 23  7  1  0
 35 27  1  0
 22 11  2  0
 19 14  1  0
  1 37  1  0
  1 38  1  0
  1 39  1  0
  5 40  1  0
  6 41  1  0
  6 42  1  0
 15 43  1  0
 16 44  1  0
 17 45  1  0
 18 46  1  0
 25 47  1  6
 27 48  1  1
 28 49  1  0
 28 50  1  0
 29 51  1  1
 30 52  1  0
 30 53  1  0
 30 54  1  0
 31 55  1  6
 32 56  1  0
 33 57  1  1
 34 58  1  0
 34 59  1  0
 34 60  1  0
 36 61  1  0
 36 62  1  0
M  CHG  1  30   1
M  END
>  <meeko>  (4) 
{"is_sidechain": [false], "free_energy": -10.528, "intermolecular_energy": -12.184, "internal_energy": -1.296}

$$$$
3arq_ligand
     RDKit          3D

 62 66  0  0  0  0  0  0  0  0999 V2000
    8.8950  -10.3570   20.6010 C   0  0  0  0  0  0  0  0  0  0  0  0
   10.3010  -10.0370   21.0460 C   0  0  0  0  0  0  0  0  0  0  0  0
   11.2530  -10.7180   20.6630 O   0  0  0  0  0  0  0  0  0  0  0  0
   10.4900   -8.8600   22.0290 C   0  0  2  0  0  0  0  0  0  0  0  0
    9.2670   -8.5800   22.7120 O   0  0  0  0  0  0  0  0  0  0  0  0
   10.9240   -7.5880   21.2650 C   0  0  0  0  0  0  0  0  0  0  0  0
   11.4330   -6.5110   22.1880 C   0  0  0  0  0  0  0  0  0  0  0  0
   11.8900   -6.7670   23.4210 C   0  0  0  0  0  0  0  0  0  0  0  0
   12.4150   -5.6380   24.2220 C   0  0  0  0  0  0  0  0  0  0  0  0
   13.2260   -5.8170   25.1240 O   0  0  0  0  0  0  0  0  0  0  0  0
   11.8640   -4.2960   23.9360 C   0  0  0  0  0  0  0  0  0  0  0  0
   11.8130   -3.2820   25.0240 C   0  0  0  0  0  0  0  0  0  0  0  0
   11.9150   -3.5960   26.2090 O   0  0  0  0  0  0  0  0  0  0  0  0
   11.5890   -1.8820   24.6250 C   0  0  0  0  0  0  0  0  0  0  0  0
   11.8180   -0.8470   25.5390 C   0  0  0  0  0  0  0  0  0  0  0  0
   11.5790    0.4760   25.1590 C   0  0  0  0  0  0  0  0  0  0  0  0
   11.1060    0.7620   23.8790 C   0  0  0  0  0  0  0  0  0  0  0  0
   10.8700   -0.2720   22.9720 C   0  0  0  0  0  0  0  0  0  0  0  0
   11.1180   -1.5980   23.3460 C   0  0  0  0  0  0  0  0  0  0  0  0
   10.8380   -2.6930   22.3980 C   0  0  0  0  0  0  0  0  0  0  0  0
   10.1370   -2.4850   21.4200 O   0  0  0  0  0  0  0  0  0  0  0  0
   11.3930   -4.0330   22.7100 C   0  0  0  0  0  0  0  0  0  0  0  0
   11.4090   -5.1120   21.6840 C   0  0  0  0  0  0  0  0  0  0  0  0
   11.3980   -4.8890   20.4830 O   0  0  0  0  0  0  0  0  0  0  0  0
   11.9290   -8.1390   24.0410 C   0  0  1  0  0  0  0  0  0  0  0  0
   10.9830   -8.1280   25.1240 O   0  0  0  0  0  0  0  0  0  0  0  0
   11.4970   -8.5740   26.3810 C   0  0  1  0  0  0  0  0  0  0  0  0
   11.5710   -7.4130   27.3610 C   0  0  0  0  0  0  0  0  0  0  0  0
   10.1610   -6.8360   27.4660 C   0  0  2  0  0  0  0  0  0  0  0  0
   10.1920   -5.6260   28.3310 N   0  0  0  0  0  0  0  0  0  0  0  0
    9.1990   -7.8810   28.0410 C   0  0  2  0  0  0  0  0  0  0  0  0
    9.5700   -8.0640   29.4160 O   0  0  0  0  0  0  0  0  0  0  0  0
    9.2910   -9.1580   27.1690 C   0  0  2  0  0  0  0  0  0  0  0  0
    8.5460  -10.3430   27.7710 C   0  0  0  0  0  0  0  0  0  0  0  0
   10.6470   -9.5720   26.9530 O   0  0  0  0  0  0  0  0  0  0  0  0
   11.5660   -9.2630   23.0560 C   0  0  0  0  0  0  0  0  0  0  0  0
    8.2552  -10.5026   21.4839 H   0  0  0  0  0  0  0  0  0  0  0  0
    8.5032   -9.5251   19.9974 H   0  0  0  0  0  0  0  0  0  0  0  0
    8.9018  -11.2766   19.9974 H   0  0  0  0  0  0  0  0  0  0  0  0
    9.1550   -7.6110   22.7560 H   0  0  0  0  0  0  0  0  0  0  0  0
   11.7238   -7.8554   20.5587 H   0  0  0  0  0  0  0  0  0  0  0  0
   10.0409   -7.1925   20.7418 H   0  0  0  0  0  0  0  0  0  0  0  0
   12.1842   -1.0740   26.5511 H   0  0  0  0  0  0  0  0  0  0  0  0
   11.7644    1.2937   25.8711 H   0  0  0  0  0  0  0  0  0  0  0  0
   10.9185    1.8048   23.5835 H   0  0  0  0  0  0  0  0  0  0  0  0
   10.4898   -0.0455   21.9650 H   0  0  0  0  0  0  0  0  0  0  0  0
   12.9559   -8.3487   24.3748 H   0  0  0  0  0  0  0  0  0  0  0  0
   12.4982   -8.9915   26.1987 H   0  0  0  0  0  0  0  0  0  0  0  0
   11.9091   -7.7689   28.3454 H   0  0  0  0  0  0  0  0  0  0  0  0
   12.2857   -6.6506   27.0175 H   0  0  0  0  0  0  0  0  0  0  0  0
    9.8038   -6.5577   26.4635 H   0  0  0  0  0  0  0  0  0  0  0  0
   11.1020   -5.1520   28.2650 H   0  0  0  0  0  0  0  0  0  0  0  0
    9.5100   -4.9270   27.9960 H   0  0  0  0  0  0  0  0  0  0  0  0
    9.9900   -5.8830   29.3070 H   0  0  0  0  0  0  0  0  0  0  0  0
    8.1414   -7.5792   28.0193 H   0  0  0  0  0  0  0  0  0  0  0  0
    8.8140   -7.8100   29.9800 H   0  0  0  0  0  0  0  0  0  0  0  0
    8.8221   -8.8723   26.2158 H   0  0  0  0  0  0  0  0  0  0  0  0
    8.5848  -10.2813   28.8686 H   0  0  0  0  0  0  0  0  0  0  0  0
    7.4973  -10.3236   27.4395 H   0  0  0  0  0  0  0  0  0  0  0  0
    9.0180  -11.2796   27.4395 H   0  0  0  0  0  0  0  0  0  0  0  0
   12.4756   -9.5544   22.5104 H   0  0  0  0  0  0  0  0  0  0  0  0
   11.1510  -10.0907   23.6499 H   0  0  0  0  0  0  0  0  0  0  0  0
  1  2  1  0
  2  3  2  0
  2  4  1  0
  4  5  1  1
  4  6  1  0
  6  7  1  0
  7  8  2  0
  8  9  1  0
  9 10  2  0
  9 11  1  0
 11 12  1  0
 12 13  2  0
 12 14  1  0
 14 15  2  0
 15 16  1  0
 16 17  2  0
 17 18  1  0
 18 19  2  0
 19 20  1  0
 20 21  2  0
 20 22  1  0
 22 23  1  0
 23 24  2  0
  8 25  1  0
 25 26  1  0
 26 27  1  0
 27 28  1  0
 28 29  1  0
 29 30  1  0
 29 31  1  0
 31 32  1  0
 31 33  1  0
 33 34  1  0
 33 35  1  0
 25 36  1  0
 36  4  1  0
 23  7  1  0
 35 27  1  0
 22 11  2  0
 19 14  1  0
  1 37  1  0
  1 38  1  0
  1 39  1  0
  5 40  1  0
  6 41  1  0
  6 42  1  0
 15 43  1  0
 16 44  1  0
 17 45  1  0
 18 46  1  0
 25 47  1  1
 27 48  1  6
 28 49  1  0
 28 50  1  0
 29 51  1  6
 30 52  1  0
 30 53  1  0
 30 54  1  0
 31 55  1  1
 32 56  1  0
 33 57  1  6
 34 58  1  0
 34 59  1  0
 34 60  1  0
 36 61  1  0
 36 62  1  0
M  CHG  1  30   1
M  END
>  <meeko>  (5) 
{"is_sidechain": [false], "free_energy": -10.312, "intermolecular_energy": -12.097, "internal_energy": -1.111}

$$$$
3arq_ligand
     RDKit          3D

 62 66  0  0  0  0  0  0  0  0999 V2000
    7.5860   -8.7290   31.7220 C   0  0  0  0  0  0  0  0  0  0  0  0
    9.0100   -8.2330   31.6500 C   0  0  0  0  0  0  0  0  0  0  0  0
    9.7340   -8.2530   32.6450 O   0  0  0  0  0  0  0  0  0  0  0  0
    9.5010   -7.6620   30.3010 C   0  0  2  0  0  0  0  0  0  0  0  0
    8.6810   -6.5640   29.8960 O   0  0  0  0  0  0  0  0  0  0  0  0
    9.4370   -8.7490   29.2030 C   0  0  0  0  0  0  0  0  0  0  0  0
   10.1970   -8.3560   27.9630 C   0  0  0  0  0  0  0  0  0  0  0  0
   11.1700   -7.4350   27.9680 C   0  0  0  0  0  0  0  0  0  0  0  0
   11.8860   -7.1650   26.7020 C   0  0  0  0  0  0  0  0  0  0  0  0
   13.0240   -6.7070   26.6950 O   0  0  0  0  0  0  0  0  0  0  0  0
   11.1450   -7.4040   25.4450 C   0  0  0  0  0  0  0  0  0  0  0  0
   11.4830   -6.6060   24.2360 C   0  0  0  0  0  0  0  0  0  0  0  0
   12.1230   -5.5570   24.3090 O   0  0  0  0  0  0  0  0  0  0  0  0
   10.9790   -7.1000   22.9440 C   0  0  0  0  0  0  0  0  0  0  0  0
   11.4890   -6.5830   21.7470 C   0  0  0  0  0  0  0  0  0  0  0  0
   10.9870   -7.0400   20.5270 C   0  0  0  0  0  0  0  0  0  0  0  0
    9.9760   -8.0010   20.5010 C   0  0  0  0  0  0  0  0  0  0  0  0
    9.4620   -8.5090   21.6950 C   0  0  0  0  0  0  0  0  0  0  0  0
    9.9700   -8.0600   22.9190 C   0  0  0  0  0  0  0  0  0  0  0  0
    9.4060   -8.5740   24.1810 C   0  0  0  0  0  0  0  0  0  0  0  0
    8.3310   -9.1530   24.1740 O   0  0  0  0  0  0  0  0  0  0  0  0
   10.1620   -8.3150   25.4320 C   0  0  0  0  0  0  0  0  0  0  0  0
    9.8260   -9.0330   26.6920 C   0  0  0  0  0  0  0  0  0  0  0  0
    9.2690  -10.1190   26.7110 O   0  0  0  0  0  0  0  0  0  0  0  0
   11.6030   -6.6690   29.1910 C   0  0  1  0  0  0  0  0  0  0  0  0
   11.2310   -5.2970   28.9690 O   0  0  0  0  0  0  0  0  0  0  0  0
   12.2890   -4.3500   29.1300 C   0  0  1  0  0  0  0  0  0  0  0  0
   12.6940   -3.7810   27.7780 C   0  0  0  0  0  0  0  0  0  0  0  0
   11.4370   -3.1690   27.1640 C   0  0  2  0  0  0  0  0  0  0  0  0
   11.7480   -2.6900   25.7900 N   0  0  0  0  0  0  0  0  0  0  0  0
   10.9270   -2.0140   28.0330 C   0  0  2  0  0  0  0  0  0  0  0  0
   11.8890   -0.9550   27.9060 O   0  0  0  0  0  0  0  0  0  0  0  0
   10.7290   -2.5410   29.4750 C   0  0  2  0  0  0  0  0  0  0  0  0
   10.4380   -1.4320   30.4780 C   0  0  0  0  0  0  0  0  0  0  0  0
   11.8750   -3.2580   29.9550 O   0  0  0  0  0  0  0  0  0  0  0  0
   10.9500   -7.1730   30.4890 C   0  0  0  0  0  0  0  0  0  0  0  0
    7.2868   -8.8332   32.7754 H   0  0  0  0  0  0  0  0  0  0  0  0
    6.9213   -8.0094   31.2215 H   0  0  0  0  0  0  0  0  0  0  0  0
    7.5122   -9.7058   31.2215 H   0  0  0  0  0  0  0  0  0  0  0  0
    7.9430   -6.9130   29.3620 H   0  0  0  0  0  0  0  0  0  0  0  0
    9.8673   -9.6797   29.6013 H   0  0  0  0  0  0  0  0  0  0  0  0
    8.3817   -8.8816   28.9225 H   0  0  0  0  0  0  0  0  0  0  0  0
   12.2814   -5.8204   21.7677 H   0  0  0  0  0  0  0  0  0  0  0  0
   11.3896   -6.6414   19.5841 H   0  0  0  0  0  0  0  0  0  0  0  0
    9.5833   -8.3589   19.5378 H   0  0  0  0  0  0  0  0  0  0  0  0
    8.6592   -9.2608   21.6739 H   0  0  0  0  0  0  0  0  0  0  0  0
   12.6866   -6.8002   29.3273 H   0  0  0  0  0  0  0  0  0  0  0  0
   13.1339   -4.8754   29.5992 H   0  0  0  0  0  0  0  0  0  0  0  0
   13.4667   -3.0090   27.9079 H   0  0  0  0  0  0  0  0  0  0  0  0
   13.1101   -4.5648   27.1279 H   0  0  0  0  0  0  0  0  0  0  0  0
   10.6461   -3.9318   27.1124 H   0  0  0  0  0  0  0  0  0  0  0  0
   11.2220   -1.8340   25.5730 H   0  0  0  0  0  0  0  0  0  0  0  0
   12.7390   -2.4110   25.7240 H   0  0  0  0  0  0  0  0  0  0  0  0
   11.5370   -3.4270   25.1030 H   0  0  0  0  0  0  0  0  0  0  0  0
    9.9494   -1.6153   27.7243 H   0  0  0  0  0  0  0  0  0  0  0  0
   12.7130   -1.3240   27.5330 H   0  0  0  0  0  0  0  0  0  0  0  0
    9.8605   -3.2122   29.4024 H   0  0  0  0  0  0  0  0  0  0  0  0
   10.5413   -1.8256   31.5000 H   0  0  0  0  0  0  0  0  0  0  0  0
   11.1500   -0.6069   30.3291 H   0  0  0  0  0  0  0  0  0  0  0  0
    9.4126   -1.0628   30.3291 H   0  0  0  0  0  0  0  0  0  0  0  0
   11.5508   -8.0077   30.8792 H   0  0  0  0  0  0  0  0  0  0  0  0
   10.9154   -6.3214   31.1845 H   0  0  0  0  0  0  0  0  0  0  0  0
  1  2  1  0
  2  3  2  0
  2  4  1  0
  4  5  1  6
  4  6  1  0
  6  7  1  0
  7  8  2  0
  8  9  1  0
  9 10  2  0
  9 11  1  0
 11 12  1  0
 12 13  2  0
 12 14  1  0
 14 15  2  0
 15 16  1  0
 16 17  2  0
 17 18  1  0
 18 19  2  0
 19 20  1  0
 20 21  2  0
 20 22  1  0
 22 23  1  0
 23 24  2  0
  8 25  1  0
 25 26  1  0
 26 27  1  0
 27 28  1  0
 28 29  1  0
 29 30  1  0
 29 31  1  0
 31 32  1  0
 31 33  1  0
 33 34  1  0
 33 35  1  0
 25 36  1  0
 36  4  1  0
 23  7  1  0
 35 27  1  0
 22 11  2  0
 19 14  1  0
  1 37  1  0
  1 38  1  0
  1 39  1  0
  5 40  1  0
  6 41  1  0
  6 42  1  0
 15 43  1  0
 16 44  1  0
 17 45  1  0
 18 46  1  0
 25 47  1  1
 27 48  1  1
 28 49  1  0
 28 50  1  0
 29 51  1  6
 30 52  1  0
 30 53  1  0
 30 54  1  0
 31 55  1  6
 32 56  1  0
 33 57  1  6
 34 58  1  0
 34 59  1  0
 34 60  1  0
 36 61  1  0
 36 62  1  0
M  CHG  1  30   1
M  END
>  <meeko>  (6) 
{"is_sidechain": [false], "free_energy": -10.146, "intermolecular_energy": -11.824, "internal_energy": -1.174}

$$$$
3arq_ligand
     RDKit          3D

 62 66  0  0  0  0  0  0  0  0999 V2000
    8.5590   -9.3500   22.0990 C   0  0  0  0  0  0  0  0  0  0  0  0
    9.5630   -8.3980   21.4980 C   0  0  0  0  0  0  0  0  0  0  0  0
    9.5240   -8.1170   20.2990 O   0  0  0  0  0  0  0  0  0  0  0  0
   10.6600   -7.8340   22.4280 C   0  0  2  0  0  0  0  0  0  0  0  0
   10.8300   -6.4330   22.2050 O   0  0  0  0  0  0  0  0  0  0  0  0
   12.0090   -8.5380   22.1560 C   0  0  0  0  0  0  0  0  0  0  0  0
   13.0240   -8.2680   23.2370 C   0  0  0  0  0  0  0  0  0  0  0  0
   12.6840   -7.8780   24.4720 C   0  0  0  0  0  0  0  0  0  0  0  0
   13.7610   -7.6920   25.4700 C   0  0  0  0  0  0  0  0  0  0  0  0
   13.5410   -7.7790   26.6730 O   0  0  0  0  0  0  0  0  0  0  0  0
   15.0990   -7.3270   24.9560 C   0  0  0  0  0  0  0  0  0  0  0  0
   16.0140   -6.5240   25.8120 C   0  0  0  0  0  0  0  0  0  0  0  0
   15.6050   -5.8940   26.7850 O   0  0  0  0  0  0  0  0  0  0  0  0
   17.4320   -6.4780   25.4170 C   0  0  0  0  0  0  0  0  0  0  0  0
   18.3950   -6.0000   26.3130 C   0  0  0  0  0  0  0  0  0  0  0  0
   19.7330   -5.9370   25.9210 C   0  0  0  0  0  0  0  0  0  0  0  0
   20.1080   -6.3410   24.6390 C   0  0  0  0  0  0  0  0  0  0  0  0
   19.1450   -6.8090   23.7430 C   0  0  0  0  0  0  0  0  0  0  0  0
   17.8040   -6.8830   24.1370 C   0  0  0  0  0  0  0  0  0  0  0  0
   16.7820   -7.3480   23.1800 C   0  0  0  0  0  0  0  0  0  0  0  0
   17.0430   -7.3930   21.9880 O   0  0  0  0  0  0  0  0  0  0  0  0
   15.4440   -7.7010   23.7170 C   0  0  0  0  0  0  0  0  0  0  0  0
   14.4580   -8.4440   22.8850 C   0  0  0  0  0  0  0  0  0  0  0  0
   14.7810   -9.1620   21.9520 O   0  0  0  0  0  0  0  0  0  0  0  0
   11.2670   -7.6410   24.9240 C   0  0  1  0  0  0  0  0  0  0  0  0
   11.1460   -6.2290   25.1750 O   0  0  0  0  0  0  0  0  0  0  0  0
    9.9360   -5.8310   25.8220 C   0  0  1  0  0  0  0  0  0  0  0  0
    9.6490   -6.7410   27.0070 C   0  0  0  0  0  0  0  0  0  0  0  0
   10.8680   -6.6650   27.9250 C   0  0  2  0  0  0  0  0  0  0  0  0
   10.6910   -7.6200   29.0520 N   0  0  0  0  0  0  0  0  0  0  0  0
   11.0470   -5.2380   28.4550 C   0  0  2  0  0  0  0  0  0  0  0  0
    9.9550   -4.9980   29.3570 O   0  0  0  0  0  0  0  0  0  0  0  0
   11.1120   -4.2750   27.2440 C   0  0  2  0  0  0  0  0  0  0  0  0
   11.0660   -2.8060   27.6500 C   0  0  0  0  0  0  0  0  0  0  0  0
   10.0390   -4.4930   26.3160 O   0  0  0  0  0  0  0  0  0  0  0  0
   10.2160   -8.0670   23.8850 C   0  0  0  0  0  0  0  0  0  0  0  0
    8.6148   -9.2971   23.1963 H   0  0  0  0  0  0  0  0  0  0  0  0
    7.5471   -9.0718   21.7695 H   0  0  0  0  0  0  0  0  0  0  0  0
    8.7830  -10.3753   21.7695 H   0  0  0  0  0  0  0  0  0  0  0  0
   11.6650   -6.2990   21.7180 H   0  0  0  0  0  0  0  0  0  0  0  0
   11.8361   -9.6227   22.0962 H   0  0  0  0  0  0  0  0  0  0  0  0
   12.4104   -8.1422   21.2114 H   0  0  0  0  0  0  0  0  0  0  0  0
   18.0987   -5.6755   27.3214 H   0  0  0  0  0  0  0  0  0  0  0  0
   20.4939   -5.5679   26.6244 H   0  0  0  0  0  0  0  0  0  0  0  0
   21.1637   -6.2907   24.3340 H   0  0  0  0  0  0  0  0  0  0  0  0
   19.4396   -7.1189   22.7295 H   0  0  0  0  0  0  0  0  0  0  0  0
   11.0734   -8.2513   25.8184 H   0  0  0  0  0  0  0  0  0  0  0  0
    9.1277   -5.8963   25.0788 H   0  0  0  0  0  0  0  0  0  0  0  0
    8.7507   -6.3967   27.5405 H   0  0  0  0  0  0  0  0  0  0  0  0
    9.4663   -7.7743   26.6770 H   0  0  0  0  0  0  0  0  0  0  0  0
   11.7710   -6.9352   27.3579 H   0  0  0  0  0  0  0  0  0  0  0  0
   10.2330   -7.1640   29.8510 H   0  0  0  0  0  0  0  0  0  0  0  0
   10.0460   -8.3790   28.7800 H   0  0  0  0  0  0  0  0  0  0  0  0
   11.6020   -8.0080   29.3320 H   0  0  0  0  0  0  0  0  0  0  0  0
   11.9809   -5.0791   29.0141 H   0  0  0  0  0  0  0  0  0  0  0  0
    9.2160   -4.6020   28.8550 H   0  0  0  0  0  0  0  0  0  0  0  0
   12.0791   -4.4988   26.7701 H   0  0  0  0  0  0  0  0  0  0  0  0
   11.0636   -2.7288   28.7473 H   0  0  0  0  0  0  0  0  0  0  0  0
   11.9483   -2.2866   27.2478 H   0  0  0  0  0  0  0  0  0  0  0  0
   10.1529   -2.3428   27.2478 H   0  0  0  0  0  0  0  0  0  0  0  0
   10.0095   -9.1392   24.0185 H   0  0  0  0  0  0  0  0  0  0  0  0
    9.3244   -7.4453   24.0541 H   0  0  0  0  0  0  0  0  0  0  0  0
  1  2  1  0
  2  3  2  0
  2  4  1  0
  4  5  1  1
  4  6  1  0
  6  7  1  0
  7  8  2  0
  8  9  1  0
  9 10  2  0
  9 11  1  0
 11 12  1  0
 12 13  2  0
 12 14  1  0
 14 15  2  0
 15 16  1  0
 16 17  2  0
 17 18  1  0
 18 19  2  0
 19 20  1  0
 20 21  2  0
 20 22  1  0
 22 23  1  0
 23 24  2  0
  8 25  1  0
 25 26  1  0
 26 27  1  0
 27 28  1  0
 28 29  1  0
 29 30  1  0
 29 31  1  0
 31 32  1  0
 31 33  1  0
 33 34  1  0
 33 35  1  0
 25 36  1  0
 36  4  1  0
 23  7  1  0
 35 27  1  0
 22 11  2  0
 19 14  1  0
  1 37  1  0
  1 38  1  0
  1 39  1  0
  5 40  1  0
  6 41  1  0
  6 42  1  0
 15 43  1  0
 16 44  1  0
 17 45  1  0
 18 46  1  0
 25 47  1  1
 27 48  1  6
 28 49  1  0
 28 50  1  0
 29 51  1  6
 30 52  1  0
 30 53  1  0
 30 54  1  0
 31 55  1  1
 32 56  1  0
 33 57  1  6
 34 58  1  0
 34 59  1  0
 34 60  1  0
 36 61  1  0
 36 62  1  0
M  CHG  1  30   1
M  END
>  <meeko>  (7) 
{"is_sidechain": [false], "free_energy": -10.14, "intermolecular_energy": -12.447, "internal_energy": -0.543}

$$$$
3arq_ligand
     RDKit          3D

 62 66  0  0  0  0  0  0  0  0999 V2000
    6.7770   -8.9160   31.6990 C   0  0  0  0  0  0  0  0  0  0  0  0
    8.2450   -8.8380   32.0370 C   0  0  0  0  0  0  0  0  0  0  0  0
    8.8400   -9.8190   32.4840 O   0  0  0  0  0  0  0  0  0  0  0  0
    8.9530   -7.4790   31.8430 C   0  0  2  0  0  0  0  0  0  0  0  0
   10.2700   -7.5200   32.3950 O   0  0  0  0  0  0  0  0  0  0  0  0
    8.1620   -6.3570   32.5530 C   0  0  0  0  0  0  0  0  0  0  0  0
    8.6150   -4.9820   32.1330 C   0  0  0  0  0  0  0  0  0  0  0  0
    9.2650   -4.7500   30.9850 C   0  0  0  0  0  0  0  0  0  0  0  0
    9.6170   -3.3530   30.6490 C   0  0  0  0  0  0  0  0  0  0  0  0
    9.7910   -2.9980   29.4880 O   0  0  0  0  0  0  0  0  0  0  0  0
    9.8220   -2.4200   31.7780 C   0  0  0  0  0  0  0  0  0  0  0  0
   10.7530   -1.2710   31.6140 C   0  0  0  0  0  0  0  0  0  0  0  0
   11.5860   -1.2340   30.7100 O   0  0  0  0  0  0  0  0  0  0  0  0
   10.6670   -0.1920   32.6120 C   0  0  0  0  0  0  0  0  0  0  0  0
   11.2880    1.0390   32.3710 C   0  0  0  0  0  0  0  0  0  0  0  0
   11.2220    2.0480   33.3330 C   0  0  0  0  0  0  0  0  0  0  0  0
   10.5480    1.8270   34.5350 C   0  0  0  0  0  0  0  0  0  0  0  0
    9.9370    0.5960   34.7790 C   0  0  0  0  0  0  0  0  0  0  0  0
    9.9930   -0.4140   33.8110 C   0  0  0  0  0  0  0  0  0  0  0  0
    9.3740   -1.7250   34.0810 C   0  0  0  0  0  0  0  0  0  0  0  0
    9.0740   -2.0300   35.2250 O   0  0  0  0  0  0  0  0  0  0  0  0
    9.1870   -2.6490   32.9350 C   0  0  0  0  0  0  0  0  0  0  0  0
    8.3210   -3.8540   33.0570 C   0  0  0  0  0  0  0  0  0  0  0  0
    7.4140   -3.9430   33.8690 O   0  0  0  0  0  0  0  0  0  0  0  0
    9.6400   -5.8220   29.9950 C   0  0  1  0  0  0  0  0  0  0  0  0
   11.0760   -5.9070   30.0050 O   0  0  0  0  0  0  0  0  0  0  0  0
   11.6400   -6.7420   28.9920 C   0  0  1  0  0  0  0  0  0  0  0  0
   11.5270   -6.0690   27.6320 C   0  0  0  0  0  0  0  0  0  0  0  0
   12.2320   -4.7190   27.7500 C   0  0  2  0  0  0  0  0  0  0  0  0
   12.0610   -3.9660   26.4790 N   0  0  0  0  0  0  0  0  0  0  0  0
   13.7200   -4.9200   28.0590 C   0  0  2  0  0  0  0  0  0  0  0  0
   14.3080   -5.4820   26.8760 O   0  0  0  0  0  0  0  0  0  0  0  0
   13.8380   -5.8030   29.3260 C   0  0  2  0  0  0  0  0  0  0  0  0
   15.2670   -6.2560   29.6020 C   0  0  0  0  0  0  0  0  0  0  0  0
   13.0260   -6.9830   29.2440 O   0  0  0  0  0  0  0  0  0  0  0  0
    9.0430   -7.1990   30.3300 C   0  0  0  0  0  0  0  0  0  0  0  0
    6.1881   -8.9473   32.6276 H   0  0  0  0  0  0  0  0  0  0  0  0
    6.4885   -8.0319   31.1115 H   0  0  0  0  0  0  0  0  0  0  0  0
    6.5838   -9.8257   31.1115 H   0  0  0  0  0  0  0  0  0  0  0  0
   10.2700   -8.1480   33.1420 H   0  0  0  0  0  0  0  0  0  0  0  0
    7.0952   -6.4676   32.3088 H   0  0  0  0  0  0  0  0  0  0  0  0
    8.3394   -6.4534   33.6343 H   0  0  0  0  0  0  0  0  0  0  0  0
   11.8260    1.2105   31.4270 H   0  0  0  0  0  0  0  0  0  0  0  0
   11.7021    3.0194   33.1435 H   0  0  0  0  0  0  0  0  0  0  0  0
   10.4982    2.6242   35.2913 H   0  0  0  0  0  0  0  0  0  0  0  0
    9.4126    0.4198   35.7298 H   0  0  0  0  0  0  0  0  0  0  0  0
    9.2361   -5.5502   29.0086 H   0  0  0  0  0  0  0  0  0  0  0  0
   11.0856   -7.6920   29.0014 H   0  0  0  0  0  0  0  0  0  0  0  0
   12.0147   -6.6853   26.8624 H   0  0  0  0  0  0  0  0  0  0  0  0
   10.4741   -5.9412   27.3402 H   0  0  0  0  0  0  0  0  0  0  0  0
   11.7865   -4.1443   28.5754 H   0  0  0  0  0  0  0  0  0  0  0  0
   12.4730   -3.0270   26.5510 H   0  0  0  0  0  0  0  0  0  0  0  0
   12.5860   -4.4230   25.7170 H   0  0  0  0  0  0  0  0  0  0  0  0
   11.0620   -3.9030   26.2370 H   0  0  0  0  0  0  0  0  0  0  0  0
   14.2622   -3.9915   28.2911 H   0  0  0  0  0  0  0  0  0  0  0  0
   15.2220   -5.7580   27.0820 H   0  0  0  0  0  0  0  0  0  0  0  0
   13.4899   -5.1553   30.1441 H   0  0  0  0  0  0  0  0  0  0  0  0
   15.4317   -6.3082   30.6883 H   0  0  0  0  0  0  0  0  0  0  0  0
   15.4288   -7.2495   29.1584 H   0  0  0  0  0  0  0  0  0  0  0  0
   15.9717   -5.5372   29.1584 H   0  0  0  0  0  0  0  0  0  0  0  0
    8.0296   -7.2517   29.9054 H   0  0  0  0  0  0  0  0  0  0  0  0
    9.7155   -7.9562   29.9005 H   0  0  0  0  0  0  0  0  0  0  0  0
  1  2  1  0
  2  3  2  0
  2  4  1  0
  4  5  1  1
  4  6  1  0
  6  7  1  0
  7  8  2  0
  8  9  1  0
  9 10  2  0
  9 11  1  0
 11 12  1  0
 12 13  2  0
 12 14  1  0
 14 15  2  0
 15 16  1  0
 16 17  2  0
 17 18  1  0
 18 19  2  0
 19 20  1  0
 20 21  2  0
 20 22  1  0
 22 23  1  0
 23 24  2  0
  8 25  1  0
 25 26  1  0
 26 27  1  0
 27 28  1  0
 28 29  1  0
 29 30  1  0
 29 31  1  0
 31 32  1  0
 31 33  1  0
 33 34  1  0
 33 35  1  0
 25 36  1  0
 36  4  1  0
 23  7  1  0
 35 27  1  0
 22 11  2  0
 19 14  1  0
  1 37  1  0
  1 38  1  0
  1 39  1  0
  5 40  1  0
  6 41  1  0
  6 42  1  0
 15 43  1  0
 16 44  1  0
 17 45  1  0
 18 46  1  0
 25 47  1  6
 27 48  1  6
 28 49  1  0
 28 50  1  0
 29 51  1  1
 30 52  1  0
 30 53  1  0
 30 54  1  0
 31 55  1  1
 32 56  1  0
 33 57  1  1
 34 58  1  0
 34 59  1  0
 34 60  1  0
 36 61  1  0
 36 62  1  0
M  CHG  1  30   1
M  END
>  <meeko>  (8) 
{"is_sidechain": [false], "free_energy": -10.068, "intermolecular_energy": -11.848, "internal_energy": -1.051}

$$$$
3arq_ligand
     RDKit          3D

 62 66  0  0  0  0  0  0  0  0999 V2000
   12.9060   -9.5350   22.3300 C   0  0  0  0  0  0  0  0  0  0  0  0
   13.9960   -8.4960   22.4280 C   0  0  0  0  0  0  0  0  0  0  0  0
   14.9220   -8.4770   21.6170 O   0  0  0  0  0  0  0  0  0  0  0  0
   13.9260   -7.4960   23.6040 C   0  0  2  0  0  0  0  0  0  0  0  0
   14.1820   -6.1670   23.1440 O   0  0  0  0  0  0  0  0  0  0  0  0
   14.9830   -7.8530   24.6750 C   0  0  0  0  0  0  0  0  0  0  0  0
   14.7510   -7.1260   25.9740 C   0  0  0  0  0  0  0  0  0  0  0  0
   13.5600   -6.6170   26.3190 C   0  0  0  0  0  0  0  0  0  0  0  0
   13.4330   -5.9680   27.6430 C   0  0  0  0  0  0  0  0  0  0  0  0
   12.3510   -5.8840   28.2130 O   0  0  0  0  0  0  0  0  0  0  0  0
   14.6550   -5.3610   28.2150 C   0  0  0  0  0  0  0  0  0  0  0  0
   14.5280   -4.1990   29.1360 C   0  0  0  0  0  0  0  0  0  0  0  0
   13.4980   -3.5300   29.1980 O   0  0  0  0  0  0  0  0  0  0  0  0
   15.7110   -3.8510   29.9410 C   0  0  0  0  0  0  0  0  0  0  0  0
   15.5880   -2.9740   31.0260 C   0  0  0  0  0  0  0  0  0  0  0  0
   16.7190   -2.6310   31.7690 C   0  0  0  0  0  0  0  0  0  0  0  0
   17.9670   -3.1520   31.4260 C   0  0  0  0  0  0  0  0  0  0  0  0
   18.0900   -4.0190   30.3390 C   0  0  0  0  0  0  0  0  0  0  0  0
   16.9560   -4.3730   29.5980 C   0  0  0  0  0  0  0  0  0  0  0  0
   17.0900   -5.2630   28.4310 C   0  0  0  0  0  0  0  0  0  0  0  0
   18.1910   -5.4590   27.9400 O   0  0  0  0  0  0  0  0  0  0  0  0
   15.8510   -5.8540   27.8670 C   0  0  0  0  0  0  0  0  0  0  0  0
   15.9130   -6.9750   26.8890 C   0  0  0  0  0  0  0  0  0  0  0  0
   16.8600   -7.7420   26.8150 O   0  0  0  0  0  0  0  0  0  0  0  0
   12.3290   -6.6860   25.4550 C   0  0  1  0  0  0  0  0  0  0  0  0
   12.0310   -5.3370   25.0550 O   0  0  0  0  0  0  0  0  0  0  0  0
   10.6400   -5.0350   24.9320 C   0  0  1  0  0  0  0  0  0  0  0  0
   10.1100   -4.4580   26.2360 C   0  0  0  0  0  0  0  0  0  0  0  0
   10.9590   -3.2280   26.5500 C   0  0  2  0  0  0  0  0  0  0  0  0
   10.5570   -2.6810   27.8730 N   0  0  0  0  0  0  0  0  0  0  0  0
   10.7870   -2.1680   25.4560 C   0  0  2  0  0  0  0  0  0  0  0  0
    9.4470   -1.6670   25.5820 O   0  0  0  0  0  0  0  0  0  0  0  0
   11.1110   -2.8220   24.0900 C   0  0  2  0  0  0  0  0  0  0  0  0
   10.7600   -1.9290   22.9060 C   0  0  0  0  0  0  0  0  0  0  0  0
   10.4180   -4.0650   23.9050 O   0  0  0  0  0  0  0  0  0  0  0  0
   12.5090   -7.5640   24.2050 C   0  0  0  0  0  0  0  0  0  0  0  0
   12.5924   -9.8339   23.3411 H   0  0  0  0  0  0  0  0  0  0  0  0
   12.0458   -9.1141   21.7887 H   0  0  0  0  0  0  0  0  0  0  0  0
   13.2852  -10.4143   21.7887 H   0  0  0  0  0  0  0  0  0  0  0  0
   13.7580   -6.0580   22.2720 H   0  0  0  0  0  0  0  0  0  0  0  0
   14.9430   -8.9359   24.8640 H   0  0  0  0  0  0  0  0  0  0  0  0
   15.9673   -7.5477   24.2904 H   0  0  0  0  0  0  0  0  0  0  0  0
   14.6051   -2.5575   31.2914 H   0  0  0  0  0  0  0  0  0  0  0  0
   16.6260   -1.9485   32.6267 H   0  0  0  0  0  0  0  0  0  0  0  0
   18.8560   -2.8789   32.0135 H   0  0  0  0  0  0  0  0  0  0  0  0
   19.0757   -4.4232   30.0651 H   0  0  0  0  0  0  0  0  0  0  0  0
   11.5152   -7.1479   26.0332 H   0  0  0  0  0  0  0  0  0  0  0  0
   10.1198   -5.9717   24.6829 H   0  0  0  0  0  0  0  0  0  0  0  0
    9.0543   -4.1707   26.1218 H   0  0  0  0  0  0  0  0  0  0  0  0
   10.1695   -5.1972   27.0484 H   0  0  0  0  0  0  0  0  0  0  0  0
   12.0203   -3.5152   26.5834 H   0  0  0  0  0  0  0  0  0  0  0  0
   10.4860   -1.6560   27.8400 H   0  0  0  0  0  0  0  0  0  0  0  0
    9.6060   -3.0000   28.1180 H   0  0  0  0  0  0  0  0  0  0  0  0
   11.2290   -2.9730   28.5960 H   0  0  0  0  0  0  0  0  0  0  0  0
   11.4717   -1.3118   25.5462 H   0  0  0  0  0  0  0  0  0  0  0  0
    8.8370   -2.2950   25.1490 H   0  0  0  0  0  0  0  0  0  0  0  0
   12.1978   -2.9894   24.1181 H   0  0  0  0  0  0  0  0  0  0  0  0
   10.3808   -0.9643   23.2741 H   0  0  0  0  0  0  0  0  0  0  0  0
   11.6588   -1.7605   22.2947 H   0  0  0  0  0  0  0  0  0  0  0  0
    9.9870   -2.4176   22.2947 H   0  0  0  0  0  0  0  0  0  0  0  0
   12.2971   -8.6079   24.4795 H   0  0  0  0  0  0  0  0  0  0  0  0
   11.8152   -7.1841   23.4406 H   0  0  0  0  0  0  0  0  0  0  0  0
  1  2  1  0
  2  3  2  0
  2  4  1  0
  4  5  1  6
  4  6  1  0
  6  7  1  0
  7  8  2  0
  8  9  1  0
  9 10  2  0
  9 11  1  0
 11 12  1  0
 12 13  2  0
 12 14  1  0
 14 15  2  0
 15 16  1  0
 16 17  2  0
 17 18  1  0
 18 19  2  0
 19 20  1  0
 20 21  2  0
 20 22  1  0
 22 23  1  0
 23 24  2  0
  8 25  1  0
 25 26  1  0
 26 27  1  0
 27 28  1  0
 28 29  1  0
 29 30  1  0
 29 31  1  0
 31 32  1  0
 31 33  1  0
 33 34  1  0
 33 35  1  0
 25 36  1  0
 36  4  1  0
 23  7  1  0
 35 27  1  0
 22 11  2  0
 19 14  1  0
  1 37  1  0
  1 38  1  0
  1 39  1  0
  5 40  1  0
  6 41  1  0
  6 42  1  0
 15 43  1  0
 16 44  1  0
 17 45  1  0
 18 46  1  0
 25 47  1  1
 27 48  1  6
 28 49  1  0
 28 50  1  0
 29 51  1  1
 30 52  1  0
 30 53  1  0
 30 54  1  0
 31 55  1  1
 32 56  1  0
 33 57  1  1
 34 58  1  0
 34 59  1  0
 34 60  1  0
 36 61  1  0
 36 62  1  0
M  CHG  1  30   1
M  END
>  <meeko>  (9) 
{"is_sidechain": [false], "free_energy": -10.029, "intermolecular_energy": -11.57, "internal_energy": -1.279}

$$$$
