4bkt_ligand
     RDKit          3D

 36 37  0  0  0  0  0  0  0  0999 V2000
   -5.4830   34.9100    3.7930 C   0  0  0  0  0  0  0  0  0  0  0  0
   -6.6190   34.6590    2.9410 N   0  0  0  0  0  0  0  0  0  0  0  0
   -6.4440   34.2650    1.6280 C   0  0  0  0  0  0  0  0  0  0  0  0
   -5.3410   34.0300    1.1420 O   0  0  0  0  0  0  0  0  0  0  0  0
   -7.7590   34.1400    0.8320 C   0  0  2  0  0  0  0  0  0  0  0  0
   -8.7330   33.2140    1.5590 C   0  0  0  0  0  0  0  0  0  0  0  0
   -8.3720   31.8340    1.0100 C   0  0  1  0  0  0  0  0  0  0  0  0
   -9.4610   30.9440    1.1800 O   0  0  0  0  0  0  0  0  0  0  0  0
   -8.0610   32.1300   -0.4560 C   0  0  0  0  0  0  0  0  0  0  0  0
   -7.5680   33.4950   -0.4710 N   0  0  0  0  0  0  0  0  0  0  0  0
   -7.1020   34.0600   -1.6360 C   0  0  0  0  0  0  0  0  0  0  0  0
   -6.2960   34.9940   -1.6180 O   0  0  0  0  0  0  0  0  0  0  0  0
   -7.5910   33.4990   -2.9600 C   0  0  0  0  0  0  0  0  0  0  0  0
   -8.5840   34.4210   -3.5510 C   0  0  0  0  0  0  0  0  0  0  0  0
   -8.5650   35.7410   -3.9310 C   0  0  0  0  0  0  0  0  0  0  0  0
   -9.8630   35.9770   -4.4370 C   0  0  0  0  0  0  0  0  0  0  0  0
  -10.4180   37.2280   -4.9980 C   0  0  0  0  0  0  0  0  0  0  0  0
  -10.6200   34.8740   -4.3660 N   0  0  0  0  0  0  0  0  0  0  0  0
   -9.8170   33.9040   -3.7970 O   0  0  0  0  0  0  0  0  0  0  0  0
   -5.7925   34.8416    4.8464 H   0  0  0  0  0  0  0  0  0  0  0  0
   -4.7012   34.1629    3.5913 H   0  0  0  0  0  0  0  0  0  0  0  0
   -5.0888   35.9169    3.5913 H   0  0  0  0  0  0  0  0  0  0  0  0
   -7.5130   35.0480    3.2190 H   0  0  0  0  0  0  0  0  0  0  0  0
   -8.1279   35.1704    0.7216 H   0  0  0  0  0  0  0  0  0  0  0  0
   -8.5821   33.2580    2.6477 H   0  0  0  0  0  0  0  0  0  0  0  0
   -9.7876   33.4820    1.3975 H   0  0  0  0  0  0  0  0  0  0  0  0
   -7.5287   31.3410    1.5157 H   0  0  0  0  0  0  0  0  0  0  0  0
   -9.1000   30.0960    1.4890 H   0  0  0  0  0  0  0  0  0  0  0  0
   -7.2941   31.4385   -0.8351 H   0  0  0  0  0  0  0  0  0  0  0  0
   -8.9455   32.0047   -1.0979 H   0  0  0  0  0  0  0  0  0  0  0  0
   -6.7396   33.3878   -3.6476 H   0  0  0  0  0  0  0  0  0  0  0  0
   -8.0579   32.5174   -2.7915 H   0  0  0  0  0  0  0  0  0  0  0  0
   -7.7293   36.4525   -3.8580 H   0  0  0  0  0  0  0  0  0  0  0  0
  -10.7151   37.8977   -4.1775 H   0  0  0  0  0  0  0  0  0  0  0  0
   -9.6548   37.7226   -5.6169 H   0  0  0  0  0  0  0  0  0  0  0  0
  -11.2968   36.9941   -5.6169 H   0  0  0  0  0  0  0  0  0  0  0  0
  1  2  1  0
  2  3  1  0
  3  4  2  0
  3  5  1  0
  5  6  1  0
  6  7  1  0
  7  8  1  0
  7  9  1  0
  9 10  1  0
 10 11  1  0
 11 12  2  0
 11 13  1  0
 13 14  1  0
 14 15  2  0
 15 16  1  0
 16 17  1  0
 16 18  2  0
 18 19  1  0
 10  5  1  0
 19 14  1  0
  1 20  1  0
  1 21  1  0
  1 22  1  0
  2 23  1  0
  5 24  1  6
  6 25  1  0
  6 26  1  0
  7 27  1  1
  8 28  1  0
  9 29  1  0
  9 30  1  0
 13 31  1  0
 13 32  1  0
 15 33  1  0
 17 34  1  0
 17 35  1  0
 17 36  1  0
M  END
>  <meeko>  (1) 
{"is_sidechain": [false], "free_energy": -6.453, "intermolecular_energy": -8.15, "internal_energy": -0.314}

$$$$
4bkt_ligand
     RDKit          3D

 36 37  0  0  0  0  0  0  0  0999 V2000
   -2.8610   34.9520   -1.1530 C   0  0  0  0  0  0  0  0  0  0  0  0
   -4.2860   35.1690   -1.1660 N   0  0  0  0  0  0  0  0  0  0  0  0
   -5.0830   34.6870   -0.1460 C   0  0  0  0  0  0  0  0  0  0  0  0
   -4.6300   34.1300    0.8500 O   0  0  0  0  0  0  0  0  0  0  0  0
   -6.5920   34.9180   -0.3690 C   0  0  2  0  0  0  0  0  0  0  0  0
   -7.3500   34.7840    0.9510 C   0  0  0  0  0  0  0  0  0  0  0  0
   -7.6760   33.2920    1.0110 C   0  0  1  0  0  0  0  0  0  0  0  0
   -8.7720   33.0710    1.8810 O   0  0  0  0  0  0  0  0  0  0  0  0
   -7.9900   32.9600   -0.4470 C   0  0  0  0  0  0  0  0  0  0  0  0
   -7.1960   33.8930   -1.2270 N   0  0  0  0  0  0  0  0  0  0  0  0
   -7.1680   33.8130   -2.6000 C   0  0  0  0  0  0  0  0  0  0  0  0
   -6.1660   34.1410   -3.2410 O   0  0  0  0  0  0  0  0  0  0  0  0
   -8.3990   33.2930   -3.3210 C   0  0  0  0  0  0  0  0  0  0  0  0
   -9.1650   34.4300   -3.8740 C   0  0  0  0  0  0  0  0  0  0  0  0
   -8.9000   35.7630   -4.0750 C   0  0  0  0  0  0  0  0  0  0  0  0
  -10.0820   36.2700   -4.6590 C   0  0  0  0  0  0  0  0  0  0  0  0
  -10.3710   37.6520   -5.0990 C   0  0  0  0  0  0  0  0  0  0  0  0
  -11.0050   35.3090   -4.8000 N   0  0  0  0  0  0  0  0  0  0  0  0
  -10.4300   34.1590   -4.2940 O   0  0  0  0  0  0  0  0  0  0  0  0
   -2.5078   34.8982   -0.1126 H   0  0  0  0  0  0  0  0  0  0  0  0
   -2.6291   34.0082   -1.6682 H   0  0  0  0  0  0  0  0  0  0  0  0
   -2.3587   35.7840   -1.6682 H   0  0  0  0  0  0  0  0  0  0  0  0
   -4.7180   35.4120   -2.0500 H   0  0  0  0  0  0  0  0  0  0  0  0
   -6.6671   35.9179   -0.8213 H   0  0  0  0  0  0  0  0  0  0  0  0
   -6.7201   35.0854    1.8009 H   0  0  0  0  0  0  0  0  0  0  0  0
   -8.2423   35.4250    1.0052 H   0  0  0  0  0  0  0  0  0  0  0  0
   -6.8706   32.6579    1.4100 H   0  0  0  0  0  0  0  0  0  0  0  0
   -8.5740   32.2750    2.4050 H   0  0  0  0  0  0  0  0  0  0  0  0
   -7.7040   31.9231   -0.6772 H   0  0  0  0  0  0  0  0  0  0  0  0
   -9.0640   33.0480   -0.6676 H   0  0  0  0  0  0  0  0  0  0  0  0
   -8.0899   32.6266   -4.1398 H   0  0  0  0  0  0  0  0  0  0  0  0
   -9.0302   32.7363   -2.6127 H   0  0  0  0  0  0  0  0  0  0  0  0
   -7.9768   36.3111   -3.8355 H   0  0  0  0  0  0  0  0  0  0  0  0
  -10.5058   38.2967   -4.2180 H   0  0  0  0  0  0  0  0  0  0  0  0
   -9.5319   38.0275   -5.7032 H   0  0  0  0  0  0  0  0  0  0  0  0
  -11.2902   37.6598   -5.7032 H   0  0  0  0  0  0  0  0  0  0  0  0
  1  2  1  0
  2  3  1  0
  3  4  2  0
  3  5  1  0
  5  6  1  0
  6  7  1  0
  7  8  1  0
  7  9  1  0
  9 10  1  0
 10 11  1  0
 11 12  2  0
 11 13  1  0
 13 14  1  0
 14 15  2  0
 15 16  1  0
 16 17  1  0
 16 18  2  0
 18 19  1  0
 10  5  1  0
 19 14  1  0
  1 20  1  0
  1 21  1  0
  1 22  1  0
  2 23  1  0
  5 24  1  6
  6 25  1  0
  6 26  1  0
  7 27  1  1
  8 28  1  0
  9 29  1  0
  9 30  1  0
 13 31  1  0
 13 32  1  0
 15 33  1  0
 17 34  1  0
 17 35  1  0
 17 36  1  0
M  END
>  <meeko>  (2) 
{"is_sidechain": [false], "free_energy": -5.586, "intermolecular_energy": -6.904, "internal_energy": -0.465}

$$$$
4bkt_ligand
     RDKit          3D

 36 37  0  0  0  0  0  0  0  0999 V2000
   -7.3590   36.1410   -2.7520 C   0  0  0  0  0  0  0  0  0  0  0  0
   -6.9360   35.2600   -1.6920 N   0  0  0  0  0  0  0  0  0  0  0  0
   -7.4700   33.9920   -1.5730 C   0  0  0  0  0  0  0  0  0  0  0  0
   -8.2550   33.5180   -2.3890 O   0  0  0  0  0  0  0  0  0  0  0  0
   -6.9840   33.2230   -0.3260 C   0  0  2  0  0  0  0  0  0  0  0  0
   -7.7210   31.8900   -0.2050 C   0  0  0  0  0  0  0  0  0  0  0  0
   -8.9600   32.2540    0.6110 C   0  0  1  0  0  0  0  0  0  0  0  0
   -9.4890   31.0960    1.2330 O   0  0  0  0  0  0  0  0  0  0  0  0
   -8.4150   33.2760    1.6080 C   0  0  0  0  0  0  0  0  0  0  0  0
   -7.3070   33.9190    0.9230 N   0  0  0  0  0  0  0  0  0  0  0  0
   -6.6380   34.9700    1.5070 C   0  0  0  0  0  0  0  0  0  0  0  0
   -7.0120   36.1350    1.3490 O   0  0  0  0  0  0  0  0  0  0  0  0
   -5.4250   34.6670    2.3690 C   0  0  0  0  0  0  0  0  0  0  0  0
   -5.7220   35.0080    3.7770 C   0  0  0  0  0  0  0  0  0  0  0  0
   -5.4650   36.0920    4.5800 C   0  0  0  0  0  0  0  0  0  0  0  0
   -6.0490   35.7530    5.8210 C   0  0  0  0  0  0  0  0  0  0  0  0
   -6.0900   36.5510    7.0660 C   0  0  0  0  0  0  0  0  0  0  0  0
   -6.6190   34.5430    5.7750 N   0  0  0  0  0  0  0  0  0  0  0  0
   -6.4000   34.0730    4.4940 O   0  0  0  0  0  0  0  0  0  0  0  0
   -7.7966   37.0524   -2.3186 H   0  0  0  0  0  0  0  0  0  0  0  0
   -6.4919   36.4101   -3.3731 H   0  0  0  0  0  0  0  0  0  0  0  0
   -8.1112   35.6326   -3.3731 H   0  0  0  0  0  0  0  0  0  0  0  0
   -6.4780   35.6750   -0.8880 H   0  0  0  0  0  0  0  0  0  0  0  0
   -5.8972   33.1155   -0.4578 H   0  0  0  0  0  0  0  0  0  0  0  0
   -8.0003   31.5015   -1.1955 H   0  0  0  0  0  0  0  0  0  0  0  0
   -7.1132   31.0997    0.2597 H   0  0  0  0  0  0  0  0  0  0  0  0
   -9.7965   32.6613    0.0242 H   0  0  0  0  0  0  0  0  0  0  0  0
  -10.0060   31.3880    2.0040 H   0  0  0  0  0  0  0  0  0  0  0  0
   -9.1890   34.0134    1.8672 H   0  0  0  0  0  0  0  0  0  0  0  0
   -8.0993   32.8047    2.5504 H   0  0  0  0  0  0  0  0  0  0  0  0
   -5.1807   33.5970    2.2947 H   0  0  0  0  0  0  0  0  0  0  0  0
   -4.5695   35.2640    2.0202 H   0  0  0  0  0  0  0  0  0  0  0  0
   -4.9268   37.0145    4.3168 H   0  0  0  0  0  0  0  0  0  0  0  0
   -6.0554   35.8771    7.9347 H   0  0  0  0  0  0  0  0  0  0  0  0
   -5.2256   37.2307    7.0945 H   0  0  0  0  0  0  0  0  0  0  0  0
   -7.0195   37.1385    7.0945 H   0  0  0  0  0  0  0  0  0  0  0  0
  1  2  1  0
  2  3  1  0
  3  4  2  0
  3  5  1  0
  5  6  1  0
  6  7  1  0
  7  8  1  0
  7  9  1  0
  9 10  1  0
 10 11  1  0
 11 12  2  0
 11 13  1  0
 13 14  1  0
 14 15  2  0
 15 16  1  0
 16 17  1  0
 16 18  2  0
 18 19  1  0
 10  5  1  0
 19 14  1  0
  1 20  1  0
  1 21  1  0
  1 22  1  0
  2 23  1  0
  5 24  1  6
  6 25  1  0
  6 26  1  0
  7 27  1  6
  8 28  1  0
  9 29  1  0
  9 30  1  0
 13 31  1  0
 13 32  1  0
 15 33  1  0
 17 34  1  0
 17 35  1  0
 17 36  1  0
M  END
>  <meeko>  (3) 
{"is_sidechain": [false], "free_energy": -5.521, "intermolecular_energy": -6.692, "internal_energy": -0.596}

$$$$
4bkt_ligand
     RDKit          3D

 36 37  0  0  0  0  0  0  0  0999 V2000
   -7.9310   37.7260    1.6510 C   0  0  0  0  0  0  0  0  0  0  0  0
   -7.3710   36.4020    1.7660 N   0  0  0  0  0  0  0  0  0  0  0  0
   -6.9480   35.7150    0.6440 C   0  0  0  0  0  0  0  0  0  0  0  0
   -6.9450   36.2090   -0.4800 O   0  0  0  0  0  0  0  0  0  0  0  0
   -6.4730   34.2760    0.9340 C   0  0  2  0  0  0  0  0  0  0  0  0
   -7.2590   33.2780    0.0860 C   0  0  0  0  0  0  0  0  0  0  0  0
   -8.4700   32.9600    0.9620 C   0  0  1  0  0  0  0  0  0  0  0  0
   -9.0340   31.7180    0.5790 O   0  0  0  0  0  0  0  0  0  0  0  0
   -7.8700   32.9400    2.3670 C   0  0  0  0  0  0  0  0  0  0  0  0
   -6.7490   33.8610    2.3130 N   0  0  0  0  0  0  0  0  0  0  0  0
   -6.0290   34.1580    3.4480 C   0  0  0  0  0  0  0  0  0  0  0  0
   -5.0110   34.8530    3.3980 O   0  0  0  0  0  0  0  0  0  0  0  0
   -6.5220   33.6210    4.7800 C   0  0  0  0  0  0  0  0  0  0  0  0
   -6.1770   34.5740    5.8560 C   0  0  0  0  0  0  0  0  0  0  0  0
   -5.2880   34.5630    6.9020 C   0  0  0  0  0  0  0  0  0  0  0  0
   -5.4750   35.8140    7.5320 C   0  0  0  0  0  0  0  0  0  0  0  0
   -4.7780   36.3600    8.7170 C   0  0  0  0  0  0  0  0  0  0  0  0
   -6.4170   36.5340    6.9110 N   0  0  0  0  0  0  0  0  0  0  0  0
   -6.8640   35.7470    5.8670 O   0  0  0  0  0  0  0  0  0  0  0  0
   -8.1056   38.1388    2.6556 H   0  0  0  0  0  0  0  0  0  0  0  0
   -7.2301   38.3744    1.1049 H   0  0  0  0  0  0  0  0  0  0  0  0
   -8.8845   37.6747    1.1049 H   0  0  0  0  0  0  0  0  0  0  0  0
   -7.5600   35.8820    2.6150 H   0  0  0  0  0  0  0  0  0  0  0  0
   -5.3934   34.2800    0.7232 H   0  0  0  0  0  0  0  0  0  0  0  0
   -7.5690   33.7284   -0.8685 H   0  0  0  0  0  0  0  0  0  0  0  0
   -6.6751   32.3863   -0.1860 H   0  0  0  0  0  0  0  0  0  0  0  0
   -9.2994   33.6782    0.8819 H   0  0  0  0  0  0  0  0  0  0  0  0
   -9.9000   31.6430    1.0150 H   0  0  0  0  0  0  0  0  0  0  0  0
   -8.6104   33.2760    3.1079 H   0  0  0  0  0  0  0  0  0  0  0  0
   -7.5583   31.9288    2.6676 H   0  0  0  0  0  0  0  0  0  0  0  0
   -7.6137   33.4917    4.7414 H   0  0  0  0  0  0  0  0  0  0  0  0
   -6.0438   32.6514    4.9830 H   0  0  0  0  0  0  0  0  0  0  0  0
   -4.5890   33.7623    7.1853 H   0  0  0  0  0  0  0  0  0  0  0  0
   -5.2593   35.9830    9.6315 H   0  0  0  0  0  0  0  0  0  0  0  0
   -3.7244   36.0445    8.7004 H   0  0  0  0  0  0  0  0  0  0  0  0
   -4.8321   37.4585    8.7004 H   0  0  0  0  0  0  0  0  0  0  0  0
  1  2  1  0
  2  3  1  0
  3  4  2  0
  3  5  1  0
  5  6  1  0
  6  7  1  0
  7  8  1  0
  7  9  1  0
  9 10  1  0
 10 11  1  0
 11 12  2  0
 11 13  1  0
 13 14  1  0
 14 15  2  0
 15 16  1  0
 16 17  1  0
 16 18  2  0
 18 19  1  0
 10  5  1  0
 19 14  1  0
  1 20  1  0
  1 21  1  0
  1 22  1  0
  2 23  1  0
  5 24  1  6
  6 25  1  0
  6 26  1  0
  7 27  1  1
  8 28  1  0
  9 29  1  0
  9 30  1  0
 13 31  1  0
 13 32  1  0
 15 33  1  0
 17 34  1  0
 17 35  1  0
 17 36  1  0
M  END
>  <meeko>  (4) 
{"is_sidechain": [false], "free_energy": -5.512, "intermolecular_energy": -6.834, "internal_energy": -0.442}

$$$$
4bkt_ligand
     RDKit          3D

 36 37  0  0  0  0  0  0  0  0999 V2000
   -5.3020   34.9110    3.8070 C   0  0  0  0  0  0  0  0  0  0  0  0
   -6.4650   34.7300    2.9740 N   0  0  0  0  0  0  0  0  0  0  0  0
   -6.3370   34.2970    1.6680 C   0  0  0  0  0  0  0  0  0  0  0  0
   -5.2620   33.9680    1.1760 O   0  0  0  0  0  0  0  0  0  0  0  0
   -7.6680   34.2570    0.8890 C   0  0  2  0  0  0  0  0  0  0  0  0
   -8.6370   33.2750    1.5460 C   0  0  0  0  0  0  0  0  0  0  0  0
   -8.3000   31.9500    0.8630 C   0  0  1  0  0  0  0  0  0  0  0  0
   -9.3940   31.0570    0.9710 O   0  0  0  0  0  0  0  0  0  0  0  0
   -8.0130   32.3790   -0.5750 C   0  0  0  0  0  0  0  0  0  0  0  0
   -7.5070   33.7360   -0.4710 N   0  0  0  0  0  0  0  0  0  0  0  0
   -7.0580   34.4040   -1.5880 C   0  0  0  0  0  0  0  0  0  0  0  0
   -5.9790   35.0030   -1.5850 O   0  0  0  0  0  0  0  0  0  0  0  0
   -7.9150   34.3800   -2.8410 C   0  0  0  0  0  0  0  0  0  0  0  0
   -7.1270   33.8370   -3.9680 C   0  0  0  0  0  0  0  0  0  0  0  0
   -6.3870   32.6970   -4.1640 C   0  0  0  0  0  0  0  0  0  0  0  0
   -5.9120   32.8120   -5.4900 C   0  0  0  0  0  0  0  0  0  0  0  0
   -5.0640   31.8680   -6.2490 C   0  0  0  0  0  0  0  0  0  0  0  0
   -6.3340   33.9480   -6.0590 N   0  0  0  0  0  0  0  0  0  0  0  0
   -7.0860   34.5950   -5.0960 O   0  0  0  0  0  0  0  0  0  0  0  0
   -5.5983   34.8649    4.8653 H   0  0  0  0  0  0  0  0  0  0  0  0
   -4.5722   34.1156    3.5956 H   0  0  0  0  0  0  0  0  0  0  0  0
   -4.8484   35.8906    3.5956 H   0  0  0  0  0  0  0  0  0  0  0  0
   -7.3220   35.1930    3.2530 H   0  0  0  0  0  0  0  0  0  0  0  0
   -8.0297   35.2958    0.8818 H   0  0  0  0  0  0  0  0  0  0  0  0
   -8.4646   33.2156    2.6308 H   0  0  0  0  0  0  0  0  0  0  0  0
   -9.6919   33.5653    1.4320 H   0  0  0  0  0  0  0  0  0  0  0  0
   -7.4519   31.4051    1.3034 H   0  0  0  0  0  0  0  0  0  0  0  0
  -10.1500   31.5600    1.3180 H   0  0  0  0  0  0  0  0  0  0  0  0
   -7.2599   31.7200   -1.0316 H   0  0  0  0  0  0  0  0  0  0  0  0
   -8.9099   32.3210   -1.2092 H   0  0  0  0  0  0  0  0  0  0  0  0
   -8.7963   33.7443   -2.6701 H   0  0  0  0  0  0  0  0  0  0  0  0
   -8.2410   35.4027   -3.0813 H   0  0  0  0  0  0  0  0  0  0  0  0
   -6.2052   31.8796   -3.4507 H   0  0  0  0  0  0  0  0  0  0  0  0
   -4.4980   31.2379   -5.5472 H   0  0  0  0  0  0  0  0  0  0  0  0
   -5.6997   31.2317   -6.8822 H   0  0  0  0  0  0  0  0  0  0  0  0
   -4.3634   32.4321   -6.8822 H   0  0  0  0  0  0  0  0  0  0  0  0
  1  2  1  0
  2  3  1  0
  3  4  2  0
  3  5  1  0
  5  6  1  0
  6  7  1  0
  7  8  1  0
  7  9  1  0
  9 10  1  0
 10 11  1  0
 11 12  2  0
 11 13  1  0
 13 14  1  0
 14 15  2  0
 15 16  1  0
 16 17  1  0
 16 18  2  0
 18 19  1  0
 10  5  1  0
 19 14  1  0
  1 20  1  0
  1 21  1  0
  1 22  1  0
  2 23  1  0
  5 24  1  6
  6 25  1  0
  6 26  1  0
  7 27  1  1
  8 28  1  0
  9 29  1  0
  9 30  1  0
 13 31  1  0
 13 32  1  0
 15 33  1  0
 17 34  1  0
 17 35  1  0
 17 36  1  0
M  END
>  <meeko>  (5) 
{"is_sidechain": [false], "free_energy": -5.4, "intermolecular_energy": -6.725, "internal_energy": -0.409}

$$$$
4bkt_ligand
     RDKit          3D

 36 37  0  0  0  0  0  0  0  0999 V2000
  -10.3840   35.4640   -4.4830 C   0  0  0  0  0  0  0  0  0  0  0  0
   -9.6320   34.3610   -3.9370 N   0  0  0  0  0  0  0  0  0  0  0  0
   -8.2710   34.4700   -3.7270 C   0  0  0  0  0  0  0  0  0  0  0  0
   -7.6470   35.5120   -3.9100 O   0  0  0  0  0  0  0  0  0  0  0  0
   -7.6070   33.1660   -3.2360 C   0  0  2  0  0  0  0  0  0  0  0  0
   -7.9380   32.9260   -1.7640 C   0  0  0  0  0  0  0  0  0  0  0  0
   -6.8180   33.6660   -1.0340 C   0  0  1  0  0  0  0  0  0  0  0  0
   -6.6720   33.1540    0.2780 O   0  0  0  0  0  0  0  0  0  0  0  0
   -5.6050   33.3950   -1.9230 C   0  0  0  0  0  0  0  0  0  0  0  0
   -6.1430   33.2370   -3.2620 N   0  0  0  0  0  0  0  0  0  0  0  0
   -5.3050   33.0700   -4.3400 C   0  0  0  0  0  0  0  0  0  0  0  0
   -5.5180   33.6420   -5.4120 O   0  0  0  0  0  0  0  0  0  0  0  0
   -4.0920   32.1710   -4.1820 C   0  0  0  0  0  0  0  0  0  0  0  0
   -4.2780   30.9430   -4.9830 C   0  0  0  0  0  0  0  0  0  0  0  0
   -5.0720   30.6010   -6.0510 C   0  0  0  0  0  0  0  0  0  0  0  0
   -4.7270   29.2590   -6.3260 C   0  0  0  0  0  0  0  0  0  0  0  0
   -5.2620   28.3700   -7.3810 C   0  0  0  0  0  0  0  0  0  0  0  0
   -3.7890   28.8150   -5.4800 N   0  0  0  0  0  0  0  0  0  0  0  0
   -3.5190   29.8710   -4.6310 O   0  0  0  0  0  0  0  0  0  0  0  0
  -10.7963   36.0688   -3.6619 H   0  0  0  0  0  0  0  0  0  0  0  0
   -9.7225   36.0882   -5.1018 H   0  0  0  0  0  0  0  0  0  0  0  0
  -11.2067   35.0763   -5.1018 H   0  0  0  0  0  0  0  0  0  0  0  0
  -10.0460   33.4380   -3.9860 H   0  0  0  0  0  0  0  0  0  0  0  0
   -7.9829   32.3794   -3.9067 H   0  0  0  0  0  0  0  0  0  0  0  0
   -8.9219   33.3452   -1.5067 H   0  0  0  0  0  0  0  0  0  0  0  0
   -7.9956   31.8594   -1.5012 H   0  0  0  0  0  0  0  0  0  0  0  0
   -6.9906   34.7433   -0.8941 H   0  0  0  0  0  0  0  0  0  0  0  0
   -6.4160   33.8950    0.8550 H   0  0  0  0  0  0  0  0  0  0  0  0
   -4.9031   34.2412   -1.8865 H   0  0  0  0  0  0  0  0  0  0  0  0
   -5.0462   32.5055   -1.5965 H   0  0  0  0  0  0  0  0  0  0  0  0
   -3.1942   32.7028   -4.5301 H   0  0  0  0  0  0  0  0  0  0  0  0
   -3.9723   31.9015   -3.1223 H   0  0  0  0  0  0  0  0  0  0  0  0
   -5.8087   31.2293   -6.5731 H   0  0  0  0  0  0  0  0  0  0  0  0
   -5.7758   27.5162   -6.9152 H   0  0  0  0  0  0  0  0  0  0  0  0
   -5.9735   28.9296   -8.0060 H   0  0  0  0  0  0  0  0  0  0  0  0
   -4.4344   28.0034   -8.0060 H   0  0  0  0  0  0  0  0  0  0  0  0
  1  2  1  0
  2  3  1  0
  3  4  2  0
  3  5  1  0
  5  6  1  0
  6  7  1  0
  7  8  1  0
  7  9  1  0
  9 10  1  0
 10 11  1  0
 11 12  2  0
 11 13  1  0
 13 14  1  0
 14 15  2  0
 15 16  1  0
 16 17  1  0
 16 18  2  0
 18 19  1  0
 10  5  1  0
 19 14  1  0
  1 20  1  0
  1 21  1  0
  1 22  1  0
  2 23  1  0
  5 24  1  6
  6 25  1  0
  6 26  1  0
  7 27  1  1
  8 28  1  0
  9 29  1  0
  9 30  1  0
 13 31  1  0
 13 32  1  0
 15 33  1  0
 17 34  1  0
 17 35  1  0
 17 36  1  0
M  END
>  <meeko>  (6) 
{"is_sidechain": [false], "free_energy": -5.337, "intermolecular_energy": -6.761, "internal_energy": -0.294}

$$$$
4bkt_ligand
     RDKit          3D

 36 37  0  0  0  0  0  0  0  0999 V2000
   -5.3630   34.8980    3.6730 C   0  0  0  0  0  0  0  0  0  0  0  0
   -6.5210   34.6620    2.8470 N   0  0  0  0  0  0  0  0  0  0  0  0
   -6.3800   34.2850    1.5260 C   0  0  0  0  0  0  0  0  0  0  0  0
   -5.2910   34.0530    1.0090 O   0  0  0  0  0  0  0  0  0  0  0  0
   -7.7160   34.1740    0.7610 C   0  0  2  0  0  0  0  0  0  0  0  0
   -8.6800   33.2530    1.5090 C   0  0  0  0  0  0  0  0  0  0  0  0
   -8.3440   31.8730    0.9450 C   0  0  1  0  0  0  0  0  0  0  0  0
   -9.4360   30.9920    1.1380 O   0  0  0  0  0  0  0  0  0  0  0  0
   -8.0670   32.1730   -0.5270 C   0  0  0  0  0  0  0  0  0  0  0  0
   -7.5620   33.5340   -0.5480 N   0  0  0  0  0  0  0  0  0  0  0  0
   -7.1210   34.1000   -1.7220 C   0  0  0  0  0  0  0  0  0  0  0  0
   -7.2650   35.3050   -1.9460 O   0  0  0  0  0  0  0  0  0  0  0  0
   -6.4320   33.2110   -2.7420 C   0  0  0  0  0  0  0  0  0  0  0  0
   -4.9700   33.2500   -2.5250 C   0  0  0  0  0  0  0  0  0  0  0  0
   -4.0620   32.4070   -1.9330 C   0  0  0  0  0  0  0  0  0  0  0  0
   -2.8210   33.0620   -2.0940 C   0  0  0  0  0  0  0  0  0  0  0  0
   -1.4810   32.6140   -1.6560 C   0  0  0  0  0  0  0  0  0  0  0  0
   -2.9670   34.2270   -2.7390 N   0  0  0  0  0  0  0  0  0  0  0  0
   -4.3190   34.3470   -2.9960 O   0  0  0  0  0  0  0  0  0  0  0  0
   -5.6507   34.8394    4.7331 H   0  0  0  0  0  0  0  0  0  0  0  0
   -4.5981   34.1373    3.4580 H   0  0  0  0  0  0  0  0  0  0  0  0
   -4.9568   35.8974    3.4580 H   0  0  0  0  0  0  0  0  0  0  0  0
   -7.4060   35.0500    3.1530 H   0  0  0  0  0  0  0  0  0  0  0  0
   -8.0794   35.2076    0.6632 H   0  0  0  0  0  0  0  0  0  0  0  0
   -8.5016   33.2910    2.5938 H   0  0  0  0  0  0  0  0  0  0  0  0
   -9.7361   33.5305    1.3757 H   0  0  0  0  0  0  0  0  0  0  0  0
   -7.4923   31.3708    1.4271 H   0  0  0  0  0  0  0  0  0  0  0  0
  -10.1500   31.4980    1.5640 H   0  0  0  0  0  0  0  0  0  0  0  0
   -7.3162   31.4764   -0.9283 H   0  0  0  0  0  0  0  0  0  0  0  0
   -8.9682   32.0586   -1.1472 H   0  0  0  0  0  0  0  0  0  0  0  0
   -6.7916   32.1775   -2.6294 H   0  0  0  0  0  0  0  0  0  0  0  0
   -6.6611   33.5716   -3.7556 H   0  0  0  0  0  0  0  0  0  0  0  0
   -4.2569   31.4410   -1.4443 H   0  0  0  0  0  0  0  0  0  0  0  0
   -1.4401   32.6003   -0.5568 H   0  0  0  0  0  0  0  0  0  0  0  0
   -1.2880   31.6025   -2.0427 H   0  0  0  0  0  0  0  0  0  0  0  0
   -0.7184   33.3061   -2.0427 H   0  0  0  0  0  0  0  0  0  0  0  0
  1  2  1  0
  2  3  1  0
  3  4  2  0
  3  5  1  0
  5  6  1  0
  6  7  1  0
  7  8  1  0
  7  9  1  0
  9 10  1  0
 10 11  1  0
 11 12  2  0
 11 13  1  0
 13 14  1  0
 14 15  2  0
 15 16  1  0
 16 17  1  0
 16 18  2  0
 18 19  1  0
 10  5  1  0
 19 14  1  0
  1 20  1  0
  1 21  1  0
  1 22  1  0
  2 23  1  0
  5 24  1  6
  6 25  1  0
  6 26  1  0
  7 27  1  1
  8 28  1  0
  9 29  1  0
  9 30  1  0
 13 31  1  0
 13 32  1  0
 15 33  1  0
 17 34  1  0
 17 35  1  0
 17 36  1  0
M  END
>  <meeko>  (7) 
{"is_sidechain": [false], "free_energy": -5.319, "intermolecular_energy": -6.335, "internal_energy": -0.698}

$$$$
4bkt_ligand
     RDKit          3D

 36 37  0  0  0  0  0  0  0  0999 V2000
   -8.1980   31.5530    1.1590 C   0  0  0  0  0  0  0  0  0  0  0  0
   -7.5800   31.8150   -0.1170 N   0  0  0  0  0  0  0  0  0  0  0  0
   -7.3430   33.1100   -0.5330 C   0  0  0  0  0  0  0  0  0  0  0  0
   -7.5620   34.0900    0.1740 O   0  0  0  0  0  0  0  0  0  0  0  0
   -6.7710   33.2130   -1.9630 C   0  0  2  0  0  0  0  0  0  0  0  0
   -5.3100   32.7660   -1.9820 C   0  0  0  0  0  0  0  0  0  0  0  0
   -4.5500   34.0570   -1.6800 C   0  0  1  0  0  0  0  0  0  0  0  0
   -3.2140   33.9520   -2.1390 O   0  0  0  0  0  0  0  0  0  0  0  0
   -5.3640   35.1070   -2.4350 C   0  0  0  0  0  0  0  0  0  0  0  0
   -6.7220   34.5950   -2.4500 N   0  0  0  0  0  0  0  0  0  0  0  0
   -7.7490   35.3450   -2.9780 C   0  0  0  0  0  0  0  0  0  0  0  0
   -7.7520   36.5750   -2.8930 O   0  0  0  0  0  0  0  0  0  0  0  0
   -8.8820   34.6240   -3.6860 C   0  0  0  0  0  0  0  0  0  0  0  0
   -8.7300   34.7810   -5.1480 C   0  0  0  0  0  0  0  0  0  0  0  0
   -7.7320   34.4980   -6.0480 C   0  0  0  0  0  0  0  0  0  0  0  0
   -8.2640   34.8930   -7.2960 C   0  0  0  0  0  0  0  0  0  0  0  0
   -7.6320   34.8150   -8.6310 C   0  0  0  0  0  0  0  0  0  0  0  0
   -9.5010   35.3860   -7.1610 N   0  0  0  0  0  0  0  0  0  0  0  0
   -9.7850   35.3250   -5.8110 O   0  0  0  0  0  0  0  0  0  0  0  0
   -7.5101   31.8446    1.9663 H   0  0  0  0  0  0  0  0  0  0  0  0
   -9.1283   32.1341    1.2421 H   0  0  0  0  0  0  0  0  0  0  0  0
   -8.4271   30.4803    1.2421 H   0  0  0  0  0  0  0  0  0  0  0  0
   -7.5920   31.0740   -0.8080 H   0  0  0  0  0  0  0  0  0  0  0  0
   -7.4318   32.5903   -2.5840 H   0  0  0  0  0  0  0  0  0  0  0  0
   -5.1194   32.0056   -1.2104 H   0  0  0  0  0  0  0  0  0  0  0  0
   -5.0120   32.3006   -2.9331 H   0  0  0  0  0  0  0  0  0  0  0  0
   -4.4586   34.3009   -0.6113 H   0  0  0  0  0  0  0  0  0  0  0  0
   -2.7950   34.8220   -2.0220 H   0  0  0  0  0  0  0  0  0  0  0  0
   -5.3222   36.0753   -1.9147 H   0  0  0  0  0  0  0  0  0  0  0  0
   -4.9766   35.2764   -3.4505 H   0  0  0  0  0  0  0  0  0  0  0  0
   -8.8545   33.5552   -3.4274 H   0  0  0  0  0  0  0  0  0  0  0  0
   -9.8439   35.0537   -3.3696 H   0  0  0  0  0  0  0  0  0  0  0  0
   -6.7427   34.0625   -5.8436 H   0  0  0  0  0  0  0  0  0  0  0  0
   -6.5463   34.6810   -8.5154 H   0  0  0  0  0  0  0  0  0  0  0  0
   -8.0498   33.9616   -9.1852 H   0  0  0  0  0  0  0  0  0  0  0  0
   -7.8298   35.7444   -9.1852 H   0  0  0  0  0  0  0  0  0  0  0  0
  1  2  1  0
  2  3  1  0
  3  4  2  0
  3  5  1  0
  5  6  1  0
  6  7  1  0
  7  8  1  0
  7  9  1  0
  9 10  1  0
 10 11  1  0
 11 12  2  0
 11 13  1  0
 13 14  1  0
 14 15  2  0
 15 16  1  0
 16 17  1  0
 16 18  2  0
 18 19  1  0
 10  5  1  0
 19 14  1  0
  1 20  1  0
  1 21  1  0
  1 22  1  0
  2 23  1  0
  5 24  1  6
  6 25  1  0
  6 26  1  0
  7 27  1  1
  8 28  1  0
  9 29  1  0
  9 30  1  0
 13 31  1  0
 13 32  1  0
 15 33  1  0
 17 34  1  0
 17 35  1  0
 17 36  1  0
M  END
>  <meeko>  (8) 
{"is_sidechain": [false], "free_energy": -5.137, "intermolecular_energy": -6.149, "internal_energy": -0.653}

$$$$
4bkt_ligand
     RDKit          3D

 36 37  0  0  0  0  0  0  0  0999 V2000
   -7.9880   31.6360    0.6330 C   0  0  0  0  0  0  0  0  0  0  0  0
   -7.3230   32.3330   -0.4410 N   0  0  0  0  0  0  0  0  0  0  0  0
   -7.1110   33.6960   -0.3730 C   0  0  0  0  0  0  0  0  0  0  0  0
   -7.3930   34.3680    0.6150 O   0  0  0  0  0  0  0  0  0  0  0  0
   -6.4810   34.2950   -1.6480 C   0  0  2  0  0  0  0  0  0  0  0  0
   -7.5370   35.0470   -2.4580 C   0  0  0  0  0  0  0  0  0  0  0  0
   -8.1160   33.9600   -3.3620 C   0  0  1  0  0  0  0  0  0  0  0  0
   -8.7320   34.5470   -4.4940 O   0  0  0  0  0  0  0  0  0  0  0  0
   -6.8850   33.1250   -3.7120 C   0  0  0  0  0  0  0  0  0  0  0  0
   -5.9960   33.2650   -2.5720 N   0  0  0  0  0  0  0  0  0  0  0  0
   -4.8160   32.5600   -2.5120 C   0  0  0  0  0  0  0  0  0  0  0  0
   -4.5220   31.8860   -1.5220 O   0  0  0  0  0  0  0  0  0  0  0  0
   -3.8780   32.6140   -3.7050 C   0  0  0  0  0  0  0  0  0  0  0  0
   -4.0210   31.3780   -4.5030 C   0  0  0  0  0  0  0  0  0  0  0  0
   -4.7630   31.0220   -5.6020 C   0  0  0  0  0  0  0  0  0  0  0  0
   -4.4000   29.6800   -5.8500 C   0  0  0  0  0  0  0  0  0  0  0  0
   -4.8800   28.7790   -6.9200 C   0  0  0  0  0  0  0  0  0  0  0  0
   -3.4990   29.2490   -4.9580 N   0  0  0  0  0  0  0  0  0  0  0  0
   -3.2730   30.3140   -4.1070 O   0  0  0  0  0  0  0  0  0  0  0  0
   -7.6241   32.0174    1.5984 H   0  0  0  0  0  0  0  0  0  0  0  0
   -9.0733   31.7996    0.5597 H   0  0  0  0  0  0  0  0  0  0  0  0
   -7.7736   30.5596    0.5597 H   0  0  0  0  0  0  0  0  0  0  0  0
   -7.2810   31.8760   -1.3450 H   0  0  0  0  0  0  0  0  0  0  0  0
   -5.6602   34.9346   -1.2914 H   0  0  0  0  0  0  0  0  0  0  0  0
   -8.3120   35.4693   -1.8015 H   0  0  0  0  0  0  0  0  0  0  0  0
   -7.1274   35.9018   -3.0161 H   0  0  0  0  0  0  0  0  0  0  0  0
   -8.9063   33.3489   -2.9016 H   0  0  0  0  0  0  0  0  0  0  0  0
   -8.0230   34.8490   -5.0890 H   0  0  0  0  0  0  0  0  0  0  0  0
   -7.1624   32.0706   -3.8582 H   0  0  0  0  0  0  0  0  0  0  0  0
   -6.4121   33.4600   -4.6469 H   0  0  0  0  0  0  0  0  0  0  0  0
   -4.1291   33.4842   -4.3293 H   0  0  0  0  0  0  0  0  0  0  0  0
   -2.8404   32.7028   -3.3508 H   0  0  0  0  0  0  0  0  0  0  0  0
   -5.4783   31.6418   -6.1625 H   0  0  0  0  0  0  0  0  0  0  0  0
   -5.3518   27.8934   -6.4694 H   0  0  0  0  0  0  0  0  0  0  0  0
   -5.6153   29.3090   -7.5432 H   0  0  0  0  0  0  0  0  0  0  0  0
   -4.0299   28.4644   -7.5432 H   0  0  0  0  0  0  0  0  0  0  0  0
  1  2  1  0
  2  3  1  0
  3  4  2  0
  3  5  1  0
  5  6  1  0
  6  7  1  0
  7  8  1  0
  7  9  1  0
  9 10  1  0
 10 11  1  0
 11 12  2  0
 11 13  1  0
 13 14  1  0
 14 15  2  0
 15 16  1  0
 16 17  1  0
 16 18  2  0
 18 19  1  0
 10  5  1  0
 19 14  1  0
  1 20  1  0
  1 21  1  0
  1 22  1  0
  2 23  1  0
  5 24  1  1
  6 25  1  0
  6 26  1  0
  7 27  1  1
  8 28  1  0
  9 29  1  0
  9 30  1  0
 13 31  1  0
 13 32  1  0
 15 33  1  0
 17 34  1  0
 17 35  1  0
 17 36  1  0
M  END
>  <meeko>  (9) 
{"is_sidechain": [false], "free_energy": -5.088, "intermolecular_energy": -6.428, "internal_energy": -0.312}

$$$$
