1h23_ligand
     RDKit          3D

 84 87  0  0  0  0  0  0  0  0999 V2000
    0.5450   68.5260   60.1120 O   0  0  0  0  0  0  0  0  0  0  0  0
    1.2200   68.5150   61.1300 C   0  0  0  0  0  0  0  0  0  0  0  0
    0.5980   68.3520   62.4660 C   0  0  0  0  0  0  0  0  0  0  0  0
    1.3710   68.3150   63.5610 C   0  0  0  0  0  0  0  0  0  0  0  0
    2.8240   68.4130   63.4670 C   0  0  0  0  0  0  0  0  0  0  0  0
    3.3800   68.6220   62.2530 C   0  0  0  0  0  0  0  0  0  0  0  0
    2.5840   68.6600   61.1320 N   0  0  0  0  0  0  0  0  0  0  0  0
    4.8530   68.8490   62.0370 C   0  0  0  0  0  0  0  0  0  0  0  0
    5.5820   69.1950   63.3350 C   0  0  0  0  0  0  0  0  0  0  0  0
    5.1710   68.2400   64.4500 C   0  0  0  0  0  0  0  0  0  0  0  0
    3.6570   68.3170   64.7310 C   0  0  2  0  0  0  0  0  0  0  0  0
    3.3040   67.1030   65.5720 N   0  0  0  0  0  0  0  0  0  0  0  0
    4.3850   66.0870   65.7650 C   0  0  0  0  0  0  0  0  0  0  0  0
    4.9110   66.1370   67.1980 C   0  0  0  0  0  0  0  0  0  0  0  0
    4.4200   64.9640   68.0550 C   0  0  0  0  0  0  0  0  0  0  0  0
    5.1240   64.8510   69.4130 C   0  0  0  0  0  0  0  0  0  0  0  0
    4.6230   63.6240   70.1850 C   0  0  0  0  0  0  0  0  0  0  0  0
    3.6420   62.7600   69.3830 C   0  0  0  0  0  0  0  0  0  0  0  0
    3.3930   61.3840   70.0120 C   0  0  0  0  0  0  0  0  0  0  0  0
    3.2710   61.4330   71.5420 C   0  0  0  0  0  0  0  0  0  0  0  0
    2.1030   62.2690   72.0800 C   0  0  0  0  0  0  0  0  0  0  0  0
    0.7350   61.9240   71.4760 C   0  0  0  0  0  0  0  0  0  0  0  0
    0.0430   63.1020   70.7910 C   0  0  0  0  0  0  0  0  0  0  0  0
    0.7030   64.4520   71.0770 C   0  0  0  0  0  0  0  0  0  0  0  0
    1.1200   65.1460   69.8180 N   0  0  0  0  0  0  0  0  0  0  0  0
    0.9770   66.6570   69.7820 C   0  0  1  0  0  0  0  0  0  0  0  0
    2.4040   67.2230   69.6210 C   0  0  0  0  0  0  0  0  0  0  0  0
    2.3830   68.7020   69.2560 C   0  0  0  0  0  0  0  0  0  0  0  0
    1.6660   68.9120   67.9250 C   0  0  0  0  0  0  0  0  0  0  0  0
    0.3750   68.1380   67.8420 C   0  0  0  0  0  0  0  0  0  0  0  0
   -0.4890   68.5140   66.8380 N   0  0  0  0  0  0  0  0  0  0  0  0
   -1.7220   67.9580   66.6130 C   0  0  0  0  0  0  0  0  0  0  0  0
   -2.4540   68.2970   65.6950 O   0  0  0  0  0  0  0  0  0  0  0  0
   -2.1250   66.9070   67.5730 C   0  0  0  0  0  0  0  0  0  0  0  0
   -1.2860   66.5380   68.5510 C   0  0  0  0  0  0  0  0  0  0  0  0
    0.0360   67.1410   68.6890 C   0  0  0  0  0  0  0  0  0  0  0  0
   -0.4944   68.2617   62.5586 H   0  0  0  0  0  0  0  0  0  0  0  0
    0.9006   68.2087   64.5497 H   0  0  0  0  0  0  0  0  0  0  0  0
    2.9920   68.8050   60.2110 H   0  0  0  0  0  0  0  0  0  0  0  0
    5.2943   67.9333   61.6165 H   0  0  0  0  0  0  0  0  0  0  0  0
    4.9655   69.7007   61.3500 H   0  0  0  0  0  0  0  0  0  0  0  0
    6.6671   69.1161   63.1727 H   0  0  0  0  0  0  0  0  0  0  0  0
    5.3158   70.2209   63.6296 H   0  0  0  0  0  0  0  0  0  0  0  0
    5.4275   67.2124   64.1530 H   0  0  0  0  0  0  0  0  0  0  0  0
    5.7070   68.5284   65.3662 H   0  0  0  0  0  0  0  0  0  0  0  0
    3.4209   69.2434   65.2751 H   0  0  0  0  0  0  0  0  0  0  0  0
    2.4680   66.6370   65.1940 H   0  0  0  0  0  0  0  0  0  0  0  0
    2.9990   67.4450   66.4950 H   0  0  0  0  0  0  0  0  0  0  0  0
    3.9809   65.0843   65.5618 H   0  0  0  0  0  0  0  0  0  0  0  0
    5.2111   66.3082   65.0731 H   0  0  0  0  0  0  0  0  0  0  0  0
    6.0104   66.1147   67.1693 H   0  0  0  0  0  0  0  0  0  0  0  0
    4.5322   67.0623   67.6567 H   0  0  0  0  0  0  0  0  0  0  0  0
    3.3421   65.0921   68.2330 H   0  0  0  0  0  0  0  0  0  0  0  0
    4.6488   64.0432   67.4984 H   0  0  0  0  0  0  0  0  0  0  0  0
    6.2079   64.7573   69.2507 H   0  0  0  0  0  0  0  0  0  0  0  0
    4.9019   65.7532   70.0018 H   0  0  0  0  0  0  0  0  0  0  0  0
    5.4906   63.0052   70.4576 H   0  0  0  0  0  0  0  0  0  0  0  0
    4.0828   63.9941   71.0689 H   0  0  0  0  0  0  0  0  0  0  0  0
    2.6818   63.2924   69.3160 H   0  0  0  0  0  0  0  0  0  0  0  0
    4.0910   62.5899   68.3933 H   0  0  0  0  0  0  0  0  0  0  0  0
    2.4591   60.9745   69.5995 H   0  0  0  0  0  0  0  0  0  0  0  0
    4.2613   60.7525   69.7727 H   0  0  0  0  0  0  0  0  0  0  0  0
    3.1474   60.4024   71.9062 H   0  0  0  0  0  0  0  0  0  0  0  0
    4.1873   61.9217   71.9047 H   0  0  0  0  0  0  0  0  0  0  0  0
    2.0453   62.1168   73.1679 H   0  0  0  0  0  0  0  0  0  0  0  0
    2.3123   63.3117   71.7991 H   0  0  0  0  0  0  0  0  0  0  0  0
    0.8766   61.1260   70.7323 H   0  0  0  0  0  0  0  0  0  0  0  0
    0.0875   61.6157   72.3101 H   0  0  0  0  0  0  0  0  0  0  0  0
    0.0590   62.9305   69.7046 H   0  0  0  0  0  0  0  0  0  0  0  0
   -0.9800   63.1522   71.1922 H   0  0  0  0  0  0  0  0  0  0  0  0
   -0.0125   65.0910   71.6153 H   0  0  0  0  0  0  0  0  0  0  0  0
    1.6041   64.2703   71.6812 H   0  0  0  0  0  0  0  0  0  0  0  0
    0.5630   64.7790   69.0330 H   0  0  0  0  0  0  0  0  0  0  0  0
    2.0850   64.8770   69.5870 H   0  0  0  0  0  0  0  0  0  0  0  0
    0.5117   67.0180   70.7111 H   0  0  0  0  0  0  0  0  0  0  0  0
    2.9470   67.0970   70.5693 H   0  0  0  0  0  0  0  0  0  0  0  0
    2.9017   66.6749   68.8074 H   0  0  0  0  0  0  0  0  0  0  0  0
    1.8571   69.2621   70.0432 H   0  0  0  0  0  0  0  0  0  0  0  0
    3.4186   69.0613   69.1637 H   0  0  0  0  0  0  0  0  0  0  0  0
    1.4444   69.9831   67.8077 H   0  0  0  0  0  0  0  0  0  0  0  0
    2.3281   68.5487   67.1252 H   0  0  0  0  0  0  0  0  0  0  0  0
   -0.2400   69.2570   66.1900 H   0  0  0  0  0  0  0  0  0  0  0  0
   -3.1118   66.4290   67.4843 H   0  0  0  0  0  0  0  0  0  0  0  0
   -1.6008   65.7633   69.2657 H   0  0  0  0  0  0  0  0  0  0  0  0
  1  2  2  0
  2  3  1  0
  3  4  2  0
  4  5  1  0
  5  6  2  0
  6  7  1  0
  6  8  1  0
  8  9  1  0
  9 10  1  0
 10 11  1  0
 11 12  1  0
 12 13  1  0
 13 14  1  0
 14 15  1  0
 15 16  1  0
 16 17  1  0
 17 18  1  0
 18 19  1  0
 19 20  1  0
 20 21  1  0
 21 22  1  0
 22 23  1  0
 23 24  1  0
 24 25  1  0
 25 26  1  0
 26 27  1  0
 27 28  1  0
 28 29  1  0
 29 30  1  0
 30 31  1  0
 31 32  1  0
 32 33  2  0
 32 34  1  0
 34 35  2  0
 35 36  1  0
  7  2  1  0
 36 26  1  0
 11  5  1  0
 36 30  2  0
  3 37  1  0
  4 38  1  0
  7 39  1  0
  8 40  1  0
  8 41  1  0
  9 42  1  0
  9 43  1  0
 10 44  1  0
 10 45  1  0
 11 46  1  1
 12 47  1  0
 12 48  1  0
 13 49  1  0
 13 50  1  0
 14 51  1  0
 14 52  1  0
 15 53  1  0
 15 54  1  0
 16 55  1  0
 16 56  1  0
 17 57  1  0
 17 58  1  0
 18 59  1  0
 18 60  1  0
 19 61  1  0
 19 62  1  0
 20 63  1  0
 20 64  1  0
 21 65  1  0
 21 66  1  0
 22 67  1  0
 22 68  1  0
 23 69  1  0
 23 70  1  0
 24 71  1  0
 24 72  1  0
 25 73  1  0
 25 74  1  0
 26 75  1  1
 27 76  1  0
 27 77  1  0
 28 78  1  0
 28 79  1  0
 29 80  1  0
 29 81  1  0
 31 82  1  0
 34 83  1  0
 35 84  1  0
M  CHG  2  12   1  25   1
M  END
>  <meeko>  (1) 
{"is_sidechain": [false], "free_energy": -11.564, "intermolecular_energy": -21.705, "internal_energy": -2.358}

$$$$
1h23_ligand
     RDKit          3D

 84 87  0  0  0  0  0  0  0  0999 V2000
   -2.5470   68.3440   65.6750 O   0  0  0  0  0  0  0  0  0  0  0  0
   -1.8180   67.9970   66.5910 C   0  0  0  0  0  0  0  0  0  0  0  0
   -2.2410   66.9630   67.5650 C   0  0  0  0  0  0  0  0  0  0  0  0
   -1.4040   66.5840   68.5420 C   0  0  0  0  0  0  0  0  0  0  0  0
   -0.0660   67.1570   68.6590 C   0  0  0  0  0  0  0  0  0  0  0  0
    0.2900   68.1420   67.8060 C   0  0  0  0  0  0  0  0  0  0  0  0
   -0.5710   68.5290   66.8050 N   0  0  0  0  0  0  0  0  0  0  0  0
    1.5960   68.8890   67.8900 C   0  0  0  0  0  0  0  0  0  0  0  0
    2.2890   68.6900   69.2370 C   0  0  0  0  0  0  0  0  0  0  0  0
    2.2930   67.2150   69.6240 C   0  0  0  0  0  0  0  0  0  0  0  0
    0.8600   66.6600   69.7520 C   0  0  2  0  0  0  0  0  0  0  0  0
    0.9750   65.1460   69.7760 N   0  0  0  0  0  0  0  0  0  0  0  0
    0.6640   64.4720   71.0750 C   0  0  0  0  0  0  0  0  0  0  0  0
    0.4360   62.9780   70.8570 C   0  0  0  0  0  0  0  0  0  0  0  0
    1.1890   62.1060   71.8680 C   0  0  0  0  0  0  0  0  0  0  0  0
    1.7900   60.8320   71.2620 C   0  0  0  0  0  0  0  0  0  0  0  0
    2.6600   61.1660   70.0450 C   0  0  0  0  0  0  0  0  0  0  0  0
    4.1250   61.4400   70.4010 C   0  0  0  0  0  0  0  0  0  0  0  0
    4.3890   62.8970   70.8010 C   0  0  0  0  0  0  0  0  0  0  0  0
    4.0750   63.8970   69.6780 C   0  0  0  0  0  0  0  0  0  0  0  0
    5.1980   64.8900   69.3530 C   0  0  0  0  0  0  0  0  0  0  0  0
    5.0220   65.6470   68.0290 C   0  0  0  0  0  0  0  0  0  0  0  0
    4.0480   64.9820   67.0580 C   0  0  0  0  0  0  0  0  0  0  0  0
    3.9700   65.6740   65.6960 C   0  0  0  0  0  0  0  0  0  0  0  0
    3.0530   66.8560   65.7240 N   0  0  0  0  0  0  0  0  0  0  0  0
    3.4850   68.0850   64.9440 C   0  0  1  0  0  0  0  0  0  0  0  0
    4.9990   67.9260   64.6900 C   0  0  0  0  0  0  0  0  0  0  0  0
    5.5010   68.9230   63.6540 C   0  0  0  0  0  0  0  0  0  0  0  0
    4.7970   68.7030   62.3170 C   0  0  0  0  0  0  0  0  0  0  0  0
    3.3090   68.5290   62.4760 C   0  0  0  0  0  0  0  0  0  0  0  0
    2.5620   68.6550   61.3260 N   0  0  0  0  0  0  0  0  0  0  0  0
    1.1950   68.5610   61.2630 C   0  0  0  0  0  0  0  0  0  0  0  0
    0.5640   68.6500   60.2200 O   0  0  0  0  0  0  0  0  0  0  0  0
    0.5160   68.3490   62.5600 C   0  0  0  0  0  0  0  0  0  0  0  0
    1.2410   68.2260   63.6810 C   0  0  0  0  0  0  0  0  0  0  0  0
    2.7000   68.2810   63.6560 C   0  0  0  0  0  0  0  0  0  0  0  0
   -3.2392   66.5075   67.4867 H   0  0  0  0  0  0  0  0  0  0  0  0
   -1.7318   65.8267   69.2694 H   0  0  0  0  0  0  0  0  0  0  0  0
   -0.3100   69.2610   66.1500 H   0  0  0  0  0  0  0  0  0  0  0  0
    2.2621   68.5287   67.0922 H   0  0  0  0  0  0  0  0  0  0  0  0
    1.3795   69.9615   67.7768 H   0  0  0  0  0  0  0  0  0  0  0  0
    3.3266   69.0484   69.1665 H   0  0  0  0  0  0  0  0  0  0  0  0
    1.7427   69.2573   70.0049 H   0  0  0  0  0  0  0  0  0  0  0  0
    2.8296   66.6444   68.8517 H   0  0  0  0  0  0  0  0  0  0  0  0
    2.7898   67.1159   70.6004 H   0  0  0  0  0  0  0  0  0  0  0  0
    0.3956   67.0243   70.6802 H   0  0  0  0  0  0  0  0  0  0  0  0
    1.9100   64.8540   69.4610 H   0  0  0  0  0  0  0  0  0  0  0  0
    0.3450   64.7770   69.0500 H   0  0  0  0  0  0  0  0  0  0  0  0
    1.5069   64.6130   71.7676 H   0  0  0  0  0  0  0  0  0  0  0  0
   -0.2499   64.9150   71.4976 H   0  0  0  0  0  0  0  0  0  0  0  0
   -0.6404   62.7703   70.9475 H   0  0  0  0  0  0  0  0  0  0  0  0
    0.8184   62.7283   69.8563 H   0  0  0  0  0  0  0  0  0  0  0  0
    2.0057   62.7029   72.3000 H   0  0  0  0  0  0  0  0  0  0  0  0
    0.4557   61.7859   72.6228 H   0  0  0  0  0  0  0  0  0  0  0  0
    2.4083   60.3290   72.0201 H   0  0  0  0  0  0  0  0  0  0  0  0
    0.9696   60.1743   70.9390 H   0  0  0  0  0  0  0  0  0  0  0  0
    2.6238   60.3167   69.3469 H   0  0  0  0  0  0  0  0  0  0  0  0
    2.2561   62.0874   69.6002 H   0  0  0  0  0  0  0  0  0  0  0  0
    4.4074   60.7901   71.2424 H   0  0  0  0  0  0  0  0  0  0  0  0
    4.7232   61.2354   69.5008 H   0  0  0  0  0  0  0  0  0  0  0  0
    3.7620   63.1401   71.6715 H   0  0  0  0  0  0  0  0  0  0  0  0
    5.4617   62.9854   71.0282 H   0  0  0  0  0  0  0  0  0  0  0  0
    3.8526   63.3246   68.7654 H   0  0  0  0  0  0  0  0  0  0  0  0
    3.2283   64.5011   70.0360 H   0  0  0  0  0  0  0  0  0  0  0  0
    5.2478   65.6291   70.1662 H   0  0  0  0  0  0  0  0  0  0  0  0
    6.1181   64.2958   69.2511 H   0  0  0  0  0  0  0  0  0  0  0  0
    4.6497   66.6571   68.2549 H   0  0  0  0  0  0  0  0  0  0  0  0
    6.0051   65.6585   67.5358 H   0  0  0  0  0  0  0  0  0  0  0  0
    4.3696   63.9418   66.9013 H   0  0  0  0  0  0  0  0  0  0  0  0
    3.0474   65.0480   67.5102 H   0  0  0  0  0  0  0  0  0  0  0  0
    4.9771   66.0116   65.4101 H   0  0  0  0  0  0  0  0  0  0  0  0
    3.5733   64.9512   64.9679 H   0  0  0  0  0  0  0  0  0  0  0  0
    2.9250   67.1580   66.7010 H   0  0  0  0  0  0  0  0  0  0  0  0
    2.1140   66.5620   65.4290 H   0  0  0  0  0  0  0  0  0  0  0  0
    3.2752   68.9965   65.5229 H   0  0  0  0  0  0  0  0  0  0  0  0
    5.5386   68.0902   65.6344 H   0  0  0  0  0  0  0  0  0  0  0  0
    5.1789   66.9109   64.3063 H   0  0  0  0  0  0  0  0  0  0  0  0
    5.2978   69.9450   64.0065 H   0  0  0  0  0  0  0  0  0  0  0  0
    6.5826   68.7785   63.5152 H   0  0  0  0  0  0  0  0  0  0  0  0
    4.9843   69.5735   61.6712 H   0  0  0  0  0  0  0  0  0  0  0  0
    5.1982   67.7798   61.8734 H   0  0  0  0  0  0  0  0  0  0  0  0
    3.0110   68.8320   60.4320 H   0  0  0  0  0  0  0  0  0  0  0  0
   -0.5816   68.2924   62.6046 H   0  0  0  0  0  0  0  0  0  0  0  0
    0.7250   68.0803   64.6415 H   0  0  0  0  0  0  0  0  0  0  0  0
  1  2  2  0
  2  3  1  0
  3  4  2  0
  4  5  1  0
  5  6  2  0
  6  7  1  0
  6  8  1  0
  8  9  1  0
  9 10  1  0
 10 11  1  0
 11 12  1  0
 12 13  1  0
 13 14  1  0
 14 15  1  0
 15 16  1  0
 16 17  1  0
 17 18  1  0
 18 19  1  0
 19 20  1  0
 20 21  1  0
 21 22  1  0
 22 23  1  0
 23 24  1  0
 24 25  1  0
 25 26  1  0
 26 27  1  0
 27 28  1  0
 28 29  1  0
 29 30  1  0
 30 31  1  0
 31 32  1  0
 32 33  2  0
 32 34  1  0
 34 35  2  0
 35 36  1  0
  7  2  1  0
 36 26  1  0
 11  5  1  0
 36 30  2  0
  3 37  1  0
  4 38  1  0
  7 39  1  0
  8 40  1  0
  8 41  1  0
  9 42  1  0
  9 43  1  0
 10 44  1  0
 10 45  1  0
 11 46  1  1
 12 47  1  0
 12 48  1  0
 13 49  1  0
 13 50  1  0
 14 51  1  0
 14 52  1  0
 15 53  1  0
 15 54  1  0
 16 55  1  0
 16 56  1  0
 17 57  1  0
 17 58  1  0
 18 59  1  0
 18 60  1  0
 19 61  1  0
 19 62  1  0
 20 63  1  0
 20 64  1  0
 21 65  1  0
 21 66  1  0
 22 67  1  0
 22 68  1  0
 23 69  1  0
 23 70  1  0
 24 71  1  0
 24 72  1  0
 25 73  1  0
 25 74  1  0
 26 75  1  1
 27 76  1  0
 27 77  1  0
 28 78  1  0
 28 79  1  0
 29 80  1  0
 29 81  1  0
 31 82  1  0
 34 83  1  0
 35 84  1  0
M  CHG  2  12   1  25   1
M  END
>  <meeko>  (2) 
{"is_sidechain": [false], "free_energy": -11.424, "intermolecular_energy": -21.324, "internal_energy": -2.475}

$$$$
1h23_ligand
     RDKit          3D

 84 87  0  0  0  0  0  0  0  0999 V2000
    4.0810   58.2230   70.1230 O   0  0  0  0  0  0  0  0  0  0  0  0
    3.3810   59.1800   70.4150 C   0  0  0  0  0  0  0  0  0  0  0  0
    3.5050   60.4730   69.7030 C   0  0  0  0  0  0  0  0  0  0  0  0
    2.6990   61.4940   70.0290 C   0  0  0  0  0  0  0  0  0  0  0  0
    1.6800   61.3550   71.0650 C   0  0  0  0  0  0  0  0  0  0  0  0
    1.6120   60.1940   71.7510 C   0  0  0  0  0  0  0  0  0  0  0  0
    2.4410   59.1480   71.4150 N   0  0  0  0  0  0  0  0  0  0  0  0
    0.6810   59.9630   72.9130 C   0  0  0  0  0  0  0  0  0  0  0  0
    0.1140   61.2690   73.4670 C   0  0  0  0  0  0  0  0  0  0  0  0
   -0.3800   62.1610   72.3340 C   0  0  0  0  0  0  0  0  0  0  0  0
    0.7620   62.5250   71.3620 C   0  0  2  0  0  0  0  0  0  0  0  0
    0.1110   63.0900   70.1120 N   0  0  0  0  0  0  0  0  0  0  0  0
   -0.2410   64.5440   70.1390 C   0  0  0  0  0  0  0  0  0  0  0  0
    0.8750   65.3470   70.8050 C   0  0  0  0  0  0  0  0  0  0  0  0
    1.4180   66.4680   69.9100 C   0  0  0  0  0  0  0  0  0  0  0  0
    2.9450   66.4660   69.7720 C   0  0  0  0  0  0  0  0  0  0  0  0
    3.5240   65.0940   70.1370 C   0  0  0  0  0  0  0  0  0  0  0  0
    4.4750   64.5340   69.0740 C   0  0  0  0  0  0  0  0  0  0  0  0
    5.2040   65.6240   68.2780 C   0  0  0  0  0  0  0  0  0  0  0  0
    4.7890   65.6720   66.8010 C   0  0  0  0  0  0  0  0  0  0  0  0
    3.6940   64.6780   66.3950 C   0  0  0  0  0  0  0  0  0  0  0  0
    3.4930   64.5260   64.8810 C   0  0  0  0  0  0  0  0  0  0  0  0
    4.7130   64.9240   64.0500 C   0  0  0  0  0  0  0  0  0  0  0  0
    4.4150   65.9920   62.9960 C   0  0  0  0  0  0  0  0  0  0  0  0
    4.6050   67.3750   63.5360 N   0  0  0  0  0  0  0  0  0  0  0  0
    3.4770   68.3660   63.3110 C   0  0  1  0  0  0  0  0  0  0  0  0
    2.9920   68.1470   61.8620 C   0  0  0  0  0  0  0  0  0  0  0  0
    1.6650   68.8490   61.6030 C   0  0  0  0  0  0  0  0  0  0  0  0
    0.5810   68.2980   62.5260 C   0  0  0  0  0  0  0  0  0  0  0  0
    1.0540   68.1700   63.9510 C   0  0  0  0  0  0  0  0  0  0  0  0
    0.0700   68.0010   64.9000 N   0  0  0  0  0  0  0  0  0  0  0  0
    0.2890   67.8950   66.2490 C   0  0  0  0  0  0  0  0  0  0  0  0
   -0.6060   67.7190   67.0630 O   0  0  0  0  0  0  0  0  0  0  0  0
    1.7020   68.0200   66.6720 C   0  0  0  0  0  0  0  0  0  0  0  0
    2.6620   68.1840   65.7500 C   0  0  0  0  0  0  0  0  0  0  0  0
    2.3510   68.2300   64.3250 C   0  0  0  0  0  0  0  0  0  0  0  0
    4.2563   60.5954   68.9089 H   0  0  0  0  0  0  0  0  0  0  0  0
    2.8079   62.4552   69.5054 H   0  0  0  0  0  0  0  0  0  0  0  0
    2.3910   58.2650   71.9170 H   0  0  0  0  0  0  0  0  0  0  0  0
   -0.1529   59.3287   72.5780 H   0  0  0  0  0  0  0  0  0  0  0  0
    1.2563   59.4776   73.7151 H   0  0  0  0  0  0  0  0  0  0  0  0
   -0.7252   61.0420   74.1409 H   0  0  0  0  0  0  0  0  0  0  0  0
    0.9085   61.7973   74.0145 H   0  0  0  0  0  0  0  0  0  0  0  0
   -1.1669   61.6301   71.7782 H   0  0  0  0  0  0  0  0  0  0  0  0
   -0.7701   63.0915   72.7722 H   0  0  0  0  0  0  0  0  0  0  0  0
    1.4255   63.2731   71.8203 H   0  0  0  0  0  0  0  0  0  0  0  0
   -0.7280   62.5460   69.8690 H   0  0  0  0  0  0  0  0  0  0  0  0
    0.7530   62.9170   69.3250 H   0  0  0  0  0  0  0  0  0  0  0  0
   -0.3810   64.9027   69.1086 H   0  0  0  0  0  0  0  0  0  0  0  0
   -1.1696   64.6769   70.7136 H   0  0  0  0  0  0  0  0  0  0  0  0
    0.4817   65.7950   71.7294 H   0  0  0  0  0  0  0  0  0  0  0  0
    1.7051   64.6543   71.0075 H   0  0  0  0  0  0  0  0  0  0  0  0
    0.9792   66.3546   68.9077 H   0  0  0  0  0  0  0  0  0  0  0  0
    1.1410   67.4201   70.3861 H   0  0  0  0  0  0  0  0  0  0  0  0
    3.2133   66.7054   68.7324 H   0  0  0  0  0  0  0  0  0  0  0  0
    3.3616   67.2179   70.4584 H   0  0  0  0  0  0  0  0  0  0  0  0
    4.0759   65.1888   71.0838 H   0  0  0  0  0  0  0  0  0  0  0  0
    2.6784   64.3951   70.2177 H   0  0  0  0  0  0  0  0  0  0  0  0
    5.2264   63.9052   69.5740 H   0  0  0  0  0  0  0  0  0  0  0  0
    3.8649   63.9616   68.3597 H   0  0  0  0  0  0  0  0  0  0  0  0
    4.9818   66.5993   68.7357 H   0  0  0  0  0  0  0  0  0  0  0  0
    6.2782   65.3890   68.3089 H   0  0  0  0  0  0  0  0  0  0  0  0
    4.4244   66.6867   66.5833 H   0  0  0  0  0  0  0  0  0  0  0  0
    5.6830   65.3916   66.2247 H   0  0  0  0  0  0  0  0  0  0  0  0
    3.9570   63.6922   66.8061 H   0  0  0  0  0  0  0  0  0  0  0  0
    2.7498   65.0766   66.7946 H   0  0  0  0  0  0  0  0  0  0  0  0
    3.2570   63.4731   64.6671 H   0  0  0  0  0  0  0  0  0  0  0  0
    2.6779   65.2081   64.5975 H   0  0  0  0  0  0  0  0  0  0  0  0
    5.4851   65.3128   64.7302 H   0  0  0  0  0  0  0  0  0  0  0  0
    5.0440   64.0236   63.5118 H   0  0  0  0  0  0  0  0  0  0  0  0
    5.0923   65.8474   62.1414 H   0  0  0  0  0  0  0  0  0  0  0  0
    3.3637   65.8861   62.6901 H   0  0  0  0  0  0  0  0  0  0  0  0
    5.4480   67.7870   63.1110 H   0  0  0  0  0  0  0  0  0  0  0  0
    4.8320   67.3190   64.5370 H   0  0  0  0  0  0  0  0  0  0  0  0
    3.8393   69.3946   63.4553 H   0  0  0  0  0  0  0  0  0  0  0  0
    3.7476   68.5448   61.1686 H   0  0  0  0  0  0  0  0  0  0  0  0
    2.8464   67.0677   61.7072 H   0  0  0  0  0  0  0  0  0  0  0  0
    1.7836   69.9270   61.7867 H   0  0  0  0  0  0  0  0  0  0  0  0
    1.3669   68.6735   60.5588 H   0  0  0  0  0  0  0  0  0  0  0  0
   -0.2842   68.9767   62.5001 H   0  0  0  0  0  0  0  0  0  0  0  0
    0.3138   67.2926   62.1685 H   0  0  0  0  0  0  0  0  0  0  0  0
   -0.9080   67.9460   64.6290 H   0  0  0  0  0  0  0  0  0  0  0  0
    1.9639   67.9785   67.7396 H   0  0  0  0  0  0  0  0  0  0  0  0
    3.7078   68.2862   66.0754 H   0  0  0  0  0  0  0  0  0  0  0  0
  1  2  2  0
  2  3  1  0
  3  4  2  0
  4  5  1  0
  5  6  2  0
  6  7  1  0
  6  8  1  0
  8  9  1  0
  9 10  1  0
 10 11  1  0
 11 12  1  0
 12 13  1  0
 13 14  1  0
 14 15  1  0
 15 16  1  0
 16 17  1  0
 17 18  1  0
 18 19  1  0
 19 20  1  0
 20 21  1  0
 21 22  1  0
 22 23  1  0
 23 24  1  0
 24 25  1  0
 25 26  1  0
 26 27  1  0
 27 28  1  0
 28 29  1  0
 29 30  1  0
 30 31  1  0
 31 32  1  0
 32 33  2  0
 32 34  1  0
 34 35  2  0
 35 36  1  0
  7  2  1  0
 36 26  1  0
 11  5  1  0
 36 30  2  0
  3 37  1  0
  4 38  1  0
  7 39  1  0
  8 40  1  0
  8 41  1  0
  9 42  1  0
  9 43  1  0
 10 44  1  0
 10 45  1  0
 11 46  1  1
 12 47  1  0
 12 48  1  0
 13 49  1  0
 13 50  1  0
 14 51  1  0
 14 52  1  0
 15 53  1  0
 15 54  1  0
 16 55  1  0
 16 56  1  0
 17 57  1  0
 17 58  1  0
 18 59  1  0
 18 60  1  0
 19 61  1  0
 19 62  1  0
 20 63  1  0
 20 64  1  0
 21 65  1  0
 21 66  1  0
 22 67  1  0
 22 68  1  0
 23 69  1  0
 23 70  1  0
 24 71  1  0
 24 72  1  0
 25 73  1  0
 25 74  1  0
 26 75  1  6
 27 76  1  0
 27 77  1  0
 28 78  1  0
 28 79  1  0
 29 80  1  0
 29 81  1  0
 31 82  1  0
 34 83  1  0
 35 84  1  0
M  CHG  2  12   1  25   1
M  END
>  <meeko>  (3) 
{"is_sidechain": [false], "free_energy": -10.755, "intermolecular_energy": -19.417, "internal_energy": -3.125}

$$$$
1h23_ligand
     RDKit          3D

 84 87  0  0  0  0  0  0  0  0999 V2000
    0.6040   68.5210   60.1330 O   0  0  0  0  0  0  0  0  0  0  0  0
    1.2680   68.5130   61.1590 C   0  0  0  0  0  0  0  0  0  0  0  0
    0.6350   68.3350   62.4870 C   0  0  0  0  0  0  0  0  0  0  0  0
    1.3970   68.3000   63.5900 C   0  0  0  0  0  0  0  0  0  0  0  0
    2.8500   68.4160   63.5120 C   0  0  0  0  0  0  0  0  0  0  0  0
    3.4150   68.6380   62.3050 C   0  0  0  0  0  0  0  0  0  0  0  0
    2.6310   68.6740   61.1750 N   0  0  0  0  0  0  0  0  0  0  0  0
    4.8880   68.8840   62.1050 C   0  0  0  0  0  0  0  0  0  0  0  0
    5.5990   69.2320   63.4130 C   0  0  0  0  0  0  0  0  0  0  0  0
    5.1880   68.2650   64.5180 C   0  0  0  0  0  0  0  0  0  0  0  0
    3.6700   68.3230   64.7840 C   0  0  2  0  0  0  0  0  0  0  0  0
    3.3230   67.0990   65.6140 N   0  0  0  0  0  0  0  0  0  0  0  0
    4.3500   66.0120   65.6640 C   0  0  0  0  0  0  0  0  0  0  0  0
    4.5850   65.5690   67.1070 C   0  0  0  0  0  0  0  0  0  0  0  0
    3.7620   66.3750   68.1190 C   0  0  0  0  0  0  0  0  0  0  0  0
    4.0400   66.0040   69.5810 C   0  0  0  0  0  0  0  0  0  0  0  0
    5.0930   64.8930   69.6700 C   0  0  0  0  0  0  0  0  0  0  0  0
    4.5830   63.6270   70.3690 C   0  0  0  0  0  0  0  0  0  0  0  0
    3.1250   63.2930   70.0280 C   0  0  0  0  0  0  0  0  0  0  0  0
    2.1730   63.4620   71.2210 C   0  0  0  0  0  0  0  0  0  0  0  0
    1.0090   62.4640   71.2760 C   0  0  0  0  0  0  0  0  0  0  0  0
    0.3160   62.3610   72.6410 C   0  0  0  0  0  0  0  0  0  0  0  0
   -0.9160   61.4550   72.6450 C   0  0  0  0  0  0  0  0  0  0  0  0
   -0.7960   60.2600   73.5920 C   0  0  0  0  0  0  0  0  0  0  0  0
    0.4970   60.2750   74.3460 N   0  0  0  0  0  0  0  0  0  0  0  0
    1.4100   59.0740   74.1760 C   0  0  1  0  0  0  0  0  0  0  0  0
    0.5190   57.9230   73.6620 C   0  0  0  0  0  0  0  0  0  0  0  0
    1.3520   56.7540   73.1500 C   0  0  0  0  0  0  0  0  0  0  0  0
    2.2300   57.1970   71.9820 C   0  0  0  0  0  0  0  0  0  0  0  0
    2.9270   58.5050   72.2530 C   0  0  0  0  0  0  0  0  0  0  0  0
    3.9760   58.8150   71.4160 N   0  0  0  0  0  0  0  0  0  0  0  0
    4.7540   59.9390   71.5140 C   0  0  0  0  0  0  0  0  0  0  0  0
    5.6610   60.1970   70.7360 O   0  0  0  0  0  0  0  0  0  0  0  0
    4.4300   60.8350   72.6450 C   0  0  0  0  0  0  0  0  0  0  0  0
    3.4100   60.5370   73.4620 C   0  0  0  0  0  0  0  0  0  0  0  0
    2.5900   59.3470   73.2560 C   0  0  0  0  0  0  0  0  0  0  0  0
   -0.4572   68.2318   62.5679 H   0  0  0  0  0  0  0  0  0  0  0  0
    0.9176   68.1815   64.5729 H   0  0  0  0  0  0  0  0  0  0  0  0
    3.0460   68.8290   60.2600 H   0  0  0  0  0  0  0  0  0  0  0  0
    5.3447   67.9760   61.6844 H   0  0  0  0  0  0  0  0  0  0  0  0
    4.9975   69.7403   61.4233 H   0  0  0  0  0  0  0  0  0  0  0  0
    6.6867   69.1679   63.2619 H   0  0  0  0  0  0  0  0  0  0  0  0
    5.3170   70.2528   63.7105 H   0  0  0  0  0  0  0  0  0  0  0  0
    5.4594   67.2423   64.2172 H   0  0  0  0  0  0  0  0  0  0  0  0
    5.7115   68.5535   65.4414 H   0  0  0  0  0  0  0  0  0  0  0  0
    3.4170   69.2431   65.3311 H   0  0  0  0  0  0  0  0  0  0  0  0
    2.4260   66.7010   65.3050 H   0  0  0  0  0  0  0  0  0  0  0  0
    3.1320   67.4220   66.5730 H   0  0  0  0  0  0  0  0  0  0  0  0
    3.9981   65.1531   65.0737 H   0  0  0  0  0  0  0  0  0  0  0  0
    5.2946   66.3935   65.2490 H   0  0  0  0  0  0  0  0  0  0  0  0
    4.3111   64.5075   67.1975 H   0  0  0  0  0  0  0  0  0  0  0  0
    5.6476   65.7379   67.3358 H   0  0  0  0  0  0  0  0  0  0  0  0
    3.9930   67.4417   67.9823 H   0  0  0  0  0  0  0  0  0  0  0  0
    2.7038   66.1444   67.9264 H   0  0  0  0  0  0  0  0  0  0  0  0
    4.4074   66.8927   70.1150 H   0  0  0  0  0  0  0  0  0  0  0  0
    3.1064   65.6423   70.0366 H   0  0  0  0  0  0  0  0  0  0  0  0
    5.4059   64.6263   68.6497 H   0  0  0  0  0  0  0  0  0  0  0  0
    5.9274   65.2830   70.2714 H   0  0  0  0  0  0  0  0  0  0  0  0
    5.2159   62.7805   70.0642 H   0  0  0  0  0  0  0  0  0  0  0  0
    4.6311   63.8104   71.4525 H   0  0  0  0  0  0  0  0  0  0  0  0
    2.7933   63.9597   69.2184 H   0  0  0  0  0  0  0  0  0  0  0  0
    3.0922   62.2347   69.7298 H   0  0  0  0  0  0  0  0  0  0  0  0
    2.7610   63.3498   72.1438 H   0  0  0  0  0  0  0  0  0  0  0  0
    1.7166   64.4565   71.1081 H   0  0  0  0  0  0  0  0  0  0  0  0
    0.2584   62.7719   70.5332 H   0  0  0  0  0  0  0  0  0  0  0  0
    1.4399   61.4729   71.0711 H   0  0  0  0  0  0  0  0  0  0  0  0
    1.0400   61.9639   73.3677 H   0  0  0  0  0  0  0  0  0  0  0  0
   -0.0312   63.3723   72.8994 H   0  0  0  0  0  0  0  0  0  0  0  0
   -1.7868   62.0539   72.9499 H   0  0  0  0  0  0  0  0  0  0  0  0
   -1.0212   61.0502   71.6276 H   0  0  0  0  0  0  0  0  0  0  0  0
   -1.6278   60.2909   74.3112 H   0  0  0  0  0  0  0  0  0  0  0  0
   -0.8287   59.3411   72.9883 H   0  0  0  0  0  0  0  0  0  0  0  0
    0.2960   60.3510   75.3540 H   0  0  0  0  0  0  0  0  0  0  0  0
    1.0070   61.1400   74.1270 H   0  0  0  0  0  0  0  0  0  0  0  0
    1.8783   58.8124   75.1363 H   0  0  0  0  0  0  0  0  0  0  0  0
   -0.1207   57.5720   74.4851 H   0  0  0  0  0  0  0  0  0  0  0  0
   -0.0880   58.3043   72.8276 H   0  0  0  0  0  0  0  0  0  0  0  0
    1.9919   56.3813   73.9634 H   0  0  0  0  0  0  0  0  0  0  0  0
    0.6756   55.9577   72.8059 H   0  0  0  0  0  0  0  0  0  0  0  0
    2.9897   56.4232   71.7975 H   0  0  0  0  0  0  0  0  0  0  0  0
    1.5788   57.3383   71.1068 H   0  0  0  0  0  0  0  0  0  0  0  0
    4.2310   58.1930   70.6530 H   0  0  0  0  0  0  0  0  0  0  0  0
    5.0250   61.7444   72.8155 H   0  0  0  0  0  0  0  0  0  0  0  0
    3.1857   61.2045   74.3071 H   0  0  0  0  0  0  0  0  0  0  0  0
  1  2  2  0
  2  3  1  0
  3  4  2  0
  4  5  1  0
  5  6  2  0
  6  7  1  0
  6  8  1  0
  8  9  1  0
  9 10  1  0
 10 11  1  0
 11 12  1  0
 12 13  1  0
 13 14  1  0
 14 15  1  0
 15 16  1  0
 16 17  1  0
 17 18  1  0
 18 19  1  0
 19 20  1  0
 20 21  1  0
 21 22  1  0
 22 23  1  0
 23 24  1  0
 24 25  1  0
 25 26  1  0
 26 27  1  0
 27 28  1  0
 28 29  1  0
 29 30  1  0
 30 31  1  0
 31 32  1  0
 32 33  2  0
 32 34  1  0
 34 35  2  0
 35 36  1  0
  7  2  1  0
 36 26  1  0
 11  5  1  0
 36 30  2  0
  3 37  1  0
  4 38  1  0
  7 39  1  0
  8 40  1  0
  8 41  1  0
  9 42  1  0
  9 43  1  0
 10 44  1  0
 10 45  1  0
 11 46  1  1
 12 47  1  0
 12 48  1  0
 13 49  1  0
 13 50  1  0
 14 51  1  0
 14 52  1  0
 15 53  1  0
 15 54  1  0
 16 55  1  0
 16 56  1  0
 17 57  1  0
 17 58  1  0
 18 59  1  0
 18 60  1  0
 19 61  1  0
 19 62  1  0
 20 63  1  0
 20 64  1  0
 21 65  1  0
 21 66  1  0
 22 67  1  0
 22 68  1  0
 23 69  1  0
 23 70  1  0
 24 71  1  0
 24 72  1  0
 25 73  1  0
 25 74  1  0
 26 75  1  1
 27 76  1  0
 27 77  1  0
 28 78  1  0
 28 79  1  0
 29 80  1  0
 29 81  1  0
 31 82  1  0
 34 83  1  0
 35 84  1  0
M  CHG  2  12   1  25   1
M  END
>  <meeko>  (4) 
{"is_sidechain": [false], "free_energy": -10.675, "intermolecular_energy": -20.131, "internal_energy": -2.263}

$$$$
1h23_ligand
     RDKit          3D

 84 87  0  0  0  0  0  0  0  0999 V2000
    4.0890   65.5930   68.2930 O   0  0  0  0  0  0  0  0  0  0  0  0
    4.1340   64.5830   68.9780 C   0  0  0  0  0  0  0  0  0  0  0  0
    5.0140   64.4960   70.1670 C   0  0  0  0  0  0  0  0  0  0  0  0
    5.0170   63.3820   70.9150 C   0  0  0  0  0  0  0  0  0  0  0  0
    4.1530   62.2510   70.5940 C   0  0  0  0  0  0  0  0  0  0  0  0
    3.3990   62.3130   69.4750 C   0  0  0  0  0  0  0  0  0  0  0  0
    3.3980   63.4560   68.7100 N   0  0  0  0  0  0  0  0  0  0  0  0
    2.5500   61.1730   68.9760 C   0  0  0  0  0  0  0  0  0  0  0  0
    2.9220   59.8440   69.6330 C   0  0  0  0  0  0  0  0  0  0  0  0
    3.0580   60.0140   71.1420 C   0  0  0  0  0  0  0  0  0  0  0  0
    4.1590   61.0340   71.4990 C   0  0  2  0  0  0  0  0  0  0  0  0
    3.9680   61.3930   72.9620 N   0  0  0  0  0  0  0  0  0  0  0  0
    3.1290   60.4580   73.7760 C   0  0  0  0  0  0  0  0  0  0  0  0
    1.8030   61.1190   74.1440 C   0  0  0  0  0  0  0  0  0  0  0  0
    1.7990   62.6310   73.8930 C   0  0  0  0  0  0  0  0  0  0  0  0
    0.5320   63.1420   73.1980 C   0  0  0  0  0  0  0  0  0  0  0  0
    0.3760   62.5050   71.8120 C   0  0  0  0  0  0  0  0  0  0  0  0
    0.0130   63.5140   70.7170 C   0  0  0  0  0  0  0  0  0  0  0  0
    0.8660   64.7880   70.7600 C   0  0  0  0  0  0  0  0  0  0  0  0
    0.1380   66.0210   70.2030 C   0  0  0  0  0  0  0  0  0  0  0  0
    0.9350   66.8480   69.1870 C   0  0  0  0  0  0  0  0  0  0  0  0
    0.2400   67.0440   67.8320 C   0  0  0  0  0  0  0  0  0  0  0  0
    0.9980   67.9630   66.8730 C   0  0  0  0  0  0  0  0  0  0  0  0
    2.3490   68.4340   67.4140 C   0  0  0  0  0  0  0  0  0  0  0  0
    3.4900   67.8680   66.6280 N   0  0  0  0  0  0  0  0  0  0  0  0
    3.2910   67.7140   65.1310 C   0  0  1  0  0  0  0  0  0  0  0  0
    4.1140   68.8380   64.4670 C   0  0  0  0  0  0  0  0  0  0  0  0
    4.2600   68.6140   62.9670 C   0  0  0  0  0  0  0  0  0  0  0  0
    4.9900   67.3020   62.6920 C   0  0  0  0  0  0  0  0  0  0  0  0
    4.4650   66.1680   63.5340 C   0  0  0  0  0  0  0  0  0  0  0  0
    4.8240   64.9010   63.1300 N   0  0  0  0  0  0  0  0  0  0  0  0
    4.4280   63.7400   63.7410 C   0  0  0  0  0  0  0  0  0  0  0  0
    4.7870   62.6310   63.3730 O   0  0  0  0  0  0  0  0  0  0  0  0
    3.5130   63.9110   64.8910 C   0  0  0  0  0  0  0  0  0  0  0  0
    3.1620   65.1430   65.2870 C   0  0  0  0  0  0  0  0  0  0  0  0
    3.6740   66.3350   64.6170 C   0  0  0  0  0  0  0  0  0  0  0  0
    5.6631   65.3424   70.4358 H   0  0  0  0  0  0  0  0  0  0  0  0
    5.6841   63.3203   71.7875 H   0  0  0  0  0  0  0  0  0  0  0  0
    2.8250   63.5190   67.8720 H   0  0  0  0  0  0  0  0  0  0  0  0
    1.4953   61.3940   69.1967 H   0  0  0  0  0  0  0  0  0  0  0  0
    2.7209   61.0737   67.8939 H   0  0  0  0  0  0  0  0  0  0  0  0
    2.1368   59.1033   69.4215 H   0  0  0  0  0  0  0  0  0  0  0  0
    3.8849   59.5028   69.2252 H   0  0  0  0  0  0  0  0  0  0  0  0
    2.0989   60.3658   71.5500 H   0  0  0  0  0  0  0  0  0  0  0  0
    3.3347   59.0416   71.5754 H   0  0  0  0  0  0  0  0  0  0  0  0
    5.1523   60.5892   71.3396 H   0  0  0  0  0  0  0  0  0  0  0  0
    3.5900   62.3460   73.0490 H   0  0  0  0  0  0  0  0  0  0  0  0
    4.9030   61.4590   73.3880 H   0  0  0  0  0  0  0  0  0  0  0  0
    2.9305   59.5471   73.1922 H   0  0  0  0  0  0  0  0  0  0  0  0
    3.6702   60.2038   74.6993 H   0  0  0  0  0  0  0  0  0  0  0  0
    1.0040   60.6614   73.5421 H   0  0  0  0  0  0  0  0  0  0  0  0
    1.6450   60.9634   75.2214 H   0  0  0  0  0  0  0  0  0  0  0  0
    1.8930   63.1432   74.8619 H   0  0  0  0  0  0  0  0  0  0  0  0
    2.6413   62.8449   73.2187 H   0  0  0  0  0  0  0  0  0  0  0  0
   -0.3440   62.8872   73.8125 H   0  0  0  0  0  0  0  0  0  0  0  0
    0.6116   64.2325   73.0777 H   0  0  0  0  0  0  0  0  0  0  0  0
    1.3267   62.0227   71.5407 H   0  0  0  0  0  0  0  0  0  0  0  0
   -0.4519   61.7836   71.8769 H   0  0  0  0  0  0  0  0  0  0  0  0
    0.1534   63.0326   69.7380 H   0  0  0  0  0  0  0  0  0  0  0  0
   -1.0316   63.8152   70.8844 H   0  0  0  0  0  0  0  0  0  0  0  0
    1.1435   64.9881   71.8054 H   0  0  0  0  0  0  0  0  0  0  0  0
    1.7474   64.6136   70.1255 H   0  0  0  0  0  0  0  0  0  0  0  0
   -0.7852   65.6782   69.7129 H   0  0  0  0  0  0  0  0  0  0  0  0
   -0.0399   66.6838   71.0627 H   0  0  0  0  0  0  0  0  0  0  0  0
    1.1206   67.8405   69.6235 H   0  0  0  0  0  0  0  0  0  0  0  0
    1.8578   66.2847   68.9839 H   0  0  0  0  0  0  0  0  0  0  0  0
    0.1300   66.0595   67.3537 H   0  0  0  0  0  0  0  0  0  0  0  0
   -0.7278   67.5251   68.0366 H   0  0  0  0  0  0  0  0  0  0  0  0
    1.1708   67.4181   65.9332 H   0  0  0  0  0  0  0  0  0  0  0  0
    0.3781   68.8602   66.7292 H   0  0  0  0  0  0  0  0  0  0  0  0
    2.3904   69.5320   67.3616 H   0  0  0  0  0  0  0  0  0  0  0  0
    2.4423   68.0842   68.4527 H   0  0  0  0  0  0  0  0  0  0  0  0
    3.7160   66.9310   66.9930 H   0  0  0  0  0  0  0  0  0  0  0  0
    4.3370   68.4200   66.8170 H   0  0  0  0  0  0  0  0  0  0  0  0
    2.2244   67.8037   64.8773 H   0  0  0  0  0  0  0  0  0  0  0  0
    3.6075   69.7995   64.6369 H   0  0  0  0  0  0  0  0  0  0  0  0
    5.1189   68.8394   64.9144 H   0  0  0  0  0  0  0  0  0  0  0  0
    3.2613   68.5759   62.5076 H   0  0  0  0  0  0  0  0  0  0  0  0
    4.8428   69.4425   62.5382 H   0  0  0  0  0  0  0  0  0  0  0  0
    4.8634   67.0425   61.6306 H   0  0  0  0  0  0  0  0  0  0  0  0
    6.0503   67.4472   62.9464 H   0  0  0  0  0  0  0  0  0  0  0  0
    5.4270   64.7660   62.3230 H   0  0  0  0  0  0  0  0  0  0  0  0
    3.1216   63.0295   65.4199 H   0  0  0  0  0  0  0  0  0  0  0  0
    2.4724   65.2584   66.1362 H   0  0  0  0  0  0  0  0  0  0  0  0
  1  2  2  0
  2  3  1  0
  3  4  2  0
  4  5  1  0
  5  6  2  0
  6  7  1  0
  6  8  1  0
  8  9  1  0
  9 10  1  0
 10 11  1  0
 11 12  1  0
 12 13  1  0
 13 14  1  0
 14 15  1  0
 15 16  1  0
 16 17  1  0
 17 18  1  0
 18 19  1  0
 19 20  1  0
 20 21  1  0
 21 22  1  0
 22 23  1  0
 23 24  1  0
 24 25  1  0
 25 26  1  0
 26 27  1  0
 27 28  1  0
 28 29  1  0
 29 30  1  0
 30 31  1  0
 31 32  1  0
 32 33  2  0
 32 34  1  0
 34 35  2  0
 35 36  1  0
  7  2  1  0
 36 26  1  0
 11  5  1  0
 36 30  2  0
  3 37  1  0
  4 38  1  0
  7 39  1  0
  8 40  1  0
  8 41  1  0
  9 42  1  0
  9 43  1  0
 10 44  1  0
 10 45  1  0
 11 46  1  1
 12 47  1  0
 12 48  1  0
 13 49  1  0
 13 50  1  0
 14 51  1  0
 14 52  1  0
 15 53  1  0
 15 54  1  0
 16 55  1  0
 16 56  1  0
 17 57  1  0
 17 58  1  0
 18 59  1  0
 18 60  1  0
 19 61  1  0
 19 62  1  0
 20 63  1  0
 20 64  1  0
 21 65  1  0
 21 66  1  0
 22 67  1  0
 22 68  1  0
 23 69  1  0
 23 70  1  0
 24 71  1  0
 24 72  1  0
 25 73  1  0
 25 74  1  0
 26 75  1  1
 27 76  1  0
 27 77  1  0
 28 78  1  0
 28 79  1  0
 29 80  1  0
 29 81  1  0
 31 82  1  0
 34 83  1  0
 35 84  1  0
M  CHG  2  12   1  25   1
M  END
>  <meeko>  (5) 
{"is_sidechain": [false], "free_energy": -10.625, "intermolecular_energy": -18.968, "internal_energy": -3.332}

$$$$
1h23_ligand
     RDKit          3D

 84 87  0  0  0  0  0  0  0  0999 V2000
    5.5710   60.0670   70.7110 O   0  0  0  0  0  0  0  0  0  0  0  0
    4.6730   59.8110   71.4990 C   0  0  0  0  0  0  0  0  0  0  0  0
    4.3640   60.7110   72.6360 C   0  0  0  0  0  0  0  0  0  0  0  0
    3.3520   60.4150   73.4640 C   0  0  0  0  0  0  0  0  0  0  0  0
    2.5270   59.2290   73.2610 C   0  0  0  0  0  0  0  0  0  0  0  0
    2.8510   58.3820   72.2600 C   0  0  0  0  0  0  0  0  0  0  0  0
    3.8900   58.6870   71.4110 N   0  0  0  0  0  0  0  0  0  0  0  0
    2.1490   57.0720   72.0130 C   0  0  0  0  0  0  0  0  0  0  0  0
    1.3120   56.6300   73.2130 C   0  0  0  0  0  0  0  0  0  0  0  0
    0.4760   57.7910   73.7380 C   0  0  0  0  0  0  0  0  0  0  0  0
    1.3640   58.9650   74.1980 C   0  0  2  0  0  0  0  0  0  0  0  0
    0.4530   60.1710   74.3520 N   0  0  0  0  0  0  0  0  0  0  0  0
   -0.7770   60.1930   73.5000 C   0  0  0  0  0  0  0  0  0  0  0  0
   -0.9060   61.5380   72.7880 C   0  0  0  0  0  0  0  0  0  0  0  0
    0.4510   62.1680   72.4540 C   0  0  0  0  0  0  0  0  0  0  0  0
    0.3560   63.6060   71.9310 C   0  0  0  0  0  0  0  0  0  0  0  0
    0.9200   63.7070   70.5080 C   0  0  0  0  0  0  0  0  0  0  0  0
    1.6470   62.4370   70.0520 C   0  0  0  0  0  0  0  0  0  0  0  0
    3.1050   62.6870   69.6460 C   0  0  0  0  0  0  0  0  0  0  0  0
    3.8480   63.6210   70.6110 C   0  0  0  0  0  0  0  0  0  0  0  0
    5.0480   64.3630   70.0100 C   0  0  0  0  0  0  0  0  0  0  0  0
    4.6870   65.4330   68.9690 C   0  0  0  0  0  0  0  0  0  0  0  0
    3.4640   66.2710   69.3410 C   0  0  0  0  0  0  0  0  0  0  0  0
    3.0150   67.2250   68.2330 C   0  0  0  0  0  0  0  0  0  0  0  0
    4.0350   67.3310   67.1420 N   0  0  0  0  0  0  0  0  0  0  0  0
    3.5220   67.3220   65.7130 C   0  0  1  0  0  0  0  0  0  0  0  0
    4.1230   68.5690   65.0300 C   0  0  0  0  0  0  0  0  0  0  0  0
    3.9510   68.5170   63.5170 C   0  0  0  0  0  0  0  0  0  0  0  0
    4.6690   67.3010   62.9400 C   0  0  0  0  0  0  0  0  0  0  0  0
    4.3990   66.0470   63.7310 C   0  0  0  0  0  0  0  0  0  0  0  0
    4.7260   64.8610   63.1120 N   0  0  0  0  0  0  0  0  0  0  0  0
    4.5310   63.6150   63.6490 C   0  0  0  0  0  0  0  0  0  0  0  0
    4.8580   62.5820   63.0830 O   0  0  0  0  0  0  0  0  0  0  0  0
    3.8810   63.5940   64.9780 C   0  0  0  0  0  0  0  0  0  0  0  0
    3.5620   64.7470   65.5830 C   0  0  0  0  0  0  0  0  0  0  0  0
    3.8550   66.0380   64.9680 C   0  0  0  0  0  0  0  0  0  0  0  0
    4.9633   61.6188   72.7997 H   0  0  0  0  0  0  0  0  0  0  0  0
    3.1393   61.0801   74.3140 H   0  0  0  0  0  0  0  0  0  0  0  0
    4.1360   58.0630   70.6470 H   0  0  0  0  0  0  0  0  0  0  0  0
    1.4873   57.1836   71.1414 H   0  0  0  0  0  0  0  0  0  0  0  0
    2.9176   56.3051   71.8367 H   0  0  0  0  0  0  0  0  0  0  0  0
    0.6433   55.8122   72.9063 H   0  0  0  0  0  0  0  0  0  0  0  0
    1.9875   56.2888   74.0113 H   0  0  0  0  0  0  0  0  0  0  0  0
   -0.1924   58.1408   72.9374 H   0  0  0  0  0  0  0  0  0  0  0  0
   -0.1021   57.4359   74.6039 H   0  0  0  0  0  0  0  0  0  0  0  0
    1.8449   58.7218   75.1569 H   0  0  0  0  0  0  0  0  0  0  0  0
    0.9830   61.0400   74.2010 H   0  0  0  0  0  0  0  0  0  0  0  0
    0.1740   60.2220   75.3420 H   0  0  0  0  0  0  0  0  0  0  0  0
   -0.7133   59.3905   72.7504 H   0  0  0  0  0  0  0  0  0  0  0  0
   -1.6583   60.0419   74.1407 H   0  0  0  0  0  0  0  0  0  0  0  0
   -1.4633   61.3875   71.8516 H   0  0  0  0  0  0  0  0  0  0  0  0
   -1.4298   62.2239   73.4700 H   0  0  0  0  0  0  0  0  0  0  0  0
    1.0654   62.1711   73.3664 H   0  0  0  0  0  0  0  0  0  0  0  0
    0.8942   61.5638   71.6487 H   0  0  0  0  0  0  0  0  0  0  0  0
   -0.6988   63.9181   71.9238 H   0  0  0  0  0  0  0  0  0  0  0  0
    0.9447   64.2605   72.5906 H   0  0  0  0  0  0  0  0  0  0  0  0
    0.0875   63.9004   69.8155 H   0  0  0  0  0  0  0  0  0  0  0  0
    1.6580   64.5227   70.5074 H   0  0  0  0  0  0  0  0  0  0  0  0
    1.6339   61.7111   70.8784 H   0  0  0  0  0  0  0  0  0  0  0  0
    1.1203   62.0608   69.1626 H   0  0  0  0  0  0  0  0  0  0  0  0
    3.6312   61.7214   69.6189 H   0  0  0  0  0  0  0  0  0  0  0  0
    3.0914   63.1769   68.6612 H   0  0  0  0  0  0  0  0  0  0  0  0
    3.1320   64.3720   70.9761 H   0  0  0  0  0  0  0  0  0  0  0  0
    4.2545   62.9775   71.4052 H   0  0  0  0  0  0  0  0  0  0  0  0
    5.5931   64.8533   70.8301 H   0  0  0  0  0  0  0  0  0  0  0  0
    5.6475   63.6067   69.4822 H   0  0  0  0  0  0  0  0  0  0  0  0
    5.5476   66.1083   68.8537 H   0  0  0  0  0  0  0  0  0  0  0  0
    4.4392   64.9021   68.0380 H   0  0  0  0  0  0  0  0  0  0  0  0
    2.6321   65.5890   69.5709 H   0  0  0  0  0  0  0  0  0  0  0  0
    3.7481   66.8905   70.2044 H   0  0  0  0  0  0  0  0  0  0  0  0
    2.0725   66.8539   67.8042 H   0  0  0  0  0  0  0  0  0  0  0  0
    2.8827   68.2236   68.6750 H   0  0  0  0  0  0  0  0  0  0  0  0
    4.6950   66.5440   67.2230 H   0  0  0  0  0  0  0  0  0  0  0  0
    4.6170   68.1620   67.3030 H   0  0  0  0  0  0  0  0  0  0  0  0
    2.4226   67.3571   65.7025 H   0  0  0  0  0  0  0  0  0  0  0  0
    3.6173   69.4663   65.4162 H   0  0  0  0  0  0  0  0  0  0  0  0
    5.1997   68.5984   65.2532 H   0  0  0  0  0  0  0  0  0  0  0  0
    2.8796   68.4529   63.2763 H   0  0  0  0  0  0  0  0  0  0  0  0
    4.3840   69.4278   63.0778 H   0  0  0  0  0  0  0  0  0  0  0  0
    4.3278   67.1469   61.9057 H   0  0  0  0  0  0  0  0  0  0  0  0
    5.7504   67.4983   62.9819 H   0  0  0  0  0  0  0  0  0  0  0  0
    5.1440   64.8580   62.1860 H   0  0  0  0  0  0  0  0  0  0  0  0
    3.6600   62.6345   65.4685 H   0  0  0  0  0  0  0  0  0  0  0  0
    3.0681   64.7196   66.5655 H   0  0  0  0  0  0  0  0  0  0  0  0
  1  2  2  0
  2  3  1  0
  3  4  2  0
  4  5  1  0
  5  6  2  0
  6  7  1  0
  6  8  1  0
  8  9  1  0
  9 10  1  0
 10 11  1  0
 11 12  1  0
 12 13  1  0
 13 14  1  0
 14 15  1  0
 15 16  1  0
 16 17  1  0
 17 18  1  0
 18 19  1  0
 19 20  1  0
 20 21  1  0
 21 22  1  0
 22 23  1  0
 23 24  1  0
 24 25  1  0
 25 26  1  0
 26 27  1  0
 27 28  1  0
 28 29  1  0
 29 30  1  0
 30 31  1  0
 31 32  1  0
 32 33  2  0
 32 34  1  0
 34 35  2  0
 35 36  1  0
  7  2  1  0
 36 26  1  0
 11  5  1  0
 36 30  2  0
  3 37  1  0
  4 38  1  0
  7 39  1  0
  8 40  1  0
  8 41  1  0
  9 42  1  0
  9 43  1  0
 10 44  1  0
 10 45  1  0
 11 46  1  1
 12 47  1  0
 12 48  1  0
 13 49  1  0
 13 50  1  0
 14 51  1  0
 14 52  1  0
 15 53  1  0
 15 54  1  0
 16 55  1  0
 16 56  1  0
 17 57  1  0
 17 58  1  0
 18 59  1  0
 18 60  1  0
 19 61  1  0
 19 62  1  0
 20 63  1  0
 20 64  1  0
 21 65  1  0
 21 66  1  0
 22 67  1  0
 22 68  1  0
 23 69  1  0
 23 70  1  0
 24 71  1  0
 24 72  1  0
 25 73  1  0
 25 74  1  0
 26 75  1  1
 27 76  1  0
 27 77  1  0
 28 78  1  0
 28 79  1  0
 29 80  1  0
 29 81  1  0
 31 82  1  0
 34 83  1  0
 35 84  1  0
M  CHG  2  12   1  25   1
M  END
>  <meeko>  (6) 
{"is_sidechain": [false], "free_energy": -10.534, "intermolecular_energy": -19.396, "internal_energy": -2.732}

$$$$
1h23_ligand
     RDKit          3D

 84 87  0  0  0  0  0  0  0  0999 V2000
    4.8240   62.6610   63.2480 O   0  0  0  0  0  0  0  0  0  0  0  0
    4.4790   63.6940   63.8020 C   0  0  0  0  0  0  0  0  0  0  0  0
    3.7370   63.6710   65.0840 C   0  0  0  0  0  0  0  0  0  0  0  0
    3.4000   64.8240   65.6800 C   0  0  0  0  0  0  0  0  0  0  0  0
    3.7660   66.1130   65.1000 C   0  0  0  0  0  0  0  0  0  0  0  0
    4.3890   66.1270   63.9020 C   0  0  0  0  0  0  0  0  0  0  0  0
    4.7330   64.9430   63.2930 N   0  0  0  0  0  0  0  0  0  0  0  0
    4.7210   67.3890   63.1480 C   0  0  0  0  0  0  0  0  0  0  0  0
    3.9560   68.5990   63.6810 C   0  0  0  0  0  0  0  0  0  0  0  0
    4.0260   68.6480   65.2040 C   0  0  0  0  0  0  0  0  0  0  0  0
    3.4030   67.3870   65.8380 C   0  0  2  0  0  0  0  0  0  0  0  0
    3.8410   67.3650   67.2920 N   0  0  0  0  0  0  0  0  0  0  0  0
    2.7810   67.0670   68.3050 C   0  0  0  0  0  0  0  0  0  0  0  0
    3.3850   66.3500   69.5110 C   0  0  0  0  0  0  0  0  0  0  0  0
    4.6650   65.5790   69.1660 C   0  0  0  0  0  0  0  0  0  0  0  0
    4.8360   64.2770   69.9570 C   0  0  0  0  0  0  0  0  0  0  0  0
    3.4930   63.8020   70.5230 C   0  0  0  0  0  0  0  0  0  0  0  0
    2.7950   62.7610   69.6400 C   0  0  0  0  0  0  0  0  0  0  0  0
    1.6660   62.0140   70.3600 C   0  0  0  0  0  0  0  0  0  0  0  0
    0.4660   62.9120   70.6950 C   0  0  0  0  0  0  0  0  0  0  0  0
   -0.2480   62.5880   72.0130 C   0  0  0  0  0  0  0  0  0  0  0  0
   -0.2070   61.1080   72.4190 C   0  0  0  0  0  0  0  0  0  0  0  0
   -1.2080   60.7360   73.5120 C   0  0  0  0  0  0  0  0  0  0  0  0
   -0.7380   59.5930   74.4120 C   0  0  0  0  0  0  0  0  0  0  0  0
    0.7010   59.7430   74.7970 N   0  0  0  0  0  0  0  0  0  0  0  0
    1.6430   58.6180   74.4060 C   0  0  1  0  0  0  0  0  0  0  0  0
    0.7500   57.4560   73.9210 C   0  0  0  0  0  0  0  0  0  0  0  0
    1.5640   56.3850   73.2050 C   0  0  0  0  0  0  0  0  0  0  0  0
    2.2480   56.9700   71.9720 C   0  0  0  0  0  0  0  0  0  0  0  0
    2.9070   58.2950   72.2570 C   0  0  0  0  0  0  0  0  0  0  0  0
    3.8120   58.7330   71.3170 N   0  0  0  0  0  0  0  0  0  0  0  0
    4.5370   59.8930   71.4040 C   0  0  0  0  0  0  0  0  0  0  0  0
    5.3140   60.2660   70.5370 O   0  0  0  0  0  0  0  0  0  0  0  0
    4.3270   60.6780   72.6400 C   0  0  0  0  0  0  0  0  0  0  0  0
    3.4460   60.2540   73.5580 C   0  0  0  0  0  0  0  0  0  0  0  0
    2.6690   59.0340   73.3630 C   0  0  0  0  0  0  0  0  0  0  0  0
    3.4633   62.7108   65.5457 H   0  0  0  0  0  0  0  0  0  0  0  0
    2.8367   64.7982   66.6245 H   0  0  0  0  0  0  0  0  0  0  0  0
    5.2120   64.9410   62.3960 H   0  0  0  0  0  0  0  0  0  0  0  0
    5.7997   67.5833   63.2405 H   0  0  0  0  0  0  0  0  0  0  0  0
    4.4289   67.2412   62.0978 H   0  0  0  0  0  0  0  0  0  0  0  0
    4.3991   69.5175   63.2687 H   0  0  0  0  0  0  0  0  0  0  0  0
    2.9024   68.5157   63.3762 H   0  0  0  0  0  0  0  0  0  0  0  0
    5.0797   68.7197   65.5115 H   0  0  0  0  0  0  0  0  0  0  0  0
    3.4579   69.5248   65.5482 H   0  0  0  0  0  0  0  0  0  0  0  0
    2.3061   67.4309   65.7676 H   0  0  0  0  0  0  0  0  0  0  0  0
    4.3020   68.2510   67.5390 H   0  0  0  0  0  0  0  0  0  0  0  0
    4.5910   66.6650   67.3780 H   0  0  0  0  0  0  0  0  0  0  0  0
    2.3209   68.0096   68.6365 H   0  0  0  0  0  0  0  0  0  0  0  0
    2.0213   66.4169   67.8465 H   0  0  0  0  0  0  0  0  0  0  0  0
    3.6226   67.0981   70.2816 H   0  0  0  0  0  0  0  0  0  0  0  0
    2.6440   65.6186   69.8660 H   0  0  0  0  0  0  0  0  0  0  0  0
    4.6433   65.3331   68.0941 H   0  0  0  0  0  0  0  0  0  0  0  0
    5.5117   66.2288   69.4322 H   0  0  0  0  0  0  0  0  0  0  0  0
    5.2410   63.5011   69.2907 H   0  0  0  0  0  0  0  0  0  0  0  0
    5.5253   64.4616   70.7941 H   0  0  0  0  0  0  0  0  0  0  0  0
    3.6696   63.3572   71.5134 H   0  0  0  0  0  0  0  0  0  0  0  0
    2.8327   64.6803   70.5739 H   0  0  0  0  0  0  0  0  0  0  0  0
    2.3712   63.2740   68.7641 H   0  0  0  0  0  0  0  0  0  0  0  0
    3.5513   62.0140   69.3571 H   0  0  0  0  0  0  0  0  0  0  0  0
    1.3200   61.1947   69.7126 H   0  0  0  0  0  0  0  0  0  0  0  0
    2.0736   61.6432   71.3121 H   0  0  0  0  0  0  0  0  0  0  0  0
    0.8236   63.9508   70.7488 H   0  0  0  0  0  0  0  0  0  0  0  0
   -0.2734   62.7408   69.8987 H   0  0  0  0  0  0  0  0  0  0  0  0
    0.2262   63.1758   72.8128 H   0  0  0  0  0  0  0  0  0  0  0  0
   -1.3082   62.8388   71.8613 H   0  0  0  0  0  0  0  0  0  0  0  0
   -0.4241   60.4990   71.5291 H   0  0  0  0  0  0  0  0  0  0  0  0
    0.7963   60.9175   72.8277 H   0  0  0  0  0  0  0  0  0  0  0  0
   -1.3829   61.6226   74.1392 H   0  0  0  0  0  0  0  0  0  0  0  0
   -2.1228   60.3924   73.0070 H   0  0  0  0  0  0  0  0  0  0  0  0
   -1.3515   59.5836   75.3250 H   0  0  0  0  0  0  0  0  0  0  0  0
   -0.8456   58.6518   73.8530 H   0  0  0  0  0  0  0  0  0  0  0  0
    0.7650   59.8370   75.8220 H   0  0  0  0  0  0  0  0  0  0  0  0
    1.0540   60.6400   74.4420 H   0  0  0  0  0  0  0  0  0  0  0  0
    2.2528   58.3137   75.2695 H   0  0  0  0  0  0  0  0  0  0  0  0
    0.2500   57.0032   74.7899 H   0  0  0  0  0  0  0  0  0  0  0  0
    0.0135   57.8608   73.2112 H   0  0  0  0  0  0  0  0  0  0  0  0
    2.3287   55.9921   73.8912 H   0  0  0  0  0  0  0  0  0  0  0  0
    0.8886   55.5768   72.8879 H   0  0  0  0  0  0  0  0  0  0  0  0
    3.0141   56.2619   71.6233 H   0  0  0  0  0  0  0  0  0  0  0  0
    1.4758   57.1364   71.2065 H   0  0  0  0  0  0  0  0  0  0  0  0
    3.9920   58.1880   70.4770 H   0  0  0  0  0  0  0  0  0  0  0  0
    4.8920   61.6071   72.8058 H   0  0  0  0  0  0  0  0  0  0  0  0
    3.3058   60.8391   74.4789 H   0  0  0  0  0  0  0  0  0  0  0  0
  1  2  2  0
  2  3  1  0
  3  4  2  0
  4  5  1  0
  5  6  2  0
  6  7  1  0
  6  8  1  0
  8  9  1  0
  9 10  1  0
 10 11  1  0
 11 12  1  0
 12 13  1  0
 13 14  1  0
 14 15  1  0
 15 16  1  0
 16 17  1  0
 17 18  1  0
 18 19  1  0
 19 20  1  0
 20 21  1  0
 21 22  1  0
 22 23  1  0
 23 24  1  0
 24 25  1  0
 25 26  1  0
 26 27  1  0
 27 28  1  0
 28 29  1  0
 29 30  1  0
 30 31  1  0
 31 32  1  0
 32 33  2  0
 32 34  1  0
 34 35  2  0
 35 36  1  0
  7  2  1  0
 36 26  1  0
 11  5  1  0
 36 30  2  0
  3 37  1  0
  4 38  1  0
  7 39  1  0
  8 40  1  0
  8 41  1  0
  9 42  1  0
  9 43  1  0
 10 44  1  0
 10 45  1  0
 11 46  1  1
 12 47  1  0
 12 48  1  0
 13 49  1  0
 13 50  1  0
 14 51  1  0
 14 52  1  0
 15 53  1  0
 15 54  1  0
 16 55  1  0
 16 56  1  0
 17 57  1  0
 17 58  1  0
 18 59  1  0
 18 60  1  0
 19 61  1  0
 19 62  1  0
 20 63  1  0
 20 64  1  0
 21 65  1  0
 21 66  1  0
 22 67  1  0
 22 68  1  0
 23 69  1  0
 23 70  1  0
 24 71  1  0
 24 72  1  0
 25 73  1  0
 25 74  1  0
 26 75  1  1
 27 76  1  0
 27 77  1  0
 28 78  1  0
 28 79  1  0
 29 80  1  0
 29 81  1  0
 31 82  1  0
 34 83  1  0
 35 84  1  0
M  CHG  2  12   1  25   1
M  END
>  <meeko>  (7) 
{"is_sidechain": [false], "free_energy": -10.448, "intermolecular_energy": -19.368, "internal_energy": -2.598}

$$$$
1h23_ligand
     RDKit          3D

 84 87  0  0  0  0  0  0  0  0999 V2000
    0.8020   68.5750   60.1900 O   0  0  0  0  0  0  0  0  0  0  0  0
    1.0860   68.5040   61.3760 C   0  0  0  0  0  0  0  0  0  0  0  0
    0.0350   68.4540   62.4190 C   0  0  0  0  0  0  0  0  0  0  0  0
    0.3820   68.3470   63.7100 C   0  0  0  0  0  0  0  0  0  0  0  0
    1.7810   68.2580   64.1150 C   0  0  0  0  0  0  0  0  0  0  0  0
    2.7350   68.3650   63.1650 C   0  0  0  0  0  0  0  0  0  0  0  0
    2.3770   68.4750   61.8410 N   0  0  0  0  0  0  0  0  0  0  0  0
    4.2110   68.3980   63.4640 C   0  0  0  0  0  0  0  0  0  0  0  0
    4.4970   68.6820   64.9380 C   0  0  0  0  0  0  0  0  0  0  0  0
    3.6150   67.8140   65.8300 C   0  0  0  0  0  0  0  0  0  0  0  0
    2.1180   68.0890   65.5840 C   0  0  2  0  0  0  0  0  0  0  0  0
    1.3500   66.9500   66.2320 N   0  0  0  0  0  0  0  0  0  0  0  0
    0.4300   67.3170   67.3540 C   0  0  0  0  0  0  0  0  0  0  0  0
    1.2270   67.5880   68.6280 C   0  0  0  0  0  0  0  0  0  0  0  0
    1.9630   66.3470   69.1470 C   0  0  0  0  0  0  0  0  0  0  0  0
    3.4510   66.5810   69.4310 C   0  0  0  0  0  0  0  0  0  0  0  0
    4.2920   65.3990   68.9350 C   0  0  0  0  0  0  0  0  0  0  0  0
    4.8960   64.5650   70.0710 C   0  0  0  0  0  0  0  0  0  0  0  0
    4.3290   63.1420   70.1450 C   0  0  0  0  0  0  0  0  0  0  0  0
    3.0210   63.0550   70.9460 C   0  0  0  0  0  0  0  0  0  0  0  0
    1.7780   62.6780   70.1300 C   0  0  0  0  0  0  0  0  0  0  0  0
    0.4480   62.8250   70.8820 C   0  0  0  0  0  0  0  0  0  0  0  0
    0.6060   63.0260   72.3890 C   0  0  0  0  0  0  0  0  0  0  0  0
   -0.3780   62.2030   73.2240 C   0  0  0  0  0  0  0  0  0  0  0  0
   -0.4380   60.7780   72.7690 N   0  0  0  0  0  0  0  0  0  0  0  0
    0.3280   59.7580   73.5910 C   0  0  1  0  0  0  0  0  0  0  0  0
   -0.7300   58.8270   74.2210 C   0  0  0  0  0  0  0  0  0  0  0  0
   -0.0950   57.5750   74.8130 C   0  0  0  0  0  0  0  0  0  0  0  0
    0.6150   56.7730   73.7250 C   0  0  0  0  0  0  0  0  0  0  0  0
    1.4570   57.6440   72.8290 C   0  0  0  0  0  0  0  0  0  0  0  0
    2.3770   56.9880   72.0430 N   0  0  0  0  0  0  0  0  0  0  0  0
    3.2550   57.5990   71.1850 C   0  0  0  0  0  0  0  0  0  0  0  0
    4.0420   56.9840   70.4800 O   0  0  0  0  0  0  0  0  0  0  0  0
    3.1980   59.0770   71.1700 C   0  0  0  0  0  0  0  0  0  0  0  0
    2.3030   59.7190   71.9340 C   0  0  0  0  0  0  0  0  0  0  0  0
    1.3620   58.9920   72.7800 C   0  0  0  0  0  0  0  0  0  0  0  0
   -1.0266   68.5045   62.1354 H   0  0  0  0  0  0  0  0  0  0  0  0
   -0.4040   68.3259   64.4792 H   0  0  0  0  0  0  0  0  0  0  0  0
    3.0860   68.5450   61.1160 H   0  0  0  0  0  0  0  0  0  0  0  0
    4.6474   67.4233   63.2002 H   0  0  0  0  0  0  0  0  0  0  0  0
    4.6566   69.2107   62.8717 H   0  0  0  0  0  0  0  0  0  0  0  0
    5.5538   68.4628   65.1505 H   0  0  0  0  0  0  0  0  0  0  0  0
    4.2803   69.7404   65.1451 H   0  0  0  0  0  0  0  0  0  0  0  0
    3.8236   66.7552   65.6171 H   0  0  0  0  0  0  0  0  0  0  0  0
    3.8422   68.0547   66.8790 H   0  0  0  0  0  0  0  0  0  0  0  0
    1.8317   69.0509   66.0344 H   0  0  0  0  0  0  0  0  0  0  0  0
    1.9990   66.2200   66.5550 H   0  0  0  0  0  0  0  0  0  0  0  0
    0.8050   66.4850   65.4920 H   0  0  0  0  0  0  0  0  0  0  0  0
   -0.1337   68.2209   67.0798 H   0  0  0  0  0  0  0  0  0  0  0  0
   -0.2618   66.4814   67.5365 H   0  0  0  0  0  0  0  0  0  0  0  0
    1.9681   68.3733   68.4180 H   0  0  0  0  0  0  0  0  0  0  0  0
    0.5122   67.8968   69.4050 H   0  0  0  0  0  0  0  0  0  0  0  0
    1.4792   66.0223   70.0800 H   0  0  0  0  0  0  0  0  0  0  0  0
    1.9049   65.5865   68.3544 H   0  0  0  0  0  0  0  0  0  0  0  0
    3.7768   67.4968   68.9160 H   0  0  0  0  0  0  0  0  0  0  0  0
    3.5911   66.6823   70.5173 H   0  0  0  0  0  0  0  0  0  0  0  0
    3.6506   64.7457   68.3253 H   0  0  0  0  0  0  0  0  0  0  0  0
    5.1294   65.8154   68.3559 H   0  0  0  0  0  0  0  0  0  0  0  0
    5.9832   64.5003   69.9169 H   0  0  0  0  0  0  0  0  0  0  0  0
    4.6410   65.0674   71.0158 H   0  0  0  0  0  0  0  0  0  0  0  0
    4.1368   62.7881   69.1214 H   0  0  0  0  0  0  0  0  0  0  0  0
    5.0729   62.5192   70.6634 H   0  0  0  0  0  0  0  0  0  0  0  0
    3.1538   62.2979   71.7328 H   0  0  0  0  0  0  0  0  0  0  0  0
    2.8344   64.0666   71.3357 H   0  0  0  0  0  0  0  0  0  0  0  0
    1.7424   63.3252   69.2412 H   0  0  0  0  0  0  0  0  0  0  0  0
    1.8796   61.6106   69.8844 H   0  0  0  0  0  0  0  0  0  0  0  0
   -0.0877   63.6936   70.4713 H   0  0  0  0  0  0  0  0  0  0  0  0
   -0.1030   61.8833   70.7421 H   0  0  0  0  0  0  0  0  0  0  0  0
    1.6289   62.7376   72.6728 H   0  0  0  0  0  0  0  0  0  0  0  0
    0.3970   64.0859   72.5965 H   0  0  0  0  0  0  0  0  0  0  0  0
   -0.0590   62.2275   74.2765 H   0  0  0  0  0  0  0  0  0  0  0  0
   -1.3792   62.6425   73.1036 H   0  0  0  0  0  0  0  0  0  0  0  0
   -0.0700   60.7180   71.8080 H   0  0  0  0  0  0  0  0  0  0  0  0
   -1.4210   60.4940   72.6790 H   0  0  0  0  0  0  0  0  0  0  0  0
    0.9218   60.2636   74.3668 H   0  0  0  0  0  0  0  0  0  0  0  0
   -1.2552   59.3722   75.0190 H   0  0  0  0  0  0  0  0  0  0  0  0
   -1.4294   58.5169   73.4306 H   0  0  0  0  0  0  0  0  0  0  0  0
    0.6349   57.8678   75.5821 H   0  0  0  0  0  0  0  0  0  0  0  0
   -0.8840   56.9513   75.2586 H   0  0  0  0  0  0  0  0  0  0  0  0
    1.2648   56.0256   74.2037 H   0  0  0  0  0  0  0  0  0  0  0  0
   -0.1558   56.2957   73.1021 H   0  0  0  0  0  0  0  0  0  0  0  0
    2.4500   55.9750   72.0660 H   0  0  0  0  0  0  0  0  0  0  0  0
    3.8890   59.6484   70.5329 H   0  0  0  0  0  0  0  0  0  0  0  0
    2.2773   60.8186   71.9230 H   0  0  0  0  0  0  0  0  0  0  0  0
  1  2  2  0
  2  3  1  0
  3  4  2  0
  4  5  1  0
  5  6  2  0
  6  7  1  0
  6  8  1  0
  8  9  1  0
  9 10  1  0
 10 11  1  0
 11 12  1  0
 12 13  1  0
 13 14  1  0
 14 15  1  0
 15 16  1  0
 16 17  1  0
 17 18  1  0
 18 19  1  0
 19 20  1  0
 20 21  1  0
 21 22  1  0
 22 23  1  0
 23 24  1  0
 24 25  1  0
 25 26  1  0
 26 27  1  0
 27 28  1  0
 28 29  1  0
 29 30  1  0
 30 31  1  0
 31 32  1  0
 32 33  2  0
 32 34  1  0
 34 35  2  0
 35 36  1  0
  7  2  1  0
 36 26  1  0
 11  5  1  0
 36 30  2  0
  3 37  1  0
  4 38  1  0
  7 39  1  0
  8 40  1  0
  8 41  1  0
  9 42  1  0
  9 43  1  0
 10 44  1  0
 10 45  1  0
 11 46  1  1
 12 47  1  0
 12 48  1  0
 13 49  1  0
 13 50  1  0
 14 51  1  0
 14 52  1  0
 15 53  1  0
 15 54  1  0
 16 55  1  0
 16 56  1  0
 17 57  1  0
 17 58  1  0
 18 59  1  0
 18 60  1  0
 19 61  1  0
 19 62  1  0
 20 63  1  0
 20 64  1  0
 21 65  1  0
 21 66  1  0
 22 67  1  0
 22 68  1  0
 23 69  1  0
 23 70  1  0
 24 71  1  0
 24 72  1  0
 25 73  1  0
 25 74  1  0
 26 75  1  1
 27 76  1  0
 27 77  1  0
 28 78  1  0
 28 79  1  0
 29 80  1  0
 29 81  1  0
 31 82  1  0
 34 83  1  0
 35 84  1  0
M  CHG  2  12   1  25   1
M  END
>  <meeko>  (8) 
{"is_sidechain": [false], "free_energy": -10.373, "intermolecular_energy": -19.53, "internal_energy": -2.297}

$$$$
1h23_ligand
     RDKit          3D

 84 87  0  0  0  0  0  0  0  0999 V2000
   -1.8230   61.8580   73.7340 O   0  0  0  0  0  0  0  0  0  0  0  0
   -1.0340   60.9470   73.5350 C   0  0  0  0  0  0  0  0  0  0  0  0
    0.1770   61.1420   72.7040 C   0  0  0  0  0  0  0  0  0  0  0  0
    1.0370   60.1280   72.5310 C   0  0  0  0  0  0  0  0  0  0  0  0
    0.8190   58.8310   73.1630 C   0  0  0  0  0  0  0  0  0  0  0  0
   -0.3170   58.6420   73.8700 C   0  0  0  0  0  0  0  0  0  0  0  0
   -1.1980   59.6840   74.0460 N   0  0  0  0  0  0  0  0  0  0  0  0
   -0.7120   57.3220   74.4790 C   0  0  0  0  0  0  0  0  0  0  0  0
    0.0900   56.1560   73.9010 C   0  0  0  0  0  0  0  0  0  0  0  0
    1.5750   56.4980   73.8600 C   0  0  0  0  0  0  0  0  0  0  0  0
    1.8460   57.7320   72.9760 C   0  0  2  0  0  0  0  0  0  0  0  0
    3.2590   58.1940   73.2890 N   0  0  0  0  0  0  0  0  0  0  0  0
    4.1100   58.5820   72.1210 C   0  0  0  0  0  0  0  0  0  0  0  0
    3.5660   57.9580   70.8370 C   0  0  0  0  0  0  0  0  0  0  0  0
    3.2390   59.0000   69.7600 C   0  0  0  0  0  0  0  0  0  0  0  0
    4.1800   60.2100   69.7600 C   0  0  0  0  0  0  0  0  0  0  0  0
    3.3830   61.5190   69.7100 C   0  0  0  0  0  0  0  0  0  0  0  0
    3.7970   62.5240   70.7910 C   0  0  0  0  0  0  0  0  0  0  0  0
    3.3910   63.9660   70.4650 C   0  0  0  0  0  0  0  0  0  0  0  0
    4.5810   64.8530   70.0700 C   0  0  0  0  0  0  0  0  0  0  0  0
    4.3820   65.6900   68.8000 C   0  0  0  0  0  0  0  0  0  0  0  0
    3.7200   64.9420   67.6350 C   0  0  0  0  0  0  0  0  0  0  0  0
    4.3230   65.2640   66.2680 C   0  0  0  0  0  0  0  0  0  0  0  0
    3.3380   65.9250   65.3020 C   0  0  0  0  0  0  0  0  0  0  0  0
    2.9810   67.3130   65.7350 N   0  0  0  0  0  0  0  0  0  0  0  0
    3.4150   68.4520   64.8310 C   0  0  1  0  0  0  0  0  0  0  0  0
    4.9320   68.2770   64.6120 C   0  0  0  0  0  0  0  0  0  0  0  0
    5.4420   69.1590   63.4790 C   0  0  0  0  0  0  0  0  0  0  0  0
    4.7540   68.7900   62.1670 C   0  0  0  0  0  0  0  0  0  0  0  0
    3.2650   68.6240   62.3270 C   0  0  0  0  0  0  0  0  0  0  0  0
    2.5300   68.6200   61.1630 N   0  0  0  0  0  0  0  0  0  0  0  0
    1.1650   68.5100   61.0960 C   0  0  0  0  0  0  0  0  0  0  0  0
    0.5450   68.4820   60.0430 O   0  0  0  0  0  0  0  0  0  0  0  0
    0.4720   68.4370   62.4010 C   0  0  0  0  0  0  0  0  0  0  0  0
    1.1850   68.4410   63.5360 C   0  0  0  0  0  0  0  0  0  0  0  0
    2.6430   68.5020   63.5210 C   0  0  0  0  0  0  0  0  0  0  0  0
    0.3700   62.1159   72.2303 H   0  0  0  0  0  0  0  0  0  0  0  0
    1.9253   60.2769   71.8995 H   0  0  0  0  0  0  0  0  0  0  0  0
   -2.0510   59.5570   74.5850 H   0  0  0  0  0  0  0  0  0  0  0  0
   -0.5395   57.3669   75.5645 H   0  0  0  0  0  0  0  0  0  0  0  0
   -1.7736   57.1484   74.2490 H   0  0  0  0  0  0  0  0  0  0  0  0
   -0.0594   55.2665   74.5307 H   0  0  0  0  0  0  0  0  0  0  0  0
   -0.2580   55.9580   72.8764 H   0  0  0  0  0  0  0  0  0  0  0  0
    1.9220   56.7076   74.8826 H   0  0  0  0  0  0  0  0  0  0  0  0
    2.1151   55.6409   73.4315 H   0  0  0  0  0  0  0  0  0  0  0  0
    1.7556   57.4626   71.9133 H   0  0  0  0  0  0  0  0  0  0  0  0
    3.7530   57.4820   73.8430 H   0  0  0  0  0  0  0  0  0  0  0  0
    3.1860   58.9970   73.9290 H   0  0  0  0  0  0  0  0  0  0  0  0
    4.1100   59.6774   72.0202 H   0  0  0  0  0  0  0  0  0  0  0  0
    5.1346   58.2186   72.2888 H   0  0  0  0  0  0  0  0  0  0  0  0
    4.3200   57.2642   70.4369 H   0  0  0  0  0  0  0  0  0  0  0  0
    2.6291   57.4411   71.0920 H   0  0  0  0  0  0  0  0  0  0  0  0
    3.3019   58.5124   68.7760 H   0  0  0  0  0  0  0  0  0  0  0  0
    2.2304   59.3801   69.9795 H   0  0  0  0  0  0  0  0  0  0  0  0
    4.7891   60.1933   70.6758 H   0  0  0  0  0  0  0  0  0  0  0  0
    4.8249   60.1554   68.8705 H   0  0  0  0  0  0  0  0  0  0  0  0
    3.5363   61.9834   68.7247 H   0  0  0  0  0  0  0  0  0  0  0  0
    2.3280   61.2645   69.8893 H   0  0  0  0  0  0  0  0  0  0  0  0
    3.3211   62.2330   71.7391 H   0  0  0  0  0  0  0  0  0  0  0  0
    4.8949   62.5008   70.8545 H   0  0  0  0  0  0  0  0  0  0  0  0
    2.6756   63.9478   69.6296 H   0  0  0  0  0  0  0  0  0  0  0  0
    2.9498   64.3962   71.3762 H   0  0  0  0  0  0  0  0  0  0  0  0
    4.7822   65.5424   70.9032 H   0  0  0  0  0  0  0  0  0  0  0  0
    5.4133   64.1668   69.8546 H   0  0  0  0  0  0  0  0  0  0  0  0
    3.7509   66.5542   69.0548 H   0  0  0  0  0  0  0  0  0  0  0  0
    5.3871   65.9741   68.4551 H   0  0  0  0  0  0  0  0  0  0  0  0
    3.8244   63.8616   67.8135 H   0  0  0  0  0  0  0  0  0  0  0  0
    2.6693   65.2661   67.6042 H   0  0  0  0  0  0  0  0  0  0  0  0
    5.1745   65.9446   66.4156 H   0  0  0  0  0  0  0  0  0  0  0  0
    4.6240   64.3074   65.8159 H   0  0  0  0  0  0  0  0  0  0  0  0
    3.7955   65.9704   64.3027 H   0  0  0  0  0  0  0  0  0  0  0  0
    2.4170   65.3237   65.2883 H   0  0  0  0  0  0  0  0  0  0  0  0
    3.4000   67.4940   66.6590 H   0  0  0  0  0  0  0  0  0  0  0  0
    1.9690   67.3630   65.9070 H   0  0  0  0  0  0  0  0  0  0  0  0
    3.1939   69.4196   65.3052 H   0  0  0  0  0  0  0  0  0  0  0  0
    5.4596   68.5463   65.5389 H   0  0  0  0  0  0  0  0  0  0  0  0
    5.1212   67.2275   64.3421 H   0  0  0  0  0  0  0  0  0  0  0  0
    5.2301   70.2121   63.7158 H   0  0  0  0  0  0  0  0  0  0  0  0
    6.5259   69.0074   63.3687 H   0  0  0  0  0  0  0  0  0  0  0  0
    4.9439   69.5863   61.4322 H   0  0  0  0  0  0  0  0  0  0  0  0
    5.1651   67.8264   61.8318 H   0  0  0  0  0  0  0  0  0  0  0  0
    2.9890   68.7020   60.2600 H   0  0  0  0  0  0  0  0  0  0  0  0
   -0.6258   68.3796   62.4398 H   0  0  0  0  0  0  0  0  0  0  0  0
    0.6590   68.3973   64.5011 H   0  0  0  0  0  0  0  0  0  0  0  0
  1  2  2  0
  2  3  1  0
  3  4  2  0
  4  5  1  0
  5  6  2  0
  6  7  1  0
  6  8  1  0
  8  9  1  0
  9 10  1  0
 10 11  1  0
 11 12  1  0
 12 13  1  0
 13 14  1  0
 14 15  1  0
 15 16  1  0
 16 17  1  0
 17 18  1  0
 18 19  1  0
 19 20  1  0
 20 21  1  0
 21 22  1  0
 22 23  1  0
 23 24  1  0
 24 25  1  0
 25 26  1  0
 26 27  1  0
 27 28  1  0
 28 29  1  0
 29 30  1  0
 30 31  1  0
 31 32  1  0
 32 33  2  0
 32 34  1  0
 34 35  2  0
 35 36  1  0
  7  2  1  0
 36 26  1  0
 11  5  1  0
 36 30  2  0
  3 37  1  0
  4 38  1  0
  7 39  1  0
  8 40  1  0
  8 41  1  0
  9 42  1  0
  9 43  1  0
 10 44  1  0
 10 45  1  0
 11 46  1  6
 12 47  1  0
 12 48  1  0
 13 49  1  0
 13 50  1  0
 14 51  1  0
 14 52  1  0
 15 53  1  0
 15 54  1  0
 16 55  1  0
 16 56  1  0
 17 57  1  0
 17 58  1  0
 18 59  1  0
 18 60  1  0
 19 61  1  0
 19 62  1  0
 20 63  1  0
 20 64  1  0
 21 65  1  0
 21 66  1  0
 22 67  1  0
 22 68  1  0
 23 69  1  0
 23 70  1  0
 24 71  1  0
 24 72  1  0
 25 73  1  0
 25 74  1  0
 26 75  1  1
 27 76  1  0
 27 77  1  0
 28 78  1  0
 28 79  1  0
 29 80  1  0
 29 81  1  0
 31 82  1  0
 34 83  1  0
 35 84  1  0
M  CHG  2  12   1  25   1
M  END
>  <meeko>  (9) 
{"is_sidechain": [false], "free_energy": -10.146, "intermolecular_energy": -19.66, "internal_energy": -1.742}

$$$$
