1qf1_ligand
     RDKit          3D

 53 53  0  0  0  0  0  0  0  0999 V2000
   32.5200   44.6460  -10.7450 C   0  0  0  0  0  0  0  0  0  0  0  0
   33.4680   43.5930  -10.1910 C   0  0  0  0  0  0  0  0  0  0  0  0
   33.1080   42.1630  -10.6020 C   0  0  0  0  0  0  0  0  0  0  0  0
   33.5260   41.1130   -9.5690 C   0  0  0  0  0  0  0  0  0  0  0  0
   33.7550   41.6960   -8.1670 C   0  0  0  0  0  0  0  0  0  0  0  0
   34.6600   40.8830   -7.2300 C   0  0  2  0  0  0  0  0  0  0  0  0
   33.8720   39.3370   -6.6500 S   0  0  0  0  0  0  0  0  0  0  0  0
   35.0350   41.7550   -6.0240 C   0  0  0  0  0  0  0  0  0  0  0  0
   34.7600   42.9500   -5.9510 O   0  0  0  0  0  0  0  0  0  0  0  0
   35.7370   41.0720   -5.0510 N   0  0  0  0  0  0  0  0  0  0  0  0
   36.4550   41.7910   -3.9890 C   0  0  1  0  0  0  0  0  0  0  0  0
   35.5730   41.9930   -2.7480 C   0  0  0  0  0  0  0  0  0  0  0  0
   36.3140   42.6390   -1.6000 C   0  0  0  0  0  0  0  0  0  0  0  0
   36.7870   43.9530   -1.6990 C   0  0  0  0  0  0  0  0  0  0  0  0
   37.4880   44.5350   -0.6410 C   0  0  0  0  0  0  0  0  0  0  0  0
   37.7220   43.8070    0.5250 C   0  0  0  0  0  0  0  0  0  0  0  0
   37.2590   42.4980    0.6320 C   0  0  0  0  0  0  0  0  0  0  0  0
   36.5610   41.9140   -0.4250 C   0  0  0  0  0  0  0  0  0  0  0  0
   37.6550   40.9010   -3.6130 C   0  0  0  0  0  0  0  0  0  0  0  0
   38.7250   41.3870   -3.2410 O   0  0  0  0  0  0  0  0  0  0  0  0
   37.4350   39.5610   -3.7700 N   0  0  0  0  0  0  0  0  0  0  0  0
   38.4810   38.5230   -3.7090 C   0  0  1  0  0  0  0  0  0  0  0  0
   38.3250   37.6750   -2.4570 C   0  0  0  0  0  0  0  0  0  0  0  0
   38.4250   37.6070   -4.9790 C   0  0  0  0  0  0  0  0  0  0  0  0
   37.3400   37.7220   -5.6360 O   0  0  0  0  0  0  0  0  0  0  0  0
   39.4390   36.8950   -5.2070 O   0  0  0  0  0  0  0  0  0  0  0  0
   32.0388   45.1805   -9.9126 H   0  0  0  0  0  0  0  0  0  0  0  0
   33.0854   45.3604  -11.3615 H   0  0  0  0  0  0  0  0  0  0  0  0
   31.7504   44.1585  -11.3615 H   0  0  0  0  0  0  0  0  0  0  0  0
   34.4826   43.8137  -10.5543 H   0  0  0  0  0  0  0  0  0  0  0  0
   33.3951   43.6401   -9.0944 H   0  0  0  0  0  0  0  0  0  0  0  0
   32.0183   42.1030  -10.7396 H   0  0  0  0  0  0  0  0  0  0  0  0
   33.6555   41.9430  -11.5303 H   0  0  0  0  0  0  0  0  0  0  0  0
   32.7345   40.3518   -9.5053 H   0  0  0  0  0  0  0  0  0  0  0  0
   34.4837   40.6890   -9.9054 H   0  0  0  0  0  0  0  0  0  0  0  0
   34.2066   42.6917   -8.2881 H   0  0  0  0  0  0  0  0  0  0  0  0
   32.7654   41.7006   -7.6868 H   0  0  0  0  0  0  0  0  0  0  0  0
   35.5554   40.5914   -7.7986 H   0  0  0  0  0  0  0  0  0  0  0  0
   35.0180   38.7630   -6.2390 H   0  0  0  0  0  0  0  0  0  0  0  0
   36.2240   40.2350   -5.3550 H   0  0  0  0  0  0  0  0  0  0  0  0
   36.7577   42.7884   -4.3404 H   0  0  0  0  0  0  0  0  0  0  0  0
   34.7225   42.6344   -3.0223 H   0  0  0  0  0  0  0  0  0  0  0  0
   35.2435   40.9990   -2.4112 H   0  0  0  0  0  0  0  0  0  0  0  0
   36.6050   44.5311   -2.6170 H   0  0  0  0  0  0  0  0  0  0  0  0
   37.8558   45.5681   -0.7273 H   0  0  0  0  0  0  0  0  0  0  0  0
   38.2719   44.2663    1.3597 H   0  0  0  0  0  0  0  0  0  0  0  0
   37.4441   41.9236    1.5517 H   0  0  0  0  0  0  0  0  0  0  0  0
   36.2019   40.8780   -0.3365 H   0  0  0  0  0  0  0  0  0  0  0  0
   36.6170   39.2120   -4.2730 H   0  0  0  0  0  0  0  0  0  0  0  0
   39.4575   39.0284   -3.6764 H   0  0  0  0  0  0  0  0  0  0  0  0
   38.4419   38.3105   -1.5668 H   0  0  0  0  0  0  0  0  0  0  0  0
   37.3268   37.2129   -2.4491 H   0  0  0  0  0  0  0  0  0  0  0  0
   39.0934   36.8879   -2.4491 H   0  0  0  0  0  0  0  0  0  0  0  0
  1  2  1  0
  2  3  1  0
  3  4  1  0
  4  5  1  0
  5  6  1  0
  6  7  1  0
  6  8  1  0
  8  9  2  0
  8 10  1  0
 10 11  1  0
 11 12  1  0
 12 13  1  0
 13 14  2  0
 14 15  1  0
 15 16  2  0
 16 17  1  0
 17 18  2  0
 11 19  1  0
 19 20  2  0
 19 21  1  0
 21 22  1  0
 22 23  1  0
 22 24  1  0
 24 25  2  0
 24 26  1  0
 18 13  1  0
  1 27  1  0
  1 28  1  0
  1 29  1  0
  2 30  1  0
  2 31  1  0
  3 32  1  0
  3 33  1  0
  4 34  1  0
  4 35  1  0
  5 36  1  0
  5 37  1  0
  6 38  1  6
  7 39  1  0
 10 40  1  0
 11 41  1  6
 12 42  1  0
 12 43  1  0
 14 44  1  0
 15 45  1  0
 16 46  1  0
 17 47  1  0
 18 48  1  0
 21 49  1  0
 22 50  1  1
 23 51  1  0
 23 52  1  0
 23 53  1  0
M  CHG  1  26  -1
M  END
>  <meeko>  (1) 
{"is_sidechain": [false], "free_energy": -8.204, "intermolecular_energy": -13.72, "internal_energy": -0.847}

$$$$
1qf1_ligand
     RDKit          3D

 53 53  0  0  0  0  0  0  0  0999 V2000
   31.0130   37.4370   -8.2050 C   0  0  0  0  0  0  0  0  0  0  0  0
   32.3430   38.1560   -8.3750 C   0  0  0  0  0  0  0  0  0  0  0  0
   33.2350   38.1020   -7.1310 C   0  0  0  0  0  0  0  0  0  0  0  0
   34.7150   38.3470   -7.4380 C   0  0  0  0  0  0  0  0  0  0  0  0
   35.2890   39.5780   -6.7230 C   0  0  0  0  0  0  0  0  0  0  0  0
   34.3710   40.8070   -6.6390 C   0  0  2  0  0  0  0  0  0  0  0  0
   34.1830   41.6610   -8.2460 S   0  0  0  0  0  0  0  0  0  0  0  0
   34.9430   41.7820   -5.6010 C   0  0  0  0  0  0  0  0  0  0  0  0
   34.9750   42.9980   -5.7720 O   0  0  0  0  0  0  0  0  0  0  0  0
   35.4440   41.1560   -4.4780 N   0  0  0  0  0  0  0  0  0  0  0  0
   36.3110   41.8730   -3.5320 C   0  0  1  0  0  0  0  0  0  0  0  0
   35.6340   42.0440   -2.1640 C   0  0  0  0  0  0  0  0  0  0  0  0
   36.5070   42.7680   -1.1640 C   0  0  0  0  0  0  0  0  0  0  0  0
   36.9490   42.1260   -0.0010 C   0  0  0  0  0  0  0  0  0  0  0  0
   37.7390   42.8080    0.9270 C   0  0  0  0  0  0  0  0  0  0  0  0
   38.0930   44.1370    0.6990 C   0  0  0  0  0  0  0  0  0  0  0  0
   37.6540   44.7850   -0.4530 C   0  0  0  0  0  0  0  0  0  0  0  0
   36.8630   44.1060   -1.3800 C   0  0  0  0  0  0  0  0  0  0  0  0
   37.5690   41.0000   -3.3660 C   0  0  0  0  0  0  0  0  0  0  0  0
   38.6950   41.4420   -3.6050 O   0  0  0  0  0  0  0  0  0  0  0  0
   37.3160   39.7130   -2.9800 N   0  0  0  0  0  0  0  0  0  0  0  0
   38.3100   38.6230   -2.9800 C   0  0  1  0  0  0  0  0  0  0  0  0
   37.8680   37.4920   -2.0650 C   0  0  0  0  0  0  0  0  0  0  0  0
   38.5290   38.0760   -4.4310 C   0  0  0  0  0  0  0  0  0  0  0  0
   39.7450   38.1200   -4.8080 O   0  0  0  0  0  0  0  0  0  0  0  0
   37.5080   37.6510   -5.0360 O   0  0  0  0  0  0  0  0  0  0  0  0
   30.7944   37.3188   -7.1334 H   0  0  0  0  0  0  0  0  0  0  0  0
   30.2144   38.0262   -8.6793 H   0  0  0  0  0  0  0  0  0  0  0  0
   31.0686   36.4461   -8.6793 H   0  0  0  0  0  0  0  0  0  0  0  0
   32.8850   37.6907   -9.2115 H   0  0  0  0  0  0  0  0  0  0  0  0
   32.1143   39.2157   -8.5611 H   0  0  0  0  0  0  0  0  0  0  0  0
   32.8932   38.8707   -6.4223 H   0  0  0  0  0  0  0  0  0  0  0  0
   33.1517   37.0879   -6.7132 H   0  0  0  0  0  0  0  0  0  0  0  0
   35.2877   37.4621   -7.1234 H   0  0  0  0  0  0  0  0  0  0  0  0
   34.7967   38.5314   -8.5193 H   0  0  0  0  0  0  0  0  0  0  0  0
   35.5444   39.2798   -5.6955 H   0  0  0  0  0  0  0  0  0  0  0  0
   36.1488   39.8956   -7.3312 H   0  0  0  0  0  0  0  0  0  0  0  0
   33.3705   40.4586   -6.3430 H   0  0  0  0  0  0  0  0  0  0  0  0
   34.3820   40.5600   -8.9940 H   0  0  0  0  0  0  0  0  0  0  0  0
   35.7080   40.1820   -4.5890 H   0  0  0  0  0  0  0  0  0  0  0  0
   36.5393   42.8801   -3.9109 H   0  0  0  0  0  0  0  0  0  0  0  0
   34.7058   42.6182   -2.3007 H   0  0  0  0  0  0  0  0  0  0  0  0
   35.4369   41.0383   -1.7643 H   0  0  0  0  0  0  0  0  0  0  0  0
   36.6722   41.0774    0.1831 H   0  0  0  0  0  0  0  0  0  0  0  0
   38.0821   42.2963    1.8383 H   0  0  0  0  0  0  0  0  0  0  0  0
   38.7183   44.6732    1.4281 H   0  0  0  0  0  0  0  0  0  0  0  0
   37.9315   45.8342   -0.6322 H   0  0  0  0  0  0  0  0  0  0  0  0
   36.5165   44.6242   -2.2863 H   0  0  0  0  0  0  0  0  0  0  0  0
   36.3690   39.3300   -2.9940 H   0  0  0  0  0  0  0  0  0  0  0  0
   39.2604   39.0313   -2.6058 H   0  0  0  0  0  0  0  0  0  0  0  0
   37.9886   37.8006   -1.0161 H   0  0  0  0  0  0  0  0  0  0  0  0
   36.8113   37.2555   -2.2585 H   0  0  0  0  0  0  0  0  0  0  0  0
   38.4844   36.6017   -2.2585 H   0  0  0  0  0  0  0  0  0  0  0  0
  1  2  1  0
  2  3  1  0
  3  4  1  0
  4  5  1  0
  5  6  1  0
  6  7  1  0
  6  8  1  0
  8  9  2  0
  8 10  1  0
 10 11  1  0
 11 12  1  0
 12 13  1  0
 13 14  2  0
 14 15  1  0
 15 16  2  0
 16 17  1  0
 17 18  2  0
 11 19  1  0
 19 20  2  0
 19 21  1  0
 21 22  1  0
 22 23  1  0
 22 24  1  0
 24 25  2  0
 24 26  1  0
 18 13  1  0
  1 27  1  0
  1 28  1  0
  1 29  1  0
  2 30  1  0
  2 31  1  0
  3 32  1  0
  3 33  1  0
  4 34  1  0
  4 35  1  0
  5 36  1  0
  5 37  1  0
  6 38  1  1
  7 39  1  0
 10 40  1  0
 11 41  1  6
 12 42  1  0
 12 43  1  0
 14 44  1  0
 15 45  1  0
 16 46  1  0
 17 47  1  0
 18 48  1  0
 21 49  1  0
 22 50  1  1
 23 51  1  0
 23 52  1  0
 23 53  1  0
M  CHG  1  26  -1
M  END
>  <meeko>  (2) 
{"is_sidechain": [false], "free_energy": -7.939, "intermolecular_energy": -12.868, "internal_energy": -1.255}

$$$$
1qf1_ligand
     RDKit          3D

 53 53  0  0  0  0  0  0  0  0999 V2000
   37.3290   36.5080   -8.2170 C   0  0  0  0  0  0  0  0  0  0  0  0
   35.8660   36.0950   -8.2850 C   0  0  0  0  0  0  0  0  0  0  0  0
   34.9010   37.1640   -7.7650 C   0  0  0  0  0  0  0  0  0  0  0  0
   35.3810   38.5930   -8.0330 C   0  0  0  0  0  0  0  0  0  0  0  0
   35.4650   39.4550   -6.7660 C   0  0  0  0  0  0  0  0  0  0  0  0
   34.4360   40.5880   -6.6420 C   0  0  2  0  0  0  0  0  0  0  0  0
   34.0800   41.4000   -8.2440 S   0  0  0  0  0  0  0  0  0  0  0  0
   34.9610   41.6280   -5.6430 C   0  0  0  0  0  0  0  0  0  0  0  0
   34.9660   42.8350   -5.8750 O   0  0  0  0  0  0  0  0  0  0  0  0
   35.4550   41.0710   -4.4810 N   0  0  0  0  0  0  0  0  0  0  0  0
   36.2840   41.8570   -3.5560 C   0  0  1  0  0  0  0  0  0  0  0  0
   35.5620   42.1050   -2.2230 C   0  0  0  0  0  0  0  0  0  0  0  0
   36.4320   42.8100   -1.2070 C   0  0  0  0  0  0  0  0  0  0  0  0
   36.8300   44.1380   -1.4030 C   0  0  0  0  0  0  0  0  0  0  0  0
   37.6500   44.7760   -0.4690 C   0  0  0  0  0  0  0  0  0  0  0  0
   38.0780   44.0910    0.6670 C   0  0  0  0  0  0  0  0  0  0  0  0
   37.6900   42.7680    0.8690 C   0  0  0  0  0  0  0  0  0  0  0  0
   36.8730   42.1290   -0.0640 C   0  0  0  0  0  0  0  0  0  0  0  0
   37.5450   41.0120   -3.2960 C   0  0  0  0  0  0  0  0  0  0  0  0
   38.6750   41.4880   -3.4180 O   0  0  0  0  0  0  0  0  0  0  0  0
   37.2930   39.7090   -2.9700 N   0  0  0  0  0  0  0  0  0  0  0  0
   38.3130   38.6440   -2.9060 C   0  0  1  0  0  0  0  0  0  0  0  0
   37.8810   37.5420   -1.9510 C   0  0  0  0  0  0  0  0  0  0  0  0
   38.5720   38.0410   -4.3280 C   0  0  0  0  0  0  0  0  0  0  0  0
   37.5330   37.5240   -4.8530 O   0  0  0  0  0  0  0  0  0  0  0  0
   39.7420   38.1480   -4.7830 O   0  0  0  0  0  0  0  0  0  0  0  0
   37.6369   36.5949   -7.1646 H   0  0  0  0  0  0  0  0  0  0  0  0
   37.9478   35.7494   -8.7186 H   0  0  0  0  0  0  0  0  0  0  0  0
   37.4598   37.4782   -8.7186 H   0  0  0  0  0  0  0  0  0  0  0  0
   35.6140   35.8801   -9.3340 H   0  0  0  0  0  0  0  0  0  0  0  0
   35.7498   35.2138   -7.6370 H   0  0  0  0  0  0  0  0  0  0  0  0
   33.9270   37.0245   -8.2569 H   0  0  0  0  0  0  0  0  0  0  0  0
   34.8348   37.0411   -6.6739 H   0  0  0  0  0  0  0  0  0  0  0  0
   36.3808   38.5453   -8.4893 H   0  0  0  0  0  0  0  0  0  0  0  0
   34.6426   39.0644   -8.6983 H   0  0  0  0  0  0  0  0  0  0  0  0
   35.3365   38.7898   -5.8994 H   0  0  0  0  0  0  0  0  0  0  0  0
   36.4442   39.9536   -6.8160 H   0  0  0  0  0  0  0  0  0  0  0  0
   33.4923   40.1457   -6.2903 H   0  0  0  0  0  0  0  0  0  0  0  0
   34.8360   40.5610   -8.9760 H   0  0  0  0  0  0  0  0  0  0  0  0
   35.7460   40.1000   -4.5380 H   0  0  0  0  0  0  0  0  0  0  0  0
   36.5137   42.8410   -3.9907 H   0  0  0  0  0  0  0  0  0  0  0  0
   34.6734   42.7243   -2.4147 H   0  0  0  0  0  0  0  0  0  0  0  0
   35.2934   41.1238   -1.8046 H   0  0  0  0  0  0  0  0  0  0  0  0
   36.4949   44.6825   -2.2981 H   0  0  0  0  0  0  0  0  0  0  0  0
   37.9581   45.8196   -0.6302 H   0  0  0  0  0  0  0  0  0  0  0  0
   38.7216   44.5944    1.4035 H   0  0  0  0  0  0  0  0  0  0  0  0
   38.0282   42.2269    1.7650 H   0  0  0  0  0  0  0  0  0  0  0  0
   36.5728   41.0833    0.0985 H   0  0  0  0  0  0  0  0  0  0  0  0
   36.3630   39.3020   -3.0820 H   0  0  0  0  0  0  0  0  0  0  0  0
   39.2463   39.0913   -2.5333 H   0  0  0  0  0  0  0  0  0  0  0  0
   38.0145   37.8826   -0.9136 H   0  0  0  0  0  0  0  0  0  0  0  0
   36.8218   37.3010   -2.1243 H   0  0  0  0  0  0  0  0  0  0  0  0
   38.4942   36.6454   -2.1243 H   0  0  0  0  0  0  0  0  0  0  0  0
  1  2  1  0
  2  3  1  0
  3  4  1  0
  4  5  1  0
  5  6  1  0
  6  7  1  0
  6  8  1  0
  8  9  2  0
  8 10  1  0
 10 11  1  0
 11 12  1  0
 12 13  1  0
 13 14  2  0
 14 15  1  0
 15 16  2  0
 16 17  1  0
 17 18  2  0
 11 19  1  0
 19 20  2  0
 19 21  1  0
 21 22  1  0
 22 23  1  0
 22 24  1  0
 24 25  2  0
 24 26  1  0
 18 13  1  0
  1 27  1  0
  1 28  1  0
  1 29  1  0
  2 30  1  0
  2 31  1  0
  3 32  1  0
  3 33  1  0
  4 34  1  0
  4 35  1  0
  5 36  1  0
  5 37  1  0
  6 38  1  1
  7 39  1  0
 10 40  1  0
 11 41  1  6
 12 42  1  0
 12 43  1  0
 14 44  1  0
 15 45  1  0
 16 46  1  0
 17 47  1  0
 18 48  1  0
 21 49  1  0
 22 50  1  1
 23 51  1  0
 23 52  1  0
 23 53  1  0
M  CHG  1  26  -1
M  END
>  <meeko>  (3) 
{"is_sidechain": [false], "free_energy": -7.583, "intermolecular_energy": -12.262, "internal_energy": -1.266}

$$$$
1qf1_ligand
     RDKit          3D

 53 53  0  0  0  0  0  0  0  0999 V2000
   37.0030   42.1710    1.8370 C   0  0  0  0  0  0  0  0  0  0  0  0
   38.4070   42.6420    1.4920 C   0  0  0  0  0  0  0  0  0  0  0  0
   38.4730   43.5080    0.2320 C   0  0  0  0  0  0  0  0  0  0  0  0
   37.0970   43.9720   -0.2550 C   0  0  0  0  0  0  0  0  0  0  0  0
   36.9960   44.0790   -1.7830 C   0  0  0  0  0  0  0  0  0  0  0  0
   36.3070   42.9120   -2.5050 C   0  0  2  0  0  0  0  0  0  0  0  0
   35.2320   41.9300   -1.3960 S   0  0  0  0  0  0  0  0  0  0  0  0
   37.3820   42.0040   -3.1180 C   0  0  0  0  0  0  0  0  0  0  0  0
   38.3020   42.4320   -3.8120 O   0  0  0  0  0  0  0  0  0  0  0  0
   37.1930   40.6660   -2.8400 N   0  0  0  0  0  0  0  0  0  0  0  0
   37.9130   39.6260   -3.5910 C   0  0  1  0  0  0  0  0  0  0  0  0
   38.0600   38.3370   -2.7690 C   0  0  0  0  0  0  0  0  0  0  0  0
   39.4810   37.8210   -2.7380 C   0  0  0  0  0  0  0  0  0  0  0  0
   39.8140   36.6810   -1.9960 C   0  0  0  0  0  0  0  0  0  0  0  0
   41.1320   36.2220   -1.9580 C   0  0  0  0  0  0  0  0  0  0  0  0
   42.1280   36.9000   -2.6590 C   0  0  0  0  0  0  0  0  0  0  0  0
   41.8080   38.0380   -3.3960 C   0  0  0  0  0  0  0  0  0  0  0  0
   40.4910   38.4990   -3.4350 C   0  0  0  0  0  0  0  0  0  0  0  0
   37.0540   39.3330   -4.8360 C   0  0  0  0  0  0  0  0  0  0  0  0
   37.2040   38.3010   -5.4920 O   0  0  0  0  0  0  0  0  0  0  0  0
   36.1670   40.3230   -5.1550 N   0  0  0  0  0  0  0  0  0  0  0  0
   35.4060   40.3970   -6.4170 C   0  0  1  0  0  0  0  0  0  0  0  0
   34.1340   39.5680   -6.3280 C   0  0  0  0  0  0  0  0  0  0  0  0
   35.0470   41.8830   -6.7590 C   0  0  0  0  0  0  0  0  0  0  0  0
   34.9130   42.6190   -5.7290 O   0  0  0  0  0  0  0  0  0  0  0  0
   34.9500   42.1740   -7.9820 O   0  0  0  0  0  0  0  0  0  0  0  0
   36.8875   42.1323    2.9302 H   0  0  0  0  0  0  0  0  0  0  0  0
   36.2672   42.8715    1.4152 H   0  0  0  0  0  0  0  0  0  0  0  0
   36.8385   41.1685    1.4152 H   0  0  0  0  0  0  0  0  0  0  0  0
   38.7939   43.2294    2.3378 H   0  0  0  0  0  0  0  0  0  0  0  0
   39.0088   41.7424    1.2957 H   0  0  0  0  0  0  0  0  0  0  0  0
   39.0843   44.3961    0.4500 H   0  0  0  0  0  0  0  0  0  0  0  0
   38.9106   42.8904   -0.5661 H   0  0  0  0  0  0  0  0  0  0  0  0
   36.3422   43.2523    0.0949 H   0  0  0  0  0  0  0  0  0  0  0  0
   36.9307   44.9799    0.1531 H   0  0  0  0  0  0  0  0  0  0  0  0
   36.4353   44.9958   -2.0180 H   0  0  0  0  0  0  0  0  0  0  0  0
   38.0345   44.0747   -2.1455 H   0  0  0  0  0  0  0  0  0  0  0  0
   35.6589   43.3367   -3.2858 H   0  0  0  0  0  0  0  0  0  0  0  0
   35.5270   40.7440   -1.9600 H   0  0  0  0  0  0  0  0  0  0  0  0
   36.2470   40.3880   -2.5970 H   0  0  0  0  0  0  0  0  0  0  0  0
   38.9268   39.9697   -3.8443 H   0  0  0  0  0  0  0  0  0  0  0  0
   37.7369   38.5393   -1.7372 H   0  0  0  0  0  0  0  0  0  0  0  0
   37.4380   37.5662   -3.2475 H   0  0  0  0  0  0  0  0  0  0  0  0
   39.0320   36.1436   -1.4394 H   0  0  0  0  0  0  0  0  0  0  0  0
   41.3847   35.3245   -1.3743 H   0  0  0  0  0  0  0  0  0  0  0  0
   43.1659   36.5367   -2.6302 H   0  0  0  0  0  0  0  0  0  0  0  0
   42.5942   38.5740   -3.9479 H   0  0  0  0  0  0  0  0  0  0  0  0
   40.2441   39.3997   -4.0161 H   0  0  0  0  0  0  0  0  0  0  0  0
   36.2170   41.2440   -4.7170 H   0  0  0  0  0  0  0  0  0  0  0  0
   36.0397   39.9897   -7.2186 H   0  0  0  0  0  0  0  0  0  0  0  0
   33.8782   39.4013   -5.2712 H   0  0  0  0  0  0  0  0  0  0  0  0
   33.3115   40.1040   -6.8242 H   0  0  0  0  0  0  0  0  0  0  0  0
   34.2923   38.5991   -6.8242 H   0  0  0  0  0  0  0  0  0  0  0  0
  1  2  1  0
  2  3  1  0
  3  4  1  0
  4  5  1  0
  5  6  1  0
  6  7  1  0
  6  8  1  0
  8  9  2  0
  8 10  1  0
 10 11  1  0
 11 12  1  0
 12 13  1  0
 13 14  2  0
 14 15  1  0
 15 16  2  0
 16 17  1  0
 17 18  2  0
 11 19  1  0
 19 20  2  0
 19 21  1  0
 21 22  1  0
 22 23  1  0
 22 24  1  0
 24 25  2  0
 24 26  1  0
 18 13  1  0
  1 27  1  0
  1 28  1  0
  1 29  1  0
  2 30  1  0
  2 31  1  0
  3 32  1  0
  3 33  1  0
  4 34  1  0
  4 35  1  0
  5 36  1  0
  5 37  1  0
  6 38  1  6
  7 39  1  0
 10 40  1  0
 11 41  1  6
 12 42  1  0
 12 43  1  0
 14 44  1  0
 15 45  1  0
 16 46  1  0
 17 47  1  0
 18 48  1  0
 21 49  1  0
 22 50  1  6
 23 51  1  0
 23 52  1  0
 23 53  1  0
M  CHG  1  26  -1
M  END
>  <meeko>  (4) 
{"is_sidechain": [false], "free_energy": -7.461, "intermolecular_energy": -12.417, "internal_energy": -0.907}

$$$$
1qf1_ligand
     RDKit          3D

 53 53  0  0  0  0  0  0  0  0999 V2000
   41.9810   36.5810   -6.1970 C   0  0  0  0  0  0  0  0  0  0  0  0
   40.9530   35.5190   -6.5560 C   0  0  0  0  0  0  0  0  0  0  0  0
   39.5220   36.0560   -6.6540 C   0  0  0  0  0  0  0  0  0  0  0  0
   38.8640   36.2720   -5.2880 C   0  0  0  0  0  0  0  0  0  0  0  0
   38.3850   37.7130   -5.0650 C   0  0  0  0  0  0  0  0  0  0  0  0
   39.1680   38.5400   -4.0350 C   0  0  2  0  0  0  0  0  0  0  0  0
   40.1330   37.5010   -2.8780 S   0  0  0  0  0  0  0  0  0  0  0  0
   38.1820   39.4120   -3.2460 C   0  0  0  0  0  0  0  0  0  0  0  0
   37.6980   39.0670   -2.1700 O   0  0  0  0  0  0  0  0  0  0  0  0
   37.8710   40.5980   -3.8780 N   0  0  0  0  0  0  0  0  0  0  0  0
   36.7200   41.4070   -3.4510 C   0  0  1  0  0  0  0  0  0  0  0  0
   37.1620   42.7640   -2.8850 C   0  0  0  0  0  0  0  0  0  0  0  0
   37.3340   42.7460   -1.3830 C   0  0  0  0  0  0  0  0  0  0  0  0
   38.1210   43.7090   -0.7390 C   0  0  0  0  0  0  0  0  0  0  0  0
   38.2900   43.6730    0.6470 C   0  0  0  0  0  0  0  0  0  0  0  0
   37.6740   42.6750    1.3990 C   0  0  0  0  0  0  0  0  0  0  0  0
   36.8920   41.7100    0.7670 C   0  0  0  0  0  0  0  0  0  0  0  0
   36.7240   41.7430   -0.6170 C   0  0  0  0  0  0  0  0  0  0  0  0
   35.8740   41.6410   -4.7170 C   0  0  0  0  0  0  0  0  0  0  0  0
   35.3960   42.7470   -4.9760 O   0  0  0  0  0  0  0  0  0  0  0  0
   35.6790   40.5230   -5.4790 N   0  0  0  0  0  0  0  0  0  0  0  0
   34.7230   40.4250   -6.5990 C   0  0  1  0  0  0  0  0  0  0  0  0
   34.6620   41.7330   -7.3720 C   0  0  0  0  0  0  0  0  0  0  0  0
   35.1220   39.2580   -7.5650 C   0  0  0  0  0  0  0  0  0  0  0  0
   35.1260   38.1150   -7.0000 O   0  0  0  0  0  0  0  0  0  0  0  0
   35.3710   39.5720   -8.7590 O   0  0  0  0  0  0  0  0  0  0  0  0
   42.0586   36.6611   -5.1027 H   0  0  0  0  0  0  0  0  0  0  0  0
   42.9593   36.3003   -6.6144 H   0  0  0  0  0  0  0  0  0  0  0  0
   41.6686   37.5496   -6.6144 H   0  0  0  0  0  0  0  0  0  0  0  0
   41.2281   35.0839   -7.5281 H   0  0  0  0  0  0  0  0  0  0  0  0
   40.9626   34.7752   -5.7457 H   0  0  0  0  0  0  0  0  0  0  0  0
   39.5453   37.0180   -7.1869 H   0  0  0  0  0  0  0  0  0  0  0  0
   38.9257   35.3019   -7.1886 H   0  0  0  0  0  0  0  0  0  0  0  0
   37.9970   35.5997   -5.2081 H   0  0  0  0  0  0  0  0  0  0  0  0
   39.6254   36.0601   -4.5229 H   0  0  0  0  0  0  0  0  0  0  0  0
   38.4428   38.2382   -6.0298 H   0  0  0  0  0  0  0  0  0  0  0  0
   37.3678   37.6233   -4.6560 H   0  0  0  0  0  0  0  0  0  0  0  0
   39.8903   39.1617   -4.5844 H   0  0  0  0  0  0  0  0  0  0  0  0
   41.2660   37.5310   -3.6030 H   0  0  0  0  0  0  0  0  0  0  0  0
   38.0120   40.6200   -4.8830 H   0  0  0  0  0  0  0  0  0  0  0  0
   36.1629   40.8884   -2.6568 H   0  0  0  0  0  0  0  0  0  0  0  0
   38.1221   43.0405   -3.3451 H   0  0  0  0  0  0  0  0  0  0  0  0
   36.3718   43.4928   -3.1185 H   0  0  0  0  0  0  0  0  0  0  0  0
   38.6092   44.4989   -1.3286 H   0  0  0  0  0  0  0  0  0  0  0  0
   38.9098   44.4331    1.1451 H   0  0  0  0  0  0  0  0  0  0  0  0
   37.8048   42.6487    2.4909 H   0  0  0  0  0  0  0  0  0  0  0  0
   36.4067   40.9213    1.3606 H   0  0  0  0  0  0  0  0  0  0  0  0
   36.1086   40.9767   -1.1110 H   0  0  0  0  0  0  0  0  0  0  0  0
   35.9120   39.5930   -5.1290 H   0  0  0  0  0  0  0  0  0  0  0  0
   33.7290   40.2156   -6.1770 H   0  0  0  0  0  0  0  0  0  0  0  0
   34.6227   42.5751   -6.6653 H   0  0  0  0  0  0  0  0  0  0  0  0
   35.5567   41.8269   -8.0049 H   0  0  0  0  0  0  0  0  0  0  0  0
   33.7624   41.7432   -8.0049 H   0  0  0  0  0  0  0  0  0  0  0  0
  1  2  1  0
  2  3  1  0
  3  4  1  0
  4  5  1  0
  5  6  1  0
  6  7  1  0
  6  8  1  0
  8  9  2  0
  8 10  1  0
 10 11  1  0
 11 12  1  0
 12 13  1  0
 13 14  2  0
 14 15  1  0
 15 16  2  0
 16 17  1  0
 17 18  2  0
 11 19  1  0
 19 20  2  0
 19 21  1  0
 21 22  1  0
 22 23  1  0
 22 24  1  0
 24 25  2  0
 24 26  1  0
 18 13  1  0
  1 27  1  0
  1 28  1  0
  1 29  1  0
  2 30  1  0
  2 31  1  0
  3 32  1  0
  3 33  1  0
  4 34  1  0
  4 35  1  0
  5 36  1  0
  5 37  1  0
  6 38  1  6
  7 39  1  0
 10 40  1  0
 11 41  1  1
 12 42  1  0
 12 43  1  0
 14 44  1  0
 15 45  1  0
 16 46  1  0
 17 47  1  0
 18 48  1  0
 21 49  1  0
 22 50  1  1
 23 51  1  0
 23 52  1  0
 23 53  1  0
M  CHG  1  26  -1
M  END
>  <meeko>  (5) 
{"is_sidechain": [false], "free_energy": -6.862, "intermolecular_energy": -11.888, "internal_energy": -0.434}

$$$$
1qf1_ligand
     RDKit          3D

 53 53  0  0  0  0  0  0  0  0999 V2000
   40.1720   35.4270    0.3310 C   0  0  0  0  0  0  0  0  0  0  0  0
   39.4960   36.3680   -0.6560 C   0  0  0  0  0  0  0  0  0  0  0  0
   38.7580   35.6460   -1.7870 C   0  0  0  0  0  0  0  0  0  0  0  0
   39.3490   35.9290   -3.1710 C   0  0  0  0  0  0  0  0  0  0  0  0
   38.4900   36.8790   -4.0170 C   0  0  0  0  0  0  0  0  0  0  0  0
   39.0030   38.3200   -4.1560 C   0  0  2  0  0  0  0  0  0  0  0  0
   40.7380   38.5100   -3.6060 S   0  0  0  0  0  0  0  0  0  0  0  0
   38.0980   39.2500   -3.3370 C   0  0  0  0  0  0  0  0  0  0  0  0
   37.6740   38.9580   -2.2210 O   0  0  0  0  0  0  0  0  0  0  0  0
   37.7840   40.4250   -3.9900 N   0  0  0  0  0  0  0  0  0  0  0  0
   36.6890   41.2850   -3.5190 C   0  0  1  0  0  0  0  0  0  0  0  0
   37.2160   42.6210   -2.9730 C   0  0  0  0  0  0  0  0  0  0  0  0
   37.3420   42.6300   -1.4670 C   0  0  0  0  0  0  0  0  0  0  0  0
   38.1360   43.5850   -0.8190 C   0  0  0  0  0  0  0  0  0  0  0  0
   38.2620   43.5740    0.5710 C   0  0  0  0  0  0  0  0  0  0  0  0
   37.5970   42.6090    1.3250 C   0  0  0  0  0  0  0  0  0  0  0  0
   36.8080   41.6530    0.6900 C   0  0  0  0  0  0  0  0  0  0  0  0
   36.6820   41.6600   -0.6990 C   0  0  0  0  0  0  0  0  0  0  0  0
   35.8070   41.5580   -4.7520 C   0  0  0  0  0  0  0  0  0  0  0  0
   35.4060   42.6930   -5.0170 O   0  0  0  0  0  0  0  0  0  0  0  0
   35.4870   40.4430   -5.4750 N   0  0  0  0  0  0  0  0  0  0  0  0
   34.4750   40.3970   -6.5480 C   0  0  1  0  0  0  0  0  0  0  0  0
   35.0020   41.0530   -7.8140 C   0  0  0  0  0  0  0  0  0  0  0  0
   34.0600   38.9170   -6.8510 C   0  0  0  0  0  0  0  0  0  0  0  0
   34.8580   38.3230   -7.6470 O   0  0  0  0  0  0  0  0  0  0  0  0
   33.0220   38.4920   -6.2770 O   0  0  0  0  0  0  0  0  0  0  0  0
   39.9425   35.7465    1.3582 H   0  0  0  0  0  0  0  0  0  0  0  0
   39.8016   34.4032    0.1740 H   0  0  0  0  0  0  0  0  0  0  0  0
   41.2605   35.4512    0.1740 H   0  0  0  0  0  0  0  0  0  0  0  0
   38.7703   36.9853   -0.1062 H   0  0  0  0  0  0  0  0  0  0  0  0
   40.2900   36.9696   -1.1225 H   0  0  0  0  0  0  0  0  0  0  0  0
   38.8071   34.5630   -1.6008 H   0  0  0  0  0  0  0  0  0  0  0  0
   37.7230   36.0184   -1.7915 H   0  0  0  0  0  0  0  0  0  0  0  0
   40.3432   36.3810   -3.0400 H   0  0  0  0  0  0  0  0  0  0  0  0
   39.3964   34.9694   -3.7067 H   0  0  0  0  0  0  0  0  0  0  0  0
   38.4141   36.4515   -5.0277 H   0  0  0  0  0  0  0  0  0  0  0  0
   37.5310   36.9596   -3.4842 H   0  0  0  0  0  0  0  0  0  0  0  0
   38.9749   38.5836   -5.2236 H   0  0  0  0  0  0  0  0  0  0  0  0
   40.5940   39.7800   -3.1860 H   0  0  0  0  0  0  0  0  0  0  0  0
   37.8610   40.4080   -5.0020 H   0  0  0  0  0  0  0  0  0  0  0  0
   36.1396   40.7929   -2.7029 H   0  0  0  0  0  0  0  0  0  0  0  0
   38.2073   42.8125   -3.4097 H   0  0  0  0  0  0  0  0  0  0  0  0
   36.4907   43.4005   -3.2491 H   0  0  0  0  0  0  0  0  0  0  0  0
   38.6636   44.3485   -1.4095 H   0  0  0  0  0  0  0  0  0  0  0  0
   38.8870   44.3280    1.0719 H   0  0  0  0  0  0  0  0  0  0  0  0
   37.6951   42.6023    2.4206 H   0  0  0  0  0  0  0  0  0  0  0  0
   36.2833   40.8910    1.2850 H   0  0  0  0  0  0  0  0  0  0  0  0
   36.0609   40.8997   -1.1952 H   0  0  0  0  0  0  0  0  0  0  0  0
   35.6610   39.5050   -5.1110 H   0  0  0  0  0  0  0  0  0  0  0  0
   33.5903   40.9525   -6.2033 H   0  0  0  0  0  0  0  0  0  0  0  0
   35.6700   41.8846   -7.5453 H   0  0  0  0  0  0  0  0  0  0  0  0
   35.5588   40.3121   -8.4064 H   0  0  0  0  0  0  0  0  0  0  0  0
   34.1585   41.4371   -8.4064 H   0  0  0  0  0  0  0  0  0  0  0  0
  1  2  1  0
  2  3  1  0
  3  4  1  0
  4  5  1  0
  5  6  1  0
  6  7  1  0
  6  8  1  0
  8  9  2  0
  8 10  1  0
 10 11  1  0
 11 12  1  0
 12 13  1  0
 13 14  2  0
 14 15  1  0
 15 16  2  0
 16 17  1  0
 17 18  2  0
 11 19  1  0
 19 20  2  0
 19 21  1  0
 21 22  1  0
 22 23  1  0
 22 24  1  0
 24 25  2  0
 24 26  1  0
 18 13  1  0
  1 27  1  0
  1 28  1  0
  1 29  1  0
  2 30  1  0
  2 31  1  0
  3 32  1  0
  3 33  1  0
  4 34  1  0
  4 35  1  0
  5 36  1  0
  5 37  1  0
  6 38  1  6
  7 39  1  0
 10 40  1  0
 11 41  1  1
 12 42  1  0
 12 43  1  0
 14 44  1  0
 15 45  1  0
 16 46  1  0
 17 47  1  0
 18 48  1  0
 21 49  1  0
 22 50  1  1
 23 51  1  0
 23 52  1  0
 23 53  1  0
M  CHG  1  26  -1
M  END
>  <meeko>  (6) 
{"is_sidechain": [false], "free_energy": -6.852, "intermolecular_energy": -11.215, "internal_energy": -1.09}

$$$$
1qf1_ligand
     RDKit          3D

 53 53  0  0  0  0  0  0  0  0999 V2000
   33.2020   44.0930  -10.5440 C   0  0  0  0  0  0  0  0  0  0  0  0
   33.3420   42.5890  -10.3610 C   0  0  0  0  0  0  0  0  0  0  0  0
   33.1370   42.1240   -8.9160 C   0  0  0  0  0  0  0  0  0  0  0  0
   34.2280   42.6180   -7.9620 C   0  0  0  0  0  0  0  0  0  0  0  0
   34.4160   41.7160   -6.7340 C   0  0  0  0  0  0  0  0  0  0  0  0
   34.9580   40.3040   -7.0010 C   0  0  2  0  0  0  0  0  0  0  0  0
   33.6290   39.0570   -7.1710 S   0  0  0  0  0  0  0  0  0  0  0  0
   35.8950   39.9070   -5.8530 C   0  0  0  0  0  0  0  0  0  0  0  0
   36.3660   38.7790   -5.7340 O   0  0  0  0  0  0  0  0  0  0  0  0
   36.1260   40.9300   -4.9550 N   0  0  0  0  0  0  0  0  0  0  0  0
   36.7210   40.6620   -3.6370 C   0  0  1  0  0  0  0  0  0  0  0  0
   38.2470   40.5130   -3.7270 C   0  0  0  0  0  0  0  0  0  0  0  0
   38.7460   39.2190   -3.1260 C   0  0  0  0  0  0  0  0  0  0  0  0
   37.9640   38.5050   -2.2100 C   0  0  0  0  0  0  0  0  0  0  0  0
   38.4410   37.3210   -1.6440 C   0  0  0  0  0  0  0  0  0  0  0  0
   39.7030   36.8410   -1.9900 C   0  0  0  0  0  0  0  0  0  0  0  0
   40.4900   37.5460   -2.8980 C   0  0  0  0  0  0  0  0  0  0  0  0
   40.0170   38.7310   -3.4620 C   0  0  0  0  0  0  0  0  0  0  0  0
   36.3850   41.8880   -2.7660 C   0  0  0  0  0  0  0  0  0  0  0  0
   36.0170   42.9520   -3.2670 O   0  0  0  0  0  0  0  0  0  0  0  0
   36.5730   41.6950   -1.4260 N   0  0  0  0  0  0  0  0  0  0  0  0
   36.5530   42.7650   -0.4100 C   0  0  1  0  0  0  0  0  0  0  0  0
   36.8450   42.2010    0.9720 C   0  0  0  0  0  0  0  0  0  0  0  0
   37.5990   43.8770   -0.7600 C   0  0  0  0  0  0  0  0  0  0  0  0
   38.7950   43.4420   -0.8270 O   0  0  0  0  0  0  0  0  0  0  0  0
   37.1490   45.0390   -0.9450 O   0  0  0  0  0  0  0  0  0  0  0  0
   33.1567   44.5796   -9.5585 H   0  0  0  0  0  0  0  0  0  0  0  0
   34.0683   44.4766  -11.1029 H   0  0  0  0  0  0  0  0  0  0  0  0
   32.2798   44.3101  -11.1029 H   0  0  0  0  0  0  0  0  0  0  0  0
   32.5945   42.0906  -10.9958 H   0  0  0  0  0  0  0  0  0  0  0  0
   34.3725   42.3251  -10.6410 H   0  0  0  0  0  0  0  0  0  0  0  0
   32.1662   42.5011   -8.5619 H   0  0  0  0  0  0  0  0  0  0  0  0
   33.1780   41.0248   -8.9178 H   0  0  0  0  0  0  0  0  0  0  0  0
   35.1795   42.6611   -8.5123 H   0  0  0  0  0  0  0  0  0  0  0  0
   33.9159   43.6068   -7.5948 H   0  0  0  0  0  0  0  0  0  0  0  0
   35.1168   42.2202   -6.0524 H   0  0  0  0  0  0  0  0  0  0  0  0
   33.4067   41.5688   -6.3221 H   0  0  0  0  0  0  0  0  0  0  0  0
   35.4987   40.3279   -7.9586 H   0  0  0  0  0  0  0  0  0  0  0  0
   32.6270   39.9060   -6.8840 H   0  0  0  0  0  0  0  0  0  0  0  0
   35.4270   41.6660   -4.9260 H   0  0  0  0  0  0  0  0  0  0  0  0
   36.3256   39.7232   -3.2218 H   0  0  0  0  0  0  0  0  0  0  0  0
   38.5413   40.5449   -4.7864 H   0  0  0  0  0  0  0  0  0  0  0  0
   38.6946   41.3384   -3.1539 H   0  0  0  0  0  0  0  0  0  0  0  0
   36.9671   38.8793   -1.9344 H   0  0  0  0  0  0  0  0  0  0  0  0
   37.8204   36.7667   -0.9246 H   0  0  0  0  0  0  0  0  0  0  0  0
   40.0772   35.9065   -1.5466 H   0  0  0  0  0  0  0  0  0  0  0  0
   41.4862   37.1676   -3.1707 H   0  0  0  0  0  0  0  0  0  0  0  0
   40.6448   39.2860   -4.1746 H   0  0  0  0  0  0  0  0  0  0  0  0
   37.0720   40.8780   -1.0710 H   0  0  0  0  0  0  0  0  0  0  0  0
   35.5469   43.2096   -0.4062 H   0  0  0  0  0  0  0  0  0  0  0  0
   36.4821   42.9019    1.7382 H   0  0  0  0  0  0  0  0  0  0  0  0
   36.3344   41.2337    1.0886 H   0  0  0  0  0  0  0  0  0  0  0  0
   37.9296   42.0595    1.0886 H   0  0  0  0  0  0  0  0  0  0  0  0
  1  2  1  0
  2  3  1  0
  3  4  1  0
  4  5  1  0
  5  6  1  0
  6  7  1  0
  6  8  1  0
  8  9  2  0
  8 10  1  0
 10 11  1  0
 11 12  1  0
 12 13  1  0
 13 14  2  0
 14 15  1  0
 15 16  2  0
 16 17  1  0
 17 18  2  0
 11 19  1  0
 19 20  2  0
 19 21  1  0
 21 22  1  0
 22 23  1  0
 22 24  1  0
 24 25  2  0
 24 26  1  0
 18 13  1  0
  1 27  1  0
  1 28  1  0
  1 29  1  0
  2 30  1  0
  2 31  1  0
  3 32  1  0
  3 33  1  0
  4 34  1  0
  4 35  1  0
  5 36  1  0
  5 37  1  0
  6 38  1  6
  7 39  1  0
 10 40  1  0
 11 41  1  1
 12 42  1  0
 12 43  1  0
 14 44  1  0
 15 45  1  0
 16 46  1  0
 17 47  1  0
 18 48  1  0
 21 49  1  0
 22 50  1  1
 23 51  1  0
 23 52  1  0
 23 53  1  0
M  CHG  1  26  -1
M  END
>  <meeko>  (7) 
{"is_sidechain": [false], "free_energy": -6.793, "intermolecular_energy": -11.432, "internal_energy": -0.773}

$$$$
1qf1_ligand
     RDKit          3D

 53 53  0  0  0  0  0  0  0  0999 V2000
   37.6880   42.2920    1.5440 C   0  0  0  0  0  0  0  0  0  0  0  0
   37.0540   42.1790    0.1660 C   0  0  0  0  0  0  0  0  0  0  0  0
   37.1470   43.4650   -0.6610 C   0  0  0  0  0  0  0  0  0  0  0  0
   36.2280   43.4630   -1.8860 C   0  0  0  0  0  0  0  0  0  0  0  0
   36.8710   42.8340   -3.1290 C   0  0  0  0  0  0  0  0  0  0  0  0
   36.3160   41.4710   -3.5680 C   0  0  2  0  0  0  0  0  0  0  0  0
   37.5990   40.1670   -3.6200 S   0  0  0  0  0  0  0  0  0  0  0  0
   35.6770   41.6210   -4.9550 C   0  0  0  0  0  0  0  0  0  0  0  0
   35.5050   42.7090   -5.4990 O   0  0  0  0  0  0  0  0  0  0  0  0
   35.2870   40.4190   -5.5120 N   0  0  0  0  0  0  0  0  0  0  0  0
   34.3790   40.3780   -6.6670 C   0  0  1  0  0  0  0  0  0  0  0  0
   35.0590   40.9070   -7.9390 C   0  0  0  0  0  0  0  0  0  0  0  0
   34.0900   41.5770   -8.8860 C   0  0  0  0  0  0  0  0  0  0  0  0
   33.4160   40.8380   -9.8650 C   0  0  0  0  0  0  0  0  0  0  0  0
   32.5380   41.4680  -10.7490 C   0  0  0  0  0  0  0  0  0  0  0  0
   32.3270   42.8430  -10.6610 C   0  0  0  0  0  0  0  0  0  0  0  0
   32.9960   43.5890   -9.6930 C   0  0  0  0  0  0  0  0  0  0  0  0
   33.8760   42.9610   -8.8100 C   0  0  0  0  0  0  0  0  0  0  0  0
   34.0200   38.8930   -6.8690 C   0  0  0  0  0  0  0  0  0  0  0  0
   33.1000   38.3620   -6.2430 O   0  0  0  0  0  0  0  0  0  0  0  0
   34.8270   38.2330   -7.7540 N   0  0  0  0  0  0  0  0  0  0  0  0
   34.8470   36.7700   -7.9450 C   0  0  1  0  0  0  0  0  0  0  0  0
   34.8470   36.4210   -9.4250 C   0  0  0  0  0  0  0  0  0  0  0  0
   36.1030   36.1400   -7.2520 C   0  0  0  0  0  0  0  0  0  0  0  0
   36.2040   34.8840   -7.4380 O   0  0  0  0  0  0  0  0  0  0  0  0
   36.8570   36.9300   -6.6230 O   0  0  0  0  0  0  0  0  0  0  0  0
   36.9159   42.1544    2.3153 H   0  0  0  0  0  0  0  0  0  0  0  0
   38.4609   41.5175    1.6566 H   0  0  0  0  0  0  0  0  0  0  0  0
   38.1457   43.2859    1.6566 H   0  0  0  0  0  0  0  0  0  0  0  0
   37.5620   41.3740   -0.3852 H   0  0  0  0  0  0  0  0  0  0  0  0
   35.9847   41.9719    0.3197 H   0  0  0  0  0  0  0  0  0  0  0  0
   36.8713   44.3143   -0.0186 H   0  0  0  0  0  0  0  0  0  0  0  0
   38.1809   43.5430   -1.0284 H   0  0  0  0  0  0  0  0  0  0  0  0
   35.3187   42.8955   -1.6388 H   0  0  0  0  0  0  0  0  0  0  0  0
   36.0093   44.5131   -2.1297 H   0  0  0  0  0  0  0  0  0  0  0  0
   36.7378   43.5351   -3.9661 H   0  0  0  0  0  0  0  0  0  0  0  0
   37.9196   42.6481   -2.8537 H   0  0  0  0  0  0  0  0  0  0  0  0
   35.5709   41.1564   -2.8224 H   0  0  0  0  0  0  0  0  0  0  0  0
   37.0210   39.4670   -4.6120 H   0  0  0  0  0  0  0  0  0  0  0  0
   35.1280   39.6560   -4.8620 H   0  0  0  0  0  0  0  0  0  0  0  0
   33.4968   41.0085   -6.4823 H   0  0  0  0  0  0  0  0  0  0  0  0
   35.8283   41.6376   -7.6484 H   0  0  0  0  0  0  0  0  0  0  0  0
   35.4935   40.0444   -8.4654 H   0  0  0  0  0  0  0  0  0  0  0  0
   33.5793   39.7527   -9.9385 H   0  0  0  0  0  0  0  0  0  0  0  0
   32.0126   40.8791  -11.5152 H   0  0  0  0  0  0  0  0  0  0  0  0
   31.6327   43.3388  -11.3554 H   0  0  0  0  0  0  0  0  0  0  0  0
   32.8305   44.6743   -9.6245 H   0  0  0  0  0  0  0  0  0  0  0  0
   34.4047   43.5551   -8.0501 H   0  0  0  0  0  0  0  0  0  0  0  0
   35.6970   38.6470   -8.0900 H   0  0  0  0  0  0  0  0  0  0  0  0
   33.9391   36.3555   -7.4824 H   0  0  0  0  0  0  0  0  0  0  0  0
   35.8841   36.3368   -9.7819 H   0  0  0  0  0  0  0  0  0  0  0  0
   34.3285   35.4627   -9.5757 H   0  0  0  0  0  0  0  0  0  0  0  0
   34.3285   37.2110   -9.9880 H   0  0  0  0  0  0  0  0  0  0  0  0
  1  2  1  0
  2  3  1  0
  3  4  1  0
  4  5  1  0
  5  6  1  0
  6  7  1  0
  6  8  1  0
  8  9  2  0
  8 10  1  0
 10 11  1  0
 11 12  1  0
 12 13  1  0
 13 14  2  0
 14 15  1  0
 15 16  2  0
 16 17  1  0
 17 18  2  0
 11 19  1  0
 19 20  2  0
 19 21  1  0
 21 22  1  0
 22 23  1  0
 22 24  1  0
 24 25  2  0
 24 26  1  0
 18 13  1  0
  1 27  1  0
  1 28  1  0
  1 29  1  0
  2 30  1  0
  2 31  1  0
  3 32  1  0
  3 33  1  0
  4 34  1  0
  4 35  1  0
  5 36  1  0
  5 37  1  0
  6 38  1  1
  7 39  1  0
 10 40  1  0
 11 41  1  1
 12 42  1  0
 12 43  1  0
 14 44  1  0
 15 45  1  0
 16 46  1  0
 17 47  1  0
 18 48  1  0
 21 49  1  0
 22 50  1  1
 23 51  1  0
 23 52  1  0
 23 53  1  0
M  CHG  1  26  -1
M  END
>  <meeko>  (8) 
{"is_sidechain": [false], "free_energy": -6.615, "intermolecular_energy": -11.127, "internal_energy": -0.781}

$$$$
1qf1_ligand
     RDKit          3D

 53 53  0  0  0  0  0  0  0  0999 V2000
   38.0560   43.4710    0.3810 C   0  0  0  0  0  0  0  0  0  0  0  0
   37.6910   44.5300   -0.6490 C   0  0  0  0  0  0  0  0  0  0  0  0
   36.4160   44.2100   -1.4350 C   0  0  0  0  0  0  0  0  0  0  0  0
   35.7770   42.8770   -1.0330 C   0  0  0  0  0  0  0  0  0  0  0  0
   35.6420   41.8900   -2.2000 C   0  0  0  0  0  0  0  0  0  0  0  0
   36.5760   42.1180   -3.3970 C   0  0  2  0  0  0  0  0  0  0  0  0
   35.6920   42.0960   -5.0000 S   0  0  0  0  0  0  0  0  0  0  0  0
   37.6620   41.0330   -3.3920 C   0  0  0  0  0  0  0  0  0  0  0  0
   38.7890   41.2170   -2.9390 O   0  0  0  0  0  0  0  0  0  0  0  0
   37.2570   39.8500   -3.9760 N   0  0  0  0  0  0  0  0  0  0  0  0
   38.2330   38.8180   -4.3550 C   0  0  1  0  0  0  0  0  0  0  0  0
   38.4550   37.8070   -3.2200 C   0  0  0  0  0  0  0  0  0  0  0  0
   39.9180   37.5260   -2.9620 C   0  0  0  0  0  0  0  0  0  0  0  0
   40.9110   38.3740   -3.4670 C   0  0  0  0  0  0  0  0  0  0  0  0
   42.2600   38.0970   -3.2410 C   0  0  0  0  0  0  0  0  0  0  0  0
   42.6280   36.9690   -2.5080 C   0  0  0  0  0  0  0  0  0  0  0  0
   41.6470   36.1170   -2.0060 C   0  0  0  0  0  0  0  0  0  0  0  0
   40.2980   36.3910   -2.2320 C   0  0  0  0  0  0  0  0  0  0  0  0
   37.6260   38.0870   -5.5680 C   0  0  0  0  0  0  0  0  0  0  0  0
   38.1310   37.0570   -6.0170 O   0  0  0  0  0  0  0  0  0  0  0  0
   36.5300   38.7020   -6.1060 N   0  0  0  0  0  0  0  0  0  0  0  0
   35.9120   38.3430   -7.3970 C   0  0  1  0  0  0  0  0  0  0  0  0
   35.2920   36.9560   -7.3300 C   0  0  0  0  0  0  0  0  0  0  0  0
   34.8210   39.3930   -7.7980 C   0  0  0  0  0  0  0  0  0  0  0  0
   35.0380   39.9390   -8.9280 O   0  0  0  0  0  0  0  0  0  0  0  0
   33.8720   39.5600   -6.9860 O   0  0  0  0  0  0  0  0  0  0  0  0
   37.9152   43.8795    1.3926 H   0  0  0  0  0  0  0  0  0  0  0  0
   37.4092   42.5913    0.2475 H   0  0  0  0  0  0  0  0  0  0  0  0
   39.1074   43.1767    0.2475 H   0  0  0  0  0  0  0  0  0  0  0  0
   37.5461   45.4872   -0.1267 H   0  0  0  0  0  0  0  0  0  0  0  0
   38.5157   44.5695   -1.3759 H   0  0  0  0  0  0  0  0  0  0  0  0
   35.6863   45.0143   -1.2598 H   0  0  0  0  0  0  0  0  0  0  0  0
   36.6973   44.1307   -2.4955 H   0  0  0  0  0  0  0  0  0  0  0  0
   36.3994   42.4128   -0.2538 H   0  0  0  0  0  0  0  0  0  0  0  0
   34.7605   43.0986   -0.6756 H   0  0  0  0  0  0  0  0  0  0  0  0
   35.8386   40.8807   -1.8094 H   0  0  0  0  0  0  0  0  0  0  0  0
   34.6242   42.0363   -2.5909 H   0  0  0  0  0  0  0  0  0  0  0  0
   37.0190   43.1191   -3.2900 H   0  0  0  0  0  0  0  0  0  0  0  0
   35.0800   40.9170   -4.7850 H   0  0  0  0  0  0  0  0  0  0  0  0
   36.4830   39.9150   -4.6300 H   0  0  0  0  0  0  0  0  0  0  0  0
   39.2072   39.2773   -4.5784 H   0  0  0  0  0  0  0  0  0  0  0  0
   38.0068   38.2086   -2.2992 H   0  0  0  0  0  0  0  0  0  0  0  0
   37.9850   36.8601   -3.5240 H   0  0  0  0  0  0  0  0  0  0  0  0
   40.6259   39.2648   -4.0459 H   0  0  0  0  0  0  0  0  0  0  0  0
   43.0336   38.7688   -3.6413 H   0  0  0  0  0  0  0  0  0  0  0  0
   43.6911   36.7525   -2.3266 H   0  0  0  0  0  0  0  0  0  0  0  0
   41.9368   35.2259   -1.4299 H   0  0  0  0  0  0  0  0  0  0  0  0
   39.5282   35.7128   -1.8353 H   0  0  0  0  0  0  0  0  0  0  0  0
   36.2690   39.6530   -5.8400 H   0  0  0  0  0  0  0  0  0  0  0  0
   36.7027   38.3412   -8.1618 H   0  0  0  0  0  0  0  0  0  0  0  0
   35.1612   36.6633   -6.2778 H   0  0  0  0  0  0  0  0  0  0  0  0
   34.3132   36.9672   -7.8319 H   0  0  0  0  0  0  0  0  0  0  0  0
   35.9531   36.2342   -7.8319 H   0  0  0  0  0  0  0  0  0  0  0  0
  1  2  1  0
  2  3  1  0
  3  4  1  0
  4  5  1  0
  5  6  1  0
  6  7  1  0
  6  8  1  0
  8  9  2  0
  8 10  1  0
 10 11  1  0
 11 12  1  0
 12 13  1  0
 13 14  2  0
 14 15  1  0
 15 16  2  0
 16 17  1  0
 17 18  2  0
 11 19  1  0
 19 20  2  0
 19 21  1  0
 21 22  1  0
 22 23  1  0
 22 24  1  0
 24 25  2  0
 24 26  1  0
 18 13  1  0
  1 27  1  0
  1 28  1  0
  1 29  1  0
  2 30  1  0
  2 31  1  0
  3 32  1  0
  3 33  1  0
  4 34  1  0
  4 35  1  0
  5 36  1  0
  5 37  1  0
  6 38  1  1
  7 39  1  0
 10 40  1  0
 11 41  1  6
 12 42  1  0
 12 43  1  0
 14 44  1  0
 15 45  1  0
 16 46  1  0
 17 47  1  0
 18 48  1  0
 21 49  1  0
 22 50  1  6
 23 51  1  0
 23 52  1  0
 23 53  1  0
M  CHG  1  26  -1
M  END
>  <meeko>  (9) 
{"is_sidechain": [false], "free_energy": -6.317, "intermolecular_energy": -10.276, "internal_energy": -1.134}

$$$$
