5dwr_ligand
     RDKit          3D

 56 59  0  0  0  0  0  0  0  0999 V2000
  -39.5750   -0.2520    4.3180 C   0  0  0  0  0  0  0  0  0  0  0  0
  -40.6460   -1.2940    4.6490 C   0  0  2  0  0  0  0  0  0  0  0  0
  -40.2640   -2.0900    5.9140 C   0  0  0  0  0  0  0  0  0  0  0  0
  -39.8840   -3.5380    5.6250 C   0  0  2  0  0  0  0  0  0  0  0  0
  -39.0750   -4.0720    6.7520 N   0  0  0  0  0  0  0  0  0  0  0  0
  -39.0820   -3.6640    4.3400 C   0  0  0  0  0  0  0  0  0  0  0  0
  -39.9500   -3.3110    3.1110 C   0  0  2  0  0  0  0  0  0  0  0  0
  -39.0600   -3.1250    1.8780 C   0  0  0  0  0  0  0  0  0  0  0  0
  -37.6740   -3.3390    1.9450 C   0  0  0  0  0  0  0  0  0  0  0  0
  -36.9000   -3.2490    0.7970 C   0  0  0  0  0  0  0  0  0  0  0  0
  -37.4030   -2.9690   -0.4150 N   0  0  0  0  0  0  0  0  0  0  0  0
  -38.7340   -2.7390   -0.4840 C   0  0  0  0  0  0  0  0  0  0  0  0
  -39.6030   -2.7880    0.6110 C   0  0  0  0  0  0  0  0  0  0  0  0
  -40.9810   -2.5050    0.4880 N   0  0  0  0  0  0  0  0  0  0  0  0
  -41.6010   -1.6780   -0.4280 C   0  0  0  0  0  0  0  0  0  0  0  0
  -41.0670   -1.0170   -1.3070 O   0  0  0  0  0  0  0  0  0  0  0  0
  -43.0970   -1.6950   -0.2900 C   0  0  0  0  0  0  0  0  0  0  0  0
  -43.8940   -1.8790   -1.4140 C   0  0  0  0  0  0  0  0  0  0  0  0
  -45.2730   -1.9070   -1.2380 C   0  0  0  0  0  0  0  0  0  0  0  0
  -45.7940   -1.7370    0.0390 C   0  0  0  0  0  0  0  0  0  0  0  0
  -47.1230   -1.7780    0.2120 F   0  0  0  0  0  0  0  0  0  0  0  0
  -44.9340   -1.5460    1.1240 C   0  0  0  0  0  0  0  0  0  0  0  0
  -45.4370   -1.3040    2.4780 C   0  0  0  0  0  0  0  0  0  0  0  0
  -45.0760   -2.1470    3.5390 C   0  0  0  0  0  0  0  0  0  0  0  0
  -44.2860   -3.2080    3.3110 F   0  0  0  0  0  0  0  0  0  0  0  0
  -45.5290   -1.9360    4.8400 C   0  0  0  0  0  0  0  0  0  0  0  0
  -46.3670   -0.8600    5.1150 C   0  0  0  0  0  0  0  0  0  0  0  0
  -46.7510   -0.0090    4.0820 C   0  0  0  0  0  0  0  0  0  0  0  0
  -46.2920   -0.2370    2.7800 C   0  0  0  0  0  0  0  0  0  0  0  0
  -46.6960    0.6140    1.8190 F   0  0  0  0  0  0  0  0  0  0  0  0
  -43.5770   -1.5480    0.9870 N   0  0  0  0  0  0  0  0  0  0  0  0
  -40.9860   -2.2010    3.4490 C   0  0  0  0  0  0  0  0  0  0  0  0
  -39.1577    0.1540    5.2512 H   0  0  0  0  0  0  0  0  0  0  0  0
  -38.7725   -0.7243    3.7324 H   0  0  0  0  0  0  0  0  0  0  0  0
  -40.0251    0.5632    3.7324 H   0  0  0  0  0  0  0  0  0  0  0  0
  -41.5768   -0.7520    4.8723 H   0  0  0  0  0  0  0  0  0  0  0  0
  -39.4074   -1.5935    6.3933 H   0  0  0  0  0  0  0  0  0  0  0  0
  -41.1500   -2.1101    6.5656 H   0  0  0  0  0  0  0  0  0  0  0  0
  -40.8149   -4.1124    5.5093 H   0  0  0  0  0  0  0  0  0  0  0  0
  -38.2960   -4.6570    6.4270 H   0  0  0  0  0  0  0  0  0  0  0  0
  -39.6380   -4.6350    7.4050 H   0  0  0  0  0  0  0  0  0  0  0  0
  -38.6630   -3.2940    7.2950 H   0  0  0  0  0  0  0  0  0  0  0  0
  -38.2229   -2.9784    4.3830 H   0  0  0  0  0  0  0  0  0  0  0  0
  -38.7388   -4.7044    4.2406 H   0  0  0  0  0  0  0  0  0  0  0  0
  -40.6062   -4.1462    2.8250 H   0  0  0  0  0  0  0  0  0  0  0  0
  -37.2011   -3.5783    2.9089 H   0  0  0  0  0  0  0  0  0  0  0  0
  -35.8163   -3.4161    0.8852 H   0  0  0  0  0  0  0  0  0  0  0  0
  -39.1622   -2.4970   -1.4679 H   0  0  0  0  0  0  0  0  0  0  0  0
  -41.6340   -2.9530    1.1180 H   0  0  0  0  0  0  0  0  0  0  0  0
  -43.4474   -1.9988   -2.4121 H   0  0  0  0  0  0  0  0  0  0  0  0
  -45.9420   -2.0615   -2.0974 H   0  0  0  0  0  0  0  0  0  0  0  0
  -45.2248   -2.6184    5.6473 H   0  0  0  0  0  0  0  0  0  0  0  0
  -46.7234   -0.6830    6.1405 H   0  0  0  0  0  0  0  0  0  0  0  0
  -47.4154    0.8428    4.2895 H   0  0  0  0  0  0  0  0  0  0  0  0
  -41.0909   -1.5587    2.5622 H   0  0  0  0  0  0  0  0  0  0  0  0
  -41.9052   -2.7337    3.7341 H   0  0  0  0  0  0  0  0  0  0  0  0
  1  2  1  0
  2  3  1  0
  3  4  1  0
  4  5  1  0
  4  6  1  0
  6  7  1  0
  7  8  1  0
  8  9  2  0
  9 10  1  0
 10 11  2  0
 11 12  1  0
 12 13  2  0
 13 14  1  0
 14 15  1  0
 15 16  2  0
 15 17  1  0
 17 18  2  0
 18 19  1  0
 19 20  2  0
 20 21  1  0
 20 22  1  0
 22 23  1  0
 23 24  2  0
 24 25  1  0
 24 26  1  0
 26 27  2  0
 27 28  1  0
 28 29  2  0
 29 30  1  0
 22 31  2  0
  7 32  1  0
 32  2  1  0
 13  8  1  0
 31 17  1  0
 29 23  1  0
  1 33  1  0
  1 34  1  0
  1 35  1  0
  2 36  1  1
  3 37  1  0
  3 38  1  0
  4 39  1  6
  5 40  1  0
  5 41  1  0
  5 42  1  0
  6 43  1  0
  6 44  1  0
  7 45  1  6
  9 46  1  0
 10 47  1  0
 12 48  1  0
 14 49  1  0
 18 50  1  0
 19 51  1  0
 26 52  1  0
 27 53  1  0
 28 54  1  0
 32 55  1  0
 32 56  1  0
M  CHG  1   5   1
M  END
>  <meeko>  (1) 
{"is_sidechain": [false], "free_energy": -10.441, "intermolecular_energy": -13.188, "internal_energy": -0.749}

$$$$
5dwr_ligand
     RDKit          3D

 56 59  0  0  0  0  0  0  0  0999 V2000
  -37.7900   -4.8790    2.4700 C   0  0  0  0  0  0  0  0  0  0  0  0
  -38.1170   -3.6520    3.3250 C   0  0  2  0  0  0  0  0  0  0  0  0
  -39.1970   -3.9850    4.3740 C   0  0  0  0  0  0  0  0  0  0  0  0
  -40.5420   -3.3250    4.0890 C   0  0  2  0  0  0  0  0  0  0  0  0
  -41.6160   -4.0590    4.8070 N   0  0  0  0  0  0  0  0  0  0  0  0
  -40.8590   -3.3140    2.6030 C   0  0  0  0  0  0  0  0  0  0  0  0
  -39.8830   -2.3940    1.8350 C   0  0  2  0  0  0  0  0  0  0  0  0
  -40.0030   -2.6450    0.3290 C   0  0  0  0  0  0  0  0  0  0  0  0
  -38.9060   -3.0960   -0.4220 C   0  0  0  0  0  0  0  0  0  0  0  0
  -39.0610   -3.3990   -1.7670 C   0  0  0  0  0  0  0  0  0  0  0  0
  -40.2280   -3.2920   -2.4200 N   0  0  0  0  0  0  0  0  0  0  0  0
  -41.2850   -2.8350   -1.7090 C   0  0  0  0  0  0  0  0  0  0  0  0
  -41.2360   -2.4880   -0.3560 C   0  0  0  0  0  0  0  0  0  0  0  0
  -42.3630   -1.9830    0.3290 N   0  0  0  0  0  0  0  0  0  0  0  0
  -43.6660   -1.8990   -0.1210 C   0  0  0  0  0  0  0  0  0  0  0  0
  -44.0920   -2.2380   -1.2160 O   0  0  0  0  0  0  0  0  0  0  0  0
  -44.6010   -1.3740    0.9310 C   0  0  0  0  0  0  0  0  0  0  0  0
  -45.5930   -0.4650    0.5850 C   0  0  0  0  0  0  0  0  0  0  0  0
  -46.4480   -0.0200    1.5870 C   0  0  0  0  0  0  0  0  0  0  0  0
  -46.2690   -0.4860    2.8830 C   0  0  0  0  0  0  0  0  0  0  0  0
  -47.1020   -0.0670    3.8470 F   0  0  0  0  0  0  0  0  0  0  0  0
  -45.2430   -1.3920    3.1640 C   0  0  0  0  0  0  0  0  0  0  0  0
  -44.9780   -1.8650    4.5240 C   0  0  0  0  0  0  0  0  0  0  0  0
  -43.9420   -1.3070    5.2880 C   0  0  0  0  0  0  0  0  0  0  0  0
  -43.1620   -0.3510    4.7610 F   0  0  0  0  0  0  0  0  0  0  0  0
  -43.6730   -1.7270    6.5890 C   0  0  0  0  0  0  0  0  0  0  0  0
  -44.4450   -2.7310    7.1660 C   0  0  0  0  0  0  0  0  0  0  0  0
  -45.4750   -3.3120    6.4310 C   0  0  0  0  0  0  0  0  0  0  0  0
  -45.7300   -2.8830    5.1240 C   0  0  0  0  0  0  0  0  0  0  0  0
  -46.7350   -3.4790    4.4570 F   0  0  0  0  0  0  0  0  0  0  0  0
  -44.4110   -1.8710    2.1960 N   0  0  0  0  0  0  0  0  0  0  0  0
  -38.4660   -2.4120    2.4770 C   0  0  0  0  0  0  0  0  0  0  0  0
  -37.5625   -5.7326    3.1255 H   0  0  0  0  0  0  0  0  0  0  0  0
  -38.6541   -5.1243    1.8351 H   0  0  0  0  0  0  0  0  0  0  0  0
  -36.9184   -4.6618    1.8351 H   0  0  0  0  0  0  0  0  0  0  0  0
  -37.2035   -3.3786    3.8734 H   0  0  0  0  0  0  0  0  0  0  0  0
  -39.3406   -5.0754    4.3925 H   0  0  0  0  0  0  0  0  0  0  0  0
  -38.8425   -3.5959    5.3399 H   0  0  0  0  0  0  0  0  0  0  0  0
  -40.4859   -2.2833    4.4378 H   0  0  0  0  0  0  0  0  0  0  0  0
  -41.2410   -4.7810    5.4330 H   0  0  0  0  0  0  0  0  0  0  0  0
  -42.2750   -4.5160    4.1610 H   0  0  0  0  0  0  0  0  0  0  0  0
  -42.1640   -3.4060    5.3920 H   0  0  0  0  0  0  0  0  0  0  0  0
  -40.7734   -4.3376    2.2094 H   0  0  0  0  0  0  0  0  0  0  0  0
  -41.8815   -2.9324    2.4657 H   0  0  0  0  0  0  0  0  0  0  0  0
  -40.1594   -1.3341    1.9365 H   0  0  0  0  0  0  0  0  0  0  0  0
  -37.9221   -3.2093    0.0566 H   0  0  0  0  0  0  0  0  0  0  0  0
  -38.1803   -3.7453   -2.3277 H   0  0  0  0  0  0  0  0  0  0  0  0
  -42.2474   -2.7296   -2.2311 H   0  0  0  0  0  0  0  0  0  0  0  0
  -42.2520   -1.6440    1.2760 H   0  0  0  0  0  0  0  0  0  0  0  0
  -45.6988   -0.1082   -0.4501 H   0  0  0  0  0  0  0  0  0  0  0  0
  -47.2549    0.6912    1.3565 H   0  0  0  0  0  0  0  0  0  0  0  0
  -42.8525   -1.2662    7.1586 H   0  0  0  0  0  0  0  0  0  0  0  0
  -44.2430   -3.0631    8.1950 H   0  0  0  0  0  0  0  0  0  0  0  0
  -46.0882   -4.1083    6.8780 H   0  0  0  0  0  0  0  0  0  0  0  0
  -37.7285   -2.3435    1.6638 H   0  0  0  0  0  0  0  0  0  0  0  0
  -38.4497   -1.5634    3.1768 H   0  0  0  0  0  0  0  0  0  0  0  0
  1  2  1  0
  2  3  1  0
  3  4  1  0
  4  5  1  0
  4  6  1  0
  6  7  1  0
  7  8  1  0
  8  9  2  0
  9 10  1  0
 10 11  2  0
 11 12  1  0
 12 13  2  0
 13 14  1  0
 14 15  1  0
 15 16  2  0
 15 17  1  0
 17 18  2  0
 18 19  1  0
 19 20  2  0
 20 21  1  0
 20 22  1  0
 22 23  1  0
 23 24  2  0
 24 25  1  0
 24 26  1  0
 26 27  2  0
 27 28  1  0
 28 29  2  0
 29 30  1  0
 22 31  2  0
  7 32  1  0
 32  2  1  0
 13  8  1  0
 31 17  1  0
 29 23  1  0
  1 33  1  0
  1 34  1  0
  1 35  1  0
  2 36  1  1
  3 37  1  0
  3 38  1  0
  4 39  1  1
  5 40  1  0
  5 41  1  0
  5 42  1  0
  6 43  1  0
  6 44  1  0
  7 45  1  6
  9 46  1  0
 10 47  1  0
 12 48  1  0
 14 49  1  0
 18 50  1  0
 19 51  1  0
 26 52  1  0
 27 53  1  0
 28 54  1  0
 32 55  1  0
 32 56  1  0
M  CHG  1   5   1
M  END
>  <meeko>  (2) 
{"is_sidechain": [false], "free_energy": -10.411, "intermolecular_energy": -12.866, "internal_energy": -1.032}

$$$$
5dwr_ligand
     RDKit          3D

 56 59  0  0  0  0  0  0  0  0999 V2000
  -37.7810   -4.9580    2.4750 C   0  0  0  0  0  0  0  0  0  0  0  0
  -38.1000   -3.7260    3.3260 C   0  0  2  0  0  0  0  0  0  0  0  0
  -39.2110   -4.0380    4.3490 C   0  0  0  0  0  0  0  0  0  0  0  0
  -40.5340   -3.3480    4.0350 C   0  0  2  0  0  0  0  0  0  0  0  0
  -41.6410   -4.0590    4.7260 N   0  0  0  0  0  0  0  0  0  0  0  0
  -40.8180   -3.3260    2.5420 C   0  0  0  0  0  0  0  0  0  0  0  0
  -39.8030   -2.4270    1.8000 C   0  0  2  0  0  0  0  0  0  0  0  0
  -39.8950   -2.6710    0.2900 C   0  0  0  0  0  0  0  0  0  0  0  0
  -38.7820   -3.1140   -0.4420 C   0  0  0  0  0  0  0  0  0  0  0  0
  -38.9110   -3.4120   -1.7910 C   0  0  0  0  0  0  0  0  0  0  0  0
  -40.0660   -3.3060   -2.4650 N   0  0  0  0  0  0  0  0  0  0  0  0
  -41.1380   -2.8570   -1.7720 C   0  0  0  0  0  0  0  0  0  0  0  0
  -41.1150   -2.5160   -0.4170 C   0  0  0  0  0  0  0  0  0  0  0  0
  -42.2570   -2.0190    0.2490 N   0  0  0  0  0  0  0  0  0  0  0  0
  -43.5690   -2.0320   -0.1840 C   0  0  0  0  0  0  0  0  0  0  0  0
  -43.9920   -2.4690   -1.2440 O   0  0  0  0  0  0  0  0  0  0  0  0
  -44.5140   -1.4790    0.8440 C   0  0  0  0  0  0  0  0  0  0  0  0
  -45.5160   -0.5950    0.4590 C   0  0  0  0  0  0  0  0  0  0  0  0
  -46.3800   -0.1220    1.4400 C   0  0  0  0  0  0  0  0  0  0  0  0
  -46.2020   -0.5380    2.7540 C   0  0  0  0  0  0  0  0  0  0  0  0
  -47.0450   -0.0930    3.6980 F   0  0  0  0  0  0  0  0  0  0  0  0
  -45.1670   -1.4210    3.0730 C   0  0  0  0  0  0  0  0  0  0  0  0
  -44.9030   -1.8400    4.4510 C   0  0  0  0  0  0  0  0  0  0  0  0
  -45.6840   -2.8320    5.0610 C   0  0  0  0  0  0  0  0  0  0  0  0
  -46.7050   -3.3860    4.3900 F   0  0  0  0  0  0  0  0  0  0  0  0
  -45.4500   -3.2600    6.3660 C   0  0  0  0  0  0  0  0  0  0  0  0
  -44.4140   -2.6960    7.1050 C   0  0  0  0  0  0  0  0  0  0  0  0
  -43.6260   -1.7020    6.5310 C   0  0  0  0  0  0  0  0  0  0  0  0
  -43.8760   -1.2800    5.2210 C   0  0  0  0  0  0  0  0  0  0  0  0
  -43.0870   -0.3140    4.7160 F   0  0  0  0  0  0  0  0  0  0  0  0
  -44.3250   -1.9260    2.1270 N   0  0  0  0  0  0  0  0  0  0  0  0
  -38.4030   -2.4760    2.4740 C   0  0  0  0  0  0  0  0  0  0  0  0
  -37.5601   -5.8111    3.1333 H   0  0  0  0  0  0  0  0  0  0  0  0
  -38.6463   -5.1992    1.8401 H   0  0  0  0  0  0  0  0  0  0  0  0
  -36.9074   -4.7489    1.8401 H   0  0  0  0  0  0  0  0  0  0  0  0
  -37.1931   -3.4740    3.8953 H   0  0  0  0  0  0  0  0  0  0  0  0
  -39.3788   -5.1251    4.3609 H   0  0  0  0  0  0  0  0  0  0  0  0
  -38.8705   -3.6593    5.3240 H   0  0  0  0  0  0  0  0  0  0  0  0
  -40.4613   -2.3087    4.3881 H   0  0  0  0  0  0  0  0  0  0  0  0
  -42.2060   -3.4270    5.3060 H   0  0  0  0  0  0  0  0  0  0  0  0
  -41.2990   -4.8190    5.3310 H   0  0  0  0  0  0  0  0  0  0  0  0
  -42.2790   -4.4840    4.0320 H   0  0  0  0  0  0  0  0  0  0  0  0
  -40.7478   -4.3502    2.1470 H   0  0  0  0  0  0  0  0  0  0  0  0
  -41.8282   -2.9208    2.3826 H   0  0  0  0  0  0  0  0  0  0  0  0
  -40.0567   -1.3612    1.8991 H   0  0  0  0  0  0  0  0  0  0  0  0
  -37.8067   -3.2250    0.0544 H   0  0  0  0  0  0  0  0  0  0  0  0
  -38.0189   -3.7532   -2.3367 H   0  0  0  0  0  0  0  0  0  0  0  0
  -42.0912   -2.7535   -2.3112 H   0  0  0  0  0  0  0  0  0  0  0  0
  -42.1500   -1.6080    1.1680 H   0  0  0  0  0  0  0  0  0  0  0  0
  -45.6217   -0.2797   -0.5895 H   0  0  0  0  0  0  0  0  0  0  0  0
  -47.1931    0.5717    1.1798 H   0  0  0  0  0  0  0  0  0  0  0  0
  -46.0826   -4.0419    6.8114 H   0  0  0  0  0  0  0  0  0  0  0  0
  -44.2195   -3.0328    8.1339 H   0  0  0  0  0  0  0  0  0  0  0  0
  -42.8066   -1.2484    7.1078 H   0  0  0  0  0  0  0  0  0  0  0  0
  -37.6455   -2.4206    1.6783 H   0  0  0  0  0  0  0  0  0  0  0  0
  -38.3850   -1.6298    3.1765 H   0  0  0  0  0  0  0  0  0  0  0  0
  1  2  1  0
  2  3  1  0
  3  4  1  0
  4  5  1  0
  4  6  1  0
  6  7  1  0
  7  8  1  0
  8  9  2  0
  9 10  1  0
 10 11  2  0
 11 12  1  0
 12 13  2  0
 13 14  1  0
 14 15  1  0
 15 16  2  0
 15 17  1  0
 17 18  2  0
 18 19  1  0
 19 20  2  0
 20 21  1  0
 20 22  1  0
 22 23  1  0
 23 24  2  0
 24 25  1  0
 24 26  1  0
 26 27  2  0
 27 28  1  0
 28 29  2  0
 29 30  1  0
 22 31  2  0
  7 32  1  0
 32  2  1  0
 13  8  1  0
 31 17  1  0
 29 23  1  0
  1 33  1  0
  1 34  1  0
  1 35  1  0
  2 36  1  1
  3 37  1  0
  3 38  1  0
  4 39  1  1
  5 40  1  0
  5 41  1  0
  5 42  1  0
  6 43  1  0
  6 44  1  0
  7 45  1  6
  9 46  1  0
 10 47  1  0
 12 48  1  0
 14 49  1  0
 18 50  1  0
 19 51  1  0
 26 52  1  0
 27 53  1  0
 28 54  1  0
 32 55  1  0
 32 56  1  0
M  CHG  1   5   1
M  END
>  <meeko>  (3) 
{"is_sidechain": [false], "free_energy": -10.356, "intermolecular_energy": -12.79, "internal_energy": -1.038}

$$$$
5dwr_ligand
     RDKit          3D

 56 59  0  0  0  0  0  0  0  0999 V2000
  -46.2850   -3.6600    4.4670 C   0  0  0  0  0  0  0  0  0  0  0  0
  -44.8700   -3.3390    4.9530 C   0  0  2  0  0  0  0  0  0  0  0  0
  -44.8890   -2.1860    5.9770 C   0  0  0  0  0  0  0  0  0  0  0  0
  -44.2880   -0.8910    5.4420 C   0  0  2  0  0  0  0  0  0  0  0  0
  -44.7810    0.2550    6.2510 N   0  0  0  0  0  0  0  0  0  0  0  0
  -44.6540   -0.6600    3.9860 C   0  0  0  0  0  0  0  0  0  0  0  0
  -43.9920   -1.7200    3.0750 C   0  0  2  0  0  0  0  0  0  0  0  0
  -44.6210   -1.6760    1.6790 C   0  0  0  0  0  0  0  0  0  0  0  0
  -45.9870   -1.3970    1.5060 C   0  0  0  0  0  0  0  0  0  0  0  0
  -46.5150   -1.2760    0.2290 C   0  0  0  0  0  0  0  0  0  0  0  0
  -45.7870   -1.4070   -0.8890 N   0  0  0  0  0  0  0  0  0  0  0  0
  -44.4750   -1.6990   -0.7320 C   0  0  0  0  0  0  0  0  0  0  0  0
  -43.8440   -1.8560    0.5060 C   0  0  0  0  0  0  0  0  0  0  0  0
  -42.4770   -2.1960    0.6120 N   0  0  0  0  0  0  0  0  0  0  0  0
  -41.4510   -1.8800   -0.2570 C   0  0  0  0  0  0  0  0  0  0  0  0
  -41.5360   -1.2510   -1.3020 O   0  0  0  0  0  0  0  0  0  0  0  0
  -40.1150   -2.3530    0.2400 C   0  0  0  0  0  0  0  0  0  0  0  0
  -39.0440   -2.4520   -0.6390 C   0  0  0  0  0  0  0  0  0  0  0  0
  -37.8210   -2.8770   -0.1320 C   0  0  0  0  0  0  0  0  0  0  0  0
  -37.7230   -3.1940    1.2170 C   0  0  0  0  0  0  0  0  0  0  0  0
  -36.5410   -3.5900    1.7090 F   0  0  0  0  0  0  0  0  0  0  0  0
  -38.8450   -3.0810    2.0440 C   0  0  0  0  0  0  0  0  0  0  0  0
  -38.8060   -3.4610    3.4580 C   0  0  0  0  0  0  0  0  0  0  0  0
  -39.1470   -2.5390    4.4570 C   0  0  0  0  0  0  0  0  0  0  0  0
  -39.4830   -1.2840    4.1230 F   0  0  0  0  0  0  0  0  0  0  0  0
  -39.1310   -2.8740    5.8100 C   0  0  0  0  0  0  0  0  0  0  0  0
  -38.7670   -4.1600    6.2010 C   0  0  0  0  0  0  0  0  0  0  0  0
  -38.4150   -5.0960    5.2320 C   0  0  0  0  0  0  0  0  0  0  0  0
  -38.4310   -4.7430    3.8790 C   0  0  0  0  0  0  0  0  0  0  0  0
  -38.0790   -5.6850    2.9850 F   0  0  0  0  0  0  0  0  0  0  0  0
  -40.0480   -2.6370    1.5810 N   0  0  0  0  0  0  0  0  0  0  0  0
  -43.8820   -3.0940    3.7940 C   0  0  0  0  0  0  0  0  0  0  0  0
  -46.9453   -3.8098    5.3339 H   0  0  0  0  0  0  0  0  0  0  0  0
  -46.6622   -2.8246    3.8588 H   0  0  0  0  0  0  0  0  0  0  0  0
  -46.2648   -4.5764    3.8588 H   0  0  0  0  0  0  0  0  0  0  0  0
  -44.4901   -4.2315    5.4718 H   0  0  0  0  0  0  0  0  0  0  0  0
  -45.9328   -1.9929    6.2653 H   0  0  0  0  0  0  0  0  0  0  0  0
  -44.2729   -2.5010    6.8321 H   0  0  0  0  0  0  0  0  0  0  0  0
  -43.1935   -0.9741    5.5140 H   0  0  0  0  0  0  0  0  0  0  0  0
  -45.7970    0.3780    6.1700 H   0  0  0  0  0  0  0  0  0  0  0  0
  -44.3360    1.1430    5.9810 H   0  0  0  0  0  0  0  0  0  0  0  0
  -44.5740    0.1000    7.2520 H   0  0  0  0  0  0  0  0  0  0  0  0
  -45.7467   -0.7219    3.8752 H   0  0  0  0  0  0  0  0  0  0  0  0
  -44.2929    0.3350    3.6867 H   0  0  0  0  0  0  0  0  0  0  0  0
  -42.9346   -1.4864    2.8820 H   0  0  0  0  0  0  0  0  0  0  0  0
  -46.6384   -1.2744    2.3839 H   0  0  0  0  0  0  0  0  0  0  0  0
  -47.5891   -1.0609    0.1283 H   0  0  0  0  0  0  0  0  0  0  0  0
  -43.8642   -1.8210   -1.6386 H   0  0  0  0  0  0  0  0  0  0  0  0
  -42.1620   -2.7220    1.4170 H   0  0  0  0  0  0  0  0  0  0  0  0
  -39.1599   -2.2018   -1.7039 H   0  0  0  0  0  0  0  0  0  0  0  0
  -36.9434   -2.9610   -0.7898 H   0  0  0  0  0  0  0  0  0  0  0  0
  -39.4052   -2.1244    6.5669 H   0  0  0  0  0  0  0  0  0  0  0  0
  -38.7576   -4.4341    7.2663 H   0  0  0  0  0  0  0  0  0  0  0  0
  -38.1241   -6.1138    5.5310 H   0  0  0  0  0  0  0  0  0  0  0  0
  -44.0457   -3.8800    3.0420 H   0  0  0  0  0  0  0  0  0  0  0  0
  -42.8823   -3.1061    4.2528 H   0  0  0  0  0  0  0  0  0  0  0  0
  1  2  1  0
  2  3  1  0
  3  4  1  0
  4  5  1  0
  4  6  1  0
  6  7  1  0
  7  8  1  0
  8  9  2  0
  9 10  1  0
 10 11  2  0
 11 12  1  0
 12 13  2  0
 13 14  1  0
 14 15  1  0
 15 16  2  0
 15 17  1  0
 17 18  2  0
 18 19  1  0
 19 20  2  0
 20 21  1  0
 20 22  1  0
 22 23  1  0
 23 24  2  0
 24 25  1  0
 24 26  1  0
 26 27  2  0
 27 28  1  0
 28 29  2  0
 29 30  1  0
 22 31  2  0
  7 32  1  0
 32  2  1  0
 13  8  1  0
 31 17  1  0
 29 23  1  0
  1 33  1  0
  1 34  1  0
  1 35  1  0
  2 36  1  1
  3 37  1  0
  3 38  1  0
  4 39  1  6
  5 40  1  0
  5 41  1  0
  5 42  1  0
  6 43  1  0
  6 44  1  0
  7 45  1  6
  9 46  1  0
 10 47  1  0
 12 48  1  0
 14 49  1  0
 18 50  1  0
 19 51  1  0
 26 52  1  0
 27 53  1  0
 28 54  1  0
 32 55  1  0
 32 56  1  0
M  CHG  1   5   1
M  END
>  <meeko>  (4) 
{"is_sidechain": [false], "free_energy": -10.217, "intermolecular_energy": -12.604, "internal_energy": -1.049}

$$$$
5dwr_ligand
     RDKit          3D

 56 59  0  0  0  0  0  0  0  0999 V2000
  -40.1760   -0.1070   -1.5200 C   0  0  0  0  0  0  0  0  0  0  0  0
  -39.5940   -1.4000   -0.9450 C   0  0  2  0  0  0  0  0  0  0  0  0
  -39.0730   -2.3160   -2.0710 C   0  0  0  0  0  0  0  0  0  0  0  0
  -39.9210   -3.5670   -2.2760 C   0  0  2  0  0  0  0  0  0  0  0  0
  -39.6790   -4.1120   -3.6380 N   0  0  0  0  0  0  0  0  0  0  0  0
  -41.4030   -3.2730   -2.1190 C   0  0  0  0  0  0  0  0  0  0  0  0
  -41.7400   -2.8940   -0.6580 C   0  0  2  0  0  0  0  0  0  0  0  0
  -43.1470   -2.2930   -0.5840 C   0  0  0  0  0  0  0  0  0  0  0  0
  -43.9820   -2.2610   -1.7130 C   0  0  0  0  0  0  0  0  0  0  0  0
  -45.2830   -1.7910   -1.6010 C   0  0  0  0  0  0  0  0  0  0  0  0
  -45.8170   -1.3550   -0.4500 N   0  0  0  0  0  0  0  0  0  0  0  0
  -45.0110   -1.3610    0.6360 C   0  0  0  0  0  0  0  0  0  0  0  0
  -43.6830   -1.7990    0.6330 C   0  0  0  0  0  0  0  0  0  0  0  0
  -42.8750   -1.7500    1.7900 N   0  0  0  0  0  0  0  0  0  0  0  0
  -43.2540   -1.9560    3.1020 C   0  0  0  0  0  0  0  0  0  0  0  0
  -44.3760   -2.2080    3.5160 O   0  0  0  0  0  0  0  0  0  0  0  0
  -42.0890   -1.8980    4.0480 C   0  0  0  0  0  0  0  0  0  0  0  0
  -42.0750   -0.9590    5.0730 C   0  0  0  0  0  0  0  0  0  0  0  0
  -40.9850   -0.9530    5.9380 C   0  0  0  0  0  0  0  0  0  0  0  0
  -39.9580   -1.8670    5.7360 C   0  0  0  0  0  0  0  0  0  0  0  0
  -38.9150   -1.8710    6.5770 F   0  0  0  0  0  0  0  0  0  0  0  0
  -40.0320   -2.7780    4.6770 C   0  0  0  0  0  0  0  0  0  0  0  0
  -38.9480   -3.7190    4.3890 C   0  0  0  0  0  0  0  0  0  0  0  0
  -38.1870   -3.5990    3.2180 C   0  0  0  0  0  0  0  0  0  0  0  0
  -38.4710   -2.6320    2.3320 F   0  0  0  0  0  0  0  0  0  0  0  0
  -37.1420   -4.4710    2.9210 C   0  0  0  0  0  0  0  0  0  0  0  0
  -36.8290   -5.5010    3.8030 C   0  0  0  0  0  0  0  0  0  0  0  0
  -37.5710   -5.6530    4.9710 C   0  0  0  0  0  0  0  0  0  0  0  0
  -38.6200   -4.7720    5.2520 C   0  0  0  0  0  0  0  0  0  0  0  0
  -39.3080   -4.9660    6.3930 F   0  0  0  0  0  0  0  0  0  0  0  0
  -41.1030   -2.8290    3.8350 N   0  0  0  0  0  0  0  0  0  0  0  0
  -40.5680   -2.1200    0.0100 C   0  0  0  0  0  0  0  0  0  0  0  0
  -40.4754    0.5582   -0.6967 H   0  0  0  0  0  0  0  0  0  0  0  0
  -39.4165    0.3938   -2.1383 H   0  0  0  0  0  0  0  0  0  0  0  0
  -41.0545   -0.3435   -2.1383 H   0  0  0  0  0  0  0  0  0  0  0  0
  -38.7308   -1.1238   -0.3216 H   0  0  0  0  0  0  0  0  0  0  0  0
  -39.0639   -1.7433   -3.0101 H   0  0  0  0  0  0  0  0  0  0  0  0
  -38.0669   -2.6504   -1.7779 H   0  0  0  0  0  0  0  0  0  0  0  0
  -39.6303   -4.2994   -1.5085 H   0  0  0  0  0  0  0  0  0  0  0  0
  -38.8130   -4.6610   -3.6870 H   0  0  0  0  0  0  0  0  0  0  0  0
  -39.6220   -3.3720   -4.3500 H   0  0  0  0  0  0  0  0  0  0  0  0
  -40.4530   -4.7420   -3.9110 H   0  0  0  0  0  0  0  0  0  0  0  0
  -41.6761   -2.4371   -2.7798 H   0  0  0  0  0  0  0  0  0  0  0  0
  -41.9703   -4.1765   -2.3869 H   0  0  0  0  0  0  0  0  0  0  0  0
  -41.8130   -3.7831   -0.0144 H   0  0  0  0  0  0  0  0  0  0  0  0
  -43.6047   -2.6085   -2.6861 H   0  0  0  0  0  0  0  0  0  0  0  0
  -45.9101   -1.7751   -2.5046 H   0  0  0  0  0  0  0  0  0  0  0  0
  -45.4285   -0.9966    1.5862 H   0  0  0  0  0  0  0  0  0  0  0  0
  -41.8850   -1.5600    1.6920 H   0  0  0  0  0  0  0  0  0  0  0  0
  -42.9005   -0.2425    5.1965 H   0  0  0  0  0  0  0  0  0  0  0  0
  -40.9370   -0.2349    6.7699 H   0  0  0  0  0  0  0  0  0  0  0  0
  -36.5660   -4.3458    1.9922 H   0  0  0  0  0  0  0  0  0  0  0  0
  -36.0013   -6.1900    3.5788 H   0  0  0  0  0  0  0  0  0  0  0  0
  -37.3322   -6.4658    5.6726 H   0  0  0  0  0  0  0  0  0  0  0  0
  -41.0039   -1.3626    0.6781 H   0  0  0  0  0  0  0  0  0  0  0  0
  -39.9656   -2.8843    0.5228 H   0  0  0  0  0  0  0  0  0  0  0  0
  1  2  1  0
  2  3  1  0
  3  4  1  0
  4  5  1  0
  4  6  1  0
  6  7  1  0
  7  8  1  0
  8  9  2  0
  9 10  1  0
 10 11  2  0
 11 12  1  0
 12 13  2  0
 13 14  1  0
 14 15  1  0
 15 16  2  0
 15 17  1  0
 17 18  2  0
 18 19  1  0
 19 20  2  0
 20 21  1  0
 20 22  1  0
 22 23  1  0
 23 24  2  0
 24 25  1  0
 24 26  1  0
 26 27  2  0
 27 28  1  0
 28 29  2  0
 29 30  1  0
 22 31  2  0
  7 32  1  0
 32  2  1  0
 13  8  1  0
 31 17  1  0
 29 23  1  0
  1 33  1  0
  1 34  1  0
  1 35  1  0
  2 36  1  1
  3 37  1  0
  3 38  1  0
  4 39  1  1
  5 40  1  0
  5 41  1  0
  5 42  1  0
  6 43  1  0
  6 44  1  0
  7 45  1  1
  9 46  1  0
 10 47  1  0
 12 48  1  0
 14 49  1  0
 18 50  1  0
 19 51  1  0
 26 52  1  0
 27 53  1  0
 28 54  1  0
 32 55  1  0
 32 56  1  0
M  CHG  1   5   1
M  END
>  <meeko>  (5) 
{"is_sidechain": [false], "free_energy": -10.202, "intermolecular_energy": -12.766, "internal_energy": -0.869}

$$$$
5dwr_ligand
     RDKit          3D

 56 59  0  0  0  0  0  0  0  0999 V2000
  -40.3970   -3.3320    9.0770 C   0  0  0  0  0  0  0  0  0  0  0  0
  -40.6940   -2.0890    8.2350 C   0  0  2  0  0  0  0  0  0  0  0  0
  -42.1220   -2.1450    7.6580 C   0  0  0  0  0  0  0  0  0  0  0  0
  -42.1580   -2.3660    6.1490 C   0  0  2  0  0  0  0  0  0  0  0  0
  -43.4890   -2.8980    5.7570 N   0  0  0  0  0  0  0  0  0  0  0  0
  -41.0840   -3.3420    5.6980 C   0  0  0  0  0  0  0  0  0  0  0  0
  -39.6730   -2.7440    5.9010 C   0  0  2  0  0  0  0  0  0  0  0  0
  -38.6140   -3.8410    5.7550 C   0  0  0  0  0  0  0  0  0  0  0  0
  -38.0720   -4.4820    6.8800 C   0  0  0  0  0  0  0  0  0  0  0  0
  -37.1790   -5.5320    6.7200 C   0  0  0  0  0  0  0  0  0  0  0  0
  -36.7890   -5.9960    5.5240 N   0  0  0  0  0  0  0  0  0  0  0  0
  -37.2880   -5.3680    4.4340 C   0  0  0  0  0  0  0  0  0  0  0  0
  -38.1810   -4.2930    4.4810 C   0  0  0  0  0  0  0  0  0  0  0  0
  -38.6440   -3.6520    3.3110 N   0  0  0  0  0  0  0  0  0  0  0  0
  -38.0010   -3.5330    2.0940 C   0  0  0  0  0  0  0  0  0  0  0  0
  -36.8920   -3.9550    1.8010 O   0  0  0  0  0  0  0  0  0  0  0  0
  -38.8520   -2.8460    1.0640 C   0  0  0  0  0  0  0  0  0  0  0  0
  -38.3010   -2.4810   -0.1580 C   0  0  0  0  0  0  0  0  0  0  0  0
  -39.1290   -1.8640   -1.0890 C   0  0  0  0  0  0  0  0  0  0  0  0
  -40.4580   -1.6280   -0.7580 C   0  0  0  0  0  0  0  0  0  0  0  0
  -41.2610   -1.0460   -1.6610 F   0  0  0  0  0  0  0  0  0  0  0  0
  -40.9450   -2.0130    0.4940 C   0  0  0  0  0  0  0  0  0  0  0  0
  -42.3210   -1.7320    0.9100 C   0  0  0  0  0  0  0  0  0  0  0  0
  -42.5830   -1.0570    2.1110 C   0  0  0  0  0  0  0  0  0  0  0  0
  -41.5670   -0.6910    2.9080 F   0  0  0  0  0  0  0  0  0  0  0  0
  -43.8800   -0.7650    2.5290 C   0  0  0  0  0  0  0  0  0  0  0  0
  -44.9620   -1.1470    1.7420 C   0  0  0  0  0  0  0  0  0  0  0  0
  -44.7360   -1.8250    0.5470 C   0  0  0  0  0  0  0  0  0  0  0  0
  -43.4280   -2.1160    0.1450 C   0  0  0  0  0  0  0  0  0  0  0  0
  -43.2660   -2.7770   -1.0160 F   0  0  0  0  0  0  0  0  0  0  0  0
  -40.1650   -2.6490    1.4140 N   0  0  0  0  0  0  0  0  0  0  0  0
  -39.6210   -1.8290    7.1570 C   0  0  0  0  0  0  0  0  0  0  0  0
  -40.4584   -3.0748   10.1448 H   0  0  0  0  0  0  0  0  0  0  0  0
  -41.1331   -4.1160    8.8457 H   0  0  0  0  0  0  0  0  0  0  0  0
  -39.3860   -3.6986    8.8457 H   0  0  0  0  0  0  0  0  0  0  0  0
  -40.6464   -1.2178    8.9048 H   0  0  0  0  0  0  0  0  0  0  0  0
  -42.6623   -2.9706    8.1442 H   0  0  0  0  0  0  0  0  0  0  0  0
  -42.5898   -1.1690    7.8543 H   0  0  0  0  0  0  0  0  0  0  0  0
  -41.9707   -1.3969    5.6634 H   0  0  0  0  0  0  0  0  0  0  0  0
  -43.5150   -3.9250    5.7730 H   0  0  0  0  0  0  0  0  0  0  0  0
  -43.7700   -2.5920    4.8150 H   0  0  0  0  0  0  0  0  0  0  0  0
  -44.2130   -2.5670    6.4160 H   0  0  0  0  0  0  0  0  0  0  0  0
  -41.1701   -4.2684    6.2849 H   0  0  0  0  0  0  0  0  0  0  0  0
  -41.2262   -3.5501    4.6273 H   0  0  0  0  0  0  0  0  0  0  0  0
  -39.4142   -2.0353    5.1005 H   0  0  0  0  0  0  0  0  0  0  0  0
  -38.3556   -4.1514    7.8901 H   0  0  0  0  0  0  0  0  0  0  0  0
  -36.7692   -6.0091    7.6225 H   0  0  0  0  0  0  0  0  0  0  0  0
  -36.9696   -5.7274    3.4443 H   0  0  0  0  0  0  0  0  0  0  0  0
  -39.5620   -3.2250    3.3140 H   0  0  0  0  0  0  0  0  0  0  0  0
  -37.2416   -2.6743   -0.3822 H   0  0  0  0  0  0  0  0  0  0  0  0
  -38.7379   -1.5670   -2.0733 H   0  0  0  0  0  0  0  0  0  0  0  0
  -44.0478   -0.2344    3.4778 H   0  0  0  0  0  0  0  0  0  0  0  0
  -45.9887   -0.9150    2.0616 H   0  0  0  0  0  0  0  0  0  0  0  0
  -45.5856   -2.1317   -0.0807 H   0  0  0  0  0  0  0  0  0  0  0  0
  -38.6350   -1.9598    7.6267 H   0  0  0  0  0  0  0  0  0  0  0  0
  -39.8157   -0.8113    6.7877 H   0  0  0  0  0  0  0  0  0  0  0  0
  1  2  1  0
  2  3  1  0
  3  4  1  0
  4  5  1  0
  4  6  1  0
  6  7  1  0
  7  8  1  0
  8  9  2  0
  9 10  1  0
 10 11  2  0
 11 12  1  0
 12 13  2  0
 13 14  1  0
 14 15  1  0
 15 16  2  0
 15 17  1  0
 17 18  2  0
 18 19  1  0
 19 20  2  0
 20 21  1  0
 20 22  1  0
 22 23  1  0
 23 24  2  0
 24 25  1  0
 24 26  1  0
 26 27  2  0
 27 28  1  0
 28 29  2  0
 29 30  1  0
 22 31  2  0
  7 32  1  0
 32  2  1  0
 13  8  1  0
 31 17  1  0
 29 23  1  0
  1 33  1  0
  1 34  1  0
  1 35  1  0
  2 36  1  1
  3 37  1  0
  3 38  1  0
  4 39  1  6
  5 40  1  0
  5 41  1  0
  5 42  1  0
  6 43  1  0
  6 44  1  0
  7 45  1  6
  9 46  1  0
 10 47  1  0
 12 48  1  0
 14 49  1  0
 18 50  1  0
 19 51  1  0
 26 52  1  0
 27 53  1  0
 28 54  1  0
 32 55  1  0
 32 56  1  0
M  CHG  1   5   1
M  END
>  <meeko>  (6) 
{"is_sidechain": [false], "free_energy": -10.032, "intermolecular_energy": -12.658, "internal_energy": -0.761}

$$$$
5dwr_ligand
     RDKit          3D

 56 59  0  0  0  0  0  0  0  0999 V2000
  -37.2180   -4.8300    6.6320 C   0  0  0  0  0  0  0  0  0  0  0  0
  -37.9410   -5.5280    5.4780 C   0  0  2  0  0  0  0  0  0  0  0  0
  -37.4270   -5.0140    4.1180 C   0  0  0  0  0  0  0  0  0  0  0  0
  -38.4460   -4.1620    3.3690 C   0  0  2  0  0  0  0  0  0  0  0  0
  -37.7450   -3.3190    2.3650 N   0  0  0  0  0  0  0  0  0  0  0  0
  -39.2270   -3.2610    4.3100 C   0  0  0  0  0  0  0  0  0  0  0  0
  -40.1330   -4.0930    5.2470 C   0  0  2  0  0  0  0  0  0  0  0  0
  -40.6540   -3.2130    6.3880 C   0  0  0  0  0  0  0  0  0  0  0  0
  -40.1190   -3.3110    7.6830 C   0  0  0  0  0  0  0  0  0  0  0  0
  -40.5460   -2.4450    8.6790 C   0  0  0  0  0  0  0  0  0  0  0  0
  -41.4610   -1.4840    8.4820 N   0  0  0  0  0  0  0  0  0  0  0  0
  -41.9980   -1.3980    7.2430 C   0  0  0  0  0  0  0  0  0  0  0  0
  -41.6520   -2.2280    6.1720 C   0  0  0  0  0  0  0  0  0  0  0  0
  -42.2710   -2.1170    4.9080 N   0  0  0  0  0  0  0  0  0  0  0  0
  -43.4620   -2.6780    4.4910 C   0  0  0  0  0  0  0  0  0  0  0  0
  -44.2070   -3.3970    5.1410 O   0  0  0  0  0  0  0  0  0  0  0  0
  -43.8290   -2.2660    3.0940 C   0  0  0  0  0  0  0  0  0  0  0  0
  -45.0780   -1.7110    2.8410 C   0  0  0  0  0  0  0  0  0  0  0  0
  -45.3690   -1.3260    1.5370 C   0  0  0  0  0  0  0  0  0  0  0  0
  -44.4140   -1.5210    0.5470 C   0  0  0  0  0  0  0  0  0  0  0  0
  -44.6880   -1.1370   -0.7080 F   0  0  0  0  0  0  0  0  0  0  0  0
  -43.1800   -2.0940    0.8700 C   0  0  0  0  0  0  0  0  0  0  0  0
  -42.1660   -2.3750   -0.1490 C   0  0  0  0  0  0  0  0  0  0  0  0
  -40.8150   -2.0840    0.0860 C   0  0  0  0  0  0  0  0  0  0  0  0
  -40.4440   -1.5140    1.2420 F   0  0  0  0  0  0  0  0  0  0  0  0
  -39.8250   -2.3500   -0.8590 C   0  0  0  0  0  0  0  0  0  0  0  0
  -40.1700   -2.9210   -2.0810 C   0  0  0  0  0  0  0  0  0  0  0  0
  -41.5050   -3.2140   -2.3480 C   0  0  0  0  0  0  0  0  0  0  0  0
  -42.4870   -2.9360   -1.3910 C   0  0  0  0  0  0  0  0  0  0  0  0
  -43.7620   -3.2360   -1.7020 F   0  0  0  0  0  0  0  0  0  0  0  0
  -42.8550   -2.4510    2.1450 N   0  0  0  0  0  0  0  0  0  0  0  0
  -39.4760   -5.4560    5.6050 C   0  0  0  0  0  0  0  0  0  0  0  0
  -37.6074   -5.2060    7.5896 H   0  0  0  0  0  0  0  0  0  0  0  0
  -36.1396   -5.0373    6.5680 H   0  0  0  0  0  0  0  0  0  0  0  0
  -37.3872   -3.7450    6.5680 H   0  0  0  0  0  0  0  0  0  0  0  0
  -37.6980   -6.5992    5.5362 H   0  0  0  0  0  0  0  0  0  0  0  0
  -36.5260   -4.4075    4.2922 H   0  0  0  0  0  0  0  0  0  0  0  0
  -37.2198   -5.8961    3.4944 H   0  0  0  0  0  0  0  0  0  0  0  0
  -39.1548   -4.8435    2.8758 H   0  0  0  0  0  0  0  0  0  0  0  0
  -38.2810   -2.4770    2.1250 H   0  0  0  0  0  0  0  0  0  0  0  0
  -37.5540   -3.8290    1.4910 H   0  0  0  0  0  0  0  0  0  0  0  0
  -36.8350   -3.0010    2.7400 H   0  0  0  0  0  0  0  0  0  0  0  0
  -38.5206   -2.6767    4.9179 H   0  0  0  0  0  0  0  0  0  0  0  0
  -39.8622   -2.5929    3.7098 H   0  0  0  0  0  0  0  0  0  0  0  0
  -41.0532   -4.4176    4.7391 H   0  0  0  0  0  0  0  0  0  0  0  0
  -39.3605   -4.0754    7.9076 H   0  0  0  0  0  0  0  0  0  0  0  0
  -40.1112   -2.5520    9.6837 H   0  0  0  0  0  0  0  0  0  0  0  0
  -42.7581   -0.6228    7.0662 H   0  0  0  0  0  0  0  0  0  0  0  0
  -41.8300   -1.5530    4.1920 H   0  0  0  0  0  0  0  0  0  0  0  0
  -45.8140   -1.5803    3.6480 H   0  0  0  0  0  0  0  0  0  0  0  0
  -46.3414   -0.8735    1.2927 H   0  0  0  0  0  0  0  0  0  0  0  0
  -38.7743   -2.1094   -0.6397 H   0  0  0  0  0  0  0  0  0  0  0  0
  -39.3942   -3.1390   -2.8297 H   0  0  0  0  0  0  0  0  0  0  0  0
  -41.7874   -3.6640   -3.3112 H   0  0  0  0  0  0  0  0  0  0  0  0
  -39.7376   -5.6908    6.6473 H   0  0  0  0  0  0  0  0  0  0  0  0
  -39.8656   -6.1726    4.8669 H   0  0  0  0  0  0  0  0  0  0  0  0
  1  2  1  0
  2  3  1  0
  3  4  1  0
  4  5  1  0
  4  6  1  0
  6  7  1  0
  7  8  1  0
  8  9  2  0
  9 10  1  0
 10 11  2  0
 11 12  1  0
 12 13  2  0
 13 14  1  0
 14 15  1  0
 15 16  2  0
 15 17  1  0
 17 18  2  0
 18 19  1  0
 19 20  2  0
 20 21  1  0
 20 22  1  0
 22 23  1  0
 23 24  2  0
 24 25  1  0
 24 26  1  0
 26 27  2  0
 27 28  1  0
 28 29  2  0
 29 30  1  0
 22 31  2  0
  7 32  1  0
 32  2  1  0
 13  8  1  0
 31 17  1  0
 29 23  1  0
  1 33  1  0
  1 34  1  0
  1 35  1  0
  2 36  1  6
  3 37  1  0
  3 38  1  0
  4 39  1  6
  5 40  1  0
  5 41  1  0
  5 42  1  0
  6 43  1  0
  6 44  1  0
  7 45  1  6
  9 46  1  0
 10 47  1  0
 12 48  1  0
 14 49  1  0
 18 50  1  0
 19 51  1  0
 26 52  1  0
 27 53  1  0
 28 54  1  0
 32 55  1  0
 32 56  1  0
M  CHG  1   5   1
M  END
>  <meeko>  (7) 
{"is_sidechain": [false], "free_energy": -9.851, "intermolecular_energy": -12.607, "internal_energy": -0.583}

$$$$
5dwr_ligand
     RDKit          3D

 56 59  0  0  0  0  0  0  0  0999 V2000
  -42.8490   -0.9470    7.9260 C   0  0  0  0  0  0  0  0  0  0  0  0
  -42.0830   -2.0170    7.1460 C   0  0  2  0  0  0  0  0  0  0  0  0
  -40.7550   -1.4540    6.6000 C   0  0  0  0  0  0  0  0  0  0  0  0
  -40.7480   -1.2830    5.0850 C   0  0  2  0  0  0  0  0  0  0  0  0
  -39.6930   -0.3090    4.7010 N   0  0  0  0  0  0  0  0  0  0  0  0
  -42.0880   -0.7890    4.5680 C   0  0  0  0  0  0  0  0  0  0  0  0
  -43.1850   -1.8590    4.7630 C   0  0  2  0  0  0  0  0  0  0  0  0
  -44.5680   -1.2370    4.5450 C   0  0  0  0  0  0  0  0  0  0  0  0
  -45.3580   -0.8260    5.6300 C   0  0  0  0  0  0  0  0  0  0  0  0
  -46.5680   -0.1850    5.4060 C   0  0  0  0  0  0  0  0  0  0  0  0
  -47.0500    0.0810    4.1830 N   0  0  0  0  0  0  0  0  0  0  0  0
  -46.3050   -0.3330    3.1310 C   0  0  0  0  0  0  0  0  0  0  0  0
  -45.0810   -0.9980    3.2430 C   0  0  0  0  0  0  0  0  0  0  0  0
  -44.3610   -1.4400    2.1110 N   0  0  0  0  0  0  0  0  0  0  0  0
  -44.4240   -0.9540    0.8200 C   0  0  0  0  0  0  0  0  0  0  0  0
  -45.1320   -0.0480    0.4060 O   0  0  0  0  0  0  0  0  0  0  0  0
  -43.4440   -1.6330   -0.0940 C   0  0  0  0  0  0  0  0  0  0  0  0
  -43.8570   -2.0790   -1.3440 C   0  0  0  0  0  0  0  0  0  0  0  0
  -42.9130   -2.6860   -2.1650 C   0  0  0  0  0  0  0  0  0  0  0  0
  -41.6110   -2.8330   -1.7020 C   0  0  0  0  0  0  0  0  0  0  0  0
  -40.6970   -3.4050   -2.4980 F   0  0  0  0  0  0  0  0  0  0  0  0
  -41.2670   -2.3700   -0.4290 C   0  0  0  0  0  0  0  0  0  0  0  0
  -39.9240   -2.5560    0.1260 C   0  0  0  0  0  0  0  0  0  0  0  0
  -39.7470   -2.9600    1.4570 C   0  0  0  0  0  0  0  0  0  0  0  0
  -40.8160   -3.1500    2.2460 F   0  0  0  0  0  0  0  0  0  0  0  0
  -38.4830   -3.1570    2.0090 C   0  0  0  0  0  0  0  0  0  0  0  0
  -37.3480   -2.9500    1.2310 C   0  0  0  0  0  0  0  0  0  0  0  0
  -37.4890   -2.5410   -0.0920 C   0  0  0  0  0  0  0  0  0  0  0  0
  -38.7650   -2.3430   -0.6310 C   0  0  0  0  0  0  0  0  0  0  0  0
  -38.8440   -1.9430   -1.9130 F   0  0  0  0  0  0  0  0  0  0  0  0
  -42.1630   -1.7420    0.3850 N   0  0  0  0  0  0  0  0  0  0  0  0
  -42.9430   -2.6890    6.0550 C   0  0  0  0  0  0  0  0  0  0  0  0
  -42.7248   -1.1205    9.0051 H   0  0  0  0  0  0  0  0  0  0  0  0
  -42.4562    0.0473    7.6669 H   0  0  0  0  0  0  0  0  0  0  0  0
  -43.9168   -0.9983    7.6669 H   0  0  0  0  0  0  0  0  0  0  0  0
  -41.8308   -2.8224    7.8516 H   0  0  0  0  0  0  0  0  0  0  0  0
  -40.5759   -0.4722    7.0627 H   0  0  0  0  0  0  0  0  0  0  0  0
  -39.9673   -2.1804    6.8488 H   0  0  0  0  0  0  0  0  0  0  0  0
  -40.5473   -2.2675    4.6373 H   0  0  0  0  0  0  0  0  0  0  0  0
  -38.8940   -0.3280    5.3470 H   0  0  0  0  0  0  0  0  0  0  0  0
  -40.0470    0.6570    4.6690 H   0  0  0  0  0  0  0  0  0  0  0  0
  -39.3260   -0.5330    3.7600 H   0  0  0  0  0  0  0  0  0  0  0  0
  -42.3718    0.1213    5.1165 H   0  0  0  0  0  0  0  0  0  0  0  0
  -41.9923   -0.5770    3.4929 H   0  0  0  0  0  0  0  0  0  0  0  0
  -43.1341   -2.6375    3.9875 H   0  0  0  0  0  0  0  0  0  0  0  0
  -45.0174   -1.0123    6.6592 H   0  0  0  0  0  0  0  0  0  0  0  0
  -47.1640    0.1215    6.2783 H   0  0  0  0  0  0  0  0  0  0  0  0
  -46.6891   -0.1324    2.1199 H   0  0  0  0  0  0  0  0  0  0  0  0
  -43.6940   -2.1940    2.2150 H   0  0  0  0  0  0  0  0  0  0  0  0
  -44.8991   -1.9555   -1.6738 H   0  0  0  0  0  0  0  0  0  0  0  0
  -43.1928   -3.0447   -3.1665 H   0  0  0  0  0  0  0  0  0  0  0  0
  -38.3825   -3.4753    3.0571 H   0  0  0  0  0  0  0  0  0  0  0  0
  -36.3468   -3.1084    1.6583 H   0  0  0  0  0  0  0  0  0  0  0  0
  -36.5972   -2.3734   -0.7138 H   0  0  0  0  0  0  0  0  0  0  0  0
  -43.9246   -2.9182    6.4954 H   0  0  0  0  0  0  0  0  0  0  0  0
  -42.3728   -3.5732    5.7341 H   0  0  0  0  0  0  0  0  0  0  0  0
  1  2  1  0
  2  3  1  0
  3  4  1  0
  4  5  1  0
  4  6  1  0
  6  7  1  0
  7  8  1  0
  8  9  2  0
  9 10  1  0
 10 11  2  0
 11 12  1  0
 12 13  2  0
 13 14  1  0
 14 15  1  0
 15 16  2  0
 15 17  1  0
 17 18  2  0
 18 19  1  0
 19 20  2  0
 20 21  1  0
 20 22  1  0
 22 23  1  0
 23 24  2  0
 24 25  1  0
 24 26  1  0
 26 27  2  0
 27 28  1  0
 28 29  2  0
 29 30  1  0
 22 31  2  0
  7 32  1  0
 32  2  1  0
 13  8  1  0
 31 17  1  0
 29 23  1  0
  1 33  1  0
  1 34  1  0
  1 35  1  0
  2 36  1  1
  3 37  1  0
  3 38  1  0
  4 39  1  6
  5 40  1  0
  5 41  1  0
  5 42  1  0
  6 43  1  0
  6 44  1  0
  7 45  1  6
  9 46  1  0
 10 47  1  0
 12 48  1  0
 14 49  1  0
 18 50  1  0
 19 51  1  0
 26 52  1  0
 27 53  1  0
 28 54  1  0
 32 55  1  0
 32 56  1  0
M  CHG  1   5   1
M  END
>  <meeko>  (8) 
{"is_sidechain": [false], "free_energy": -9.788, "intermolecular_energy": -12.86, "internal_energy": -0.252}

$$$$
5dwr_ligand
     RDKit          3D

 56 59  0  0  0  0  0  0  0  0999 V2000
  -46.3600   -3.2830    4.3570 C   0  0  0  0  0  0  0  0  0  0  0  0
  -45.3160   -3.2910    5.4760 C   0  0  2  0  0  0  0  0  0  0  0  0
  -45.5710   -2.1400    6.4710 C   0  0  0  0  0  0  0  0  0  0  0  0
  -44.5230   -1.0350    6.4000 C   0  0  2  0  0  0  0  0  0  0  0  0
  -45.0790    0.2140    6.9830 N   0  0  0  0  0  0  0  0  0  0  0  0
  -44.0900   -0.7610    4.9700 C   0  0  0  0  0  0  0  0  0  0  0  0
  -43.3230   -1.9680    4.3830 C   0  0  2  0  0  0  0  0  0  0  0  0
  -43.1840   -1.8120    2.8660 C   0  0  0  0  0  0  0  0  0  0  0  0
  -44.1950   -1.2060    2.1030 C   0  0  0  0  0  0  0  0  0  0  0  0
  -44.0100   -0.9980    0.7430 C   0  0  0  0  0  0  0  0  0  0  0  0
  -42.8920   -1.3430    0.0870 N   0  0  0  0  0  0  0  0  0  0  0  0
  -41.9220   -1.9480    0.8100 C   0  0  0  0  0  0  0  0  0  0  0  0
  -42.0100   -2.2190    2.1790 C   0  0  0  0  0  0  0  0  0  0  0  0
  -40.9810   -2.8860    2.8790 N   0  0  0  0  0  0  0  0  0  0  0  0
  -39.8580   -2.3380    3.4680 C   0  0  0  0  0  0  0  0  0  0  0  0
  -39.5330   -1.1590    3.4830 O   0  0  0  0  0  0  0  0  0  0  0  0
  -39.0340   -3.3640    4.1900 C   0  0  0  0  0  0  0  0  0  0  0  0
  -38.2000   -4.2130    3.4720 C   0  0  0  0  0  0  0  0  0  0  0  0
  -37.4400   -5.1360    4.1830 C   0  0  0  0  0  0  0  0  0  0  0  0
  -37.5540   -5.1820    5.5670 C   0  0  0  0  0  0  0  0  0  0  0  0
  -36.8110   -6.0610    6.2530 F   0  0  0  0  0  0  0  0  0  0  0  0
  -38.4210   -4.3040    6.2250 C   0  0  0  0  0  0  0  0  0  0  0  0
  -38.6190   -4.3550    7.6750 C   0  0  0  0  0  0  0  0  0  0  0  0
  -39.5560   -5.2310    8.2400 C   0  0  0  0  0  0  0  0  0  0  0  0
  -40.3050   -6.0120    7.4470 F   0  0  0  0  0  0  0  0  0  0  0  0
  -39.7600   -5.3110    9.6170 C   0  0  0  0  0  0  0  0  0  0  0  0
  -39.0190   -4.5020   10.4740 C   0  0  0  0  0  0  0  0  0  0  0  0
  -38.0860   -3.6150    9.9430 C   0  0  0  0  0  0  0  0  0  0  0  0
  -37.8970   -3.5430    8.5590 C   0  0  0  0  0  0  0  0  0  0  0  0
  -36.9860   -2.6660    8.0990 F   0  0  0  0  0  0  0  0  0  0  0  0
  -39.1530   -3.3670    5.5580 N   0  0  0  0  0  0  0  0  0  0  0  0
  -43.8690   -3.3120    4.9420 C   0  0  0  0  0  0  0  0  0  0  0  0
  -47.3684   -3.2753    4.7964 H   0  0  0  0  0  0  0  0  0  0  0  0
  -46.2241   -2.3859    3.7352 H   0  0  0  0  0  0  0  0  0  0  0  0
  -46.2379   -4.1821    3.7352 H   0  0  0  0  0  0  0  0  0  0  0  0
  -45.4319   -4.2347    6.0291 H   0  0  0  0  0  0  0  0  0  0  0  0
  -46.5556   -1.7013    6.2518 H   0  0  0  0  0  0  0  0  0  0  0  0
  -45.5228   -2.5688    7.4828 H   0  0  0  0  0  0  0  0  0  0  0  0
  -43.6435   -1.3702    6.9693 H   0  0  0  0  0  0  0  0  0  0  0  0
  -44.9950    1.0120    6.3420 H   0  0  0  0  0  0  0  0  0  0  0  0
  -44.6170    0.4720    7.8670 H   0  0  0  0  0  0  0  0  0  0  0  0
  -46.0850    0.0940    7.1870 H   0  0  0  0  0  0  0  0  0  0  0  0
  -44.9813   -0.5674    4.3550 H   0  0  0  0  0  0  0  0  0  0  0  0
  -43.4227    0.1135    4.9671 H   0  0  0  0  0  0  0  0  0  0  0  0
  -42.2794   -1.9930    4.7297 H   0  0  0  0  0  0  0  0  0  0  0  0
  -45.1346   -0.8957    2.5834 H   0  0  0  0  0  0  0  0  0  0  0  0
  -44.8234   -0.5252    0.1731 H   0  0  0  0  0  0  0  0  0  0  0  0
  -41.0022   -2.2469    0.2859 H   0  0  0  0  0  0  0  0  0  0  0  0
  -41.0390   -3.8890    3.0020 H   0  0  0  0  0  0  0  0  0  0  0  0
  -38.1427   -4.1567    2.3749 H   0  0  0  0  0  0  0  0  0  0  0  0
  -36.7581   -5.8201    3.6567 H   0  0  0  0  0  0  0  0  0  0  0  0
  -40.5040   -6.0111   10.0248 H   0  0  0  0  0  0  0  0  0  0  0  0
  -39.1693   -4.5629   11.5620 H   0  0  0  0  0  0  0  0  0  0  0  0
  -37.4973   -2.9706   10.6124 H   0  0  0  0  0  0  0  0  0  0  0  0
  -43.8207   -4.0560    4.1332 H   0  0  0  0  0  0  0  0  0  0  0  0
  -43.2380   -3.5465    5.8120 H   0  0  0  0  0  0  0  0  0  0  0  0
  1  2  1  0
  2  3  1  0
  3  4  1  0
  4  5  1  0
  4  6  1  0
  6  7  1  0
  7  8  1  0
  8  9  2  0
  9 10  1  0
 10 11  2  0
 11 12  1  0
 12 13  2  0
 13 14  1  0
 14 15  1  0
 15 16  2  0
 15 17  1  0
 17 18  2  0
 18 19  1  0
 19 20  2  0
 20 21  1  0
 20 22  1  0
 22 23  1  0
 23 24  2  0
 24 25  1  0
 24 26  1  0
 26 27  2  0
 27 28  1  0
 28 29  2  0
 29 30  1  0
 22 31  2  0
  7 32  1  0
 32  2  1  0
 13  8  1  0
 31 17  1  0
 29 23  1  0
  1 33  1  0
  1 34  1  0
  1 35  1  0
  2 36  1  1
  3 37  1  0
  3 38  1  0
  4 39  1  1
  5 40  1  0
  5 41  1  0
  5 42  1  0
  6 43  1  0
  6 44  1  0
  7 45  1  1
  9 46  1  0
 10 47  1  0
 12 48  1  0
 14 49  1  0
 18 50  1  0
 19 51  1  0
 26 52  1  0
 27 53  1  0
 28 54  1  0
 32 55  1  0
 32 56  1  0
M  CHG  1   5   1
M  END
>  <meeko>  (9) 
{"is_sidechain": [false], "free_energy": -9.704, "intermolecular_energy": -11.428, "internal_energy": -1.578}

$$$$
