4f3c_ligand
     RDKit          3D

 49 51  0  0  0  0  0  0  0  0999 V2000
  -33.8360    2.6440    1.2090 C   0  0  0  0  0  0  0  0  0  0  0  0
  -35.0850    2.0410    1.8350 C   0  0  0  0  0  0  0  0  0  0  0  0
  -34.7500    1.2800    3.1210 C   0  0  0  0  0  0  0  0  0  0  0  0
  -33.2720    0.9100    3.2530 C   0  0  0  0  0  0  0  0  0  0  0  0
  -32.8790   -0.1430    4.6960 S   0  0  0  0  0  0  0  0  0  0  0  0
  -34.5260   -0.8110    5.0960 C   0  0  0  0  0  0  0  0  0  0  0  0
  -35.0740   -0.2430    6.4120 C   0  0  1  0  0  0  0  0  0  0  0  0
  -36.2760   -1.0510    6.9440 C   0  0  0  0  0  0  0  0  0  0  0  0
  -35.8260   -1.6040    8.2770 N   0  0  1  0  0  0  0  0  0  0  0  0
  -36.5450   -2.8130    8.7840 C   0  0  0  0  0  0  0  0  0  0  0  0
  -36.9250   -3.8270    7.7670 C   0  0  0  0  0  0  0  0  0  0  0  0
  -38.1070   -3.9130    7.0450 C   0  0  0  0  0  0  0  0  0  0  0  0
  -38.0200   -4.9970    6.2020 N   0  0  0  0  0  0  0  0  0  0  0  0
  -36.8020   -5.6080    6.3570 C   0  0  0  0  0  0  0  0  0  0  0  0
  -36.2330   -6.7230    5.7680 C   0  0  0  0  0  0  0  0  0  0  0  0
  -36.8540   -7.4830    4.7920 N   0  0  0  0  0  0  0  0  0  0  0  0
  -35.0080   -7.0840    6.1770 N   0  0  0  0  0  0  0  0  0  0  0  0
  -34.3970   -6.3380    7.1180 C   0  0  0  0  0  0  0  0  0  0  0  0
  -34.8680   -5.2400    7.7350 N   0  0  0  0  0  0  0  0  0  0  0  0
  -36.1060   -4.9000    7.3210 C   0  0  0  0  0  0  0  0  0  0  0  0
  -34.3250   -1.6660    8.2070 C   0  0  0  0  0  0  0  0  0  0  0  0
  -34.0310   -0.3270    7.5340 C   0  0  2  0  0  0  0  0  0  0  0  0
  -34.3180    0.7030    8.4900 O   0  0  0  0  0  0  0  0  0  0  0  0
  -33.1508    2.9748    2.0034 H   0  0  0  0  0  0  0  0  0  0  0  0
  -33.3367    1.8877    0.5855 H   0  0  0  0  0  0  0  0  0  0  0  0
  -34.1176    3.5054    0.5855 H   0  0  0  0  0  0  0  0  0  0  0  0
  -35.7935    2.8487    2.0707 H   0  0  0  0  0  0  0  0  0  0  0  0
  -35.5265    1.3336    1.1176 H   0  0  0  0  0  0  0  0  0  0  0  0
  -35.0276    1.9100    3.9789 H   0  0  0  0  0  0  0  0  0  0  0  0
  -35.3146    0.3365    3.0908 H   0  0  0  0  0  0  0  0  0  0  0  0
  -32.9701    0.3716    2.3425 H   0  0  0  0  0  0  0  0  0  0  0  0
  -32.7251    1.8536    3.3964 H   0  0  0  0  0  0  0  0  0  0  0  0
  -35.2203   -0.5544    4.2823 H   0  0  0  0  0  0  0  0  0  0  0  0
  -34.4314   -1.9010    5.2103 H   0  0  0  0  0  0  0  0  0  0  0  0
  -35.3557    0.7932    6.1733 H   0  0  0  0  0  0  0  0  0  0  0  0
  -37.1520   -0.3984    7.0735 H   0  0  0  0  0  0  0  0  0  0  0  0
  -36.5739   -1.8492    6.2482 H   0  0  0  0  0  0  0  0  0  0  0  0
  -36.0130   -0.8480    8.9540 H   0  0  0  0  0  0  0  0  0  0  0  0
  -35.8941   -3.3054    9.5214 H   0  0  0  0  0  0  0  0  0  0  0  0
  -37.4945   -2.4391    9.1947 H   0  0  0  0  0  0  0  0  0  0  0  0
  -38.9661   -3.2315    7.1317 H   0  0  0  0  0  0  0  0  0  0  0  0
  -38.7410   -5.3150    5.5650 H   0  0  0  0  0  0  0  0  0  0  0  0
  -37.2750   -8.3400    5.1200 H   0  0  0  0  0  0  0  0  0  0  0  0
  -37.4920   -6.8930    4.2630 H   0  0  0  0  0  0  0  0  0  0  0  0
  -33.3911   -6.6670    7.4178 H   0  0  0  0  0  0  0  0  0  0  0  0
  -33.8725   -1.7271    9.2078 H   0  0  0  0  0  0  0  0  0  0  0  0
  -33.9232   -2.5449    7.6815 H   0  0  0  0  0  0  0  0  0  0  0  0
  -32.9972   -0.2268    7.1717 H   0  0  0  0  0  0  0  0  0  0  0  0
  -34.4780    0.2770    9.3560 H   0  0  0  0  0  0  0  0  0  0  0  0
  1  2  1  0
  2  3  1  0
  3  4  1  0
  4  5  1  0
  5  6  1  0
  6  7  1  0
  7  8  1  0
  8  9  1  0
  9 10  1  0
 10 11  1  0
 11 12  2  0
 12 13  1  0
 13 14  1  0
 14 15  2  0
 15 16  1  0
 15 17  1  0
 17 18  2  0
 18 19  1  0
 19 20  2  0
  9 21  1  0
 21 22  1  0
 22 23  1  0
 22  7  1  0
 20 11  1  0
 20 14  1  0
  1 24  1  0
  1 25  1  0
  1 26  1  0
  2 27  1  0
  2 28  1  0
  3 29  1  0
  3 30  1  0
  4 31  1  0
  4 32  1  0
  6 33  1  0
  6 34  1  0
  7 35  1  6
  8 36  1  0
  8 37  1  0
  9 38  1  1
 10 39  1  0
 10 40  1  0
 12 41  1  0
 13 42  1  0
 16 43  1  0
 16 44  1  0
 18 45  1  0
 21 46  1  0
 21 47  1  0
 22 48  1  6
 23 49  1  0
M  CHG  1   9   1
M  END
>  <meeko>  (1) 
{"is_sidechain": [false], "free_energy": -9.408, "intermolecular_energy": -13.808, "internal_energy": -0.604}

$$$$
