4lzs_ligand
     RDKit          3D

 31 31  0  0  0  0  0  0  0  0999 V2000
   11.1510   36.9670   74.7830 C   0  0  0  0  0  0  0  0  0  0  0  0
   11.3680   36.5070   76.2160 C   0  0  0  0  0  0  0  0  0  0  0  0
   11.3880   37.6550   77.1890 C   0  0  0  0  0  0  0  0  0  0  0  0
   10.3180   38.0800   77.9690 C   0  0  0  0  0  0  0  0  0  0  0  0
    8.9650   37.5590   78.0480 C   0  0  0  0  0  0  0  0  0  0  0  0
    8.2430   37.3720   77.0740 O   0  0  0  0  0  0  0  0  0  0  0  0
    8.5580   37.2610   79.3350 N   0  0  0  0  0  0  0  0  0  0  0  0
    7.2900   36.6090   79.5510 C   0  0  0  0  0  0  0  0  0  0  0  0
   10.7540   39.1750   78.6740 N   0  0  0  0  0  0  0  0  0  0  0  0
   12.0790   39.4320   78.4260 C   0  0  0  0  0  0  0  0  0  0  0  0
   12.7620   40.5430   79.1430 C   0  0  0  0  0  0  0  0  0  0  0  0
   12.5210   38.5030   77.4890 C   0  0  0  0  0  0  0  0  0  0  0  0
   13.8750   38.3820   76.9180 C   0  0  0  0  0  0  0  0  0  0  0  0
   14.8500   37.4000   77.5130 C   0  0  0  0  0  0  0  0  0  0  0  0
   14.2290   39.0650   75.9550 O   0  0  0  0  0  0  0  0  0  0  0  0
   10.6817   37.9619   74.7843 H   0  0  0  0  0  0  0  0  0  0  0  0
   12.1195   37.0191   74.2640 H   0  0  0  0  0  0  0  0  0  0  0  0
   10.4949   36.2528   74.2640 H   0  0  0  0  0  0  0  0  0  0  0  0
   10.5538   35.8218   76.4944 H   0  0  0  0  0  0  0  0  0  0  0  0
   12.3475   36.0087   76.2642 H   0  0  0  0  0  0  0  0  0  0  0  0
    9.2890   37.0760   80.0070 H   0  0  0  0  0  0  0  0  0  0  0  0
    7.1057   36.5143   80.6313 H   0  0  0  0  0  0  0  0  0  0  0  0
    6.4878   37.2064   79.0932 H   0  0  0  0  0  0  0  0  0  0  0  0
    7.3092   35.6090   79.0932 H   0  0  0  0  0  0  0  0  0  0  0  0
   10.1610   39.7220   79.2840 H   0  0  0  0  0  0  0  0  0  0  0  0
   12.6686   40.3911   80.2284 H   0  0  0  0  0  0  0  0  0  0  0  0
   13.8262   40.5592   78.8652 H   0  0  0  0  0  0  0  0  0  0  0  0
   12.2960   41.4999   78.8652 H   0  0  0  0  0  0  0  0  0  0  0  0
   14.7987   37.4517   78.6106 H   0  0  0  0  0  0  0  0  0  0  0  0
   14.5943   36.3828   77.1815 H   0  0  0  0  0  0  0  0  0  0  0  0
   15.8690   37.6484   77.1815 H   0  0  0  0  0  0  0  0  0  0  0  0
  1  2  1  0
  2  3  1  0
  3  4  2  0
  4  5  1  0
  5  6  2  0
  5  7  1  0
  7  8  1  0
  4  9  1  0
  9 10  1  0
 10 11  1  0
 10 12  2  0
 12 13  1  0
 13 14  1  0
 13 15  2  0
 12  3  1  0
  1 16  1  0
  1 17  1  0
  1 18  1  0
  2 19  1  0
  2 20  1  0
  7 21  1  0
  8 22  1  0
  8 23  1  0
  8 24  1  0
  9 25  1  0
 11 26  1  0
 11 27  1  0
 11 28  1  0
 14 29  1  0
 14 30  1  0
 14 31  1  0
M  END
>  <meeko>  (1) 
{"is_sidechain": [false], "free_energy": -6.142, "intermolecular_energy": -7.219, "internal_energy": -0.468}

$$$$
4lzs_ligand
     RDKit          3D

 31 31  0  0  0  0  0  0  0  0999 V2000
   14.6270   37.5320   77.4110 C   0  0  0  0  0  0  0  0  0  0  0  0
   13.7510   38.6640   76.8960 C   0  0  0  0  0  0  0  0  0  0  0  0
   12.3240   38.5380   77.3550 C   0  0  0  0  0  0  0  0  0  0  0  0
   11.7360   39.2540   78.3940 C   0  0  0  0  0  0  0  0  0  0  0  0
   12.3140   40.2590   79.2680 C   0  0  0  0  0  0  0  0  0  0  0  0
   13.2740   40.9610   78.9680 O   0  0  0  0  0  0  0  0  0  0  0  0
   11.6650   40.3790   80.4830 N   0  0  0  0  0  0  0  0  0  0  0  0
   12.0420   41.4300   81.3950 C   0  0  0  0  0  0  0  0  0  0  0  0
   10.4450   38.8010   78.5030 N   0  0  0  0  0  0  0  0  0  0  0  0
   10.1590   37.8710   77.5360 C   0  0  0  0  0  0  0  0  0  0  0  0
    8.7870   37.3010   77.4430 C   0  0  0  0  0  0  0  0  0  0  0  0
   11.3160   37.6660   76.7920 C   0  0  0  0  0  0  0  0  0  0  0  0
   11.4940   36.7580   75.6440 C   0  0  0  0  0  0  0  0  0  0  0  0
   11.2770   37.2740   74.2450 C   0  0  0  0  0  0  0  0  0  0  0  0
   11.8240   35.5810   75.8020 O   0  0  0  0  0  0  0  0  0  0  0  0
   14.6233   37.5368   78.5110 H   0  0  0  0  0  0  0  0  0  0  0  0
   14.2353   36.5706   77.0472 H   0  0  0  0  0  0  0  0  0  0  0  0
   15.6559   37.6700   77.0472 H   0  0  0  0  0  0  0  0  0  0  0  0
   14.1567   39.6190   77.2612 H   0  0  0  0  0  0  0  0  0  0  0  0
   13.7554   38.6186   75.7969 H   0  0  0  0  0  0  0  0  0  0  0  0
   10.7030   40.0710   80.5110 H   0  0  0  0  0  0  0  0  0  0  0  0
   11.9164   41.0798   82.4302 H   0  0  0  0  0  0  0  0  0  0  0  0
   13.0940   41.7028   81.2253 H   0  0  0  0  0  0  0  0  0  0  0  0
   11.4032   42.3093   81.2253 H   0  0  0  0  0  0  0  0  0  0  0  0
    9.8000   39.1120   79.2180 H   0  0  0  0  0  0  0  0  0  0  0  0
    8.3892   37.1357   78.4552 H   0  0  0  0  0  0  0  0  0  0  0  0
    8.1344   38.0024   76.9026 H   0  0  0  0  0  0  0  0  0  0  0  0
    8.8236   36.3436   76.9026 H   0  0  0  0  0  0  0  0  0  0  0  0
   10.8509   38.2871   74.2898 H   0  0  0  0  0  0  0  0  0  0  0  0
   12.2387   37.3039   73.7119 H   0  0  0  0  0  0  0  0  0  0  0  0
   10.5829   36.6076   73.7119 H   0  0  0  0  0  0  0  0  0  0  0  0
  1  2  1  0
  2  3  1  0
  3  4  2  0
  4  5  1  0
  5  6  2  0
  5  7  1  0
  7  8  1  0
  4  9  1  0
  9 10  1  0
 10 11  1  0
 10 12  2  0
 12 13  1  0
 13 14  1  0
 13 15  2  0
 12  3  1  0
  1 16  1  0
  1 17  1  0
  1 18  1  0
  2 19  1  0
  2 20  1  0
  7 21  1  0
  8 22  1  0
  8 23  1  0
  8 24  1  0
  9 25  1  0
 11 26  1  0
 11 27  1  0
 11 28  1  0
 14 29  1  0
 14 30  1  0
 14 31  1  0
M  END
>  <meeko>  (2) 
{"is_sidechain": [false], "free_energy": -5.966, "intermolecular_energy": -7.177, "internal_energy": -0.302}

$$$$
4lzs_ligand
     RDKit          3D

 31 31  0  0  0  0  0  0  0  0999 V2000
   14.4370   37.5570   77.3210 C   0  0  0  0  0  0  0  0  0  0  0  0
   13.8400   38.9190   77.0000 C   0  0  0  0  0  0  0  0  0  0  0  0
   13.0180   39.4660   78.1350 C   0  0  0  0  0  0  0  0  0  0  0  0
   11.6760   39.1880   78.3770 C   0  0  0  0  0  0  0  0  0  0  0  0
   10.7580   38.3400   77.6370 C   0  0  0  0  0  0  0  0  0  0  0  0
   10.9850   37.8970   76.5160 O   0  0  0  0  0  0  0  0  0  0  0  0
    9.5950   38.0470   78.3240 N   0  0  0  0  0  0  0  0  0  0  0  0
    8.6540   37.1060   77.7690 C   0  0  0  0  0  0  0  0  0  0  0  0
   11.3140   39.9230   79.4780 N   0  0  0  0  0  0  0  0  0  0  0  0
   12.3830   40.6130   79.9920 C   0  0  0  0  0  0  0  0  0  0  0  0
   12.2130   41.4250   81.2270 C   0  0  0  0  0  0  0  0  0  0  0  0
   13.4790   40.3620   79.1730 C   0  0  0  0  0  0  0  0  0  0  0  0
   14.8500   40.8830   79.3270 C   0  0  0  0  0  0  0  0  0  0  0  0
   15.1030   42.0590   80.2350 C   0  0  0  0  0  0  0  0  0  0  0  0
   15.8010   40.3740   78.7300 O   0  0  0  0  0  0  0  0  0  0  0  0
   14.4930   37.4292   78.4121 H   0  0  0  0  0  0  0  0  0  0  0  0
   13.8022   36.7680   76.8915 H   0  0  0  0  0  0  0  0  0  0  0  0
   15.4474   37.4891   76.8915 H   0  0  0  0  0  0  0  0  0  0  0  0
   14.6585   39.6220   76.7856 H   0  0  0  0  0  0  0  0  0  0  0  0
   13.1753   38.7980   76.1320 H   0  0  0  0  0  0  0  0  0  0  0  0
    9.6390   38.1110   79.3310 H   0  0  0  0  0  0  0  0  0  0  0  0
    8.1324   36.5844   78.5850 H   0  0  0  0  0  0  0  0  0  0  0  0
    7.9208   37.6429   77.1493 H   0  0  0  0  0  0  0  0  0  0  0  0
    9.1909   36.3728   77.1493 H   0  0  0  0  0  0  0  0  0  0  0  0
   10.3720   39.9550   79.8460 H   0  0  0  0  0  0  0  0  0  0  0  0
   12.3475   40.7825   82.1097 H   0  0  0  0  0  0  0  0  0  0  0  0
   12.9620   42.2305   81.2422 H   0  0  0  0  0  0  0  0  0  0  0  0
   11.2038   41.8624   81.2422 H   0  0  0  0  0  0  0  0  0  0  0  0
   15.0331   41.7343   81.2837 H   0  0  0  0  0  0  0  0  0  0  0  0
   16.1083   42.4616   80.0420 H   0  0  0  0  0  0  0  0  0  0  0  0
   14.3522   42.8394   80.0420 H   0  0  0  0  0  0  0  0  0  0  0  0
  1  2  1  0
  2  3  1  0
  3  4  2  0
  4  5  1  0
  5  6  2  0
  5  7  1  0
  7  8  1  0
  4  9  1  0
  9 10  1  0
 10 11  1  0
 10 12  2  0
 12 13  1  0
 13 14  1  0
 13 15  2  0
 12  3  1  0
  1 16  1  0
  1 17  1  0
  1 18  1  0
  2 19  1  0
  2 20  1  0
  7 21  1  0
  8 22  1  0
  8 23  1  0
  8 24  1  0
  9 25  1  0
 11 26  1  0
 11 27  1  0
 11 28  1  0
 14 29  1  0
 14 30  1  0
 14 31  1  0
M  END
>  <meeko>  (3) 
{"is_sidechain": [false], "free_energy": -5.748, "intermolecular_energy": -7.8, "internal_energy": 0.576}

$$$$
4lzs_ligand
     RDKit          3D

 31 31  0  0  0  0  0  0  0  0999 V2000
   13.7610   36.5200   74.7440 C   0  0  0  0  0  0  0  0  0  0  0  0
   13.0570   37.8580   74.9070 C   0  0  0  0  0  0  0  0  0  0  0  0
   12.1120   37.8690   76.0780 C   0  0  0  0  0  0  0  0  0  0  0  0
   12.4370   38.2200   77.3840 C   0  0  0  0  0  0  0  0  0  0  0  0
   13.7100   38.6450   77.9390 C   0  0  0  0  0  0  0  0  0  0  0  0
   14.6730   37.9010   78.0970 O   0  0  0  0  0  0  0  0  0  0  0  0
   13.7570   39.9890   78.2570 N   0  0  0  0  0  0  0  0  0  0  0  0
   15.0000   40.5790   78.6880 C   0  0  0  0  0  0  0  0  0  0  0  0
   11.2990   38.0500   78.1330 N   0  0  0  0  0  0  0  0  0  0  0  0
   10.2400   37.6650   77.3510 C   0  0  0  0  0  0  0  0  0  0  0  0
    8.8950   37.4880   77.9640 C   0  0  0  0  0  0  0  0  0  0  0  0
   10.7050   37.5310   76.0470 C   0  0  0  0  0  0  0  0  0  0  0  0
    9.9310   37.1390   74.8550 C   0  0  0  0  0  0  0  0  0  0  0  0
    9.0450   38.1520   74.1760 C   0  0  0  0  0  0  0  0  0  0  0  0
    9.9950   35.9980   74.3940 O   0  0  0  0  0  0  0  0  0  0  0  0
   13.9825   36.0990   75.7358 H   0  0  0  0  0  0  0  0  0  0  0  0
   13.1100   35.8284   74.1891 H   0  0  0  0  0  0  0  0  0  0  0  0
   14.6997   36.6648   74.1891 H   0  0  0  0  0  0  0  0  0  0  0  0
   13.8154   38.6404   75.0575 H   0  0  0  0  0  0  0  0  0  0  0  0
   12.4663   38.0397   73.9970 H   0  0  0  0  0  0  0  0  0  0  0  0
   13.1100   40.5910   77.7680 H   0  0  0  0  0  0  0  0  0  0  0  0
   15.0360   40.5961   79.7873 H   0  0  0  0  0  0  0  0  0  0  0  0
   15.8413   39.9841   78.3028 H   0  0  0  0  0  0  0  0  0  0  0  0
   15.0710   41.6069   78.3028 H   0  0  0  0  0  0  0  0  0  0  0  0
   11.2630   38.1810   79.1350 H   0  0  0  0  0  0  0  0  0  0  0  0
    8.9871   37.5001   79.0601 H   0  0  0  0  0  0  0  0  0  0  0  0
    8.2348   38.3070   77.6424 H   0  0  0  0  0  0  0  0  0  0  0  0
    8.4692   36.5261   77.6424 H   0  0  0  0  0  0  0  0  0  0  0  0
    8.5219   38.7500   74.9368 H   0  0  0  0  0  0  0  0  0  0  0  0
    9.6593   38.8139   73.5479 H   0  0  0  0  0  0  0  0  0  0  0  0
    8.3072   37.6313   73.5479 H   0  0  0  0  0  0  0  0  0  0  0  0
  1  2  1  0
  2  3  1  0
  3  4  2  0
  4  5  1  0
  5  6  2  0
  5  7  1  0
  7  8  1  0
  4  9  1  0
  9 10  1  0
 10 11  1  0
 10 12  2  0
 12 13  1  0
 13 14  1  0
 13 15  2  0
 12  3  1  0
  1 16  1  0
  1 17  1  0
  1 18  1  0
  2 19  1  0
  2 20  1  0
  7 21  1  0
  8 22  1  0
  8 23  1  0
  8 24  1  0
  9 25  1  0
 11 26  1  0
 11 27  1  0
 11 28  1  0
 14 29  1  0
 14 30  1  0
 14 31  1  0
M  END
>  <meeko>  (4) 
{"is_sidechain": [false], "free_energy": -5.5, "intermolecular_energy": -6.408, "internal_energy": -0.525}

$$$$
4lzs_ligand
     RDKit          3D

 31 31  0  0  0  0  0  0  0  0999 V2000
    9.9370   38.0810   74.8240 C   0  0  0  0  0  0  0  0  0  0  0  0
   10.7730   37.1110   75.6440 C   0  0  0  0  0  0  0  0  0  0  0  0
   12.1020   37.6930   76.0410 C   0  0  0  0  0  0  0  0  0  0  0  0
   13.2790   37.6130   75.3040 C   0  0  0  0  0  0  0  0  0  0  0  0
   13.5280   36.9780   74.0220 C   0  0  0  0  0  0  0  0  0  0  0  0
   12.9000   37.2280   72.9990 O   0  0  0  0  0  0  0  0  0  0  0  0
   14.5690   36.0690   74.0450 N   0  0  0  0  0  0  0  0  0  0  0  0
   15.0170   35.4640   72.8150 C   0  0  0  0  0  0  0  0  0  0  0  0
   14.2520   38.2350   76.0470 N   0  0  0  0  0  0  0  0  0  0  0  0
   13.7350   38.7660   77.2020 C   0  0  0  0  0  0  0  0  0  0  0  0
   14.6170   39.5380   78.1190 C   0  0  0  0  0  0  0  0  0  0  0  0
   12.3830   38.4440   77.2460 C   0  0  0  0  0  0  0  0  0  0  0  0
   11.4100   38.8010   78.2950 C   0  0  0  0  0  0  0  0  0  0  0  0
   10.6550   37.7120   79.0130 C   0  0  0  0  0  0  0  0  0  0  0  0
   11.2030   39.9760   78.6050 O   0  0  0  0  0  0  0  0  0  0  0  0
    9.3703   38.7385   75.4996 H   0  0  0  0  0  0  0  0  0  0  0  0
   10.5983   38.6894   74.1896 H   0  0  0  0  0  0  0  0  0  0  0  0
    9.2376   37.5167   74.1896 H   0  0  0  0  0  0  0  0  0  0  0  0
   10.2162   36.8478   76.5554 H   0  0  0  0  0  0  0  0  0  0  0  0
   10.9673   36.2258   75.0206 H   0  0  0  0  0  0  0  0  0  0  0  0
   15.2580   36.1910   74.7730 H   0  0  0  0  0  0  0  0  0  0  0  0
   15.6573   34.5993   73.0437 H   0  0  0  0  0  0  0  0  0  0  0  0
   14.1459   35.1311   72.2316 H   0  0  0  0  0  0  0  0  0  0  0  0
   15.5895   36.2001   72.2316 H   0  0  0  0  0  0  0  0  0  0  0  0
   15.2250   38.2770   75.7740 H   0  0  0  0  0  0  0  0  0  0  0  0
   14.3535   39.3073   79.1618 H   0  0  0  0  0  0  0  0  0  0  0  0
   15.6663   39.2628   77.9365 H   0  0  0  0  0  0  0  0  0  0  0  0
   14.4832   40.6145   77.9365 H   0  0  0  0  0  0  0  0  0  0  0  0
   10.7528   37.8531   80.0995 H   0  0  0  0  0  0  0  0  0  0  0  0
    9.5925   37.7558   78.7318 H   0  0  0  0  0  0  0  0  0  0  0  0
   11.0687   36.7323   78.7318 H   0  0  0  0  0  0  0  0  0  0  0  0
  1  2  1  0
  2  3  1  0
  3  4  2  0
  4  5  1  0
  5  6  2  0
  5  7  1  0
  7  8  1  0
  4  9  1  0
  9 10  1  0
 10 11  1  0
 10 12  2  0
 12 13  1  0
 13 14  1  0
 13 15  2  0
 12  3  1  0
  1 16  1  0
  1 17  1  0
  1 18  1  0
  2 19  1  0
  2 20  1  0
  7 21  1  0
  8 22  1  0
  8 23  1  0
  8 24  1  0
  9 25  1  0
 11 26  1  0
 11 27  1  0
 11 28  1  0
 14 29  1  0
 14 30  1  0
 14 31  1  0
M  END
>  <meeko>  (5) 
{"is_sidechain": [false], "free_energy": -5.417, "intermolecular_energy": -6.516, "internal_energy": -0.319}

$$$$
4lzs_ligand
     RDKit          3D

 31 31  0  0  0  0  0  0  0  0999 V2000
   14.5260   37.0890   77.9350 C   0  0  0  0  0  0  0  0  0  0  0  0
   14.1380   38.1070   76.8750 C   0  0  0  0  0  0  0  0  0  0  0  0
   12.7860   37.8250   76.2770 C   0  0  0  0  0  0  0  0  0  0  0  0
   12.5500   37.2600   75.0280 C   0  0  0  0  0  0  0  0  0  0  0  0
   13.4950   36.8160   74.0190 C   0  0  0  0  0  0  0  0  0  0  0  0
   14.2330   35.8440   74.1490 O   0  0  0  0  0  0  0  0  0  0  0  0
   13.4780   37.5780   72.8660 N   0  0  0  0  0  0  0  0  0  0  0  0
   14.2640   37.1720   71.7280 C   0  0  0  0  0  0  0  0  0  0  0  0
   11.1880   37.2220   74.8640 N   0  0  0  0  0  0  0  0  0  0  0  0
   10.5370   37.6800   75.9810 C   0  0  0  0  0  0  0  0  0  0  0  0
    9.0500   37.6620   76.0290 C   0  0  0  0  0  0  0  0  0  0  0  0
   11.5040   38.0800   76.8980 C   0  0  0  0  0  0  0  0  0  0  0  0
   11.2850   38.6380   78.2450 C   0  0  0  0  0  0  0  0  0  0  0  0
   11.7150   40.0510   78.5450 C   0  0  0  0  0  0  0  0  0  0  0  0
   10.7510   37.9750   79.1360 O   0  0  0  0  0  0  0  0  0  0  0  0
   14.3620   37.5192   78.9340 H   0  0  0  0  0  0  0  0  0  0  0  0
   13.9091   36.1857   77.8190 H   0  0  0  0  0  0  0  0  0  0  0  0
   15.5876   36.8254   77.8190 H   0  0  0  0  0  0  0  0  0  0  0  0
   14.1196   39.1062   77.3346 H   0  0  0  0  0  0  0  0  0  0  0  0
   14.8813   38.0493   76.0662 H   0  0  0  0  0  0  0  0  0  0  0  0
   12.6270   38.0880   72.6770 H   0  0  0  0  0  0  0  0  0  0  0  0
   15.1914   36.6930   72.0750 H   0  0  0  0  0  0  0  0  0  0  0  0
   13.6880   36.4586   71.1203 H   0  0  0  0  0  0  0  0  0  0  0  0
   14.5124   38.0546   71.1203 H   0  0  0  0  0  0  0  0  0  0  0  0
   10.7330   36.9060   74.0170 H   0  0  0  0  0  0  0  0  0  0  0  0
    8.7170   37.6580   77.0774 H   0  0  0  0  0  0  0  0  0  0  0  0
    8.6560   38.5554   75.5226 H   0  0  0  0  0  0  0  0  0  0  0  0
    8.6777   36.7593   75.5226 H   0  0  0  0  0  0  0  0  0  0  0  0
   11.7595   40.1973   79.6343 H   0  0  0  0  0  0  0  0  0  0  0  0
   12.7089   40.2320   78.1098 H   0  0  0  0  0  0  0  0  0  0  0  0
   10.9904   40.7550   78.1098 H   0  0  0  0  0  0  0  0  0  0  0  0
  1  2  1  0
  2  3  1  0
  3  4  2  0
  4  5  1  0
  5  6  2  0
  5  7  1  0
  7  8  1  0
  4  9  1  0
  9 10  1  0
 10 11  1  0
 10 12  2  0
 12 13  1  0
 13 14  1  0
 13 15  2  0
 12  3  1  0
  1 16  1  0
  1 17  1  0
  1 18  1  0
  2 19  1  0
  2 20  1  0
  7 21  1  0
  8 22  1  0
  8 23  1  0
  8 24  1  0
  9 25  1  0
 11 26  1  0
 11 27  1  0
 11 28  1  0
 14 29  1  0
 14 30  1  0
 14 31  1  0
M  END
>  <meeko>  (6) 
{"is_sidechain": [false], "free_energy": -5.34, "intermolecular_energy": -6.342, "internal_energy": -0.401}

$$$$
4lzs_ligand
     RDKit          3D

 31 31  0  0  0  0  0  0  0  0999 V2000
   11.5050   40.7310   80.6560 C   0  0  0  0  0  0  0  0  0  0  0  0
   11.5960   40.6070   79.1430 C   0  0  0  0  0  0  0  0  0  0  0  0
   12.8890   39.9810   78.6960 C   0  0  0  0  0  0  0  0  0  0  0  0
   14.1660   40.4170   79.0370 C   0  0  0  0  0  0  0  0  0  0  0  0
   14.5710   41.5350   79.8700 C   0  0  0  0  0  0  0  0  0  0  0  0
   14.6130   42.6990   79.4840 O   0  0  0  0  0  0  0  0  0  0  0  0
   14.8880   41.1770   81.1670 N   0  0  0  0  0  0  0  0  0  0  0  0
   15.1740   42.1990   82.1420 C   0  0  0  0  0  0  0  0  0  0  0  0
   15.0500   39.5940   78.3840 N   0  0  0  0  0  0  0  0  0  0  0  0
   14.3960   38.6090   77.6880 C   0  0  0  0  0  0  0  0  0  0  0  0
   15.1790   37.5740   76.9610 C   0  0  0  0  0  0  0  0  0  0  0  0
   13.0290   38.8160   77.8490 C   0  0  0  0  0  0  0  0  0  0  0  0
   11.9290   38.0100   77.2900 C   0  0  0  0  0  0  0  0  0  0  0  0
   11.7890   37.8750   75.7960 C   0  0  0  0  0  0  0  0  0  0  0  0
   11.1190   37.4350   78.0200 O   0  0  0  0  0  0  0  0  0  0  0  0
   12.0935   39.9291   81.1257 H   0  0  0  0  0  0  0  0  0  0  0  0
   11.9019   41.7082   80.9683 H   0  0  0  0  0  0  0  0  0  0  0  0
   10.4538   40.6454   80.9683 H   0  0  0  0  0  0  0  0  0  0  0  0
   10.7611   39.9847   78.7886 H   0  0  0  0  0  0  0  0  0  0  0  0
   11.5503   41.6213   78.7198 H   0  0  0  0  0  0  0  0  0  0  0  0
   14.4790   40.3190   81.5090 H   0  0  0  0  0  0  0  0  0  0  0  0
   15.0577   41.7833   83.1538 H   0  0  0  0  0  0  0  0  0  0  0  0
   16.2062   42.5548   82.0082 H   0  0  0  0  0  0  0  0  0  0  0  0
   14.4764   43.0389   82.0082 H   0  0  0  0  0  0  0  0  0  0  0  0
   16.0540   39.7180   78.4080 H   0  0  0  0  0  0  0  0  0  0  0  0
   15.6778   36.9147   77.6866 H   0  0  0  0  0  0  0  0  0  0  0  0
   14.5028   36.9791   76.3294 H   0  0  0  0  0  0  0  0  0  0  0  0
   15.9354   38.0629   76.3294 H   0  0  0  0  0  0  0  0  0  0  0  0
   11.0146   37.1283   75.5663 H   0  0  0  0  0  0  0  0  0  0  0  0
   11.5016   38.8456   75.3655 H   0  0  0  0  0  0  0  0  0  0  0  0
   12.7485   37.5525   75.3655 H   0  0  0  0  0  0  0  0  0  0  0  0
  1  2  1  0
  2  3  1  0
  3  4  2  0
  4  5  1  0
  5  6  2  0
  5  7  1  0
  7  8  1  0
  4  9  1  0
  9 10  1  0
 10 11  1  0
 10 12  2  0
 12 13  1  0
 13 14  1  0
 13 15  2  0
 12  3  1  0
  1 16  1  0
  1 17  1  0
  1 18  1  0
  2 19  1  0
  2 20  1  0
  7 21  1  0
  8 22  1  0
  8 23  1  0
  8 24  1  0
  9 25  1  0
 11 26  1  0
 11 27  1  0
 11 28  1  0
 14 29  1  0
 14 30  1  0
 14 31  1  0
M  END
>  <meeko>  (7) 
{"is_sidechain": [false], "free_energy": -5.324, "intermolecular_energy": -6.631, "internal_energy": -0.094}

$$$$
4lzs_ligand
     RDKit          3D

 31 31  0  0  0  0  0  0  0  0999 V2000
   10.7470   38.7020   78.0200 C   0  0  0  0  0  0  0  0  0  0  0  0
   11.2960   37.3850   77.4970 C   0  0  0  0  0  0  0  0  0  0  0  0
   11.9820   37.5380   76.1660 C   0  0  0  0  0  0  0  0  0  0  0  0
   13.3100   37.9050   75.9720 C   0  0  0  0  0  0  0  0  0  0  0  0
   14.3350   38.2240   76.9490 C   0  0  0  0  0  0  0  0  0  0  0  0
   15.2700   37.4810   77.2310 O   0  0  0  0  0  0  0  0  0  0  0  0
   14.1820   39.4690   77.5300 N   0  0  0  0  0  0  0  0  0  0  0  0
   15.2010   39.9750   78.4160 C   0  0  0  0  0  0  0  0  0  0  0  0
   13.5070   37.9660   74.6140 N   0  0  0  0  0  0  0  0  0  0  0  0
   12.3790   37.5920   73.9290 C   0  0  0  0  0  0  0  0  0  0  0  0
   12.4050   37.5300   72.4420 C   0  0  0  0  0  0  0  0  0  0  0  0
   11.3870   37.3190   74.8660 C   0  0  0  0  0  0  0  0  0  0  0  0
   10.0040   36.8790   74.6040 C   0  0  0  0  0  0  0  0  0  0  0  0
    8.8660   37.8500   74.7840 C   0  0  0  0  0  0  0  0  0  0  0  0
    9.7560   35.7300   74.2340 O   0  0  0  0  0  0  0  0  0  0  0  0
   10.7519   38.6903   79.1199 H   0  0  0  0  0  0  0  0  0  0  0  0
   11.3749   39.5301   77.6593 H   0  0  0  0  0  0  0  0  0  0  0  0
    9.7169   38.8389   77.6593 H   0  0  0  0  0  0  0  0  0  0  0  0
   12.0204   36.9903   78.2246 H   0  0  0  0  0  0  0  0  0  0  0  0
   10.4476   36.6984   77.3603 H   0  0  0  0  0  0  0  0  0  0  0  0
   13.6540   40.1500   77.0030 H   0  0  0  0  0  0  0  0  0  0  0  0
   14.8894   39.8203   79.4595 H   0  0  0  0  0  0  0  0  0  0  0  0
   16.1449   39.4409   78.2322 H   0  0  0  0  0  0  0  0  0  0  0  0
   15.3460   41.0498   78.2322 H   0  0  0  0  0  0  0  0  0  0  0  0
   14.3740   38.2640   74.1860 H   0  0  0  0  0  0  0  0  0  0  0  0
   12.8121   36.5593   72.1226 H   0  0  0  0  0  0  0  0  0  0  0  0
   11.3828   37.6451   72.0523 H   0  0  0  0  0  0  0  0  0  0  0  0
   13.0393   38.3398   72.0523 H   0  0  0  0  0  0  0  0  0  0  0  0
    8.6833   38.0059   75.8575 H   0  0  0  0  0  0  0  0  0  0  0  0
    9.1249   38.8097   74.3130 H   0  0  0  0  0  0  0  0  0  0  0  0
    7.9590   37.4433   74.3130 H   0  0  0  0  0  0  0  0  0  0  0  0
  1  2  1  0
  2  3  1  0
  3  4  2  0
  4  5  1  0
  5  6  2  0
  5  7  1  0
  7  8  1  0
  4  9  1  0
  9 10  1  0
 10 11  1  0
 10 12  2  0
 12 13  1  0
 13 14  1  0
 13 15  2  0
 12  3  1  0
  1 16  1  0
  1 17  1  0
  1 18  1  0
  2 19  1  0
  2 20  1  0
  7 21  1  0
  8 22  1  0
  8 23  1  0
  8 24  1  0
  9 25  1  0
 11 26  1  0
 11 27  1  0
 11 28  1  0
 14 29  1  0
 14 30  1  0
 14 31  1  0
M  END
>  <meeko>  (8) 
{"is_sidechain": [false], "free_energy": -5.286, "intermolecular_energy": -6.191, "internal_energy": -0.49}

$$$$
4lzs_ligand
     RDKit          3D

 31 31  0  0  0  0  0  0  0  0999 V2000
   13.8550   36.0500   73.9100 C   0  0  0  0  0  0  0  0  0  0  0  0
   13.1710   37.4080   73.8960 C   0  0  0  0  0  0  0  0  0  0  0  0
   12.2080   37.5760   75.0400 C   0  0  0  0  0  0  0  0  0  0  0  0
   10.8400   37.3310   74.9960 C   0  0  0  0  0  0  0  0  0  0  0  0
   10.0160   36.8730   73.8900 C   0  0  0  0  0  0  0  0  0  0  0  0
   10.0580   35.7380   73.4270 O   0  0  0  0  0  0  0  0  0  0  0  0
    9.1460   37.8340   73.4100 N   0  0  0  0  0  0  0  0  0  0  0  0
    8.1730   37.4800   72.4070 C   0  0  0  0  0  0  0  0  0  0  0  0
   10.3410   37.6520   76.2340 N   0  0  0  0  0  0  0  0  0  0  0  0
   11.3420   38.0330   77.0920 C   0  0  0  0  0  0  0  0  0  0  0  0
   11.0170   38.3620   78.5060 C   0  0  0  0  0  0  0  0  0  0  0  0
   12.5380   38.0080   76.3810 C   0  0  0  0  0  0  0  0  0  0  0  0
   13.8850   38.3360   76.8830 C   0  0  0  0  0  0  0  0  0  0  0  0
   14.7110   37.2690   77.5550 C   0  0  0  0  0  0  0  0  0  0  0  0
   14.3570   39.4680   76.7610 O   0  0  0  0  0  0  0  0  0  0  0  0
   14.0156   35.7311   74.9504 H   0  0  0  0  0  0  0  0  0  0  0  0
   13.2199   35.3143   73.3949 H   0  0  0  0  0  0  0  0  0  0  0  0
   14.8242   36.1223   73.3949 H   0  0  0  0  0  0  0  0  0  0  0  0
   13.9399   38.1917   73.9633 H   0  0  0  0  0  0  0  0  0  0  0  0
   12.5978   37.4857   72.9604 H   0  0  0  0  0  0  0  0  0  0  0  0
    8.8950   38.5750   74.0500 H   0  0  0  0  0  0  0  0  0  0  0  0
    7.2474   37.1432   72.8968 H   0  0  0  0  0  0  0  0  0  0  0  0
    7.9575   38.3573   71.7794 H   0  0  0  0  0  0  0  0  0  0  0  0
    8.5716   36.6693   71.7794 H   0  0  0  0  0  0  0  0  0  0  0  0
    9.3580   37.6210   76.4680 H   0  0  0  0  0  0  0  0  0  0  0  0
   11.6296   37.7418   79.1769 H   0  0  0  0  0  0  0  0  0  0  0  0
   11.2295   39.4249   78.6933 H   0  0  0  0  0  0  0  0  0  0  0  0
    9.9516   38.1625   78.6933 H   0  0  0  0  0  0  0  0  0  0  0  0
   14.6289   37.3750   78.6468 H   0  0  0  0  0  0  0  0  0  0  0  0
   14.3432   36.2769   77.2543 H   0  0  0  0  0  0  0  0  0  0  0  0
   15.7636   37.3765   77.2543 H   0  0  0  0  0  0  0  0  0  0  0  0
  1  2  1  0
  2  3  1  0
  3  4  2  0
  4  5  1  0
  5  6  2  0
  5  7  1  0
  7  8  1  0
  4  9  1  0
  9 10  1  0
 10 11  1  0
 10 12  2  0
 12 13  1  0
 13 14  1  0
 13 15  2  0
 12  3  1  0
  1 16  1  0
  1 17  1  0
  1 18  1  0
  2 19  1  0
  2 20  1  0
  7 21  1  0
  8 22  1  0
  8 23  1  0
  8 24  1  0
  9 25  1  0
 11 26  1  0
 11 27  1  0
 11 28  1  0
 14 29  1  0
 14 30  1  0
 14 31  1  0
M  END
>  <meeko>  (9) 
{"is_sidechain": [false], "free_energy": -5.027, "intermolecular_energy": -5.825, "internal_energy": -0.552}

$$$$
