1o5b_ligand
     RDKit          3D

 21 22  0  0  0  0  0  0  0  0999 V2000
    8.6530   -1.7030   24.6870 N   0  0  0  0  0  0  0  0  0  0  0  0
    8.3550   -0.7680   25.5610 C   0  0  0  0  0  0  0  0  0  0  0  0
    7.8820   -1.0590   26.7520 N   0  0  0  0  0  0  0  0  0  0  0  0
    8.5520    0.6290   25.2170 C   0  0  0  0  0  0  0  0  0  0  0  0
    8.2440    1.7000   26.0270 C   0  0  0  0  0  0  0  0  0  0  0  0
    8.5420    2.9800   25.4230 C   0  0  0  0  0  0  0  0  0  0  0  0
    8.3810    4.3120   25.8910 C   0  0  0  0  0  0  0  0  0  0  0  0
    7.5730    4.7140   27.7820 I   0  0  0  0  0  0  0  0  0  0  0  0
    8.7580    5.4010   25.0960 C   0  0  0  0  0  0  0  0  0  0  0  0
    9.2970    5.1920   23.8350 C   0  0  0  0  0  0  0  0  0  0  0  0
    9.4700    3.8970   23.3450 C   0  0  0  0  0  0  0  0  0  0  0  0
    9.0900    2.8040   24.1480 C   0  0  0  0  0  0  0  0  0  0  0  0
    9.2270    1.1380   23.7390 S   0  0  0  0  0  0  0  0  0  0  0  0
    9.0580   -1.4650   23.7880 H   0  0  0  0  0  0  0  0  0  0  0  0
    8.5270   -2.6860   24.8870 H   0  0  0  0  0  0  0  0  0  0  0  0
    7.6700   -0.3050   27.4000 H   0  0  0  0  0  0  0  0  0  0  0  0
    7.7210   -2.0060   27.0640 H   0  0  0  0  0  0  0  0  0  0  0  0
    7.8139    1.5923   27.0337 H   0  0  0  0  0  0  0  0  0  0  0  0
    8.6263    6.4261   25.4727 H   0  0  0  0  0  0  0  0  0  0  0  0
    9.5901    6.0534   23.2169 H   0  0  0  0  0  0  0  0  0  0  0  0
    9.8974    3.7319   22.3450 H   0  0  0  0  0  0  0  0  0  0  0  0
  1  2  1  0
  2  3  2  0
  2  4  1  0
  4  5  2  0
  5  6  1  0
  6  7  2  0
  7  8  1  0
  7  9  1  0
  9 10  2  0
 10 11  1  0
 11 12  2  0
 12 13  1  0
 13  4  1  0
 12  6  1  0
  1 14  1  0
  1 15  1  0
  3 16  1  0
  3 17  1  0
  5 18  1  0
  9 19  1  0
 10 20  1  0
 11 21  1  0
M  CHG  1   3   1
M  END
>  <meeko>  (1) 
{"is_sidechain": [false], "free_energy": -6.648, "intermolecular_energy": -7.036, "internal_energy": -0.064}

$$$$
1o5b_ligand
     RDKit          3D

 21 22  0  0  0  0  0  0  0  0999 V2000
    9.7950    2.6050   22.3370 N   0  0  0  0  0  0  0  0  0  0  0  0
    9.2440    2.0020   23.3660 C   0  0  0  0  0  0  0  0  0  0  0  0
    9.0530    0.7030   23.3870 N   0  0  0  0  0  0  0  0  0  0  0  0
    8.8340    2.7800   24.5220 C   0  0  0  0  0  0  0  0  0  0  0  0
    8.5530    4.1290   24.5170 C   0  0  0  0  0  0  0  0  0  0  0  0
    8.1740    4.6420   25.8140 C   0  0  0  0  0  0  0  0  0  0  0  0
    7.8160    5.9440   26.2540 C   0  0  0  0  0  0  0  0  0  0  0  0
    7.7730    7.5690   24.9320 I   0  0  0  0  0  0  0  0  0  0  0  0
    7.4810    6.1820   27.5930 C   0  0  0  0  0  0  0  0  0  0  0  0
    7.4940    5.1430   28.5110 C   0  0  0  0  0  0  0  0  0  0  0  0
    7.8390    3.8510   28.1130 C   0  0  0  0  0  0  0  0  0  0  0  0
    8.1750    3.6150   26.7660 C   0  0  0  0  0  0  0  0  0  0  0  0
    8.6190    2.1040   26.0710 S   0  0  0  0  0  0  0  0  0  0  0  0
    9.9770    3.6030   22.3550 H   0  0  0  0  0  0  0  0  0  0  0  0
   10.0910    2.1010   21.5130 H   0  0  0  0  0  0  0  0  0  0  0  0
    8.6280    0.2750   24.2050 H   0  0  0  0  0  0  0  0  0  0  0  0
    9.3130    0.0960   22.6220 H   0  0  0  0  0  0  0  0  0  0  0  0
    8.6114    4.7544   23.6140 H   0  0  0  0  0  0  0  0  0  0  0  0
    7.2067    7.1966   27.9174 H   0  0  0  0  0  0  0  0  0  0  0  0
    7.2304    5.3388   29.5608 H   0  0  0  0  0  0  0  0  0  0  0  0
    7.8484    3.0273   28.8420 H   0  0  0  0  0  0  0  0  0  0  0  0
  1  2  1  0
  2  3  2  0
  2  4  1  0
  4  5  2  0
  5  6  1  0
  6  7  2  0
  7  8  1  0
  7  9  1  0
  9 10  2  0
 10 11  1  0
 11 12  2  0
 12 13  1  0
 13  4  1  0
 12  6  1  0
  1 14  1  0
  1 15  1  0
  3 16  1  0
  3 17  1  0
  5 18  1  0
  9 19  1  0
 10 20  1  0
 11 21  1  0
M  CHG  1   3   1
M  END
>  <meeko>  (2) 
{"is_sidechain": [false], "free_energy": -5.537, "intermolecular_energy": -5.861, "internal_energy": -0.063}

$$$$
1o5b_ligand
     RDKit          3D

 21 22  0  0  0  0  0  0  0  0999 V2000
    7.9580    7.5360   21.8110 N   0  0  0  0  0  0  0  0  0  0  0  0
    8.9350    7.2580   22.6440 C   0  0  0  0  0  0  0  0  0  0  0  0
   10.1050    7.8480   22.5610 N   0  0  0  0  0  0  0  0  0  0  0  0
    8.7300    6.2740   23.6920 C   0  0  0  0  0  0  0  0  0  0  0  0
    8.9780    4.9230   23.5780 C   0  0  0  0  0  0  0  0  0  0  0  0
    8.6780    4.1800   24.7810 C   0  0  0  0  0  0  0  0  0  0  0  0
    8.7760    2.7980   25.0950 C   0  0  0  0  0  0  0  0  0  0  0  0
    9.4570    1.4060   23.6860 I   0  0  0  0  0  0  0  0  0  0  0  0
    8.4160    2.3230   26.3620 C   0  0  0  0  0  0  0  0  0  0  0  0
    7.9580    3.2010   27.3330 C   0  0  0  0  0  0  0  0  0  0  0  0
    7.8500    4.5650   27.0600 C   0  0  0  0  0  0  0  0  0  0  0  0
    8.2130    5.0390   25.7840 C   0  0  0  0  0  0  0  0  0  0  0  0
    8.1640    6.6740   25.2480 S   0  0  0  0  0  0  0  0  0  0  0  0
    7.0460    7.1040   21.9160 H   0  0  0  0  0  0  0  0  0  0  0  0
    8.0610    8.2120   21.0670 H   0  0  0  0  0  0  0  0  0  0  0  0
   10.8330    7.6080   23.2280 H   0  0  0  0  0  0  0  0  0  0  0  0
   10.3220    8.5440   21.8610 H   0  0  0  0  0  0  0  0  0  0  0  0
    9.3663    4.4558   22.6610 H   0  0  0  0  0  0  0  0  0  0  0  0
    8.4967    1.2495   26.5881 H   0  0  0  0  0  0  0  0  0  0  0  0
    7.6778    2.8191   28.3258 H   0  0  0  0  0  0  0  0  0  0  0  0
    7.4864    5.2607   27.8305 H   0  0  0  0  0  0  0  0  0  0  0  0
  1  2  1  0
  2  3  2  0
  2  4  1  0
  4  5  2  0
  5  6  1  0
  6  7  2  0
  7  8  1  0
  7  9  1  0
  9 10  2  0
 10 11  1  0
 11 12  2  0
 12 13  1  0
 13  4  1  0
 12  6  1  0
  1 14  1  0
  1 15  1  0
  3 16  1  0
  3 17  1  0
  5 18  1  0
  9 19  1  0
 10 20  1  0
 11 21  1  0
M  CHG  1   3   1
M  END
>  <meeko>  (3) 
{"is_sidechain": [false], "free_energy": -5.201, "intermolecular_energy": -5.508, "internal_energy": -0.061}

$$$$
1o5b_ligand
     RDKit          3D

 21 22  0  0  0  0  0  0  0  0999 V2000
    9.1570    0.3490   24.3020 N   0  0  0  0  0  0  0  0  0  0  0  0
    8.7430    1.2750   25.1380 C   0  0  0  0  0  0  0  0  0  0  0  0
    8.2910    0.9770   26.3340 N   0  0  0  0  0  0  0  0  0  0  0  0
    8.7860    2.6720   24.7430 C   0  0  0  0  0  0  0  0  0  0  0  0
    7.9110    3.6480   25.1700 C   0  0  0  0  0  0  0  0  0  0  0  0
    8.1880    4.9520   24.6100 C   0  0  0  0  0  0  0  0  0  0  0  0
    7.5490    6.2110   24.7690 C   0  0  0  0  0  0  0  0  0  0  0  0
    5.8680    6.4320   26.0000 I   0  0  0  0  0  0  0  0  0  0  0  0
    8.0260    7.3470   24.1040 C   0  0  0  0  0  0  0  0  0  0  0  0
    9.1350    7.2560   23.2760 C   0  0  0  0  0  0  0  0  0  0  0  0
    9.7880    6.0370   23.0970 C   0  0  0  0  0  0  0  0  0  0  0  0
    9.3060    4.8960   23.7690 C   0  0  0  0  0  0  0  0  0  0  0  0
    9.9660    3.3090   23.6930 S   0  0  0  0  0  0  0  0  0  0  0  0
    9.5450    0.5990   23.3990 H   0  0  0  0  0  0  0  0  0  0  0  0
    9.1410   -0.6340   24.5370 H   0  0  0  0  0  0  0  0  0  0  0  0
    7.9860    1.7240   26.9520 H   0  0  0  0  0  0  0  0  0  0  0  0
    8.2340    0.0290   26.6800 H   0  0  0  0  0  0  0  0  0  0  0  0
    7.0834    3.4538   25.8681 H   0  0  0  0  0  0  0  0  0  0  0  0
    7.5199    8.3143   24.2386 H   0  0  0  0  0  0  0  0  0  0  0  0
    9.5025    8.1530   22.7561 H   0  0  0  0  0  0  0  0  0  0  0  0
   10.6675    5.9670   22.4401 H   0  0  0  0  0  0  0  0  0  0  0  0
  1  2  1  0
  2  3  2  0
  2  4  1  0
  4  5  2  0
  5  6  1  0
  6  7  2  0
  7  8  1  0
  7  9  1  0
  9 10  2  0
 10 11  1  0
 11 12  2  0
 12 13  1  0
 13  4  1  0
 12  6  1  0
  1 14  1  0
  1 15  1  0
  3 16  1  0
  3 17  1  0
  5 18  1  0
  9 19  1  0
 10 20  1  0
 11 21  1  0
M  CHG  1   3   1
M  END
>  <meeko>  (4) 
{"is_sidechain": [false], "free_energy": -5.137, "intermolecular_energy": -5.438, "internal_energy": -0.063}

$$$$
1o5b_ligand
     RDKit          3D

 21 22  0  0  0  0  0  0  0  0999 V2000
   10.4600    6.9140   22.5920 N   0  0  0  0  0  0  0  0  0  0  0  0
    9.2730    6.3630   22.7050 C   0  0  0  0  0  0  0  0  0  0  0  0
    8.2030    6.9070   22.1730 N   0  0  0  0  0  0  0  0  0  0  0  0
    9.1250    5.1150   23.4330 C   0  0  0  0  0  0  0  0  0  0  0  0
    8.6850    4.9980   24.7340 C   0  0  0  0  0  0  0  0  0  0  0  0
    8.6410    3.6320   25.2050 C   0  0  0  0  0  0  0  0  0  0  0  0
    8.2650    3.0680   26.4540 C   0  0  0  0  0  0  0  0  0  0  0  0
    7.6290    4.2720   28.0460 I   0  0  0  0  0  0  0  0  0  0  0  0
    8.3100    1.6840   26.6580 C   0  0  0  0  0  0  0  0  0  0  0  0
    8.7250    0.8410   25.6380 C   0  0  0  0  0  0  0  0  0  0  0  0
    9.1000    1.3600   24.3980 C   0  0  0  0  0  0  0  0  0  0  0  0
    9.0520    2.7530   24.1970 C   0  0  0  0  0  0  0  0  0  0  0  0
    9.4620    3.5920   22.7500 S   0  0  0  0  0  0  0  0  0  0  0  0
   11.2840    6.4590   22.9710 H   0  0  0  0  0  0  0  0  0  0  0  0
   10.6050    7.7830   22.0960 H   0  0  0  0  0  0  0  0  0  0  0  0
    7.3040    6.4450   22.2800 H   0  0  0  0  0  0  0  0  0  0  0  0
    8.2270    7.7720   21.6510 H   0  0  0  0  0  0  0  0  0  0  0  0
    8.3956    5.8598   25.3533 H   0  0  0  0  0  0  0  0  0  0  0  0
    8.0152    1.2635   27.6308 H   0  0  0  0  0  0  0  0  0  0  0  0
    8.7589   -0.2453   25.8077 H   0  0  0  0  0  0  0  0  0  0  0  0
    9.4284    0.6906   23.5892 H   0  0  0  0  0  0  0  0  0  0  0  0
  1  2  1  0
  2  3  2  0
  2  4  1  0
  4  5  2  0
  5  6  1  0
  6  7  2  0
  7  8  1  0
  7  9  1  0
  9 10  2  0
 10 11  1  0
 11 12  2  0
 12 13  1  0
 13  4  1  0
 12  6  1  0
  1 14  1  0
  1 15  1  0
  3 16  1  0
  3 17  1  0
  5 18  1  0
  9 19  1  0
 10 20  1  0
 11 21  1  0
M  CHG  1   3   1
M  END
>  <meeko>  (5) 
{"is_sidechain": [false], "free_energy": -5.04, "intermolecular_energy": -5.338, "internal_energy": -0.061}

$$$$
1o5b_ligand
     RDKit          3D

 21 22  0  0  0  0  0  0  0  0999 V2000
    8.8560   -0.3800   22.7810 N   0  0  0  0  0  0  0  0  0  0  0  0
    8.7520   -0.3630   24.0910 C   0  0  0  0  0  0  0  0  0  0  0  0
    8.7860   -1.4660   24.8030 N   0  0  0  0  0  0  0  0  0  0  0  0
    8.5990    0.9040   24.7850 C   0  0  0  0  0  0  0  0  0  0  0  0
    8.7240    2.1490   24.2090 C   0  0  0  0  0  0  0  0  0  0  0  0
    8.5240    3.2360   25.1410 C   0  0  0  0  0  0  0  0  0  0  0  0
    8.5670    4.6470   24.9800 C   0  0  0  0  0  0  0  0  0  0  0  0
    8.9890    5.5200   23.1220 I   0  0  0  0  0  0  0  0  0  0  0  0
    8.3300    5.5000   26.0640 C   0  0  0  0  0  0  0  0  0  0  0  0
    8.0470    4.9750   27.3160 C   0  0  0  0  0  0  0  0  0  0  0  0
    7.9950    3.5950   27.5110 C   0  0  0  0  0  0  0  0  0  0  0  0
    8.2340    2.7400   26.4170 C   0  0  0  0  0  0  0  0  0  0  0  0
    8.2100    1.0190   26.4400 S   0  0  0  0  0  0  0  0  0  0  0  0
    8.8720    0.4840   22.2490 H   0  0  0  0  0  0  0  0  0  0  0  0
    8.9600   -1.2400   22.2610 H   0  0  0  0  0  0  0  0  0  0  0  0
    8.7080   -1.4080   25.8150 H   0  0  0  0  0  0  0  0  0  0  0  0
    8.8930   -2.3830   24.3920 H   0  0  0  0  0  0  0  0  0  0  0  0
    8.9535    2.3013   23.1440 H   0  0  0  0  0  0  0  0  0  0  0  0
    8.3683    6.5902   25.9225 H   0  0  0  0  0  0  0  0  0  0  0  0
    7.8620    5.6527   28.1624 H   0  0  0  0  0  0  0  0  0  0  0  0
    7.7706    3.1801   28.5047 H   0  0  0  0  0  0  0  0  0  0  0  0
  1  2  1  0
  2  3  2  0
  2  4  1  0
  4  5  2  0
  5  6  1  0
  6  7  2  0
  7  8  1  0
  7  9  1  0
  9 10  2  0
 10 11  1  0
 11 12  2  0
 12 13  1  0
 13  4  1  0
 12  6  1  0
  1 14  1  0
  1 15  1  0
  3 16  1  0
  3 17  1  0
  5 18  1  0
  9 19  1  0
 10 20  1  0
 11 21  1  0
M  CHG  1   3   1
M  END
>  <meeko>  (6) 
{"is_sidechain": [false], "free_energy": -5.025, "intermolecular_energy": -5.319, "internal_energy": -0.064}

$$$$
1o5b_ligand
     RDKit          3D

 21 22  0  0  0  0  0  0  0  0999 V2000
    8.0160    4.2920   29.2070 N   0  0  0  0  0  0  0  0  0  0  0  0
    7.3620    4.4710   28.0820 C   0  0  0  0  0  0  0  0  0  0  0  0
    6.2230    5.1240   28.0400 N   0  0  0  0  0  0  0  0  0  0  0  0
    7.9010    3.9400   26.8430 C   0  0  0  0  0  0  0  0  0  0  0  0
    7.9610    2.6050   26.5060 C   0  0  0  0  0  0  0  0  0  0  0  0
    8.5540    2.3660   25.2090 C   0  0  0  0  0  0  0  0  0  0  0  0
    8.8120    1.1700   24.4880 C   0  0  0  0  0  0  0  0  0  0  0  0
    8.3220   -0.7080   25.2780 I   0  0  0  0  0  0  0  0  0  0  0  0
    9.4070    1.2100   23.2210 C   0  0  0  0  0  0  0  0  0  0  0  0
    9.7540    2.4260   22.6510 C   0  0  0  0  0  0  0  0  0  0  0  0
    9.5130    3.6210   23.3310 C   0  0  0  0  0  0  0  0  0  0  0  0
    8.9130    3.5760   24.6050 C   0  0  0  0  0  0  0  0  0  0  0  0
    8.5250    4.9250   25.6010 S   0  0  0  0  0  0  0  0  0  0  0  0
    8.9160    3.8230   29.2170 H   0  0  0  0  0  0  0  0  0  0  0  0
    7.6730    4.6420   30.0910 H   0  0  0  0  0  0  0  0  0  0  0  0
    5.7510    5.2450   27.1470 H   0  0  0  0  0  0  0  0  0  0  0  0
    5.7870    5.5240   28.8590 H   0  0  0  0  0  0  0  0  0  0  0  0
    7.5938    1.8001   27.1597 H   0  0  0  0  0  0  0  0  0  0  0  0
    9.5998    0.2741   22.6760 H   0  0  0  0  0  0  0  0  0  0  0  0
   10.2224    2.4488   21.6560 H   0  0  0  0  0  0  0  0  0  0  0  0
    9.7879    4.5851   22.8782 H   0  0  0  0  0  0  0  0  0  0  0  0
  1  2  1  0
  2  3  2  0
  2  4  1  0
  4  5  2  0
  5  6  1  0
  6  7  2  0
  7  8  1  0
  7  9  1  0
  9 10  2  0
 10 11  1  0
 11 12  2  0
 12 13  1  0
 13  4  1  0
 12  6  1  0
  1 14  1  0
  1 15  1  0
  3 16  1  0
  3 17  1  0
  5 18  1  0
  9 19  1  0
 10 20  1  0
 11 21  1  0
M  CHG  1   3   1
M  END
>  <meeko>  (7) 
{"is_sidechain": [false], "free_energy": -5.015, "intermolecular_energy": -5.312, "internal_energy": -0.061}

$$$$
1o5b_ligand
     RDKit          3D

 21 22  0  0  0  0  0  0  0  0999 V2000
   11.0000    2.3820   22.9380 N   0  0  0  0  0  0  0  0  0  0  0  0
    9.8870    2.1440   23.5950 C   0  0  0  0  0  0  0  0  0  0  0  0
    9.3500    0.9460   23.6360 N   0  0  0  0  0  0  0  0  0  0  0  0
    9.2240    3.2240   24.3030 C   0  0  0  0  0  0  0  0  0  0  0  0
    9.0280    4.4970   23.8120 C   0  0  0  0  0  0  0  0  0  0  0  0
    8.3410    5.3700   24.7380 C   0  0  0  0  0  0  0  0  0  0  0  0
    7.9490    6.7320   24.6470 C   0  0  0  0  0  0  0  0  0  0  0  0
    8.3510    7.8710   22.9350 I   0  0  0  0  0  0  0  0  0  0  0  0
    7.2790    7.3580   25.7060 C   0  0  0  0  0  0  0  0  0  0  0  0
    6.9890    6.6510   26.8630 C   0  0  0  0  0  0  0  0  0  0  0  0
    7.3590    5.3110   26.9860 C   0  0  0  0  0  0  0  0  0  0  0  0
    8.0310    4.6850   25.9180 C   0  0  0  0  0  0  0  0  0  0  0  0
    8.5640    3.0500   25.8640 S   0  0  0  0  0  0  0  0  0  0  0  0
   11.4270    3.3020   22.9530 H   0  0  0  0  0  0  0  0  0  0  0  0
   11.4910    1.6580   22.4310 H   0  0  0  0  0  0  0  0  0  0  0  0
    8.4900    0.8040   24.1600 H   0  0  0  0  0  0  0  0  0  0  0  0
    9.7540    0.1460   23.1710 H   0  0  0  0  0  0  0  0  0  0  0  0
    9.3614    4.8174   22.8139 H   0  0  0  0  0  0  0  0  0  0  0  0
    6.9820    8.4136   25.6195 H   0  0  0  0  0  0  0  0  0  0  0  0
    6.4632    7.1502   27.6903 H   0  0  0  0  0  0  0  0  0  0  0  0
    7.1290    4.7512   27.9046 H   0  0  0  0  0  0  0  0  0  0  0  0
  1  2  1  0
  2  3  2  0
  2  4  1  0
  4  5  2  0
  5  6  1  0
  6  7  2  0
  7  8  1  0
  7  9  1  0
  9 10  2  0
 10 11  1  0
 11 12  2  0
 12 13  1  0
 13  4  1  0
 12  6  1  0
  1 14  1  0
  1 15  1  0
  3 16  1  0
  3 17  1  0
  5 18  1  0
  9 19  1  0
 10 20  1  0
 11 21  1  0
M  CHG  1   3   1
M  END
>  <meeko>  (8) 
{"is_sidechain": [false], "free_energy": -4.998, "intermolecular_energy": -5.292, "internal_energy": -0.062}

$$$$
1o5b_ligand
     RDKit          3D

 21 22  0  0  0  0  0  0  0  0999 V2000
    4.2070    5.4750   24.4970 N   0  0  0  0  0  0  0  0  0  0  0  0
    4.8390    6.4070   23.8200 C   0  0  0  0  0  0  0  0  0  0  0  0
    4.1950    7.3540   23.1770 N   0  0  0  0  0  0  0  0  0  0  0  0
    6.2910    6.4050   23.7740 C   0  0  0  0  0  0  0  0  0  0  0  0
    7.0870    5.2800   23.7650 C   0  0  0  0  0  0  0  0  0  0  0  0
    8.5010    5.5780   23.7220 C   0  0  0  0  0  0  0  0  0  0  0  0
    9.6490    4.7410   23.7070 C   0  0  0  0  0  0  0  0  0  0  0  0
    9.4770    2.6540   23.7550 I   0  0  0  0  0  0  0  0  0  0  0  0
   10.9360    5.2900   23.6600 C   0  0  0  0  0  0  0  0  0  0  0  0
   11.1070    6.6660   23.6270 C   0  0  0  0  0  0  0  0  0  0  0  0
   10.0030    7.5180   23.6400 C   0  0  0  0  0  0  0  0  0  0  0  0
    8.7090    6.9620   23.6860 C   0  0  0  0  0  0  0  0  0  0  0  0
    7.2230    7.8290   23.7010 S   0  0  0  0  0  0  0  0  0  0  0  0
    4.7200    4.7770   25.0250 H   0  0  0  0  0  0  0  0  0  0  0  0
    3.1980    5.4400   24.5500 H   0  0  0  0  0  0  0  0  0  0  0  0
    4.7220    8.0590   22.6690 H   0  0  0  0  0  0  0  0  0  0  0  0
    3.1870    7.4220   23.1640 H   0  0  0  0  0  0  0  0  0  0  0  0
    6.6859    4.2560   23.7882 H   0  0  0  0  0  0  0  0  0  0  0  0
   11.8144    4.6280   23.6492 H   0  0  0  0  0  0  0  0  0  0  0  0
   12.1218    7.0888   23.5903 H   0  0  0  0  0  0  0  0  0  0  0  0
   10.1404    8.6091   23.6147 H   0  0  0  0  0  0  0  0  0  0  0  0
  1  2  1  0
  2  3  2  0
  2  4  1  0
  4  5  2  0
  5  6  1  0
  6  7  2  0
  7  8  1  0
  7  9  1  0
  9 10  2  0
 10 11  1  0
 11 12  2  0
 12 13  1  0
 13  4  1  0
 12  6  1  0
  1 14  1  0
  1 15  1  0
  3 16  1  0
  3 17  1  0
  5 18  1  0
  9 19  1  0
 10 20  1  0
 11 21  1  0
M  CHG  1   3   1
M  END
>  <meeko>  (9) 
{"is_sidechain": [false], "free_energy": -4.971, "intermolecular_energy": -5.263, "internal_energy": -0.063}

$$$$
