3ag9_ligand
     RDKit          3D

140142  0  0  0  0  0  0  0  0999 V2000
   19.5630    6.9840    8.9650 N   0  0  0  0  0  0  0  0  0  0  0  0
   19.2700    7.6350    7.8350 C   0  0  0  0  0  0  0  0  0  0  0  0
   20.2700    8.1630    7.1270 N   0  0  0  0  0  0  0  0  0  0  0  0
   17.9840    7.7390    7.4450 N   0  0  0  0  0  0  0  0  0  0  0  0
   17.5580    8.4100    6.2100 C   0  0  0  0  0  0  0  0  0  0  0  0
   16.9970    7.4320    5.1720 C   0  0  0  0  0  0  0  0  0  0  0  0
   15.4740    7.2650    5.2620 C   0  0  0  0  0  0  0  0  0  0  0  0
   14.9900    5.8670    4.8330 C   0  0  1  0  0  0  0  0  0  0  0  0
   15.7810    4.8280    5.4930 N   0  0  0  0  0  0  0  0  0  0  0  0
   16.4890    3.9310    4.7100 C   0  0  0  0  0  0  0  0  0  0  0  0
   16.4460    3.9440    3.4830 O   0  0  0  0  0  0  0  0  0  0  0  0
   17.3560    2.9470    5.5180 C   0  0  1  0  0  0  0  0  0  0  0  0
   18.4870    3.6800    6.2580 C   0  0  0  0  0  0  0  0  0  0  0  0
   18.4840    3.5150    7.7850 C   0  0  0  0  0  0  0  0  0  0  0  0
   19.8610    3.3340    8.4230 C   0  0  0  0  0  0  0  0  0  0  0  0
   19.9250    2.0850    9.1950 N   0  0  0  0  0  0  0  0  0  0  0  0
   20.9990    1.2760    9.2270 C   0  0  0  0  0  0  0  0  0  0  0  0
   20.9730    0.1900   10.0080 N   0  0  0  0  0  0  0  0  0  0  0  0
   22.0950    1.5100    8.5060 N   0  0  0  0  0  0  0  0  0  0  0  0
   16.4730    2.2880    6.4760 N   0  0  0  0  0  0  0  0  0  0  0  0
   15.7410    1.1720    6.1280 C   0  0  0  0  0  0  0  0  0  0  0  0
   15.7500    0.7070    4.9910 O   0  0  0  0  0  0  0  0  0  0  0  0
   14.9150    0.6270    7.2820 C   0  0  0  0  0  0  0  0  0  0  0  0
   13.5960    1.3760    7.4700 C   0  0  0  0  0  0  0  0  0  0  0  0
   13.5220    2.1770    8.7770 C   0  0  0  0  0  0  0  0  0  0  0  0
   14.7120    3.1240    8.9860 C   0  0  0  0  0  0  0  0  0  0  0  0
   14.9330    3.4900   10.4560 C   0  0  0  0  0  0  0  0  0  0  0  0
   13.7610    3.2580   11.2800 N   0  0  0  0  0  0  0  0  0  0  0  0
   13.8470    3.2060   12.6540 C   0  0  0  0  0  0  0  0  0  0  0  0
   14.9160    3.1790   13.2750 O   0  0  0  0  0  0  0  0  0  0  0  0
   12.4950    3.0760   13.3840 C   0  0  1  0  0  0  0  0  0  0  0  0
   12.6130    2.0560   14.5390 C   0  0  0  0  0  0  0  0  0  0  0  0
   11.4000    1.9420   15.4780 C   0  0  0  0  0  0  0  0  0  0  0  0
   11.4360    2.8590   16.7070 C   0  0  0  0  0  0  0  0  0  0  0  0
   10.2120    3.7660   16.7910 C   0  0  0  0  0  0  0  0  0  0  0  0
    9.7180    3.8240   18.1880 N   0  0  0  0  0  0  0  0  0  0  0  0
   12.0700    4.4090   13.8040 N   0  0  0  0  0  0  0  0  0  0  0  0
   11.0840    5.0760   13.0970 C   0  0  0  0  0  0  0  0  0  0  0  0
   10.4440    4.5460   12.1990 O   0  0  0  0  0  0  0  0  0  0  0  0
   10.8940    6.5090   13.5620 C   0  0  0  0  0  0  0  0  0  0  0  0
   11.7280    7.5270   12.7860 C   0  0  0  0  0  0  0  0  0  0  0  0
   10.8850    8.4150   11.8650 C   0  0  0  0  0  0  0  0  0  0  0  0
    9.5570    8.7900   12.5330 C   0  0  0  0  0  0  0  0  0  0  0  0
    8.3990    8.8990   11.5410 C   0  0  0  0  0  0  0  0  0  0  0  0
    8.8310    9.0600   10.1650 N   0  0  0  0  0  0  0  0  0  0  0  0
    8.1420    8.4760    9.1210 C   0  0  0  0  0  0  0  0  0  0  0  0
    7.0720    7.8910    9.2580 O   0  0  0  0  0  0  0  0  0  0  0  0
    8.7820    8.6900    7.7460 C   0  0  1  0  0  0  0  0  0  0  0  0
   10.2020    8.8700    7.8490 O   0  0  0  0  0  0  0  0  0  0  0  0
   10.8490    7.6820    7.3550 C   0  0  1  0  0  0  0  0  0  0  0  0
   11.9120    7.2800    8.2590 N   0  0  0  0  0  0  0  0  0  0  0  0
   11.9330    6.2120    9.1130 C   0  0  0  0  0  0  0  0  0  0  0  0
   13.0460    6.1680    9.8170 N   0  0  0  0  0  0  0  0  0  0  0  0
   13.7780    7.2570    9.3930 C   0  0  0  0  0  0  0  0  0  0  0  0
   15.0410    7.7540    9.7540 C   0  0  0  0  0  0  0  0  0  0  0  0
   15.8360    7.1740   10.7300 N   0  0  0  0  0  0  0  0  0  0  0  0
   15.5100    8.8480    9.1100 N   0  0  0  0  0  0  0  0  0  0  0  0
   14.7340    9.4240    8.1690 C   0  0  0  0  0  0  0  0  0  0  0  0
   13.5090    9.0420    7.7350 N   0  0  0  0  0  0  0  0  0  0  0  0
   13.0960    7.9510    8.4080 C   0  0  0  0  0  0  0  0  0  0  0  0
    9.7700    6.6070    7.1920 C   0  0  2  0  0  0  0  0  0  0  0  0
    9.9980    5.7000    6.1090 O   0  0  0  0  0  0  0  0  0  0  0  0
    8.5360    7.4420    6.9080 C   0  0  2  0  0  0  0  0  0  0  0  0
    8.4780    7.7760    5.5120 O   0  0  0  0  0  0  0  0  0  0  0  0
   13.5000    5.6780    5.2360 C   0  0  0  0  0  0  0  0  0  0  0  0
   12.6000    6.4150    4.5170 N   0  0  0  0  0  0  0  0  0  0  0  0
   13.1140    4.9570    6.1590 O   0  0  0  0  0  0  0  0  0  0  0  0
   18.8520    6.5580    9.5440 H   0  0  0  0  0  0  0  0  0  0  0  0
   20.5210    6.8860    9.2800 H   0  0  0  0  0  0  0  0  0  0  0  0
   20.1090    8.6620    6.2620 H   0  0  0  0  0  0  0  0  0  0  0  0
   21.2350    8.0760    7.4220 H   0  0  0  0  0  0  0  0  0  0  0  0
   17.2910    7.2940    8.0330 H   0  0  0  0  0  0  0  0  0  0  0  0
   16.7784    9.1450    6.4591 H   0  0  0  0  0  0  0  0  0  0  0  0
   18.4435    8.8917    5.7698 H   0  0  0  0  0  0  0  0  0  0  0  0
   17.2494    7.8043    4.1682 H   0  0  0  0  0  0  0  0  0  0  0  0
   17.4468    6.4483    5.3722 H   0  0  0  0  0  0  0  0  0  0  0  0
   15.1644    7.4378    6.3033 H   0  0  0  0  0  0  0  0  0  0  0  0
   15.0241    7.9928    4.5707 H   0  0  0  0  0  0  0  0  0  0  0  0
   15.1040    5.7832    3.7421 H   0  0  0  0  0  0  0  0  0  0  0  0
   16.2800    5.0790    6.3480 H   0  0  0  0  0  0  0  0  0  0  0  0
   17.8304    2.2177    4.8450 H   0  0  0  0  0  0  0  0  0  0  0  0
   19.4459    3.2993    5.8765 H   0  0  0  0  0  0  0  0  0  0  0  0
   18.3323    4.7521    6.0666 H   0  0  0  0  0  0  0  0  0  0  0  0
   18.0212    4.4115    8.2232 H   0  0  0  0  0  0  0  0  0  0  0  0
   17.9283    2.5883    7.9907 H   0  0  0  0  0  0  0  0  0  0  0  0
   20.6235    3.3064    7.6306 H   0  0  0  0  0  0  0  0  0  0  0  0
   20.0440    4.1770    9.1055 H   0  0  0  0  0  0  0  0  0  0  0  0
   19.1280    1.8140    9.7560 H   0  0  0  0  0  0  0  0  0  0  0  0
   20.1750   -0.0350   10.5890 H   0  0  0  0  0  0  0  0  0  0  0  0
   21.7640   -0.4380   10.0610 H   0  0  0  0  0  0  0  0  0  0  0  0
   22.9010    0.9050    8.5420 H   0  0  0  0  0  0  0  0  0  0  0  0
   22.1680    2.3020    7.8580 H   0  0  0  0  0  0  0  0  0  0  0  0
   16.1820    2.8140    7.2920 H   0  0  0  0  0  0  0  0  0  0  0  0
   14.6931   -0.4324    7.0861 H   0  0  0  0  0  0  0  0  0  0  0  0
   15.5041    0.7564    8.2019 H   0  0  0  0  0  0  0  0  0  0  0  0
   13.4692    2.0726    6.6282 H   0  0  0  0  0  0  0  0  0  0  0  0
   12.7994    0.6185    7.5118 H   0  0  0  0  0  0  0  0  0  0  0  0
   12.5991    2.7755    8.7663 H   0  0  0  0  0  0  0  0  0  0  0  0
   13.5397    1.4499    9.6022 H   0  0  0  0  0  0  0  0  0  0  0  0
   15.6208    2.6344    8.6060 H   0  0  0  0  0  0  0  0  0  0  0  0
   14.4909    4.0555    8.4442 H   0  0  0  0  0  0  0  0  0  0  0  0
   15.7626    2.8830   10.8476 H   0  0  0  0  0  0  0  0  0  0  0  0
   15.1568    4.5662   10.4973 H   0  0  0  0  0  0  0  0  0  0  0  0
   12.8550    3.4750   10.8760 H   0  0  0  0  0  0  0  0  0  0  0  0
   11.7128    2.6781   12.7208 H   0  0  0  0  0  0  0  0  0  0  0  0
   12.7858    1.0650   14.0939 H   0  0  0  0  0  0  0  0  0  0  0  0
   13.4367    2.4225   15.1692 H   0  0  0  0  0  0  0  0  0  0  0  0
   10.4972    2.1852   14.8985 H   0  0  0  0  0  0  0  0  0  0  0  0
   11.4100    0.9125   15.8654 H   0  0  0  0  0  0  0  0  0  0  0  0
   11.4765    2.2353   17.6122 H   0  0  0  0  0  0  0  0  0  0  0  0
   12.3247    3.5015   16.6206 H   0  0  0  0  0  0  0  0  0  0  0  0
   10.4855    4.7784   16.4591 H   0  0  0  0  0  0  0  0  0  0  0  0
    9.4189    3.3626   16.1443 H   0  0  0  0  0  0  0  0  0  0  0  0
   10.2450    3.2090   18.8420 H   0  0  0  0  0  0  0  0  0  0  0  0
    9.8070    4.7690   18.5780 H   0  0  0  0  0  0  0  0  0  0  0  0
    8.7300    3.5560   18.2570 H   0  0  0  0  0  0  0  0  0  0  0  0
   12.7630    4.9930   14.2590 H   0  0  0  0  0  0  0  0  0  0  0  0
    9.8321    6.7723   13.4480 H   0  0  0  0  0  0  0  0  0  0  0  0
   11.2297    6.5524   14.6086 H   0  0  0  0  0  0  0  0  0  0  0  0
   12.2552    8.1699   13.5062 H   0  0  0  0  0  0  0  0  0  0  0  0
   12.4265    6.9634   12.1501 H   0  0  0  0  0  0  0  0  0  0  0  0
   11.4460    9.3335   11.6378 H   0  0  0  0  0  0  0  0  0  0  0  0
   10.6691    7.8586   10.9410 H   0  0  0  0  0  0  0  0  0  0  0  0
    9.3093    8.0192   13.2776 H   0  0  0  0  0  0  0  0  0  0  0  0
    9.6889    9.7797   12.9947 H   0  0  0  0  0  0  0  0  0  0  0  0
    7.7927    7.9839   11.6111 H   0  0  0  0  0  0  0  0  0  0  0  0
    7.8263    9.7992   11.8086 H   0  0  0  0  0  0  0  0  0  0  0  0
    9.8020    9.3090   10.0140 H   0  0  0  0  0  0  0  0  0  0  0  0
    8.3394    9.5896    7.2935 H   0  0  0  0  0  0  0  0  0  0  0  0
   11.3275    7.8564    6.3800 H   0  0  0  0  0  0  0  0  0  0  0  0
   11.1186    5.4779    9.2016 H   0  0  0  0  0  0  0  0  0  0  0  0
   16.0010    6.1820   10.5990 H   0  0  0  0  0  0  0  0  0  0  0  0
   16.6110    7.7550   11.0150 H   0  0  0  0  0  0  0  0  0  0  0  0
   15.1510   10.3226    7.6909 H   0  0  0  0  0  0  0  0  0  0  0  0
    9.7171    5.9544    8.0759 H   0  0  0  0  0  0  0  0  0  0  0  0
   10.2580    4.8430    6.5180 H   0  0  0  0  0  0  0  0  0  0  0  0
    7.5895    6.9343    7.1454 H   0  0  0  0  0  0  0  0  0  0  0  0
    9.1460    7.1960    5.0850 H   0  0  0  0  0  0  0  0  0  0  0  0
   12.8100    6.6410    3.5490 H   0  0  0  0  0  0  0  0  0  0  0  0
   11.6210    6.2140    4.6880 H   0  0  0  0  0  0  0  0  0  0  0  0
  1  2  1  0
  2  3  2  0
  2  4  1  0
  4  5  1  0
  5  6  1  0
  6  7  1  0
  7  8  1  0
  8  9  1  0
  9 10  1  0
 10 11  2  0
 10 12  1  0
 12 13  1  0
 13 14  1  0
 14 15  1  0
 15 16  1  0
 16 17  1  0
 17 18  1  0
 17 19  2  0
 12 20  1  0
 20 21  1  0
 21 22  2  0
 21 23  1  0
 23 24  1  0
 24 25  1  0
 25 26  1  0
 26 27  1  0
 27 28  1  0
 28 29  1  0
 29 30  2  0
 29 31  1  0
 31 32  1  0
 32 33  1  0
 33 34  1  0
 34 35  1  0
 35 36  1  0
 31 37  1  0
 37 38  1  0
 38 39  2  0
 38 40  1  0
 40 41  1  0
 41 42  1  0
 42 43  1  0
 43 44  1  0
 44 45  1  0
 45 46  1  0
 46 47  2  0
 46 48  1  0
 48 49  1  0
 49 50  1  0
 50 51  1  0
 51 52  1  0
 52 53  2  0
 53 54  1  0
 54 55  2  0
 55 56  1  0
 55 57  1  0
 57 58  2  0
 58 59  1  0
 59 60  2  0
 50 61  1  0
 61 62  1  0
 61 63  1  0
 63 64  1  0
  8 65  1  0
 65 66  1  0
 65 67  2  0
 63 48  1  0
 60 51  1  0
 60 54  1  0
  1 68  1  0
  1 69  1  0
  3 70  1  0
  3 71  1  0
  4 72  1  0
  5 73  1  0
  5 74  1  0
  6 75  1  0
  6 76  1  0
  7 77  1  0
  7 78  1  0
  8 79  1  6
  9 80  1  0
 12 81  1  6
 13 82  1  0
 13 83  1  0
 14 84  1  0
 14 85  1  0
 15 86  1  0
 15 87  1  0
 16 88  1  0
 18 89  1  0
 18 90  1  0
 19 91  1  0
 19 92  1  0
 20 93  1  0
 23 94  1  0
 23 95  1  0
 24 96  1  0
 24 97  1  0
 25 98  1  0
 25 99  1  0
 26100  1  0
 26101  1  0
 27102  1  0
 27103  1  0
 28104  1  0
 31105  1  6
 32106  1  0
 32107  1  0
 33108  1  0
 33109  1  0
 34110  1  0
 34111  1  0
 35112  1  0
 35113  1  0
 36114  1  0
 36115  1  0
 36116  1  0
 37117  1  0
 40118  1  0
 40119  1  0
 41120  1  0
 41121  1  0
 42122  1  0
 42123  1  0
 43124  1  0
 43125  1  0
 44126  1  0
 44127  1  0
 45128  1  0
 48129  1  6
 50130  1  6
 52131  1  0
 56132  1  0
 56133  1  0
 58134  1  0
 61135  1  1
 62136  1  0
 63137  1  1
 64138  1  0
 66139  1  0
 66140  1  0
M  CHG  3   3   1  19   1  36   1
M  END
>  <meeko>  (1) 
{"is_sidechain": [false], "free_energy": -7.775, "intermolecular_energy": -23.229, "internal_energy": -7.226}

$$$$
3ag9_ligand
     RDKit          3D

140142  0  0  0  0  0  0  0  0999 V2000
   15.1180   14.1030    5.4540 N   0  0  0  0  0  0  0  0  0  0  0  0
   14.8530   12.8490    5.8320 C   0  0  0  0  0  0  0  0  0  0  0  0
   13.6700   12.3220    5.5080 N   0  0  0  0  0  0  0  0  0  0  0  0
   15.7790   12.1560    6.5250 N   0  0  0  0  0  0  0  0  0  0  0  0
   15.5980   10.7670    6.9660 C   0  0  0  0  0  0  0  0  0  0  0  0
   16.2380    9.7570    6.0070 C   0  0  0  0  0  0  0  0  0  0  0  0
   16.9030    8.5780    6.7300 C   0  0  0  0  0  0  0  0  0  0  0  0
   16.0390    7.3020    6.7320 C   0  0  1  0  0  0  0  0  0  0  0  0
   16.8890    6.1110    6.7380 N   0  0  0  0  0  0  0  0  0  0  0  0
   16.5030    5.0120    5.9880 C   0  0  0  0  0  0  0  0  0  0  0  0
   15.4540    4.9800    5.3510 O   0  0  0  0  0  0  0  0  0  0  0  0
   17.5240    3.8580    6.0010 C   0  0  1  0  0  0  0  0  0  0  0  0
   18.7050    4.1720    6.9330 C   0  0  0  0  0  0  0  0  0  0  0  0
   18.9600    3.1350    8.0380 C   0  0  0  0  0  0  0  0  0  0  0  0
   20.2550    3.3280    8.8250 C   0  0  0  0  0  0  0  0  0  0  0  0
   21.0830    2.1140    8.7850 N   0  0  0  0  0  0  0  0  0  0  0  0
   20.7900    0.9830    9.4500 C   0  0  0  0  0  0  0  0  0  0  0  0
   21.5820   -0.0850    9.2990 N   0  0  0  0  0  0  0  0  0  0  0  0
   19.7380    0.8790   10.2620 N   0  0  0  0  0  0  0  0  0  0  0  0
   16.8170    2.6690    6.4670 N   0  0  0  0  0  0  0  0  0  0  0  0
   16.3690    1.7080    5.5860 C   0  0  0  0  0  0  0  0  0  0  0  0
   16.4910    1.8230    4.3690 O   0  0  0  0  0  0  0  0  0  0  0  0
   15.6900    0.5400    6.2840 C   0  0  0  0  0  0  0  0  0  0  0  0
   15.2780    0.8680    7.7180 C   0  0  0  0  0  0  0  0  0  0  0  0
   13.8270    0.4880    8.0450 C   0  0  0  0  0  0  0  0  0  0  0  0
   12.8770    1.6920    8.1160 C   0  0  0  0  0  0  0  0  0  0  0  0
   13.5980    3.0040    8.4330 C   0  0  0  0  0  0  0  0  0  0  0  0
   13.5610    3.3440    9.8440 N   0  0  0  0  0  0  0  0  0  0  0  0
   14.7130    3.4150   10.5970 C   0  0  0  0  0  0  0  0  0  0  0  0
   15.8210    3.0400   10.1940 O   0  0  0  0  0  0  0  0  0  0  0  0
   14.5120    3.9060   12.0440 C   0  0  1  0  0  0  0  0  0  0  0  0
   14.0680    5.3860   12.0440 C   0  0  0  0  0  0  0  0  0  0  0  0
   12.6510    5.6760   12.5680 C   0  0  0  0  0  0  0  0  0  0  0  0
   12.1510    7.1080   12.3440 C   0  0  0  0  0  0  0  0  0  0  0  0
   12.7560    7.7470   11.0980 C   0  0  0  0  0  0  0  0  0  0  0  0
   13.8870    8.6270   11.4780 N   0  0  0  0  0  0  0  0  0  0  0  0
   13.5780    3.0020   12.7100 N   0  0  0  0  0  0  0  0  0  0  0  0
   13.9610    2.3370   13.8630 C   0  0  0  0  0  0  0  0  0  0  0  0
   15.0150    2.5690   14.4380 O   0  0  0  0  0  0  0  0  0  0  0  0
   12.9380    1.3110   14.3180 C   0  0  0  0  0  0  0  0  0  0  0  0
   11.5730    1.9070   14.6580 C   0  0  0  0  0  0  0  0  0  0  0  0
   11.6000    2.7930   15.9070 C   0  0  0  0  0  0  0  0  0  0  0  0
   10.9010    4.1310   15.6420 C   0  0  0  0  0  0  0  0  0  0  0  0
    9.9700    4.0880   14.4300 C   0  0  0  0  0  0  0  0  0  0  0  0
    9.0530    5.2100   14.3670 N   0  0  0  0  0  0  0  0  0  0  0  0
    7.7870    5.1370   14.9150 C   0  0  0  0  0  0  0  0  0  0  0  0
    7.3930    4.1880   15.5860 O   0  0  0  0  0  0  0  0  0  0  0  0
    6.9300    6.3870   14.6900 C   0  0  1  0  0  0  0  0  0  0  0  0
    7.6000    7.3410   13.8540 O   0  0  0  0  0  0  0  0  0  0  0  0
    6.9630    7.3420   12.5620 C   0  0  1  0  0  0  0  0  0  0  0  0
    7.9640    7.3200   11.5110 N   0  0  0  0  0  0  0  0  0  0  0  0
    8.4980    8.3810   10.8330 C   0  0  0  0  0  0  0  0  0  0  0  0
    9.3580    7.9930    9.9120 N   0  0  0  0  0  0  0  0  0  0  0  0
    9.3820    6.6160   10.0060 C   0  0  0  0  0  0  0  0  0  0  0  0
   10.0930    5.6280    9.3060 C   0  0  0  0  0  0  0  0  0  0  0  0
   10.9690    5.9100    8.2710 N   0  0  0  0  0  0  0  0  0  0  0  0
    9.9220    4.3360    9.6700 N   0  0  0  0  0  0  0  0  0  0  0  0
    9.0600    4.0550   10.6690 C   0  0  0  0  0  0  0  0  0  0  0  0
    8.3230    4.9120   11.4130 N   0  0  0  0  0  0  0  0  0  0  0  0
    8.5350    6.1800   11.0100 C   0  0  0  0  0  0  0  0  0  0  0  0
    6.0250    6.1320   12.5130 C   0  0  2  0  0  0  0  0  0  0  0  0
    4.8410    6.3340   11.7360 O   0  0  0  0  0  0  0  0  0  0  0  0
    5.6540    5.9650   13.9750 C   0  0  2  0  0  0  0  0  0  0  0  0
    4.5720    6.8470   14.3130 O   0  0  0  0  0  0  0  0  0  0  0  0
   15.1430    7.2720    8.0020 C   0  0  0  0  0  0  0  0  0  0  0  0
   13.8310    7.5990    7.8020 N   0  0  0  0  0  0  0  0  0  0  0  0
   15.5530    7.0190    9.1380 O   0  0  0  0  0  0  0  0  0  0  0  0
   15.9960   14.5580    5.6650 H   0  0  0  0  0  0  0  0  0  0  0  0
   14.4420   14.6450    4.9290 H   0  0  0  0  0  0  0  0  0  0  0  0
   13.4170   11.3770    5.7640 H   0  0  0  0  0  0  0  0  0  0  0  0
   12.9810   12.8450    4.9830 H   0  0  0  0  0  0  0  0  0  0  0  0
   16.6550   12.6270    6.7130 H   0  0  0  0  0  0  0  0  0  0  0  0
   16.0567   10.6498    7.9589 H   0  0  0  0  0  0  0  0  0  0  0  0
   14.5173   10.5635    6.9923 H   0  0  0  0  0  0  0  0  0  0  0  0
   15.4564    9.3632    5.3407 H   0  0  0  0  0  0  0  0  0  0  0  0
   17.0253   10.2866    5.4505 H   0  0  0  0  0  0  0  0  0  0  0  0
   17.8565    8.3538    6.2295 H   0  0  0  0  0  0  0  0  0  0  0  0
   17.0472    8.8769    7.7788 H   0  0  0  0  0  0  0  0  0  0  0  0
   15.4146    7.3078    5.8264 H   0  0  0  0  0  0  0  0  0  0  0  0
   17.9010    6.2470    6.7410 H   0  0  0  0  0  0  0  0  0  0  0  0
   17.9396    3.7057    4.9940 H   0  0  0  0  0  0  0  0  0  0  0  0
   19.6141    4.2444    6.3179 H   0  0  0  0  0  0  0  0  0  0  0  0
   18.4470    5.1093    7.4476 H   0  0  0  0  0  0  0  0  0  0  0  0
   18.1206    3.1804    8.7475 H   0  0  0  0  0  0  0  0  0  0  0  0
   19.0537    2.1640    7.5296 H   0  0  0  0  0  0  0  0  0  0  0  0
   20.8207    4.1636    8.3871 H   0  0  0  0  0  0  0  0  0  0  0  0
   19.9989    3.5426    9.8730 H   0  0  0  0  0  0  0  0  0  0  0  0
   21.9160    2.1070    8.2100 H   0  0  0  0  0  0  0  0  0  0  0  0
   22.3890   -0.0740    8.6870 H   0  0  0  0  0  0  0  0  0  0  0  0
   21.3900   -0.9540    9.7800 H   0  0  0  0  0  0  0  0  0  0  0  0
   19.5180    0.0250   10.7510 H   0  0  0  0  0  0  0  0  0  0  0  0
   19.1120    1.6690   10.4530 H   0  0  0  0  0  0  0  0  0  0  0  0
   16.4070    2.6940    7.3950 H   0  0  0  0  0  0  0  0  0  0  0  0
   14.7906    0.2642    5.7139 H   0  0  0  0  0  0  0  0  0  0  0  0
   16.4140   -0.2870    6.3275 H   0  0  0  0  0  0  0  0  0  0  0  0
   15.9429    0.3225    8.4038 H   0  0  0  0  0  0  0  0  0  0  0  0
   15.3589    1.9588    7.8344 H   0  0  0  0  0  0  0  0  0  0  0  0
   13.4627   -0.1968    7.2650 H   0  0  0  0  0  0  0  0  0  0  0  0
   13.8324    0.0224    9.0416 H   0  0  0  0  0  0  0  0  0  0  0  0
   12.3699    1.7962    7.1454 H   0  0  0  0  0  0  0  0  0  0  0  0
   12.1650    1.5019    8.9327 H   0  0  0  0  0  0  0  0  0  0  0  0
   14.6490    2.9106    8.1222 H   0  0  0  0  0  0  0  0  0  0  0  0
   13.0787    3.8055    7.8872 H   0  0  0  0  0  0  0  0  0  0  0  0
   12.7500    3.8510   10.1820 H   0  0  0  0  0  0  0  0  0  0  0  0
   15.4524    3.8820   12.6142 H   0  0  0  0  0  0  0  0  0  0  0  0
   14.7774    5.9480   12.6693 H   0  0  0  0  0  0  0  0  0  0  0  0
   14.0551    5.6867   10.9860 H   0  0  0  0  0  0  0  0  0  0  0  0
   11.9548    4.9899   12.0634 H   0  0  0  0  0  0  0  0  0  0  0  0
   12.6947    5.5356   13.6581 H   0  0  0  0  0  0  0  0  0  0  0  0
   11.0567    7.0870   12.2343 H   0  0  0  0  0  0  0  0  0  0  0  0
   12.4576    7.7099   13.2121 H   0  0  0  0  0  0  0  0  0  0  0  0
   13.1193    6.9576   10.4235 H   0  0  0  0  0  0  0  0  0  0  0  0
   11.9866    8.3468   10.5898 H   0  0  0  0  0  0  0  0  0  0  0  0
   14.8110    8.1480   11.4640 H   0  0  0  0  0  0  0  0  0  0  0  0
   13.9830    9.4150   10.8260 H   0  0  0  0  0  0  0  0  0  0  0  0
   13.7680    9.0200   12.4180 H   0  0  0  0  0  0  0  0  0  0  0  0
   12.9000    2.5250   12.1260 H   0  0  0  0  0  0  0  0  0  0  0  0
   12.8035    0.5749   13.5118 H   0  0  0  0  0  0  0  0  0  0  0  0
   13.3282    0.8588   15.2417 H   0  0  0  0  0  0  0  0  0  0  0  0
   11.2334    2.5135   13.8055 H   0  0  0  0  0  0  0  0  0  0  0  0
   10.8908    1.0691   14.8642 H   0  0  0  0  0  0  0  0  0  0  0  0
   11.0847    2.2737   16.7285 H   0  0  0  0  0  0  0  0  0  0  0  0
   12.6482    2.9906   16.1758 H   0  0  0  0  0  0  0  0  0  0  0  0
   10.3091    4.3992   16.5295 H   0  0  0  0  0  0  0  0  0  0  0  0
   11.6831    4.8750   15.4303 H   0  0  0  0  0  0  0  0  0  0  0  0
   10.5849    4.0888   13.5179 H   0  0  0  0  0  0  0  0  0  0  0  0
    9.3613    3.1763   14.5207 H   0  0  0  0  0  0  0  0  0  0  0  0
    9.2180    5.8990   13.6420 H   0  0  0  0  0  0  0  0  0  0  0  0
    6.7269    6.8490   15.6674 H   0  0  0  0  0  0  0  0  0  0  0  0
    6.3733    8.2567   12.4021 H   0  0  0  0  0  0  0  0  0  0  0  0
    8.2409    9.4318   11.0322 H   0  0  0  0  0  0  0  0  0  0  0  0
   11.0800    6.8990    8.0740 H   0  0  0  0  0  0  0  0  0  0  0  0
   11.7930    5.3260    8.2700 H   0  0  0  0  0  0  0  0  0  0  0  0
    8.9405    2.9885   10.9106 H   0  0  0  0  0  0  0  0  0  0  0  0
    6.5094    5.2669   12.0366 H   0  0  0  0  0  0  0  0  0  0  0  0
    4.7470    7.3070   11.6250 H   0  0  0  0  0  0  0  0  0  0  0  0
    5.3202    4.9501   14.2369 H   0  0  0  0  0  0  0  0  0  0  0  0
    4.3970    7.3590   13.4930 H   0  0  0  0  0  0  0  0  0  0  0  0
   13.4000    7.3840    6.9070 H   0  0  0  0  0  0  0  0  0  0  0  0
   13.2130    7.4700    8.5950 H   0  0  0  0  0  0  0  0  0  0  0  0
  1  2  1  0
  2  3  2  0
  2  4  1  0
  4  5  1  0
  5  6  1  0
  6  7  1  0
  7  8  1  0
  8  9  1  0
  9 10  1  0
 10 11  2  0
 10 12  1  0
 12 13  1  0
 13 14  1  0
 14 15  1  0
 15 16  1  0
 16 17  1  0
 17 18  1  0
 17 19  2  0
 12 20  1  0
 20 21  1  0
 21 22  2  0
 21 23  1  0
 23 24  1  0
 24 25  1  0
 25 26  1  0
 26 27  1  0
 27 28  1  0
 28 29  1  0
 29 30  2  0
 29 31  1  0
 31 32  1  0
 32 33  1  0
 33 34  1  0
 34 35  1  0
 35 36  1  0
 31 37  1  0
 37 38  1  0
 38 39  2  0
 38 40  1  0
 40 41  1  0
 41 42  1  0
 42 43  1  0
 43 44  1  0
 44 45  1  0
 45 46  1  0
 46 47  2  0
 46 48  1  0
 48 49  1  0
 49 50  1  0
 50 51  1  0
 51 52  1  0
 52 53  2  0
 53 54  1  0
 54 55  2  0
 55 56  1  0
 55 57  1  0
 57 58  2  0
 58 59  1  0
 59 60  2  0
 50 61  1  0
 61 62  1  0
 61 63  1  0
 63 64  1  0
  8 65  1  0
 65 66  1  0
 65 67  2  0
 63 48  1  0
 60 51  1  0
 60 54  1  0
  1 68  1  0
  1 69  1  0
  3 70  1  0
  3 71  1  0
  4 72  1  0
  5 73  1  0
  5 74  1  0
  6 75  1  0
  6 76  1  0
  7 77  1  0
  7 78  1  0
  8 79  1  6
  9 80  1  0
 12 81  1  6
 13 82  1  0
 13 83  1  0
 14 84  1  0
 14 85  1  0
 15 86  1  0
 15 87  1  0
 16 88  1  0
 18 89  1  0
 18 90  1  0
 19 91  1  0
 19 92  1  0
 20 93  1  0
 23 94  1  0
 23 95  1  0
 24 96  1  0
 24 97  1  0
 25 98  1  0
 25 99  1  0
 26100  1  0
 26101  1  0
 27102  1  0
 27103  1  0
 28104  1  0
 31105  1  1
 32106  1  0
 32107  1  0
 33108  1  0
 33109  1  0
 34110  1  0
 34111  1  0
 35112  1  0
 35113  1  0
 36114  1  0
 36115  1  0
 36116  1  0
 37117  1  0
 40118  1  0
 40119  1  0
 41120  1  0
 41121  1  0
 42122  1  0
 42123  1  0
 43124  1  0
 43125  1  0
 44126  1  0
 44127  1  0
 45128  1  0
 48129  1  1
 50130  1  6
 52131  1  0
 56132  1  0
 56133  1  0
 58134  1  0
 61135  1  6
 62136  1  0
 63137  1  6
 64138  1  0
 66139  1  0
 66140  1  0
M  CHG  3   3   1  19   1  36   1
M  END
>  <meeko>  (2) 
{"is_sidechain": [false], "free_energy": -7.464, "intermolecular_energy": -23.879, "internal_energy": -5.647}

$$$$
3ag9_ligand
     RDKit          3D

140142  0  0  0  0  0  0  0  0999 V2000
   15.8000    6.9160    9.1710 N   0  0  0  0  0  0  0  0  0  0  0  0
   16.6510    7.5130    8.3310 C   0  0  0  0  0  0  0  0  0  0  0  0
   17.9610    7.3480    8.5260 N   0  0  0  0  0  0  0  0  0  0  0  0
   16.1670    8.2600    7.3190 N   0  0  0  0  0  0  0  0  0  0  0  0
   17.0130    8.9370    6.3260 C   0  0  0  0  0  0  0  0  0  0  0  0
   16.6680    8.5380    4.8880 C   0  0  0  0  0  0  0  0  0  0  0  0
   15.1670    8.2970    4.6740 C   0  0  0  0  0  0  0  0  0  0  0  0
   14.8180    6.8160    4.4280 C   0  0  1  0  0  0  0  0  0  0  0  0
   15.9840    5.9690    4.6800 N   0  0  0  0  0  0  0  0  0  0  0  0
   16.3450    5.0310    3.7260 C   0  0  0  0  0  0  0  0  0  0  0  0
   15.7010    4.8510    2.6970 O   0  0  0  0  0  0  0  0  0  0  0  0
   17.6400    4.2670    4.0620 C   0  0  1  0  0  0  0  0  0  0  0  0
   18.4500    4.9970    5.1460 C   0  0  0  0  0  0  0  0  0  0  0  0
   19.5820    4.1740    5.7810 C   0  0  0  0  0  0  0  0  0  0  0  0
   19.9200    4.5390    7.2250 C   0  0  0  0  0  0  0  0  0  0  0  0
   19.0900    3.7790    8.1710 N   0  0  0  0  0  0  0  0  0  0  0  0
   19.5550    2.7820    8.9450 C   0  0  0  0  0  0  0  0  0  0  0  0
   18.7260    2.1930    9.8130 N   0  0  0  0  0  0  0  0  0  0  0  0
   20.8140    2.3510    8.8810 N   0  0  0  0  0  0  0  0  0  0  0  0
   17.2440    2.9440    4.5350 N   0  0  0  0  0  0  0  0  0  0  0  0
   16.5520    2.7800    5.7160 C   0  0  0  0  0  0  0  0  0  0  0  0
   16.2800    3.7220    6.4550 O   0  0  0  0  0  0  0  0  0  0  0  0
   16.2110    1.3260    6.0020 C   0  0  0  0  0  0  0  0  0  0  0  0
   15.8700    1.0770    7.4710 C   0  0  0  0  0  0  0  0  0  0  0  0
   14.6310    0.1930    7.6750 C   0  0  0  0  0  0  0  0  0  0  0  0
   13.4390    0.9370    8.2900 C   0  0  0  0  0  0  0  0  0  0  0  0
   13.7060    2.4310    8.4920 C   0  0  0  0  0  0  0  0  0  0  0  0
   13.9960    2.7720    9.8730 N   0  0  0  0  0  0  0  0  0  0  0  0
   13.7770    4.0430   10.3600 C   0  0  0  0  0  0  0  0  0  0  0  0
   13.4890    5.0120    9.6480 O   0  0  0  0  0  0  0  0  0  0  0  0
   14.0190    4.2070   11.8740 C   0  0  1  0  0  0  0  0  0  0  0  0
   13.6820    5.6500   12.3100 C   0  0  0  0  0  0  0  0  0  0  0  0
   12.2030    5.9450   12.6160 C   0  0  0  0  0  0  0  0  0  0  0  0
   11.7690    7.4000   12.4040 C   0  0  0  0  0  0  0  0  0  0  0  0
   12.3040    7.9820   11.1000 C   0  0  0  0  0  0  0  0  0  0  0  0
   13.5080    8.8060   11.3680 N   0  0  0  0  0  0  0  0  0  0  0  0
   13.2570    3.1770   12.5750 N   0  0  0  0  0  0  0  0  0  0  0  0
   13.8300    2.4910   13.6330 C   0  0  0  0  0  0  0  0  0  0  0  0
   14.9150    2.7960   14.1060 O   0  0  0  0  0  0  0  0  0  0  0  0
   12.9670    1.3430   14.1260 C   0  0  0  0  0  0  0  0  0  0  0  0
   11.6520    1.7870   14.7650 C   0  0  0  0  0  0  0  0  0  0  0  0
   11.8540    2.6060   16.0440 C   0  0  0  0  0  0  0  0  0  0  0  0
   10.9630    3.8530   16.0390 C   0  0  0  0  0  0  0  0  0  0  0  0
    9.7060    3.6850   15.1840 C   0  0  0  0  0  0  0  0  0  0  0  0
    9.2010    4.9350   14.6480 N   0  0  0  0  0  0  0  0  0  0  0  0
    7.9450    5.4060   14.9800 C   0  0  0  0  0  0  0  0  0  0  0  0
    7.2270    4.8800   15.8250 O   0  0  0  0  0  0  0  0  0  0  0  0
    7.5490    6.7000   14.2650 C   0  0  1  0  0  0  0  0  0  0  0  0
    8.4020    6.9630   13.1420 O   0  0  0  0  0  0  0  0  0  0  0  0
    7.6560    6.7150   11.9350 C   0  0  1  0  0  0  0  0  0  0  0  0
    8.4570    5.9440   11.0020 N   0  0  0  0  0  0  0  0  0  0  0  0
    8.7800    4.6170   11.0640 C   0  0  0  0  0  0  0  0  0  0  0  0
    9.5590    4.2530   10.0650 N   0  0  0  0  0  0  0  0  0  0  0  0
    9.7430    5.4010    9.3220 C   0  0  0  0  0  0  0  0  0  0  0  0
   10.4630    5.6680    8.1460 C   0  0  0  0  0  0  0  0  0  0  0  0
   11.2140    4.7120    7.4810 N   0  0  0  0  0  0  0  0  0  0  0  0
   10.4120    6.9180    7.6310 N   0  0  0  0  0  0  0  0  0  0  0  0
    9.6930    7.8550    8.2830 C   0  0  0  0  0  0  0  0  0  0  0  0
    8.9620    7.7220    9.4150 N   0  0  0  0  0  0  0  0  0  0  0  0
    9.0480    6.4610    9.8790 C   0  0  0  0  0  0  0  0  0  0  0  0
    6.3610    6.0020   12.3350 C   0  0  2  0  0  0  0  0  0  0  0  0
    5.2350    6.3140   11.5100 O   0  0  0  0  0  0  0  0  0  0  0  0
    6.1300    6.5360   13.7370 C   0  0  2  0  0  0  0  0  0  0  0  0
    5.4640    7.8070   13.6770 O   0  0  0  0  0  0  0  0  0  0  0  0
   13.6760    6.3770    5.3870 C   0  0  0  0  0  0  0  0  0  0  0  0
   12.9330    7.3940    5.9190 N   0  0  0  0  0  0  0  0  0  0  0  0
   13.4470    5.2080    5.7080 O   0  0  0  0  0  0  0  0  0  0  0  0
   14.7970    6.9990    9.0760 H   0  0  0  0  0  0  0  0  0  0  0  0
   16.1360    6.3450    9.9380 H   0  0  0  0  0  0  0  0  0  0  0  0
   18.6500    7.7710    7.9200 H   0  0  0  0  0  0  0  0  0  0  0  0
   18.3180    6.7800    9.2850 H   0  0  0  0  0  0  0  0  0  0  0  0
   15.1600    8.3180    7.2340 H   0  0  0  0  0  0  0  0  0  0  0  0
   16.8794   10.0237    6.4317 H   0  0  0  0  0  0  0  0  0  0  0  0
   18.0540    8.6358    6.5146 H   0  0  0  0  0  0  0  0  0  0  0  0
   16.9929    9.3439    4.2135 H   0  0  0  0  0  0  0  0  0  0  0  0
   17.1858    7.5907    4.6770 H   0  0  0  0  0  0  0  0  0  0  0  0
   14.6270    8.6392    5.5691 H   0  0  0  0  0  0  0  0  0  0  0  0
   14.8716    8.8560    3.7738 H   0  0  0  0  0  0  0  0  0  0  0  0
   14.4993    6.7062    3.3809 H   0  0  0  0  0  0  0  0  0  0  0  0
   16.7920    6.3930    5.1370 H   0  0  0  0  0  0  0  0  0  0  0  0
   18.2822    4.1964    3.1717 H   0  0  0  0  0  0  0  0  0  0  0  0
   18.8950    5.8946    4.6919 H   0  0  0  0  0  0  0  0  0  0  0  0
   17.7423    5.2208    5.9578 H   0  0  0  0  0  0  0  0  0  0  0  0
   19.2868    3.1146    5.7579 H   0  0  0  0  0  0  0  0  0  0  0  0
   20.4851    4.3913    5.1917 H   0  0  0  0  0  0  0  0  0  0  0  0
   20.9796    4.3124    7.4143 H   0  0  0  0  0  0  0  0  0  0  0  0
   19.7222    5.6113    7.3699 H   0  0  0  0  0  0  0  0  0  0  0  0
   18.1130    4.0220    8.2710 H   0  0  0  0  0  0  0  0  0  0  0  0
   17.7610    2.4830    9.9190 H   0  0  0  0  0  0  0  0  0  0  0  0
   19.0410    1.4430   10.4150 H   0  0  0  0  0  0  0  0  0  0  0  0
   21.1590    1.6090    9.4710 H   0  0  0  0  0  0  0  0  0  0  0  0
   21.4910    2.7310    8.2110 H   0  0  0  0  0  0  0  0  0  0  0  0
   17.7240    2.1380    4.1480 H   0  0  0  0  0  0  0  0  0  0  0  0
   15.3452    1.0402    5.3866 H   0  0  0  0  0  0  0  0  0  0  0  0
   17.0990    0.7233    5.7607 H   0  0  0  0  0  0  0  0  0  0  0  0
   16.7302    0.5852    7.9488 H   0  0  0  0  0  0  0  0  0  0  0  0
   15.6443    2.0558    7.9194 H   0  0  0  0  0  0  0  0  0  0  0  0
   14.3243   -0.2065    6.6971 H   0  0  0  0  0  0  0  0  0  0  0  0
   14.9146   -0.6009    8.3817 H   0  0  0  0  0  0  0  0  0  0  0  0
   12.5723    0.8229    7.6223 H   0  0  0  0  0  0  0  0  0  0  0  0
   13.2538    0.4988    9.2818 H   0  0  0  0  0  0  0  0  0  0  0  0
   14.5664    2.7208    7.8709 H   0  0  0  0  0  0  0  0  0  0  0  0
   12.7922    2.9713    8.2038 H   0  0  0  0  0  0  0  0  0  0  0  0
   14.0300    2.0130   10.5450 H   0  0  0  0  0  0  0  0  0  0  0  0
   15.0781    4.0622   12.1333 H   0  0  0  0  0  0  0  0  0  0  0  0
   14.2618    5.8690   13.2188 H   0  0  0  0  0  0  0  0  0  0  0  0
   13.9331    6.2824   11.4457 H   0  0  0  0  0  0  0  0  0  0  0  0
   11.5872    5.3080   11.9640 H   0  0  0  0  0  0  0  0  0  0  0  0
   12.0667    5.7395   13.6880 H   0  0  0  0  0  0  0  0  0  0  0  0
   10.6700    7.4416   12.3848 H   0  0  0  0  0  0  0  0  0  0  0  0
   12.1805    7.9967   13.2314 H   0  0  0  0  0  0  0  0  0  0  0  0
   12.5688    7.1617   10.4166 H   0  0  0  0  0  0  0  0  0  0  0  0
   11.5288    8.6139   10.6419 H   0  0  0  0  0  0  0  0  0  0  0  0
   13.6710    8.9890   12.3800 H   0  0  0  0  0  0  0  0  0  0  0  0
   14.3610    8.3400   11.0380 H   0  0  0  0  0  0  0  0  0  0  0  0
   13.4590    9.7190   10.9030 H   0  0  0  0  0  0  0  0  0  0  0  0
   12.5650    2.6660   12.0370 H   0  0  0  0  0  0  0  0  0  0  0  0
   12.7339    0.6926   13.2701 H   0  0  0  0  0  0  0  0  0  0  0  0
   13.5421    0.8237   14.9068 H   0  0  0  0  0  0  0  0  0  0  0  0
   11.0995    2.4015   14.0390 H   0  0  0  0  0  0  0  0  0  0  0  0
   11.0970    0.8782   15.0407 H   0  0  0  0  0  0  0  0  0  0  0  0
   11.5986    1.9839   16.9145 H   0  0  0  0  0  0  0  0  0  0  0  0
   12.9056    2.9246   16.0959 H   0  0  0  0  0  0  0  0  0  0  0  0
   10.6573    4.0697   17.0732 H   0  0  0  0  0  0  0  0  0  0  0  0
   11.5498    4.6754   15.6038 H   0  0  0  0  0  0  0  0  0  0  0  0
    9.9431    3.0160   14.3436 H   0  0  0  0  0  0  0  0  0  0  0  0
    8.9227    3.2722   15.8368 H   0  0  0  0  0  0  0  0  0  0  0  0
    9.6240    5.2730   13.7920 H   0  0  0  0  0  0  0  0  0  0  0  0
    7.6337    7.5314   14.9803 H   0  0  0  0  0  0  0  0  0  0  0  0
    7.4014    7.6513   11.4169 H   0  0  0  0  0  0  0  0  0  0  0  0
    8.4314    3.9347   11.8532 H   0  0  0  0  0  0  0  0  0  0  0  0
   11.0290    4.6530    6.4850 H   0  0  0  0  0  0  0  0  0  0  0  0
   12.1730    4.6640    7.7930 H   0  0  0  0  0  0  0  0  0  0  0  0
    9.7018    8.8600    7.8359 H   0  0  0  0  0  0  0  0  0  0  0  0
    6.4599    4.9102   12.2447 H   0  0  0  0  0  0  0  0  0  0  0  0
    5.1540    5.5750   10.8650 H   0  0  0  0  0  0  0  0  0  0  0  0
    5.5015    5.8865   14.3640 H   0  0  0  0  0  0  0  0  0  0  0  0
    4.6940    7.6610   13.0850 H   0  0  0  0  0  0  0  0  0  0  0  0
   12.8040    8.2440    5.3790 H   0  0  0  0  0  0  0  0  0  0  0  0
   12.1140    7.1180    6.4500 H   0  0  0  0  0  0  0  0  0  0  0  0
  1  2  1  0
  2  3  2  0
  2  4  1  0
  4  5  1  0
  5  6  1  0
  6  7  1  0
  7  8  1  0
  8  9  1  0
  9 10  1  0
 10 11  2  0
 10 12  1  0
 12 13  1  0
 13 14  1  0
 14 15  1  0
 15 16  1  0
 16 17  1  0
 17 18  1  0
 17 19  2  0
 12 20  1  0
 20 21  1  0
 21 22  2  0
 21 23  1  0
 23 24  1  0
 24 25  1  0
 25 26  1  0
 26 27  1  0
 27 28  1  0
 28 29  1  0
 29 30  2  0
 29 31  1  0
 31 32  1  0
 32 33  1  0
 33 34  1  0
 34 35  1  0
 35 36  1  0
 31 37  1  0
 37 38  1  0
 38 39  2  0
 38 40  1  0
 40 41  1  0
 41 42  1  0
 42 43  1  0
 43 44  1  0
 44 45  1  0
 45 46  1  0
 46 47  2  0
 46 48  1  0
 48 49  1  0
 49 50  1  0
 50 51  1  0
 51 52  1  0
 52 53  2  0
 53 54  1  0
 54 55  2  0
 55 56  1  0
 55 57  1  0
 57 58  2  0
 58 59  1  0
 59 60  2  0
 50 61  1  0
 61 62  1  0
 61 63  1  0
 63 64  1  0
  8 65  1  0
 65 66  1  0
 65 67  2  0
 63 48  1  0
 60 51  1  0
 60 54  1  0
  1 68  1  0
  1 69  1  0
  3 70  1  0
  3 71  1  0
  4 72  1  0
  5 73  1  0
  5 74  1  0
  6 75  1  0
  6 76  1  0
  7 77  1  0
  7 78  1  0
  8 79  1  6
  9 80  1  0
 12 81  1  6
 13 82  1  0
 13 83  1  0
 14 84  1  0
 14 85  1  0
 15 86  1  0
 15 87  1  0
 16 88  1  0
 18 89  1  0
 18 90  1  0
 19 91  1  0
 19 92  1  0
 20 93  1  0
 23 94  1  0
 23 95  1  0
 24 96  1  0
 24 97  1  0
 25 98  1  0
 25 99  1  0
 26100  1  0
 26101  1  0
 27102  1  0
 27103  1  0
 28104  1  0
 31105  1  6
 32106  1  0
 32107  1  0
 33108  1  0
 33109  1  0
 34110  1  0
 34111  1  0
 35112  1  0
 35113  1  0
 36114  1  0
 36115  1  0
 36116  1  0
 37117  1  0
 40118  1  0
 40119  1  0
 41120  1  0
 41121  1  0
 42122  1  0
 42123  1  0
 43124  1  0
 43125  1  0
 44126  1  0
 44127  1  0
 45128  1  0
 48129  1  1
 50130  1  6
 52131  1  0
 56132  1  0
 56133  1  0
 58134  1  0
 61135  1  1
 62136  1  0
 63137  1  1
 64138  1  0
 66139  1  0
 66140  1  0
M  CHG  3   3   1  19   1  36   1
M  END
>  <meeko>  (3) 
{"is_sidechain": [false], "free_energy": -7.379, "intermolecular_energy": -21.999, "internal_energy": -7.273}

$$$$
3ag9_ligand
     RDKit          3D

140142  0  0  0  0  0  0  0  0999 V2000
   18.8610    7.7430    9.2360 N   0  0  0  0  0  0  0  0  0  0  0  0
   19.5060    7.1500    8.2260 C   0  0  0  0  0  0  0  0  0  0  0  0
   20.0910    7.9190    7.3060 N   0  0  0  0  0  0  0  0  0  0  0  0
   19.5450    5.8050    8.1640 N   0  0  0  0  0  0  0  0  0  0  0  0
   20.2450    5.0560    7.1120 C   0  0  0  0  0  0  0  0  0  0  0  0
   19.2970    4.1930    6.2730 C   0  0  0  0  0  0  0  0  0  0  0  0
   18.1940    5.0060    5.5830 C   0  0  0  0  0  0  0  0  0  0  0  0
   17.2450    4.1420    4.7310 C   0  0  1  0  0  0  0  0  0  0  0  0
   16.2500    3.4880    5.5810 N   0  0  0  0  0  0  0  0  0  0  0  0
   15.9520    2.1540    5.3530 C   0  0  0  0  0  0  0  0  0  0  0  0
   16.4570    1.5090    4.4390 O   0  0  0  0  0  0  0  0  0  0  0  0
   14.9620    1.5550    6.3700 C   0  0  1  0  0  0  0  0  0  0  0  0
   15.6940    0.7190    7.4330 C   0  0  0  0  0  0  0  0  0  0  0  0
   15.9970    1.4540    8.7470 C   0  0  0  0  0  0  0  0  0  0  0  0
   17.4030    2.0430    8.8540 C   0  0  0  0  0  0  0  0  0  0  0  0
   18.3630    1.0350    9.3280 N   0  0  0  0  0  0  0  0  0  0  0  0
   19.6280    1.3140    9.6890 C   0  0  0  0  0  0  0  0  0  0  0  0
   20.4020    0.3300   10.1600 N   0  0  0  0  0  0  0  0  0  0  0  0
   20.1480    2.5380    9.5940 N   0  0  0  0  0  0  0  0  0  0  0  0
   14.2670    2.6730    7.0000 N   0  0  0  0  0  0  0  0  0  0  0  0
   12.9200    2.6130    7.2860 C   0  0  0  0  0  0  0  0  0  0  0  0
   12.2250    1.6470    6.9830 O   0  0  0  0  0  0  0  0  0  0  0  0
   12.4070    3.8710    7.9700 C   0  0  0  0  0  0  0  0  0  0  0  0
   11.0630    3.6590    8.6650 C   0  0  0  0  0  0  0  0  0  0  0  0
   10.9670    4.3310   10.0420 C   0  0  0  0  0  0  0  0  0  0  0  0
    9.9960    5.5180   10.0810 C   0  0  0  0  0  0  0  0  0  0  0  0
    8.6570    5.1740   10.7390 C   0  0  0  0  0  0  0  0  0  0  0  0
    8.7980    4.7440   12.1180 N   0  0  0  0  0  0  0  0  0  0  0  0
    9.1120    5.6360   13.1200 C   0  0  0  0  0  0  0  0  0  0  0  0
    9.4600    6.8050   12.9150 O   0  0  0  0  0  0  0  0  0  0  0  0
    9.1030    5.0410   14.5430 C   0  0  1  0  0  0  0  0  0  0  0  0
    7.6760    5.1020   15.1330 C   0  0  0  0  0  0  0  0  0  0  0  0
    6.7930    6.2720   14.6680 C   0  0  0  0  0  0  0  0  0  0  0  0
    5.5580    5.8740   13.8480 C   0  0  0  0  0  0  0  0  0  0  0  0
    4.2890    6.5630   14.3380 C   0  0  0  0  0  0  0  0  0  0  0  0
    4.5880    7.3840   15.5370 N   0  0  0  0  0  0  0  0  0  0  0  0
    9.6680    3.6960   14.4810 N   0  0  0  0  0  0  0  0  0  0  0  0
   10.7670    3.3690   15.2580 C   0  0  0  0  0  0  0  0  0  0  0  0
   11.2200    4.1230   16.1080 O   0  0  0  0  0  0  0  0  0  0  0  0
   11.3260    1.9940   14.9390 C   0  0  0  0  0  0  0  0  0  0  0  0
   12.8490    1.9100   15.0250 C   0  0  0  0  0  0  0  0  0  0  0  0
   13.5310    1.9380   13.6530 C   0  0  0  0  0  0  0  0  0  0  0  0
   13.2300    3.2500   12.9210 C   0  0  0  0  0  0  0  0  0  0  0  0
   14.2590    3.5790   11.8390 C   0  0  0  0  0  0  0  0  0  0  0  0
   14.3500    4.9950   11.5390 N   0  0  0  0  0  0  0  0  0  0  0  0
   14.9100    5.4480   10.3610 C   0  0  0  0  0  0  0  0  0  0  0  0
   15.2550    4.7060    9.4460 O   0  0  0  0  0  0  0  0  0  0  0  0
   14.9890    6.9730   10.2460 C   0  0  1  0  0  0  0  0  0  0  0  0
   15.1320    7.3910    8.8810 O   0  0  0  0  0  0  0  0  0  0  0  0
   13.8870    7.9730    8.4500 C   0  0  1  0  0  0  0  0  0  0  0  0
   13.5270    7.4680    7.1370 N   0  0  0  0  0  0  0  0  0  0  0  0
   14.1270    6.4660    6.4260 C   0  0  0  0  0  0  0  0  0  0  0  0
   13.5610    6.2930    5.2480 N   0  0  0  0  0  0  0  0  0  0  0  0
   12.5460    7.2260    5.2010 C   0  0  0  0  0  0  0  0  0  0  0  0
   11.5880    7.5420    4.2230 C   0  0  0  0  0  0  0  0  0  0  0  0
   11.5200    6.9070    2.9930 N   0  0  0  0  0  0  0  0  0  0  0  0
   10.6800    8.5060    4.5010 N   0  0  0  0  0  0  0  0  0  0  0  0
   10.7520    9.1360    5.6920 C   0  0  0  0  0  0  0  0  0  0  0  0
   11.6210    8.9230    6.7080 N   0  0  0  0  0  0  0  0  0  0  0  0
   12.4960    7.9540    6.3770 C   0  0  0  0  0  0  0  0  0  0  0  0
   12.8370    7.6520    9.5180 C   0  0  2  0  0  0  0  0  0  0  0  0
   11.8380    8.6610    9.6870 O   0  0  0  0  0  0  0  0  0  0  0  0
   13.6850    7.5580   10.7720 C   0  0  2  0  0  0  0  0  0  0  0  0
   13.9050    8.8670   11.3190 O   0  0  0  0  0  0  0  0  0  0  0  0
   16.4980    5.0360    3.7010 C   0  0  0  0  0  0  0  0  0  0  0  0
   16.5840    6.3820    3.9220 N   0  0  0  0  0  0  0  0  0  0  0  0
   15.8290    4.6030    2.7600 O   0  0  0  0  0  0  0  0  0  0  0  0
   18.4000    7.2170    9.9670 H   0  0  0  0  0  0  0  0  0  0  0  0
   18.8200    8.7530    9.3110 H   0  0  0  0  0  0  0  0  0  0  0  0
   20.5960    7.5270    6.5230 H   0  0  0  0  0  0  0  0  0  0  0  0
   20.0630    8.9300    7.3610 H   0  0  0  0  0  0  0  0  0  0  0  0
   19.0880    5.3000    8.9130 H   0  0  0  0  0  0  0  0  0  0  0  0
   20.7512    5.7716    6.4474 H   0  0  0  0  0  0  0  0  0  0  0  0
   20.9619    4.3820    7.6037 H   0  0  0  0  0  0  0  0  0  0  0  0
   19.8855    3.6758    5.5009 H   0  0  0  0  0  0  0  0  0  0  0  0
   18.8042    3.4869    6.9576 H   0  0  0  0  0  0  0  0  0  0  0  0
   17.6016    5.5176    6.3558 H   0  0  0  0  0  0  0  0  0  0  0  0
   18.6882    5.7157    4.9032 H   0  0  0  0  0  0  0  0  0  0  0  0
   17.8459    3.3818    4.2103 H   0  0  0  0  0  0  0  0  0  0  0  0
   16.2390    3.7270    6.5740 H   0  0  0  0  0  0  0  0  0  0  0  0
   14.2555    0.8828    5.8611 H   0  0  0  0  0  0  0  0  0  0  0  0
   15.0692   -0.1553    7.6682 H   0  0  0  0  0  0  0  0  0  0  0  0
   16.6695    0.4570    6.9974 H   0  0  0  0  0  0  0  0  0  0  0  0
   15.2745    2.2769    8.8510 H   0  0  0  0  0  0  0  0  0  0  0  0
   15.9209    0.6991    9.5435 H   0  0  0  0  0  0  0  0  0  0  0  0
   17.7186    2.4023    7.8634 H   0  0  0  0  0  0  0  0  0  0  0  0
   17.3810    2.8723    9.5763 H   0  0  0  0  0  0  0  0  0  0  0  0
   18.0620    0.0730    9.4110 H   0  0  0  0  0  0  0  0  0  0  0  0
   20.0610   -0.6170   10.2680 H   0  0  0  0  0  0  0  0  0  0  0  0
   21.3570    0.5040   10.4460 H   0  0  0  0  0  0  0  0  0  0  0  0
   21.0950    2.7420    9.8760 H   0  0  0  0  0  0  0  0  0  0  0  0
   19.6230    3.3290    9.2060 H   0  0  0  0  0  0  0  0  0  0  0  0
   14.7060    3.5870    6.9600 H   0  0  0  0  0  0  0  0  0  0  0  0
   13.1451    4.1889    8.7211 H   0  0  0  0  0  0  0  0  0  0  0  0
   12.2617    4.6357    7.1927 H   0  0  0  0  0  0  0  0  0  0  0  0
   10.2709    4.0703    8.0220 H   0  0  0  0  0  0  0  0  0  0  0  0
   10.9524    2.5767    8.8273 H   0  0  0  0  0  0  0  0  0  0  0  0
   10.6285    3.5809   10.7719 H   0  0  0  0  0  0  0  0  0  0  0  0
   11.9665    4.7246   10.2787 H   0  0  0  0  0  0  0  0  0  0  0  0
   10.4650    6.3361   10.6474 H   0  0  0  0  0  0  0  0  0  0  0  0
    9.7868    5.8064    9.0403 H   0  0  0  0  0  0  0  0  0  0  0  0
    8.0143    6.0664   10.7138 H   0  0  0  0  0  0  0  0  0  0  0  0
    8.2185    4.3369   10.1760 H   0  0  0  0  0  0  0  0  0  0  0  0
    8.3390    3.8800   12.3880 H   0  0  0  0  0  0  0  0  0  0  0  0
    9.7296    5.6266   15.2318 H   0  0  0  0  0  0  0  0  0  0  0  0
    7.1623    4.1674   14.8635 H   0  0  0  0  0  0  0  0  0  0  0  0
    7.8131    5.2513   16.2142 H   0  0  0  0  0  0  0  0  0  0  0  0
    6.4482    6.8138   15.5611 H   0  0  0  0  0  0  0  0  0  0  0  0
    7.4199    6.8802   13.9994 H   0  0  0  0  0  0  0  0  0  0  0  0
    5.7273    6.1511   12.7970 H   0  0  0  0  0  0  0  0  0  0  0  0
    5.4157    4.7891   13.9605 H   0  0  0  0  0  0  0  0  0  0  0  0
    3.8958    7.2115   13.5413 H   0  0  0  0  0  0  0  0  0  0  0  0
    3.5419    5.7995   14.6004 H   0  0  0  0  0  0  0  0  0  0  0  0
    4.1860    6.9990   16.4170 H   0  0  0  0  0  0  0  0  0  0  0  0
    5.5980    7.4440   15.7070 H   0  0  0  0  0  0  0  0  0  0  0  0
    4.2360    8.3430   15.4420 H   0  0  0  0  0  0  0  0  0  0  0  0
    9.5830    3.1970   13.6010 H   0  0  0  0  0  0  0  0  0  0  0  0
   10.8985    1.2726   15.6509 H   0  0  0  0  0  0  0  0  0  0  0  0
   11.0522    1.7717   13.8971 H   0  0  0  0  0  0  0  0  0  0  0  0
   13.2140    2.7637   15.6149 H   0  0  0  0  0  0  0  0  0  0  0  0
   13.0984    0.9476   15.4957 H   0  0  0  0  0  0  0  0  0  0  0  0
   14.6184    1.8425   13.7890 H   0  0  0  0  0  0  0  0  0  0  0  0
   13.1449    1.1023   13.0508 H   0  0  0  0  0  0  0  0  0  0  0  0
   12.2393    3.1694   12.4499 H   0  0  0  0  0  0  0  0  0  0  0  0
   13.2653    4.0585   13.6660 H   0  0  0  0  0  0  0  0  0  0  0  0
   15.2455    3.2310   12.1793 H   0  0  0  0  0  0  0  0  0  0  0  0
   13.9333    3.0733   10.9180 H   0  0  0  0  0  0  0  0  0  0  0  0
   14.3130    5.6340   12.3250 H   0  0  0  0  0  0  0  0  0  0  0  0
   15.8617    7.3190   10.8193 H   0  0  0  0  0  0  0  0  0  0  0  0
   13.9654    9.0652    8.3452 H   0  0  0  0  0  0  0  0  0  0  0  0
   14.9794    5.8753    6.7928 H   0  0  0  0  0  0  0  0  0  0  0  0
   11.7770    5.9260    3.0130 H   0  0  0  0  0  0  0  0  0  0  0  0
   10.7180    7.1810    2.4430 H   0  0  0  0  0  0  0  0  0  0  0  0
   10.0062    9.9270    5.8595 H   0  0  0  0  0  0  0  0  0  0  0  0
   12.2611    6.7520    9.2567 H   0  0  0  0  0  0  0  0  0  0  0  0
   12.3210    9.5110    9.8010 H   0  0  0  0  0  0  0  0  0  0  0  0
   13.2282    6.9600   11.5744 H   0  0  0  0  0  0  0  0  0  0  0  0
   13.2070    9.4300   10.9150 H   0  0  0  0  0  0  0  0  0  0  0  0
   17.4180    6.7570    4.3650 H   0  0  0  0  0  0  0  0  0  0  0  0
   16.2030    6.9790    3.1960 H   0  0  0  0  0  0  0  0  0  0  0  0
  1  2  1  0
  2  3  2  0
  2  4  1  0
  4  5  1  0
  5  6  1  0
  6  7  1  0
  7  8  1  0
  8  9  1  0
  9 10  1  0
 10 11  2  0
 10 12  1  0
 12 13  1  0
 13 14  1  0
 14 15  1  0
 15 16  1  0
 16 17  1  0
 17 18  1  0
 17 19  2  0
 12 20  1  0
 20 21  1  0
 21 22  2  0
 21 23  1  0
 23 24  1  0
 24 25  1  0
 25 26  1  0
 26 27  1  0
 27 28  1  0
 28 29  1  0
 29 30  2  0
 29 31  1  0
 31 32  1  0
 32 33  1  0
 33 34  1  0
 34 35  1  0
 35 36  1  0
 31 37  1  0
 37 38  1  0
 38 39  2  0
 38 40  1  0
 40 41  1  0
 41 42  1  0
 42 43  1  0
 43 44  1  0
 44 45  1  0
 45 46  1  0
 46 47  2  0
 46 48  1  0
 48 49  1  0
 49 50  1  0
 50 51  1  0
 51 52  1  0
 52 53  2  0
 53 54  1  0
 54 55  2  0
 55 56  1  0
 55 57  1  0
 57 58  2  0
 58 59  1  0
 59 60  2  0
 50 61  1  0
 61 62  1  0
 61 63  1  0
 63 64  1  0
  8 65  1  0
 65 66  1  0
 65 67  2  0
 63 48  1  0
 60 51  1  0
 60 54  1  0
  1 68  1  0
  1 69  1  0
  3 70  1  0
  3 71  1  0
  4 72  1  0
  5 73  1  0
  5 74  1  0
  6 75  1  0
  6 76  1  0
  7 77  1  0
  7 78  1  0
  8 79  1  6
  9 80  1  0
 12 81  1  6
 13 82  1  0
 13 83  1  0
 14 84  1  0
 14 85  1  0
 15 86  1  0
 15 87  1  0
 16 88  1  0
 18 89  1  0
 18 90  1  0
 19 91  1  0
 19 92  1  0
 20 93  1  0
 23 94  1  0
 23 95  1  0
 24 96  1  0
 24 97  1  0
 25 98  1  0
 25 99  1  0
 26100  1  0
 26101  1  0
 27102  1  0
 27103  1  0
 28104  1  0
 31105  1  1
 32106  1  0
 32107  1  0
 33108  1  0
 33109  1  0
 34110  1  0
 34111  1  0
 35112  1  0
 35113  1  0
 36114  1  0
 36115  1  0
 36116  1  0
 37117  1  0
 40118  1  0
 40119  1  0
 41120  1  0
 41121  1  0
 42122  1  0
 42123  1  0
 43124  1  0
 43125  1  0
 44126  1  0
 44127  1  0
 45128  1  0
 48129  1  1
 50130  1  6
 52131  1  0
 56132  1  0
 56133  1  0
 58134  1  0
 61135  1  6
 62136  1  0
 63137  1  1
 64138  1  0
 66139  1  0
 66140  1  0
M  CHG  3   3   1  19   1  36   1
M  END
>  <meeko>  (4) 
{"is_sidechain": [false], "free_energy": -7.375, "intermolecular_energy": -22.884, "internal_energy": -6.376}

$$$$
3ag9_ligand
     RDKit          3D

140142  0  0  0  0  0  0  0  0999 V2000
   11.5190    6.8940    2.7620 N   0  0  0  0  0  0  0  0  0  0  0  0
   11.8850    7.3280    3.9710 C   0  0  0  0  0  0  0  0  0  0  0  0
   12.2500    6.4290    4.8870 N   0  0  0  0  0  0  0  0  0  0  0  0
   11.8760    8.6510    4.2300 N   0  0  0  0  0  0  0  0  0  0  0  0
   12.2830    9.2340    5.5160 C   0  0  0  0  0  0  0  0  0  0  0  0
   13.7990    9.4280    5.6210 C   0  0  0  0  0  0  0  0  0  0  0  0
   14.2840    9.6120    7.0650 C   0  0  0  0  0  0  0  0  0  0  0  0
   14.6260    8.2820    7.7650 C   0  0  1  0  0  0  0  0  0  0  0  0
   15.6760    7.5750    7.0320 N   0  0  0  0  0  0  0  0  0  0  0  0
   15.4290    6.2860    6.5910 C   0  0  0  0  0  0  0  0  0  0  0  0
   14.3800    5.6940    6.8280 O   0  0  0  0  0  0  0  0  0  0  0  0
   16.5720    5.6830    5.7520 C   0  0  1  0  0  0  0  0  0  0  0  0
   17.9420    6.1860    6.2370 C   0  0  0  0  0  0  0  0  0  0  0  0
   19.0520    5.1250    6.2740 C   0  0  0  0  0  0  0  0  0  0  0  0
   19.9850    5.2020    7.4820 C   0  0  0  0  0  0  0  0  0  0  0  0
   20.9410    4.0850    7.4830 N   0  0  0  0  0  0  0  0  0  0  0  0
   20.9950    3.1430    8.4410 C   0  0  0  0  0  0  0  0  0  0  0  0
   21.8660    2.1360    8.3150 N   0  0  0  0  0  0  0  0  0  0  0  0
   20.2120    3.1710    9.5190 N   0  0  0  0  0  0  0  0  0  0  0  0
   16.4890    4.2330    5.8970 N   0  0  0  0  0  0  0  0  0  0  0  0
   16.4670    3.4010    4.7980 C   0  0  0  0  0  0  0  0  0  0  0  0
   16.4630    3.8310    3.6470 O   0  0  0  0  0  0  0  0  0  0  0  0
   16.4110    1.9290    5.1740 C   0  0  0  0  0  0  0  0  0  0  0  0
   16.4590    1.7040    6.6850 C   0  0  0  0  0  0  0  0  0  0  0  0
   15.6130    0.5130    7.1580 C   0  0  0  0  0  0  0  0  0  0  0  0
   14.4320    0.9140    8.0520 C   0  0  0  0  0  0  0  0  0  0  0  0
   14.3300    2.4260    8.2660 C   0  0  0  0  0  0  0  0  0  0  0  0
   14.5760    2.8210    9.6410 N   0  0  0  0  0  0  0  0  0  0  0  0
   13.7960    3.7700   10.2660 C   0  0  0  0  0  0  0  0  0  0  0  0
   12.9610    4.4690    9.6780 O   0  0  0  0  0  0  0  0  0  0  0  0
   14.1100    3.9860   11.7600 C   0  0  1  0  0  0  0  0  0  0  0  0
   13.8460    5.4580   12.1490 C   0  0  0  0  0  0  0  0  0  0  0  0
   12.5490    5.7380   12.9260 C   0  0  0  0  0  0  0  0  0  0  0  0
   11.7380    6.9430   12.4310 C   0  0  0  0  0  0  0  0  0  0  0  0
   12.2850    7.5150   11.1270 C   0  0  0  0  0  0  0  0  0  0  0  0
   11.8410    8.9210   10.9650 N   0  0  0  0  0  0  0  0  0  0  0  0
   13.3390    3.0160   12.5340 N   0  0  0  0  0  0  0  0  0  0  0  0
   13.8920    2.4360   13.6640 C   0  0  0  0  0  0  0  0  0  0  0  0
   14.9640    2.7960   14.1320 O   0  0  0  0  0  0  0  0  0  0  0  0
   13.0280    1.3280   14.2400 C   0  0  0  0  0  0  0  0  0  0  0  0
   11.6820    1.8100   14.7780 C   0  0  0  0  0  0  0  0  0  0  0  0
   11.8070    2.6060   16.0820 C   0  0  0  0  0  0  0  0  0  0  0  0
   10.7650    3.7280   16.1380 C   0  0  0  0  0  0  0  0  0  0  0  0
    9.6810    3.5890   15.0690 C   0  0  0  0  0  0  0  0  0  0  0  0
    9.2160    4.8610   14.5500 N   0  0  0  0  0  0  0  0  0  0  0  0
    7.9610    5.3500   14.8570 C   0  0  0  0  0  0  0  0  0  0  0  0
    7.2080    4.8200   15.6680 O   0  0  0  0  0  0  0  0  0  0  0  0
    7.6110    6.6690   14.1620 C   0  0  1  0  0  0  0  0  0  0  0  0
    8.4720    6.9180   13.0410 O   0  0  0  0  0  0  0  0  0  0  0  0
    7.7160    6.7160   11.8320 C   0  0  1  0  0  0  0  0  0  0  0  0
    8.4870    5.9300   10.8860 N   0  0  0  0  0  0  0  0  0  0  0  0
    8.7670    4.5930   10.9320 C   0  0  0  0  0  0  0  0  0  0  0  0
    9.5300    4.2160    9.9240 N   0  0  0  0  0  0  0  0  0  0  0  0
    9.7460    5.3660    9.1930 C   0  0  0  0  0  0  0  0  0  0  0  0
   10.4680    5.6230    8.0160 C   0  0  0  0  0  0  0  0  0  0  0  0
   11.1850    4.6510    7.3360 N   0  0  0  0  0  0  0  0  0  0  0  0
   10.4540    6.8790    7.5150 N   0  0  0  0  0  0  0  0  0  0  0  0
    9.7690    7.8320    8.1820 C   0  0  0  0  0  0  0  0  0  0  0  0
    9.0400    7.7090    9.3160 N   0  0  0  0  0  0  0  0  0  0  0  0
    9.0880    6.4410    9.7650 C   0  0  0  0  0  0  0  0  0  0  0  0
    6.3960    6.0450   12.2240 C   0  0  2  0  0  0  0  0  0  0  0  0
    5.2810    6.4100   11.4050 O   0  0  0  0  0  0  0  0  0  0  0  0
    6.1870    6.5650   13.6340 C   0  0  2  0  0  0  0  0  0  0  0  0
    5.5680    7.8610   13.5950 O   0  0  0  0  0  0  0  0  0  0  0  0
   15.1380    8.5610    9.2070 C   0  0  0  0  0  0  0  0  0  0  0  0
   16.0320    7.6510    9.6980 N   0  0  0  0  0  0  0  0  0  0  0  0
   14.7580    9.5010    9.9100 O   0  0  0  0  0  0  0  0  0  0  0  0
   11.2360    7.5230    2.0230 H   0  0  0  0  0  0  0  0  0  0  0  0
   11.5210    5.9050    2.5370 H   0  0  0  0  0  0  0  0  0  0  0  0
   12.5400    6.7000    5.8170 H   0  0  0  0  0  0  0  0  0  0  0  0
   12.2610    5.4370    4.6850 H   0  0  0  0  0  0  0  0  0  0  0  0
   11.6020    9.2630    3.4720 H   0  0  0  0  0  0  0  0  0  0  0  0
   11.7938   10.2126    5.6298 H   0  0  0  0  0  0  0  0  0  0  0  0
   11.9807    8.5348    6.3095 H   0  0  0  0  0  0  0  0  0  0  0  0
   14.2954    8.5436    5.1951 H   0  0  0  0  0  0  0  0  0  0  0  0
   14.0508   10.3467    5.0710 H   0  0  0  0  0  0  0  0  0  0  0  0
   15.1851   10.2427    7.0534 H   0  0  0  0  0  0  0  0  0  0  0  0
   13.4618   10.0763    7.6293 H   0  0  0  0  0  0  0  0  0  0  0  0
   13.7156    7.6654    7.7961 H   0  0  0  0  0  0  0  0  0  0  0  0
   16.2420    8.1120    6.3730 H   0  0  0  0  0  0  0  0  0  0  0  0
   16.4709    5.9849    4.6991 H   0  0  0  0  0  0  0  0  0  0  0  0
   18.2656    6.9939    5.5643 H   0  0  0  0  0  0  0  0  0  0  0  0
   17.7967    6.5125    7.2773 H   0  0  0  0  0  0  0  0  0  0  0  0
   18.5754    4.1336    6.2746 H   0  0  0  0  0  0  0  0  0  0  0  0
   19.6805    5.3095    5.3903 H   0  0  0  0  0  0  0  0  0  0  0  0
   20.5407    6.1507    7.4472 H   0  0  0  0  0  0  0  0  0  0  0  0
   19.3778    5.1437    8.3974 H   0  0  0  0  0  0  0  0  0  0  0  0
   21.5910    3.9950    6.7120 H   0  0  0  0  0  0  0  0  0  0  0  0
   22.4790    2.0520    7.5130 H   0  0  0  0  0  0  0  0  0  0  0  0
   21.9310    1.4070    9.0140 H   0  0  0  0  0  0  0  0  0  0  0  0
   20.2500    2.4560   10.2300 H   0  0  0  0  0  0  0  0  0  0  0  0
   19.5490    3.9330    9.6970 H   0  0  0  0  0  0  0  0  0  0  0  0
   16.1580    3.8630    6.7820 H   0  0  0  0  0  0  0  0  0  0  0  0
   15.4755    1.5015    4.7841 H   0  0  0  0  0  0  0  0  0  0  0  0
   17.2945    1.4406    4.7371 H   0  0  0  0  0  0  0  0  0  0  0  0
   17.5045    1.5252    6.9766 H   0  0  0  0  0  0  0  0  0  0  0  0
   16.0400    2.6044    7.1580 H   0  0  0  0  0  0  0  0  0  0  0  0
   15.2180   -0.0063    6.2724 H   0  0  0  0  0  0  0  0  0  0  0  0
   16.2705   -0.1298    7.7617 H   0  0  0  0  0  0  0  0  0  0  0  0
   13.5015    0.5630    7.5818 H   0  0  0  0  0  0  0  0  0  0  0  0
   14.5938    0.4525    9.0373 H   0  0  0  0  0  0  0  0  0  0  0  0
   15.0699    2.9223    7.6208 H   0  0  0  0  0  0  0  0  0  0  0  0
   13.3015    2.7256    8.0161 H   0  0  0  0  0  0  0  0  0  0  0  0
   15.0820    2.1700   10.2320 H   0  0  0  0  0  0  0  0  0  0  0  0
   15.1733    3.8109   11.9809 H   0  0  0  0  0  0  0  0  0  0  0  0
   14.6881    5.7960   12.7707 H   0  0  0  0  0  0  0  0  0  0  0  0
   13.7379    5.9970   11.1962 H   0  0  0  0  0  0  0  0  0  0  0  0
   11.9101    4.8454   12.8547 H   0  0  0  0  0  0  0  0  0  0  0  0
   12.8553    5.9781   13.9549 H   0  0  0  0  0  0  0  0  0  0  0  0
   10.6973    6.6259   12.2688 H   0  0  0  0  0  0  0  0  0  0  0  0
   11.8045    7.7299   13.1968 H   0  0  0  0  0  0  0  0  0  0  0  0
   13.3843    7.4799   11.1464 H   0  0  0  0  0  0  0  0  0  0  0  0
   11.9079    6.9175   10.2839 H   0  0  0  0  0  0  0  0  0  0  0  0
   11.8670    9.4710   11.8480 H   0  0  0  0  0  0  0  0  0  0  0  0
   12.4460    9.4310   10.3120 H   0  0  0  0  0  0  0  0  0  0  0  0
   10.8820    8.9810   10.6040 H   0  0  0  0  0  0  0  0  0  0  0  0
   12.6660    2.4500   12.0300 H   0  0  0  0  0  0  0  0  0  0  0  0
   12.8397    0.5882   13.4480 H   0  0  0  0  0  0  0  0  0  0  0  0
   13.5791    0.9031   15.0919 H   0  0  0  0  0  0  0  0  0  0  0  0
   11.2112    2.4524   14.0192 H   0  0  0  0  0  0  0  0  0  0  0  0
   11.0763    0.9177   14.9947 H   0  0  0  0  0  0  0  0  0  0  0  0
   11.6527    1.9280   16.9343 H   0  0  0  0  0  0  0  0  0  0  0  0
   12.8103    3.0548   16.1257 H   0  0  0  0  0  0  0  0  0  0  0  0
   10.2855    3.7122   17.1279 H   0  0  0  0  0  0  0  0  0  0  0  0
   11.2912    4.6759   15.9523 H   0  0  0  0  0  0  0  0  0  0  0  0
   10.0884    2.9999   14.2341 H   0  0  0  0  0  0  0  0  0  0  0  0
    8.8188    3.0976   15.5435 H   0  0  0  0  0  0  0  0  0  0  0  0
    9.6710    5.2110   13.7140 H   0  0  0  0  0  0  0  0  0  0  0  0
    7.7265    7.4855   14.8899 H   0  0  0  0  0  0  0  0  0  0  0  0
    7.4954    7.6687   11.3283 H   0  0  0  0  0  0  0  0  0  0  0  0
    8.4003    3.9132   11.7152 H   0  0  0  0  0  0  0  0  0  0  0  0
   10.8360    4.4490    6.4050 H   0  0  0  0  0  0  0  0  0  0  0  0
   12.1830    4.7200    7.4690 H   0  0  0  0  0  0  0  0  0  0  0  0
    9.8084    8.8414    7.7467 H   0  0  0  0  0  0  0  0  0  0  0  0
    6.4543    4.9517   12.1174 H   0  0  0  0  0  0  0  0  0  0  0  0
    4.7250    7.0120   11.9510 H   0  0  0  0  0  0  0  0  0  0  0  0
    5.5360    5.9289   14.2518 H   0  0  0  0  0  0  0  0  0  0  0  0
    5.6170    8.1360   12.6530 H   0  0  0  0  0  0  0  0  0  0  0  0
   16.6560    7.1760    9.0530 H   0  0  0  0  0  0  0  0  0  0  0  0
   16.4620    7.8830   10.5870 H   0  0  0  0  0  0  0  0  0  0  0  0
  1  2  1  0
  2  3  2  0
  2  4  1  0
  4  5  1  0
  5  6  1  0
  6  7  1  0
  7  8  1  0
  8  9  1  0
  9 10  1  0
 10 11  2  0
 10 12  1  0
 12 13  1  0
 13 14  1  0
 14 15  1  0
 15 16  1  0
 16 17  1  0
 17 18  1  0
 17 19  2  0
 12 20  1  0
 20 21  1  0
 21 22  2  0
 21 23  1  0
 23 24  1  0
 24 25  1  0
 25 26  1  0
 26 27  1  0
 27 28  1  0
 28 29  1  0
 29 30  2  0
 29 31  1  0
 31 32  1  0
 32 33  1  0
 33 34  1  0
 34 35  1  0
 35 36  1  0
 31 37  1  0
 37 38  1  0
 38 39  2  0
 38 40  1  0
 40 41  1  0
 41 42  1  0
 42 43  1  0
 43 44  1  0
 44 45  1  0
 45 46  1  0
 46 47  2  0
 46 48  1  0
 48 49  1  0
 49 50  1  0
 50 51  1  0
 51 52  1  0
 52 53  2  0
 53 54  1  0
 54 55  2  0
 55 56  1  0
 55 57  1  0
 57 58  2  0
 58 59  1  0
 59 60  2  0
 50 61  1  0
 61 62  1  0
 61 63  1  0
 63 64  1  0
  8 65  1  0
 65 66  1  0
 65 67  2  0
 63 48  1  0
 60 51  1  0
 60 54  1  0
  1 68  1  0
  1 69  1  0
  3 70  1  0
  3 71  1  0
  4 72  1  0
  5 73  1  0
  5 74  1  0
  6 75  1  0
  6 76  1  0
  7 77  1  0
  7 78  1  0
  8 79  1  1
  9 80  1  0
 12 81  1  6
 13 82  1  0
 13 83  1  0
 14 84  1  0
 14 85  1  0
 15 86  1  0
 15 87  1  0
 16 88  1  0
 18 89  1  0
 18 90  1  0
 19 91  1  0
 19 92  1  0
 20 93  1  0
 23 94  1  0
 23 95  1  0
 24 96  1  0
 24 97  1  0
 25 98  1  0
 25 99  1  0
 26100  1  0
 26101  1  0
 27102  1  0
 27103  1  0
 28104  1  0
 31105  1  6
 32106  1  0
 32107  1  0
 33108  1  0
 33109  1  0
 34110  1  0
 34111  1  0
 35112  1  0
 35113  1  0
 36114  1  0
 36115  1  0
 36116  1  0
 37117  1  0
 40118  1  0
 40119  1  0
 41120  1  0
 41121  1  0
 42122  1  0
 42123  1  0
 43124  1  0
 43125  1  0
 44126  1  0
 44127  1  0
 45128  1  0
 48129  1  1
 50130  1  6
 52131  1  0
 56132  1  0
 56133  1  0
 58134  1  0
 61135  1  1
 62136  1  0
 63137  1  1
 64138  1  0
 66139  1  0
 66140  1  0
M  CHG  3   3   1  19   1  36   1
M  END
>  <meeko>  (5) 
{"is_sidechain": [false], "free_energy": -7.361, "intermolecular_energy": -21.777, "internal_energy": -7.442}

$$$$
3ag9_ligand
     RDKit          3D

140142  0  0  0  0  0  0  0  0999 V2000
   14.6910    7.0810   11.9630 N   0  0  0  0  0  0  0  0  0  0  0  0
   13.7670    7.8940   11.4440 C   0  0  0  0  0  0  0  0  0  0  0  0
   14.1710    8.9250   10.7000 N   0  0  0  0  0  0  0  0  0  0  0  0
   12.4630    7.6520   11.6850 N   0  0  0  0  0  0  0  0  0  0  0  0
   11.3680    8.4680   11.1430 C   0  0  0  0  0  0  0  0  0  0  0  0
   10.1710    8.5560   12.0950 C   0  0  0  0  0  0  0  0  0  0  0  0
    9.0930    7.5030   11.8070 C   0  0  0  0  0  0  0  0  0  0  0  0
    9.6720    6.1110   11.4890 C   0  0  1  0  0  0  0  0  0  0  0  0
    9.3910    5.1800   12.5810 N   0  0  0  0  0  0  0  0  0  0  0  0
   10.1940    5.2150   13.7100 C   0  0  0  0  0  0  0  0  0  0  0  0
   11.1590    5.9660   13.8140 O   0  0  0  0  0  0  0  0  0  0  0  0
    9.7420    4.2540   14.8260 C   0  0  1  0  0  0  0  0  0  0  0  0
    8.2480    3.9120   14.6940 C   0  0  0  0  0  0  0  0  0  0  0  0
    7.2850    4.9560   15.2810 C   0  0  0  0  0  0  0  0  0  0  0  0
    6.6200    5.8750   14.2580 C   0  0  0  0  0  0  0  0  0  0  0  0
    5.1630    5.9110   14.4500 N   0  0  0  0  0  0  0  0  0  0  0  0
    4.5030    6.9480   14.9960 C   0  0  0  0  0  0  0  0  0  0  0  0
    3.1680    6.9020   15.0720 N   0  0  0  0  0  0  0  0  0  0  0  0
    5.1270    8.0260   15.4710 N   0  0  0  0  0  0  0  0  0  0  0  0
   10.5480    3.0440   14.6990 N   0  0  0  0  0  0  0  0  0  0  0  0
   11.5620    2.7600   15.5890 C   0  0  0  0  0  0  0  0  0  0  0  0
   11.8760    3.5260   16.4960 O   0  0  0  0  0  0  0  0  0  0  0  0
   12.2510    1.4370   15.2940 C   0  0  0  0  0  0  0  0  0  0  0  0
   13.0410    1.4610   13.9860 C   0  0  0  0  0  0  0  0  0  0  0  0
   14.3160    2.3150   14.0510 C   0  0  0  0  0  0  0  0  0  0  0  0
   14.3050    3.5100   13.0890 C   0  0  0  0  0  0  0  0  0  0  0  0
   13.4400    3.2720   11.8490 C   0  0  0  0  0  0  0  0  0  0  0  0
   14.1880    2.7190   10.7350 N   0  0  0  0  0  0  0  0  0  0  0  0
   14.9710    3.5160    9.9290 C   0  0  0  0  0  0  0  0  0  0  0  0
   14.9700    4.7520    9.9750 O   0  0  0  0  0  0  0  0  0  0  0  0
   15.7940    2.7560    8.8700 C   0  0  1  0  0  0  0  0  0  0  0  0
   15.4350    3.2650    7.4560 C   0  0  0  0  0  0  0  0  0  0  0  0
   14.0420    2.8850    6.9250 C   0  0  0  0  0  0  0  0  0  0  0  0
   12.9980    4.0080    6.9630 C   0  0  0  0  0  0  0  0  0  0  0  0
   11.7010    3.5730    7.6370 C   0  0  0  0  0  0  0  0  0  0  0  0
   11.5930    2.0940    7.6220 N   0  0  0  0  0  0  0  0  0  0  0  0
   17.2090    2.8850    9.2090 N   0  0  0  0  0  0  0  0  0  0  0  0
   17.9830    1.7510    9.3920 C   0  0  0  0  0  0  0  0  0  0  0  0
   17.5700    0.6250    9.1510 O   0  0  0  0  0  0  0  0  0  0  0  0
   19.3750    2.0660    9.9100 C   0  0  0  0  0  0  0  0  0  0  0  0
   20.4320    2.1830    8.8130 C   0  0  0  0  0  0  0  0  0  0  0  0
   20.6280    3.6200    8.3200 C   0  0  0  0  0  0  0  0  0  0  0  0
   21.2350    3.6360    6.9130 C   0  0  0  0  0  0  0  0  0  0  0  0
   20.6070    4.6930    6.0040 C   0  0  0  0  0  0  0  0  0  0  0  0
   19.9950    5.7890    6.7300 N   0  0  0  0  0  0  0  0  0  0  0  0
   19.5480    6.9240    6.0800 C   0  0  0  0  0  0  0  0  0  0  0  0
   19.5240    7.0390    4.8590 O   0  0  0  0  0  0  0  0  0  0  0  0
   18.9980    8.0080    7.0120 C   0  0  1  0  0  0  0  0  0  0  0  0
   17.8550    8.6610    6.4420 O   0  0  0  0  0  0  0  0  0  0  0  0
   16.6810    8.2270    7.1530 C   0  0  1  0  0  0  0  0  0  0  0  0
   15.6220    7.8970    6.2170 N   0  0  0  0  0  0  0  0  0  0  0  0
   15.7220    7.6960    4.8680 C   0  0  0  0  0  0  0  0  0  0  0  0
   14.5490    7.4500    4.3190 N   0  0  0  0  0  0  0  0  0  0  0  0
   13.6520    7.4920    5.3660 C   0  0  0  0  0  0  0  0  0  0  0  0
   12.2610    7.3100    5.4340 C   0  0  0  0  0  0  0  0  0  0  0  0
   11.4710    7.0560    4.3240 N   0  0  0  0  0  0  0  0  0  0  0  0
   11.6630    7.3760    6.6460 N   0  0  0  0  0  0  0  0  0  0  0  0
   12.4250    7.6370    7.7280 C   0  0  0  0  0  0  0  0  0  0  0  0
   13.7640    7.8290    7.7910 N   0  0  0  0  0  0  0  0  0  0  0  0
   14.3040    7.7490    6.5590 C   0  0  0  0  0  0  0  0  0  0  0  0
   17.0890    7.0400    8.0300 C   0  0  2  0  0  0  0  0  0  0  0  0
   16.3760    6.9450    9.2660 O   0  0  0  0  0  0  0  0  0  0  0  0
   18.5500    7.3410    8.3050 C   0  0  2  0  0  0  0  0  0  0  0  0
   18.6660    8.2520    9.4090 O   0  0  0  0  0  0  0  0  0  0  0  0
    9.0230    5.5540   10.1900 C   0  0  0  0  0  0  0  0  0  0  0  0
    8.3040    6.4580    9.4590 N   0  0  0  0  0  0  0  0  0  0  0  0
    9.0900    4.3760    9.8280 O   0  0  0  0  0  0  0  0  0  0  0  0
   14.4510    6.2800   12.5330 H   0  0  0  0  0  0  0  0  0  0  0  0
   15.6790    7.2350   11.7950 H   0  0  0  0  0  0  0  0  0  0  0  0
   13.5160    9.5700   10.2780 H   0  0  0  0  0  0  0  0  0  0  0  0
   15.1520    9.0970   10.5170 H   0  0  0  0  0  0  0  0  0  0  0  0
   12.2450    6.8380   12.2460 H   0  0  0  0  0  0  0  0  0  0  0  0
   11.7452    9.4844   10.9565 H   0  0  0  0  0  0  0  0  0  0  0  0
   11.0216    7.9871   10.2163 H   0  0  0  0  0  0  0  0  0  0  0  0
   10.5317    8.4150   13.1246 H   0  0  0  0  0  0  0  0  0  0  0  0
    9.7101    9.5444   11.9512 H   0  0  0  0  0  0  0  0  0  0  0  0
    8.4432    7.4176   12.6904 H   0  0  0  0  0  0  0  0  0  0  0  0
    8.5397    7.8374   10.9170 H   0  0  0  0  0  0  0  0  0  0  0  0
   10.7596    6.2119   11.3588 H   0  0  0  0  0  0  0  0  0  0  0  0
    8.4130    4.9840   12.8020 H   0  0  0  0  0  0  0  0  0  0  0  0
    9.8798    4.7235   15.8112 H   0  0  0  0  0  0  0  0  0  0  0  0
    8.0176    3.7995   13.6243 H   0  0  0  0  0  0  0  0  0  0  0  0
    8.0924    2.9912   15.2753 H   0  0  0  0  0  0  0  0  0  0  0  0
    6.4920    4.4205   15.8235 H   0  0  0  0  0  0  0  0  0  0  0  0
    7.8954    5.6066   15.9246 H   0  0  0  0  0  0  0  0  0  0  0  0
    7.0231    6.8920   14.3727 H   0  0  0  0  0  0  0  0  0  0  0  0
    6.8310    5.4879   13.2502 H   0  0  0  0  0  0  0  0  0  0  0  0
    4.6080    5.1250   14.1380 H   0  0  0  0  0  0  0  0  0  0  0  0
    2.6360    6.1170   14.7170 H   0  0  0  0  0  0  0  0  0  0  0  0
    2.6380    7.6660   15.4720 H   0  0  0  0  0  0  0  0  0  0  0  0
    4.6250    8.8040   15.8710 H   0  0  0  0  0  0  0  0  0  0  0  0
    6.1490    8.1100   15.4790 H   0  0  0  0  0  0  0  0  0  0  0  0
   10.5520    2.5680   13.8030 H   0  0  0  0  0  0  0  0  0  0  0  0
   12.9426    1.2091   16.1185 H   0  0  0  0  0  0  0  0  0  0  0  0
   11.4685    0.6702   15.1950 H   0  0  0  0  0  0  0  0  0  0  0  0
   13.3265    0.4291   13.7337 H   0  0  0  0  0  0  0  0  0  0  0  0
   12.3889    1.9139   13.2246 H   0  0  0  0  0  0  0  0  0  0  0  0
   14.4276    2.6956   15.0770 H   0  0  0  0  0  0  0  0  0  0  0  0
   15.1533    1.6676   13.7513 H   0  0  0  0  0  0  0  0  0  0  0  0
   13.9151    4.3879   13.6250 H   0  0  0  0  0  0  0  0  0  0  0  0
   15.3382    3.6644   12.7445 H   0  0  0  0  0  0  0  0  0  0  0  0
   12.6341    2.5713   12.1127 H   0  0  0  0  0  0  0  0  0  0  0  0
   13.0462    4.2481   11.5295 H   0  0  0  0  0  0  0  0  0  0  0  0
   14.4020    1.7280   10.7620 H   0  0  0  0  0  0  0  0  0  0  0  0
   15.5553    1.6822    8.8654 H   0  0  0  0  0  0  0  0  0  0  0  0
   15.5000    4.3630    7.4691 H   0  0  0  0  0  0  0  0  0  0  0  0
   16.1495    2.7742    6.7788 H   0  0  0  0  0  0  0  0  0  0  0  0
   14.1536    2.5598    5.8801 H   0  0  0  0  0  0  0  0  0  0  0  0
   13.6658    2.0968    7.5938 H   0  0  0  0  0  0  0  0  0  0  0  0
   13.4161    4.8605    7.5184 H   0  0  0  0  0  0  0  0  0  0  0  0
   12.7611    4.2811    5.9241 H   0  0  0  0  0  0  0  0  0  0  0  0
   11.6945    3.9282    8.6781 H   0  0  0  0  0  0  0  0  0  0  0  0
   10.8484    4.0029    7.0909 H   0  0  0  0  0  0  0  0  0  0  0  0
   10.7480    1.7320    8.1100 H   0  0  0  0  0  0  0  0  0  0  0  0
   11.5250    1.7330    6.6640 H   0  0  0  0  0  0  0  0  0  0  0  0
   12.4060    1.6450    8.0610 H   0  0  0  0  0  0  0  0  0  0  0  0
   17.4850    3.7010    9.7450 H   0  0  0  0  0  0  0  0  0  0  0  0
   19.3340    3.0208   10.4547 H   0  0  0  0  0  0  0  0  0  0  0  0
   19.6741    1.2253   10.5532 H   0  0  0  0  0  0  0  0  0  0  0  0
   21.3900    1.8147    9.2088 H   0  0  0  0  0  0  0  0  0  0  0  0
   20.0843    1.5864    7.9567 H   0  0  0  0  0  0  0  0  0  0  0  0
   19.6534    4.1295    8.2978 H   0  0  0  0  0  0  0  0  0  0  0  0
   21.3154    4.1368    9.0058 H   0  0  0  0  0  0  0  0  0  0  0  0
   22.3122    3.8420    6.9982 H   0  0  0  0  0  0  0  0  0  0  0  0
   21.0398    2.6533    6.4590 H   0  0  0  0  0  0  0  0  0  0  0  0
   21.3924    5.1026    5.3518 H   0  0  0  0  0  0  0  0  0  0  0  0
   19.8085    4.1964    5.4332 H   0  0  0  0  0  0  0  0  0  0  0  0
   20.2040    5.8600    7.7190 H   0  0  0  0  0  0  0  0  0  0  0  0
   19.7886    8.7539    7.1810 H   0  0  0  0  0  0  0  0  0  0  0  0
   16.2804    9.0241    7.7966 H   0  0  0  0  0  0  0  0  0  0  0  0
   16.6680    7.7349    4.3080 H   0  0  0  0  0  0  0  0  0  0  0  0
   11.1700    6.0910    4.2370 H   0  0  0  0  0  0  0  0  0  0  0  0
   10.8010    7.7860    4.1300 H   0  0  0  0  0  0  0  0  0  0  0  0
   11.8878    7.7025    8.6856 H   0  0  0  0  0  0  0  0  0  0  0  0
   16.8798    6.0823    7.5309 H   0  0  0  0  0  0  0  0  0  0  0  0
   16.0910    6.0060    9.3480 H   0  0  0  0  0  0  0  0  0  0  0  0
   19.1459    6.4553    8.5704 H   0  0  0  0  0  0  0  0  0  0  0  0
   18.6170    7.6860   10.2100 H   0  0  0  0  0  0  0  0  0  0  0  0
    8.5810    7.4350    9.4740 H   0  0  0  0  0  0  0  0  0  0  0  0
    7.9760    6.1400    8.5530 H   0  0  0  0  0  0  0  0  0  0  0  0
  1  2  1  0
  2  3  2  0
  2  4  1  0
  4  5  1  0
  5  6  1  0
  6  7  1  0
  7  8  1  0
  8  9  1  0
  9 10  1  0
 10 11  2  0
 10 12  1  0
 12 13  1  0
 13 14  1  0
 14 15  1  0
 15 16  1  0
 16 17  1  0
 17 18  1  0
 17 19  2  0
 12 20  1  0
 20 21  1  0
 21 22  2  0
 21 23  1  0
 23 24  1  0
 24 25  1  0
 25 26  1  0
 26 27  1  0
 27 28  1  0
 28 29  1  0
 29 30  2  0
 29 31  1  0
 31 32  1  0
 32 33  1  0
 33 34  1  0
 34 35  1  0
 35 36  1  0
 31 37  1  0
 37 38  1  0
 38 39  2  0
 38 40  1  0
 40 41  1  0
 41 42  1  0
 42 43  1  0
 43 44  1  0
 44 45  1  0
 45 46  1  0
 46 47  2  0
 46 48  1  0
 48 49  1  0
 49 50  1  0
 50 51  1  0
 51 52  1  0
 52 53  2  0
 53 54  1  0
 54 55  2  0
 55 56  1  0
 55 57  1  0
 57 58  2  0
 58 59  1  0
 59 60  2  0
 50 61  1  0
 61 62  1  0
 61 63  1  0
 63 64  1  0
  8 65  1  0
 65 66  1  0
 65 67  2  0
 63 48  1  0
 60 51  1  0
 60 54  1  0
  1 68  1  0
  1 69  1  0
  3 70  1  0
  3 71  1  0
  4 72  1  0
  5 73  1  0
  5 74  1  0
  6 75  1  0
  6 76  1  0
  7 77  1  0
  7 78  1  0
  8 79  1  6
  9 80  1  0
 12 81  1  1
 13 82  1  0
 13 83  1  0
 14 84  1  0
 14 85  1  0
 15 86  1  0
 15 87  1  0
 16 88  1  0
 18 89  1  0
 18 90  1  0
 19 91  1  0
 19 92  1  0
 20 93  1  0
 23 94  1  0
 23 95  1  0
 24 96  1  0
 24 97  1  0
 25 98  1  0
 25 99  1  0
 26100  1  0
 26101  1  0
 27102  1  0
 27103  1  0
 28104  1  0
 31105  1  6
 32106  1  0
 32107  1  0
 33108  1  0
 33109  1  0
 34110  1  0
 34111  1  0
 35112  1  0
 35113  1  0
 36114  1  0
 36115  1  0
 36116  1  0
 37117  1  0
 40118  1  0
 40119  1  0
 41120  1  0
 41121  1  0
 42122  1  0
 42123  1  0
 43124  1  0
 43125  1  0
 44126  1  0
 44127  1  0
 45128  1  0
 48129  1  1
 50130  1  1
 52131  1  0
 56132  1  0
 56133  1  0
 58134  1  0
 61135  1  6
 62136  1  0
 63137  1  1
 64138  1  0
 66139  1  0
 66140  1  0
M  CHG  3   3   1  19   1  36   1
M  END
>  <meeko>  (6) 
{"is_sidechain": [false], "free_energy": -7.327, "intermolecular_energy": -21.923, "internal_energy": -7.194}

$$$$
3ag9_ligand
     RDKit          3D

140142  0  0  0  0  0  0  0  0999 V2000
   12.2810    3.9790    6.8730 N   0  0  0  0  0  0  0  0  0  0  0  0
   12.5560    2.7130    7.2000 C   0  0  0  0  0  0  0  0  0  0  0  0
   11.5670    1.9440    7.6580 N   0  0  0  0  0  0  0  0  0  0  0  0
   13.8150    2.2520    7.0600 N   0  0  0  0  0  0  0  0  0  0  0  0
   14.2180    0.8730    7.3660 C   0  0  0  0  0  0  0  0  0  0  0  0
   15.7240    0.6490    7.1970 C   0  0  0  0  0  0  0  0  0  0  0  0
   16.5240    0.9470    8.4720 C   0  0  0  0  0  0  0  0  0  0  0  0
   17.0390    2.3980    8.5410 C   0  0  1  0  0  0  0  0  0  0  0  0
   16.3930    3.1170    9.6390 N   0  0  0  0  0  0  0  0  0  0  0  0
   15.5200    4.1480    9.3370 C   0  0  0  0  0  0  0  0  0  0  0  0
   15.2980    4.5140    8.1860 O   0  0  0  0  0  0  0  0  0  0  0  0
   14.8330    4.7650   10.5710 C   0  0  1  0  0  0  0  0  0  0  0  0
   13.9240    5.9400   10.1720 C   0  0  0  0  0  0  0  0  0  0  0  0
   14.4890    7.3350   10.4760 C   0  0  0  0  0  0  0  0  0  0  0  0
   15.2720    7.9840    9.3350 C   0  0  0  0  0  0  0  0  0  0  0  0
   16.7010    8.0840    9.6650 N   0  0  0  0  0  0  0  0  0  0  0  0
   17.6820    7.5260    8.9340 C   0  0  0  0  0  0  0  0  0  0  0  0
   18.9550    7.7270    9.2920 N   0  0  0  0  0  0  0  0  0  0  0  0
   17.4380    6.7730    7.8620 N   0  0  0  0  0  0  0  0  0  0  0  0
   14.0430    3.7060   11.1930 N   0  0  0  0  0  0  0  0  0  0  0  0
   13.9740    3.5720   12.5630 C   0  0  0  0  0  0  0  0  0  0  0  0
   14.6080    4.2940   13.3280 O   0  0  0  0  0  0  0  0  0  0  0  0
   13.0720    2.4280   12.9970 C   0  0  0  0  0  0  0  0  0  0  0  0
   13.2670    2.0470   14.4650 C   0  0  0  0  0  0  0  0  0  0  0  0
   11.9590    1.9890   15.2660 C   0  0  0  0  0  0  0  0  0  0  0  0
   12.0620    2.6280   16.6580 C   0  0  0  0  0  0  0  0  0  0  0  0
   10.8080    3.4150   17.0480 C   0  0  0  0  0  0  0  0  0  0  0  0
   10.0180    3.8250   15.9020 N   0  0  0  0  0  0  0  0  0  0  0  0
    8.7270    4.2860   16.0480 C   0  0  0  0  0  0  0  0  0  0  0  0
    8.0920    4.2270   17.1070 O   0  0  0  0  0  0  0  0  0  0  0  0
    8.0710    4.7960   14.7490 C   0  0  1  0  0  0  0  0  0  0  0  0
    6.9910    5.8500   15.0800 C   0  0  0  0  0  0  0  0  0  0  0  0
    5.6350    5.6870   14.3720 C   0  0  0  0  0  0  0  0  0  0  0  0
    5.1230    6.9370   13.6450 C   0  0  0  0  0  0  0  0  0  0  0  0
    6.0830    7.4120   12.5590 C   0  0  0  0  0  0  0  0  0  0  0  0
    6.1070    6.4370   11.4420 N   0  0  0  0  0  0  0  0  0  0  0  0
    9.1260    5.2790   13.8620 N   0  0  0  0  0  0  0  0  0  0  0  0
    9.1570    4.8750   12.5380 C   0  0  0  0  0  0  0  0  0  0  0  0
    8.2560    4.2240   12.0260 O   0  0  0  0  0  0  0  0  0  0  0  0
   10.4110    5.3280   11.8130 C   0  0  0  0  0  0  0  0  0  0  0  0
   11.1700    6.4440   12.5280 C   0  0  0  0  0  0  0  0  0  0  0  0
   11.1490    7.7710   11.7610 C   0  0  0  0  0  0  0  0  0  0  0  0
   10.0230    8.6780   12.2700 C   0  0  0  0  0  0  0  0  0  0  0  0
    8.9340    8.9200   11.2250 C   0  0  0  0  0  0  0  0  0  0  0  0
    9.2610    8.3890    9.9150 N   0  0  0  0  0  0  0  0  0  0  0  0
    8.8870    9.0430    8.7580 C   0  0  0  0  0  0  0  0  0  0  0  0
    8.3690   10.1560    8.7470 O   0  0  0  0  0  0  0  0  0  0  0  0
    9.2520    8.3010    7.4680 C   0  0  1  0  0  0  0  0  0  0  0  0
    9.9740    9.1460    6.5610 O   0  0  0  0  0  0  0  0  0  0  0  0
   11.3510    8.7240    6.5430 C   0  0  1  0  0  0  0  0  0  0  0  0
   12.2290    9.8770    6.6310 N   0  0  0  0  0  0  0  0  0  0  0  0
   11.9070   11.1560    6.9930 C   0  0  0  0  0  0  0  0  0  0  0  0
   12.9480   11.9620    6.9250 N   0  0  0  0  0  0  0  0  0  0  0  0
   13.9900   11.1620    6.5040 C   0  0  0  0  0  0  0  0  0  0  0  0
   15.3450   11.4230    6.2450 C   0  0  0  0  0  0  0  0  0  0  0  0
   15.9130   12.6820    6.3620 N   0  0  0  0  0  0  0  0  0  0  0  0
   16.1390   10.3920    5.8750 N   0  0  0  0  0  0  0  0  0  0  0  0
   15.5880    9.1680    5.7470 C   0  0  0  0  0  0  0  0  0  0  0  0
   14.3060    8.7920    5.9670 N   0  0  0  0  0  0  0  0  0  0  0  0
   13.5660    9.8550    6.3340 C   0  0  0  0  0  0  0  0  0  0  0  0
   11.5440    7.7420    7.7030 C   0  0  2  0  0  0  0  0  0  0  0  0
   12.5010    6.7090    7.4500 O   0  0  0  0  0  0  0  0  0  0  0  0
   10.1590    7.1340    7.8320 C   0  0  2  0  0  0  0  0  0  0  0  0
   10.0020    6.0610    6.8910 O   0  0  0  0  0  0  0  0  0  0  0  0
   18.5740    2.4020    8.7880 C   0  0  0  0  0  0  0  0  0  0  0  0
   19.0590    1.3290    9.4850 N   0  0  0  0  0  0  0  0  0  0  0  0
   19.3340    3.3080    8.4360 O   0  0  0  0  0  0  0  0  0  0  0  0
   12.9840    4.6120    6.5170 H   0  0  0  0  0  0  0  0  0  0  0  0
   11.3430    4.3520    6.9640 H   0  0  0  0  0  0  0  0  0  0  0  0
   11.7150    0.9780    7.9160 H   0  0  0  0  0  0  0  0  0  0  0  0
   10.6220    2.2940    7.7550 H   0  0  0  0  0  0  0  0  0  0  0  0
   14.5000    2.8990    6.6890 H   0  0  0  0  0  0  0  0  0  0  0  0
   13.9429    0.6482    8.4070 H   0  0  0  0  0  0  0  0  0  0  0  0
   13.7005    0.2093    6.6577 H   0  0  0  0  0  0  0  0  0  0  0  0
   15.8923   -0.4010    6.9156 H   0  0  0  0  0  0  0  0  0  0  0  0
   16.0738    1.3449    6.4203 H   0  0  0  0  0  0  0  0  0  0  0  0
   15.8760    0.7644    9.3419 H   0  0  0  0  0  0  0  0  0  0  0  0
   17.4045    0.2877    8.4667 H   0  0  0  0  0  0  0  0  0  0  0  0
   16.8054    2.8919    7.5863 H   0  0  0  0  0  0  0  0  0  0  0  0
   16.0950    2.5770   10.4530 H   0  0  0  0  0  0  0  0  0  0  0  0
   15.5864    5.1621   11.2672 H   0  0  0  0  0  0  0  0  0  0  0  0
   13.7399    5.8757    9.0894 H   0  0  0  0  0  0  0  0  0  0  0  0
   13.0120    5.8407   10.7789 H   0  0  0  0  0  0  0  0  0  0  0  0
   13.6465    7.9954   10.7291 H   0  0  0  0  0  0  0  0  0  0  0  0
   15.2056    7.2007   11.2997 H   0  0  0  0  0  0  0  0  0  0  0  0
   15.1546    7.3750    8.4265 H   0  0  0  0  0  0  0  0  0  0  0  0
   14.8785    8.9984    9.1733 H   0  0  0  0  0  0  0  0  0  0  0  0
   16.9800    8.6200   10.4770 H   0  0  0  0  0  0  0  0  0  0  0  0
   19.2060    8.3000   10.0890 H   0  0  0  0  0  0  0  0  0  0  0  0
   19.7190    7.3260    8.7630 H   0  0  0  0  0  0  0  0  0  0  0  0
   18.1780    6.3640    7.3130 H   0  0  0  0  0  0  0  0  0  0  0  0
   16.4860    6.5470    7.5550 H   0  0  0  0  0  0  0  0  0  0  0  0
   13.7870    2.9080   10.6210 H   0  0  0  0  0  0  0  0  0  0  0  0
   12.0247    2.7296   12.8478 H   0  0  0  0  0  0  0  0  0  0  0  0
   13.3331    1.5498   12.3883 H   0  0  0  0  0  0  0  0  0  0  0  0
   13.7439    1.0566   14.5064 H   0  0  0  0  0  0  0  0  0  0  0  0
   13.8889    2.8314   14.9210 H   0  0  0  0  0  0  0  0  0  0  0  0
   11.1794    2.5174   14.6976 H   0  0  0  0  0  0  0  0  0  0  0  0
   11.7194    0.9259   15.4160 H   0  0  0  0  0  0  0  0  0  0  0  0
   12.2203    1.8307   17.3991 H   0  0  0  0  0  0  0  0  0  0  0  0
   12.9021    3.3377   16.6335 H   0  0  0  0  0  0  0  0  0  0  0  0
   10.1839    2.7819   17.6958 H   0  0  0  0  0  0  0  0  0  0  0  0
   11.1393    4.3284   17.5636 H   0  0  0  0  0  0  0  0  0  0  0  0
   10.5180    4.0940   15.0610 H   0  0  0  0  0  0  0  0  0  0  0  0
    7.5414    3.9908   14.2187 H   0  0  0  0  0  0  0  0  0  0  0  0
    6.8088    5.8131   16.1642 H   0  0  0  0  0  0  0  0  0  0  0  0
    7.3961    6.8064   14.7179 H   0  0  0  0  0  0  0  0  0  0  0  0
    5.7325    4.8790   13.6320 H   0  0  0  0  0  0  0  0  0  0  0  0
    4.9016    5.4723   15.1632 H   0  0  0  0  0  0  0  0  0  0  0  0
    4.1530    6.7038   13.1817 H   0  0  0  0  0  0  0  0  0  0  0  0
    5.0314    7.7432   14.3878 H   0  0  0  0  0  0  0  0  0  0  0  0
    5.7508    8.3904   12.1816 H   0  0  0  0  0  0  0  0  0  0  0  0
    7.0939    7.4998   12.9836 H   0  0  0  0  0  0  0  0  0  0  0  0
    6.5490    6.8070   10.5750 H   0  0  0  0  0  0  0  0  0  0  0  0
    6.6520    5.6020   11.6850 H   0  0  0  0  0  0  0  0  0  0  0  0
    5.1640    6.1240   11.1860 H   0  0  0  0  0  0  0  0  0  0  0  0
   10.0240    5.4900   14.2820 H   0  0  0  0  0  0  0  0  0  0  0  0
   11.0829    4.4632   11.7097 H   0  0  0  0  0  0  0  0  0  0  0  0
   10.0900    5.7317   10.8414 H   0  0  0  0  0  0  0  0  0  0  0  0
   10.7116    6.6027   13.5152 H   0  0  0  0  0  0  0  0  0  0  0  0
   12.2205    6.1276   12.6084 H   0  0  0  0  0  0  0  0  0  0  0  0
   12.1133    8.2820   11.8986 H   0  0  0  0  0  0  0  0  0  0  0  0
   10.9757    7.5590   10.6956 H   0  0  0  0  0  0  0  0  0  0  0  0
    9.5644    8.2066   13.1518 H   0  0  0  0  0  0  0  0  0  0  0  0
   10.4698    9.6535   12.5123 H   0  0  0  0  0  0  0  0  0  0  0  0
    8.0058    8.4427   11.5724 H   0  0  0  0  0  0  0  0  0  0  0  0
    8.8271   10.0093   11.1152 H   0  0  0  0  0  0  0  0  0  0  0  0
    9.4580    7.3960    9.8570 H   0  0  0  0  0  0  0  0  0  0  0  0
    8.3218    7.9697    6.9832 H   0  0  0  0  0  0  0  0  0  0  0  0
   11.6068    8.2176    5.6006 H   0  0  0  0  0  0  0  0  0  0  0  0
   10.9007   11.4738    7.3035 H   0  0  0  0  0  0  0  0  0  0  0  0
   16.9260   12.6810    6.4150 H   0  0  0  0  0  0  0  0  0  0  0  0
   15.4640   13.3810    5.7870 H   0  0  0  0  0  0  0  0  0  0  0  0
   16.2703    8.3693    5.4207 H   0  0  0  0  0  0  0  0  0  0  0  0
   11.9334    8.2496    8.5979 H   0  0  0  0  0  0  0  0  0  0  0  0
   13.2130    6.8250    8.1190 H   0  0  0  0  0  0  0  0  0  0  0  0
    9.9491    6.7086    8.8245 H   0  0  0  0  0  0  0  0  0  0  0  0
    9.6670    6.4900    6.0720 H   0  0  0  0  0  0  0  0  0  0  0  0
   18.5910    0.4320    9.3960 H   0  0  0  0  0  0  0  0  0  0  0  0
   20.0690    1.2600    9.5500 H   0  0  0  0  0  0  0  0  0  0  0  0
  1  2  1  0
  2  3  2  0
  2  4  1  0
  4  5  1  0
  5  6  1  0
  6  7  1  0
  7  8  1  0
  8  9  1  0
  9 10  1  0
 10 11  2  0
 10 12  1  0
 12 13  1  0
 13 14  1  0
 14 15  1  0
 15 16  1  0
 16 17  1  0
 17 18  1  0
 17 19  2  0
 12 20  1  0
 20 21  1  0
 21 22  2  0
 21 23  1  0
 23 24  1  0
 24 25  1  0
 25 26  1  0
 26 27  1  0
 27 28  1  0
 28 29  1  0
 29 30  2  0
 29 31  1  0
 31 32  1  0
 32 33  1  0
 33 34  1  0
 34 35  1  0
 35 36  1  0
 31 37  1  0
 37 38  1  0
 38 39  2  0
 38 40  1  0
 40 41  1  0
 41 42  1  0
 42 43  1  0
 43 44  1  0
 44 45  1  0
 45 46  1  0
 46 47  2  0
 46 48  1  0
 48 49  1  0
 49 50  1  0
 50 51  1  0
 51 52  1  0
 52 53  2  0
 53 54  1  0
 54 55  2  0
 55 56  1  0
 55 57  1  0
 57 58  2  0
 58 59  1  0
 59 60  2  0
 50 61  1  0
 61 62  1  0
 61 63  1  0
 63 64  1  0
  8 65  1  0
 65 66  1  0
 65 67  2  0
 63 48  1  0
 60 51  1  0
 60 54  1  0
  1 68  1  0
  1 69  1  0
  3 70  1  0
  3 71  1  0
  4 72  1  0
  5 73  1  0
  5 74  1  0
  6 75  1  0
  6 76  1  0
  7 77  1  0
  7 78  1  0
  8 79  1  6
  9 80  1  0
 12 81  1  1
 13 82  1  0
 13 83  1  0
 14 84  1  0
 14 85  1  0
 15 86  1  0
 15 87  1  0
 16 88  1  0
 18 89  1  0
 18 90  1  0
 19 91  1  0
 19 92  1  0
 20 93  1  0
 23 94  1  0
 23 95  1  0
 24 96  1  0
 24 97  1  0
 25 98  1  0
 25 99  1  0
 26100  1  0
 26101  1  0
 27102  1  0
 27103  1  0
 28104  1  0
 31105  1  6
 32106  1  0
 32107  1  0
 33108  1  0
 33109  1  0
 34110  1  0
 34111  1  0
 35112  1  0
 35113  1  0
 36114  1  0
 36115  1  0
 36116  1  0
 37117  1  0
 40118  1  0
 40119  1  0
 41120  1  0
 41121  1  0
 42122  1  0
 42123  1  0
 43124  1  0
 43125  1  0
 44126  1  0
 44127  1  0
 45128  1  0
 48129  1  6
 50130  1  6
 52131  1  0
 56132  1  0
 56133  1  0
 58134  1  0
 61135  1  1
 62136  1  0
 63137  1  1
 64138  1  0
 66139  1  0
 66140  1  0
M  CHG  3   3   1  19   1  36   1
M  END
>  <meeko>  (7) 
{"is_sidechain": [false], "free_energy": -7.32, "intermolecular_energy": -21.391, "internal_energy": -7.705}

$$$$
3ag9_ligand
     RDKit          3D

140142  0  0  0  0  0  0  0  0999 V2000
   20.6280    4.8100    8.9560 N   0  0  0  0  0  0  0  0  0  0  0  0
   20.3870    3.4960    8.9010 C   0  0  0  0  0  0  0  0  0  0  0  0
   21.3720    2.6830    8.5140 N   0  0  0  0  0  0  0  0  0  0  0  0
   19.1650    3.0330    9.2330 N   0  0  0  0  0  0  0  0  0  0  0  0
   18.8040    1.6090    9.2300 C   0  0  0  0  0  0  0  0  0  0  0  0
   17.2910    1.3870    9.1420 C   0  0  0  0  0  0  0  0  0  0  0  0
   16.7260    1.6400    7.7380 C   0  0  0  0  0  0  0  0  0  0  0  0
   15.8440    2.9010    7.6560 C   0  0  1  0  0  0  0  0  0  0  0  0
   15.6800    3.4960    8.9820 N   0  0  0  0  0  0  0  0  0  0  0  0
   14.4260    3.4770    9.5710 C   0  0  0  0  0  0  0  0  0  0  0  0
   13.4360    3.0200    9.0070 O   0  0  0  0  0  0  0  0  0  0  0  0
   14.4010    4.0480   11.0020 C   0  0  1  0  0  0  0  0  0  0  0  0
   13.8120    5.4680   11.0230 C   0  0  0  0  0  0  0  0  0  0  0  0
   14.8420    6.6010   11.1500 C   0  0  0  0  0  0  0  0  0  0  0  0
   14.9060    7.5580    9.9600 C   0  0  0  0  0  0  0  0  0  0  0  0
   15.8660    7.0850    8.9530 N   0  0  0  0  0  0  0  0  0  0  0  0
   17.1830    7.3550    8.9850 C   0  0  0  0  0  0  0  0  0  0  0  0
   17.9780    6.8270    8.0480 N   0  0  0  0  0  0  0  0  0  0  0  0
   17.7330    8.1340    9.9160 N   0  0  0  0  0  0  0  0  0  0  0  0
   13.5780    3.1490   11.8050 N   0  0  0  0  0  0  0  0  0  0  0  0
   13.9310    2.8100   13.0940 C   0  0  0  0  0  0  0  0  0  0  0  0
   14.9730    3.1990   13.6140 O   0  0  0  0  0  0  0  0  0  0  0  0
   12.9180    1.8910   13.7590 C   0  0  0  0  0  0  0  0  0  0  0  0
   12.8600    2.0760   15.2750 C   0  0  0  0  0  0  0  0  0  0  0  0
   11.4320    2.1850   15.8290 C   0  0  0  0  0  0  0  0  0  0  0  0
   11.3610    2.8150   17.2260 C   0  0  0  0  0  0  0  0  0  0  0  0
   10.1570    3.7440   17.4020 C   0  0  0  0  0  0  0  0  0  0  0  0
    9.6850    4.3030   16.1480 N   0  0  0  0  0  0  0  0  0  0  0  0
    8.3580    4.6190   15.9570 C   0  0  0  0  0  0  0  0  0  0  0  0
    7.4560    4.3050   16.7430 O   0  0  0  0  0  0  0  0  0  0  0  0
    8.0440    5.3150   14.6170 C   0  0  1  0  0  0  0  0  0  0  0  0
    6.7830    6.1970   14.7620 C   0  0  0  0  0  0  0  0  0  0  0  0
    5.5770    5.8160   13.8860 C   0  0  0  0  0  0  0  0  0  0  0  0
    5.4980    6.5360   12.5340 C   0  0  0  0  0  0  0  0  0  0  0  0
    4.3220    7.5040   12.4600 C   0  0  0  0  0  0  0  0  0  0  0  0
    4.5290    8.6270   13.4070 N   0  0  0  0  0  0  0  0  0  0  0  0
    9.2360    6.0430   14.1890 N   0  0  0  0  0  0  0  0  0  0  0  0
   10.2130    5.3970   13.4490 C   0  0  0  0  0  0  0  0  0  0  0  0
   10.0680    4.2620   13.0150 O   0  0  0  0  0  0  0  0  0  0  0  0
   11.4540    6.2470   13.2430 C   0  0  0  0  0  0  0  0  0  0  0  0
   11.1570    7.6750   12.7900 C   0  0  0  0  0  0  0  0  0  0  0  0
   10.8010    7.7710   11.3020 C   0  0  0  0  0  0  0  0  0  0  0  0
    9.3060    8.0480   11.1160 C   0  0  0  0  0  0  0  0  0  0  0  0
    8.5610    6.8840   10.4610 C   0  0  0  0  0  0  0  0  0  0  0  0
    9.2720    6.3020    9.3380 N   0  0  0  0  0  0  0  0  0  0  0  0
    9.2480    6.8890    8.0880 C   0  0  0  0  0  0  0  0  0  0  0  0
    8.7380    7.9830    7.8630 O   0  0  0  0  0  0  0  0  0  0  0  0
    9.9920    6.0990    7.0070 C   0  0  1  0  0  0  0  0  0  0  0  0
   10.5920    6.9700    6.0380 O   0  0  0  0  0  0  0  0  0  0  0  0
   12.0180    6.9680    6.2450 C   0  0  1  0  0  0  0  0  0  0  0  0
   12.5310    8.3250    6.2050 N   0  0  0  0  0  0  0  0  0  0  0  0
   11.8330    9.4940    6.3360 C   0  0  0  0  0  0  0  0  0  0  0  0
   12.6140   10.5490    6.2100 N   0  0  0  0  0  0  0  0  0  0  0  0
   13.8750   10.0330    5.9930 C   0  0  0  0  0  0  0  0  0  0  0  0
   15.1270   10.6360    5.7870 C   0  0  0  0  0  0  0  0  0  0  0  0
   15.3110   12.0090    5.7380 N   0  0  0  0  0  0  0  0  0  0  0  0
   16.2090    9.8370    5.6410 N   0  0  0  0  0  0  0  0  0  0  0  0
   16.0320    8.5000    5.6740 C   0  0  0  0  0  0  0  0  0  0  0  0
   14.8860    7.8050    5.8640 N   0  0  0  0  0  0  0  0  0  0  0  0
   13.8470    8.6490    6.0060 C   0  0  0  0  0  0  0  0  0  0  0  0
   12.2850    6.2710    7.5820 C   0  0  2  0  0  0  0  0  0  0  0  0
   13.5110    5.5350    7.6300 O   0  0  0  0  0  0  0  0  0  0  0  0
   11.1110    5.3150    7.6770 C   0  0  2  0  0  0  0  0  0  0  0  0
   11.3930    4.1130    6.9430 O   0  0  0  0  0  0  0  0  0  0  0  0
   16.5110    3.9520    6.7250 C   0  0  0  0  0  0  0  0  0  0  0  0
   15.6550    4.6500    5.9190 N   0  0  0  0  0  0  0  0  0  0  0  0
   17.7280    4.1470    6.6550 O   0  0  0  0  0  0  0  0  0  0  0  0
   19.9260    5.4780    9.2440 H   0  0  0  0  0  0  0  0  0  0  0  0
   21.5380    5.1860    8.7160 H   0  0  0  0  0  0  0  0  0  0  0  0
   21.2480    1.6820    8.4570 H   0  0  0  0  0  0  0  0  0  0  0  0
   22.2890    3.0370    8.2710 H   0  0  0  0  0  0  0  0  0  0  0  0
   18.4830    3.7180    9.5320 H   0  0  0  0  0  0  0  0  0  0  0  0
   19.2822    1.1258    8.3652 H   0  0  0  0  0  0  0  0  0  0  0  0
   19.1506    1.1746   10.1793 H   0  0  0  0  0  0  0  0  0  0  0  0
   17.0728    0.3466    9.4249 H   0  0  0  0  0  0  0  0  0  0  0  0
   16.8137    2.1077    9.8223 H   0  0  0  0  0  0  0  0  0  0  0  0
   17.5670    1.7556    7.0385 H   0  0  0  0  0  0  0  0  0  0  0  0
   16.0903    0.7796    7.4818 H   0  0  0  0  0  0  0  0  0  0  0  0
   14.8614    2.6086    7.2573 H   0  0  0  0  0  0  0  0  0  0  0  0
   16.4330    3.3660    9.6600 H   0  0  0  0  0  0  0  0  0  0  0  0
   15.4231    4.1171   11.4027 H   0  0  0  0  0  0  0  0  0  0  0  0
   13.2537    5.6188   10.0873 H   0  0  0  0  0  0  0  0  0  0  0  0
   13.1830    5.5246   11.9236 H   0  0  0  0  0  0  0  0  0  0  0  0
   14.5932    7.1883   12.0462 H   0  0  0  0  0  0  0  0  0  0  0  0
   15.8268    6.1139   11.2036 H   0  0  0  0  0  0  0  0  0  0  0  0
   13.9088    7.6280    9.5010 H   0  0  0  0  0  0  0  0  0  0  0  0
   15.2349    8.5436   10.3211 H   0  0  0  0  0  0  0  0  0  0  0  0
   15.5340    6.5040    8.1940 H   0  0  0  0  0  0  0  0  0  0  0  0
   17.6230    6.2170    7.3220 H   0  0  0  0  0  0  0  0  0  0  0  0
   18.9750    7.0040    8.0440 H   0  0  0  0  0  0  0  0  0  0  0  0
   18.7230    8.3250    9.9410 H   0  0  0  0  0  0  0  0  0  0  0  0
   17.1770    8.6010   10.6400 H   0  0  0  0  0  0  0  0  0  0  0  0
   12.9130    2.5550   11.3200 H   0  0  0  0  0  0  0  0  0  0  0  0
   11.9230    2.1024   13.3403 H   0  0  0  0  0  0  0  0  0  0  0  0
   13.2302    0.8547   13.5624 H   0  0  0  0  0  0  0  0  0  0  0  0
   13.3517    1.2138   15.7492 H   0  0  0  0  0  0  0  0  0  0  0  0
   13.3667    3.0254   15.5028 H   0  0  0  0  0  0  0  0  0  0  0  0
   10.8375    2.8017   15.1389 H   0  0  0  0  0  0  0  0  0  0  0  0
   11.0414    1.1605   15.9172 H   0  0  0  0  0  0  0  0  0  0  0  0
   11.2937    2.0087   17.9713 H   0  0  0  0  0  0  0  0  0  0  0  0
   12.2681    3.4226   17.3597 H   0  0  0  0  0  0  0  0  0  0  0  0
    9.3373    3.1725   17.8618 H   0  0  0  0  0  0  0  0  0  0  0  0
   10.4783    4.5831   18.0366 H   0  0  0  0  0  0  0  0  0  0  0  0
   10.3660    4.7680   15.5580 H   0  0  0  0  0  0  0  0  0  0  0  0
    7.8039    4.5872   13.8279 H   0  0  0  0  0  0  0  0  0  0  0  0
    6.4612    6.1506   15.8129 H   0  0  0  0  0  0  0  0  0  0  0  0
    7.0862    7.1983   14.4221 H   0  0  0  0  0  0  0  0  0  0  0  0
    5.6249    4.7341   13.6930 H   0  0  0  0  0  0  0  0  0  0  0  0
    4.6826    6.1231   14.4479 H   0  0  0  0  0  0  0  0  0  0  0  0
    6.4299    7.0994   12.3786 H   0  0  0  0  0  0  0  0  0  0  0  0
    5.3544    5.7728   11.7549 H   0  0  0  0  0  0  0  0  0  0  0  0
    4.2402    7.9004   11.4372 H   0  0  0  0  0  0  0  0  0  0  0  0
    3.3980    6.9709   12.7284 H   0  0  0  0  0  0  0  0  0  0  0  0
    5.4770    9.0520   13.3480 H   0  0  0  0  0  0  0  0  0  0  0  0
    3.8770    9.3980   13.2220 H   0  0  0  0  0  0  0  0  0  0  0  0
    4.3910    8.3370   14.3820 H   0  0  0  0  0  0  0  0  0  0  0  0
    9.5580    6.7970   14.7850 H   0  0  0  0  0  0  0  0  0  0  0  0
   12.0045    6.2927   14.1943 H   0  0  0  0  0  0  0  0  0  0  0  0
   12.0372    5.7719   12.4404 H   0  0  0  0  0  0  0  0  0  0  0  0
   10.3110    8.0602   13.3781 H   0  0  0  0  0  0  0  0  0  0  0  0
   12.0709    8.2664   12.9479 H   0  0  0  0  0  0  0  0  0  0  0  0
   11.3785    8.5882   10.8452 H   0  0  0  0  0  0  0  0  0  0  0  0
   11.0443    6.8130   10.8192 H   0  0  0  0  0  0  0  0  0  0  0  0
    8.8593    8.2395   12.1028 H   0  0  0  0  0  0  0  0  0  0  0  0
    9.2123    8.9169   10.4480 H   0  0  0  0  0  0  0  0  0  0  0  0
    8.4039    6.1010   11.2175 H   0  0  0  0  0  0  0  0  0  0  0  0
    7.6128    7.2838   10.0723 H   0  0  0  0  0  0  0  0  0  0  0  0
    9.4930    5.3150    9.3960 H   0  0  0  0  0  0  0  0  0  0  0  0
    9.2705    5.4424    6.4987 H   0  0  0  0  0  0  0  0  0  0  0  0
   12.5426    6.4213    5.4476 H   0  0  0  0  0  0  0  0  0  0  0  0
   10.7505    9.5476    6.5238 H   0  0  0  0  0  0  0  0  0  0  0  0
   16.1850   12.3280    6.1420 H   0  0  0  0  0  0  0  0  0  0  0  0
   15.0030   12.4260    4.8720 H   0  0  0  0  0  0  0  0  0  0  0  0
   16.9386    7.8947    5.5271 H   0  0  0  0  0  0  0  0  0  0  0  0
   12.3814    6.9983    8.4016 H   0  0  0  0  0  0  0  0  0  0  0  0
   13.4470    4.9450    8.4150 H   0  0  0  0  0  0  0  0  0  0  0  0
   10.8730    5.0023    8.7044 H   0  0  0  0  0  0  0  0  0  0  0  0
   11.0100    3.3890    7.4860 H   0  0  0  0  0  0  0  0  0  0  0  0
   14.7100    4.8300    6.2430 H   0  0  0  0  0  0  0  0  0  0  0  0
   16.0610    5.4170    5.3950 H   0  0  0  0  0  0  0  0  0  0  0  0
  1  2  1  0
  2  3  2  0
  2  4  1  0
  4  5  1  0
  5  6  1  0
  6  7  1  0
  7  8  1  0
  8  9  1  0
  9 10  1  0
 10 11  2  0
 10 12  1  0
 12 13  1  0
 13 14  1  0
 14 15  1  0
 15 16  1  0
 16 17  1  0
 17 18  1  0
 17 19  2  0
 12 20  1  0
 20 21  1  0
 21 22  2  0
 21 23  1  0
 23 24  1  0
 24 25  1  0
 25 26  1  0
 26 27  1  0
 27 28  1  0
 28 29  1  0
 29 30  2  0
 29 31  1  0
 31 32  1  0
 32 33  1  0
 33 34  1  0
 34 35  1  0
 35 36  1  0
 31 37  1  0
 37 38  1  0
 38 39  2  0
 38 40  1  0
 40 41  1  0
 41 42  1  0
 42 43  1  0
 43 44  1  0
 44 45  1  0
 45 46  1  0
 46 47  2  0
 46 48  1  0
 48 49  1  0
 49 50  1  0
 50 51  1  0
 51 52  1  0
 52 53  2  0
 53 54  1  0
 54 55  2  0
 55 56  1  0
 55 57  1  0
 57 58  2  0
 58 59  1  0
 59 60  2  0
 50 61  1  0
 61 62  1  0
 61 63  1  0
 63 64  1  0
  8 65  1  0
 65 66  1  0
 65 67  2  0
 63 48  1  0
 60 51  1  0
 60 54  1  0
  1 68  1  0
  1 69  1  0
  3 70  1  0
  3 71  1  0
  4 72  1  0
  5 73  1  0
  5 74  1  0
  6 75  1  0
  6 76  1  0
  7 77  1  0
  7 78  1  0
  8 79  1  6
  9 80  1  0
 12 81  1  1
 13 82  1  0
 13 83  1  0
 14 84  1  0
 14 85  1  0
 15 86  1  0
 15 87  1  0
 16 88  1  0
 18 89  1  0
 18 90  1  0
 19 91  1  0
 19 92  1  0
 20 93  1  0
 23 94  1  0
 23 95  1  0
 24 96  1  0
 24 97  1  0
 25 98  1  0
 25 99  1  0
 26100  1  0
 26101  1  0
 27102  1  0
 27103  1  0
 28104  1  0
 31105  1  6
 32106  1  0
 32107  1  0
 33108  1  0
 33109  1  0
 34110  1  0
 34111  1  0
 35112  1  0
 35113  1  0
 36114  1  0
 36115  1  0
 36116  1  0
 37117  1  0
 40118  1  0
 40119  1  0
 41120  1  0
 41121  1  0
 42122  1  0
 42123  1  0
 43124  1  0
 43125  1  0
 44126  1  0
 44127  1  0
 45128  1  0
 48129  1  6
 50130  1  6
 52131  1  0
 56132  1  0
 56133  1  0
 58134  1  0
 61135  1  1
 62136  1  0
 63137  1  1
 64138  1  0
 66139  1  0
 66140  1  0
M  CHG  3   3   1  19   1  36   1
M  END
>  <meeko>  (8) 
{"is_sidechain": [false], "free_energy": -7.286, "intermolecular_energy": -20.974, "internal_energy": -8.021}

$$$$
3ag9_ligand
     RDKit          3D

140142  0  0  0  0  0  0  0  0999 V2000
   17.9560    7.9480    9.7300 N   0  0  0  0  0  0  0  0  0  0  0  0
   16.7060    7.9970    9.2610 C   0  0  0  0  0  0  0  0  0  0  0  0
   16.0190    9.1340    9.3950 N   0  0  0  0  0  0  0  0  0  0  0  0
   16.1760    6.9070    8.6720 N   0  0  0  0  0  0  0  0  0  0  0  0
   14.8230    6.8620    8.1020 C   0  0  0  0  0  0  0  0  0  0  0  0
   14.7440    6.0000    6.8380 C   0  0  0  0  0  0  0  0  0  0  0  0
   15.8140    6.3570    5.7970 C   0  0  0  0  0  0  0  0  0  0  0  0
   16.7560    5.1840    5.4670 C   0  0  1  0  0  0  0  0  0  0  0  0
   16.3200    3.9690    6.1560 N   0  0  0  0  0  0  0  0  0  0  0  0
   17.2380    3.2730    6.9250 C   0  0  0  0  0  0  0  0  0  0  0  0
   18.4150    3.6090    7.0170 O   0  0  0  0  0  0  0  0  0  0  0  0
   16.6370    2.0680    7.6740 C   0  0  1  0  0  0  0  0  0  0  0  0
   17.2380    1.9340    9.0820 C   0  0  0  0  0  0  0  0  0  0  0  0
   18.2200    0.7660    9.2660 C   0  0  0  0  0  0  0  0  0  0  0  0
   19.4630    1.0850   10.0950 C   0  0  0  0  0  0  0  0  0  0  0  0
   20.6370    1.2830    9.2320 N   0  0  0  0  0  0  0  0  0  0  0  0
   21.1040    2.4900    8.8660 C   0  0  0  0  0  0  0  0  0  0  0  0
   22.2140    2.5600    8.1240 N   0  0  0  0  0  0  0  0  0  0  0  0
   20.5010    3.6280    9.2100 N   0  0  0  0  0  0  0  0  0  0  0  0
   15.1980    2.2940    7.7600 N   0  0  0  0  0  0  0  0  0  0  0  0
   14.3060    1.2430    7.7850 C   0  0  0  0  0  0  0  0  0  0  0  0
   14.6650    0.0720    7.6850 O   0  0  0  0  0  0  0  0  0  0  0  0
   12.8610    1.7000    7.9110 C   0  0  0  0  0  0  0  0  0  0  0  0
   12.7390    3.1730    8.3000 C   0  0  0  0  0  0  0  0  0  0  0  0
   11.3940    3.8040    7.9130 C   0  0  0  0  0  0  0  0  0  0  0  0
   10.4670    4.0560    9.1100 C   0  0  0  0  0  0  0  0  0  0  0  0
    9.8340    5.4500    9.0920 C   0  0  0  0  0  0  0  0  0  0  0  0
   10.3140    6.3020   10.1640 N   0  0  0  0  0  0  0  0  0  0  0  0
   10.4210    7.6670   10.0050 C   0  0  0  0  0  0  0  0  0  0  0  0
   10.2880    8.2440    8.9190 O   0  0  0  0  0  0  0  0  0  0  0  0
   10.8290    8.4380   11.2760 C   0  0  1  0  0  0  0  0  0  0  0  0
    9.5940    8.6620   12.1780 C   0  0  0  0  0  0  0  0  0  0  0  0
    8.2970    9.0890   11.4690 C   0  0  0  0  0  0  0  0  0  0  0  0
    7.3640    9.9820   12.2970 C   0  0  0  0  0  0  0  0  0  0  0  0
    6.3760   10.7530   11.4270 C   0  0  0  0  0  0  0  0  0  0  0  0
    6.7140   12.1970   11.4330 N   0  0  0  0  0  0  0  0  0  0  0  0
   11.9180    7.7120   11.9230 N   0  0  0  0  0  0  0  0  0  0  0  0
   13.2220    7.8910   11.4920 C   0  0  0  0  0  0  0  0  0  0  0  0
   13.5330    8.7400   10.6680 O   0  0  0  0  0  0  0  0  0  0  0  0
   14.1970    6.9330   12.1520 C   0  0  0  0  0  0  0  0  0  0  0  0
   14.2510    5.5550   11.4960 C   0  0  0  0  0  0  0  0  0  0  0  0
   13.0920    4.6440   11.9180 C   0  0  0  0  0  0  0  0  0  0  0  0
   13.5230    3.1740   11.9090 C   0  0  0  0  0  0  0  0  0  0  0  0
   13.1780    2.4430   13.2070 C   0  0  0  0  0  0  0  0  0  0  0  0
   12.6560    3.3170   14.2400 N   0  0  0  0  0  0  0  0  0  0  0  0
   11.6450    2.9070   15.0880 C   0  0  0  0  0  0  0  0  0  0  0  0
   11.2050    1.7620   15.1120 O   0  0  0  0  0  0  0  0  0  0  0  0
   11.1680    3.9840   16.0670 C   0  0  1  0  0  0  0  0  0  0  0  0
   10.5770    5.0960   15.3790 O   0  0  0  0  0  0  0  0  0  0  0  0
    9.1520    5.0540   15.5870 C   0  0  1  0  0  0  0  0  0  0  0  0
    8.4570    5.2840   14.3340 N   0  0  0  0  0  0  0  0  0  0  0  0
    8.9310    5.1090   13.0630 C   0  0  0  0  0  0  0  0  0  0  0  0
    8.0390    5.4520   12.1550 N   0  0  0  0  0  0  0  0  0  0  0  0
    6.9370    5.8640   12.8760 C   0  0  0  0  0  0  0  0  0  0  0  0
    5.6740    6.3410   12.4930 C   0  0  0  0  0  0  0  0  0  0  0  0
    5.2970    6.5210   11.1710 N   0  0  0  0  0  0  0  0  0  0  0  0
    4.7750    6.6300   13.4620 N   0  0  0  0  0  0  0  0  0  0  0  0
    5.1420    6.4700   14.7510 C   0  0  0  0  0  0  0  0  0  0  0  0
    6.3210    6.0210   15.2430 N   0  0  0  0  0  0  0  0  0  0  0  0
    7.1720    5.7480   14.2360 C   0  0  0  0  0  0  0  0  0  0  0  0
    8.8190    3.6950   16.2090 C   0  0  2  0  0  0  0  0  0  0  0  0
    7.7170    3.7160   17.1210 O   0  0  0  0  0  0  0  0  0  0  0  0
   10.0980    3.3730   16.9610 C   0  0  2  0  0  0  0  0  0  0  0  0
   10.0890    4.0130   18.2460 O   0  0  0  0  0  0  0  0  0  0  0  0
   16.7420    4.9110    3.9360 C   0  0  0  0  0  0  0  0  0  0  0  0
   17.8740    4.3320    3.4330 N   0  0  0  0  0  0  0  0  0  0  0  0
   15.8140    5.2180    3.1820 O   0  0  0  0  0  0  0  0  0  0  0  0
   18.5300    7.1200    9.6560 H   0  0  0  0  0  0  0  0  0  0  0  0
   18.3810    8.7550   10.1730 H   0  0  0  0  0  0  0  0  0  0  0  0
   15.0710    9.2300    9.0560 H   0  0  0  0  0  0  0  0  0  0  0  0
   16.4240    9.9510    9.8330 H   0  0  0  0  0  0  0  0  0  0  0  0
   16.7740    6.0930    8.5970 H   0  0  0  0  0  0  0  0  0  0  0  0
   14.1372    6.4465    8.8551 H   0  0  0  0  0  0  0  0  0  0  0  0
   14.5452    7.8890    7.8225 H   0  0  0  0  0  0  0  0  0  0  0  0
   14.8727    4.9458    7.1247 H   0  0  0  0  0  0  0  0  0  0  0  0
   13.7629    6.1848    6.3761 H   0  0  0  0  0  0  0  0  0  0  0  0
   15.3098    6.6713    4.8713 H   0  0  0  0  0  0  0  0  0  0  0  0
   16.4310    7.1606    6.2254 H   0  0  0  0  0  0  0  0  0  0  0  0
   17.7700    5.4537    5.7974 H   0  0  0  0  0  0  0  0  0  0  0  0
   15.3830    3.9610    6.5620 H   0  0  0  0  0  0  0  0  0  0  0  0
   16.8622    1.1348    7.1369 H   0  0  0  0  0  0  0  0  0  0  0  0
   17.7719    2.8673    9.3143 H   0  0  0  0  0  0  0  0  0  0  0  0
   16.3930    1.7315    9.7565 H   0  0  0  0  0  0  0  0  0  0  0  0
   17.6822   -0.0557    9.7616 H   0  0  0  0  0  0  0  0  0  0  0  0
   18.5821    0.5105    8.2592 H   0  0  0  0  0  0  0  0  0  0  0  0
   19.2833    2.0031   10.6737 H   0  0  0  0  0  0  0  0  0  0  0  0
   19.6620    0.2376   10.7675 H   0  0  0  0  0  0  0  0  0  0  0  0
   21.1460    0.4740    8.9040 H   0  0  0  0  0  0  0  0  0  0  0  0
   22.7250    1.7320    7.8410 H   0  0  0  0  0  0  0  0  0  0  0  0
   22.5980    3.4500    7.8330 H   0  0  0  0  0  0  0  0  0  0  0  0
   20.8620    4.5300    8.9400 H   0  0  0  0  0  0  0  0  0  0  0  0
   19.6260    3.6460    9.7450 H   0  0  0  0  0  0  0  0  0  0  0  0
   14.8460    3.2120    7.5100 H   0  0  0  0  0  0  0  0  0  0  0  0
   12.3587    1.5488    6.9441 H   0  0  0  0  0  0  0  0  0  0  0  0
   12.3936    1.1059    8.7101 H   0  0  0  0  0  0  0  0  0  0  0  0
   12.8605    3.2555    9.3902 H   0  0  0  0  0  0  0  0  0  0  0  0
   13.5199    3.7170    7.7484 H   0  0  0  0  0  0  0  0  0  0  0  0
   11.5909    4.7659    7.4170 H   0  0  0  0  0  0  0  0  0  0  0  0
   10.8808    3.0901    7.2520 H   0  0  0  0  0  0  0  0  0  0  0  0
    9.6630    3.3055    9.0950 H   0  0  0  0  0  0  0  0  0  0  0  0
   11.0786    3.9836   10.0214 H   0  0  0  0  0  0  0  0  0  0  0  0
   10.0689    5.9298    8.1304 H   0  0  0  0  0  0  0  0  0  0  0  0
    8.7504    5.3223    9.2319 H   0  0  0  0  0  0  0  0  0  0  0  0
   10.2430    5.9470   11.1120 H   0  0  0  0  0  0  0  0  0  0  0  0
   11.2041    9.4442   11.0373 H   0  0  0  0  0  0  0  0  0  0  0  0
    9.3911    7.7195   12.7076 H   0  0  0  0  0  0  0  0  0  0  0  0
    9.8598    9.5048   12.8331 H   0  0  0  0  0  0  0  0  0  0  0  0
    8.5728    9.6383   10.5567 H   0  0  0  0  0  0  0  0  0  0  0  0
    7.7375    8.1627   11.2717 H   0  0  0  0  0  0  0  0  0  0  0  0
    6.7993    9.3496   12.9978 H   0  0  0  0  0  0  0  0  0  0  0  0
    7.9866   10.7159   12.8296 H   0  0  0  0  0  0  0  0  0  0  0  0
    6.4239   10.3720   10.3962 H   0  0  0  0  0  0  0  0  0  0  0  0
    5.3605   10.6183   11.8278 H   0  0  0  0  0  0  0  0  0  0  0  0
    6.4020   12.7020   10.5770 H   0  0  0  0  0  0  0  0  0  0  0  0
    6.2580   12.6850   12.2130 H   0  0  0  0  0  0  0  0  0  0  0  0
    7.7240   12.3540   11.5220 H   0  0  0  0  0  0  0  0  0  0  0  0
   11.7010    6.8010   12.3120 H   0  0  0  0  0  0  0  0  0  0  0  0
   15.2024    7.3772   12.1079 H   0  0  0  0  0  0  0  0  0  0  0  0
   13.8468    6.7818   13.1837 H   0  0  0  0  0  0  0  0  0  0  0  0
   14.2150    5.6850   10.4043 H   0  0  0  0  0  0  0  0  0  0  0  0
   15.1841    5.0721   11.8218 H   0  0  0  0  0  0  0  0  0  0  0  0
   12.7688    4.9186   12.9330 H   0  0  0  0  0  0  0  0  0  0  0  0
   12.2650    4.7728   11.2042 H   0  0  0  0  0  0  0  0  0  0  0  0
   13.0172    2.6654   11.0750 H   0  0  0  0  0  0  0  0  0  0  0  0
   14.6173    3.1523   11.7997 H   0  0  0  0  0  0  0  0  0  0  0  0
   12.4217    1.6759   12.9845 H   0  0  0  0  0  0  0  0  0  0  0  0
   14.1118    2.0075   13.5920 H   0  0  0  0  0  0  0  0  0  0  0  0
   12.7960    4.3130   14.1150 H   0  0  0  0  0  0  0  0  0  0  0  0
   12.0360    4.3402   16.6412 H   0  0  0  0  0  0  0  0  0  0  0  0
    8.8195    5.8491   16.2705 H   0  0  0  0  0  0  0  0  0  0  0  0
    9.9355    4.7279   12.8269 H   0  0  0  0  0  0  0  0  0  0  0  0
    4.2940    6.5210   11.0190 H   0  0  0  0  0  0  0  0  0  0  0  0
    5.8560    7.2050   10.6830 H   0  0  0  0  0  0  0  0  0  0  0  0
    4.3835    6.7399   15.5005 H   0  0  0  0  0  0  0  0  0  0  0  0
    8.5136    2.9672   15.4428 H   0  0  0  0  0  0  0  0  0  0  0  0
    7.3080    2.8220   17.0780 H   0  0  0  0  0  0  0  0  0  0  0  0
   10.2458    2.2996   17.1510 H   0  0  0  0  0  0  0  0  0  0  0  0
   10.1660    4.9730   18.0510 H   0  0  0  0  0  0  0  0  0  0  0  0
   18.4120    3.7070    4.0250 H   0  0  0  0  0  0  0  0  0  0  0  0
   17.8330    4.0420    2.4620 H   0  0  0  0  0  0  0  0  0  0  0  0
  1  2  1  0
  2  3  2  0
  2  4  1  0
  4  5  1  0
  5  6  1  0
  6  7  1  0
  7  8  1  0
  8  9  1  0
  9 10  1  0
 10 11  2  0
 10 12  1  0
 12 13  1  0
 13 14  1  0
 14 15  1  0
 15 16  1  0
 16 17  1  0
 17 18  1  0
 17 19  2  0
 12 20  1  0
 20 21  1  0
 21 22  2  0
 21 23  1  0
 23 24  1  0
 24 25  1  0
 25 26  1  0
 26 27  1  0
 27 28  1  0
 28 29  1  0
 29 30  2  0
 29 31  1  0
 31 32  1  0
 32 33  1  0
 33 34  1  0
 34 35  1  0
 35 36  1  0
 31 37  1  0
 37 38  1  0
 38 39  2  0
 38 40  1  0
 40 41  1  0
 41 42  1  0
 42 43  1  0
 43 44  1  0
 44 45  1  0
 45 46  1  0
 46 47  2  0
 46 48  1  0
 48 49  1  0
 49 50  1  0
 50 51  1  0
 51 52  1  0
 52 53  2  0
 53 54  1  0
 54 55  2  0
 55 56  1  0
 55 57  1  0
 57 58  2  0
 58 59  1  0
 59 60  2  0
 50 61  1  0
 61 62  1  0
 61 63  1  0
 63 64  1  0
  8 65  1  0
 65 66  1  0
 65 67  2  0
 63 48  1  0
 60 51  1  0
 60 54  1  0
  1 68  1  0
  1 69  1  0
  3 70  1  0
  3 71  1  0
  4 72  1  0
  5 73  1  0
  5 74  1  0
  6 75  1  0
  6 76  1  0
  7 77  1  0
  7 78  1  0
  8 79  1  1
  9 80  1  0
 12 81  1  6
 13 82  1  0
 13 83  1  0
 14 84  1  0
 14 85  1  0
 15 86  1  0
 15 87  1  0
 16 88  1  0
 18 89  1  0
 18 90  1  0
 19 91  1  0
 19 92  1  0
 20 93  1  0
 23 94  1  0
 23 95  1  0
 24 96  1  0
 24 97  1  0
 25 98  1  0
 25 99  1  0
 26100  1  0
 26101  1  0
 27102  1  0
 27103  1  0
 28104  1  0
 31105  1  6
 32106  1  0
 32107  1  0
 33108  1  0
 33109  1  0
 34110  1  0
 34111  1  0
 35112  1  0
 35113  1  0
 36114  1  0
 36115  1  0
 36116  1  0
 37117  1  0
 40118  1  0
 40119  1  0
 41120  1  0
 41121  1  0
 42122  1  0
 42123  1  0
 43124  1  0
 43125  1  0
 44126  1  0
 44127  1  0
 45128  1  0
 48129  1  1
 50130  1  1
 52131  1  0
 56132  1  0
 56133  1  0
 58134  1  0
 61135  1  6
 62136  1  0
 63137  1  1
 64138  1  0
 66139  1  0
 66140  1  0
M  CHG  3   3   1  19   1  36   1
M  END
>  <meeko>  (9) 
{"is_sidechain": [false], "free_energy": -7.265, "intermolecular_energy": -21.849, "internal_energy": -7.083}

$$$$
