3zso_ligand
     RDKit          3D

 78 82  0  0  0  0  0  0  0  0999 V2000
  -13.9480   44.6330   -3.2930 C   0  0  0  0  0  0  0  0  0  0  0  0
  -13.7310   43.6080   -2.4580 C   0  0  0  0  0  0  0  0  0  0  0  0
  -12.3840   43.2110   -1.9280 C   0  0  0  0  0  0  0  0  0  0  0  0
  -11.4560   44.3880   -1.8110 N   0  0  2  0  0  0  0  0  0  0  0  0
  -10.0080   44.0020   -2.0780 C   0  0  0  0  0  0  0  0  0  0  0  0
   -9.4810   42.8580   -1.2400 C   0  0  0  0  0  0  0  0  0  0  0  0
   -9.8790   41.5390   -1.5120 C   0  0  0  0  0  0  0  0  0  0  0  0
   -9.3560   40.4740   -0.7740 C   0  0  0  0  0  0  0  0  0  0  0  0
   -8.4260   40.7060    0.2400 C   0  0  0  0  0  0  0  0  0  0  0  0
   -8.0160   42.0060    0.5240 C   0  0  0  0  0  0  0  0  0  0  0  0
   -8.5420   43.0710   -0.2120 C   0  0  0  0  0  0  0  0  0  0  0  0
   -8.1360   44.4450    0.1350 C   0  0  0  0  0  0  0  0  0  0  0  0
   -7.4720   45.0730   -0.6790 O   0  0  0  0  0  0  0  0  0  0  0  0
   -8.4770   44.8450    1.4000 N   0  0  0  0  0  0  0  0  0  0  0  0
   -7.8250   45.9940    2.0160 C   0  0  0  0  0  0  0  0  0  0  0  0
   -7.1490   45.5410    3.3070 C   0  0  0  0  0  0  0  0  0  0  0  0
   -6.9800   44.1670    3.5420 C   0  0  0  0  0  0  0  0  0  0  0  0
   -6.4070   43.7120    4.7320 C   0  0  0  0  0  0  0  0  0  0  0  0
   -5.9950   44.6130    5.7150 C   0  0  0  0  0  0  0  0  0  0  0  0
   -5.4490   44.0370    6.8290 O   0  0  0  0  0  0  0  0  0  0  0  0
   -4.1950   43.3870    6.6670 C   0  0  0  0  0  0  0  0  0  0  0  0
   -6.1750   45.9780    5.5010 C   0  0  0  0  0  0  0  0  0  0  0  0
   -6.7540   46.4380    4.3110 C   0  0  0  0  0  0  0  0  0  0  0  0
   -8.7550   47.1930    2.1890 C   0  0  0  0  0  0  0  0  0  0  0  0
   -8.3000   48.4720    1.8250 C   0  0  0  0  0  0  0  0  0  0  0  0
   -9.1090   49.6020    1.9880 C   0  0  0  0  0  0  0  0  0  0  0  0
  -10.3890   49.4750    2.5250 C   0  0  0  0  0  0  0  0  0  0  0  0
  -11.2780   50.4920    2.7390 O   0  0  0  0  0  0  0  0  0  0  0  0
  -12.5290   50.1380    3.3150 C   0  0  0  0  0  0  0  0  0  0  0  0
  -10.8490   48.2100    2.8960 C   0  0  0  0  0  0  0  0  0  0  0  0
  -10.0430   47.0800    2.7330 C   0  0  0  0  0  0  0  0  0  0  0  0
  -11.5880   45.0350   -0.4380 C   0  0  0  0  0  0  0  0  0  0  0  0
  -11.8650   46.5210   -0.4820 C   0  0  0  0  0  0  0  0  0  0  0  0
  -10.8710   47.4140   -0.9480 C   0  0  0  0  0  0  0  0  0  0  0  0
  -11.1030   48.7910   -0.9710 C   0  0  0  0  0  0  0  0  0  0  0  0
  -12.3250   49.2480   -0.5220 C   0  0  0  0  0  0  0  0  0  0  0  0
  -13.3040   48.3980   -0.0600 C   0  0  0  0  0  0  0  0  0  0  0  0
  -13.1080   47.0310   -0.0260 C   0  0  0  0  0  0  0  0  0  0  0  0
  -14.1430   46.1050    0.5130 C   0  0  0  0  0  0  0  0  0  0  0  0
  -14.2000   46.0060    1.7730 O   0  0  0  0  0  0  0  0  0  0  0  0
  -15.0030   45.6840   -0.3190 O   0  0  0  0  0  0  0  0  0  0  0  0
  -14.4180   49.0730    0.3280 O   0  0  0  0  0  0  0  0  0  0  0  0
  -14.0390   50.4310    0.0530 C   0  0  0  0  0  0  0  0  0  0  0  0
  -12.7020   50.5560   -0.4770 O   0  0  0  0  0  0  0  0  0  0  0  0
  -14.9692   44.8572   -3.6349 H   0  0  0  0  0  0  0  0  0  0  0  0
  -13.1050   45.2504   -3.6367 H   0  0  0  0  0  0  0  0  0  0  0  0
  -14.6011   43.0158   -2.1384 H   0  0  0  0  0  0  0  0  0  0  0  0
  -12.5126   42.7598   -0.9331 H   0  0  0  0  0  0  0  0  0  0  0  0
  -11.9381   42.4955   -2.6345 H   0  0  0  0  0  0  0  0  0  0  0  0
  -11.7080   45.0870   -2.5060 H   0  0  0  0  0  0  0  0  0  0  0  0
   -9.9218   43.7161   -3.1367 H   0  0  0  0  0  0  0  0  0  0  0  0
   -9.4034   44.8808   -1.8093 H   0  0  0  0  0  0  0  0  0  0  0  0
  -10.6080   41.3428   -2.3121 H   0  0  0  0  0  0  0  0  0  0  0  0
   -9.6796   39.4459   -0.9939 H   0  0  0  0  0  0  0  0  0  0  0  0
   -8.0169   39.8621    0.8149 H   0  0  0  0  0  0  0  0  0  0  0  0
   -7.2829   42.1934    1.3224 H   0  0  0  0  0  0  0  0  0  0  0  0
   -8.8210   44.1420    2.0440 H   0  0  0  0  0  0  0  0  0  0  0  0
   -7.0482   46.3740    1.3362 H   0  0  0  0  0  0  0  0  0  0  0  0
   -7.3023   43.4411    2.7809 H   0  0  0  0  0  0  0  0  0  0  0  0
   -6.2791   42.6318    4.8961 H   0  0  0  0  0  0  0  0  0  0  0  0
   -3.7667   43.1650    7.6556 H   0  0  0  0  0  0  0  0  0  0  0  0
   -4.3374   42.4492    6.1101 H   0  0  0  0  0  0  0  0  0  0  0  0
   -3.5107   44.0439    6.1101 H   0  0  0  0  0  0  0  0  0  0  0  0
   -5.8608   46.6984    6.2706 H   0  0  0  0  0  0  0  0  0  0  0  0
   -6.9010   47.5179    4.1617 H   0  0  0  0  0  0  0  0  0  0  0  0
   -7.2900   48.5867    1.4045 H   0  0  0  0  0  0  0  0  0  0  0  0
   -8.7340   50.5928    1.6917 H   0  0  0  0  0  0  0  0  0  0  0  0
  -12.4474   50.1611    4.4117 H   0  0  0  0  0  0  0  0  0  0  0  0
  -13.2982   50.8537    2.9894 H   0  0  0  0  0  0  0  0  0  0  0  0
  -12.8091   49.1253    2.9894 H   0  0  0  0  0  0  0  0  0  0  0  0
  -11.8575   48.1015    3.3215 H   0  0  0  0  0  0  0  0  0  0  0  0
  -10.4223   46.0924    3.0342 H   0  0  0  0  0  0  0  0  0  0  0  0
  -12.4146   44.5448    0.0973 H   0  0  0  0  0  0  0  0  0  0  0  0
  -10.6200   44.9067    0.0685 H   0  0  0  0  0  0  0  0  0  0  0  0
   -9.9050   47.0192   -1.2959 H   0  0  0  0  0  0  0  0  0  0  0  0
  -10.3354   49.4894   -1.3357 H   0  0  0  0  0  0  0  0  0  0  0  0
  -14.7452   50.8487   -0.6797 H   0  0  0  0  0  0  0  0  0  0  0  0
  -14.0621   50.9749    1.0088 H   0  0  0  0  0  0  0  0  0  0  0  0
  1  2  2  0
  2  3  1  0
  3  4  1  0
  4  5  1  0
  5  6  1  0
  6  7  2  0
  7  8  1  0
  8  9  2  0
  9 10  1  0
 10 11  2  0
 11 12  1  0
 12 13  2  0
 12 14  1  0
 14 15  1  0
 15 16  1  0
 16 17  2  0
 17 18  1  0
 18 19  2  0
 19 20  1  0
 20 21  1  0
 19 22  1  0
 22 23  2  0
 15 24  1  0
 24 25  2  0
 25 26  1  0
 26 27  2  0
 27 28  1  0
 28 29  1  0
 27 30  1  0
 30 31  2  0
  4 32  1  0
 32 33  1  0
 33 34  2  0
 34 35  1  0
 35 36  2  0
 36 37  1  0
 37 38  2  0
 38 39  1  0
 39 40  2  0
 39 41  1  0
 37 42  1  0
 42 43  1  0
 43 44  1  0
 11  6  1  0
 23 16  1  0
 31 24  1  0
 38 33  1  0
 44 36  1  0
  1 45  1  0
  1 46  1  0
  2 47  1  0
  3 48  1  0
  3 49  1  0
  4 50  1  6
  5 51  1  0
  5 52  1  0
  7 53  1  0
  8 54  1  0
  9 55  1  0
 10 56  1  0
 14 57  1  0
 15 58  1  0
 17 59  1  0
 18 60  1  0
 21 61  1  0
 21 62  1  0
 21 63  1  0
 22 64  1  0
 23 65  1  0
 25 66  1  0
 26 67  1  0
 29 68  1  0
 29 69  1  0
 29 70  1  0
 30 71  1  0
 31 72  1  0
 32 73  1  0
 32 74  1  0
 34 75  1  0
 35 76  1  0
 43 77  1  0
 43 78  1  0
M  CHG  2   4   1  41  -1
M  END
>  <meeko>  (1) 
{"is_sidechain": [false], "free_energy": -7.868, "intermolecular_energy": -13.848, "internal_energy": -4.267}

$$$$
3zso_ligand
     RDKit          3D

 78 82  0  0  0  0  0  0  0  0999 V2000
   -9.2320   50.0740   -1.8600 C   0  0  0  0  0  0  0  0  0  0  0  0
   -9.7530   48.9480   -1.3540 C   0  0  0  0  0  0  0  0  0  0  0  0
  -11.1920   48.7760   -0.9620 C   0  0  0  0  0  0  0  0  0  0  0  0
  -11.3350   48.2460    0.4380 N   0  0  2  0  0  0  0  0  0  0  0  0
  -10.3100   48.8530    1.3860 C   0  0  0  0  0  0  0  0  0  0  0  0
  -10.7450   48.9450    2.8320 C   0  0  0  0  0  0  0  0  0  0  0  0
  -11.9710   49.5430    3.1660 C   0  0  0  0  0  0  0  0  0  0  0  0
  -12.4000   49.5850    4.4960 C   0  0  0  0  0  0  0  0  0  0  0  0
  -11.6180   49.0290    5.5090 C   0  0  0  0  0  0  0  0  0  0  0  0
  -10.4000   48.4290    5.1980 C   0  0  0  0  0  0  0  0  0  0  0  0
   -9.9700   48.3900    3.8680 C   0  0  0  0  0  0  0  0  0  0  0  0
   -8.6560   47.7970    3.5630 C   0  0  0  0  0  0  0  0  0  0  0  0
   -7.6670   48.5130    3.6450 O   0  0  0  0  0  0  0  0  0  0  0  0
   -8.6970   46.5020    3.1200 N   0  0  0  0  0  0  0  0  0  0  0  0
   -7.5570   45.9190    2.4230 C   0  0  0  0  0  0  0  0  0  0  0  0
   -8.0710   44.9280    1.3830 C   0  0  0  0  0  0  0  0  0  0  0  0
   -7.5750   44.9960    0.0720 C   0  0  0  0  0  0  0  0  0  0  0  0
   -8.0550   44.1350   -0.9180 C   0  0  0  0  0  0  0  0  0  0  0  0
   -9.0420   43.1920   -0.6270 C   0  0  0  0  0  0  0  0  0  0  0  0
   -9.4210   42.4120   -1.6830 O   0  0  0  0  0  0  0  0  0  0  0  0
  -10.5770   41.6040   -1.5030 C   0  0  0  0  0  0  0  0  0  0  0  0
   -9.5560   43.1280    0.6670 C   0  0  0  0  0  0  0  0  0  0  0  0
   -9.0800   43.9930    1.6620 C   0  0  0  0  0  0  0  0  0  0  0  0
   -6.5050   45.3390    3.3670 C   0  0  0  0  0  0  0  0  0  0  0  0
   -5.1580   45.3250    2.9670 C   0  0  0  0  0  0  0  0  0  0  0  0
   -4.1650   44.7820    3.7900 C   0  0  0  0  0  0  0  0  0  0  0  0
   -4.5010   44.2380    5.0280 C   0  0  0  0  0  0  0  0  0  0  0  0
   -3.6330   43.6760    5.9250 O   0  0  0  0  0  0  0  0  0  0  0  0
   -4.2090   43.0330    7.0550 C   0  0  0  0  0  0  0  0  0  0  0  0
   -5.8370   44.2420    5.4330 C   0  0  0  0  0  0  0  0  0  0  0  0
   -6.8310   44.7830    4.6130 C   0  0  0  0  0  0  0  0  0  0  0  0
  -11.2290   46.7260    0.4450 C   0  0  0  0  0  0  0  0  0  0  0  0
  -12.0630   46.0470   -0.6180 C   0  0  0  0  0  0  0  0  0  0  0  0
  -11.4510   45.5710   -1.8020 C   0  0  0  0  0  0  0  0  0  0  0  0
  -12.2110   44.9650   -2.8040 C   0  0  0  0  0  0  0  0  0  0  0  0
  -13.5710   44.8500   -2.6040 C   0  0  0  0  0  0  0  0  0  0  0  0
  -14.1880   45.3100   -1.4630 C   0  0  0  0  0  0  0  0  0  0  0  0
  -13.4650   45.9130   -0.4510 C   0  0  0  0  0  0  0  0  0  0  0  0
  -14.1280   46.4550    0.7690 C   0  0  0  0  0  0  0  0  0  0  0  0
  -14.3270   47.7030    0.7860 O   0  0  0  0  0  0  0  0  0  0  0  0
  -14.6240   45.5970    1.5610 O   0  0  0  0  0  0  0  0  0  0  0  0
  -15.5290   45.0890   -1.4870 O   0  0  0  0  0  0  0  0  0  0  0  0
  -15.6860   44.4360   -2.7580 C   0  0  0  0  0  0  0  0  0  0  0  0
  -14.4470   44.2900   -3.4830 O   0  0  0  0  0  0  0  0  0  0  0  0
   -8.1645   50.1169   -2.1218 H   0  0  0  0  0  0  0  0  0  0  0  0
   -9.8718   50.9555   -2.0136 H   0  0  0  0  0  0  0  0  0  0  0  0
   -9.0792   48.0895   -1.2162 H   0  0  0  0  0  0  0  0  0  0  0  0
  -11.6965   49.7514   -1.0257 H   0  0  0  0  0  0  0  0  0  0  0  0
  -11.6466   48.0473   -1.6493 H   0  0  0  0  0  0  0  0  0  0  0  0
  -12.2540   48.4930    0.7990 H   0  0  0  0  0  0  0  0  0  0  0  0
   -9.3999   48.2367    1.3430 H   0  0  0  0  0  0  0  0  0  0  0  0
  -10.1562   49.8881    1.0471 H   0  0  0  0  0  0  0  0  0  0  0  0
  -12.5981   49.9814    2.3757 H   0  0  0  0  0  0  0  0  0  0  0  0
  -13.3605   50.0596    4.7455 H   0  0  0  0  0  0  0  0  0  0  0  0
  -11.9632   49.0645    6.5528 H   0  0  0  0  0  0  0  0  0  0  0  0
   -9.7806   47.9888    5.9933 H   0  0  0  0  0  0  0  0  0  0  0  0
   -9.6000   46.1090    2.8810 H   0  0  0  0  0  0  0  0  0  0  0  0
   -7.0115   46.7168    1.8977 H   0  0  0  0  0  0  0  0  0  0  0  0
   -6.7999   45.7352   -0.1788 H   0  0  0  0  0  0  0  0  0  0  0  0
   -7.6503   44.2010   -1.9387 H   0  0  0  0  0  0  0  0  0  0  0  0
  -10.7675   41.4708   -0.4278 H   0  0  0  0  0  0  0  0  0  0  0  0
  -11.4435   42.0942   -1.9710 H   0  0  0  0  0  0  0  0  0  0  0  0
  -10.4144   40.6219   -1.9710 H   0  0  0  0  0  0  0  0  0  0  0  0
  -10.3395   42.3947    0.9087 H   0  0  0  0  0  0  0  0  0  0  0  0
   -9.5032   43.9383    2.6759 H   0  0  0  0  0  0  0  0  0  0  0  0
   -4.8794   45.7480    1.9905 H   0  0  0  0  0  0  0  0  0  0  0  0
   -3.1161   44.7846    3.4586 H   0  0  0  0  0  0  0  0  0  0  0  0
   -3.8076   43.4810    7.9760 H   0  0  0  0  0  0  0  0  0  0  0  0
   -5.3014   43.1596    7.0316 H   0  0  0  0  0  0  0  0  0  0  0  0
   -3.9635   41.9610    7.0316 H   0  0  0  0  0  0  0  0  0  0  0  0
   -6.1105   43.8144    6.4089 H   0  0  0  0  0  0  0  0  0  0  0  0
   -7.8788   44.7727    4.9477 H   0  0  0  0  0  0  0  0  0  0  0  0
  -10.1757   46.4519    0.2859 H   0  0  0  0  0  0  0  0  0  0  0  0
  -11.6130   46.3844    1.4176 H   0  0  0  0  0  0  0  0  0  0  0  0
  -10.3644   45.6797   -1.9342 H   0  0  0  0  0  0  0  0  0  0  0  0
  -11.7398   44.5907   -3.7248 H   0  0  0  0  0  0  0  0  0  0  0  0
  -16.1097   43.4355   -2.5862 H   0  0  0  0  0  0  0  0  0  0  0  0
  -16.3476   45.0679   -3.3687 H   0  0  0  0  0  0  0  0  0  0  0  0
  1  2  2  0
  2  3  1  0
  3  4  1  0
  4  5  1  0
  5  6  1  0
  6  7  2  0
  7  8  1  0
  8  9  2  0
  9 10  1  0
 10 11  2  0
 11 12  1  0
 12 13  2  0
 12 14  1  0
 14 15  1  0
 15 16  1  0
 16 17  2  0
 17 18  1  0
 18 19  2  0
 19 20  1  0
 20 21  1  0
 19 22  1  0
 22 23  2  0
 15 24  1  0
 24 25  2  0
 25 26  1  0
 26 27  2  0
 27 28  1  0
 28 29  1  0
 27 30  1  0
 30 31  2  0
  4 32  1  0
 32 33  1  0
 33 34  2  0
 34 35  1  0
 35 36  2  0
 36 37  1  0
 37 38  2  0
 38 39  1  0
 39 40  2  0
 39 41  1  0
 37 42  1  0
 42 43  1  0
 43 44  1  0
 11  6  1  0
 23 16  1  0
 31 24  1  0
 38 33  1  0
 44 36  1  0
  1 45  1  0
  1 46  1  0
  2 47  1  0
  3 48  1  0
  3 49  1  0
  4 50  1  1
  5 51  1  0
  5 52  1  0
  7 53  1  0
  8 54  1  0
  9 55  1  0
 10 56  1  0
 14 57  1  0
 15 58  1  0
 17 59  1  0
 18 60  1  0
 21 61  1  0
 21 62  1  0
 21 63  1  0
 22 64  1  0
 23 65  1  0
 25 66  1  0
 26 67  1  0
 29 68  1  0
 29 69  1  0
 29 70  1  0
 30 71  1  0
 31 72  1  0
 32 73  1  0
 32 74  1  0
 34 75  1  0
 35 76  1  0
 43 77  1  0
 43 78  1  0
M  CHG  2   4   1  41  -1
M  END
>  <meeko>  (2) 
{"is_sidechain": [false], "free_energy": -7.748, "intermolecular_energy": -14.106, "internal_energy": -3.798}

$$$$
3zso_ligand
     RDKit          3D

 78 82  0  0  0  0  0  0  0  0999 V2000
   -8.6930   40.0900    0.1450 C   0  0  0  0  0  0  0  0  0  0  0  0
   -9.3190   41.1460   -0.3930 C   0  0  0  0  0  0  0  0  0  0  0  0
   -8.6560   42.1800   -1.2560 C   0  0  0  0  0  0  0  0  0  0  0  0
   -9.0300   43.5780   -0.8460 N   0  0  2  0  0  0  0  0  0  0  0  0
   -7.8050   44.4540   -0.6230 C   0  0  0  0  0  0  0  0  0  0  0  0
   -7.1200   44.2770    0.7150 C   0  0  0  0  0  0  0  0  0  0  0  0
   -6.7850   42.9920    1.1730 C   0  0  0  0  0  0  0  0  0  0  0  0
   -6.1070   42.8260    2.3840 C   0  0  0  0  0  0  0  0  0  0  0  0
   -5.7490   43.9360    3.1510 C   0  0  0  0  0  0  0  0  0  0  0  0
   -6.0700   45.2180    2.7130 C   0  0  0  0  0  0  0  0  0  0  0  0
   -6.7510   45.3830    1.5030 C   0  0  0  0  0  0  0  0  0  0  0  0
   -7.1280   46.7430    1.0790 C   0  0  0  0  0  0  0  0  0  0  0  0
   -6.3300   47.3780    0.4030 O   0  0  0  0  0  0  0  0  0  0  0  0
   -8.3220   47.1920    1.5780 N   0  0  0  0  0  0  0  0  0  0  0  0
   -8.6400   48.6150    1.5730 C   0  0  0  0  0  0  0  0  0  0  0  0
   -9.7230   48.8790    2.6150 C   0  0  0  0  0  0  0  0  0  0  0  0
   -9.7300   48.1240    3.7980 C   0  0  0  0  0  0  0  0  0  0  0  0
  -10.7320   48.3050    4.7550 C   0  0  0  0  0  0  0  0  0  0  0  0
  -11.7510   49.2370    4.5530 C   0  0  0  0  0  0  0  0  0  0  0  0
  -12.6650   49.3170    5.5660 O   0  0  0  0  0  0  0  0  0  0  0  0
  -12.1810   49.1120    6.8870 C   0  0  0  0  0  0  0  0  0  0  0  0
  -11.7650   49.9800    3.3740 C   0  0  0  0  0  0  0  0  0  0  0  0
  -10.7640   49.7970    2.4100 C   0  0  0  0  0  0  0  0  0  0  0  0
   -8.9700   49.1540    0.1830 C   0  0  0  0  0  0  0  0  0  0  0  0
   -9.8440   48.4280   -0.6440 C   0  0  0  0  0  0  0  0  0  0  0  0
  -10.1570   48.8720   -1.9340 C   0  0  0  0  0  0  0  0  0  0  0  0
   -9.5960   50.0500   -2.4240 C   0  0  0  0  0  0  0  0  0  0  0  0
   -9.8140   50.5930   -3.6610 O   0  0  0  0  0  0  0  0  0  0  0  0
   -9.1830   51.8390   -3.9320 C   0  0  0  0  0  0  0  0  0  0  0  0
   -8.7220   50.7760   -1.6130 C   0  0  0  0  0  0  0  0  0  0  0  0
   -8.4080   50.3350   -0.3250 C   0  0  0  0  0  0  0  0  0  0  0  0
   -9.8980   43.5510    0.4060 C   0  0  0  0  0  0  0  0  0  0  0  0
  -11.0290   44.5550    0.3920 C   0  0  0  0  0  0  0  0  0  0  0  0
  -11.1180   45.5360    1.4090 C   0  0  0  0  0  0  0  0  0  0  0  0
  -12.1710   46.4530    1.4250 C   0  0  0  0  0  0  0  0  0  0  0  0
  -13.1170   46.3690    0.4240 C   0  0  0  0  0  0  0  0  0  0  0  0
  -13.0520   45.4200   -0.5710 C   0  0  0  0  0  0  0  0  0  0  0  0
  -12.0230   44.4990   -0.6180 C   0  0  0  0  0  0  0  0  0  0  0  0
  -11.9670   43.4400   -1.6640 C   0  0  0  0  0  0  0  0  0  0  0  0
  -12.6970   42.4260   -1.4690 O   0  0  0  0  0  0  0  0  0  0  0  0
  -11.3760   43.7530   -2.7420 O   0  0  0  0  0  0  0  0  0  0  0  0
  -14.0890   45.5290   -1.4430 O   0  0  0  0  0  0  0  0  0  0  0  0
  -14.8050   46.6490   -0.8950 C   0  0  0  0  0  0  0  0  0  0  0  0
  -14.2010   47.1830    0.3010 O   0  0  0  0  0  0  0  0  0  0  0  0
   -9.2534   39.3768    0.7674 H   0  0  0  0  0  0  0  0  0  0  0  0
   -7.6189   39.9365   -0.0359 H   0  0  0  0  0  0  0  0  0  0  0  0
  -10.3933   41.2631   -0.1879 H   0  0  0  0  0  0  0  0  0  0  0  0
   -7.5651   42.0653   -1.1736 H   0  0  0  0  0  0  0  0  0  0  0  0
   -8.9943   42.0269   -2.2914 H   0  0  0  0  0  0  0  0  0  0  0  0
   -9.5740   44.0130   -1.5880 H   0  0  0  0  0  0  0  0  0  0  0  0
   -7.0742   44.2240   -1.4123 H   0  0  0  0  0  0  0  0  0  0  0  0
   -8.1651   45.4931   -0.6460 H   0  0  0  0  0  0  0  0  0  0  0  0
   -7.0581   42.1104    0.5746 H   0  0  0  0  0  0  0  0  0  0  0  0
   -5.8540   41.8146    2.7347 H   0  0  0  0  0  0  0  0  0  0  0  0
   -5.2132   43.7978    4.1017 H   0  0  0  0  0  0  0  0  0  0  0  0
   -5.7898   46.0951    3.3148 H   0  0  0  0  0  0  0  0  0  0  0  0
   -8.7660   46.6490    2.3090 H   0  0  0  0  0  0  0  0  0  0  0  0
   -7.7431   49.1851    1.8569 H   0  0  0  0  0  0  0  0  0  0  0  0
   -8.9378   47.3814    3.9739 H   0  0  0  0  0  0  0  0  0  0  0  0
  -10.7175   47.7063    5.6777 H   0  0  0  0  0  0  0  0  0  0  0  0
  -12.9435   49.4350    7.6111 H   0  0  0  0  0  0  0  0  0  0  0  0
  -11.9628   48.0442    7.0360 H   0  0  0  0  0  0  0  0  0  0  0  0
  -11.2622   49.6982    7.0360 H   0  0  0  0  0  0  0  0  0  0  0  0
  -12.5656   50.7137    3.1991 H   0  0  0  0  0  0  0  0  0  0  0  0
  -10.7951   50.3819    1.4789 H   0  0  0  0  0  0  0  0  0  0  0  0
  -10.2900   47.4943   -0.2709 H   0  0  0  0  0  0  0  0  0  0  0  0
  -10.8472   48.2900   -2.5624 H   0  0  0  0  0  0  0  0  0  0  0  0
   -8.9311   52.3364   -2.9837 H   0  0  0  0  0  0  0  0  0  0  0  0
   -8.2637   51.6662   -4.5109 H   0  0  0  0  0  0  0  0  0  0  0  0
   -9.8663   52.4778   -4.5109 H   0  0  0  0  0  0  0  0  0  0  0  0
   -8.2751   51.7067   -1.9926 H   0  0  0  0  0  0  0  0  0  0  0  0
   -7.7136   50.9192    0.2967 H   0  0  0  0  0  0  0  0  0  0  0  0
  -10.3302   42.5444    0.5056 H   0  0  0  0  0  0  0  0  0  0  0  0
   -9.2462   43.8175    1.2510 H   0  0  0  0  0  0  0  0  0  0  0  0
  -10.3494   45.5762    2.1949 H   0  0  0  0  0  0  0  0  0  0  0  0
  -12.2441   47.2187    2.2113 H   0  0  0  0  0  0  0  0  0  0  0  0
  -14.8409   47.4451   -1.6532 H   0  0  0  0  0  0  0  0  0  0  0  0
  -15.8086   46.2914   -0.6212 H   0  0  0  0  0  0  0  0  0  0  0  0
  1  2  2  0
  2  3  1  0
  3  4  1  0
  4  5  1  0
  5  6  1  0
  6  7  2  0
  7  8  1  0
  8  9  2  0
  9 10  1  0
 10 11  2  0
 11 12  1  0
 12 13  2  0
 12 14  1  0
 14 15  1  0
 15 16  1  0
 16 17  2  0
 17 18  1  0
 18 19  2  0
 19 20  1  0
 20 21  1  0
 19 22  1  0
 22 23  2  0
 15 24  1  0
 24 25  2  0
 25 26  1  0
 26 27  2  0
 27 28  1  0
 28 29  1  0
 27 30  1  0
 30 31  2  0
  4 32  1  0
 32 33  1  0
 33 34  2  0
 34 35  1  0
 35 36  2  0
 36 37  1  0
 37 38  2  0
 38 39  1  0
 39 40  2  0
 39 41  1  0
 37 42  1  0
 42 43  1  0
 43 44  1  0
 11  6  1  0
 23 16  1  0
 31 24  1  0
 38 33  1  0
 44 36  1  0
  1 45  1  0
  1 46  1  0
  2 47  1  0
  3 48  1  0
  3 49  1  0
  4 50  1  6
  5 51  1  0
  5 52  1  0
  7 53  1  0
  8 54  1  0
  9 55  1  0
 10 56  1  0
 14 57  1  0
 15 58  1  0
 17 59  1  0
 18 60  1  0
 21 61  1  0
 21 62  1  0
 21 63  1  0
 22 64  1  0
 23 65  1  0
 25 66  1  0
 26 67  1  0
 29 68  1  0
 29 69  1  0
 29 70  1  0
 30 71  1  0
 31 72  1  0
 32 73  1  0
 32 74  1  0
 34 75  1  0
 35 76  1  0
 43 77  1  0
 43 78  1  0
M  CHG  2   4   1  41  -1
M  END
>  <meeko>  (3) 
{"is_sidechain": [false], "free_energy": -7.271, "intermolecular_energy": -13.217, "internal_energy": -3.848}

$$$$
3zso_ligand
     RDKit          3D

 78 82  0  0  0  0  0  0  0  0999 V2000
   -3.2290   44.9000    3.2860 C   0  0  0  0  0  0  0  0  0  0  0  0
   -4.0630   44.5110    2.3120 C   0  0  0  0  0  0  0  0  0  0  0  0
   -4.9010   43.2670    2.3520 C   0  0  0  0  0  0  0  0  0  0  0  0
   -6.3350   43.5420    1.9920 N   0  0  2  0  0  0  0  0  0  0  0  0
   -7.2330   43.5910    3.2200 C   0  0  0  0  0  0  0  0  0  0  0  0
   -6.8020   44.5650    4.2950 C   0  0  0  0  0  0  0  0  0  0  0  0
   -6.1960   44.0980    5.4730 C   0  0  0  0  0  0  0  0  0  0  0  0
   -5.7510   44.9970    6.4460 C   0  0  0  0  0  0  0  0  0  0  0  0
   -5.8980   46.3720    6.2580 C   0  0  0  0  0  0  0  0  0  0  0  0
   -6.4930   46.8560    5.0960 C   0  0  0  0  0  0  0  0  0  0  0  0
   -6.9420   45.9560    4.1250 C   0  0  0  0  0  0  0  0  0  0  0  0
   -7.6160   46.4820    2.9240 C   0  0  0  0  0  0  0  0  0  0  0  0
   -6.9300   46.7400    1.9440 O   0  0  0  0  0  0  0  0  0  0  0  0
   -8.9570   46.7180    3.0730 N   0  0  0  0  0  0  0  0  0  0  0  0
   -9.6670   47.5800    2.1370 C   0  0  0  0  0  0  0  0  0  0  0  0
  -10.1600   48.8150    2.8840 C   0  0  0  0  0  0  0  0  0  0  0  0
  -11.2460   48.6910    3.7660 C   0  0  0  0  0  0  0  0  0  0  0  0
  -11.7540   49.8080    4.4340 C   0  0  0  0  0  0  0  0  0  0  0  0
  -11.1970   51.0720    4.2360 C   0  0  0  0  0  0  0  0  0  0  0  0
  -11.7860   52.0780    4.9510 O   0  0  0  0  0  0  0  0  0  0  0  0
  -12.4800   51.7040    6.1350 C   0  0  0  0  0  0  0  0  0  0  0  0
  -10.1310   51.2110    3.3490 C   0  0  0  0  0  0  0  0  0  0  0  0
   -9.6220   50.0940    2.6730 C   0  0  0  0  0  0  0  0  0  0  0  0
  -10.7580   46.8510    1.3550 C   0  0  0  0  0  0  0  0  0  0  0  0
  -11.4370   47.5310    0.3290 C   0  0  0  0  0  0  0  0  0  0  0  0
  -12.4600   46.9090   -0.3970 C   0  0  0  0  0  0  0  0  0  0  0  0
  -12.8260   45.5960   -0.1080 C   0  0  0  0  0  0  0  0  0  0  0  0
  -13.8050   44.8750   -0.7360 O   0  0  0  0  0  0  0  0  0  0  0  0
  -14.4260   45.4850   -1.8610 C   0  0  0  0  0  0  0  0  0  0  0  0
  -12.1620   44.9140    0.9130 C   0  0  0  0  0  0  0  0  0  0  0  0
  -11.1410   45.5320    1.6400 C   0  0  0  0  0  0  0  0  0  0  0  0
   -6.8450   42.5000    1.0040 C   0  0  0  0  0  0  0  0  0  0  0  0
   -7.8910   43.0220    0.0440 C   0  0  0  0  0  0  0  0  0  0  0  0
   -7.8460   44.3690   -0.3880 C   0  0  0  0  0  0  0  0  0  0  0  0
   -8.8190   44.8730   -1.2540 C   0  0  0  0  0  0  0  0  0  0  0  0
   -9.8220   44.0190   -1.6660 C   0  0  0  0  0  0  0  0  0  0  0  0
   -9.8870   42.7080   -1.2540 C   0  0  0  0  0  0  0  0  0  0  0  0
   -8.9390   42.1770   -0.4000 C   0  0  0  0  0  0  0  0  0  0  0  0
   -9.0250   40.7720    0.0880 C   0  0  0  0  0  0  0  0  0  0  0  0
   -9.8630   40.5530    1.0100 O   0  0  0  0  0  0  0  0  0  0  0  0
   -8.4220   39.9020   -0.6110 O   0  0  0  0  0  0  0  0  0  0  0  0
  -10.9570   42.0620   -1.7880 O   0  0  0  0  0  0  0  0  0  0  0  0
  -11.5500   43.1030   -2.5820 C   0  0  0  0  0  0  0  0  0  0  0  0
  -10.8420   44.3570   -2.5020 O   0  0  0  0  0  0  0  0  0  0  0  0
   -2.6499   45.8287    3.1759 H   0  0  0  0  0  0  0  0  0  0  0  0
   -3.1235   44.2906    4.1957 H   0  0  0  0  0  0  0  0  0  0  0  0
   -4.1387   45.1493    1.4193 H   0  0  0  0  0  0  0  0  0  0  0  0
   -4.4891   42.5382    1.6383 H   0  0  0  0  0  0  0  0  0  0  0  0
   -4.8778   42.8746    3.3794 H   0  0  0  0  0  0  0  0  0  0  0  0
   -6.4010   44.4520    1.5410 H   0  0  0  0  0  0  0  0  0  0  0  0
   -8.2442   43.8727    2.8911 H   0  0  0  0  0  0  0  0  0  0  0  0
   -7.1818   42.5911    3.6757 H   0  0  0  0  0  0  0  0  0  0  0  0
   -6.0708   43.0166    5.6308 H   0  0  0  0  0  0  0  0  0  0  0  0
   -5.2818   44.6184    7.3661 H   0  0  0  0  0  0  0  0  0  0  0  0
   -5.5438   47.0734    7.0278 H   0  0  0  0  0  0  0  0  0  0  0  0
   -6.6090   47.9391    4.9430 H   0  0  0  0  0  0  0  0  0  0  0  0
   -9.3460   46.6760    4.0080 H   0  0  0  0  0  0  0  0  0  0  0  0
   -8.9702   47.9081    1.3516 H   0  0  0  0  0  0  0  0  0  0  0  0
  -11.7015   47.7037    3.9326 H   0  0  0  0  0  0  0  0  0  0  0  0
  -12.6026   49.6897    5.1238 H   0  0  0  0  0  0  0  0  0  0  0  0
  -11.8990   52.0171    7.0150 H   0  0  0  0  0  0  0  0  0  0  0  0
  -13.4649   52.1935    6.1528 H   0  0  0  0  0  0  0  0  0  0  0  0
  -12.6128   50.6122    6.1528 H   0  0  0  0  0  0  0  0  0  0  0  0
   -9.6868   52.2028    3.1787 H   0  0  0  0  0  0  0  0  0  0  0  0
   -8.7885   50.2215    1.9666 H   0  0  0  0  0  0  0  0  0  0  0  0
  -11.1600   48.5690    0.0926 H   0  0  0  0  0  0  0  0  0  0  0  0
  -12.9763   47.4585   -1.1979 H   0  0  0  0  0  0  0  0  0  0  0  0
  -15.1712   46.2170   -1.5163 H   0  0  0  0  0  0  0  0  0  0  0  0
  -13.6641   45.9956   -2.4683 H   0  0  0  0  0  0  0  0  0  0  0  0
  -14.9229   44.7141   -2.4683 H   0  0  0  0  0  0  0  0  0  0  0  0
  -12.4458   43.8776    1.1482 H   0  0  0  0  0  0  0  0  0  0  0  0
  -10.6328   44.9788    2.4435 H   0  0  0  0  0  0  0  0  0  0  0  0
   -5.9902   42.1320    0.4175 H   0  0  0  0  0  0  0  0  0  0  0  0
   -7.3247   41.7074    1.5970 H   0  0  0  0  0  0  0  0  0  0  0  0
   -7.0361   45.0259   -0.0380 H   0  0  0  0  0  0  0  0  0  0  0  0
   -8.7870   45.9177   -1.5969 H   0  0  0  0  0  0  0  0  0  0  0  0
  -11.5631   42.7762   -3.6322 H   0  0  0  0  0  0  0  0  0  0  0  0
  -12.5625   43.2756   -2.1881 H   0  0  0  0  0  0  0  0  0  0  0  0
  1  2  2  0
  2  3  1  0
  3  4  1  0
  4  5  1  0
  5  6  1  0
  6  7  2  0
  7  8  1  0
  8  9  2  0
  9 10  1  0
 10 11  2  0
 11 12  1  0
 12 13  2  0
 12 14  1  0
 14 15  1  0
 15 16  1  0
 16 17  2  0
 17 18  1  0
 18 19  2  0
 19 20  1  0
 20 21  1  0
 19 22  1  0
 22 23  2  0
 15 24  1  0
 24 25  2  0
 25 26  1  0
 26 27  2  0
 27 28  1  0
 28 29  1  0
 27 30  1  0
 30 31  2  0
  4 32  1  0
 32 33  1  0
 33 34  2  0
 34 35  1  0
 35 36  2  0
 36 37  1  0
 37 38  2  0
 38 39  1  0
 39 40  2  0
 39 41  1  0
 37 42  1  0
 42 43  1  0
 43 44  1  0
 11  6  1  0
 23 16  1  0
 31 24  1  0
 38 33  1  0
 44 36  1  0
  1 45  1  0
  1 46  1  0
  2 47  1  0
  3 48  1  0
  3 49  1  0
  4 50  1  6
  5 51  1  0
  5 52  1  0
  7 53  1  0
  8 54  1  0
  9 55  1  0
 10 56  1  0
 14 57  1  0
 15 58  1  0
 17 59  1  0
 18 60  1  0
 21 61  1  0
 21 62  1  0
 21 63  1  0
 22 64  1  0
 23 65  1  0
 25 66  1  0
 26 67  1  0
 29 68  1  0
 29 69  1  0
 29 70  1  0
 30 71  1  0
 31 72  1  0
 32 73  1  0
 32 74  1  0
 34 75  1  0
 35 76  1  0
 43 77  1  0
 43 78  1  0
M  CHG  2   4   1  41  -1
M  END
>  <meeko>  (4) 
{"is_sidechain": [false], "free_energy": -7.204, "intermolecular_energy": -12.338, "internal_energy": -4.607}

$$$$
3zso_ligand
     RDKit          3D

 78 82  0  0  0  0  0  0  0  0999 V2000
  -14.3270   44.4440   -2.6200 C   0  0  0  0  0  0  0  0  0  0  0  0
  -13.5710   45.3070   -1.9290 C   0  0  0  0  0  0  0  0  0  0  0  0
  -12.0770   45.4070   -2.0350 C   0  0  0  0  0  0  0  0  0  0  0  0
  -11.5050   46.3780   -1.0380 N   0  0  2  0  0  0  0  0  0  0  0  0
  -10.0640   46.7460   -1.3610 C   0  0  0  0  0  0  0  0  0  0  0  0
   -9.6710   48.1680   -1.0260 C   0  0  0  0  0  0  0  0  0  0  0  0
  -10.5700   49.2230   -1.2530 C   0  0  0  0  0  0  0  0  0  0  0  0
  -10.2310   50.5320   -0.8980 C   0  0  0  0  0  0  0  0  0  0  0  0
   -8.9970   50.8070   -0.3080 C   0  0  0  0  0  0  0  0  0  0  0  0
   -8.0920   49.7750   -0.0720 C   0  0  0  0  0  0  0  0  0  0  0  0
   -8.4310   48.4670   -0.4300 C   0  0  0  0  0  0  0  0  0  0  0  0
   -7.4430   47.3930   -0.2200 C   0  0  0  0  0  0  0  0  0  0  0  0
   -6.5850   47.2230   -1.0760 O   0  0  0  0  0  0  0  0  0  0  0  0
   -7.6550   46.6250    0.8930 N   0  0  0  0  0  0  0  0  0  0  0  0
   -7.0190   45.3200    1.0270 C   0  0  0  0  0  0  0  0  0  0  0  0
   -7.9160   44.2680    0.3820 C   0  0  0  0  0  0  0  0  0  0  0  0
   -7.8080   44.0310   -0.9970 C   0  0  0  0  0  0  0  0  0  0  0  0
   -8.6440   43.1090   -1.6310 C   0  0  0  0  0  0  0  0  0  0  0  0
   -9.6090   42.4060   -0.9080 C   0  0  0  0  0  0  0  0  0  0  0  0
  -10.3580   41.5340   -1.6480 O   0  0  0  0  0  0  0  0  0  0  0  0
  -11.7540   41.7930   -1.7270 C   0  0  0  0  0  0  0  0  0  0  0  0
   -9.7390   42.6460    0.4590 C   0  0  0  0  0  0  0  0  0  0  0  0
   -8.9050   43.5740    1.0970 C   0  0  0  0  0  0  0  0  0  0  0  0
   -6.6100   44.9920    2.4620 C   0  0  0  0  0  0  0  0  0  0  0  0
   -5.7510   43.9060    2.6980 C   0  0  0  0  0  0  0  0  0  0  0  0
   -5.3690   43.5550    3.9990 C   0  0  0  0  0  0  0  0  0  0  0  0
   -5.8440   44.2820    5.0880 C   0  0  0  0  0  0  0  0  0  0  0  0
   -5.5530   44.0470    6.4040 O   0  0  0  0  0  0  0  0  0  0  0  0
   -4.3360   43.3610    6.6770 C   0  0  0  0  0  0  0  0  0  0  0  0
   -6.7020   45.3600    4.8650 C   0  0  0  0  0  0  0  0  0  0  0  0
   -7.0850   45.7130    3.5680 C   0  0  0  0  0  0  0  0  0  0  0  0
  -11.6050   45.8130    0.3730 C   0  0  0  0  0  0  0  0  0  0  0  0
  -11.4490   46.8490    1.4630 C   0  0  0  0  0  0  0  0  0  0  0  0
  -10.3030   46.8370    2.2930 C   0  0  0  0  0  0  0  0  0  0  0  0
  -10.1570   47.7710    3.3210 C   0  0  0  0  0  0  0  0  0  0  0  0
  -11.1640   48.6970    3.5010 C   0  0  0  0  0  0  0  0  0  0  0  0
  -12.2890   48.7240    2.7090 C   0  0  0  0  0  0  0  0  0  0  0  0
  -12.4640   47.8160    1.6820 C   0  0  0  0  0  0  0  0  0  0  0  0
  -13.6980   47.8070    0.8470 C   0  0  0  0  0  0  0  0  0  0  0  0
  -14.6700   47.1360    1.2980 O   0  0  0  0  0  0  0  0  0  0  0  0
  -13.7310   48.6420   -0.1060 O   0  0  0  0  0  0  0  0  0  0  0  0
  -13.1400   49.7200    3.0710 O   0  0  0  0  0  0  0  0  0  0  0  0
  -12.4270   50.3180    4.1670 C   0  0  0  0  0  0  0  0  0  0  0  0
  -11.1730   49.6670    4.4570 O   0  0  0  0  0  0  0  0  0  0  0  0
  -15.4184   44.4364   -2.4826 H   0  0  0  0  0  0  0  0  0  0  0  0
  -13.8566   43.7428   -3.3250 H   0  0  0  0  0  0  0  0  0  0  0  0
  -14.0810   45.9909   -1.2346 H   0  0  0  0  0  0  0  0  0  0  0  0
  -11.6408   44.4136   -1.8537 H   0  0  0  0  0  0  0  0  0  0  0  0
  -11.8315   45.7713   -3.0435 H   0  0  0  0  0  0  0  0  0  0  0  0
  -12.0440   47.2420   -1.0630 H   0  0  0  0  0  0  0  0  0  0  0  0
   -9.4054   46.0692   -0.7969 H   0  0  0  0  0  0  0  0  0  0  0  0
   -9.9621   46.6505   -2.4521 H   0  0  0  0  0  0  0  0  0  0  0  0
  -11.5477   49.0178   -1.7134 H   0  0  0  0  0  0  0  0  0  0  0  0
  -10.9418   51.3504   -1.0851 H   0  0  0  0  0  0  0  0  0  0  0  0
   -8.7388   51.8392   -0.0291 H   0  0  0  0  0  0  0  0  0  0  0  0
   -7.1179   49.9876    0.3926 H   0  0  0  0  0  0  0  0  0  0  0  0
   -8.5340   46.7330    1.3860 H   0  0  0  0  0  0  0  0  0  0  0  0
   -6.0598   45.3316    0.4887 H   0  0  0  0  0  0  0  0  0  0  0  0
   -7.0563   44.5776   -1.5854 H   0  0  0  0  0  0  0  0  0  0  0  0
   -8.5407   42.9350   -2.7122 H   0  0  0  0  0  0  0  0  0  0  0  0
  -12.1706   41.8703   -0.7119 H   0  0  0  0  0  0  0  0  0  0  0  0
  -11.9218   42.7376   -2.2651 H   0  0  0  0  0  0  0  0  0  0  0  0
  -12.2495   40.9715   -2.2651 H   0  0  0  0  0  0  0  0  0  0  0  0
  -10.5000   42.1042    1.0398 H   0  0  0  0  0  0  0  0  0  0  0  0
   -9.0271   43.7615    2.1740 H   0  0  0  0  0  0  0  0  0  0  0  0
   -5.3720   43.3214    1.8468 H   0  0  0  0  0  0  0  0  0  0  0  0
   -4.6922   42.7031    4.1611 H   0  0  0  0  0  0  0  0  0  0  0  0
   -4.1958   43.2820    7.7652 H   0  0  0  0  0  0  0  0  0  0  0  0
   -4.3769   42.3531    6.2384 H   0  0  0  0  0  0  0  0  0  0  0  0
   -3.4948   43.9179    6.2384 H   0  0  0  0  0  0  0  0  0  0  0  0
   -7.0813   45.9387    5.7202 H   0  0  0  0  0  0  0  0  0  0  0  0
   -7.7649   46.5637    3.4129 H   0  0  0  0  0  0  0  0  0  0  0  0
  -12.5905   45.3376    0.4862 H   0  0  0  0  0  0  0  0  0  0  0  0
  -10.7750   45.1007    0.4900 H   0  0  0  0  0  0  0  0  0  0  0  0
   -9.5187   46.0839    2.1267 H   0  0  0  0  0  0  0  0  0  0  0  0
   -9.2668   47.7685    3.9672 H   0  0  0  0  0  0  0  0  0  0  0  0
  -12.2245   51.3703    3.9187 H   0  0  0  0  0  0  0  0  0  0  0  0
  -13.0602   50.2165    5.0607 H   0  0  0  0  0  0  0  0  0  0  0  0
  1  2  2  0
  2  3  1  0
  3  4  1  0
  4  5  1  0
  5  6  1  0
  6  7  2  0
  7  8  1  0
  8  9  2  0
  9 10  1  0
 10 11  2  0
 11 12  1  0
 12 13  2  0
 12 14  1  0
 14 15  1  0
 15 16  1  0
 16 17  2  0
 17 18  1  0
 18 19  2  0
 19 20  1  0
 20 21  1  0
 19 22  1  0
 22 23  2  0
 15 24  1  0
 24 25  2  0
 25 26  1  0
 26 27  2  0
 27 28  1  0
 28 29  1  0
 27 30  1  0
 30 31  2  0
  4 32  1  0
 32 33  1  0
 33 34  2  0
 34 35  1  0
 35 36  2  0
 36 37  1  0
 37 38  2  0
 38 39  1  0
 39 40  2  0
 39 41  1  0
 37 42  1  0
 42 43  1  0
 43 44  1  0
 11  6  1  0
 23 16  1  0
 31 24  1  0
 38 33  1  0
 44 36  1  0
  1 45  1  0
  1 46  1  0
  2 47  1  0
  3 48  1  0
  3 49  1  0
  4 50  1  1
  5 51  1  0
  5 52  1  0
  7 53  1  0
  8 54  1  0
  9 55  1  0
 10 56  1  0
 14 57  1  0
 15 58  1  0
 17 59  1  0
 18 60  1  0
 21 61  1  0
 21 62  1  0
 21 63  1  0
 22 64  1  0
 23 65  1  0
 25 66  1  0
 26 67  1  0
 29 68  1  0
 29 69  1  0
 29 70  1  0
 30 71  1  0
 31 72  1  0
 32 73  1  0
 32 74  1  0
 34 75  1  0
 35 76  1  0
 43 77  1  0
 43 78  1  0
M  CHG  2   4   1  41  -1
M  END
>  <meeko>  (5) 
{"is_sidechain": [false], "free_energy": -7.191, "intermolecular_energy": -12.539, "internal_energy": -4.384}

$$$$
3zso_ligand
     RDKit          3D

 78 82  0  0  0  0  0  0  0  0999 V2000
   -4.8960   43.7290    2.7180 C   0  0  0  0  0  0  0  0  0  0  0  0
   -5.6910   44.7720    2.9900 C   0  0  0  0  0  0  0  0  0  0  0  0
   -7.1370   44.6640    3.3810 C   0  0  0  0  0  0  0  0  0  0  0  0
   -8.0360   45.3940    2.4210 N   0  0  2  0  0  0  0  0  0  0  0  0
   -7.7470   45.0230    0.9730 C   0  0  0  0  0  0  0  0  0  0  0  0
   -8.3210   43.6990    0.5200 C   0  0  0  0  0  0  0  0  0  0  0  0
   -7.4700   42.6160    0.2430 C   0  0  0  0  0  0  0  0  0  0  0  0
   -7.9990   41.3760   -0.1270 C   0  0  0  0  0  0  0  0  0  0  0  0
   -9.3800   41.1960   -0.2200 C   0  0  0  0  0  0  0  0  0  0  0  0
  -10.2400   42.2550    0.0540 C   0  0  0  0  0  0  0  0  0  0  0  0
   -9.7110   43.4960    0.4210 C   0  0  0  0  0  0  0  0  0  0  0  0
  -10.6330   44.6210    0.6580 C   0  0  0  0  0  0  0  0  0  0  0  0
  -11.1050   44.7540    1.7790 O   0  0  0  0  0  0  0  0  0  0  0  0
  -10.9410   45.3580   -0.4550 N   0  0  0  0  0  0  0  0  0  0  0  0
  -12.1070   46.2330   -0.4670 C   0  0  0  0  0  0  0  0  0  0  0  0
  -13.1270   45.6790   -1.4570 C   0  0  0  0  0  0  0  0  0  0  0  0
  -14.4950   45.7970   -1.1660 C   0  0  0  0  0  0  0  0  0  0  0  0
  -15.4560   45.2610   -2.0260 C   0  0  0  0  0  0  0  0  0  0  0  0
  -15.0780   44.5930   -3.1920 C   0  0  0  0  0  0  0  0  0  0  0  0
  -16.1160   44.1200   -3.9460 O   0  0  0  0  0  0  0  0  0  0  0  0
  -16.1540   44.5200   -5.3100 C   0  0  0  0  0  0  0  0  0  0  0  0
  -13.7220   44.4540   -3.4830 C   0  0  0  0  0  0  0  0  0  0  0  0
  -12.7550   44.9850   -2.6190 C   0  0  0  0  0  0  0  0  0  0  0  0
  -11.7560   47.7020   -0.6930 C   0  0  0  0  0  0  0  0  0  0  0  0
  -10.5270   48.0280   -1.2910 C   0  0  0  0  0  0  0  0  0  0  0  0
  -10.1530   49.3620   -1.4970 C   0  0  0  0  0  0  0  0  0  0  0  0
  -11.0010   50.3950   -1.1030 C   0  0  0  0  0  0  0  0  0  0  0  0
  -10.7590   51.7340   -1.2430 O   0  0  0  0  0  0  0  0  0  0  0  0
  -11.8950   52.5890   -1.2820 C   0  0  0  0  0  0  0  0  0  0  0  0
  -12.2220   50.0820   -0.5030 C   0  0  0  0  0  0  0  0  0  0  0  0
  -12.5970   48.7520   -0.2960 C   0  0  0  0  0  0  0  0  0  0  0  0
   -7.9120   46.9000    2.6170 C   0  0  0  0  0  0  0  0  0  0  0  0
   -9.1210   47.5370    3.2660 C   0  0  0  0  0  0  0  0  0  0  0  0
  -10.2920   47.7700    2.5060 C   0  0  0  0  0  0  0  0  0  0  0  0
  -11.4070   48.3810    3.0840 C   0  0  0  0  0  0  0  0  0  0  0  0
  -11.3260   48.7510    4.4110 C   0  0  0  0  0  0  0  0  0  0  0  0
  -10.1960   48.5380    5.1660 C   0  0  0  0  0  0  0  0  0  0  0  0
   -9.0760   47.9350    4.6270 C   0  0  0  0  0  0  0  0  0  0  0  0
   -7.8320   47.7400    5.4220 C   0  0  0  0  0  0  0  0  0  0  0  0
   -7.0020   48.6940    5.4000 O   0  0  0  0  0  0  0  0  0  0  0  0
   -7.8250   46.7480    6.2130 O   0  0  0  0  0  0  0  0  0  0  0  0
  -10.3480   48.9830    6.4420 O   0  0  0  0  0  0  0  0  0  0  0  0
  -11.6930   49.4890    6.4080 C   0  0  0  0  0  0  0  0  0  0  0  0
  -12.3210   49.3570    5.1160 O   0  0  0  0  0  0  0  0  0  0  0  0
   -3.8454   43.8964    2.4385 H   0  0  0  0  0  0  0  0  0  0  0  0
   -5.2937   42.7050    2.7741 H   0  0  0  0  0  0  0  0  0  0  0  0
   -5.2538   45.7791    2.9222 H   0  0  0  0  0  0  0  0  0  0  0  0
   -7.4223   43.6018    3.3970 H   0  0  0  0  0  0  0  0  0  0  0  0
   -7.2559   45.1227    4.3737 H   0  0  0  0  0  0  0  0  0  0  0  0
   -9.0040   45.1380    2.6040 H   0  0  0  0  0  0  0  0  0  0  0  0
   -8.1636   45.8123    0.3299 H   0  0  0  0  0  0  0  0  0  0  0  0
   -6.6542   44.9241    0.8958 H   0  0  0  0  0  0  0  0  0  0  0  0
   -6.3801   42.7446    0.3178 H   0  0  0  0  0  0  0  0  0  0  0  0
   -7.3225   40.5368   -0.3463 H   0  0  0  0  0  0  0  0  0  0  0  0
   -9.7886   40.2167   -0.5100 H   0  0  0  0  0  0  0  0  0  0  0  0
  -11.3289   42.1167   -0.0177 H   0  0  0  0  0  0  0  0  0  0  0  0
  -10.6600   44.9950   -1.3590 H   0  0  0  0  0  0  0  0  0  0  0  0
  -12.5649   46.2348    0.5332 H   0  0  0  0  0  0  0  0  0  0  0  0
  -14.8136   46.3173   -0.2507 H   0  0  0  0  0  0  0  0  0  0  0  0
  -16.5233   45.3664   -1.7817 H   0  0  0  0  0  0  0  0  0  0  0  0
  -16.2579   45.6135   -5.3687 H   0  0  0  0  0  0  0  0  0  0  0  0
  -15.2226   44.2129   -5.8083 H   0  0  0  0  0  0  0  0  0  0  0  0
  -17.0109   44.0430   -5.8083 H   0  0  0  0  0  0  0  0  0  0  0  0
  -13.4094   43.9249   -4.3953 H   0  0  0  0  0  0  0  0  0  0  0  0
  -11.6884   44.8560   -2.8549 H   0  0  0  0  0  0  0  0  0  0  0  0
   -9.8468   47.2217   -1.6028 H   0  0  0  0  0  0  0  0  0  0  0  0
   -9.1879   49.5946   -1.9708 H   0  0  0  0  0  0  0  0  0  0  0  0
  -12.2106   52.8265   -0.2554 H   0  0  0  0  0  0  0  0  0  0  0  0
  -11.6364   53.5185   -1.8104 H   0  0  0  0  0  0  0  0  0  0  0  0
  -12.7166   52.0833   -1.8104 H   0  0  0  0  0  0  0  0  0  0  0  0
  -12.8969   50.8920   -0.1894 H   0  0  0  0  0  0  0  0  0  0  0  0
  -13.5612   48.5262    0.1830 H   0  0  0  0  0  0  0  0  0  0  0  0
   -7.0353   47.0953    3.2520 H   0  0  0  0  0  0  0  0  0  0  0  0
   -7.8167   47.3448    1.6155 H   0  0  0  0  0  0  0  0  0  0  0  0
  -10.3243   47.4667    1.4491 H   0  0  0  0  0  0  0  0  0  0  0  0
  -12.3213   48.5617    2.4997 H   0  0  0  0  0  0  0  0  0  0  0  0
  -12.2927   48.9356    7.1456 H   0  0  0  0  0  0  0  0  0  0  0  0
  -11.6421   50.5638    6.6367 H   0  0  0  0  0  0  0  0  0  0  0  0
  1  2  2  0
  2  3  1  0
  3  4  1  0
  4  5  1  0
  5  6  1  0
  6  7  2  0
  7  8  1  0
  8  9  2  0
  9 10  1  0
 10 11  2  0
 11 12  1  0
 12 13  2  0
 12 14  1  0
 14 15  1  0
 15 16  1  0
 16 17  2  0
 17 18  1  0
 18 19  2  0
 19 20  1  0
 20 21  1  0
 19 22  1  0
 22 23  2  0
 15 24  1  0
 24 25  2  0
 25 26  1  0
 26 27  2  0
 27 28  1  0
 28 29  1  0
 27 30  1  0
 30 31  2  0
  4 32  1  0
 32 33  1  0
 33 34  2  0
 34 35  1  0
 35 36  2  0
 36 37  1  0
 37 38  2  0
 38 39  1  0
 39 40  2  0
 39 41  1  0
 37 42  1  0
 42 43  1  0
 43 44  1  0
 11  6  1  0
 23 16  1  0
 31 24  1  0
 38 33  1  0
 44 36  1  0
  1 45  1  0
  1 46  1  0
  2 47  1  0
  3 48  1  0
  3 49  1  0
  4 50  1  1
  5 51  1  0
  5 52  1  0
  7 53  1  0
  8 54  1  0
  9 55  1  0
 10 56  1  0
 14 57  1  0
 15 58  1  0
 17 59  1  0
 18 60  1  0
 21 61  1  0
 21 62  1  0
 21 63  1  0
 22 64  1  0
 23 65  1  0
 25 66  1  0
 26 67  1  0
 29 68  1  0
 29 69  1  0
 29 70  1  0
 30 71  1  0
 31 72  1  0
 32 73  1  0
 32 74  1  0
 34 75  1  0
 35 76  1  0
 43 77  1  0
 43 78  1  0
M  CHG  2   4   1  41  -1
M  END
>  <meeko>  (6) 
{"is_sidechain": [false], "free_energy": -7.132, "intermolecular_energy": -12.92, "internal_energy": -3.899}

$$$$
3zso_ligand
     RDKit          3D

 78 82  0  0  0  0  0  0  0  0999 V2000
   -3.4110   44.8300    2.6000 C   0  0  0  0  0  0  0  0  0  0  0  0
   -4.7230   44.8260    2.8730 C   0  0  0  0  0  0  0  0  0  0  0  0
   -5.7850   44.3070    1.9470 C   0  0  0  0  0  0  0  0  0  0  0  0
   -7.0740   45.0710    2.0840 N   0  0  2  0  0  0  0  0  0  0  0  0
   -8.2580   44.1510    2.3420 C   0  0  0  0  0  0  0  0  0  0  0  0
   -8.6050   43.2120    1.2070 C   0  0  0  0  0  0  0  0  0  0  0  0
   -7.7800   42.1120    0.9210 C   0  0  0  0  0  0  0  0  0  0  0  0
   -8.1230   41.2140   -0.0930 C   0  0  0  0  0  0  0  0  0  0  0  0
   -9.2920   41.3950   -0.8320 C   0  0  0  0  0  0  0  0  0  0  0  0
  -10.1260   42.4780   -0.5620 C   0  0  0  0  0  0  0  0  0  0  0  0
   -9.7800   43.3780    0.4500 C   0  0  0  0  0  0  0  0  0  0  0  0
  -10.6460   44.5460    0.6890 C   0  0  0  0  0  0  0  0  0  0  0  0
  -11.2720   44.5960    1.7400 O   0  0  0  0  0  0  0  0  0  0  0  0
  -10.7300   45.4250   -0.3580 N   0  0  0  0  0  0  0  0  0  0  0  0
  -11.8170   46.3950   -0.4290 C   0  0  0  0  0  0  0  0  0  0  0  0
  -12.9160   45.8350   -1.3260 C   0  0  0  0  0  0  0  0  0  0  0  0
  -14.2570   46.0050   -0.9480 C   0  0  0  0  0  0  0  0  0  0  0  0
  -15.2900   45.4670   -1.7210 C   0  0  0  0  0  0  0  0  0  0  0  0
  -15.0110   44.7450   -2.8820 C   0  0  0  0  0  0  0  0  0  0  0  0
  -16.1110   44.2760   -3.5450 O   0  0  0  0  0  0  0  0  0  0  0  0
  -16.0820   44.3430   -4.9650 C   0  0  0  0  0  0  0  0  0  0  0  0
  -13.6830   44.5540   -3.2580 C   0  0  0  0  0  0  0  0  0  0  0  0
  -12.6440   45.0880   -2.4830 C   0  0  0  0  0  0  0  0  0  0  0  0
  -11.3490   47.7960   -0.8190 C   0  0  0  0  0  0  0  0  0  0  0  0
  -10.1830   47.9390   -1.5900 C   0  0  0  0  0  0  0  0  0  0  0  0
   -9.7050   49.2040   -1.9500 C   0  0  0  0  0  0  0  0  0  0  0  0
  -10.3820   50.3510   -1.5420 C   0  0  0  0  0  0  0  0  0  0  0  0
  -10.0250   51.6420   -1.8220 O   0  0  0  0  0  0  0  0  0  0  0  0
   -8.8890   51.8230   -2.6590 C   0  0  0  0  0  0  0  0  0  0  0  0
  -11.5390   50.2200   -0.7720 C   0  0  0  0  0  0  0  0  0  0  0  0
  -12.0190   48.9580   -0.4100 C   0  0  0  0  0  0  0  0  0  0  0  0
   -7.3220   45.9210    0.8440 C   0  0  0  0  0  0  0  0  0  0  0  0
   -7.7800   47.3300    1.1460 C   0  0  0  0  0  0  0  0  0  0  0  0
   -8.8990   47.5470    1.9850 C   0  0  0  0  0  0  0  0  0  0  0  0
   -9.3500   48.8420    2.2520 C   0  0  0  0  0  0  0  0  0  0  0  0
   -8.6740   49.8950    1.6710 C   0  0  0  0  0  0  0  0  0  0  0  0
   -7.5860   49.7060    0.8490 C   0  0  0  0  0  0  0  0  0  0  0  0
   -7.1130   48.4390    0.5650 C   0  0  0  0  0  0  0  0  0  0  0  0
   -5.9640   48.2210   -0.3590 C   0  0  0  0  0  0  0  0  0  0  0  0
   -6.2260   48.2770   -1.5950 O   0  0  0  0  0  0  0  0  0  0  0  0
   -4.8130   48.2240    0.1730 O   0  0  0  0  0  0  0  0  0  0  0  0
   -7.0850   50.8850    0.3940 O   0  0  0  0  0  0  0  0  0  0  0  0
   -7.9660   51.8300    1.0230 C   0  0  0  0  0  0  0  0  0  0  0  0
   -8.9890   51.2100    1.8290 O   0  0  0  0  0  0  0  0  0  0  0  0
   -2.6974   45.2297    3.3355 H   0  0  0  0  0  0  0  0  0  0  0  0
   -3.0477   44.4336    1.6404 H   0  0  0  0  0  0  0  0  0  0  0  0
   -5.0445   45.2314    3.8437 H   0  0  0  0  0  0  0  0  0  0  0  0
   -5.4274   44.3966    0.9106 H   0  0  0  0  0  0  0  0  0  0  0  0
   -5.9823   43.2573    2.2102 H   0  0  0  0  0  0  0  0  0  0  0  0
   -7.0090   45.7010    2.8820 H   0  0  0  0  0  0  0  0  0  0  0  0
   -8.0287   43.5422    3.2290 H   0  0  0  0  0  0  0  0  0  0  0  0
   -9.1311   44.8072    2.4725 H   0  0  0  0  0  0  0  0  0  0  0  0
   -6.8573   41.9563    1.4993 H   0  0  0  0  0  0  0  0  0  0  0  0
   -7.4666   40.3584   -0.3100 H   0  0  0  0  0  0  0  0  0  0  0  0
   -9.5555   40.6828   -1.6279 H   0  0  0  0  0  0  0  0  0  0  0  0
  -11.0499   42.6237   -1.1410 H   0  0  0  0  0  0  0  0  0  0  0  0
  -10.3420   45.1400   -1.2500 H   0  0  0  0  0  0  0  0  0  0  0  0
  -12.2362   46.5408    0.5775 H   0  0  0  0  0  0  0  0  0  0  0  0
  -14.4976   46.5675   -0.0338 H   0  0  0  0  0  0  0  0  0  0  0  0
  -16.3349   45.6145   -1.4104 H   0  0  0  0  0  0  0  0  0  0  0  0
  -15.6631   45.3108   -5.2779 H   0  0  0  0  0  0  0  0  0  0  0  0
  -15.4560   43.5283   -5.3578 H   0  0  0  0  0  0  0  0  0  0  0  0
  -17.1045   44.2418   -5.3578 H   0  0  0  0  0  0  0  0  0  0  0  0
  -13.4487   43.9813   -4.1675 H   0  0  0  0  0  0  0  0  0  0  0  0
  -11.6001   44.9192   -2.7860 H   0  0  0  0  0  0  0  0  0  0  0  0
   -9.6368   47.0416   -1.9160 H   0  0  0  0  0  0  0  0  0  0  0  0
   -8.7919   49.2929   -2.5570 H   0  0  0  0  0  0  0  0  0  0  0  0
   -7.9936   51.9657   -2.0361 H   0  0  0  0  0  0  0  0  0  0  0  0
   -8.7562   50.9347   -3.2940 H   0  0  0  0  0  0  0  0  0  0  0  0
   -9.0388   52.7086   -3.2940 H   0  0  0  0  0  0  0  0  0  0  0  0
  -12.0796   51.1209   -0.4461 H   0  0  0  0  0  0  0  0  0  0  0  0
  -12.9301   48.8757    0.2009 H   0  0  0  0  0  0  0  0  0  0  0  0
   -6.3852   45.9773    0.2701 H   0  0  0  0  0  0  0  0  0  0  0  0
   -8.1340   45.4358    0.2826 H   0  0  0  0  0  0  0  0  0  0  0  0
   -9.4191   46.6868    2.4316 H   0  0  0  0  0  0  0  0  0  0  0  0
  -10.2175   49.0167    2.9054 H   0  0  0  0  0  0  0  0  0  0  0  0
   -7.3668   52.4902    1.6672 H   0  0  0  0  0  0  0  0  0  0  0  0
   -8.4755   52.3834    0.2204 H   0  0  0  0  0  0  0  0  0  0  0  0
  1  2  2  0
  2  3  1  0
  3  4  1  0
  4  5  1  0
  5  6  1  0
  6  7  2  0
  7  8  1  0
  8  9  2  0
  9 10  1  0
 10 11  2  0
 11 12  1  0
 12 13  2  0
 12 14  1  0
 14 15  1  0
 15 16  1  0
 16 17  2  0
 17 18  1  0
 18 19  2  0
 19 20  1  0
 20 21  1  0
 19 22  1  0
 22 23  2  0
 15 24  1  0
 24 25  2  0
 25 26  1  0
 26 27  2  0
 27 28  1  0
 28 29  1  0
 27 30  1  0
 30 31  2  0
  4 32  1  0
 32 33  1  0
 33 34  2  0
 34 35  1  0
 35 36  2  0
 36 37  1  0
 37 38  2  0
 38 39  1  0
 39 40  2  0
 39 41  1  0
 37 42  1  0
 42 43  1  0
 43 44  1  0
 11  6  1  0
 23 16  1  0
 31 24  1  0
 38 33  1  0
 44 36  1  0
  1 45  1  0
  1 46  1  0
  2 47  1  0
  3 48  1  0
  3 49  1  0
  4 50  1  1
  5 51  1  0
  5 52  1  0
  7 53  1  0
  8 54  1  0
  9 55  1  0
 10 56  1  0
 14 57  1  0
 15 58  1  0
 17 59  1  0
 18 60  1  0
 21 61  1  0
 21 62  1  0
 21 63  1  0
 22 64  1  0
 23 65  1  0
 25 66  1  0
 26 67  1  0
 29 68  1  0
 29 69  1  0
 29 70  1  0
 30 71  1  0
 31 72  1  0
 32 73  1  0
 32 74  1  0
 34 75  1  0
 35 76  1  0
 43 77  1  0
 43 78  1  0
M  CHG  2   4   1  41  -1
M  END
>  <meeko>  (7) 
{"is_sidechain": [false], "free_energy": -7.056, "intermolecular_energy": -12.251, "internal_energy": -4.434}

$$$$
3zso_ligand
     RDKit          3D

 78 82  0  0  0  0  0  0  0  0999 V2000
  -11.0940   51.1950   -1.1080 C   0  0  0  0  0  0  0  0  0  0  0  0
  -11.9120   50.2250   -0.6760 C   0  0  0  0  0  0  0  0  0  0  0  0
  -11.5360   48.7760   -0.5730 C   0  0  0  0  0  0  0  0  0  0  0  0
  -11.4840   48.3070    0.8550 N   0  0  2  0  0  0  0  0  0  0  0  0
  -10.2660   48.8490    1.5900 C   0  0  0  0  0  0  0  0  0  0  0  0
  -10.3820   48.8750    3.0980 C   0  0  0  0  0  0  0  0  0  0  0  0
  -11.4170   49.5950    3.7160 C   0  0  0  0  0  0  0  0  0  0  0  0
  -11.5580   49.5810    5.1070 C   0  0  0  0  0  0  0  0  0  0  0  0
  -10.6760   48.8460    5.8990 C   0  0  0  0  0  0  0  0  0  0  0  0
   -9.6450   48.1220    5.3060 C   0  0  0  0  0  0  0  0  0  0  0  0
   -9.5020   48.1400    3.9150 C   0  0  0  0  0  0  0  0  0  0  0  0
   -8.3750   47.4100    3.3060 C   0  0  0  0  0  0  0  0  0  0  0  0
   -7.2400   47.7960    3.5490 O   0  0  0  0  0  0  0  0  0  0  0  0
   -8.7360   46.4130    2.4400 N   0  0  0  0  0  0  0  0  0  0  0  0
   -7.7740   45.8750    1.4850 C   0  0  0  0  0  0  0  0  0  0  0  0
   -7.2610   47.0150    0.6110 C   0  0  0  0  0  0  0  0  0  0  0  0
   -8.1210   47.5820   -0.3440 C   0  0  0  0  0  0  0  0  0  0  0  0
   -7.6730   48.5960   -1.1940 C   0  0  0  0  0  0  0  0  0  0  0  0
   -6.3610   49.0650   -1.1160 C   0  0  0  0  0  0  0  0  0  0  0  0
   -6.0530   50.0610   -2.0020 O   0  0  0  0  0  0  0  0  0  0  0  0
   -5.3330   51.1750   -1.4910 C   0  0  0  0  0  0  0  0  0  0  0  0
   -5.4930   48.4980   -0.1850 C   0  0  0  0  0  0  0  0  0  0  0  0
   -5.9370   47.4760    0.6660 C   0  0  0  0  0  0  0  0  0  0  0  0
   -8.3090   44.6800    0.6980 C   0  0  0  0  0  0  0  0  0  0  0  0
   -7.8130   44.4330   -0.5930 C   0  0  0  0  0  0  0  0  0  0  0  0
   -8.2920   43.3640   -1.3590 C   0  0  0  0  0  0  0  0  0  0  0  0
   -9.2800   42.5240   -0.8500 C   0  0  0  0  0  0  0  0  0  0  0  0
   -9.8350   41.4500   -1.4900 O   0  0  0  0  0  0  0  0  0  0  0  0
  -11.2280   41.5190   -1.7670 C   0  0  0  0  0  0  0  0  0  0  0  0
   -9.7830   42.7640    0.4300 C   0  0  0  0  0  0  0  0  0  0  0  0
   -9.3070   43.8310    1.1970 C   0  0  0  0  0  0  0  0  0  0  0  0
  -11.5080   46.7850    0.9170 C   0  0  0  0  0  0  0  0  0  0  0  0
  -12.1470   46.1300   -0.2870 C   0  0  0  0  0  0  0  0  0  0  0  0
  -11.3480   45.7330   -1.3860 C   0  0  0  0  0  0  0  0  0  0  0  0
  -11.9270   45.1510   -2.5150 C   0  0  0  0  0  0  0  0  0  0  0  0
  -13.2960   44.9810   -2.5250 C   0  0  0  0  0  0  0  0  0  0  0  0
  -14.0920   45.3640   -1.4700 C   0  0  0  0  0  0  0  0  0  0  0  0
  -13.5520   45.9420   -0.3370 C   0  0  0  0  0  0  0  0  0  0  0  0
  -14.4090   46.4010    0.7920 C   0  0  0  0  0  0  0  0  0  0  0  0
  -14.7720   45.5100    1.6130 O   0  0  0  0  0  0  0  0  0  0  0  0
  -14.5030   47.6560    0.9460 O   0  0  0  0  0  0  0  0  0  0  0  0
  -15.4050   45.1000   -1.7040 O   0  0  0  0  0  0  0  0  0  0  0  0
  -15.3460   44.5040   -3.0110 C   0  0  0  0  0  0  0  0  0  0  0  0
  -14.0090   44.4350   -3.5480 O   0  0  0  0  0  0  0  0  0  0  0  0
  -11.4496   52.2350   -1.1528 H   0  0  0  0  0  0  0  0  0  0  0  0
  -10.0671   50.9511   -1.4177 H   0  0  0  0  0  0  0  0  0  0  0  0
  -12.9308   50.5114   -0.3758 H   0  0  0  0  0  0  0  0  0  0  0  0
  -12.2809   48.1764   -1.1167 H   0  0  0  0  0  0  0  0  0  0  0  0
  -10.5327   48.6539   -1.0072 H   0  0  0  0  0  0  0  0  0  0  0  0
  -12.3050   48.6480    1.3520 H   0  0  0  0  0  0  0  0  0  0  0  0
   -9.4021   48.2213    1.3260 H   0  0  0  0  0  0  0  0  0  0  0  0
  -10.1606   49.8974    1.2740 H   0  0  0  0  0  0  0  0  0  0  0  0
  -12.1219   50.1742    3.1015 H   0  0  0  0  0  0  0  0  0  0  0  0
  -12.3697   50.1533    5.5798 H   0  0  0  0  0  0  0  0  0  0  0  0
  -10.7949   48.8383    6.9925 H   0  0  0  0  0  0  0  0  0  0  0  0
   -8.9481   47.5402    5.9271 H   0  0  0  0  0  0  0  0  0  0  0  0
   -9.7070   46.3560    2.1580 H   0  0  0  0  0  0  0  0  0  0  0  0
   -6.9202   45.4516    2.0343 H   0  0  0  0  0  0  0  0  0  0  0  0
   -9.1580   47.2238   -0.4234 H   0  0  0  0  0  0  0  0  0  0  0  0
   -8.3624   49.0298   -1.9333 H   0  0  0  0  0  0  0  0  0  0  0  0
   -5.3497   51.1492   -0.3914 H   0  0  0  0  0  0  0  0  0  0  0  0
   -4.2918   51.1314   -1.8431 H   0  0  0  0  0  0  0  0  0  0  0  0
   -5.8004   52.1064   -1.8431 H   0  0  0  0  0  0  0  0  0  0  0  0
   -4.4544   48.8540   -0.1174 H   0  0  0  0  0  0  0  0  0  0  0  0
   -5.2371   47.0291    1.3873 H   0  0  0  0  0  0  0  0  0  0  0  0
   -7.0353   45.0906   -1.0087 H   0  0  0  0  0  0  0  0  0  0  0  0
   -7.8870   43.1865   -2.3662 H   0  0  0  0  0  0  0  0  0  0  0  0
  -11.7890   41.5468   -0.8212 H   0  0  0  0  0  0  0  0  0  0  0  0
  -11.4419   42.4288   -2.3470 H   0  0  0  0  0  0  0  0  0  0  0  0
  -11.5307   40.6348   -2.3470 H   0  0  0  0  0  0  0  0  0  0  0  0
  -10.5631   42.1056    0.8397 H   0  0  0  0  0  0  0  0  0  0  0  0
   -9.7192   44.0064    2.2016 H   0  0  0  0  0  0  0  0  0  0  0  0
  -10.4714   46.4257    0.9966 H   0  0  0  0  0  0  0  0  0  0  0  0
  -12.1194   46.5118    1.7897 H   0  0  0  0  0  0  0  0  0  0  0  0
  -10.2591   45.8848   -1.3500 H   0  0  0  0  0  0  0  0  0  0  0  0
  -11.3106   44.8376   -3.3704 H   0  0  0  0  0  0  0  0  0  0  0  0
  -15.7496   43.4827   -2.9473 H   0  0  0  0  0  0  0  0  0  0  0  0
  -15.9352   45.1418   -3.6863 H   0  0  0  0  0  0  0  0  0  0  0  0
  1  2  2  0
  2  3  1  0
  3  4  1  0
  4  5  1  0
  5  6  1  0
  6  7  2  0
  7  8  1  0
  8  9  2  0
  9 10  1  0
 10 11  2  0
 11 12  1  0
 12 13  2  0
 12 14  1  0
 14 15  1  0
 15 16  1  0
 16 17  2  0
 17 18  1  0
 18 19  2  0
 19 20  1  0
 20 21  1  0
 19 22  1  0
 22 23  2  0
 15 24  1  0
 24 25  2  0
 25 26  1  0
 26 27  2  0
 27 28  1  0
 28 29  1  0
 27 30  1  0
 30 31  2  0
  4 32  1  0
 32 33  1  0
 33 34  2  0
 34 35  1  0
 35 36  2  0
 36 37  1  0
 37 38  2  0
 38 39  1  0
 39 40  2  0
 39 41  1  0
 37 42  1  0
 42 43  1  0
 43 44  1  0
 11  6  1  0
 23 16  1  0
 31 24  1  0
 38 33  1  0
 44 36  1  0
  1 45  1  0
  1 46  1  0
  2 47  1  0
  3 48  1  0
  3 49  1  0
  4 50  1  1
  5 51  1  0
  5 52  1  0
  7 53  1  0
  8 54  1  0
  9 55  1  0
 10 56  1  0
 14 57  1  0
 15 58  1  0
 17 59  1  0
 18 60  1  0
 21 61  1  0
 21 62  1  0
 21 63  1  0
 22 64  1  0
 23 65  1  0
 25 66  1  0
 26 67  1  0
 29 68  1  0
 29 69  1  0
 29 70  1  0
 30 71  1  0
 31 72  1  0
 32 73  1  0
 32 74  1  0
 34 75  1  0
 35 76  1  0
 43 77  1  0
 43 78  1  0
M  CHG  2   4   1  41  -1
M  END
>  <meeko>  (8) 
{"is_sidechain": [false], "free_energy": -7.043, "intermolecular_energy": -13.654, "internal_energy": -3.008}

$$$$
3zso_ligand
     RDKit          3D

 78 82  0  0  0  0  0  0  0  0999 V2000
   -5.2400   43.7970    5.6990 C   0  0  0  0  0  0  0  0  0  0  0  0
   -6.3870   44.1610    5.1090 C   0  0  0  0  0  0  0  0  0  0  0  0
   -6.9710   43.4950    3.8970 C   0  0  0  0  0  0  0  0  0  0  0  0
   -7.6370   44.4830    2.9780 N   0  0  2  0  0  0  0  0  0  0  0  0
   -7.3170   44.2080    1.5160 C   0  0  0  0  0  0  0  0  0  0  0  0
   -8.0180   43.0080    0.9170 C   0  0  0  0  0  0  0  0  0  0  0  0
   -7.2970   41.8390    0.6250 C   0  0  0  0  0  0  0  0  0  0  0  0
   -7.9490   40.7120    0.1190 C   0  0  0  0  0  0  0  0  0  0  0  0
   -9.3280   40.7310   -0.0990 C   0  0  0  0  0  0  0  0  0  0  0  0
  -10.0620   41.8790    0.1860 C   0  0  0  0  0  0  0  0  0  0  0  0
   -9.4070   43.0080    0.6900 C   0  0  0  0  0  0  0  0  0  0  0  0
  -10.1900   44.2320    0.9380 C   0  0  0  0  0  0  0  0  0  0  0  0
  -10.5460   44.4660    2.0850 O   0  0  0  0  0  0  0  0  0  0  0  0
  -10.5210   44.9420   -0.1850 N   0  0  0  0  0  0  0  0  0  0  0  0
  -11.5920   45.9310   -0.1500 C   0  0  0  0  0  0  0  0  0  0  0  0
  -12.6810   45.5090   -1.1310 C   0  0  0  0  0  0  0  0  0  0  0  0
  -13.9930   45.9710   -0.9340 C   0  0  0  0  0  0  0  0  0  0  0  0
  -15.0250   45.5700   -1.7850 C   0  0  0  0  0  0  0  0  0  0  0  0
  -14.7780   44.6980   -2.8460 C   0  0  0  0  0  0  0  0  0  0  0  0
  -15.8740   44.3880   -3.6020 O   0  0  0  0  0  0  0  0  0  0  0  0
  -15.7890   44.6530   -4.9970 C   0  0  0  0  0  0  0  0  0  0  0  0
  -13.4840   44.2190   -3.0410 C   0  0  0  0  0  0  0  0  0  0  0  0
  -12.4460   44.6150   -2.1870 C   0  0  0  0  0  0  0  0  0  0  0  0
  -11.0970   47.3620   -0.3480 C   0  0  0  0  0  0  0  0  0  0  0  0
  -11.2190   48.2820    0.7070 C   0  0  0  0  0  0  0  0  0  0  0  0
  -10.8000   49.6100    0.5620 C   0  0  0  0  0  0  0  0  0  0  0  0
  -10.2570   50.0450   -0.6450 C   0  0  0  0  0  0  0  0  0  0  0  0
   -9.8130   51.3090   -0.9200 O   0  0  0  0  0  0  0  0  0  0  0  0
   -9.9710   51.7660   -2.2580 C   0  0  0  0  0  0  0  0  0  0  0  0
  -10.1370   49.1410   -1.7020 C   0  0  0  0  0  0  0  0  0  0  0  0
  -10.5540   47.8150   -1.5600 C   0  0  0  0  0  0  0  0  0  0  0  0
   -7.2400   45.9060    3.3500 C   0  0  0  0  0  0  0  0  0  0  0  0
   -6.7450   46.7310    2.1830 C   0  0  0  0  0  0  0  0  0  0  0  0
   -7.6710   47.3200    1.2890 C   0  0  0  0  0  0  0  0  0  0  0  0
   -7.2280   48.0630    0.1920 C   0  0  0  0  0  0  0  0  0  0  0  0
   -5.8680   48.1990    0.0090 C   0  0  0  0  0  0  0  0  0  0  0  0
   -4.9510   47.6300    0.8640 C   0  0  0  0  0  0  0  0  0  0  0  0
   -5.3540   46.8910    1.9590 C   0  0  0  0  0  0  0  0  0  0  0  0
   -4.3700   46.2330    2.8650 C   0  0  0  0  0  0  0  0  0  0  0  0
   -4.1440   46.8220    3.9610 O   0  0  0  0  0  0  0  0  0  0  0  0
   -4.0300   45.0520    2.5550 O   0  0  0  0  0  0  0  0  0  0  0  0
   -3.6730   47.8970    0.4850 O   0  0  0  0  0  0  0  0  0  0  0  0
   -3.8850   48.6970   -0.6900 C   0  0  0  0  0  0  0  0  0  0  0  0
   -5.2800   48.8850   -1.0090 O   0  0  0  0  0  0  0  0  0  0  0  0
   -4.8815   44.3396    6.5862 H   0  0  0  0  0  0  0  0  0  0  0  0
   -4.6571   42.9557    5.2961 H   0  0  0  0  0  0  0  0  0  0  0  0
   -6.9393   45.0073    5.5434 H   0  0  0  0  0  0  0  0  0  0  0  0
   -6.1648   42.9865    3.3479 H   0  0  0  0  0  0  0  0  0  0  0  0
   -7.7336   42.7788    4.2367 H   0  0  0  0  0  0  0  0  0  0  0  0
   -8.6470   44.4080    3.0790 H   0  0  0  0  0  0  0  0  0  0  0  0
   -7.6031   45.0954    0.9324 H   0  0  0  0  0  0  0  0  0  0  0  0
   -6.2408   43.9837    1.4763 H   0  0  0  0  0  0  0  0  0  0  0  0
   -6.2107   41.8105    0.7960 H   0  0  0  0  0  0  0  0  0  0  0  0
   -7.3722   39.8036   -0.1092 H   0  0  0  0  0  0  0  0  0  0  0  0
   -9.8344   39.8388   -0.4960 H   0  0  0  0  0  0  0  0  0  0  0  0
  -11.1487   41.8984    0.0163 H   0  0  0  0  0  0  0  0  0  0  0  0
  -10.3580   44.5090   -1.0870 H   0  0  0  0  0  0  0  0  0  0  0  0
  -12.0286   45.9536    0.8594 H   0  0  0  0  0  0  0  0  0  0  0  0
  -14.2096   46.6557   -0.1008 H   0  0  0  0  0  0  0  0  0  0  0  0
  -16.0450   45.9461   -1.6169 H   0  0  0  0  0  0  0  0  0  0  0  0
  -15.4565   45.6898   -5.1537 H   0  0  0  0  0  0  0  0  0  0  0  0
  -15.0672   43.9628   -5.4580 H   0  0  0  0  0  0  0  0  0  0  0  0
  -16.7776   44.5114   -5.4580 H   0  0  0  0  0  0  0  0  0  0  0  0
  -13.2763   43.5263   -3.8698 H   0  0  0  0  0  0  0  0  0  0  0  0
  -11.4321   44.2193   -2.3466 H   0  0  0  0  0  0  0  0  0  0  0  0
  -11.6513   47.9531    1.6635 H   0  0  0  0  0  0  0  0  0  0  0  0
  -10.8998   50.3117    1.4032 H   0  0  0  0  0  0  0  0  0  0  0  0
  -10.3304   52.8056   -2.2503 H   0  0  0  0  0  0  0  0  0  0  0  0
   -9.0035   51.7163   -2.7791 H   0  0  0  0  0  0  0  0  0  0  0  0
  -10.7012   51.1294   -2.7791 H   0  0  0  0  0  0  0  0  0  0  0  0
   -9.7090   49.4766   -2.6581 H   0  0  0  0  0  0  0  0  0  0  0  0
  -10.4557   47.1195   -2.4065 H   0  0  0  0  0  0  0  0  0  0  0  0
   -8.1182   46.4087    3.7813 H   0  0  0  0  0  0  0  0  0  0  0  0
   -6.4050   45.8279    4.0618 H   0  0  0  0  0  0  0  0  0  0  0  0
   -8.7500   47.1914    1.4597 H   0  0  0  0  0  0  0  0  0  0  0  0
   -7.9425   48.5256   -0.5048 H   0  0  0  0  0  0  0  0  0  0  0  0
   -3.4280   49.6843   -0.5273 H   0  0  0  0  0  0  0  0  0  0  0  0
   -3.4269   48.1622   -1.5351 H   0  0  0  0  0  0  0  0  0  0  0  0
  1  2  2  0
  2  3  1  0
  3  4  1  0
  4  5  1  0
  5  6  1  0
  6  7  2  0
  7  8  1  0
  8  9  2  0
  9 10  1  0
 10 11  2  0
 11 12  1  0
 12 13  2  0
 12 14  1  0
 14 15  1  0
 15 16  1  0
 16 17  2  0
 17 18  1  0
 18 19  2  0
 19 20  1  0
 20 21  1  0
 19 22  1  0
 22 23  2  0
 15 24  1  0
 24 25  2  0
 25 26  1  0
 26 27  2  0
 27 28  1  0
 28 29  1  0
 27 30  1  0
 30 31  2  0
  4 32  1  0
 32 33  1  0
 33 34  2  0
 34 35  1  0
 35 36  2  0
 36 37  1  0
 37 38  2  0
 38 39  1  0
 39 40  2  0
 39 41  1  0
 37 42  1  0
 42 43  1  0
 43 44  1  0
 11  6  1  0
 23 16  1  0
 31 24  1  0
 38 33  1  0
 44 36  1  0
  1 45  1  0
  1 46  1  0
  2 47  1  0
  3 48  1  0
  3 49  1  0
  4 50  1  6
  5 51  1  0
  5 52  1  0
  7 53  1  0
  8 54  1  0
  9 55  1  0
 10 56  1  0
 14 57  1  0
 15 58  1  0
 17 59  1  0
 18 60  1  0
 21 61  1  0
 21 62  1  0
 21 63  1  0
 22 64  1  0
 23 65  1  0
 25 66  1  0
 26 67  1  0
 29 68  1  0
 29 69  1  0
 29 70  1  0
 30 71  1  0
 31 72  1  0
 32 73  1  0
 32 74  1  0
 34 75  1  0
 35 76  1  0
 43 77  1  0
 43 78  1  0
M  CHG  2   4   1  41  -1
M  END
>  <meeko>  (9) 
{"is_sidechain": [false], "free_energy": -6.963, "intermolecular_energy": -12.664, "internal_energy": -3.859}

$$$$
