3gr2_ligand
     RDKit          3D

 25 26  0  0  0  0  0  0  0  0999 V2000
  -37.8330    4.8750    8.9790 C   0  0  0  0  0  0  0  0  0  0  0  0
  -37.4730    5.7280   10.1860 C   0  0  0  0  0  0  0  0  0  0  0  0
  -35.9820    5.6710   10.5160 C   0  0  2  0  0  0  0  0  0  0  0  0
  -35.7310    5.2460   11.9680 C   0  0  0  0  0  0  0  0  0  0  0  0
  -36.0520    4.2040   12.5070 O   0  0  0  0  0  0  0  0  0  0  0  0
  -35.0590    6.3110   12.5360 N   0  0  0  0  0  0  0  0  0  0  0  0
  -34.6350    6.3820   13.8260 C   0  0  0  0  0  0  0  0  0  0  0  0
  -33.7070    7.1850   14.2980 N   0  0  0  0  0  0  0  0  0  0  0  0
  -33.6180    6.9050   15.6400 N   0  0  0  0  0  0  0  0  0  0  0  0
  -34.4710    5.9510   15.9850 N   0  0  0  0  0  0  0  0  0  0  0  0
  -35.1120    5.6180   14.8580 N   0  0  0  0  0  0  0  0  0  0  0  0
  -34.8520    7.3760   11.5690 N   0  0  0  0  0  0  0  0  0  0  0  0
  -35.3450    7.0450   10.4310 C   0  0  0  0  0  0  0  0  0  0  0  0
  -35.2740    7.9340    9.2510 C   0  0  0  0  0  0  0  0  0  0  0  0
  -38.2397    3.9113    9.3193 H   0  0  0  0  0  0  0  0  0  0  0  0
  -38.5873    5.3977    8.3725 H   0  0  0  0  0  0  0  0  0  0  0  0
  -36.9323    4.6992    8.3725 H   0  0  0  0  0  0  0  0  0  0  0  0
  -37.7485    6.7719    9.9756 H   0  0  0  0  0  0  0  0  0  0  0  0
  -38.0235    5.3325   11.0523 H   0  0  0  0  0  0  0  0  0  0  0  0
  -35.5616    4.9570    9.7925 H   0  0  0  0  0  0  0  0  0  0  0  0
  -35.8260    4.8950   14.8690 H   0  0  0  0  0  0  0  0  0  0  0  0
  -34.3720    8.2570   11.7820 H   0  0  0  0  0  0  0  0  0  0  0  0
  -35.1905    8.9791    9.5838 H   0  0  0  0  0  0  0  0  0  0  0  0
  -34.3940    7.6705    8.6458 H   0  0  0  0  0  0  0  0  0  0  0  0
  -36.1846    7.8135    8.6458 H   0  0  0  0  0  0  0  0  0  0  0  0
  1  2  1  0
  2  3  1  0
  3  4  1  0
  4  5  2  0
  4  6  1  0
  6  7  1  0
  7  8  2  0
  8  9  1  0
  9 10  2  0
 10 11  1  0
  6 12  1  0
 12 13  2  0
 13 14  1  0
 13  3  1  0
 11  7  1  0
  1 15  1  0
  1 16  1  0
  1 17  1  0
  2 18  1  0
  2 19  1  0
  3 20  1  6
 11 21  1  0
 12 22  1  0
 14 23  1  0
 14 24  1  0
 14 25  1  0
M  CHG  1  12   1
M  END
>  <meeko>  (1) 
{"is_sidechain": [false], "free_energy": -5.438, "intermolecular_energy": -6.074, "internal_energy": -0.434}

$$$$
3gr2_ligand
     RDKit          3D

 25 26  0  0  0  0  0  0  0  0999 V2000
  -38.9020    4.5450    9.1170 C   0  0  0  0  0  0  0  0  0  0  0  0
  -38.2160    5.6560    9.8980 C   0  0  0  0  0  0  0  0  0  0  0  0
  -36.6960    5.5040    9.9150 C   0  0  2  0  0  0  0  0  0  0  0  0
  -36.1630    5.2250   11.3260 C   0  0  0  0  0  0  0  0  0  0  0  0
  -36.4240    4.2840   12.0510 O   0  0  0  0  0  0  0  0  0  0  0  0
  -35.3180    6.2840   11.5980 N   0  0  0  0  0  0  0  0  0  0  0  0
  -34.6190    6.4630   12.7520 C   0  0  0  0  0  0  0  0  0  0  0  0
  -34.5600    7.5660   13.4640 N   0  0  0  0  0  0  0  0  0  0  0  0
  -33.7440    7.2780   14.5310 N   0  0  0  0  0  0  0  0  0  0  0  0
  -33.3100    6.0270   14.4760 N   0  0  0  0  0  0  0  0  0  0  0  0
  -33.8530    5.5080   13.3670 N   0  0  0  0  0  0  0  0  0  0  0  0
  -35.2580    7.2090   10.4800 N   0  0  0  0  0  0  0  0  0  0  0  0
  -36.0070    6.7970    9.5220 C   0  0  0  0  0  0  0  0  0  0  0  0
  -36.1390    7.5370    8.2480 C   0  0  0  0  0  0  0  0  0  0  0  0
  -39.3470    3.8243    9.8188 H   0  0  0  0  0  0  0  0  0  0  0  0
  -39.6917    4.9756    8.4838 H   0  0  0  0  0  0  0  0  0  0  0  0
  -38.1633    4.0319    8.4838 H   0  0  0  0  0  0  0  0  0  0  0  0
  -38.4692    6.6213    9.4352 H   0  0  0  0  0  0  0  0  0  0  0  0
  -38.5698    5.6021   10.9382 H   0  0  0  0  0  0  0  0  0  0  0  0
  -36.4887    4.6783    9.2184 H   0  0  0  0  0  0  0  0  0  0  0  0
  -33.6620    4.5440   13.1060 H   0  0  0  0  0  0  0  0  0  0  0  0
  -34.6890    8.0620   10.4720 H   0  0  0  0  0  0  0  0  0  0  0  0
  -36.3286    8.5998    8.4592 H   0  0  0  0  0  0  0  0  0  0  0  0
  -35.2091    7.4385    7.6687 H   0  0  0  0  0  0  0  0  0  0  0  0
  -36.9775    7.1230    7.6687 H   0  0  0  0  0  0  0  0  0  0  0  0
  1  2  1  0
  2  3  1  0
  3  4  1  0
  4  5  2  0
  4  6  1  0
  6  7  1  0
  7  8  2  0
  8  9  1  0
  9 10  2  0
 10 11  1  0
  6 12  1  0
 12 13  2  0
 13 14  1  0
 13  3  1  0
 11  7  1  0
  1 15  1  0
  1 16  1  0
  1 17  1  0
  2 18  1  0
  2 19  1  0
  3 20  1  6
 11 21  1  0
 12 22  1  0
 14 23  1  0
 14 24  1  0
 14 25  1  0
M  CHG  1  12   1
M  END
>  <meeko>  (2) 
{"is_sidechain": [false], "free_energy": -5.423, "intermolecular_energy": -6.05, "internal_energy": -0.441}

$$$$
3gr2_ligand
     RDKit          3D

 25 26  0  0  0  0  0  0  0  0999 V2000
  -34.4610    7.9500   10.0170 C   0  0  0  0  0  0  0  0  0  0  0  0
  -35.7740    7.3850   10.5400 C   0  0  0  0  0  0  0  0  0  0  0  0
  -35.8820    5.8750   10.3330 C   0  0  2  0  0  0  0  0  0  0  0  0
  -37.0940    5.5000    9.4700 C   0  0  0  0  0  0  0  0  0  0  0  0
  -37.3260    5.8330    8.3240 O   0  0  0  0  0  0  0  0  0  0  0  0
  -37.8700    4.6970   10.2830 N   0  0  0  0  0  0  0  0  0  0  0  0
  -39.0580    4.1310    9.9360 C   0  0  0  0  0  0  0  0  0  0  0  0
  -39.8240    3.3940   10.7080 N   0  0  0  0  0  0  0  0  0  0  0  0
  -40.9080    3.0480    9.9380 N   0  0  0  0  0  0  0  0  0  0  0  0
  -40.8090    3.5610    8.7190 N   0  0  0  0  0  0  0  0  0  0  0  0
  -39.6560    4.2410    8.7090 N   0  0  0  0  0  0  0  0  0  0  0  0
  -37.2550    4.5200   11.5880 N   0  0  0  0  0  0  0  0  0  0  0  0
  -36.1410    5.1560   11.6430 C   0  0  0  0  0  0  0  0  0  0  0  0
  -35.2880    5.1500   12.8520 C   0  0  0  0  0  0  0  0  0  0  0  0
  -33.8174    8.2270   10.8650 H   0  0  0  0  0  0  0  0  0  0  0  0
  -33.9534    7.1907    9.4040 H   0  0  0  0  0  0  0  0  0  0  0  0
  -34.6634    8.8407    9.4040 H   0  0  0  0  0  0  0  0  0  0  0  0
  -35.8474    7.6001   11.6163 H   0  0  0  0  0  0  0  0  0  0  0  0
  -36.5912    7.8599    9.9773 H   0  0  0  0  0  0  0  0  0  0  0  0
  -34.9292    5.5862    9.8654 H   0  0  0  0  0  0  0  0  0  0  0  0
  -39.3570    4.7290    7.8690 H   0  0  0  0  0  0  0  0  0  0  0  0
  -37.6640    3.9600   12.3430 H   0  0  0  0  0  0  0  0  0  0  0  0
  -35.9240    5.1545   13.7495 H   0  0  0  0  0  0  0  0  0  0  0  0
  -34.6592    4.2474   12.8527 H   0  0  0  0  0  0  0  0  0  0  0  0
  -34.6466    6.0437   12.8527 H   0  0  0  0  0  0  0  0  0  0  0  0
  1  2  1  0
  2  3  1  0
  3  4  1  0
  4  5  2  0
  4  6  1  0
  6  7  1  0
  7  8  2  0
  8  9  1  0
  9 10  2  0
 10 11  1  0
  6 12  1  0
 12 13  2  0
 13 14  1  0
 13  3  1  0
 11  7  1  0
  1 15  1  0
  1 16  1  0
  1 17  1  0
  2 18  1  0
  2 19  1  0
  3 20  1  6
 11 21  1  0
 12 22  1  0
 14 23  1  0
 14 24  1  0
 14 25  1  0
M  CHG  1  12   1
M  END
>  <meeko>  (3) 
{"is_sidechain": [false], "free_energy": -5.174, "intermolecular_energy": -5.79, "internal_energy": -0.423}

$$$$
3gr2_ligand
     RDKit          3D

 25 26  0  0  0  0  0  0  0  0999 V2000
  -36.9830    4.1570   11.4610 C   0  0  0  0  0  0  0  0  0  0  0  0
  -37.3780    5.1880   12.5090 C   0  0  0  0  0  0  0  0  0  0  0  0
  -36.5560    6.4710   12.4030 C   0  0  2  0  0  0  0  0  0  0  0  0
  -36.6400    7.0930   11.0030 C   0  0  0  0  0  0  0  0  0  0  0  0
  -37.6300    7.4920   10.4220 O   0  0  0  0  0  0  0  0  0  0  0  0
  -35.3380    7.0990   10.5420 N   0  0  0  0  0  0  0  0  0  0  0  0
  -34.9290    7.5590    9.3290 C   0  0  0  0  0  0  0  0  0  0  0  0
  -33.8530    8.2740    9.0890 N   0  0  0  0  0  0  0  0  0  0  0  0
  -33.8510    8.5030    7.7340 N   0  0  0  0  0  0  0  0  0  0  0  0
  -34.9030    7.9420    7.1550 N   0  0  0  0  0  0  0  0  0  0  0  0
  -35.5830    7.3490    8.1430 N   0  0  0  0  0  0  0  0  0  0  0  0
  -34.4280    6.5420   11.5300 N   0  0  0  0  0  0  0  0  0  0  0  0
  -35.0750    6.1930   12.5820 C   0  0  0  0  0  0  0  0  0  0  0  0
  -34.4050    5.6000   13.7600 C   0  0  0  0  0  0  0  0  0  0  0  0
  -36.6324    3.2419   11.9608 H   0  0  0  0  0  0  0  0  0  0  0  0
  -37.8543    3.9207   10.8325 H   0  0  0  0  0  0  0  0  0  0  0  0
  -36.1769    4.5633   10.8325 H   0  0  0  0  0  0  0  0  0  0  0  0
  -38.4410    5.4376   12.3758 H   0  0  0  0  0  0  0  0  0  0  0  0
  -37.1879    4.7489   13.4995 H   0  0  0  0  0  0  0  0  0  0  0  0
  -36.9664    7.1328   13.1799 H   0  0  0  0  0  0  0  0  0  0  0  0
  -36.4430    6.8450    7.9440 H   0  0  0  0  0  0  0  0  0  0  0  0
  -33.4160    6.4550   11.3910 H   0  0  0  0  0  0  0  0  0  0  0  0
  -34.8574    6.0004   14.6793 H   0  0  0  0  0  0  0  0  0  0  0  0
  -34.5250    4.5068   13.7384 H   0  0  0  0  0  0  0  0  0  0  0  0
  -33.3344    5.8519   13.7384 H   0  0  0  0  0  0  0  0  0  0  0  0
  1  2  1  0
  2  3  1  0
  3  4  1  0
  4  5  2  0
  4  6  1  0
  6  7  1  0
  7  8  2  0
  8  9  1  0
  9 10  2  0
 10 11  1  0
  6 12  1  0
 12 13  2  0
 13 14  1  0
 13  3  1  0
 11  7  1  0
  1 15  1  0
  1 16  1  0
  1 17  1  0
  2 18  1  0
  2 19  1  0
  3 20  1  1
 11 21  1  0
 12 22  1  0
 14 23  1  0
 14 24  1  0
 14 25  1  0
M  CHG  1  12   1
M  END
>  <meeko>  (4) 
{"is_sidechain": [false], "free_energy": -5.112, "intermolecular_energy": -5.693, "internal_energy": -0.451}

$$$$
3gr2_ligand
     RDKit          3D

 25 26  0  0  0  0  0  0  0  0999 V2000
  -36.6700    4.0110   11.6220 C   0  0  0  0  0  0  0  0  0  0  0  0
  -36.8520    5.1610   10.6420 C   0  0  0  0  0  0  0  0  0  0  0  0
  -36.7730    6.5260   11.3240 C   0  0  2  0  0  0  0  0  0  0  0  0
  -35.3830    6.7940   11.9150 C   0  0  0  0  0  0  0  0  0  0  0  0
  -34.3200    6.8500   11.3260 O   0  0  0  0  0  0  0  0  0  0  0  0
  -35.6010    6.9550   13.2690 N   0  0  0  0  0  0  0  0  0  0  0  0
  -34.6420    7.2070   14.2010 C   0  0  0  0  0  0  0  0  0  0  0  0
  -34.1000    8.3750   14.4640 N   0  0  0  0  0  0  0  0  0  0  0  0
  -33.1910    8.1470   15.4690 N   0  0  0  0  0  0  0  0  0  0  0  0
  -33.1750    6.8670   15.8140 N   0  0  0  0  0  0  0  0  0  0  0  0
  -34.0800    6.2710   15.0280 N   0  0  0  0  0  0  0  0  0  0  0  0
  -37.0120    6.8230   13.5930 N   0  0  0  0  0  0  0  0  0  0  0  0
  -37.6920    6.5940   12.5290 C   0  0  0  0  0  0  0  0  0  0  0  0
  -39.1610    6.4210   12.5530 C   0  0  0  0  0  0  0  0  0  0  0  0
  -36.7305    4.3936   12.6516 H   0  0  0  0  0  0  0  0  0  0  0  0
  -37.4611    3.2637   11.4614 H   0  0  0  0  0  0  0  0  0  0  0  0
  -35.6868    3.5445   11.4614 H   0  0  0  0  0  0  0  0  0  0  0  0
  -36.0631    5.1019    9.8777 H   0  0  0  0  0  0  0  0  0  0  0  0
  -37.8532    5.0664   10.1963 H   0  0  0  0  0  0  0  0  0  0  0  0
  -37.0394    7.2481   10.5382 H   0  0  0  0  0  0  0  0  0  0  0  0
  -34.2490    5.2720   15.1070 H   0  0  0  0  0  0  0  0  0  0  0  0
  -37.3920    6.9090   14.5420 H   0  0  0  0  0  0  0  0  0  0  0  0
  -39.5084    6.3801   13.5959 H   0  0  0  0  0  0  0  0  0  0  0  0
  -39.6385    7.2691   12.0405 H   0  0  0  0  0  0  0  0  0  0  0  0
  -39.4284    5.4852   12.0405 H   0  0  0  0  0  0  0  0  0  0  0  0
  1  2  1  0
  2  3  1  0
  3  4  1  0
  4  5  2  0
  4  6  1  0
  6  7  1  0
  7  8  2  0
  8  9  1  0
  9 10  2  0
 10 11  1  0
  6 12  1  0
 12 13  2  0
 13 14  1  0
 13  3  1  0
 11  7  1  0
  1 15  1  0
  1 16  1  0
  1 17  1  0
  2 18  1  0
  2 19  1  0
  3 20  1  6
 11 21  1  0
 12 22  1  0
 14 23  1  0
 14 24  1  0
 14 25  1  0
M  CHG  1  12   1
M  END
>  <meeko>  (5) 
{"is_sidechain": [false], "free_energy": -5.053, "intermolecular_energy": -5.85, "internal_energy": -0.228}

$$$$
3gr2_ligand
     RDKit          3D

 25 26  0  0  0  0  0  0  0  0999 V2000
  -37.2300    7.0100    8.6150 C   0  0  0  0  0  0  0  0  0  0  0  0
  -36.2290    6.4090    9.5920 C   0  0  0  0  0  0  0  0  0  0  0  0
  -36.7590    6.3810   11.0250 C   0  0  2  0  0  0  0  0  0  0  0  0
  -35.9080    7.2410   11.9680 C   0  0  0  0  0  0  0  0  0  0  0  0
  -35.6950    8.4360   11.9020 O   0  0  0  0  0  0  0  0  0  0  0  0
  -35.4290    6.3560   12.9150 N   0  0  0  0  0  0  0  0  0  0  0  0
  -34.6160    6.6750   13.9580 C   0  0  0  0  0  0  0  0  0  0  0  0
  -33.4180    6.1850   14.1900 N   0  0  0  0  0  0  0  0  0  0  0  0
  -32.9830    6.7940   15.3420 N   0  0  0  0  0  0  0  0  0  0  0  0
  -33.8930    7.6380   15.8080 N   0  0  0  0  0  0  0  0  0  0  0  0
  -34.9170    7.5710   14.9490 N   0  0  0  0  0  0  0  0  0  0  0  0
  -35.9090    5.0070   12.6630 N   0  0  0  0  0  0  0  0  0  0  0  0
  -36.6610    4.9900   11.6230 C   0  0  0  0  0  0  0  0  0  0  0  0
  -37.2990    3.7500   11.1290 C   0  0  0  0  0  0  0  0  0  0  0  0
  -38.0417    7.4973    9.1751 H   0  0  0  0  0  0  0  0  0  0  0  0
  -36.7235    7.7535    7.9820 H   0  0  0  0  0  0  0  0  0  0  0  0
  -37.6481    6.2134    7.9820 H   0  0  0  0  0  0  0  0  0  0  0  0
  -36.0039    5.3790    9.2783 H   0  0  0  0  0  0  0  0  0  0  0  0
  -35.3280    7.0399    9.5798 H   0  0  0  0  0  0  0  0  0  0  0  0
  -37.7949    6.7432   10.9487 H   0  0  0  0  0  0  0  0  0  0  0  0
  -35.7480    8.1380   15.0970 H   0  0  0  0  0  0  0  0  0  0  0  0
  -35.6750    4.1970   13.2470 H   0  0  0  0  0  0  0  0  0  0  0  0
  -37.6156    3.1347   11.9841 H   0  0  0  0  0  0  0  0  0  0  0  0
  -38.1765    4.0075   10.5178 H   0  0  0  0  0  0  0  0  0  0  0  0
  -36.5793    3.1857   10.5178 H   0  0  0  0  0  0  0  0  0  0  0  0
  1  2  1  0
  2  3  1  0
  3  4  1  0
  4  5  2  0
  4  6  1  0
  6  7  1  0
  7  8  2  0
  8  9  1  0
  9 10  2  0
 10 11  1  0
  6 12  1  0
 12 13  2  0
 13 14  1  0
 13  3  1  0
 11  7  1  0
  1 15  1  0
  1 16  1  0
  1 17  1  0
  2 18  1  0
  2 19  1  0
  3 20  1  6
 11 21  1  0
 12 22  1  0
 14 23  1  0
 14 24  1  0
 14 25  1  0
M  CHG  1  12   1
M  END
>  <meeko>  (6) 
{"is_sidechain": [false], "free_energy": -5.051, "intermolecular_energy": -5.668, "internal_energy": -0.408}

$$$$
3gr2_ligand
     RDKit          3D

 25 26  0  0  0  0  0  0  0  0999 V2000
  -35.4470    7.8220   11.2910 C   0  0  0  0  0  0  0  0  0  0  0  0
  -35.1920    6.3790   10.8800 C   0  0  0  0  0  0  0  0  0  0  0  0
  -35.7450    5.3780   11.8930 C   0  0  2  0  0  0  0  0  0  0  0  0
  -37.2510    5.5660   12.1220 C   0  0  0  0  0  0  0  0  0  0  0  0
  -38.1470    5.4750   11.3050 O   0  0  0  0  0  0  0  0  0  0  0  0
  -37.3680    5.8640   13.4660 N   0  0  0  0  0  0  0  0  0  0  0  0
  -38.5330    6.1190   14.1220 C   0  0  0  0  0  0  0  0  0  0  0  0
  -38.7560    5.9500   15.4060 N   0  0  0  0  0  0  0  0  0  0  0  0
  -40.0590    6.3340   15.6110 N   0  0  0  0  0  0  0  0  0  0  0  0
  -40.6240    6.7290   14.4790 N   0  0  0  0  0  0  0  0  0  0  0  0
  -39.6770    6.5990   13.5420 N   0  0  0  0  0  0  0  0  0  0  0  0
  -36.0690    5.8750   14.1170 N   0  0  0  0  0  0  0  0  0  0  0  0
  -35.1450    5.5970   13.2700 C   0  0  0  0  0  0  0  0  0  0  0  0
  -33.7180    5.5290   13.6520 C   0  0  0  0  0  0  0  0  0  0  0  0
  -35.4597    7.8939   12.3886 H   0  0  0  0  0  0  0  0  0  0  0  0
  -34.6484    8.4639   10.8907 H   0  0  0  0  0  0  0  0  0  0  0  0
  -36.4172    8.1513   10.8907 H   0  0  0  0  0  0  0  0  0  0  0  0
  -35.6724    6.1988    9.9070 H   0  0  0  0  0  0  0  0  0  0  0  0
  -34.1030    6.2335   10.8252 H   0  0  0  0  0  0  0  0  0  0  0  0
  -35.5052    4.3906   11.4718 H   0  0  0  0  0  0  0  0  0  0  0  0
  -39.8750    6.8440   12.5750 H   0  0  0  0  0  0  0  0  0  0  0  0
  -35.9290    6.0730   15.1130 H   0  0  0  0  0  0  0  0  0  0  0  0
  -33.6318    5.5249   14.7486 H   0  0  0  0  0  0  0  0  0  0  0  0
  -33.2731    4.6086   13.2458 H   0  0  0  0  0  0  0  0  0  0  0  0
  -33.1876    6.4029   13.2458 H   0  0  0  0  0  0  0  0  0  0  0  0
  1  2  1  0
  2  3  1  0
  3  4  1  0
  4  5  2  0
  4  6  1  0
  6  7  1  0
  7  8  2  0
  8  9  1  0
  9 10  2  0
 10 11  1  0
  6 12  1  0
 12 13  2  0
 13 14  1  0
 13  3  1  0
 11  7  1  0
  1 15  1  0
  1 16  1  0
  1 17  1  0
  2 18  1  0
  2 19  1  0
  3 20  1  6
 11 21  1  0
 12 22  1  0
 14 23  1  0
 14 24  1  0
 14 25  1  0
M  CHG  1  12   1
M  END
>  <meeko>  (7) 
{"is_sidechain": [false], "free_energy": -4.96, "intermolecular_energy": -5.531, "internal_energy": -0.444}

$$$$
3gr2_ligand
     RDKit          3D

 25 26  0  0  0  0  0  0  0  0999 V2000
  -37.0860    4.0920   11.3450 C   0  0  0  0  0  0  0  0  0  0  0  0
  -38.3530    4.3810   10.5520 C   0  0  0  0  0  0  0  0  0  0  0  0
  -38.3400    5.7720    9.9210 C   0  0  2  0  0  0  0  0  0  0  0  0
  -37.1760    5.9450    8.9360 C   0  0  0  0  0  0  0  0  0  0  0  0
  -36.9550    5.3100    7.9230 O   0  0  0  0  0  0  0  0  0  0  0  0
  -36.4270    6.9840    9.4540 N   0  0  0  0  0  0  0  0  0  0  0  0
  -35.2850    7.4850    8.9110 C   0  0  0  0  0  0  0  0  0  0  0  0
  -34.2480    7.9500    9.5710 N   0  0  0  0  0  0  0  0  0  0  0  0
  -33.3420    8.3420    8.6140 N   0  0  0  0  0  0  0  0  0  0  0  0
  -33.8130    8.1230    7.3950 N   0  0  0  0  0  0  0  0  0  0  0  0
  -35.0270    7.5860    7.5700 N   0  0  0  0  0  0  0  0  0  0  0  0
  -37.0170    7.4950   10.6800 N   0  0  0  0  0  0  0  0  0  0  0  0
  -38.0900    6.8480   10.9610 C   0  0  0  0  0  0  0  0  0  0  0  0
  -38.9090    7.1560   12.1530 C   0  0  0  0  0  0  0  0  0  0  0  0
  -37.3075    4.1425   12.4213 H   0  0  0  0  0  0  0  0  0  0  0  0
  -36.7172    3.0867   11.0934 H   0  0  0  0  0  0  0  0  0  0  0  0
  -36.3178    4.8380   11.0934 H   0  0  0  0  0  0  0  0  0  0  0  0
  -38.4483    3.6313    9.7527 H   0  0  0  0  0  0  0  0  0  0  0  0
  -39.2027    4.3368   11.2492 H   0  0  0  0  0  0  0  0  0  0  0  0
  -39.3205    5.8671    9.4315 H   0  0  0  0  0  0  0  0  0  0  0  0
  -35.5940    7.3280    6.7660 H   0  0  0  0  0  0  0  0  0  0  0  0
  -36.6220    8.2680   11.2270 H   0  0  0  0  0  0  0  0  0  0  0  0
  -38.3296    6.9381   13.0623 H   0  0  0  0  0  0  0  0  0  0  0  0
  -39.1872    8.2202   12.1417 H   0  0  0  0  0  0  0  0  0  0  0  0
  -39.8195    6.5389   12.1417 H   0  0  0  0  0  0  0  0  0  0  0  0
  1  2  1  0
  2  3  1  0
  3  4  1  0
  4  5  2  0
  4  6  1  0
  6  7  1  0
  7  8  2  0
  8  9  1  0
  9 10  2  0
 10 11  1  0
  6 12  1  0
 12 13  2  0
 13 14  1  0
 13  3  1  0
 11  7  1  0
  1 15  1  0
  1 16  1  0
  1 17  1  0
  2 18  1  0
  2 19  1  0
  3 20  1  6
 11 21  1  0
 12 22  1  0
 14 23  1  0
 14 24  1  0
 14 25  1  0
M  CHG  1  12   1
M  END
>  <meeko>  (8) 
{"is_sidechain": [false], "free_energy": -4.919, "intermolecular_energy": -5.498, "internal_energy": -0.431}

$$$$
3gr2_ligand
     RDKit          3D

 25 26  0  0  0  0  0  0  0  0999 V2000
  -34.7960    8.6420   14.3920 C   0  0  0  0  0  0  0  0  0  0  0  0
  -35.5250    8.6360   13.0560 C   0  0  0  0  0  0  0  0  0  0  0  0
  -35.4480    7.2800   12.3570 C   0  0  2  0  0  0  0  0  0  0  0  0
  -35.0230    7.4140   10.8890 C   0  0  0  0  0  0  0  0  0  0  0  0
  -33.9860    7.8760   10.4520 O   0  0  0  0  0  0  0  0  0  0  0  0
  -36.0800    6.8950   10.1670 N   0  0  0  0  0  0  0  0  0  0  0  0
  -36.1480    6.8130    8.8110 C   0  0  0  0  0  0  0  0  0  0  0  0
  -36.8750    5.9650    8.1180 N   0  0  0  0  0  0  0  0  0  0  0  0
  -36.6260    6.2530    6.7970 N   0  0  0  0  0  0  0  0  0  0  0  0
  -35.7650    7.2540    6.6830 N   0  0  0  0  0  0  0  0  0  0  0  0
  -35.4600    7.6120    7.9360 N   0  0  0  0  0  0  0  0  0  0  0  0
  -37.1400    6.4330   11.0480 N   0  0  0  0  0  0  0  0  0  0  0  0
  -36.8140    6.6230   12.2740 C   0  0  0  0  0  0  0  0  0  0  0  0
  -37.6990    6.2420   13.3960 C   0  0  0  0  0  0  0  0  0  0  0  0
  -35.5307    8.6360   15.2106 H   0  0  0  0  0  0  0  0  0  0  0  0
  -34.1578    7.7491   14.4655 H   0  0  0  0  0  0  0  0  0  0  0  0
  -34.1726    9.5453   14.4655 H   0  0  0  0  0  0  0  0  0  0  0  0
  -36.5824    8.8846   13.2294 H   0  0  0  0  0  0  0  0  0  0  0  0
  -35.0384    9.3772   12.4049 H   0  0  0  0  0  0  0  0  0  0  0  0
  -34.7267    6.6990   12.9505 H   0  0  0  0  0  0  0  0  0  0  0  0
  -34.8070    8.3710    8.1080 H   0  0  0  0  0  0  0  0  0  0  0  0
  -38.0150    6.0110   10.7180 H   0  0  0  0  0  0  0  0  0  0  0  0
  -37.1957    6.4587   14.3498 H   0  0  0  0  0  0  0  0  0  0  0  0
  -38.6349    6.8169   13.3363 H   0  0  0  0  0  0  0  0  0  0  0  0
  -37.9246    5.1670   13.3363 H   0  0  0  0  0  0  0  0  0  0  0  0
  1  2  1  0
  2  3  1  0
  3  4  1  0
  4  5  2  0
  4  6  1  0
  6  7  1  0
  7  8  2  0
  8  9  1  0
  9 10  2  0
 10 11  1  0
  6 12  1  0
 12 13  2  0
 13 14  1  0
 13  3  1  0
 11  7  1  0
  1 15  1  0
  1 16  1  0
  1 17  1  0
  2 18  1  0
  2 19  1  0
  3 20  1  1
 11 21  1  0
 12 22  1  0
 14 23  1  0
 14 24  1  0
 14 25  1  0
M  CHG  1  12   1
M  END
>  <meeko>  (9) 
{"is_sidechain": [false], "free_energy": -4.883, "intermolecular_energy": -5.45, "internal_energy": -0.438}

$$$$
