3wtj_ligand
     RDKit          3D

 25 26  0  0  0  0  0  0  0  0999 V2000
   30.7400  -31.1190  -26.4440 N   0  0  0  0  0  0  0  0  0  0  0  0
   30.5450  -30.0270  -26.7830 C   0  0  0  0  0  0  0  0  0  0  0  0
   30.2830  -28.7810  -27.1900 N   0  0  0  0  0  0  0  0  0  0  0  0
   31.1730  -27.8580  -27.0410 C   0  0  0  0  0  0  0  0  0  0  0  0
   32.7760  -28.0830  -26.3230 S   0  0  0  0  0  0  0  0  0  0  0  0
   33.3470  -26.4540  -26.8830 C   0  0  0  0  0  0  0  0  0  0  0  0
   32.0710  -25.6300  -26.9910 C   0  0  0  0  0  0  0  0  0  0  0  0
   31.0210  -26.5440  -27.4220 N   0  0  0  0  0  0  0  0  0  0  0  0
   29.7610  -25.9920  -27.8880 C   0  0  0  0  0  0  0  0  0  0  0  0
   29.8080  -25.7650  -29.3760 C   0  0  0  0  0  0  0  0  0  0  0  0
   29.7010  -24.4820  -29.9240 C   0  0  0  0  0  0  0  0  0  0  0  0
   29.7430  -24.3150  -31.3050 C   0  0  0  0  0  0  0  0  0  0  0  0
   29.8920  -25.4450  -32.0900 C   0  0  0  0  0  0  0  0  0  0  0  0
   29.9490  -25.3300  -33.7980 Cl  0  0  0  0  0  0  0  0  0  0  0  0
   30.0010  -26.6990  -31.6050 N   0  0  0  0  0  0  0  0  0  0  0  0
   29.9590  -26.8280  -30.2620 C   0  0  0  0  0  0  0  0  0  0  0  0
   34.0380  -26.0097  -26.1514 H   0  0  0  0  0  0  0  0  0  0  0  0
   33.8990  -26.5039  -27.8332 H   0  0  0  0  0  0  0  0  0  0  0  0
   31.8170  -25.1937  -26.0137 H   0  0  0  0  0  0  0  0  0  0  0  0
   32.1929  -24.8011  -27.7038 H   0  0  0  0  0  0  0  0  0  0  0  0
   28.9481  -26.6951  -27.6537 H   0  0  0  0  0  0  0  0  0  0  0  0
   29.5840  -25.0300  -27.3848 H   0  0  0  0  0  0  0  0  0  0  0  0
   29.5841  -23.6085  -29.2657 H   0  0  0  0  0  0  0  0  0  0  0  0
   29.6604  -23.3162  -31.7584 H   0  0  0  0  0  0  0  0  0  0  0  0
   30.0501  -27.8397  -29.8399 H   0  0  0  0  0  0  0  0  0  0  0  0
  1  2  3  0
  2  3  1  0
  3  4  2  0
  4  5  1  0
  5  6  1  0
  6  7  1  0
  7  8  1  0
  8  9  1  0
  9 10  1  0
 10 11  2  0
 11 12  1  0
 12 13  2  0
 13 14  1  0
 13 15  1  0
 15 16  2  0
  8  4  1  0
 16 10  1  0
  6 17  1  0
  6 18  1  0
  7 19  1  0
  7 20  1  0
  9 21  1  0
  9 22  1  0
 11 23  1  0
 12 24  1  0
 16 25  1  0
M  END
>  <meeko>  (1) 
{"is_sidechain": [false], "free_energy": -7.077, "intermolecular_energy": -7.904, "internal_energy": -0.293}

$$$$
3wtj_ligand
     RDKit          3D

 25 26  0  0  0  0  0  0  0  0999 V2000
   29.6340  -21.7720  -32.2490 N   0  0  0  0  0  0  0  0  0  0  0  0
   29.4670  -22.7970  -31.7330 C   0  0  0  0  0  0  0  0  0  0  0  0
   29.2680  -23.9580  -31.1010 N   0  0  0  0  0  0  0  0  0  0  0  0
   29.4470  -25.0690  -31.7320 C   0  0  0  0  0  0  0  0  0  0  0  0
   29.9530  -25.2220  -33.4220 S   0  0  0  0  0  0  0  0  0  0  0  0
   30.2710  -27.0010  -33.2530 C   0  0  0  0  0  0  0  0  0  0  0  0
   29.3470  -27.4370  -32.1250 C   0  0  0  0  0  0  0  0  0  0  0  0
   29.2770  -26.3240  -31.1890 N   0  0  0  0  0  0  0  0  0  0  0  0
   28.7030  -26.5490  -29.8740 C   0  0  0  0  0  0  0  0  0  0  0  0
   29.7800  -26.5220  -28.8220 C   0  0  0  0  0  0  0  0  0  0  0  0
   30.8750  -27.3910  -28.8750 C   0  0  0  0  0  0  0  0  0  0  0  0
   31.8470  -27.3390  -27.8790 C   0  0  0  0  0  0  0  0  0  0  0  0
   31.6840  -26.4140  -26.8640 C   0  0  0  0  0  0  0  0  0  0  0  0
   32.8300  -26.2850  -25.5960 Cl  0  0  0  0  0  0  0  0  0  0  0  0
   30.6460  -25.5560  -26.7740 N   0  0  0  0  0  0  0  0  0  0  0  0
   29.7210  -25.6300  -27.7560 C   0  0  0  0  0  0  0  0  0  0  0  0
   30.0269  -27.5317  -34.1851 H   0  0  0  0  0  0  0  0  0  0  0  0
   31.3277  -27.2232  -33.0433 H   0  0  0  0  0  0  0  0  0  0  0  0
   28.3459  -27.6633  -32.5208 H   0  0  0  0  0  0  0  0  0  0  0  0
   29.7243  -28.3454  -31.6327 H   0  0  0  0  0  0  0  0  0  0  0  0
   27.9666  -25.7604  -29.6597 H   0  0  0  0  0  0  0  0  0  0  0  0
   28.2145  -27.5345  -29.8607 H   0  0  0  0  0  0  0  0  0  0  0  0
   30.9679  -28.1125  -29.7001 H   0  0  0  0  0  0  0  0  0  0  0  0
   32.7167  -28.0122  -27.8990 H   0  0  0  0  0  0  0  0  0  0  0  0
   28.8655  -24.9400  -27.7096 H   0  0  0  0  0  0  0  0  0  0  0  0
  1  2  3  0
  2  3  1  0
  3  4  2  0
  4  5  1  0
  5  6  1  0
  6  7  1  0
  7  8  1  0
  8  9  1  0
  9 10  1  0
 10 11  2  0
 11 12  1  0
 12 13  2  0
 13 14  1  0
 13 15  1  0
 15 16  2  0
  8  4  1  0
 16 10  1  0
  6 17  1  0
  6 18  1  0
  7 19  1  0
  7 20  1  0
  9 21  1  0
  9 22  1  0
 11 23  1  0
 12 24  1  0
 16 25  1  0
M  END
>  <meeko>  (2) 
{"is_sidechain": [false], "free_energy": -6.509, "intermolecular_energy": -7.302, "internal_energy": -0.26}

$$$$
3wtj_ligand
     RDKit          3D

 25 26  0  0  0  0  0  0  0  0999 V2000
   29.8000  -29.0550  -34.1910 N   0  0  0  0  0  0  0  0  0  0  0  0
   29.5150  -28.4870  -33.2210 C   0  0  0  0  0  0  0  0  0  0  0  0
   29.1690  -27.8690  -32.0880 N   0  0  0  0  0  0  0  0  0  0  0  0
   29.3730  -26.6000  -31.9630 C   0  0  0  0  0  0  0  0  0  0  0  0
   30.0940  -25.5500  -33.1910 S   0  0  0  0  0  0  0  0  0  0  0  0
   29.6220  -24.0420  -32.2980 C   0  0  0  0  0  0  0  0  0  0  0  0
   29.5440  -24.4820  -30.8430 C   0  0  0  0  0  0  0  0  0  0  0  0
   29.0570  -25.8550  -30.8490 N   0  0  0  0  0  0  0  0  0  0  0  0
   28.6070  -26.4430  -29.5990 C   0  0  0  0  0  0  0  0  0  0  0  0
   29.7290  -26.4590  -28.5960 C   0  0  0  0  0  0  0  0  0  0  0  0
   29.7380  -25.5940  -27.4950 C   0  0  0  0  0  0  0  0  0  0  0  0
   30.7970  -25.6350  -26.5930 C   0  0  0  0  0  0  0  0  0  0  0  0
   31.8120  -26.5450  -26.8280 C   0  0  0  0  0  0  0  0  0  0  0  0
   33.1550  -26.6600  -25.7700 Cl  0  0  0  0  0  0  0  0  0  0  0  0
   31.8440  -27.3980  -27.8720 N   0  0  0  0  0  0  0  0  0  0  0  0
   30.8010  -27.3360  -28.7290 C   0  0  0  0  0  0  0  0  0  0  0  0
   30.3814  -23.2569  -32.4285 H   0  0  0  0  0  0  0  0  0  0  0  0
   28.6758  -23.6145  -32.6614 H   0  0  0  0  0  0  0  0  0  0  0  0
   30.5398  -24.4345  -30.3782 H   0  0  0  0  0  0  0  0  0  0  0  0
   28.8755  -23.8265  -30.2656 H   0  0  0  0  0  0  0  0  0  0  0  0
   27.7712  -25.8501  -29.1992 H   0  0  0  0  0  0  0  0  0  0  0  0
   28.2799  -27.4763  -29.7867 H   0  0  0  0  0  0  0  0  0  0  0  0
   28.9110  -24.8846  -27.3435 H   0  0  0  0  0  0  0  0  0  0  0  0
   30.8260  -24.9651  -25.7210 H   0  0  0  0  0  0  0  0  0  0  0  0
   30.7994  -28.0236  -29.5876 H   0  0  0  0  0  0  0  0  0  0  0  0
  1  2  3  0
  2  3  1  0
  3  4  2  0
  4  5  1  0
  5  6  1  0
  6  7  1  0
  7  8  1  0
  8  9  1  0
  9 10  1  0
 10 11  2  0
 11 12  1  0
 12 13  2  0
 13 14  1  0
 13 15  1  0
 15 16  2  0
  8  4  1  0
 16 10  1  0
  6 17  1  0
  6 18  1  0
  7 19  1  0
  7 20  1  0
  9 21  1  0
  9 22  1  0
 11 23  1  0
 12 24  1  0
 16 25  1  0
M  END
>  <meeko>  (3) 
{"is_sidechain": [false], "free_energy": -6.372, "intermolecular_energy": -7.169, "internal_energy": -0.242}

$$$$
3wtj_ligand
     RDKit          3D

 25 26  0  0  0  0  0  0  0  0999 V2000
   30.5380  -26.2620  -34.2630 N   0  0  0  0  0  0  0  0  0  0  0  0
   30.4670  -26.5700  -33.1470 C   0  0  0  0  0  0  0  0  0  0  0  0
   30.3900  -26.9660  -31.8730 N   0  0  0  0  0  0  0  0  0  0  0  0
   30.1330  -26.1020  -30.9490 C   0  0  0  0  0  0  0  0  0  0  0  0
   29.8570  -24.3730  -31.2060 S   0  0  0  0  0  0  0  0  0  0  0  0
   29.2450  -24.1330  -29.5140 C   0  0  0  0  0  0  0  0  0  0  0  0
   29.9190  -25.2410  -28.7160 C   0  0  0  0  0  0  0  0  0  0  0  0
   30.0260  -26.3890  -29.6060 N   0  0  0  0  0  0  0  0  0  0  0  0
   30.3630  -27.6840  -29.0400 C   0  0  0  0  0  0  0  0  0  0  0  0
   31.0870  -27.5090  -27.7320 C   0  0  0  0  0  0  0  0  0  0  0  0
   32.4350  -27.1360  -27.6870 C   0  0  0  0  0  0  0  0  0  0  0  0
   33.0710  -26.9910  -26.4570 C   0  0  0  0  0  0  0  0  0  0  0  0
   32.3290  -27.2270  -25.3130 C   0  0  0  0  0  0  0  0  0  0  0  0
   33.0350  -27.0760  -23.7590 Cl  0  0  0  0  0  0  0  0  0  0  0  0
   31.0290  -27.5860  -25.3090 N   0  0  0  0  0  0  0  0  0  0  0  0
   30.4400  -27.7160  -26.5170 C   0  0  0  0  0  0  0  0  0  0  0  0
   29.5347  -23.1436  -29.1304 H   0  0  0  0  0  0  0  0  0  0  0  0
   28.1476  -24.1747  -29.4516 H   0  0  0  0  0  0  0  0  0  0  0  0
   30.9190  -24.9193  -28.3897 H   0  0  0  0  0  0  0  0  0  0  0  0
   29.3389  -25.4902  -27.8152 H   0  0  0  0  0  0  0  0  0  0  0  0
   29.4397  -28.2573  -28.8700 H   0  0  0  0  0  0  0  0  0  0  0  0
   31.0166  -28.2226  -29.7419 H   0  0  0  0  0  0  0  0  0  0  0  0
   32.9900  -26.9580  -28.6199 H   0  0  0  0  0  0  0  0  0  0  0  0
   34.1296  -26.6982  -26.3965 H   0  0  0  0  0  0  0  0  0  0  0  0
   29.3788  -28.0045  -26.5427 H   0  0  0  0  0  0  0  0  0  0  0  0
  1  2  3  0
  2  3  1  0
  3  4  2  0
  4  5  1  0
  5  6  1  0
  6  7  1  0
  7  8  1  0
  8  9  1  0
  9 10  1  0
 10 11  2  0
 11 12  1  0
 12 13  2  0
 13 14  1  0
 13 15  1  0
 15 16  2  0
  8  4  1  0
 16 10  1  0
  6 17  1  0
  6 18  1  0
  7 19  1  0
  7 20  1  0
  9 21  1  0
  9 22  1  0
 11 23  1  0
 12 24  1  0
 16 25  1  0
M  END
>  <meeko>  (4) 
{"is_sidechain": [false], "free_energy": -6.19, "intermolecular_energy": -7.316, "internal_energy": 0.11}

$$$$
3wtj_ligand
     RDKit          3D

 25 26  0  0  0  0  0  0  0  0999 V2000
   29.7830  -30.0810  -34.3200 N   0  0  0  0  0  0  0  0  0  0  0  0
   28.6560  -30.0460  -34.5880 C   0  0  0  0  0  0  0  0  0  0  0  0
   27.3560  -29.9650  -34.8880 N   0  0  0  0  0  0  0  0  0  0  0  0
   26.7080  -31.0310  -35.2220 C   0  0  0  0  0  0  0  0  0  0  0  0
   27.3940  -32.6590  -35.3290 S   0  0  0  0  0  0  0  0  0  0  0  0
   25.7570  -33.4300  -35.4700 C   0  0  0  0  0  0  0  0  0  0  0  0
   24.8850  -32.3410  -36.0790 C   0  0  0  0  0  0  0  0  0  0  0  0
   25.3700  -31.0740  -35.5480 N   0  0  0  0  0  0  0  0  0  0  0  0
   24.5560  -29.8840  -35.7230 C   0  0  0  0  0  0  0  0  0  0  0  0
   23.4910  -29.8200  -34.6610 C   0  0  0  0  0  0  0  0  0  0  0  0
   23.8110  -29.5980  -33.3170 C   0  0  0  0  0  0  0  0  0  0  0  0
   22.7970  -29.5520  -32.3640 C   0  0  0  0  0  0  0  0  0  0  0  0
   21.4950  -29.7300  -32.7950 C   0  0  0  0  0  0  0  0  0  0  0  0
   20.1870  -29.6930  -31.6880 Cl  0  0  0  0  0  0  0  0  0  0  0  0
   21.1400  -29.9440  -34.0790 N   0  0  0  0  0  0  0  0  0  0  0  0
   22.1460  -29.9810  -34.9800 C   0  0  0  0  0  0  0  0  0  0  0  0
   25.7959  -34.3118  -36.1264 H   0  0  0  0  0  0  0  0  0  0  0  0
   25.3734  -33.7863  -34.5026 H   0  0  0  0  0  0  0  0  0  0  0  0
   24.9742  -32.3521  -37.1753 H   0  0  0  0  0  0  0  0  0  0  0  0
   23.8249  -32.4959  -35.8297 H   0  0  0  0  0  0  0  0  0  0  0  0
   25.1960  -28.9923  -35.6496 H   0  0  0  0  0  0  0  0  0  0  0  0
   24.0746  -29.9214  -36.7114 H   0  0  0  0  0  0  0  0  0  0  0  0
   24.8596  -29.4604  -33.0146 H   0  0  0  0  0  0  0  0  0  0  0  0
   23.0243  -29.3795  -31.3017 H   0  0  0  0  0  0  0  0  0  0  0  0
   21.8848  -30.1495  -36.0352 H   0  0  0  0  0  0  0  0  0  0  0  0
  1  2  3  0
  2  3  1  0
  3  4  2  0
  4  5  1  0
  5  6  1  0
  6  7  1  0
  7  8  1  0
  8  9  1  0
  9 10  1  0
 10 11  2  0
 11 12  1  0
 12 13  2  0
 13 14  1  0
 13 15  1  0
 15 16  2  0
  8  4  1  0
 16 10  1  0
  6 17  1  0
  6 18  1  0
  7 19  1  0
  7 20  1  0
  9 21  1  0
  9 22  1  0
 11 23  1  0
 12 24  1  0
 16 25  1  0
M  END
>  <meeko>  (5) 
{"is_sidechain": [false], "free_energy": -5.09, "intermolecular_energy": -5.646, "internal_energy": -0.331}

$$$$
3wtj_ligand
     RDKit          3D

 25 26  0  0  0  0  0  0  0  0999 V2000
   36.6060  -25.1720  -15.1830 N   0  0  0  0  0  0  0  0  0  0  0  0
   35.7480  -25.9510  -15.2240 C   0  0  0  0  0  0  0  0  0  0  0  0
   34.7890  -26.8800  -15.2710 N   0  0  0  0  0  0  0  0  0  0  0  0
   33.5530  -26.5200  -15.3650 C   0  0  0  0  0  0  0  0  0  0  0  0
   32.9720  -24.8500  -15.4430 S   0  0  0  0  0  0  0  0  0  0  0  0
   31.2980  -25.3660  -15.9180 C   0  0  0  0  0  0  0  0  0  0  0  0
   31.1630  -26.7670  -15.3370 C   0  0  0  0  0  0  0  0  0  0  0  0
   32.4800  -27.3830  -15.4250 N   0  0  0  0  0  0  0  0  0  0  0  0
   32.5990  -28.8150  -15.2140 C   0  0  0  0  0  0  0  0  0  0  0  0
   32.5670  -29.5410  -16.5330 C   0  0  0  0  0  0  0  0  0  0  0  0
   33.7130  -29.6680  -17.3260 C   0  0  0  0  0  0  0  0  0  0  0  0
   33.6410  -30.3410  -18.5420 C   0  0  0  0  0  0  0  0  0  0  0  0
   32.4180  -30.8650  -18.9200 C   0  0  0  0  0  0  0  0  0  0  0  0
   32.2390  -31.7060  -20.4020 Cl  0  0  0  0  0  0  0  0  0  0  0  0
   31.2890  -30.7700  -18.1870 N   0  0  0  0  0  0  0  0  0  0  0  0
   31.3920  -30.1120  -17.0120 C   0  0  0  0  0  0  0  0  0  0  0  0
   30.5441  -24.6904  -15.4876 H   0  0  0  0  0  0  0  0  0  0  0  0
   31.1419  -25.3433  -17.0066 H   0  0  0  0  0  0  0  0  0  0  0  0
   30.8387  -26.7129  -14.2873 H   0  0  0  0  0  0  0  0  0  0  0  0
   30.4130  -27.3540  -15.8874 H   0  0  0  0  0  0  0  0  0  0  0  0
   33.5502  -29.0291  -14.7047 H   0  0  0  0  0  0  0  0  0  0  0  0
   31.7558  -29.1574  -14.5960 H   0  0  0  0  0  0  0  0  0  0  0  0
   34.6675  -29.2373  -16.9893 H   0  0  0  0  0  0  0  0  0  0  0  0
   34.5285  -30.4527  -19.1822 H   0  0  0  0  0  0  0  0  0  0  0  0
   30.4873  -30.0215  -16.3929 H   0  0  0  0  0  0  0  0  0  0  0  0
  1  2  3  0
  2  3  1  0
  3  4  2  0
  4  5  1  0
  5  6  1  0
  6  7  1  0
  7  8  1  0
  8  9  1  0
  9 10  1  0
 10 11  2  0
 11 12  1  0
 12 13  2  0
 13 14  1  0
 13 15  1  0
 15 16  2  0
  8  4  1  0
 16 10  1  0
  6 17  1  0
  6 18  1  0
  7 19  1  0
  7 20  1  0
  9 21  1  0
  9 22  1  0
 11 23  1  0
 12 24  1  0
 16 25  1  0
M  END
>  <meeko>  (6) 
{"is_sidechain": [false], "free_energy": -5.054, "intermolecular_energy": -5.626, "internal_energy": -0.311}

$$$$
3wtj_ligand
     RDKit          3D

 25 26  0  0  0  0  0  0  0  0999 V2000
   32.1660  -31.9490  -20.5950 N   0  0  0  0  0  0  0  0  0  0  0  0
   32.4880  -31.1790  -19.7900 C   0  0  0  0  0  0  0  0  0  0  0  0
   32.8960  -30.2860  -18.8840 N   0  0  0  0  0  0  0  0  0  0  0  0
   32.1740  -30.0600  -17.8380 C   0  0  0  0  0  0  0  0  0  0  0  0
   30.6320  -30.8450  -17.4640 S   0  0  0  0  0  0  0  0  0  0  0  0
   30.6220  -30.2040  -15.7660 C   0  0  0  0  0  0  0  0  0  0  0  0
   31.4490  -28.9280  -15.8460 C   0  0  0  0  0  0  0  0  0  0  0  0
   32.4900  -29.1680  -16.8360 N   0  0  0  0  0  0  0  0  0  0  0  0
   33.6030  -28.2390  -16.9210 C   0  0  0  0  0  0  0  0  0  0  0  0
   33.1200  -26.8260  -16.7280 C   0  0  0  0  0  0  0  0  0  0  0  0
   32.4430  -26.1400  -17.7430 C   0  0  0  0  0  0  0  0  0  0  0  0
   32.0170  -24.8330  -17.5280 C   0  0  0  0  0  0  0  0  0  0  0  0
   32.2870  -24.2580  -16.2980 C   0  0  0  0  0  0  0  0  0  0  0  0
   31.8030  -22.6520  -15.9510 Cl  0  0  0  0  0  0  0  0  0  0  0  0
   32.9340  -24.8810  -15.2920 N   0  0  0  0  0  0  0  0  0  0  0  0
   33.3320  -26.1500  -15.5300 C   0  0  0  0  0  0  0  0  0  0  0  0
   29.5954  -29.9841  -15.4376 H   0  0  0  0  0  0  0  0  0  0  0  0
   31.0268  -30.9247  -15.0402 H   0  0  0  0  0  0  0  0  0  0  0  0
   30.8158  -28.0843  -16.1580 H   0  0  0  0  0  0  0  0  0  0  0  0
   31.8830  -28.6747  -14.8675 H   0  0  0  0  0  0  0  0  0  0  0  0
   34.3383  -28.4811  -16.1395 H   0  0  0  0  0  0  0  0  0  0  0  0
   34.0668  -28.3261  -17.9146 H   0  0  0  0  0  0  0  0  0  0  0  0
   32.2484  -26.6324  -18.7072 H   0  0  0  0  0  0  0  0  0  0  0  0
   31.4826  -24.2743  -18.3105 H   0  0  0  0  0  0  0  0  0  0  0  0
   33.8578  -26.6836  -14.7245 H   0  0  0  0  0  0  0  0  0  0  0  0
  1  2  3  0
  2  3  1  0
  3  4  2  0
  4  5  1  0
  5  6  1  0
  6  7  1  0
  7  8  1  0
  8  9  1  0
  9 10  1  0
 10 11  2  0
 11 12  1  0
 12 13  2  0
 13 14  1  0
 13 15  1  0
 15 16  2  0
  8  4  1  0
 16 10  1  0
  6 17  1  0
  6 18  1  0
  7 19  1  0
  7 20  1  0
  9 21  1  0
  9 22  1  0
 11 23  1  0
 12 24  1  0
 16 25  1  0
M  END
>  <meeko>  (7) 
{"is_sidechain": [false], "free_energy": -4.877, "intermolecular_energy": -5.678, "internal_energy": -0.061}

$$$$
3wtj_ligand
     RDKit          3D

 25 26  0  0  0  0  0  0  0  0999 V2000
   30.9250  -24.5860  -18.9500 N   0  0  0  0  0  0  0  0  0  0  0  0
   31.3410  -25.4050  -18.2440 C   0  0  0  0  0  0  0  0  0  0  0  0
   31.7820  -26.3650  -17.4240 N   0  0  0  0  0  0  0  0  0  0  0  0
   33.0290  -26.4010  -17.0930 C   0  0  0  0  0  0  0  0  0  0  0  0
   34.2690  -25.2610  -17.6340 S   0  0  0  0  0  0  0  0  0  0  0  0
   35.4760  -25.8680  -16.4220 C   0  0  0  0  0  0  0  0  0  0  0  0
   35.0520  -27.3080  -16.1660 C   0  0  0  0  0  0  0  0  0  0  0  0
   33.5980  -27.3360  -16.2560 N   0  0  0  0  0  0  0  0  0  0  0  0
   32.8890  -28.5090  -15.7760 C   0  0  0  0  0  0  0  0  0  0  0  0
   32.6420  -29.4700  -16.9090 C   0  0  0  0  0  0  0  0  0  0  0  0
   33.6780  -29.8910  -17.7500 C   0  0  0  0  0  0  0  0  0  0  0  0
   33.4080  -30.7760  -18.7900 C   0  0  0  0  0  0  0  0  0  0  0  0
   32.1030  -31.2070  -18.9490 C   0  0  0  0  0  0  0  0  0  0  0  0
   31.6810  -32.2920  -20.2070 Cl  0  0  0  0  0  0  0  0  0  0  0  0
   31.0740  -30.8300  -18.1630 N   0  0  0  0  0  0  0  0  0  0  0  0
   31.3690  -29.9730  -17.1610 C   0  0  0  0  0  0  0  0  0  0  0  0
   36.4957  -25.8282  -16.8326 H   0  0  0  0  0  0  0  0  0  0  0  0
   35.4933  -25.2630  -15.5035 H   0  0  0  0  0  0  0  0  0  0  0  0
   35.4920  -27.9736  -16.9232 H   0  0  0  0  0  0  0  0  0  0  0  0
   35.3951  -27.6532  -15.1796 H   0  0  0  0  0  0  0  0  0  0  0  0
   33.4927  -29.0069  -15.0029 H   0  0  0  0  0  0  0  0  0  0  0  0
   31.9222  -28.1956  -15.3552 H   0  0  0  0  0  0  0  0  0  0  0  0
   34.7025  -29.5238  -17.5898 H   0  0  0  0  0  0  0  0  0  0  0  0
   34.2062  -31.1214  -19.4635 H   0  0  0  0  0  0  0  0  0  0  0  0
   30.5495  -29.6518  -16.5013 H   0  0  0  0  0  0  0  0  0  0  0  0
  1  2  3  0
  2  3  1  0
  3  4  2  0
  4  5  1  0
  5  6  1  0
  6  7  1  0
  7  8  1  0
  8  9  1  0
  9 10  1  0
 10 11  2  0
 11 12  1  0
 12 13  2  0
 13 14  1  0
 13 15  1  0
 15 16  2  0
  8  4  1  0
 16 10  1  0
  6 17  1  0
  6 18  1  0
  7 19  1  0
  7 20  1  0
  9 21  1  0
  9 22  1  0
 11 23  1  0
 12 24  1  0
 16 25  1  0
M  END
>  <meeko>  (8) 
{"is_sidechain": [false], "free_energy": -4.856, "intermolecular_energy": -5.754, "internal_energy": 0.037}

$$$$
3wtj_ligand
     RDKit          3D

 25 26  0  0  0  0  0  0  0  0999 V2000
   20.5650  -33.7680  -31.0350 N   0  0  0  0  0  0  0  0  0  0  0  0
   21.2890  -33.2520  -31.7790 C   0  0  0  0  0  0  0  0  0  0  0  0
   22.1350  -32.6960  -32.6520 N   0  0  0  0  0  0  0  0  0  0  0  0
   22.3350  -31.4210  -32.6260 C   0  0  0  0  0  0  0  0  0  0  0  0
   21.5730  -30.2840  -31.5050 S   0  0  0  0  0  0  0  0  0  0  0  0
   22.6970  -28.9390  -31.9730 C   0  0  0  0  0  0  0  0  0  0  0  0
   23.1160  -29.2830  -33.3960 C   0  0  0  0  0  0  0  0  0  0  0  0
   23.1820  -30.7370  -33.4700 N   0  0  0  0  0  0  0  0  0  0  0  0
   23.8310  -31.3500  -34.6150 C   0  0  0  0  0  0  0  0  0  0  0  0
   25.2890  -30.9760  -34.6520 C   0  0  0  0  0  0  0  0  0  0  0  0
   25.8590  -30.3640  -35.7740 C   0  0  0  0  0  0  0  0  0  0  0  0
   27.2130  -30.0390  -35.7710 C   0  0  0  0  0  0  0  0  0  0  0  0
   27.9480  -30.3420  -34.6390 C   0  0  0  0  0  0  0  0  0  0  0  0
   29.6210  -29.9810  -34.5530 Cl  0  0  0  0  0  0  0  0  0  0  0  0
   27.4410  -30.9290  -33.5350 N   0  0  0  0  0  0  0  0  0  0  0  0
   26.1250  -31.2300  -33.5680 C   0  0  0  0  0  0  0  0  0  0  0  0
   22.1793  -27.9689  -31.9421 H   0  0  0  0  0  0  0  0  0  0  0  0
   23.5549  -28.8491  -31.2904 H   0  0  0  0  0  0  0  0  0  0  0  0
   22.3752  -28.8996  -34.1131 H   0  0  0  0  0  0  0  0  0  0  0  0
   24.0862  -28.8284  -33.6450 H   0  0  0  0  0  0  0  0  0  0  0  0
   23.7388  -32.4437  -34.5418 H   0  0  0  0  0  0  0  0  0  0  0  0
   23.3464  -30.9915  -35.5351 H   0  0  0  0  0  0  0  0  0  0  0  0
   25.2396  -30.1405  -36.6552 H   0  0  0  0  0  0  0  0  0  0  0  0
   27.6830  -29.5568  -36.6408 H   0  0  0  0  0  0  0  0  0  0  0  0
   25.6846  -31.7072  -32.6801 H   0  0  0  0  0  0  0  0  0  0  0  0
  1  2  3  0
  2  3  1  0
  3  4  2  0
  4  5  1  0
  5  6  1  0
  6  7  1  0
  7  8  1  0
  8  9  1  0
  9 10  1  0
 10 11  2  0
 11 12  1  0
 12 13  2  0
 13 14  1  0
 13 15  1  0
 15 16  2  0
  8  4  1  0
 16 10  1  0
  6 17  1  0
  6 18  1  0
  7 19  1  0
  7 20  1  0
  9 21  1  0
  9 22  1  0
 11 23  1  0
 12 24  1  0
 16 25  1  0
M  END
>  <meeko>  (9) 
{"is_sidechain": [false], "free_energy": -4.686, "intermolecular_energy": -5.259, "internal_energy": -0.267}

$$$$
