4qd6_ligand
     RDKit          3D

 62 66  0  0  0  0  0  0  0  0999 V2000
    6.8510   24.3590   19.9850 O   0  0  0  0  0  0  0  0  0  0  0  0
    5.9970   25.0830   19.0610 S   0  0  0  0  0  0  0  0  0  0  0  0
    6.3690   26.4040   18.5870 O   0  0  0  0  0  0  0  0  0  0  0  0
    5.7560   24.0750   17.6200 C   0  0  0  0  0  0  0  0  0  0  0  0
    6.7940   23.2400   17.1940 C   0  0  0  0  0  0  0  0  0  0  0  0
    6.6150   22.4530   16.0560 C   0  0  0  0  0  0  0  0  0  0  0  0
    5.4070   22.4980   15.3580 C   0  0  0  0  0  0  0  0  0  0  0  0
    4.3700   23.3250   15.7960 C   0  0  0  0  0  0  0  0  0  0  0  0
    4.5410   24.1160   16.9320 C   0  0  0  0  0  0  0  0  0  0  0  0
    4.4240   25.2250   19.8570 C   0  0  0  0  0  0  0  0  0  0  0  0
    3.9380   24.1830   20.6350 C   0  0  0  0  0  0  0  0  0  0  0  0
    2.7140   24.3520   21.2610 C   0  0  0  0  0  0  0  0  0  0  0  0
    2.2040   23.2750   22.0270 N   0  0  0  0  0  0  0  0  0  0  0  0
    0.8950   23.0140   22.2560 C   0  0  0  0  0  0  0  0  0  0  0  0
   -0.1830   22.9250   21.4110 C   0  0  0  0  0  0  0  0  0  0  0  0
   -1.3100   22.6330   22.2380 C   0  0  0  0  0  0  0  0  0  0  0  0
   -2.7100   22.4410   21.8330 C   0  0  0  0  0  0  0  0  0  0  0  0
   -3.3850   21.2530   22.1530 C   0  0  0  0  0  0  0  0  0  0  0  0
   -4.7150   21.0550   21.7720 C   0  0  0  0  0  0  0  0  0  0  0  0
   -5.3910   22.0450   21.0640 C   0  0  0  0  0  0  0  0  0  0  0  0
   -4.7380   23.2320   20.7390 C   0  0  0  0  0  0  0  0  0  0  0  0
   -3.4070   23.4290   21.1210 C   0  0  0  0  0  0  0  0  0  0  0  0
   -0.9320   22.5440   23.5250 N   0  0  0  0  0  0  0  0  0  0  0  0
    0.3900   22.7750   23.5020 N   0  0  0  0  0  0  0  0  0  0  0  0
    1.9830   25.4840   21.0880 N   0  0  0  0  0  0  0  0  0  0  0  0
    2.4510   26.4810   20.3070 C   0  0  0  0  0  0  0  0  0  0  0  0
    1.7360   27.6740   20.1560 N   0  0  0  0  0  0  0  0  0  0  0  0
    0.6540   27.9630   21.1060 C   0  0  2  0  0  0  0  0  0  0  0  0
   -0.7000   28.1050   20.3920 C   0  0  0  0  0  0  0  0  0  0  0  0
   -0.8160   29.3840   19.5600 C   0  0  0  0  0  0  0  0  0  0  0  0
   -0.4800   30.6320   20.3740 C   0  0  1  0  0  0  0  0  0  0  0  0
   -1.4600   30.8180   21.3910 O   0  0  0  0  0  0  0  0  0  0  0  0
    0.8900   30.5130   21.0380 C   0  0  0  0  0  0  0  0  0  0  0  0
    1.0100   29.2420   21.8810 C   0  0  0  0  0  0  0  0  0  0  0  0
    3.6830   26.3870   19.6830 C   0  0  0  0  0  0  0  0  0  0  0  0
    7.7421   23.2041   17.7507 H   0  0  0  0  0  0  0  0  0  0  0  0
    7.4264   21.7966   15.7085 H   0  0  0  0  0  0  0  0  0  0  0  0
    5.2710   21.8792   14.4587 H   0  0  0  0  0  0  0  0  0  0  0  0
    3.4184   23.3524   15.2449 H   0  0  0  0  0  0  0  0  0  0  0  0
    3.7263   24.7664   17.2830 H   0  0  0  0  0  0  0  0  0  0  0  0
    4.5087   23.2498   20.7510 H   0  0  0  0  0  0  0  0  0  0  0  0
    2.8890   22.8760   22.6590 H   0  0  0  0  0  0  0  0  0  0  0  0
   -0.1795   23.0527   20.3184 H   0  0  0  0  0  0  0  0  0  0  0  0
   -2.8591   20.4653   22.7124 H   0  0  0  0  0  0  0  0  0  0  0  0
   -5.2277   20.1170   22.0315 H   0  0  0  0  0  0  0  0  0  0  0  0
   -6.4374   21.8905   20.7622 H   0  0  0  0  0  0  0  0  0  0  0  0
   -5.2704   24.0161   20.1807 H   0  0  0  0  0  0  0  0  0  0  0  0
   -2.9005   24.3699   20.8601 H   0  0  0  0  0  0  0  0  0  0  0  0
    0.9290   22.7430   24.3610 H   0  0  0  0  0  0  0  0  0  0  0  0
    1.4630   27.8060   19.1870 H   0  0  0  0  0  0  0  0  0  0  0  0
    0.5528   27.1220   21.8078 H   0  0  0  0  0  0  0  0  0  0  0  0
   -0.8347   27.2412   19.7244 H   0  0  0  0  0  0  0  0  0  0  0  0
   -1.4750   28.1525   21.1711 H   0  0  0  0  0  0  0  0  0  0  0  0
   -0.1217   29.3179   18.7094 H   0  0  0  0  0  0  0  0  0  0  0  0
   -1.8580   29.4727   19.2190 H   0  0  0  0  0  0  0  0  0  0  0  0
   -0.4679   31.4886   19.6840 H   0  0  0  0  0  0  0  0  0  0  0  0
   -2.1990   31.3190   21.0030 H   0  0  0  0  0  0  0  0  0  0  0  0
    1.6633   30.4947   20.2559 H   0  0  0  0  0  0  0  0  0  0  0  0
    1.0200   31.3772   21.7060 H   0  0  0  0  0  0  0  0  0  0  0  0
    2.0468   29.1566   22.2384 H   0  0  0  0  0  0  0  0  0  0  0  0
    0.2922   29.3315   22.7097 H   0  0  0  0  0  0  0  0  0  0  0  0
    4.0659   27.2122   19.0645 H   0  0  0  0  0  0  0  0  0  0  0  0
  1  2  2  0
  2  3  2  0
  2  4  1  0
  4  5  2  0
  5  6  1  0
  6  7  2  0
  7  8  1  0
  8  9  2  0
  2 10  1  0
 10 11  2  0
 11 12  1  0
 12 13  1  0
 13 14  1  0
 14 15  2  0
 15 16  1  0
 16 17  1  0
 17 18  2  0
 18 19  1  0
 19 20  2  0
 20 21  1  0
 21 22  2  0
 16 23  2  0
 23 24  1  0
 12 25  2  0
 25 26  1  0
 26 27  1  0
 27 28  1  0
 28 29  1  0
 29 30  1  0
 30 31  1  0
 31 32  1  0
 31 33  1  0
 33 34  1  0
 26 35  2  0
  9  4  1  0
 35 10  1  0
 24 14  1  0
 34 28  1  0
 22 17  1  0
  5 36  1  0
  6 37  1  0
  7 38  1  0
  8 39  1  0
  9 40  1  0
 11 41  1  0
 13 42  1  0
 15 43  1  0
 18 44  1  0
 19 45  1  0
 20 46  1  0
 21 47  1  0
 22 48  1  0
 24 49  1  0
 27 50  1  0
 28 51  1  6
 29 52  1  0
 29 53  1  0
 30 54  1  0
 30 55  1  0
 31 56  1  1
 32 57  1  0
 33 58  1  0
 33 59  1  0
 34 60  1  0
 34 61  1  0
 35 62  1  0
M  END
>  <meeko>  (1) 
{"is_sidechain": [false], "free_energy": -8.026, "intermolecular_energy": -11.544, "internal_energy": -1.362}

$$$$
4qd6_ligand
     RDKit          3D

 62 66  0  0  0  0  0  0  0  0999 V2000
    2.6320   21.7520   16.7740 O   0  0  0  0  0  0  0  0  0  0  0  0
    1.9730   23.0140   17.0530 S   0  0  0  0  0  0  0  0  0  0  0  0
    1.9840   24.0880   16.0770 O   0  0  0  0  0  0  0  0  0  0  0  0
    0.2680   22.6820   17.4220 C   0  0  0  0  0  0  0  0  0  0  0  0
   -0.6010   23.7560   17.6400 C   0  0  0  0  0  0  0  0  0  0  0  0
   -1.9400   23.5010   17.9400 C   0  0  0  0  0  0  0  0  0  0  0  0
   -2.4010   22.1860   18.0150 C   0  0  0  0  0  0  0  0  0  0  0  0
   -1.5300   21.1180   17.7860 C   0  0  0  0  0  0  0  0  0  0  0  0
   -0.1900   21.3640   17.4850 C   0  0  0  0  0  0  0  0  0  0  0  0
    2.7090   23.6340   18.5380 C   0  0  0  0  0  0  0  0  0  0  0  0
    2.1340   23.3570   19.7700 C   0  0  0  0  0  0  0  0  0  0  0  0
    2.7630   23.8390   20.9070 C   0  0  0  0  0  0  0  0  0  0  0  0
    2.1570   23.5840   22.1610 N   0  0  0  0  0  0  0  0  0  0  0  0
    0.8710   23.2110   22.3600 C   0  0  0  0  0  0  0  0  0  0  0  0
   -0.2170   23.1920   21.5230 C   0  0  0  0  0  0  0  0  0  0  0  0
   -1.3090   22.7070   22.3050 C   0  0  0  0  0  0  0  0  0  0  0  0
   -2.7040   22.4970   21.8900 C   0  0  0  0  0  0  0  0  0  0  0  0
   -3.4390   23.5460   21.3160 C   0  0  0  0  0  0  0  0  0  0  0  0
   -4.7670   23.3620   20.9190 C   0  0  0  0  0  0  0  0  0  0  0  0
   -5.3800   22.1240   21.0920 C   0  0  0  0  0  0  0  0  0  0  0  0
   -4.6650   21.0700   21.6580 C   0  0  0  0  0  0  0  0  0  0  0  0
   -3.3360   21.2560   22.0550 C   0  0  0  0  0  0  0  0  0  0  0  0
   -0.9010   22.4380   23.5580 N   0  0  0  0  0  0  0  0  0  0  0  0
    0.4050   22.7490   23.5580 N   0  0  0  0  0  0  0  0  0  0  0  0
    3.8850   24.6010   20.8230 N   0  0  0  0  0  0  0  0  0  0  0  0
    4.4200   24.8900   19.6180 C   0  0  0  0  0  0  0  0  0  0  0  0
    5.6020   25.6300   19.5130 N   0  0  0  0  0  0  0  0  0  0  0  0
    6.7430   25.2450   20.3550 C   0  0  2  0  0  0  0  0  0  0  0  0
    7.4480   26.4760   20.9450 C   0  0  0  0  0  0  0  0  0  0  0  0
    8.2300   27.2850   19.9060 C   0  0  0  0  0  0  0  0  0  0  0  0
    9.1980   26.4130   19.1090 C   0  0  1  0  0  0  0  0  0  0  0  0
   10.2210   25.9230   19.9710 O   0  0  0  0  0  0  0  0  0  0  0  0
    8.4850   25.2200   18.4760 C   0  0  0  0  0  0  0  0  0  0  0  0
    7.7110   24.4000   19.5110 C   0  0  0  0  0  0  0  0  0  0  0  0
    3.8600   24.4060   18.4480 C   0  0  0  0  0  0  0  0  0  0  0  0
   -0.2331   24.7906   17.5757 H   0  0  0  0  0  0  0  0  0  0  0  0
   -2.6324   24.3371   18.1174 H   0  0  0  0  0  0  0  0  0  0  0  0
   -3.4561   21.9893   18.2558 H   0  0  0  0  0  0  0  0  0  0  0  0
   -1.9004   20.0838   17.8430 H   0  0  0  0  0  0  0  0  0  0  0  0
    0.4996   20.5274   17.2990 H   0  0  0  0  0  0  0  0  0  0  0  0
    1.2055   22.7716   19.8422 H   0  0  0  0  0  0  0  0  0  0  0  0
    2.6610   23.9970   22.9390 H   0  0  0  0  0  0  0  0  0  0  0  0
   -0.2424   23.4900   20.4644 H   0  0  0  0  0  0  0  0  0  0  0  0
   -2.9630   24.5278   21.1764 H   0  0  0  0  0  0  0  0  0  0  0  0
   -5.3274   24.1953   20.4700 H   0  0  0  0  0  0  0  0  0  0  0  0
   -6.4256   21.9782   20.7829 H   0  0  0  0  0  0  0  0  0  0  0  0
   -5.1462   20.0901   21.7929 H   0  0  0  0  0  0  0  0  0  0  0  0
   -2.7803   20.4185   22.5020 H   0  0  0  0  0  0  0  0  0  0  0  0
    0.9620   22.6140   24.3940 H   0  0  0  0  0  0  0  0  0  0  0  0
    5.4030   26.6260   19.5420 H   0  0  0  0  0  0  0  0  0  0  0  0
    6.3824   24.6514   21.2080 H   0  0  0  0  0  0  0  0  0  0  0  0
    6.6877   27.1304   21.3963 H   0  0  0  0  0  0  0  0  0  0  0  0
    8.1743   26.1104   21.6858 H   0  0  0  0  0  0  0  0  0  0  0  0
    7.5173   27.7514   19.2099 H   0  0  0  0  0  0  0  0  0  0  0  0
    8.8197   28.0438   20.4412 H   0  0  0  0  0  0  0  0  0  0  0  0
    9.6273   27.0348   18.3096 H   0  0  0  0  0  0  0  0  0  0  0  0
   10.6530   25.1730   19.5240 H   0  0  0  0  0  0  0  0  0  0  0  0
    7.7803   25.5894   17.7164 H   0  0  0  0  0  0  0  0  0  0  0  0
    9.2479   24.5673   18.0266 H   0  0  0  0  0  0  0  0  0  0  0  0
    7.1316   23.6284   18.9829 H   0  0  0  0  0  0  0  0  0  0  0  0
    8.4494   23.9643   20.2002 H   0  0  0  0  0  0  0  0  0  0  0  0
    4.3153   24.6274   17.4714 H   0  0  0  0  0  0  0  0  0  0  0  0
  1  2  2  0
  2  3  2  0
  2  4  1  0
  4  5  2  0
  5  6  1  0
  6  7  2  0
  7  8  1  0
  8  9  2  0
  2 10  1  0
 10 11  2  0
 11 12  1  0
 12 13  1  0
 13 14  1  0
 14 15  2  0
 15 16  1  0
 16 17  1  0
 17 18  2  0
 18 19  1  0
 19 20  2  0
 20 21  1  0
 21 22  2  0
 16 23  2  0
 23 24  1  0
 12 25  2  0
 25 26  1  0
 26 27  1  0
 27 28  1  0
 28 29  1  0
 29 30  1  0
 30 31  1  0
 31 32  1  0
 31 33  1  0
 33 34  1  0
 26 35  2  0
  9  4  1  0
 35 10  1  0
 24 14  1  0
 34 28  1  0
 22 17  1  0
  5 36  1  0
  6 37  1  0
  7 38  1  0
  8 39  1  0
  9 40  1  0
 11 41  1  0
 13 42  1  0
 15 43  1  0
 18 44  1  0
 19 45  1  0
 20 46  1  0
 21 47  1  0
 22 48  1  0
 24 49  1  0
 27 50  1  0
 28 51  1  6
 29 52  1  0
 29 53  1  0
 30 54  1  0
 30 55  1  0
 31 56  1  1
 32 57  1  0
 33 58  1  0
 33 59  1  0
 34 60  1  0
 34 61  1  0
 35 62  1  0
M  END
>  <meeko>  (2) 
{"is_sidechain": [false], "free_energy": -7.804, "intermolecular_energy": -10.728, "internal_energy": -1.86}

$$$$
4qd6_ligand
     RDKit          3D

 62 66  0  0  0  0  0  0  0  0999 V2000
    1.6570   28.1140   18.0120 O   0  0  0  0  0  0  0  0  0  0  0  0
    1.1970   27.7460   19.3380 S   0  0  0  0  0  0  0  0  0  0  0  0
    1.1900   28.7170   20.4170 O   0  0  0  0  0  0  0  0  0  0  0  0
   -0.4620   27.1290   19.2000 C   0  0  0  0  0  0  0  0  0  0  0  0
   -0.8500   26.4780   18.0250 C   0  0  0  0  0  0  0  0  0  0  0  0
   -2.1550   25.9990   17.9070 C   0  0  0  0  0  0  0  0  0  0  0  0
   -3.0580   26.1670   18.9580 C   0  0  0  0  0  0  0  0  0  0  0  0
   -2.6620   26.8080   20.1330 C   0  0  0  0  0  0  0  0  0  0  0  0
   -1.3590   27.2900   20.2600 C   0  0  0  0  0  0  0  0  0  0  0  0
    2.2090   26.3880   19.8490 C   0  0  0  0  0  0  0  0  0  0  0  0
    1.7540   25.5020   20.8150 C   0  0  0  0  0  0  0  0  0  0  0  0
    2.5700   24.4370   21.1620 C   0  0  0  0  0  0  0  0  0  0  0  0
    2.1180   23.5540   22.1710 N   0  0  0  0  0  0  0  0  0  0  0  0
    0.8350   23.1710   22.3760 C   0  0  0  0  0  0  0  0  0  0  0  0
   -0.2490   23.1180   21.5350 C   0  0  0  0  0  0  0  0  0  0  0  0
   -1.3380   22.6390   22.3260 C   0  0  0  0  0  0  0  0  0  0  0  0
   -2.7290   22.4020   21.9110 C   0  0  0  0  0  0  0  0  0  0  0  0
   -3.3640   21.1890   22.2170 C   0  0  0  0  0  0  0  0  0  0  0  0
   -4.6840   20.9490   21.8270 C   0  0  0  0  0  0  0  0  0  0  0  0
   -5.3900   21.9220   21.1240 C   0  0  0  0  0  0  0  0  0  0  0  0
   -4.7770   23.1330   20.8130 C   0  0  0  0  0  0  0  0  0  0  0  0
   -3.4550   23.3720   21.2040 C   0  0  0  0  0  0  0  0  0  0  0  0
   -0.9310   22.4050   23.5860 N   0  0  0  0  0  0  0  0  0  0  0  0
    0.3710   22.7310   23.5820 N   0  0  0  0  0  0  0  0  0  0  0  0
    3.8010   24.2840   20.6080 N   0  0  0  0  0  0  0  0  0  0  0  0
    4.2470   25.1670   19.6900 C   0  0  0  0  0  0  0  0  0  0  0  0
    5.4910   24.9980   19.0730 N   0  0  0  0  0  0  0  0  0  0  0  0
    6.6610   24.7350   19.9220 C   0  0  2  0  0  0  0  0  0  0  0  0
    7.0350   25.9660   20.7620 C   0  0  0  0  0  0  0  0  0  0  0  0
    7.6390   27.1040   19.9360 C   0  0  0  0  0  0  0  0  0  0  0  0
    8.8130   26.6330   19.0800 C   0  0  1  0  0  0  0  0  0  0  0  0
    9.8920   26.2390   19.9220 O   0  0  0  0  0  0  0  0  0  0  0  0
    8.4240   25.4450   18.2040 C   0  0  0  0  0  0  0  0  0  0  0  0
    7.8290   24.2970   19.0240 C   0  0  0  0  0  0  0  0  0  0  0  0
    3.4640   26.2300   19.2760 C   0  0  0  0  0  0  0  0  0  0  0  0
   -0.1331   26.3448   17.2014 H   0  0  0  0  0  0  0  0  0  0  0  0
   -2.4723   25.4889   16.9856 H   0  0  0  0  0  0  0  0  0  0  0  0
   -4.0875   25.7921   18.8597 H   0  0  0  0  0  0  0  0  0  0  0  0
   -3.3775   26.9331   20.9591 H   0  0  0  0  0  0  0  0  0  0  0  0
   -1.0405   27.7920   21.1855 H   0  0  0  0  0  0  0  0  0  0  0  0
    0.7727   25.6411   21.2922 H   0  0  0  0  0  0  0  0  0  0  0  0
    2.7730   23.4570   22.9400 H   0  0  0  0  0  0  0  0  0  0  0  0
   -0.2739   23.3891   20.4692 H   0  0  0  0  0  0  0  0  0  0  0  0
   -2.8142   20.4150   22.7725 H   0  0  0  0  0  0  0  0  0  0  0  0
   -5.1655   19.9916   22.0752 H   0  0  0  0  0  0  0  0  0  0  0  0
   -6.4290   21.7344   20.8153 H   0  0  0  0  0  0  0  0  0  0  0  0
   -5.3332   23.9033   20.2588 H   0  0  0  0  0  0  0  0  0  0  0  0
   -2.9794   24.3318   20.9541 H   0  0  0  0  0  0  0  0  0  0  0  0
    0.9270   22.6230   24.4240 H   0  0  0  0  0  0  0  0  0  0  0  0
    5.6520   25.7300   18.3880 H   0  0  0  0  0  0  0  0  0  0  0  0
    6.4216   23.9311   20.6336 H   0  0  0  0  0  0  0  0  0  0  0  0
    6.1267   26.3389   21.2579 H   0  0  0  0  0  0  0  0  0  0  0  0
    7.8010   25.6463   21.4839 H   0  0  0  0  0  0  0  0  0  0  0  0
    6.8609   27.5145   19.2757 H   0  0  0  0  0  0  0  0  0  0  0  0
    8.0138   27.8670   20.6341 H   0  0  0  0  0  0  0  0  0  0  0  0
    9.1112   27.4703   18.4320 H   0  0  0  0  0  0  0  0  0  0  0  0
    9.5120   25.8700   20.7400 H   0  0  0  0  0  0  0  0  0  0  0  0
    7.6792   25.7771   17.4658 H   0  0  0  0  0  0  0  0  0  0  0  0
    9.3349   25.0738   17.7116 H   0  0  0  0  0  0  0  0  0  0  0  0
    7.4660   23.5239   18.3308 H   0  0  0  0  0  0  0  0  0  0  0  0
    8.6246   23.9204   19.6837 H   0  0  0  0  0  0  0  0  0  0  0  0
    3.8268   26.9328   18.5116 H   0  0  0  0  0  0  0  0  0  0  0  0
  1  2  2  0
  2  3  2  0
  2  4  1  0
  4  5  2  0
  5  6  1  0
  6  7  2  0
  7  8  1  0
  8  9  2  0
  2 10  1  0
 10 11  2  0
 11 12  1  0
 12 13  1  0
 13 14  1  0
 14 15  2  0
 15 16  1  0
 16 17  1  0
 17 18  2  0
 18 19  1  0
 19 20  2  0
 20 21  1  0
 21 22  2  0
 16 23  2  0
 23 24  1  0
 12 25  2  0
 25 26  1  0
 26 27  1  0
 27 28  1  0
 28 29  1  0
 29 30  1  0
 30 31  1  0
 31 32  1  0
 31 33  1  0
 33 34  1  0
 26 35  2  0
  9  4  1  0
 35 10  1  0
 24 14  1  0
 34 28  1  0
 22 17  1  0
  5 36  1  0
  6 37  1  0
  7 38  1  0
  8 39  1  0
  9 40  1  0
 11 41  1  0
 13 42  1  0
 15 43  1  0
 18 44  1  0
 19 45  1  0
 20 46  1  0
 21 47  1  0
 22 48  1  0
 24 49  1  0
 27 50  1  0
 28 51  1  6
 29 52  1  0
 29 53  1  0
 30 54  1  0
 30 55  1  0
 31 56  1  1
 32 57  1  0
 33 58  1  0
 33 59  1  0
 34 60  1  0
 34 61  1  0
 35 62  1  0
M  END
>  <meeko>  (3) 
{"is_sidechain": [false], "free_energy": -7.803, "intermolecular_energy": -10.813, "internal_energy": -1.773}

$$$$
4qd6_ligand
     RDKit          3D

 62 66  0  0  0  0  0  0  0  0999 V2000
    6.1170   25.4110   17.8320 O   0  0  0  0  0  0  0  0  0  0  0  0
    6.3020   25.3580   19.2700 S   0  0  0  0  0  0  0  0  0  0  0  0
    7.0140   24.2520   19.8860 O   0  0  0  0  0  0  0  0  0  0  0  0
    7.1330   26.8420   19.7800 C   0  0  0  0  0  0  0  0  0  0  0  0
    7.5780   27.7400   18.8050 C   0  0  0  0  0  0  0  0  0  0  0  0
    8.2390   28.9040   19.1980 C   0  0  0  0  0  0  0  0  0  0  0  0
    8.4460   29.1650   20.5530 C   0  0  0  0  0  0  0  0  0  0  0  0
    7.9890   28.2700   21.5230 C   0  0  0  0  0  0  0  0  0  0  0  0
    7.3260   27.1040   21.1380 C   0  0  0  0  0  0  0  0  0  0  0  0
    4.6810   25.4090   19.9760 C   0  0  0  0  0  0  0  0  0  0  0  0
    4.1680   24.2960   20.6290 C   0  0  0  0  0  0  0  0  0  0  0  0
    2.9050   24.3940   21.1900 C   0  0  0  0  0  0  0  0  0  0  0  0
    2.3700   23.2480   21.8270 N   0  0  0  0  0  0  0  0  0  0  0  0
    1.0630   23.0340   22.1110 C   0  0  0  0  0  0  0  0  0  0  0  0
   -0.0400   22.9070   21.3030 C   0  0  0  0  0  0  0  0  0  0  0  0
   -1.1490   22.7040   22.1790 C   0  0  0  0  0  0  0  0  0  0  0  0
   -2.5640   22.5140   21.8280 C   0  0  0  0  0  0  0  0  0  0  0  0
   -3.2720   23.5270   21.1630 C   0  0  0  0  0  0  0  0  0  0  0  0
   -4.6180   23.3620   20.8250 C   0  0  0  0  0  0  0  0  0  0  0  0
   -5.2770   22.1790   21.1480 C   0  0  0  0  0  0  0  0  0  0  0  0
   -4.5900   21.1620   21.8070 C   0  0  0  0  0  0  0  0  0  0  0  0
   -3.2420   21.3280   22.1440 C   0  0  0  0  0  0  0  0  0  0  0  0
   -0.7370   22.7020   23.4600 N   0  0  0  0  0  0  0  0  0  0  0  0
    0.5890   22.9010   23.3840 N   0  0  0  0  0  0  0  0  0  0  0  0
    2.1650   25.5270   21.0700 N   0  0  0  0  0  0  0  0  0  0  0  0
    2.6610   26.5940   20.4080 C   0  0  0  0  0  0  0  0  0  0  0  0
    1.9340   27.7860   20.3160 N   0  0  0  0  0  0  0  0  0  0  0  0
    0.8590   28.0240   21.2880 C   0  0  2  0  0  0  0  0  0  0  0  0
   -0.5190   28.0520   20.6090 C   0  0  0  0  0  0  0  0  0  0  0  0
   -0.7470   29.2980   19.7500 C   0  0  0  0  0  0  0  0  0  0  0  0
   -0.4780   30.5870   20.5230 C   0  0  1  0  0  0  0  0  0  0  0  0
   -1.4410   30.7320   21.5620 O   0  0  0  0  0  0  0  0  0  0  0  0
    0.9140   30.5810   21.1510 C   0  0  0  0  0  0  0  0  0  0  0  0
    1.1460   29.3440   22.0220 C   0  0  0  0  0  0  0  0  0  0  0  0
    3.9300   26.5710   19.8560 C   0  0  0  0  0  0  0  0  0  0  0  0
    7.4085   27.5307   17.7385 H   0  0  0  0  0  0  0  0  0  0  0  0
    8.5970   29.6160   18.4397 H   0  0  0  0  0  0  0  0  0  0  0  0
    8.9723   30.0812   20.8591 H   0  0  0  0  0  0  0  0  0  0  0  0
    8.1516   28.4841   22.5896 H   0  0  0  0  0  0  0  0  0  0  0  0
    6.9588   26.3978   21.8972 H   0  0  0  0  0  0  0  0  0  0  0  0
    4.7475   23.3637   20.6988 H   0  0  0  0  0  0  0  0  0  0  0  0
    3.0640   22.7180   22.3440 H   0  0  0  0  0  0  0  0  0  0  0  0
   -0.0642   22.9524   20.2042 H   0  0  0  0  0  0  0  0  0  0  0  0
   -2.7596   24.4653   20.9038 H   0  0  0  0  0  0  0  0  0  0  0  0
   -5.1568   24.1670   20.3037 H   0  0  0  0  0  0  0  0  0  0  0  0
   -6.3367   22.0478   20.8837 H   0  0  0  0  0  0  0  0  0  0  0  0
   -5.1084   20.2262   22.0631 H   0  0  0  0  0  0  0  0  0  0  0  0
   -2.7079   20.5184   22.6630 H   0  0  0  0  0  0  0  0  0  0  0  0
    1.1510   22.9200   24.2280 H   0  0  0  0  0  0  0  0  0  0  0  0
    1.6490   27.9570   19.3570 H   0  0  0  0  0  0  0  0  0  0  0  0
    0.8338   27.1969   22.0127 H   0  0  0  0  0  0  0  0  0  0  0  0
   -0.6094   27.1639   19.9663 H   0  0  0  0  0  0  0  0  0  0  0  0
   -1.2750   28.0651   21.4080 H   0  0  0  0  0  0  0  0  0  0  0  0
   -0.0729   29.2581   18.8817 H   0  0  0  0  0  0  0  0  0  0  0  0
   -1.8016   29.3049   19.4373 H   0  0  0  0  0  0  0  0  0  0  0  0
   -0.5442   31.4235   19.8117 H   0  0  0  0  0  0  0  0  0  0  0  0
   -2.2860   30.3750   21.2370 H   0  0  0  0  0  0  0  0  0  0  0  0
    1.6657   30.5957   20.3480 H   0  0  0  0  0  0  0  0  0  0  0  0
    1.0000   31.4695   21.7938 H   0  0  0  0  0  0  0  0  0  0  0  0
    2.1956   29.3400   22.3511 H   0  0  0  0  0  0  0  0  0  0  0  0
    0.4475   29.4053   22.8695 H   0  0  0  0  0  0  0  0  0  0  0  0
    4.3338   27.4516   19.3350 H   0  0  0  0  0  0  0  0  0  0  0  0
  1  2  2  0
  2  3  2  0
  2  4  1  0
  4  5  2  0
  5  6  1  0
  6  7  2  0
  7  8  1  0
  8  9  2  0
  2 10  1  0
 10 11  2  0
 11 12  1  0
 12 13  1  0
 13 14  1  0
 14 15  2  0
 15 16  1  0
 16 17  1  0
 17 18  2  0
 18 19  1  0
 19 20  2  0
 20 21  1  0
 21 22  2  0
 16 23  2  0
 23 24  1  0
 12 25  2  0
 25 26  1  0
 26 27  1  0
 27 28  1  0
 28 29  1  0
 29 30  1  0
 30 31  1  0
 31 32  1  0
 31 33  1  0
 33 34  1  0
 26 35  2  0
  9  4  1  0
 35 10  1  0
 24 14  1  0
 34 28  1  0
 22 17  1  0
  5 36  1  0
  6 37  1  0
  7 38  1  0
  8 39  1  0
  9 40  1  0
 11 41  1  0
 13 42  1  0
 15 43  1  0
 18 44  1  0
 19 45  1  0
 20 46  1  0
 21 47  1  0
 22 48  1  0
 24 49  1  0
 27 50  1  0
 28 51  1  6
 29 52  1  0
 29 53  1  0
 30 54  1  0
 30 55  1  0
 31 56  1  1
 32 57  1  0
 33 58  1  0
 33 59  1  0
 34 60  1  0
 34 61  1  0
 35 62  1  0
M  END
>  <meeko>  (4) 
{"is_sidechain": [false], "free_energy": -7.692, "intermolecular_energy": -10.987, "internal_energy": -1.439}

$$$$
4qd6_ligand
     RDKit          3D

 62 66  0  0  0  0  0  0  0  0999 V2000
    0.8410   28.3770   20.4700 O   0  0  0  0  0  0  0  0  0  0  0  0
    2.2620   28.3570   20.1710 S   0  0  0  0  0  0  0  0  0  0  0  0
    2.7720   28.9630   18.9550 O   0  0  0  0  0  0  0  0  0  0  0  0
    3.1250   29.1240   21.5200 C   0  0  0  0  0  0  0  0  0  0  0  0
    4.5030   29.3320   21.4140 C   0  0  0  0  0  0  0  0  0  0  0  0
    5.1880   29.9250   22.4750 C   0  0  0  0  0  0  0  0  0  0  0  0
    4.4980   30.3100   23.6250 C   0  0  0  0  0  0  0  0  0  0  0  0
    3.1190   30.1100   23.7200 C   0  0  0  0  0  0  0  0  0  0  0  0
    2.4260   29.5180   22.6640 C   0  0  0  0  0  0  0  0  0  0  0  0
    2.7370   26.6530   20.1600 C   0  0  0  0  0  0  0  0  0  0  0  0
    2.2570   25.7880   21.1330 C   0  0  0  0  0  0  0  0  0  0  0  0
    2.6330   24.4560   21.0660 C   0  0  0  0  0  0  0  0  0  0  0  0
    2.1700   23.5820   22.0790 N   0  0  0  0  0  0  0  0  0  0  0  0
    0.8810   23.2220   22.2880 C   0  0  0  0  0  0  0  0  0  0  0  0
   -0.2020   23.1650   21.4450 C   0  0  0  0  0  0  0  0  0  0  0  0
   -1.2990   22.7190   22.2430 C   0  0  0  0  0  0  0  0  0  0  0  0
   -2.6920   22.4930   21.8300 C   0  0  0  0  0  0  0  0  0  0  0  0
   -3.3230   21.2690   22.1030 C   0  0  0  0  0  0  0  0  0  0  0  0
   -4.6450   21.0380   21.7130 C   0  0  0  0  0  0  0  0  0  0  0  0
   -5.3570   22.0310   21.0440 C   0  0  0  0  0  0  0  0  0  0  0  0
   -4.7480   23.2520   20.7670 C   0  0  0  0  0  0  0  0  0  0  0  0
   -3.4240   23.4820   21.1570 C   0  0  0  0  0  0  0  0  0  0  0  0
   -0.8990   22.5090   23.5100 N   0  0  0  0  0  0  0  0  0  0  0  0
    0.4080   22.8170   23.5030 N   0  0  0  0  0  0  0  0  0  0  0  0
    3.4850   24.0120   20.1050 N   0  0  0  0  0  0  0  0  0  0  0  0
    3.9700   24.8670   19.1790 C   0  0  0  0  0  0  0  0  0  0  0  0
    4.8070   24.4190   18.1530 N   0  0  0  0  0  0  0  0  0  0  0  0
    5.9240   25.2790   17.7380 C   0  0  2  0  0  0  0  0  0  0  0  0
    6.6930   24.6710   16.5550 C   0  0  0  0  0  0  0  0  0  0  0  0
    7.5200   23.4400   16.9350 C   0  0  0  0  0  0  0  0  0  0  0  0
    8.4420   23.7120   18.1220 C   0  0  1  0  0  0  0  0  0  0  0  0
    9.4340   24.6640   17.7500 O   0  0  0  0  0  0  0  0  0  0  0  0
    7.6670   24.2630   19.3170 C   0  0  0  0  0  0  0  0  0  0  0  0
    6.8460   25.5010   18.9470 C   0  0  0  0  0  0  0  0  0  0  0  0
    3.6020   26.2010   19.1720 C   0  0  0  0  0  0  0  0  0  0  0  0
    5.0419   29.0313   20.5034 H   0  0  0  0  0  0  0  0  0  0  0  0
    6.2734   30.0892   22.4048 H   0  0  0  0  0  0  0  0  0  0  0  0
    5.0427   30.7733   24.4608 H   0  0  0  0  0  0  0  0  0  0  0  0
    2.5795   30.4193   24.6274 H   0  0  0  0  0  0  0  0  0  0  0  0
    1.3391   29.3627   22.7312 H   0  0  0  0  0  0  0  0  0  0  0  0
    1.5966   26.1495   21.9350 H   0  0  0  0  0  0  0  0  0  0  0  0
    2.8260   23.4750   22.8450 H   0  0  0  0  0  0  0  0  0  0  0  0
   -0.2205   23.4125   20.3734 H   0  0  0  0  0  0  0  0  0  0  0  0
   -2.7685   20.4798   22.6319 H   0  0  0  0  0  0  0  0  0  0  0  0
   -5.1232   20.0724   21.9342 H   0  0  0  0  0  0  0  0  0  0  0  0
   -6.3974   21.8510   20.7355 H   0  0  0  0  0  0  0  0  0  0  0  0
   -5.3091   24.0379   20.2402 H   0  0  0  0  0  0  0  0  0  0  0  0
   -2.9518   24.4499   20.9331 H   0  0  0  0  0  0  0  0  0  0  0  0
    0.9590   22.7210   24.3480 H   0  0  0  0  0  0  0  0  0  0  0  0
    4.2600   24.0710   17.3720 H   0  0  0  0  0  0  0  0  0  0  0  0
    5.5304   26.2461   17.3920 H   0  0  0  0  0  0  0  0  0  0  0  0
    5.9679   24.3785   15.7812 H   0  0  0  0  0  0  0  0  0  0  0  0
    7.3968   25.4370   16.1974 H   0  0  0  0  0  0  0  0  0  0  0  0
    6.8355   22.6201   17.1980 H   0  0  0  0  0  0  0  0  0  0  0  0
    8.1480   23.1739   16.0720 H   0  0  0  0  0  0  0  0  0  0  0  0
    8.9071   22.7573   18.4089 H   0  0  0  0  0  0  0  0  0  0  0  0
    9.9350   24.9000   18.5500 H   0  0  0  0  0  0  0  0  0  0  0  0
    6.9859   23.4833   19.6886 H   0  0  0  0  0  0  0  0  0  0  0  0
    8.3948   24.5561   20.0879 H   0  0  0  0  0  0  0  0  0  0  0  0
    6.2266   25.7806   19.8119 H   0  0  0  0  0  0  0  0  0  0  0  0
    7.5573   26.2942   18.6733 H   0  0  0  0  0  0  0  0  0  0  0  0
    3.9854   26.8869   18.4023 H   0  0  0  0  0  0  0  0  0  0  0  0
  1  2  2  0
  2  3  2  0
  2  4  1  0
  4  5  2  0
  5  6  1  0
  6  7  2  0
  7  8  1  0
  8  9  2  0
  2 10  1  0
 10 11  2  0
 11 12  1  0
 12 13  1  0
 13 14  1  0
 14 15  2  0
 15 16  1  0
 16 17  1  0
 17 18  2  0
 18 19  1  0
 19 20  2  0
 20 21  1  0
 21 22  2  0
 16 23  2  0
 23 24  1  0
 12 25  2  0
 25 26  1  0
 26 27  1  0
 27 28  1  0
 28 29  1  0
 29 30  1  0
 30 31  1  0
 31 32  1  0
 31 33  1  0
 33 34  1  0
 26 35  2  0
  9  4  1  0
 35 10  1  0
 24 14  1  0
 34 28  1  0
 22 17  1  0
  5 36  1  0
  6 37  1  0
  7 38  1  0
  8 39  1  0
  9 40  1  0
 11 41  1  0
 13 42  1  0
 15 43  1  0
 18 44  1  0
 19 45  1  0
 20 46  1  0
 21 47  1  0
 22 48  1  0
 24 49  1  0
 27 50  1  0
 28 51  1  1
 29 52  1  0
 29 53  1  0
 30 54  1  0
 30 55  1  0
 31 56  1  6
 32 57  1  0
 33 58  1  0
 33 59  1  0
 34 60  1  0
 34 61  1  0
 35 62  1  0
M  END
>  <meeko>  (5) 
{"is_sidechain": [false], "free_energy": -7.591, "intermolecular_energy": -10.944, "internal_energy": -1.337}

$$$$
4qd6_ligand
     RDKit          3D

 62 66  0  0  0  0  0  0  0  0999 V2000
   -3.3780   20.9110   19.5470 O   0  0  0  0  0  0  0  0  0  0  0  0
   -3.2750   22.0280   18.6250 S   0  0  0  0  0  0  0  0  0  0  0  0
   -4.2130   22.1730   17.5270 O   0  0  0  0  0  0  0  0  0  0  0  0
   -3.3560   23.5330   19.5640 C   0  0  0  0  0  0  0  0  0  0  0  0
   -3.5800   23.4630   20.9420 C   0  0  0  0  0  0  0  0  0  0  0  0
   -3.6540   24.6420   21.6830 C   0  0  0  0  0  0  0  0  0  0  0  0
   -3.5010   25.8770   21.0500 C   0  0  0  0  0  0  0  0  0  0  0  0
   -3.2660   25.9400   19.6750 C   0  0  0  0  0  0  0  0  0  0  0  0
   -3.1900   24.7650   18.9260 C   0  0  0  0  0  0  0  0  0  0  0  0
   -1.6500   21.9420   17.9320 C   0  0  0  0  0  0  0  0  0  0  0  0
   -0.6070   22.6570   18.5060 C   0  0  0  0  0  0  0  0  0  0  0  0
    0.6540   22.5360   17.9450 C   0  0  0  0  0  0  0  0  0  0  0  0
    1.7090   23.2910   18.5100 N   0  0  0  0  0  0  0  0  0  0  0  0
    1.5760   24.2780   19.4280 C   0  0  0  0  0  0  0  0  0  0  0  0
    1.1400   25.5760   19.3190 C   0  0  0  0  0  0  0  0  0  0  0  0
    1.2330   26.1340   20.6300 C   0  0  0  0  0  0  0  0  0  0  0  0
    0.8940   27.4970   21.0660 C   0  0  0  0  0  0  0  0  0  0  0  0
   -0.2820   28.1150   20.6120 C   0  0  0  0  0  0  0  0  0  0  0  0
   -0.6160   29.4110   21.0150 C   0  0  0  0  0  0  0  0  0  0  0  0
    0.2230   30.1090   21.8790 C   0  0  0  0  0  0  0  0  0  0  0  0
    1.3930   29.5110   22.3420 C   0  0  0  0  0  0  0  0  0  0  0  0
    1.7270   28.2140   21.9370 C   0  0  0  0  0  0  0  0  0  0  0  0
    1.6980   25.2160   21.4960 N   0  0  0  0  0  0  0  0  0  0  0  0
    1.8910   24.1180   20.7460 N   0  0  0  0  0  0  0  0  0  0  0  0
    0.8630   21.7760   16.8370 N   0  0  0  0  0  0  0  0  0  0  0  0
   -0.1630   21.1070   16.2690 C   0  0  0  0  0  0  0  0  0  0  0  0
    0.0420   20.2820   15.1590 N   0  0  0  0  0  0  0  0  0  0  0  0
    0.4680   20.9030   13.8980 C   0  0  2  0  0  0  0  0  0  0  0  0
   -0.4310   22.0910   13.5220 C   0  0  0  0  0  0  0  0  0  0  0  0
   -1.8340   21.6730   13.0760 C   0  0  0  0  0  0  0  0  0  0  0  0
   -1.7960   20.6270   11.9640 C   0  0  1  0  0  0  0  0  0  0  0  0
   -1.2410   21.2020   10.7850 O   0  0  0  0  0  0  0  0  0  0  0  0
   -0.9480   19.4210   12.3600 C   0  0  0  0  0  0  0  0  0  0  0  0
    0.4610   19.8290   12.7970 C   0  0  0  0  0  0  0  0  0  0  0  0
   -1.4390   21.1600   16.8040 C   0  0  0  0  0  0  0  0  0  0  0  0
   -3.6967   22.4876   21.4369 H   0  0  0  0  0  0  0  0  0  0  0  0
   -3.8331   24.5990   22.7675 H   0  0  0  0  0  0  0  0  0  0  0  0
   -3.5659   26.8048   21.6373 H   0  0  0  0  0  0  0  0  0  0  0  0
   -3.1408   26.9155   19.1824 H   0  0  0  0  0  0  0  0  0  0  0  0
   -3.0011   24.8083   17.8432 H   0  0  0  0  0  0  0  0  0  0  0  0
   -0.7772   23.3012   19.3813 H   0  0  0  0  0  0  0  0  0  0  0  0
    2.5600   23.2630   17.9590 H   0  0  0  0  0  0  0  0  0  0  0  0
    0.7904   26.0825   18.4073 H   0  0  0  0  0  0  0  0  0  0  0  0
   -0.9507   27.5710   19.9287 H   0  0  0  0  0  0  0  0  0  0  0  0
   -1.5418   29.8793   20.6494 H   0  0  0  0  0  0  0  0  0  0  0  0
   -0.0371   31.1299   22.1953 H   0  0  0  0  0  0  0  0  0  0  0  0
    2.0557   30.0597   23.0274 H   0  0  0  0  0  0  0  0  0  0  0  0
    2.6541   27.7512   22.3062 H   0  0  0  0  0  0  0  0  0  0  0  0
    2.2240   23.2610   21.1730 H   0  0  0  0  0  0  0  0  0  0  0  0
   -0.7360   19.6390   15.0440 H   0  0  0  0  0  0  0  0  0  0  0  0
    1.4850   21.3052   14.0159 H   0  0  0  0  0  0  0  0  0  0  0  0
   -0.5251   22.7485   14.3988 H   0  0  0  0  0  0  0  0  0  0  0  0
    0.0428   22.6004   12.6699 H   0  0  0  0  0  0  0  0  0  0  0  0
   -2.3702   21.2530   13.9397 H   0  0  0  0  0  0  0  0  0  0  0  0
   -2.3445   22.5651   12.6843 H   0  0  0  0  0  0  0  0  0  0  0  0
   -2.8283   20.2920   11.7847 H   0  0  0  0  0  0  0  0  0  0  0  0
   -0.4920   20.6450   10.5060 H   0  0  0  0  0  0  0  0  0  0  0  0
   -1.4408   18.8986   13.1932 H   0  0  0  0  0  0  0  0  0  0  0  0
   -0.8548   18.7677   11.4799 H   0  0  0  0  0  0  0  0  0  0  0  0
    0.9814   18.9370   13.1758 H   0  0  0  0  0  0  0  0  0  0  0  0
    0.9635   20.2593   11.9182 H   0  0  0  0  0  0  0  0  0  0  0  0
   -2.2655   20.5963   16.3466 H   0  0  0  0  0  0  0  0  0  0  0  0
  1  2  2  0
  2  3  2  0
  2  4  1  0
  4  5  2  0
  5  6  1  0
  6  7  2  0
  7  8  1  0
  8  9  2  0
  2 10  1  0
 10 11  2  0
 11 12  1  0
 12 13  1  0
 13 14  1  0
 14 15  2  0
 15 16  1  0
 16 17  1  0
 17 18  2  0
 18 19  1  0
 19 20  2  0
 20 21  1  0
 21 22  2  0
 16 23  2  0
 23 24  1  0
 12 25  2  0
 25 26  1  0
 26 27  1  0
 27 28  1  0
 28 29  1  0
 29 30  1  0
 30 31  1  0
 31 32  1  0
 31 33  1  0
 33 34  1  0
 26 35  2  0
  9  4  1  0
 35 10  1  0
 24 14  1  0
 34 28  1  0
 22 17  1  0
  5 36  1  0
  6 37  1  0
  7 38  1  0
  8 39  1  0
  9 40  1  0
 11 41  1  0
 13 42  1  0
 15 43  1  0
 18 44  1  0
 19 45  1  0
 20 46  1  0
 21 47  1  0
 22 48  1  0
 24 49  1  0
 27 50  1  0
 28 51  1  6
 29 52  1  0
 29 53  1  0
 30 54  1  0
 30 55  1  0
 31 56  1  1
 32 57  1  0
 33 58  1  0
 33 59  1  0
 34 60  1  0
 34 61  1  0
 35 62  1  0
M  END
>  <meeko>  (6) 
{"is_sidechain": [false], "free_energy": -7.404, "intermolecular_energy": -10.229, "internal_energy": -1.784}

$$$$
4qd6_ligand
     RDKit          3D

 62 66  0  0  0  0  0  0  0  0999 V2000
    3.0150   24.9000   16.5500 O   0  0  0  0  0  0  0  0  0  0  0  0
    3.0110   24.0520   17.7280 S   0  0  0  0  0  0  0  0  0  0  0  0
    2.8890   22.6110   17.6030 O   0  0  0  0  0  0  0  0  0  0  0  0
    4.5030   24.3580   18.6400 C   0  0  0  0  0  0  0  0  0  0  0  0
    5.7240   24.3750   17.9580 C   0  0  0  0  0  0  0  0  0  0  0  0
    6.9010   24.6050   18.6700 C   0  0  0  0  0  0  0  0  0  0  0  0
    6.8530   24.8220   20.0480 C   0  0  0  0  0  0  0  0  0  0  0  0
    5.6300   24.8150   20.7210 C   0  0  0  0  0  0  0  0  0  0  0  0
    4.4480   24.5850   20.0170 C   0  0  0  0  0  0  0  0  0  0  0  0
    1.6700   24.6170   18.7340 C   0  0  0  0  0  0  0  0  0  0  0  0
    1.4840   25.9750   18.9520 C   0  0  0  0  0  0  0  0  0  0  0  0
    0.4030   26.3700   19.7230 C   0  0  0  0  0  0  0  0  0  0  0  0
    0.2340   27.7540   19.9710 N   0  0  0  0  0  0  0  0  0  0  0  0
    0.9160   28.4860   20.8840 C   0  0  0  0  0  0  0  0  0  0  0  0
    2.2150   28.4190   21.3250 C   0  0  0  0  0  0  0  0  0  0  0  0
    2.3520   29.4480   22.3050 C   0  0  0  0  0  0  0  0  0  0  0  0
    3.5420   29.8040   23.0910 C   0  0  0  0  0  0  0  0  0  0  0  0
    3.4280   30.0990   24.4590 C   0  0  0  0  0  0  0  0  0  0  0  0
    4.5510   30.4410   25.2180 C   0  0  0  0  0  0  0  0  0  0  0  0
    5.8070   30.4940   24.6190 C   0  0  0  0  0  0  0  0  0  0  0  0
    5.9400   30.2020   23.2630 C   0  0  0  0  0  0  0  0  0  0  0  0
    4.8150   29.8600   22.5040 C   0  0  0  0  0  0  0  0  0  0  0  0
    1.1920   30.1140   22.4470 N   0  0  0  0  0  0  0  0  0  0  0  0
    0.3560   29.5150   21.5840 N   0  0  0  0  0  0  0  0  0  0  0  0
   -0.4300   25.4590   20.2910 N   0  0  0  0  0  0  0  0  0  0  0  0
   -0.2240   24.1380   20.0970 C   0  0  0  0  0  0  0  0  0  0  0  0
   -1.0980   23.1870   20.6320 N   0  0  0  0  0  0  0  0  0  0  0  0
   -2.5310   23.5060   20.6810 C   0  0  2  0  0  0  0  0  0  0  0  0
   -3.1240   23.2250   22.0710 C   0  0  0  0  0  0  0  0  0  0  0  0
   -3.2400   21.7330   22.3910 C   0  0  0  0  0  0  0  0  0  0  0  0
   -3.9850   20.9670   21.2990 C   0  0  1  0  0  0  0  0  0  0  0  0
   -5.3430   21.3940   21.2560 O   0  0  0  0  0  0  0  0  0  0  0  0
   -3.3600   21.2030   19.9260 C   0  0  0  0  0  0  0  0  0  0  0  0
   -3.2510   22.6930   19.5930 C   0  0  0  0  0  0  0  0  0  0  0  0
    0.8170   23.6820   19.3070 C   0  0  0  0  0  0  0  0  0  0  0  0
    5.7557   24.2087   16.8711 H   0  0  0  0  0  0  0  0  0  0  0  0
    7.8677   24.6154   18.1453 H   0  0  0  0  0  0  0  0  0  0  0  0
    7.7838   24.9995   20.6066 H   0  0  0  0  0  0  0  0  0  0  0  0
    5.5984   24.9908   21.8064 H   0  0  0  0  0  0  0  0  0  0  0  0
    3.4812   24.5824   20.5416 H   0  0  0  0  0  0  0  0  0  0  0  0
    2.1752   26.7164   18.5248 H   0  0  0  0  0  0  0  0  0  0  0  0
   -0.6540   28.1140   19.6380 H   0  0  0  0  0  0  0  0  0  0  0  0
    2.9919   27.7155   20.9910 H   0  0  0  0  0  0  0  0  0  0  0  0
    2.4399   30.0604   24.9409 H   0  0  0  0  0  0  0  0  0  0  0  0
    4.4425   30.6683   26.2888 H   0  0  0  0  0  0  0  0  0  0  0  0
    6.6912   30.7655   25.2143 H   0  0  0  0  0  0  0  0  0  0  0  0
    6.9314   30.2404   22.7881 H   0  0  0  0  0  0  0  0  0  0  0  0
    4.9303   29.6323   21.4340 H   0  0  0  0  0  0  0  0  0  0  0  0
   -0.5960   29.8500   21.4800 H   0  0  0  0  0  0  0  0  0  0  0  0
   -0.7390   22.8280   21.5120 H   0  0  0  0  0  0  0  0  0  0  0  0
   -2.6714   24.5805   20.4922 H   0  0  0  0  0  0  0  0  0  0  0  0
   -2.4780   23.6948   22.8273 H   0  0  0  0  0  0  0  0  0  0  0  0
   -4.1429   23.6395   22.0797 H   0  0  0  0  0  0  0  0  0  0  0  0
   -2.2287   21.3123   22.4923 H   0  0  0  0  0  0  0  0  0  0  0  0
   -3.8105   21.6305   23.3259 H   0  0  0  0  0  0  0  0  0  0  0  0
   -3.9216   19.8955   21.5396 H   0  0  0  0  0  0  0  0  0  0  0  0
   -5.9040   20.6000   21.2060 H   0  0  0  0  0  0  0  0  0  0  0  0
   -2.3523   20.7620   19.9141 H   0  0  0  0  0  0  0  0  0  0  0  0
   -4.0093   20.7335   19.1723 H   0  0  0  0  0  0  0  0  0  0  0  0
   -2.6944   22.8007   18.6503 H   0  0  0  0  0  0  0  0  0  0  0  0
   -4.2754   23.0862   19.5155 H   0  0  0  0  0  0  0  0  0  0  0  0
    0.9654   22.6054   19.1370 H   0  0  0  0  0  0  0  0  0  0  0  0
  1  2  2  0
  2  3  2  0
  2  4  1  0
  4  5  2  0
  5  6  1  0
  6  7  2  0
  7  8  1  0
  8  9  2  0
  2 10  1  0
 10 11  2  0
 11 12  1  0
 12 13  1  0
 13 14  1  0
 14 15  2  0
 15 16  1  0
 16 17  1  0
 17 18  2  0
 18 19  1  0
 19 20  2  0
 20 21  1  0
 21 22  2  0
 16 23  2  0
 23 24  1  0
 12 25  2  0
 25 26  1  0
 26 27  1  0
 27 28  1  0
 28 29  1  0
 29 30  1  0
 30 31  1  0
 31 32  1  0
 31 33  1  0
 33 34  1  0
 26 35  2  0
  9  4  1  0
 35 10  1  0
 24 14  1  0
 34 28  1  0
 22 17  1  0
  5 36  1  0
  6 37  1  0
  7 38  1  0
  8 39  1  0
  9 40  1  0
 11 41  1  0
 13 42  1  0
 15 43  1  0
 18 44  1  0
 19 45  1  0
 20 46  1  0
 21 47  1  0
 22 48  1  0
 24 49  1  0
 27 50  1  0
 28 51  1  1
 29 52  1  0
 29 53  1  0
 30 54  1  0
 30 55  1  0
 31 56  1  6
 32 57  1  0
 33 58  1  0
 33 59  1  0
 34 60  1  0
 34 61  1  0
 35 62  1  0
M  END
>  <meeko>  (7) 
{"is_sidechain": [false], "free_energy": -7.356, "intermolecular_energy": -10.551, "internal_energy": -1.391}

$$$$
4qd6_ligand
     RDKit          3D

 62 66  0  0  0  0  0  0  0  0999 V2000
    7.5170   29.3760   19.5910 O   0  0  0  0  0  0  0  0  0  0  0  0
    7.4520   28.0590   20.1990 S   0  0  0  0  0  0  0  0  0  0  0  0
    8.2180   26.9530   19.6560 O   0  0  0  0  0  0  0  0  0  0  0  0
    7.9180   28.2110   21.9050 C   0  0  0  0  0  0  0  0  0  0  0  0
    8.7850   27.2630   22.4600 C   0  0  0  0  0  0  0  0  0  0  0  0
    9.1480   27.3720   23.8020 C   0  0  0  0  0  0  0  0  0  0  0  0
    8.6520   28.4210   24.5770 C   0  0  0  0  0  0  0  0  0  0  0  0
    7.7960   29.3710   24.0150 C   0  0  0  0  0  0  0  0  0  0  0  0
    7.4280   29.2700   22.6740 C   0  0  0  0  0  0  0  0  0  0  0  0
    5.7460   27.5910   20.1730 C   0  0  0  0  0  0  0  0  0  0  0  0
    5.3880   26.2520   20.2340 C   0  0  0  0  0  0  0  0  0  0  0  0
    4.0390   25.9360   20.2400 C   0  0  0  0  0  0  0  0  0  0  0  0
    3.6760   24.5680   20.2690 N   0  0  0  0  0  0  0  0  0  0  0  0
    2.5840   24.0490   20.8780 C   0  0  0  0  0  0  0  0  0  0  0  0
    1.2970   23.8520   20.4380 C   0  0  0  0  0  0  0  0  0  0  0  0
    0.5890   23.2750   21.5360 C   0  0  0  0  0  0  0  0  0  0  0  0
   -0.8230   22.8730   21.5970 C   0  0  0  0  0  0  0  0  0  0  0  0
   -1.4050   22.5070   22.8210 C   0  0  0  0  0  0  0  0  0  0  0  0
   -2.7460   22.1200   22.8940 C   0  0  0  0  0  0  0  0  0  0  0  0
   -3.5270   22.0930   21.7410 C   0  0  0  0  0  0  0  0  0  0  0  0
   -2.9670   22.4540   20.5170 C   0  0  0  0  0  0  0  0  0  0  0  0
   -1.6240   22.8410   20.4460 C   0  0  0  0  0  0  0  0  0  0  0  0
    1.4090   23.1220   22.5910 N   0  0  0  0  0  0  0  0  0  0  0  0
    2.5930   23.5930   22.1640 N   0  0  0  0  0  0  0  0  0  0  0  0
    3.0880   26.9010   20.1430 N   0  0  0  0  0  0  0  0  0  0  0  0
    3.4460   28.2000   20.0540 C   0  0  0  0  0  0  0  0  0  0  0  0
    2.4820   29.2120   20.0040 N   0  0  0  0  0  0  0  0  0  0  0  0
    1.2000   28.9880   20.6840 C   0  0  2  0  0  0  0  0  0  0  0  0
    0.2420   30.1730   20.4860 C   0  0  0  0  0  0  0  0  0  0  0  0
    0.6610   31.4270   21.2560 C   0  0  0  0  0  0  0  0  0  0  0  0
    0.8970   31.1410   22.7370 C   0  0  1  0  0  0  0  0  0  0  0  0
   -0.3340   30.7780   23.3570 O   0  0  0  0  0  0  0  0  0  0  0  0
    1.8920   30.0000   22.9340 C   0  0  0  0  0  0  0  0  0  0  0  0
    1.4740   28.7370   22.1760 C   0  0  0  0  0  0  0  0  0  0  0  0
    4.7770   28.5820   20.0800 C   0  0  0  0  0  0  0  0  0  0  0  0
    9.1762   26.4401   21.8438 H   0  0  0  0  0  0  0  0  0  0  0  0
    9.8258   26.6305   24.2500 H   0  0  0  0  0  0  0  0  0  0  0  0
    8.9367   28.5003   25.6366 H   0  0  0  0  0  0  0  0  0  0  0  0
    7.4124   30.1984   24.6301 H   0  0  0  0  0  0  0  0  0  0  0  0
    6.7576   30.0176   22.2251 H   0  0  0  0  0  0  0  0  0  0  0  0
    6.1537   25.4634   20.2764 H   0  0  0  0  0  0  0  0  0  0  0  0
    4.4510   23.9450   20.0660 H   0  0  0  0  0  0  0  0  0  0  0  0
    0.8941   24.0903   19.4426 H   0  0  0  0  0  0  0  0  0  0  0  0
   -0.7961   22.5251   23.7369 H   0  0  0  0  0  0  0  0  0  0  0  0
   -3.1847   21.8367   23.8621 H   0  0  0  0  0  0  0  0  0  0  0  0
   -4.5823   21.7877   21.7964 H   0  0  0  0  0  0  0  0  0  0  0  0
   -3.5817   22.4347   19.6050 H   0  0  0  0  0  0  0  0  0  0  0  0
   -1.1910   23.1237   19.4751 H   0  0  0  0  0  0  0  0  0  0  0  0
    3.4010   23.5700   22.7760 H   0  0  0  0  0  0  0  0  0  0  0  0
    2.3750   29.5550   19.0540 H   0  0  0  0  0  0  0  0  0  0  0  0
    0.7052   28.1084   20.2463 H   0  0  0  0  0  0  0  0  0  0  0  0
    0.2063   30.4174   19.4141 H   0  0  0  0  0  0  0  0  0  0  0  0
   -0.7401   29.8657   20.8747 H   0  0  0  0  0  0  0  0  0  0  0  0
    1.5912   31.8177   20.8178 H   0  0  0  0  0  0  0  0  0  0  0  0
   -0.1558   32.1598   21.1790 H   0  0  0  0  0  0  0  0  0  0  0  0
    1.3078   32.0543   23.1921 H   0  0  0  0  0  0  0  0  0  0  0  0
   -0.7660   30.1120   22.7940 H   0  0  0  0  0  0  0  0  0  0  0  0
    2.8787   30.3224   22.5700 H   0  0  0  0  0  0  0  0  0  0  0  0
    1.9232   29.7578   24.0066 H   0  0  0  0  0  0  0  0  0  0  0  0
    2.2806   27.9941   22.2631 H   0  0  0  0  0  0  0  0  0  0  0  0
    0.5347   28.3822   22.6254 H   0  0  0  0  0  0  0  0  0  0  0  0
    5.0598   29.6438   20.0283 H   0  0  0  0  0  0  0  0  0  0  0  0
  1  2  2  0
  2  3  2  0
  2  4  1  0
  4  5  2  0
  5  6  1  0
  6  7  2  0
  7  8  1  0
  8  9  2  0
  2 10  1  0
 10 11  2  0
 11 12  1  0
 12 13  1  0
 13 14  1  0
 14 15  2  0
 15 16  1  0
 16 17  1  0
 17 18  2  0
 18 19  1  0
 19 20  2  0
 20 21  1  0
 21 22  2  0
 16 23  2  0
 23 24  1  0
 12 25  2  0
 25 26  1  0
 26 27  1  0
 27 28  1  0
 28 29  1  0
 29 30  1  0
 30 31  1  0
 31 32  1  0
 31 33  1  0
 33 34  1  0
 26 35  2  0
  9  4  1  0
 35 10  1  0
 24 14  1  0
 34 28  1  0
 22 17  1  0
  5 36  1  0
  6 37  1  0
  7 38  1  0
  8 39  1  0
  9 40  1  0
 11 41  1  0
 13 42  1  0
 15 43  1  0
 18 44  1  0
 19 45  1  0
 20 46  1  0
 21 47  1  0
 22 48  1  0
 24 49  1  0
 27 50  1  0
 28 51  1  1
 29 52  1  0
 29 53  1  0
 30 54  1  0
 30 55  1  0
 31 56  1  6
 32 57  1  0
 33 58  1  0
 33 59  1  0
 34 60  1  0
 34 61  1  0
 35 62  1  0
M  END
>  <meeko>  (8) 
{"is_sidechain": [false], "free_energy": -7.353, "intermolecular_energy": -10.531, "internal_energy": -1.407}

$$$$
4qd6_ligand
     RDKit          3D

 62 66  0  0  0  0  0  0  0  0999 V2000
   -1.1870   28.1710   20.8660 O   0  0  0  0  0  0  0  0  0  0  0  0
    0.0510   27.9610   20.1370 S   0  0  0  0  0  0  0  0  0  0  0  0
    0.1180   28.1940   18.7060 O   0  0  0  0  0  0  0  0  0  0  0  0
    1.3100   28.9720   20.8760 C   0  0  0  0  0  0  0  0  0  0  0  0
    1.2950   29.1730   22.2600 C   0  0  0  0  0  0  0  0  0  0  0  0
    2.2760   29.9730   22.8450 C   0  0  0  0  0  0  0  0  0  0  0  0
    3.2630   30.5610   22.0520 C   0  0  0  0  0  0  0  0  0  0  0  0
    3.2800   30.3470   20.6720 C   0  0  0  0  0  0  0  0  0  0  0  0
    2.3030   29.5470   20.0780 C   0  0  0  0  0  0  0  0  0  0  0  0
    0.5090   26.2770   20.4260 C   0  0  0  0  0  0  0  0  0  0  0  0
    1.8030   25.9630   20.8190 C   0  0  0  0  0  0  0  0  0  0  0  0
    2.1070   24.6330   21.0610 C   0  0  0  0  0  0  0  0  0  0  0  0
    3.4350   24.3110   21.4290 N   0  0  0  0  0  0  0  0  0  0  0  0
    4.5240   24.3960   20.6290 C   0  0  0  0  0  0  0  0  0  0  0  0
    4.6530   24.4870   19.2650 C   0  0  0  0  0  0  0  0  0  0  0  0
    6.0560   24.5370   19.0030 C   0  0  0  0  0  0  0  0  0  0  0  0
    6.7370   24.6330   17.7040 C   0  0  0  0  0  0  0  0  0  0  0  0
    7.4940   23.5560   17.2180 C   0  0  0  0  0  0  0  0  0  0  0  0
    8.1490   23.6340   15.9860 C   0  0  0  0  0  0  0  0  0  0  0  0
    8.0560   24.7930   15.2200 C   0  0  0  0  0  0  0  0  0  0  0  0
    7.3060   25.8710   15.6850 C   0  0  0  0  0  0  0  0  0  0  0  0
    6.6520   25.7920   16.9190 C   0  0  0  0  0  0  0  0  0  0  0  0
    6.7470   24.4840   20.1560 N   0  0  0  0  0  0  0  0  0  0  0  0
    5.8030   24.4020   21.1070 N   0  0  0  0  0  0  0  0  0  0  0  0
    1.1830   23.6530   20.8770 N   0  0  0  0  0  0  0  0  0  0  0  0
   -0.0650   23.9660   20.4670 C   0  0  0  0  0  0  0  0  0  0  0  0
   -1.0430   22.9770   20.3200 N   0  0  0  0  0  0  0  0  0  0  0  0
   -2.4540   23.3830   20.3510 C   0  0  2  0  0  0  0  0  0  0  0  0
   -3.0200   23.3470   21.7800 C   0  0  0  0  0  0  0  0  0  0  0  0
   -3.2070   21.9280   22.3220 C   0  0  0  0  0  0  0  0  0  0  0  0
   -4.0250   21.0530   21.3740 C   0  0  1  0  0  0  0  0  0  0  0  0
   -5.3590   21.5470   21.2980 O   0  0  0  0  0  0  0  0  0  0  0  0
   -3.4300   21.0450   19.9680 C   0  0  0  0  0  0  0  0  0  0  0  0
   -3.2500   22.4610   19.4140 C   0  0  0  0  0  0  0  0  0  0  0  0
   -0.4400   25.2790   20.2440 C   0  0  0  0  0  0  0  0  0  0  0  0
    0.5171   28.7047   22.8809 H   0  0  0  0  0  0  0  0  0  0  0  0
    2.2721   30.1408   23.9321 H   0  0  0  0  0  0  0  0  0  0  0  0
    4.0315   31.1963   22.5166 H   0  0  0  0  0  0  0  0  0  0  0  0
    4.0635   30.8090   20.0533 H   0  0  0  0  0  0  0  0  0  0  0  0
    2.3143   29.3706   18.9923 H   0  0  0  0  0  0  0  0  0  0  0  0
    2.5651   26.7477   20.9349 H   0  0  0  0  0  0  0  0  0  0  0  0
    3.4890   23.7120   22.2470 H   0  0  0  0  0  0  0  0  0  0  0  0
    3.8404   24.5156   18.5242 H   0  0  0  0  0  0  0  0  0  0  0  0
    7.5730   22.6362   17.8160 H   0  0  0  0  0  0  0  0  0  0  0  0
    8.7381   22.7796   15.6214 H   0  0  0  0  0  0  0  0  0  0  0  0
    8.5729   24.8572   14.2511 H   0  0  0  0  0  0  0  0  0  0  0  0
    7.2279   26.7865   15.0803 H   0  0  0  0  0  0  0  0  0  0  0  0
    6.0639   26.6494   17.2780 H   0  0  0  0  0  0  0  0  0  0  0  0
    6.0670   24.3710   22.0860 H   0  0  0  0  0  0  0  0  0  0  0  0
   -0.8420   22.1850   20.9220 H   0  0  0  0  0  0  0  0  0  0  0  0
   -2.5404   24.4238   20.0056 H   0  0  0  0  0  0  0  0  0  0  0  0
   -2.3274   23.8856   22.4434 H   0  0  0  0  0  0  0  0  0  0  0  0
   -4.0140   23.8171   21.7484 H   0  0  0  0  0  0  0  0  0  0  0  0
   -2.2173   21.4690   22.4629 H   0  0  0  0  0  0  0  0  0  0  0  0
   -3.7538   21.9987   23.2738 H   0  0  0  0  0  0  0  0  0  0  0  0
   -4.0124   20.0271   21.7708 H   0  0  0  0  0  0  0  0  0  0  0  0
   -5.4680   21.9760   20.4310 H   0  0  0  0  0  0  0  0  0  0  0  0
   -2.4488   20.5488   20.0003 H   0  0  0  0  0  0  0  0  0  0  0  0
   -4.1259   20.5073   19.3073 H   0  0  0  0  0  0  0  0  0  0  0  0
   -2.7177   22.3953   18.4536 H   0  0  0  0  0  0  0  0  0  0  0  0
   -4.2535   22.8974   19.3022 H   0  0  0  0  0  0  0  0  0  0  0  0
   -1.4648   25.5266   19.9302 H   0  0  0  0  0  0  0  0  0  0  0  0
  1  2  2  0
  2  3  2  0
  2  4  1  0
  4  5  2  0
  5  6  1  0
  6  7  2  0
  7  8  1  0
  8  9  2  0
  2 10  1  0
 10 11  2  0
 11 12  1  0
 12 13  1  0
 13 14  1  0
 14 15  2  0
 15 16  1  0
 16 17  1  0
 17 18  2  0
 18 19  1  0
 19 20  2  0
 20 21  1  0
 21 22  2  0
 16 23  2  0
 23 24  1  0
 12 25  2  0
 25 26  1  0
 26 27  1  0
 27 28  1  0
 28 29  1  0
 29 30  1  0
 30 31  1  0
 31 32  1  0
 31 33  1  0
 33 34  1  0
 26 35  2  0
  9  4  1  0
 35 10  1  0
 24 14  1  0
 34 28  1  0
 22 17  1  0
  5 36  1  0
  6 37  1  0
  7 38  1  0
  8 39  1  0
  9 40  1  0
 11 41  1  0
 13 42  1  0
 15 43  1  0
 18 44  1  0
 19 45  1  0
 20 46  1  0
 21 47  1  0
 22 48  1  0
 24 49  1  0
 27 50  1  0
 28 51  1  1
 29 52  1  0
 29 53  1  0
 30 54  1  0
 30 55  1  0
 31 56  1  6
 32 57  1  0
 33 58  1  0
 33 59  1  0
 34 60  1  0
 34 61  1  0
 35 62  1  0
M  END
>  <meeko>  (9) 
{"is_sidechain": [false], "free_energy": -7.336, "intermolecular_energy": -10.488, "internal_energy": -1.426}

$$$$
