4ogj_ligand
     RDKit          3D

 74 77  0  0  0  0  0  0  0  0999 V2000
   19.5480   33.4100   21.0130 C   0  0  0  0  0  0  0  0  0  0  0  0
   19.6530   34.5370   21.9890 C   0  0  0  0  0  0  0  0  0  0  0  0
   19.0980   34.4420   23.2460 C   0  0  0  0  0  0  0  0  0  0  0  0
   19.1670   35.4130   24.1700 N   0  0  0  0  0  0  0  0  0  0  0  0
   19.8210   36.5310   23.8300 C   0  0  0  0  0  0  0  0  0  0  0  0
   19.8860   37.4940   24.8340 N   0  0  0  0  0  0  0  0  0  0  0  0
   20.2490   38.8420   24.8660 C   0  0  0  0  0  0  0  0  0  0  0  0
   19.2480   39.8030   25.0620 C   0  0  0  0  0  0  0  0  0  0  0  0
   19.5550   41.1660   25.1430 C   0  0  0  0  0  0  0  0  0  0  0  0
   20.8740   41.6020   25.0420 C   0  0  0  0  0  0  0  0  0  0  0  0
   21.0430   42.9530   25.1530 O   0  0  0  0  0  0  0  0  0  0  0  0
   20.2810   43.7750   24.2730 C   0  0  0  0  0  0  0  0  0  0  0  0
   20.9700   43.8450   22.9010 C   0  0  0  0  0  0  0  0  0  0  0  0
   20.2780   43.0910   21.7840 N   0  0  0  0  0  0  0  0  0  0  0  0
   18.7690   42.9890   21.8490 C   0  0  0  0  0  0  0  0  0  0  0  0
   18.4710   41.7430   21.0430 C   0  0  0  0  0  0  0  0  0  0  0  0
   19.5870   40.8050   21.4580 C   0  0  0  0  0  0  0  0  0  0  0  0
   20.8160   41.6980   21.4940 C   0  0  0  0  0  0  0  0  0  0  0  0
   21.8810   40.6620   24.8400 C   0  0  0  0  0  0  0  0  0  0  0  0
   21.5660   39.2970   24.7580 C   0  0  0  0  0  0  0  0  0  0  0  0
   20.3910   36.7140   22.6330 N   0  0  0  0  0  0  0  0  0  0  0  0
   20.3030   35.7340   21.7130 C   0  0  0  0  0  0  0  0  0  0  0  0
   20.8940   35.9080   20.4360 N   0  0  0  0  0  0  0  0  0  0  0  0
   20.7780   37.0020   19.5530 C   0  0  0  0  0  0  0  0  0  0  0  0
   19.5840   37.7160   19.3870 C   0  0  0  0  0  0  0  0  0  0  0  0
   19.5130   38.8380   18.5520 C   0  0  0  0  0  0  0  0  0  0  0  0
   20.6480   39.2730   17.8750 C   0  0  0  0  0  0  0  0  0  0  0  0
   21.8490   38.5790   18.0450 C   0  0  0  0  0  0  0  0  0  0  0  0
   23.3090   39.1640   17.2300 S   0  0  0  0  0  0  0  0  0  0  0  0
   23.0490   40.5320   16.8340 O   0  0  0  0  0  0  0  0  0  0  0  0
   24.4590   38.8240   18.0350 O   0  0  0  0  0  0  0  0  0  0  0  0
   23.3480   38.2920   15.8090 N   0  0  0  0  0  0  0  0  0  0  0  0
   24.2810   37.2210   15.4180 C   0  0  0  0  0  0  0  0  0  0  0  0
   25.7480   37.6480   15.4350 C   0  0  0  0  0  0  0  0  0  0  0  0
   24.0660   36.0100   16.3320 C   0  0  0  0  0  0  0  0  0  0  0  0
   23.9120   36.8220   13.9770 C   0  0  0  0  0  0  0  0  0  0  0  0
   21.9230   37.4720   18.8980 C   0  0  0  0  0  0  0  0  0  0  0  0
   19.4594   32.4592   21.5590 H   0  0  0  0  0  0  0  0  0  0  0  0
   18.6594   33.5540   20.3808 H   0  0  0  0  0  0  0  0  0  0  0  0
   20.4479   33.3874   20.3808 H   0  0  0  0  0  0  0  0  0  0  0  0
   18.5666   33.5152   23.5082 H   0  0  0  0  0  0  0  0  0  0  0  0
   19.5390   37.0830   25.6900 H   0  0  0  0  0  0  0  0  0  0  0  0
   18.2006   39.4797   25.1540 H   0  0  0  0  0  0  0  0  0  0  0  0
   18.7478   41.8992   25.2876 H   0  0  0  0  0  0  0  0  0  0  0  0
   19.2740   43.3485   24.1549 H   0  0  0  0  0  0  0  0  0  0  0  0
   20.2065   44.7882   24.6948 H   0  0  0  0  0  0  0  0  0  0  0  0
   21.0331   44.9031   22.6071 H   0  0  0  0  0  0  0  0  0  0  0  0
   21.9494   43.3612   23.0301 H   0  0  0  0  0  0  0  0  0  0  0  0
   20.4800   43.6310   20.9320 H   0  0  0  0  0  0  0  0  0  0  0  0
   18.4256   42.8780   22.8881 H   0  0  0  0  0  0  0  0  0  0  0  0
   18.2593   43.8842   21.4632 H   0  0  0  0  0  0  0  0  0  0  0  0
   17.4862   41.3279   21.3034 H   0  0  0  0  0  0  0  0  0  0  0  0
   18.4317   41.9229   19.9585 H   0  0  0  0  0  0  0  0  0  0  0  0
   19.3873   40.3729   22.4497 H   0  0  0  0  0  0  0  0  0  0  0  0
   19.7014   39.9510   20.7742 H   0  0  0  0  0  0  0  0  0  0  0  0
   21.5054   41.3761   22.2884 H   0  0  0  0  0  0  0  0  0  0  0  0
   21.3833   41.6605   20.5523 H   0  0  0  0  0  0  0  0  0  0  0  0
   22.9265   40.9903   24.7444 H   0  0  0  0  0  0  0  0  0  0  0  0
   22.3751   38.5676   24.6050 H   0  0  0  0  0  0  0  0  0  0  0  0
   20.9180   35.0190   19.9470 H   0  0  0  0  0  0  0  0  0  0  0  0
   18.6821   37.3879   19.9246 H   0  0  0  0  0  0  0  0  0  0  0  0
   18.5606   39.3750   18.4315 H   0  0  0  0  0  0  0  0  0  0  0  0
   20.6006   40.1515   17.2147 H   0  0  0  0  0  0  0  0  0  0  0  0
   22.6200   38.5710   15.1500 H   0  0  0  0  0  0  0  0  0  0  0  0
   26.0890   37.7472   16.4761 H   0  0  0  0  0  0  0  0  0  0  0  0
   26.3566   36.8897   14.9206 H   0  0  0  0  0  0  0  0  0  0  0  0
   25.8546   38.6144   14.9206 H   0  0  0  0  0  0  0  0  0  0  0  0
   24.1227   36.3293   17.3831 H   0  0  0  0  0  0  0  0  0  0  0  0
   23.0762   35.5727   16.1345 H   0  0  0  0  0  0  0  0  0  0  0  0
   24.8448   35.2587   16.1345 H   0  0  0  0  0  0  0  0  0  0  0  0
   23.1653   36.0146   13.9999 H   0  0  0  0  0  0  0  0  0  0  0  0
   23.4942   37.6930   13.4509 H   0  0  0  0  0  0  0  0  0  0  0  0
   24.8130   36.4734   13.4509 H   0  0  0  0  0  0  0  0  0  0  0  0
   22.8877   36.9674   19.0551 H   0  0  0  0  0  0  0  0  0  0  0  0
  1  2  1  0
  2  3  2  0
  3  4  1  0
  4  5  2  0
  5  6  1  0
  6  7  1  0
  7  8  2  0
  8  9  1  0
  9 10  2  0
 10 11  1  0
 11 12  1  0
 12 13  1  0
 13 14  1  0
 14 15  1  0
 15 16  1  0
 16 17  1  0
 17 18  1  0
 10 19  1  0
 19 20  2  0
  5 21  1  0
 21 22  2  0
 22 23  1  0
 23 24  1  0
 24 25  2  0
 25 26  1  0
 26 27  2  0
 27 28  1  0
 28 29  1  0
 29 30  2  0
 29 31  2  0
 29 32  1  0
 32 33  1  0
 33 34  1  0
 33 35  1  0
 33 36  1  0
 28 37  2  0
 22  2  1  0
 37 24  1  0
 20  7  1  0
 18 14  1  0
  1 38  1  0
  1 39  1  0
  1 40  1  0
  3 41  1  0
  6 42  1  0
  8 43  1  0
  9 44  1  0
 12 45  1  0
 12 46  1  0
 13 47  1  0
 13 48  1  0
 14 49  1  0
 15 50  1  0
 15 51  1  0
 16 52  1  0
 16 53  1  0
 17 54  1  0
 17 55  1  0
 18 56  1  0
 18 57  1  0
 19 58  1  0
 20 59  1  0
 23 60  1  0
 25 61  1  0
 26 62  1  0
 27 63  1  0
 32 64  1  0
 34 65  1  0
 34 66  1  0
 34 67  1  0
 35 68  1  0
 35 69  1  0
 35 70  1  0
 36 71  1  0
 36 72  1  0
 36 73  1  0
 37 74  1  0
M  CHG  1  14   1
M  END
>  <meeko>  (1) 
{"is_sidechain": [false], "free_energy": -7.55, "intermolecular_energy": -12.405, "internal_energy": -2.41}

$$$$
4ogj_ligand
     RDKit          3D

 74 77  0  0  0  0  0  0  0  0999 V2000
   23.5530   37.0060   17.3040 C   0  0  0  0  0  0  0  0  0  0  0  0
   22.7910   38.1120   17.9600 C   0  0  0  0  0  0  0  0  0  0  0  0
   23.0070   39.4270   17.6100 C   0  0  0  0  0  0  0  0  0  0  0  0
   22.3490   40.4640   18.1530 N   0  0  0  0  0  0  0  0  0  0  0  0
   21.4320   40.1810   19.0870 C   0  0  0  0  0  0  0  0  0  0  0  0
   20.7620   41.2890   19.5970 N   0  0  0  0  0  0  0  0  0  0  0  0
   20.2260   41.6120   20.8450 C   0  0  0  0  0  0  0  0  0  0  0  0
   20.8810   41.1550   21.9960 C   0  0  0  0  0  0  0  0  0  0  0  0
   20.4150   41.4780   23.2750 C   0  0  0  0  0  0  0  0  0  0  0  0
   19.2860   42.2780   23.4370 C   0  0  0  0  0  0  0  0  0  0  0  0
   18.9430   42.5330   24.7340 O   0  0  0  0  0  0  0  0  0  0  0  0
   18.5710   41.4160   25.5370 C   0  0  0  0  0  0  0  0  0  0  0  0
   17.0650   41.1490   25.3880 C   0  0  0  0  0  0  0  0  0  0  0  0
   16.6950   39.9820   24.4960 N   0  0  0  0  0  0  0  0  0  0  0  0
   17.7910   38.9960   24.1560 C   0  0  0  0  0  0  0  0  0  0  0  0
   17.3190   38.3890   22.8510 C   0  0  0  0  0  0  0  0  0  0  0  0
   16.7440   39.5860   22.1190 C   0  0  0  0  0  0  0  0  0  0  0  0
   15.9870   40.3410   23.1980 C   0  0  0  0  0  0  0  0  0  0  0  0
   18.6170   42.7350   22.3040 C   0  0  0  0  0  0  0  0  0  0  0  0
   19.0900   42.4060   21.0240 C   0  0  0  0  0  0  0  0  0  0  0  0
   21.1560   38.9350   19.4910 N   0  0  0  0  0  0  0  0  0  0  0  0
   21.8320   37.9070   18.9440 C   0  0  0  0  0  0  0  0  0  0  0  0
   21.5600   36.5800   19.3620 N   0  0  0  0  0  0  0  0  0  0  0  0
   21.0270   36.1340   20.5900 C   0  0  0  0  0  0  0  0  0  0  0  0
   20.9810   36.9440   21.7320 C   0  0  0  0  0  0  0  0  0  0  0  0
   20.3880   36.4990   22.9200 C   0  0  0  0  0  0  0  0  0  0  0  0
   19.8170   35.2320   22.9790 C   0  0  0  0  0  0  0  0  0  0  0  0
   19.8430   34.4200   21.8420 C   0  0  0  0  0  0  0  0  0  0  0  0
   19.0670   32.8290   21.8960 S   0  0  0  0  0  0  0  0  0  0  0  0
   17.8890   32.9650   22.7280 O   0  0  0  0  0  0  0  0  0  0  0  0
   18.9770   32.3090   20.5520 O   0  0  0  0  0  0  0  0  0  0  0  0
   20.1290   31.8980   22.7840 N   0  0  0  0  0  0  0  0  0  0  0  0
   19.8480   30.6730   23.5520 C   0  0  0  0  0  0  0  0  0  0  0  0
   19.2010   30.9350   24.9110 C   0  0  0  0  0  0  0  0  0  0  0  0
   18.9670   29.7420   22.7110 C   0  0  0  0  0  0  0  0  0  0  0  0
   21.2050   29.9840   23.7890 C   0  0  0  0  0  0  0  0  0  0  0  0
   20.4150   34.8760   20.6480 C   0  0  0  0  0  0  0  0  0  0  0  0
   23.9982   36.3599   18.0750 H   0  0  0  0  0  0  0  0  0  0  0  0
   22.8712   36.4125   16.6771 H   0  0  0  0  0  0  0  0  0  0  0  0
   24.3504   37.4317   16.6771 H   0  0  0  0  0  0  0  0  0  0  0  0
   23.7633   39.6400   16.8401 H   0  0  0  0  0  0  0  0  0  0  0  0
   20.7270   41.9980   18.8760 H   0  0  0  0  0  0  0  0  0  0  0  0
   21.7799   40.5295   21.8920 H   0  0  0  0  0  0  0  0  0  0  0  0
   20.9447   41.0969   24.1605 H   0  0  0  0  0  0  0  0  0  0  0  0
   19.1335   40.5284   25.2118 H   0  0  0  0  0  0  0  0  0  0  0  0
   18.7998   41.6329   26.5909 H   0  0  0  0  0  0  0  0  0  0  0  0
   16.6547   40.9534   26.3897 H   0  0  0  0  0  0  0  0  0  0  0  0
   16.6460   42.0437   24.9043 H   0  0  0  0  0  0  0  0  0  0  0  0
   16.0000   39.4450   25.0320 H   0  0  0  0  0  0  0  0  0  0  0  0
   18.7559   39.5081   24.0265 H   0  0  0  0  0  0  0  0  0  0  0  0
   17.9570   38.2472   24.9445 H   0  0  0  0  0  0  0  0  0  0  0  0
   18.1572   37.9469   22.2924 H   0  0  0  0  0  0  0  0  0  0  0  0
   16.5973   37.5698   22.9850 H   0  0  0  0  0  0  0  0  0  0  0  0
   17.5458   40.2081   21.6946 H   0  0  0  0  0  0  0  0  0  0  0  0
   16.1039   39.2993   21.2716 H   0  0  0  0  0  0  0  0  0  0  0  0
   16.0348   41.4251   23.0180 H   0  0  0  0  0  0  0  0  0  0  0  0
   14.9203   40.0735   23.2201 H   0  0  0  0  0  0  0  0  0  0  0  0
   17.7153   43.3556   22.4126 H   0  0  0  0  0  0  0  0  0  0  0  0
   18.5535   42.7823   20.1405 H   0  0  0  0  0  0  0  0  0  0  0  0
   22.2760   35.9560   19.0040 H   0  0  0  0  0  0  0  0  0  0  0  0
   21.4204   37.9518   21.6947 H   0  0  0  0  0  0  0  0  0  0  0  0
   20.3738   37.1509   23.8059 H   0  0  0  0  0  0  0  0  0  0  0  0
   19.3509   34.8738   23.9088 H   0  0  0  0  0  0  0  0  0  0  0  0
   21.0820   32.2610   22.7720 H   0  0  0  0  0  0  0  0  0  0  0  0
   19.9008   30.6516   25.7110 H   0  0  0  0  0  0  0  0  0  0  0  0
   18.9553   32.0035   25.0002 H   0  0  0  0  0  0  0  0  0  0  0  0
   18.2811   30.3385   25.0002 H   0  0  0  0  0  0  0  0  0  0  0  0
   18.3652   29.1061   23.3770 H   0  0  0  0  0  0  0  0  0  0  0  0
   18.2994   30.3433   22.0763 H   0  0  0  0  0  0  0  0  0  0  0  0
   19.6042   29.1086   22.0763 H   0  0  0  0  0  0  0  0  0  0  0  0
   21.3858   29.8922   24.8702 H   0  0  0  0  0  0  0  0  0  0  0  0
   21.1926   28.9830   23.3330 H   0  0  0  0  0  0  0  0  0  0  0  0
   22.0058   30.5847   23.3330 H   0  0  0  0  0  0  0  0  0  0  0  0
   20.3833   34.2418   19.7498 H   0  0  0  0  0  0  0  0  0  0  0  0
  1  2  1  0
  2  3  2  0
  3  4  1  0
  4  5  2  0
  5  6  1  0
  6  7  1  0
  7  8  2  0
  8  9  1  0
  9 10  2  0
 10 11  1  0
 11 12  1  0
 12 13  1  0
 13 14  1  0
 14 15  1  0
 15 16  1  0
 16 17  1  0
 17 18  1  0
 10 19  1  0
 19 20  2  0
  5 21  1  0
 21 22  2  0
 22 23  1  0
 23 24  1  0
 24 25  2  0
 25 26  1  0
 26 27  2  0
 27 28  1  0
 28 29  1  0
 29 30  2  0
 29 31  2  0
 29 32  1  0
 32 33  1  0
 33 34  1  0
 33 35  1  0
 33 36  1  0
 28 37  2  0
 22  2  1  0
 37 24  1  0
 20  7  1  0
 18 14  1  0
  1 38  1  0
  1 39  1  0
  1 40  1  0
  3 41  1  0
  6 42  1  0
  8 43  1  0
  9 44  1  0
 12 45  1  0
 12 46  1  0
 13 47  1  0
 13 48  1  0
 14 49  1  0
 15 50  1  0
 15 51  1  0
 16 52  1  0
 16 53  1  0
 17 54  1  0
 17 55  1  0
 18 56  1  0
 18 57  1  0
 19 58  1  0
 20 59  1  0
 23 60  1  0
 25 61  1  0
 26 62  1  0
 27 63  1  0
 32 64  1  0
 34 65  1  0
 34 66  1  0
 34 67  1  0
 35 68  1  0
 35 69  1  0
 35 70  1  0
 36 71  1  0
 36 72  1  0
 36 73  1  0
 37 74  1  0
M  CHG  1  14   1
M  END
>  <meeko>  (2) 
{"is_sidechain": [false], "free_energy": -7.464, "intermolecular_energy": -12.846, "internal_energy": -1.827}

$$$$
4ogj_ligand
     RDKit          3D

 74 77  0  0  0  0  0  0  0  0999 V2000
   16.2320   38.7150   23.5550 C   0  0  0  0  0  0  0  0  0  0  0  0
   17.5630   38.9520   22.9180 C   0  0  0  0  0  0  0  0  0  0  0  0
   17.6750   39.6970   21.7660 C   0  0  0  0  0  0  0  0  0  0  0  0
   18.8420   39.9550   21.1510 N   0  0  0  0  0  0  0  0  0  0  0  0
   19.9480   39.4500   21.7110 C   0  0  0  0  0  0  0  0  0  0  0  0
   21.1310   39.7690   21.0490 N   0  0  0  0  0  0  0  0  0  0  0  0
   21.6280   39.5150   19.7700 C   0  0  0  0  0  0  0  0  0  0  0  0
   22.2660   38.2900   19.5280 C   0  0  0  0  0  0  0  0  0  0  0  0
   22.7500   37.9610   18.2570 C   0  0  0  0  0  0  0  0  0  0  0  0
   22.5980   38.8450   17.1900 C   0  0  0  0  0  0  0  0  0  0  0  0
   23.0990   38.4000   16.0000 O   0  0  0  0  0  0  0  0  0  0  0  0
   24.5110   38.2280   15.9160 C   0  0  0  0  0  0  0  0  0  0  0  0
   24.8640   37.4570   14.6340 C   0  0  0  0  0  0  0  0  0  0  0  0
   24.4870   35.9890   14.6320 N   0  0  0  0  0  0  0  0  0  0  0  0
   23.0810   35.6360   14.1980 C   0  0  0  0  0  0  0  0  0  0  0  0
   22.8330   34.3040   14.8740 C   0  0  0  0  0  0  0  0  0  0  0  0
   23.4750   34.4990   16.2340 C   0  0  0  0  0  0  0  0  0  0  0  0
   24.7680   35.2330   15.9230 C   0  0  0  0  0  0  0  0  0  0  0  0
   21.9740   40.0690   17.4140 C   0  0  0  0  0  0  0  0  0  0  0  0
   21.4920   40.3930   18.6920 C   0  0  0  0  0  0  0  0  0  0  0  0
   19.9360   38.7140   22.8280 N   0  0  0  0  0  0  0  0  0  0  0  0
   18.7570   38.4550   23.4260 C   0  0  0  0  0  0  0  0  0  0  0  0
   18.7190   37.6720   24.6080 N   0  0  0  0  0  0  0  0  0  0  0  0
   18.6960   36.2670   24.7330 C   0  0  0  0  0  0  0  0  0  0  0  0
   18.2440   35.6180   25.8900 C   0  0  0  0  0  0  0  0  0  0  0  0
   18.1710   34.2220   25.9630 C   0  0  0  0  0  0  0  0  0  0  0  0
   18.5410   33.4480   24.8680 C   0  0  0  0  0  0  0  0  0  0  0  0
   18.9780   34.0830   23.7030 C   0  0  0  0  0  0  0  0  0  0  0  0
   19.3950   33.1040   22.2870 S   0  0  0  0  0  0  0  0  0  0  0  0
   19.7520   34.0260   21.2300 O   0  0  0  0  0  0  0  0  0  0  0  0
   20.2950   32.0520   22.6980 O   0  0  0  0  0  0  0  0  0  0  0  0
   17.9380   32.4390   21.8200 N   0  0  0  0  0  0  0  0  0  0  0  0
   17.5810   31.8410   20.5220 C   0  0  0  0  0  0  0  0  0  0  0  0
   16.1550   32.1540   20.0730 C   0  0  0  0  0  0  0  0  0  0  0  0
   18.5890   32.3020   19.4620 C   0  0  0  0  0  0  0  0  0  0  0  0
   17.7100   30.3160   20.6920 C   0  0  0  0  0  0  0  0  0  0  0  0
   19.0280   35.4800   23.6230 C   0  0  0  0  0  0  0  0  0  0  0  0
   16.3406   38.7343   24.6495 H   0  0  0  0  0  0  0  0  0  0  0  0
   15.5304   39.5023   23.2422 H   0  0  0  0  0  0  0  0  0  0  0  0
   15.8453   37.7339   23.2422 H   0  0  0  0  0  0  0  0  0  0  0  0
   16.7550   40.1054   21.3224 H   0  0  0  0  0  0  0  0  0  0  0  0
   21.6890   40.3490   21.6610 H   0  0  0  0  0  0  0  0  0  0  0  0
   22.3884   37.5735   20.3536 H   0  0  0  0  0  0  0  0  0  0  0  0
   23.2547   36.9966   18.0985 H   0  0  0  0  0  0  0  0  0  0  0  0
   24.9988   39.2137   15.8958 H   0  0  0  0  0  0  0  0  0  0  0  0
   24.8613   37.6601   16.7905 H   0  0  0  0  0  0  0  0  0  0  0  0
   24.3456   37.9414   13.7934 H   0  0  0  0  0  0  0  0  0  0  0  0
   25.9607   37.4877   14.5548 H   0  0  0  0  0  0  0  0  0  0  0  0
   25.1070   35.5540   13.9350 H   0  0  0  0  0  0  0  0  0  0  0  0
   22.3606   36.3928   14.5419 H   0  0  0  0  0  0  0  0  0  0  0  0
   22.9656   35.5925   13.1049 H   0  0  0  0  0  0  0  0  0  0  0  0
   21.7560   34.1011   14.9686 H   0  0  0  0  0  0  0  0  0  0  0  0
   23.2404   33.4477   14.3165 H   0  0  0  0  0  0  0  0  0  0  0  0
   22.8296   35.1027   16.8890 H   0  0  0  0  0  0  0  0  0  0  0  0
   23.6418   33.5504   16.7654 H   0  0  0  0  0  0  0  0  0  0  0  0
   25.0211   35.9320   16.7338 H   0  0  0  0  0  0  0  0  0  0  0  0
   25.6212   34.5459   15.8238 H   0  0  0  0  0  0  0  0  0  0  0  0
   21.8582   40.7847   16.5868 H   0  0  0  0  0  0  0  0  0  0  0  0
   20.9951   41.3618   18.8484 H   0  0  0  0  0  0  0  0  0  0  0  0
   18.1400   38.1300   25.3030 H   0  0  0  0  0  0  0  0  0  0  0  0
   17.9399   36.2188   26.7598 H   0  0  0  0  0  0  0  0  0  0  0  0
   17.8211   33.7371   26.8862 H   0  0  0  0  0  0  0  0  0  0  0  0
   18.4901   32.3504   24.9188 H   0  0  0  0  0  0  0  0  0  0  0  0
   17.2300   32.4770   22.5520 H   0  0  0  0  0  0  0  0  0  0  0  0
   15.5149   32.2945   20.9565 H   0  0  0  0  0  0  0  0  0  0  0  0
   16.1541   33.0737   19.4696 H   0  0  0  0  0  0  0  0  0  0  0  0
   15.7690   31.3192   19.4696 H   0  0  0  0  0  0  0  0  0  0  0  0
   19.4818   32.7103   19.9581 H   0  0  0  0  0  0  0  0  0  0  0  0
   18.8776   31.4464   18.8338 H   0  0  0  0  0  0  0  0  0  0  0  0
   18.1305   33.0799   18.8338 H   0  0  0  0  0  0  0  0  0  0  0  0
   17.7311   30.0670   21.7632 H   0  0  0  0  0  0  0  0  0  0  0  0
   16.8506   29.8201   20.2171 H   0  0  0  0  0  0  0  0  0  0  0  0
   18.6405   29.9715   20.2171 H   0  0  0  0  0  0  0  0  0  0  0  0
   19.3301   35.9627   22.6819 H   0  0  0  0  0  0  0  0  0  0  0  0
  1  2  1  0
  2  3  2  0
  3  4  1  0
  4  5  2  0
  5  6  1  0
  6  7  1  0
  7  8  2  0
  8  9  1  0
  9 10  2  0
 10 11  1  0
 11 12  1  0
 12 13  1  0
 13 14  1  0
 14 15  1  0
 15 16  1  0
 16 17  1  0
 17 18  1  0
 10 19  1  0
 19 20  2  0
  5 21  1  0
 21 22  2  0
 22 23  1  0
 23 24  1  0
 24 25  2  0
 25 26  1  0
 26 27  2  0
 27 28  1  0
 28 29  1  0
 29 30  2  0
 29 31  2  0
 29 32  1  0
 32 33  1  0
 33 34  1  0
 33 35  1  0
 33 36  1  0
 28 37  2  0
 22  2  1  0
 37 24  1  0
 20  7  1  0
 18 14  1  0
  1 38  1  0
  1 39  1  0
  1 40  1  0
  3 41  1  0
  6 42  1  0
  8 43  1  0
  9 44  1  0
 12 45  1  0
 12 46  1  0
 13 47  1  0
 13 48  1  0
 14 49  1  0
 15 50  1  0
 15 51  1  0
 16 52  1  0
 16 53  1  0
 17 54  1  0
 17 55  1  0
 18 56  1  0
 18 57  1  0
 19 58  1  0
 20 59  1  0
 23 60  1  0
 25 61  1  0
 26 62  1  0
 27 63  1  0
 32 64  1  0
 34 65  1  0
 34 66  1  0
 34 67  1  0
 35 68  1  0
 35 69  1  0
 35 70  1  0
 36 71  1  0
 36 72  1  0
 36 73  1  0
 37 74  1  0
M  CHG  1  14   1
M  END
>  <meeko>  (3) 
{"is_sidechain": [false], "free_energy": -7.388, "intermolecular_energy": -13.603, "internal_energy": -0.946}

$$$$
4ogj_ligand
     RDKit          3D

 74 77  0  0  0  0  0  0  0  0999 V2000
   18.8200   34.7670   24.4620 C   0  0  0  0  0  0  0  0  0  0  0  0
   19.3390   35.7280   23.4420 C   0  0  0  0  0  0  0  0  0  0  0  0
   19.1470   37.0840   23.5820 C   0  0  0  0  0  0  0  0  0  0  0  0
   19.5970   37.9990   22.7080 N   0  0  0  0  0  0  0  0  0  0  0  0
   20.2720   37.5440   21.6450 C   0  0  0  0  0  0  0  0  0  0  0  0
   20.7380   38.5350   20.7850 N   0  0  0  0  0  0  0  0  0  0  0  0
   21.4790   38.5260   19.6020 C   0  0  0  0  0  0  0  0  0  0  0  0
   21.1360   39.4310   18.5880 C   0  0  0  0  0  0  0  0  0  0  0  0
   21.8650   39.4970   17.3960 C   0  0  0  0  0  0  0  0  0  0  0  0
   22.9650   38.6660   17.1910 C   0  0  0  0  0  0  0  0  0  0  0  0
   23.6000   38.8390   15.9950 O   0  0  0  0  0  0  0  0  0  0  0  0
   24.8230   38.1320   15.8030 C   0  0  0  0  0  0  0  0  0  0  0  0
   24.7700   37.3560   14.4770 C   0  0  0  0  0  0  0  0  0  0  0  0
   24.3720   35.8990   14.5900 N   0  0  0  0  0  0  0  0  0  0  0  0
   22.9180   35.5580   14.3480 C   0  0  0  0  0  0  0  0  0  0  0  0
   22.7330   34.2630   15.1120 C   0  0  0  0  0  0  0  0  0  0  0  0
   23.5400   34.5040   16.3720 C   0  0  0  0  0  0  0  0  0  0  0  0
   24.7970   35.1950   15.8700 C   0  0  0  0  0  0  0  0  0  0  0  0
   23.3150   37.7550   18.1840 C   0  0  0  0  0  0  0  0  0  0  0  0
   22.5780   37.6940   19.3770 C   0  0  0  0  0  0  0  0  0  0  0  0
   20.5060   36.2450   21.4240 N   0  0  0  0  0  0  0  0  0  0  0  0
   20.0380   35.3390   22.3060 C   0  0  0  0  0  0  0  0  0  0  0  0
   20.2690   33.9580   22.0890 N   0  0  0  0  0  0  0  0  0  0  0  0
   19.3930   32.9910   21.5510 C   0  0  0  0  0  0  0  0  0  0  0  0
   18.8190   33.1160   20.2790 C   0  0  0  0  0  0  0  0  0  0  0  0
   18.0040   32.1110   19.7440 C   0  0  0  0  0  0  0  0  0  0  0  0
   17.7570   30.9530   20.4750 C   0  0  0  0  0  0  0  0  0  0  0  0
   18.3360   30.8100   21.7380 C   0  0  0  0  0  0  0  0  0  0  0  0
   18.0710   29.3130   22.6470 S   0  0  0  0  0  0  0  0  0  0  0  0
   16.6430   29.0750   22.6570 O   0  0  0  0  0  0  0  0  0  0  0  0
   18.9930   28.3100   22.1690 O   0  0  0  0  0  0  0  0  0  0  0  0
   18.4610   29.7260   24.2150 N   0  0  0  0  0  0  0  0  0  0  0  0
   19.6990   29.4290   24.9580 C   0  0  0  0  0  0  0  0  0  0  0  0
   19.5850   28.2180   25.8830 C   0  0  0  0  0  0  0  0  0  0  0  0
   20.8480   29.2350   23.9620 C   0  0  0  0  0  0  0  0  0  0  0  0
   20.0000   30.6680   25.8210 C   0  0  0  0  0  0  0  0  0  0  0  0
   19.1700   31.8050   22.2620 C   0  0  0  0  0  0  0  0  0  0  0  0
   19.0290   35.1540   25.4702 H   0  0  0  0  0  0  0  0  0  0  0  0
   17.7342   34.6466   24.3333 H   0  0  0  0  0  0  0  0  0  0  0  0
   19.3147   33.7930   24.3333 H   0  0  0  0  0  0  0  0  0  0  0  0
   18.5917   37.4394   24.4625 H   0  0  0  0  0  0  0  0  0  0  0  0
   20.3960   39.4270   21.1160 H   0  0  0  0  0  0  0  0  0  0  0  0
   20.2767   40.1024   18.7325 H   0  0  0  0  0  0  0  0  0  0  0  0
   21.5676   40.2109   16.6137 H   0  0  0  0  0  0  0  0  0  0  0  0
   25.6583   38.8472   15.7750 H   0  0  0  0  0  0  0  0  0  0  0  0
   24.9695   37.4253   16.6331 H   0  0  0  0  0  0  0  0  0  0  0  0
   24.0428   37.8561   13.8204 H   0  0  0  0  0  0  0  0  0  0  0  0
   25.7974   37.3590   14.0839 H   0  0  0  0  0  0  0  0  0  0  0  0
   24.8940   35.4190   13.8440 H   0  0  0  0  0  0  0  0  0  0  0  0
   22.2578   36.3453   14.7409 H   0  0  0  0  0  0  0  0  0  0  0  0
   22.6685   35.4679   13.2805 H   0  0  0  0  0  0  0  0  0  0  0  0
   21.6726   34.0886   15.3469 H   0  0  0  0  0  0  0  0  0  0  0  0
   23.0546   33.3738   14.5500 H   0  0  0  0  0  0  0  0  0  0  0  0
   22.9903   35.1504   17.0719 H   0  0  0  0  0  0  0  0  0  0  0  0
   23.7553   33.5769   16.9234 H   0  0  0  0  0  0  0  0  0  0  0  0
   25.1601   35.9234   16.6101 H   0  0  0  0  0  0  0  0  0  0  0  0
   25.6195   34.4850   15.6986 H   0  0  0  0  0  0  0  0  0  0  0  0
   24.1714   37.0813   18.0332 H   0  0  0  0  0  0  0  0  0  0  0  0
   22.8732   36.9733   20.1538 H   0  0  0  0  0  0  0  0  0  0  0  0
   20.8380   33.5850   22.8410 H   0  0  0  0  0  0  0  0  0  0  0  0
   19.0128   34.0232   19.6879 H   0  0  0  0  0  0  0  0  0  0  0  0
   17.5590   32.2368   18.7459 H   0  0  0  0  0  0  0  0  0  0  0  0
   17.1143   30.1607   20.0636 H   0  0  0  0  0  0  0  0  0  0  0  0
   17.7200   30.2430   24.6880 H   0  0  0  0  0  0  0  0  0  0  0  0
   19.6165   28.5524   26.9305 H   0  0  0  0  0  0  0  0  0  0  0  0
   18.6340   27.6991   25.6922 H   0  0  0  0  0  0  0  0  0  0  0  0
   20.4224   27.5307   25.6922 H   0  0  0  0  0  0  0  0  0  0  0  0
   21.7873   29.0764   24.5121 H   0  0  0  0  0  0  0  0  0  0  0  0
   20.6411   28.3591   23.3296 H   0  0  0  0  0  0  0  0  0  0  0  0
   20.9401   30.1303   23.3296 H   0  0  0  0  0  0  0  0  0  0  0  0
   19.9345   30.3982   26.8854 H   0  0  0  0  0  0  0  0  0  0  0  0
   21.0131   31.0335   25.5971 H   0  0  0  0  0  0  0  0  0  0  0  0
   19.2675   31.4575   25.5971 H   0  0  0  0  0  0  0  0  0  0  0  0
   19.6533   31.6543   23.2386 H   0  0  0  0  0  0  0  0  0  0  0  0
  1  2  1  0
  2  3  2  0
  3  4  1  0
  4  5  2  0
  5  6  1  0
  6  7  1  0
  7  8  2  0
  8  9  1  0
  9 10  2  0
 10 11  1  0
 11 12  1  0
 12 13  1  0
 13 14  1  0
 14 15  1  0
 15 16  1  0
 16 17  1  0
 17 18  1  0
 10 19  1  0
 19 20  2  0
  5 21  1  0
 21 22  2  0
 22 23  1  0
 23 24  1  0
 24 25  2  0
 25 26  1  0
 26 27  2  0
 27 28  1  0
 28 29  1  0
 29 30  2  0
 29 31  2  0
 29 32  1  0
 32 33  1  0
 33 34  1  0
 33 35  1  0
 33 36  1  0
 28 37  2  0
 22  2  1  0
 37 24  1  0
 20  7  1  0
 18 14  1  0
  1 38  1  0
  1 39  1  0
  1 40  1  0
  3 41  1  0
  6 42  1  0
  8 43  1  0
  9 44  1  0
 12 45  1  0
 12 46  1  0
 13 47  1  0
 13 48  1  0
 14 49  1  0
 15 50  1  0
 15 51  1  0
 16 52  1  0
 16 53  1  0
 17 54  1  0
 17 55  1  0
 18 56  1  0
 18 57  1  0
 19 58  1  0
 20 59  1  0
 23 60  1  0
 25 61  1  0
 26 62  1  0
 27 63  1  0
 32 64  1  0
 34 65  1  0
 34 66  1  0
 34 67  1  0
 35 68  1  0
 35 69  1  0
 35 70  1  0
 36 71  1  0
 36 72  1  0
 36 73  1  0
 37 74  1  0
M  CHG  1  14   1
M  END
>  <meeko>  (4) 
{"is_sidechain": [false], "free_energy": -7.273, "intermolecular_energy": -13.411, "internal_energy": -0.948}

$$$$
4ogj_ligand
     RDKit          3D

 74 77  0  0  0  0  0  0  0  0999 V2000
   21.1790   41.0070   20.5530 C   0  0  0  0  0  0  0  0  0  0  0  0
   21.1090   39.5150   20.5100 C   0  0  0  0  0  0  0  0  0  0  0  0
   21.4150   38.8230   19.3600 C   0  0  0  0  0  0  0  0  0  0  0  0
   21.3810   37.4840   19.2590 N   0  0  0  0  0  0  0  0  0  0  0  0
   21.0300   36.8010   20.3560 C   0  0  0  0  0  0  0  0  0  0  0  0
   21.0370   35.4170   20.2050 N   0  0  0  0  0  0  0  0  0  0  0  0
   20.1500   34.3970   20.5510 C   0  0  0  0  0  0  0  0  0  0  0  0
   19.5340   33.6650   19.5270 C   0  0  0  0  0  0  0  0  0  0  0  0
   18.6660   32.6050   19.8110 C   0  0  0  0  0  0  0  0  0  0  0  0
   18.4000   32.2410   21.1290 C   0  0  0  0  0  0  0  0  0  0  0  0
   17.5500   31.1820   21.2720 O   0  0  0  0  0  0  0  0  0  0  0  0
   18.1400   29.9010   21.4720 C   0  0  0  0  0  0  0  0  0  0  0  0
   17.7490   29.3590   22.8560 C   0  0  0  0  0  0  0  0  0  0  0  0
   18.8250   29.4460   23.9180 N   0  0  0  0  0  0  0  0  0  0  0  0
   18.7660   30.6220   24.8690 C   0  0  0  0  0  0  0  0  0  0  0  0
   20.2010   30.7690   25.3290 C   0  0  0  0  0  0  0  0  0  0  0  0
   20.9840   30.5100   24.0570 C   0  0  0  0  0  0  0  0  0  0  0  0
   20.2590   29.3390   23.4170 C   0  0  0  0  0  0  0  0  0  0  0  0
   18.9970   32.9620   22.1600 C   0  0  0  0  0  0  0  0  0  0  0  0
   19.8660   34.0240   21.8680 C   0  0  0  0  0  0  0  0  0  0  0  0
   20.7150   37.3870   21.5170 N   0  0  0  0  0  0  0  0  0  0  0  0
   20.7430   38.7320   21.5980 C   0  0  0  0  0  0  0  0  0  0  0  0
   20.4080   39.3740   22.8160 N   0  0  0  0  0  0  0  0  0  0  0  0
   21.2640   39.7870   23.8590 C   0  0  0  0  0  0  0  0  0  0  0  0
   22.1450   38.9110   24.5070 C   0  0  0  0  0  0  0  0  0  0  0  0
   23.0280   39.3610   25.4950 C   0  0  0  0  0  0  0  0  0  0  0  0
   23.0540   40.7070   25.8440 C   0  0  0  0  0  0  0  0  0  0  0  0
   22.1920   41.5940   25.1950 C   0  0  0  0  0  0  0  0  0  0  0  0
   22.2610   43.3180   25.5950 S   0  0  0  0  0  0  0  0  0  0  0  0
   22.1660   43.4180   27.0370 O   0  0  0  0  0  0  0  0  0  0  0  0
   23.3580   43.9200   24.8750 O   0  0  0  0  0  0  0  0  0  0  0  0
   20.8180   43.9200   25.0150 N   0  0  0  0  0  0  0  0  0  0  0  0
   20.5770   45.1840   24.2960 C   0  0  0  0  0  0  0  0  0  0  0  0
   19.1000   45.5590   24.1910 C   0  0  0  0  0  0  0  0  0  0  0  0
   21.3680   46.3070   24.9770 C   0  0  0  0  0  0  0  0  0  0  0  0
   21.1290   44.9880   22.8720 C   0  0  0  0  0  0  0  0  0  0  0  0
   21.3250   41.1460   24.1900 C   0  0  0  0  0  0  0  0  0  0  0  0
   21.1948   41.3433   21.6002 H   0  0  0  0  0  0  0  0  0  0  0  0
   22.0940   41.3459   20.0452 H   0  0  0  0  0  0  0  0  0  0  0  0
   20.2997   41.4301   20.0452 H   0  0  0  0  0  0  0  0  0  0  0  0
   21.7048   39.4013   18.4703 H   0  0  0  0  0  0  0  0  0  0  0  0
   21.8660   35.1600   19.6850 H   0  0  0  0  0  0  0  0  0  0  0  0
   19.7370   33.9291   18.4787 H   0  0  0  0  0  0  0  0  0  0  0  0
   18.1896   32.0544   18.9865 H   0  0  0  0  0  0  0  0  0  0  0  0
   17.7835   29.2092   20.6947 H   0  0  0  0  0  0  0  0  0  0  0  0
   19.2347   29.9917   21.4131 H   0  0  0  0  0  0  0  0  0  0  0  0
   16.8772   29.9292   23.2093 H   0  0  0  0  0  0  0  0  0  0  0  0
   17.5498   28.2864   22.7150 H   0  0  0  0  0  0  0  0  0  0  0  0
   18.6920   28.6110   24.5050 H   0  0  0  0  0  0  0  0  0  0  0  0
   18.4227   31.5302   24.3520 H   0  0  0  0  0  0  0  0  0  0  0  0
   18.0608   30.4696   25.6994 H   0  0  0  0  0  0  0  0  0  0  0  0
   20.3928   31.7813   25.7142 H   0  0  0  0  0  0  0  0  0  0  0  0
   20.4680   30.0909   26.1529 H   0  0  0  0  0  0  0  0  0  0  0  0
   20.9638   31.3907   23.3983 H   0  0  0  0  0  0  0  0  0  0  0  0
   22.0468   30.2996   24.2472 H   0  0  0  0  0  0  0  0  0  0  0  0
   20.2926   29.4155   22.3202 H   0  0  0  0  0  0  0  0  0  0  0  0
   20.7184   28.3743   23.6783 H   0  0  0  0  0  0  0  0  0  0  0  0
   18.7865   32.6980   23.2069 H   0  0  0  0  0  0  0  0  0  0  0  0
   20.3352   34.5765   22.6954 H   0  0  0  0  0  0  0  0  0  0  0  0
   19.5270   39.0100   23.1630 H   0  0  0  0  0  0  0  0  0  0  0  0
   22.1425   37.8457   24.2329 H   0  0  0  0  0  0  0  0  0  0  0  0
   23.7016   38.6500   25.9957 H   0  0  0  0  0  0  0  0  0  0  0  0
   23.7441   41.0682   26.6207 H   0  0  0  0  0  0  0  0  0  0  0  0
   20.0240   43.3090   25.2080 H   0  0  0  0  0  0  0  0  0  0  0  0
   18.6764   45.6666   25.2004 H   0  0  0  0  0  0  0  0  0  0  0  0
   19.0010   46.5108   23.6485 H   0  0  0  0  0  0  0  0  0  0  0  0
   18.5590   44.7697   23.6485 H   0  0  0  0  0  0  0  0  0  0  0  0
   21.2919   46.1990   26.0690 H   0  0  0  0  0  0  0  0  0  0  0  0
   22.4241   46.2467   24.6753 H   0  0  0  0  0  0  0  0  0  0  0  0
   20.9555   47.2811   24.6753 H   0  0  0  0  0  0  0  0  0  0  0  0
   22.1643   44.6204   22.9274 H   0  0  0  0  0  0  0  0  0  0  0  0
   20.5080   44.2554   22.3356 H   0  0  0  0  0  0  0  0  0  0  0  0
   21.1091   45.9482   22.3356 H   0  0  0  0  0  0  0  0  0  0  0  0
   20.6877   41.8670   23.6572 H   0  0  0  0  0  0  0  0  0  0  0  0
  1  2  1  0
  2  3  2  0
  3  4  1  0
  4  5  2  0
  5  6  1  0
  6  7  1  0
  7  8  2  0
  8  9  1  0
  9 10  2  0
 10 11  1  0
 11 12  1  0
 12 13  1  0
 13 14  1  0
 14 15  1  0
 15 16  1  0
 16 17  1  0
 17 18  1  0
 10 19  1  0
 19 20  2  0
  5 21  1  0
 21 22  2  0
 22 23  1  0
 23 24  1  0
 24 25  2  0
 25 26  1  0
 26 27  2  0
 27 28  1  0
 28 29  1  0
 29 30  2  0
 29 31  2  0
 29 32  1  0
 32 33  1  0
 33 34  1  0
 33 35  1  0
 33 36  1  0
 28 37  2  0
 22  2  1  0
 37 24  1  0
 20  7  1  0
 18 14  1  0
  1 38  1  0
  1 39  1  0
  1 40  1  0
  3 41  1  0
  6 42  1  0
  8 43  1  0
  9 44  1  0
 12 45  1  0
 12 46  1  0
 13 47  1  0
 13 48  1  0
 14 49  1  0
 15 50  1  0
 15 51  1  0
 16 52  1  0
 16 53  1  0
 17 54  1  0
 17 55  1  0
 18 56  1  0
 18 57  1  0
 19 58  1  0
 20 59  1  0
 23 60  1  0
 25 61  1  0
 26 62  1  0
 27 63  1  0
 32 64  1  0
 34 65  1  0
 34 66  1  0
 34 67  1  0
 35 68  1  0
 35 69  1  0
 35 70  1  0
 36 71  1  0
 36 72  1  0
 36 73  1  0
 37 74  1  0
M  CHG  1  14   1
M  END
>  <meeko>  (5) 
{"is_sidechain": [false], "free_energy": -7.23, "intermolecular_energy": -12.929, "internal_energy": -1.361}

$$$$
4ogj_ligand
     RDKit          3D

 74 77  0  0  0  0  0  0  0  0999 V2000
   23.5850   36.7570   17.5440 C   0  0  0  0  0  0  0  0  0  0  0  0
   22.8690   37.9210   18.1490 C   0  0  0  0  0  0  0  0  0  0  0  0
   23.2700   39.2130   17.8890 C   0  0  0  0  0  0  0  0  0  0  0  0
   22.6640   40.3010   18.3920 N   0  0  0  0  0  0  0  0  0  0  0  0
   21.6080   40.0950   19.1890 C   0  0  0  0  0  0  0  0  0  0  0  0
   21.0010   41.2550   19.6620 N   0  0  0  0  0  0  0  0  0  0  0  0
   20.1570   41.5440   20.7360 C   0  0  0  0  0  0  0  0  0  0  0  0
   18.7720   41.5290   20.5240 C   0  0  0  0  0  0  0  0  0  0  0  0
   17.8740   41.7710   21.5700 C   0  0  0  0  0  0  0  0  0  0  0  0
   18.3390   42.0230   22.8590 C   0  0  0  0  0  0  0  0  0  0  0  0
   17.3630   42.2270   23.7920 O   0  0  0  0  0  0  0  0  0  0  0  0
   16.4390   43.2830   23.5410 C   0  0  0  0  0  0  0  0  0  0  0  0
   17.1490   44.6380   23.6850 C   0  0  0  0  0  0  0  0  0  0  0  0
   17.2860   45.4400   22.4070 N   0  0  0  0  0  0  0  0  0  0  0  0
   16.4510   45.0050   21.2220 C   0  0  0  0  0  0  0  0  0  0  0  0
   17.2300   45.5320   20.0360 C   0  0  0  0  0  0  0  0  0  0  0  0
   18.6670   45.2660   20.4390 C   0  0  0  0  0  0  0  0  0  0  0  0
   18.7090   45.6500   21.9080 C   0  0  0  0  0  0  0  0  0  0  0  0
   19.7130   42.0490   23.0860 C   0  0  0  0  0  0  0  0  0  0  0  0
   20.6070   41.8060   22.0320 C   0  0  0  0  0  0  0  0  0  0  0  0
   21.1480   38.8770   19.4990 N   0  0  0  0  0  0  0  0  0  0  0  0
   21.7740   37.7960   18.9950 C   0  0  0  0  0  0  0  0  0  0  0  0
   21.3080   36.4950   19.3140 N   0  0  0  0  0  0  0  0  0  0  0  0
   20.8490   36.0040   20.5550 C   0  0  0  0  0  0  0  0  0  0  0  0
   20.8380   36.7830   21.7190 C   0  0  0  0  0  0  0  0  0  0  0  0
   20.3180   36.2910   22.9220 C   0  0  0  0  0  0  0  0  0  0  0  0
   19.7860   35.0070   22.9760 C   0  0  0  0  0  0  0  0  0  0  0  0
   19.7770   34.2260   21.8180 C   0  0  0  0  0  0  0  0  0  0  0  0
   19.0480   32.6120   21.8680 S   0  0  0  0  0  0  0  0  0  0  0  0
   17.8950   32.6990   22.7390 O   0  0  0  0  0  0  0  0  0  0  0  0
   18.9300   32.1130   20.5180 O   0  0  0  0  0  0  0  0  0  0  0  0
   20.1650   31.6970   22.7040 N   0  0  0  0  0  0  0  0  0  0  0  0
   19.9180   30.5920   23.6480 C   0  0  0  0  0  0  0  0  0  0  0  0
   18.9030   29.5680   23.1430 C   0  0  0  0  0  0  0  0  0  0  0  0
   21.2490   29.9080   23.9790 C   0  0  0  0  0  0  0  0  0  0  0  0
   19.3610   31.2310   24.9330 C   0  0  0  0  0  0  0  0  0  0  0  0
   20.2760   34.7280   20.6100 C   0  0  0  0  0  0  0  0  0  0  0  0
   23.9806   36.1138   18.3439 H   0  0  0  0  0  0  0  0  0  0  0  0
   22.8857   36.1796   16.9214 H   0  0  0  0  0  0  0  0  0  0  0  0
   24.4157   37.1208   16.9214 H   0  0  0  0  0  0  0  0  0  0  0  0
   24.1382   39.3625   17.2302 H   0  0  0  0  0  0  0  0  0  0  0  0
   21.3140   42.0300   19.0920 H   0  0  0  0  0  0  0  0  0  0  0  0
   18.3829   41.3230   19.5159 H   0  0  0  0  0  0  0  0  0  0  0  0
   16.7919   41.7622   21.3727 H   0  0  0  0  0  0  0  0  0  0  0  0
   16.0409   43.1855   22.5202 H   0  0  0  0  0  0  0  0  0  0  0  0
   15.6141   43.2252   24.2664 H   0  0  0  0  0  0  0  0  0  0  0  0
   16.5808   45.2437   24.4063 H   0  0  0  0  0  0  0  0  0  0  0  0
   18.1746   44.4092   24.0101 H   0  0  0  0  0  0  0  0  0  0  0  0
   16.9530   46.3840   22.6460 H   0  0  0  0  0  0  0  0  0  0  0  0
   16.3648   43.9091   21.1815 H   0  0  0  0  0  0  0  0  0  0  0  0
   15.4183   45.3820   21.2610 H   0  0  0  0  0  0  0  0  0  0  0  0
   16.9686   44.9885   19.1161 H   0  0  0  0  0  0  0  0  0  0  0  0
   17.0266   46.5901   19.8145 H   0  0  0  0  0  0  0  0  0  0  0  0
   18.9216   44.2044   20.3041 H   0  0  0  0  0  0  0  0  0  0  0  0
   19.3903   45.8297   19.8314 H   0  0  0  0  0  0  0  0  0  0  0  0
   19.4110   45.0052   22.4569 H   0  0  0  0  0  0  0  0  0  0  0  0
   19.0522   46.6845   22.0566 H   0  0  0  0  0  0  0  0  0  0  0  0
   20.0984   42.2606   24.0943 H   0  0  0  0  0  0  0  0  0  0  0  0
   21.6887   41.8223   22.2314 H   0  0  0  0  0  0  0  0  0  0  0  0
   21.8450   35.8040   18.8010 H   0  0  0  0  0  0  0  0  0  0  0  0
   21.2469   37.8037   21.6871 H   0  0  0  0  0  0  0  0  0  0  0  0
   20.3301   36.9198   23.8245 H   0  0  0  0  0  0  0  0  0  0  0  0
   19.3778   34.6119   23.9180 H   0  0  0  0  0  0  0  0  0  0  0  0
   21.1280   31.9730   22.5150 H   0  0  0  0  0  0  0  0  0  0  0  0
   18.4180   29.0787   24.0006 H   0  0  0  0  0  0  0  0  0  0  0  0
   18.1422   30.0762   22.5324 H   0  0  0  0  0  0  0  0  0  0  0  0
   19.4179   28.8117   22.5324 H   0  0  0  0  0  0  0  0  0  0  0  0
   21.3682   29.8467   25.0708 H   0  0  0  0  0  0  0  0  0  0  0  0
   21.2565   28.8943   23.5519 H   0  0  0  0  0  0  0  0  0  0  0  0
   22.0776   30.4920   23.5519 H   0  0  0  0  0  0  0  0  0  0  0  0
   19.7972   30.7306   25.8101 H   0  0  0  0  0  0  0  0  0  0  0  0
   19.6210   32.2996   24.9535 H   0  0  0  0  0  0  0  0  0  0  0  0
   18.2669   31.1193   24.9535 H   0  0  0  0  0  0  0  0  0  0  0  0
   20.2174   34.1156   19.6981 H   0  0  0  0  0  0  0  0  0  0  0  0
  1  2  1  0
  2  3  2  0
  3  4  1  0
  4  5  2  0
  5  6  1  0
  6  7  1  0
  7  8  2  0
  8  9  1  0
  9 10  2  0
 10 11  1  0
 11 12  1  0
 12 13  1  0
 13 14  1  0
 14 15  1  0
 15 16  1  0
 16 17  1  0
 17 18  1  0
 10 19  1  0
 19 20  2  0
  5 21  1  0
 21 22  2  0
 22 23  1  0
 23 24  1  0
 24 25  2  0
 25 26  1  0
 26 27  2  0
 27 28  1  0
 28 29  1  0
 29 30  2  0
 29 31  2  0
 29 32  1  0
 32 33  1  0
 33 34  1  0
 33 35  1  0
 33 36  1  0
 28 37  2  0
 22  2  1  0
 37 24  1  0
 20  7  1  0
 18 14  1  0
  1 38  1  0
  1 39  1  0
  1 40  1  0
  3 41  1  0
  6 42  1  0
  8 43  1  0
  9 44  1  0
 12 45  1  0
 12 46  1  0
 13 47  1  0
 13 48  1  0
 14 49  1  0
 15 50  1  0
 15 51  1  0
 16 52  1  0
 16 53  1  0
 17 54  1  0
 17 55  1  0
 18 56  1  0
 18 57  1  0
 19 58  1  0
 20 59  1  0
 23 60  1  0
 25 61  1  0
 26 62  1  0
 27 63  1  0
 32 64  1  0
 34 65  1  0
 34 66  1  0
 34 67  1  0
 35 68  1  0
 35 69  1  0
 35 70  1  0
 36 71  1  0
 36 72  1  0
 36 73  1  0
 37 74  1  0
M  CHG  1  14   1
M  END
>  <meeko>  (6) 
{"is_sidechain": [false], "free_energy": -7.136, "intermolecular_energy": -12.833, "internal_energy": -1.302}

$$$$
4ogj_ligand
     RDKit          3D

 74 77  0  0  0  0  0  0  0  0999 V2000
   23.5390   36.9830   17.5580 C   0  0  0  0  0  0  0  0  0  0  0  0
   22.7370   38.0950   18.1520 C   0  0  0  0  0  0  0  0  0  0  0  0
   23.0430   39.4110   17.8860 C   0  0  0  0  0  0  0  0  0  0  0  0
   22.3560   40.4550   18.3800 N   0  0  0  0  0  0  0  0  0  0  0  0
   21.3140   40.1760   19.1730 C   0  0  0  0  0  0  0  0  0  0  0  0
   20.6220   41.2910   19.6360 N   0  0  0  0  0  0  0  0  0  0  0  0
   20.1430   41.6900   20.8860 C   0  0  0  0  0  0  0  0  0  0  0  0
   21.0450   41.7750   21.9550 C   0  0  0  0  0  0  0  0  0  0  0  0
   20.6320   42.2050   23.2210 C   0  0  0  0  0  0  0  0  0  0  0  0
   19.3080   42.5730   23.4480 C   0  0  0  0  0  0  0  0  0  0  0  0
   19.0370   42.9900   24.7200 O   0  0  0  0  0  0  0  0  0  0  0  0
   19.0520   41.9970   25.7420 C   0  0  0  0  0  0  0  0  0  0  0  0
   20.2090   42.2720   26.7160 C   0  0  0  0  0  0  0  0  0  0  0  0
   21.3120   41.2340   26.7270 N   0  0  0  0  0  0  0  0  0  0  0  0
   22.6390   41.6260   26.1170 C   0  0  0  0  0  0  0  0  0  0  0  0
   23.2470   40.2970   25.7220 C   0  0  0  0  0  0  0  0  0  0  0  0
   22.0520   39.5330   25.1870 C   0  0  0  0  0  0  0  0  0  0  0  0
   20.9400   39.8690   26.1660 C   0  0  0  0  0  0  0  0  0  0  0  0
   18.3970   42.4880   22.3990 C   0  0  0  0  0  0  0  0  0  0  0  0
   18.8170   42.0540   21.1320 C   0  0  0  0  0  0  0  0  0  0  0  0
   20.9430   38.9290   19.4880 N   0  0  0  0  0  0  0  0  0  0  0  0
   21.6500   37.8940   18.9930 C   0  0  0  0  0  0  0  0  0  0  0  0
   21.2780   36.5650   19.3180 N   0  0  0  0  0  0  0  0  0  0  0  0
   20.8460   36.0490   20.5580 C   0  0  0  0  0  0  0  0  0  0  0  0
   20.8570   36.8060   21.7370 C   0  0  0  0  0  0  0  0  0  0  0  0
   20.3620   36.2900   22.9410 C   0  0  0  0  0  0  0  0  0  0  0  0
   19.8340   35.0040   22.9810 C   0  0  0  0  0  0  0  0  0  0  0  0
   19.8030   34.2440   21.8090 C   0  0  0  0  0  0  0  0  0  0  0  0
   19.0800   32.6280   21.8440 S   0  0  0  0  0  0  0  0  0  0  0  0
   17.9120   32.7090   22.6950 O   0  0  0  0  0  0  0  0  0  0  0  0
   18.9860   32.1310   20.4910 O   0  0  0  0  0  0  0  0  0  0  0  0
   20.1850   31.7150   22.6960 N   0  0  0  0  0  0  0  0  0  0  0  0
   19.9270   30.7170   23.7490 C   0  0  0  0  0  0  0  0  0  0  0  0
   19.3650   31.3140   25.0380 C   0  0  0  0  0  0  0  0  0  0  0  0
   18.9830   29.6410   23.2010 C   0  0  0  0  0  0  0  0  0  0  0  0
   21.2830   30.0620   24.0730 C   0  0  0  0  0  0  0  0  0  0  0  0
   20.2770   34.7710   20.6010 C   0  0  0  0  0  0  0  0  0  0  0  0
   23.9770   36.3757   18.3639 H   0  0  0  0  0  0  0  0  0  0  0  0
   22.8868   36.3519   16.9364 H   0  0  0  0  0  0  0  0  0  0  0  0
   24.3437   37.4027   16.9364 H   0  0  0  0  0  0  0  0  0  0  0  0
   23.9009   39.6201   17.2301 H   0  0  0  0  0  0  0  0  0  0  0  0
   20.5120   41.9380   18.8660 H   0  0  0  0  0  0  0  0  0  0  0  0
   22.0977   41.4985   21.7960 H   0  0  0  0  0  0  0  0  0  0  0  0
   21.3597   42.2528   24.0445 H   0  0  0  0  0  0  0  0  0  0  0  0
   18.0988   42.0225   26.2904 H   0  0  0  0  0  0  0  0  0  0  0  0
   19.1892   41.0061   25.2846 H   0  0  0  0  0  0  0  0  0  0  0  0
   20.6568   43.2397   26.4458 H   0  0  0  0  0  0  0  0  0  0  0  0
   19.7670   42.2541   27.7231 H   0  0  0  0  0  0  0  0  0  0  0  0
   21.5070   41.0610   27.7230 H   0  0  0  0  0  0  0  0  0  0  0  0
   22.4933   42.2698   25.2370 H   0  0  0  0  0  0  0  0  0  0  0  0
   23.2750   42.2030   26.8044 H   0  0  0  0  0  0  0  0  0  0  0  0
   24.0153   40.4269   24.9456 H   0  0  0  0  0  0  0  0  0  0  0  0
   23.7578   39.7857   26.5513 H   0  0  0  0  0  0  0  0  0  0  0  0
   21.7949   39.8686   24.1715 H   0  0  0  0  0  0  0  0  0  0  0  0
   22.2382   38.4517   25.1092 H   0  0  0  0  0  0  0  0  0  0  0  0
   19.9699   39.9141   25.6493 H   0  0  0  0  0  0  0  0  0  0  0  0
   20.8399   39.1098   26.9557 H   0  0  0  0  0  0  0  0  0  0  0  0
   17.3444   42.7619   22.5635 H   0  0  0  0  0  0  0  0  0  0  0  0
   18.0845   41.9992   20.3132 H   0  0  0  0  0  0  0  0  0  0  0  0
   21.8700   35.9120   18.8150 H   0  0  0  0  0  0  0  0  0  0  0  0
   21.2634   37.8280   21.7164 H   0  0  0  0  0  0  0  0  0  0  0  0
   20.3908   36.9016   23.8548 H   0  0  0  0  0  0  0  0  0  0  0  0
   19.4457   34.5904   23.9234 H   0  0  0  0  0  0  0  0  0  0  0  0
   21.1510   31.9070   22.4300 H   0  0  0  0  0  0  0  0  0  0  0  0
   19.8299   30.8201   25.9040 H   0  0  0  0  0  0  0  0  0  0  0  0
   19.5842   32.3915   25.0691 H   0  0  0  0  0  0  0  0  0  0  0  0
   18.2762   31.1602   25.0691 H   0  0  0  0  0  0  0  0  0  0  0  0
   18.5126   29.1049   24.0384 H   0  0  0  0  0  0  0  0  0  0  0  0
   18.2043   30.1153   22.5856 H   0  0  0  0  0  0  0  0  0  0  0  0
   19.5546   28.9306   22.5856 H   0  0  0  0  0  0  0  0  0  0  0  0
   21.4094   30.0010   25.1640 H   0  0  0  0  0  0  0  0  0  0  0  0
   21.3133   29.0499   23.6432 H   0  0  0  0  0  0  0  0  0  0  0  0
   22.0946   30.6674   23.6432 H   0  0  0  0  0  0  0  0  0  0  0  0
   20.2015   34.1759   19.6790 H   0  0  0  0  0  0  0  0  0  0  0  0
  1  2  1  0
  2  3  2  0
  3  4  1  0
  4  5  2  0
  5  6  1  0
  6  7  1  0
  7  8  2  0
  8  9  1  0
  9 10  2  0
 10 11  1  0
 11 12  1  0
 12 13  1  0
 13 14  1  0
 14 15  1  0
 15 16  1  0
 16 17  1  0
 17 18  1  0
 10 19  1  0
 19 20  2  0
  5 21  1  0
 21 22  2  0
 22 23  1  0
 23 24  1  0
 24 25  2  0
 25 26  1  0
 26 27  2  0
 27 28  1  0
 28 29  1  0
 29 30  2  0
 29 31  2  0
 29 32  1  0
 32 33  1  0
 33 34  1  0
 33 35  1  0
 33 36  1  0
 28 37  2  0
 22  2  1  0
 37 24  1  0
 20  7  1  0
 18 14  1  0
  1 38  1  0
  1 39  1  0
  1 40  1  0
  3 41  1  0
  6 42  1  0
  8 43  1  0
  9 44  1  0
 12 45  1  0
 12 46  1  0
 13 47  1  0
 13 48  1  0
 14 49  1  0
 15 50  1  0
 15 51  1  0
 16 52  1  0
 16 53  1  0
 17 54  1  0
 17 55  1  0
 18 56  1  0
 18 57  1  0
 19 58  1  0
 20 59  1  0
 23 60  1  0
 25 61  1  0
 26 62  1  0
 27 63  1  0
 32 64  1  0
 34 65  1  0
 34 66  1  0
 34 67  1  0
 35 68  1  0
 35 69  1  0
 35 70  1  0
 36 71  1  0
 36 72  1  0
 36 73  1  0
 37 74  1  0
M  CHG  1  14   1
M  END
>  <meeko>  (7) 
{"is_sidechain": [false], "free_energy": -7.128, "intermolecular_energy": -12.853, "internal_energy": -1.269}

$$$$
4ogj_ligand
     RDKit          3D

 74 77  0  0  0  0  0  0  0  0999 V2000
   17.9970   31.4370   21.0020 C   0  0  0  0  0  0  0  0  0  0  0  0
   18.8440   32.6110   20.6300 C   0  0  0  0  0  0  0  0  0  0  0  0
   19.0070   32.9790   19.3130 C   0  0  0  0  0  0  0  0  0  0  0  0
   19.7460   34.0270   18.9140 N   0  0  0  0  0  0  0  0  0  0  0  0
   20.3480   34.7450   19.8700 C   0  0  0  0  0  0  0  0  0  0  0  0
   21.0780   35.8350   19.4040 N   0  0  0  0  0  0  0  0  0  0  0  0
   20.9620   37.2190   19.5520 C   0  0  0  0  0  0  0  0  0  0  0  0
   19.6980   37.7620   19.8210 C   0  0  0  0  0  0  0  0  0  0  0  0
   19.5240   39.1360   20.0180 C   0  0  0  0  0  0  0  0  0  0  0  0
   20.6140   40.0030   19.9630 C   0  0  0  0  0  0  0  0  0  0  0  0
   20.3150   41.3160   20.1880 O   0  0  0  0  0  0  0  0  0  0  0  0
   18.9620   41.6250   20.5150 C   0  0  0  0  0  0  0  0  0  0  0  0
   18.9250   42.5940   21.7070 C   0  0  0  0  0  0  0  0  0  0  0  0
   20.0230   43.6370   21.7340 N   0  0  0  0  0  0  0  0  0  0  0  0
   20.9690   43.6170   22.9140 C   0  0  0  0  0  0  0  0  0  0  0  0
   21.4770   45.0420   22.9780 C   0  0  0  0  0  0  0  0  0  0  0  0
   20.2330   45.8500   22.6670 C   0  0  0  0  0  0  0  0  0  0  0  0
   19.5710   45.0780   21.5390 C   0  0  0  0  0  0  0  0  0  0  0  0
   21.8760   39.4820   19.6910 C   0  0  0  0  0  0  0  0  0  0  0  0
   22.0420   38.1030   19.4920 C   0  0  0  0  0  0  0  0  0  0  0  0
   20.2480   34.4630   21.1740 N   0  0  0  0  0  0  0  0  0  0  0  0
   19.5120   33.4010   21.5570 C   0  0  0  0  0  0  0  0  0  0  0  0
   19.3970   33.0800   22.9330 N   0  0  0  0  0  0  0  0  0  0  0  0
   18.9150   33.8830   23.9880 C   0  0  0  0  0  0  0  0  0  0  0  0
   18.5160   33.3520   25.2220 C   0  0  0  0  0  0  0  0  0  0  0  0
   18.1020   34.1780   26.2730 C   0  0  0  0  0  0  0  0  0  0  0  0
   18.0930   35.5590   26.1090 C   0  0  0  0  0  0  0  0  0  0  0  0
   18.5030   36.1020   24.8900 C   0  0  0  0  0  0  0  0  0  0  0  0
   18.5460   37.8630   24.6960 S   0  0  0  0  0  0  0  0  0  0  0  0
   18.4440   38.1310   23.2770 O   0  0  0  0  0  0  0  0  0  0  0  0
   17.6270   38.4570   25.6380 O   0  0  0  0  0  0  0  0  0  0  0  0
   20.1090   38.2700   25.1120 N   0  0  0  0  0  0  0  0  0  0  0  0
   21.2270   38.6290   24.2210 C   0  0  0  0  0  0  0  0  0  0  0  0
   21.5160   37.5840   23.1450 C   0  0  0  0  0  0  0  0  0  0  0  0
   20.9410   39.9920   23.5800 C   0  0  0  0  0  0  0  0  0  0  0  0
   22.4740   38.7590   25.1150 C   0  0  0  0  0  0  0  0  0  0  0  0
   18.9380   35.2760   23.8470 C   0  0  0  0  0  0  0  0  0  0  0  0
   17.9402   31.3583   22.0977 H   0  0  0  0  0  0  0  0  0  0  0  0
   16.9853   31.5698   20.5910 H   0  0  0  0  0  0  0  0  0  0  0  0
   18.4421   30.5188   20.5910 H   0  0  0  0  0  0  0  0  0  0  0  0
   18.5018   32.3788   18.5419 H   0  0  0  0  0  0  0  0  0  0  0  0
   21.8780   35.4850   18.8940 H   0  0  0  0  0  0  0  0  0  0  0  0
   18.8256   37.0944   19.8783 H   0  0  0  0  0  0  0  0  0  0  0  0
   18.5188   39.5354   20.2179 H   0  0  0  0  0  0  0  0  0  0  0  0
   18.4742   42.0937   19.6476 H   0  0  0  0  0  0  0  0  0  0  0  0
   18.4314   40.6991   20.7819 H   0  0  0  0  0  0  0  0  0  0  0  0
   17.9589   43.1195   21.6866 H   0  0  0  0  0  0  0  0  0  0  0  0
   19.0744   41.9751   22.6040 H   0  0  0  0  0  0  0  0  0  0  0  0
   20.6060   43.4340   20.9110 H   0  0  0  0  0  0  0  0  0  0  0  0
   20.4393   43.3457   23.8391 H   0  0  0  0  0  0  0  0  0  0  0  0
   21.7757   42.8770   22.8062 H   0  0  0  0  0  0  0  0  0  0  0  0
   21.8656   45.2806   23.9790 H   0  0  0  0  0  0  0  0  0  0  0  0
   22.3115   45.2406   22.2894 H   0  0  0  0  0  0  0  0  0  0  0  0
   19.5721   45.9050   23.5446 H   0  0  0  0  0  0  0  0  0  0  0  0
   20.4597   46.8911   22.3936 H   0  0  0  0  0  0  0  0  0  0  0  0
   18.4758   45.1531   21.6090 H   0  0  0  0  0  0  0  0  0  0  0  0
   19.8494   45.4695   20.5495 H   0  0  0  0  0  0  0  0  0  0  0  0
   22.7454   40.1533   19.6319 H   0  0  0  0  0  0  0  0  0  0  0  0
   23.0474   37.7083   19.2836 H   0  0  0  0  0  0  0  0  0  0  0  0
   20.1820   32.5030   23.2160 H   0  0  0  0  0  0  0  0  0  0  0  0
   18.5285   32.2618   25.3677 H   0  0  0  0  0  0  0  0  0  0  0  0
   17.7839   33.7352   27.2284 H   0  0  0  0  0  0  0  0  0  0  0  0
   17.7669   36.2152   26.9294 H   0  0  0  0  0  0  0  0  0  0  0  0
   20.2730   38.2500   26.1180 H   0  0  0  0  0  0  0  0  0  0  0  0
   21.7801   36.6291   23.6228 H   0  0  0  0  0  0  0  0  0  0  0  0
   20.6224   37.4458   22.5187 H   0  0  0  0  0  0  0  0  0  0  0  0
   22.3537   37.9246   22.5187 H   0  0  0  0  0  0  0  0  0  0  0  0
   20.7836   40.7423   24.3688 H   0  0  0  0  0  0  0  0  0  0  0  0
   21.7961   40.2902   22.9556 H   0  0  0  0  0  0  0  0  0  0  0  0
   20.0381   39.9214   22.9556 H   0  0  0  0  0  0  0  0  0  0  0  0
   22.1721   38.7275   26.1723 H   0  0  0  0  0  0  0  0  0  0  0  0
   23.1635   37.9279   24.9057 H   0  0  0  0  0  0  0  0  0  0  0  0
   22.9772   39.7145   24.9057 H   0  0  0  0  0  0  0  0  0  0  0  0
   19.3004   35.7243   22.9101 H   0  0  0  0  0  0  0  0  0  0  0  0
  1  2  1  0
  2  3  2  0
  3  4  1  0
  4  5  2  0
  5  6  1  0
  6  7  1  0
  7  8  2  0
  8  9  1  0
  9 10  2  0
 10 11  1  0
 11 12  1  0
 12 13  1  0
 13 14  1  0
 14 15  1  0
 15 16  1  0
 16 17  1  0
 17 18  1  0
 10 19  1  0
 19 20  2  0
  5 21  1  0
 21 22  2  0
 22 23  1  0
 23 24  1  0
 24 25  2  0
 25 26  1  0
 26 27  2  0
 27 28  1  0
 28 29  1  0
 29 30  2  0
 29 31  2  0
 29 32  1  0
 32 33  1  0
 33 34  1  0
 33 35  1  0
 33 36  1  0
 28 37  2  0
 22  2  1  0
 37 24  1  0
 20  7  1  0
 18 14  1  0
  1 38  1  0
  1 39  1  0
  1 40  1  0
  3 41  1  0
  6 42  1  0
  8 43  1  0
  9 44  1  0
 12 45  1  0
 12 46  1  0
 13 47  1  0
 13 48  1  0
 14 49  1  0
 15 50  1  0
 15 51  1  0
 16 52  1  0
 16 53  1  0
 17 54  1  0
 17 55  1  0
 18 56  1  0
 18 57  1  0
 19 58  1  0
 20 59  1  0
 23 60  1  0
 25 61  1  0
 26 62  1  0
 27 63  1  0
 32 64  1  0
 34 65  1  0
 34 66  1  0
 34 67  1  0
 35 68  1  0
 35 69  1  0
 35 70  1  0
 36 71  1  0
 36 72  1  0
 36 73  1  0
 37 74  1  0
M  CHG  1  14   1
M  END
>  <meeko>  (8) 
{"is_sidechain": [false], "free_energy": -7.062, "intermolecular_energy": -12.048, "internal_energy": -1.965}

$$$$
4ogj_ligand
     RDKit          3D

 74 77  0  0  0  0  0  0  0  0999 V2000
   20.8970   44.0140   22.6720 C   0  0  0  0  0  0  0  0  0  0  0  0
   20.7980   42.6110   23.1770 C   0  0  0  0  0  0  0  0  0  0  0  0
   20.7460   42.3450   24.5270 C   0  0  0  0  0  0  0  0  0  0  0  0
   20.6460   41.1090   25.0440 N   0  0  0  0  0  0  0  0  0  0  0  0
   20.5920   40.0900   24.1770 C   0  0  0  0  0  0  0  0  0  0  0  0
   20.4620   38.8350   24.7640 N   0  0  0  0  0  0  0  0  0  0  0  0
   20.1270   37.5670   24.2850 C   0  0  0  0  0  0  0  0  0  0  0  0
   19.0320   36.9010   24.8530 C   0  0  0  0  0  0  0  0  0  0  0  0
   18.6240   35.6460   24.3900 C   0  0  0  0  0  0  0  0  0  0  0  0
   19.2930   35.0280   23.3350 C   0  0  0  0  0  0  0  0  0  0  0  0
   18.7870   33.8140   22.9670 O   0  0  0  0  0  0  0  0  0  0  0  0
   19.4250   33.1510   21.8790 C   0  0  0  0  0  0  0  0  0  0  0  0
   18.7770   31.7740   21.6590 C   0  0  0  0  0  0  0  0  0  0  0  0
   19.1190   30.7210   22.6920 N   0  0  0  0  0  0  0  0  0  0  0  0
   18.0460   30.3610   23.6960 C   0  0  0  0  0  0  0  0  0  0  0  0
   18.8350   29.8300   24.8740 C   0  0  0  0  0  0  0  0  0  0  0  0
   20.0230   30.7710   24.9260 C   0  0  0  0  0  0  0  0  0  0  0  0
   20.4080   30.9490   23.4680 C   0  0  0  0  0  0  0  0  0  0  0  0
   20.3870   35.6710   22.7630 C   0  0  0  0  0  0  0  0  0  0  0  0
   20.7920   36.9300   23.2350 C   0  0  0  0  0  0  0  0  0  0  0  0
   20.6370   40.2520   22.8490 N   0  0  0  0  0  0  0  0  0  0  0  0
   20.7480   41.4970   22.3480 C   0  0  0  0  0  0  0  0  0  0  0  0
   20.8040   41.6920   20.9440 N   0  0  0  0  0  0  0  0  0  0  0  0
   20.7510   40.7250   19.9180 C   0  0  0  0  0  0  0  0  0  0  0  0
   19.5780   40.0290   19.5930 C   0  0  0  0  0  0  0  0  0  0  0  0
   19.5390   39.1220   18.5280 C   0  0  0  0  0  0  0  0  0  0  0  0
   20.6770   38.9030   17.7590 C   0  0  0  0  0  0  0  0  0  0  0  0
   21.8480   39.6010   18.0620 C   0  0  0  0  0  0  0  0  0  0  0  0
   23.2820   39.3690   17.0490 S   0  0  0  0  0  0  0  0  0  0  0  0
   23.3270   40.4810   16.1240 O   0  0  0  0  0  0  0  0  0  0  0  0
   24.4070   39.0580   17.9000 O   0  0  0  0  0  0  0  0  0  0  0  0
   22.9020   38.0360   16.1210 N   0  0  0  0  0  0  0  0  0  0  0  0
   23.8090   37.0050   15.5880 C   0  0  0  0  0  0  0  0  0  0  0  0
   23.3260   36.3770   14.2820 C   0  0  0  0  0  0  0  0  0  0  0  0
   25.2060   37.6090   15.4060 C   0  0  0  0  0  0  0  0  0  0  0  0
   23.8870   35.8970   16.6550 C   0  0  0  0  0  0  0  0  0  0  0  0
   21.8790   40.5260   19.1130 C   0  0  0  0  0  0  0  0  0  0  0  0
   20.9460   44.7078   23.5242 H   0  0  0  0  0  0  0  0  0  0  0  0
   21.8049   44.1202   22.0601 H   0  0  0  0  0  0  0  0  0  0  0  0
   20.0130   44.2467   22.0601 H   0  0  0  0  0  0  0  0  0  0  0  0
   20.7889   43.1952   25.2237 H   0  0  0  0  0  0  0  0  0  0  0  0
   20.7240   38.9120   25.7380 H   0  0  0  0  0  0  0  0  0  0  0  0
   18.4826   37.3751   25.6796 H   0  0  0  0  0  0  0  0  0  0  0  0
   17.7678   35.1424   24.8625 H   0  0  0  0  0  0  0  0  0  0  0  0
   19.3156   33.7564   20.9671 H   0  0  0  0  0  0  0  0  0  0  0  0
   20.4925   33.0186   22.1088 H   0  0  0  0  0  0  0  0  0  0  0  0
   17.6853   31.9088   21.6609 H   0  0  0  0  0  0  0  0  0  0  0  0
   19.1757   31.4013   20.7039 H   0  0  0  0  0  0  0  0  0  0  0  0
   19.2890   29.8610   22.1520 H   0  0  0  0  0  0  0  0  0  0  0  0
   17.4602   31.2472   23.9814 H   0  0  0  0  0  0  0  0  0  0  0  0
   17.3164   29.6366   23.3050 H   0  0  0  0  0  0  0  0  0  0  0  0
   18.2465   29.8814   25.8019 H   0  0  0  0  0  0  0  0  0  0  0  0
   19.1183   28.7722   24.7703 H   0  0  0  0  0  0  0  0  0  0  0  0
   19.7409   31.7337   25.3772 H   0  0  0  0  0  0  0  0  0  0  0  0
   20.8484   30.3806   25.5394 H   0  0  0  0  0  0  0  0  0  0  0  0
   20.7922   31.9643   23.2904 H   0  0  0  0  0  0  0  0  0  0  0  0
   21.2039   30.2541   23.1621 H   0  0  0  0  0  0  0  0  0  0  0  0
   20.9358   35.1916   21.9390 H   0  0  0  0  0  0  0  0  0  0  0  0
   21.6542   37.4267   22.7662 H   0  0  0  0  0  0  0  0  0  0  0  0
   21.4460   42.4470   20.7290 H   0  0  0  0  0  0  0  0  0  0  0  0
   18.6687   40.1996   20.1881 H   0  0  0  0  0  0  0  0  0  0  0  0
   18.6083   38.5823   18.2991 H   0  0  0  0  0  0  0  0  0  0  0  0
   20.6550   38.1889   16.9226 H   0  0  0  0  0  0  0  0  0  0  0  0
   21.9060   37.9670   15.9120 H   0  0  0  0  0  0  0  0  0  0  0  0
   22.6695   35.5234   14.5064 H   0  0  0  0  0  0  0  0  0  0  0  0
   22.7684   37.1252   13.6996 H   0  0  0  0  0  0  0  0  0  0  0  0
   24.1923   36.0301   13.6996 H   0  0  0  0  0  0  0  0  0  0  0  0
   25.6532   37.8024   16.3922 H   0  0  0  0  0  0  0  0  0  0  0  0
   25.8401   36.9047   14.8476 H   0  0  0  0  0  0  0  0  0  0  0  0
   25.1272   38.5534   14.8476 H   0  0  0  0  0  0  0  0  0  0  0  0
   23.8551   36.3499   17.6569 H   0  0  0  0  0  0  0  0  0  0  0  0
   23.0349   35.2118   16.5351 H   0  0  0  0  0  0  0  0  0  0  0  0
   24.8267   35.3380   16.5351 H   0  0  0  0  0  0  0  0  0  0  0  0
   22.7966   41.1006   19.3075 H   0  0  0  0  0  0  0  0  0  0  0  0
  1  2  1  0
  2  3  2  0
  3  4  1  0
  4  5  2  0
  5  6  1  0
  6  7  1  0
  7  8  2  0
  8  9  1  0
  9 10  2  0
 10 11  1  0
 11 12  1  0
 12 13  1  0
 13 14  1  0
 14 15  1  0
 15 16  1  0
 16 17  1  0
 17 18  1  0
 10 19  1  0
 19 20  2  0
  5 21  1  0
 21 22  2  0
 22 23  1  0
 23 24  1  0
 24 25  2  0
 25 26  1  0
 26 27  2  0
 27 28  1  0
 28 29  1  0
 29 30  2  0
 29 31  2  0
 29 32  1  0
 32 33  1  0
 33 34  1  0
 33 35  1  0
 33 36  1  0
 28 37  2  0
 22  2  1  0
 37 24  1  0
 20  7  1  0
 18 14  1  0
  1 38  1  0
  1 39  1  0
  1 40  1  0
  3 41  1  0
  6 42  1  0
  8 43  1  0
  9 44  1  0
 12 45  1  0
 12 46  1  0
 13 47  1  0
 13 48  1  0
 14 49  1  0
 15 50  1  0
 15 51  1  0
 16 52  1  0
 16 53  1  0
 17 54  1  0
 17 55  1  0
 18 56  1  0
 18 57  1  0
 19 58  1  0
 20 59  1  0
 23 60  1  0
 25 61  1  0
 26 62  1  0
 27 63  1  0
 32 64  1  0
 34 65  1  0
 34 66  1  0
 34 67  1  0
 35 68  1  0
 35 69  1  0
 35 70  1  0
 36 71  1  0
 36 72  1  0
 36 73  1  0
 37 74  1  0
M  CHG  1  14   1
M  END
>  <meeko>  (9) 
{"is_sidechain": [false], "free_energy": -6.981, "intermolecular_energy": -12.97, "internal_energy": -0.91}

$$$$
