4k18_ligand
     RDKit          3D

 43 46  0  0  0  0  0  0  0  0999 V2000
  -15.3380  -34.3980    8.2070 N   0  0  0  0  0  0  0  0  0  0  0  0
  -15.6200  -33.9870    7.1600 C   0  0  0  0  0  0  0  0  0  0  0  0
  -15.9680  -33.4770    5.8660 C   0  0  0  0  0  0  0  0  0  0  0  0
  -15.1490  -33.7410    4.7640 C   0  0  0  0  0  0  0  0  0  0  0  0
  -15.4870  -33.2460    3.5020 C   0  0  0  0  0  0  0  0  0  0  0  0
  -16.6490  -32.4780    3.3290 C   0  0  0  0  0  0  0  0  0  0  0  0
  -17.0250  -31.9590    1.9570 C   0  0  0  0  0  0  0  0  0  0  0  0
  -17.3970  -33.0620    0.9840 C   0  0  0  0  0  0  0  0  0  0  0  0
  -16.7790  -33.1760   -0.2100 C   0  0  0  0  0  0  0  0  0  0  0  0
  -17.1630  -34.2640   -1.1540 C   0  0  0  0  0  0  0  0  0  0  0  0
  -16.6410  -34.4220   -2.2490 O   0  0  0  0  0  0  0  0  0  0  0  0
  -18.1810  -35.1050   -0.6740 N   0  0  0  0  0  0  0  0  0  0  0  0
  -18.6770  -36.1650   -1.3650 N   0  0  0  0  0  0  0  0  0  0  0  0
  -19.5980  -36.6760   -0.5420 C   0  0  0  0  0  0  0  0  0  0  0  0
  -19.7260  -35.9710    0.6820 C   0  0  0  0  0  0  0  0  0  0  0  0
  -20.5860  -36.1760    1.8420 C   0  0  0  0  0  0  0  0  0  0  0  0
  -20.7660  -35.2650    2.6440 O   0  0  0  0  0  0  0  0  0  0  0  0
  -21.1420  -37.4420    1.9280 N   0  0  0  0  0  0  0  0  0  0  0  0
  -22.0090  -37.9360    2.9270 C   0  0  0  0  0  0  0  0  0  0  0  0
  -21.8330  -37.7230    4.2980 C   0  0  0  0  0  0  0  0  0  0  0  0
  -22.7440  -38.2500    5.2200 C   0  0  0  0  0  0  0  0  0  0  0  0
  -23.8300  -38.9890    4.7710 C   0  0  0  0  0  0  0  0  0  0  0  0
  -24.7010  -39.4920    5.6550 F   0  0  0  0  0  0  0  0  0  0  0  0
  -24.0240  -39.2120    3.4150 C   0  0  0  0  0  0  0  0  0  0  0  0
  -23.1140  -38.6860    2.4950 C   0  0  0  0  0  0  0  0  0  0  0  0
  -18.7960  -34.9620    0.5540 C   0  0  0  0  0  0  0  0  0  0  0  0
  -18.4060  -33.9410    1.3530 N   0  0  0  0  0  0  0  0  0  0  0  0
  -17.4660  -32.2170    4.4380 C   0  0  0  0  0  0  0  0  0  0  0  0
  -17.1270  -32.7150    5.7000 C   0  0  0  0  0  0  0  0  0  0  0  0
  -14.2355  -34.3404    4.8911 H   0  0  0  0  0  0  0  0  0  0  0  0
  -14.8389  -33.4593    2.6392 H   0  0  0  0  0  0  0  0  0  0  0  0
  -17.8848  -31.2811    2.0628 H   0  0  0  0  0  0  0  0  0  0  0  0
  -16.1426  -31.4451    1.5480 H   0  0  0  0  0  0  0  0  0  0  0  0
  -15.9886  -32.4632   -0.4880 H   0  0  0  0  0  0  0  0  0  0  0  0
  -20.2010  -37.5616   -0.7911 H   0  0  0  0  0  0  0  0  0  0  0  0
  -20.9050  -38.1040    1.2040 H   0  0  0  0  0  0  0  0  0  0  0  0
  -20.9726  -37.1372    4.6539 H   0  0  0  0  0  0  0  0  0  0  0  0
  -22.6001  -38.0793    6.2971 H   0  0  0  0  0  0  0  0  0  0  0  0
  -24.8874  -39.7983    3.0675 H   0  0  0  0  0  0  0  0  0  0  0  0
  -23.2651  -38.8616    1.4197 H   0  0  0  0  0  0  0  0  0  0  0  0
  -18.8070  -33.8380    2.2900 H   0  0  0  0  0  0  0  0  0  0  0  0
  -18.3795  -31.6167    4.3147 H   0  0  0  0  0  0  0  0  0  0  0  0
  -17.7747  -32.5062    6.5642 H   0  0  0  0  0  0  0  0  0  0  0  0
  1  2  3  0
  2  3  1  0
  3  4  2  0
  4  5  1  0
  5  6  2  0
  6  7  1  0
  7  8  1  0
  8  9  2  0
  9 10  1  0
 10 11  2  0
 10 12  1  0
 12 13  1  0
 13 14  2  0
 14 15  1  0
 15 16  1  0
 16 17  2  0
 16 18  1  0
 18 19  1  0
 19 20  2  0
 20 21  1  0
 21 22  2  0
 22 23  1  0
 22 24  1  0
 24 25  2  0
 15 26  2  0
 26 27  1  0
  6 28  1  0
 28 29  2  0
 29  3  1  0
 27  8  1  0
 26 12  1  0
 25 19  1  0
  4 30  1  0
  5 31  1  0
  7 32  1  0
  7 33  1  0
  9 34  1  0
 14 35  1  0
 18 36  1  0
 20 37  1  0
 21 38  1  0
 24 39  1  0
 25 40  1  0
 27 41  1  0
 28 42  1  0
 29 43  1  0
M  END
>  <meeko>  (1) 
{"is_sidechain": [false], "free_energy": -11.118, "intermolecular_energy": -13.718, "internal_energy": -0.923}

$$$$
4k18_ligand
     RDKit          3D

 43 46  0  0  0  0  0  0  0  0999 V2000
  -15.3430  -34.5390    8.4120 N   0  0  0  0  0  0  0  0  0  0  0  0
  -15.5930  -34.1100    7.3630 C   0  0  0  0  0  0  0  0  0  0  0  0
  -15.9010  -33.5790    6.0680 C   0  0  0  0  0  0  0  0  0  0  0  0
  -15.0420  -33.8160    4.9900 C   0  0  0  0  0  0  0  0  0  0  0  0
  -15.3410  -33.2990    3.7270 C   0  0  0  0  0  0  0  0  0  0  0  0
  -16.5030  -32.5380    3.5270 C   0  0  0  0  0  0  0  0  0  0  0  0
  -16.8360  -31.9960    2.1540 C   0  0  0  0  0  0  0  0  0  0  0  0
  -17.2900  -33.0710    1.1840 C   0  0  0  0  0  0  0  0  0  0  0  0
  -16.7780  -33.1480   -0.0620 C   0  0  0  0  0  0  0  0  0  0  0  0
  -17.2410  -34.2080   -1.0010 C   0  0  0  0  0  0  0  0  0  0  0  0
  -16.8160  -34.3320   -2.1420 O   0  0  0  0  0  0  0  0  0  0  0  0
  -18.2130  -35.0660   -0.4610 N   0  0  0  0  0  0  0  0  0  0  0  0
  -18.7670  -36.1070   -1.1380 N   0  0  0  0  0  0  0  0  0  0  0  0
  -19.6140  -36.6440   -0.2540 C   0  0  0  0  0  0  0  0  0  0  0  0
  -19.6350  -35.9770    0.9970 C   0  0  0  0  0  0  0  0  0  0  0  0
  -20.3930  -36.2190    2.2190 C   0  0  0  0  0  0  0  0  0  0  0  0
  -20.8440  -35.2750    2.8610 O   0  0  0  0  0  0  0  0  0  0  0  0
  -20.5330  -37.5560    2.5530 N   0  0  0  0  0  0  0  0  0  0  0  0
  -21.2080  -38.1000    3.6680 C   0  0  0  0  0  0  0  0  0  0  0  0
  -22.5830  -38.3500    3.7110 C   0  0  0  0  0  0  0  0  0  0  0  0
  -23.1700  -38.8920    4.8600 C   0  0  0  0  0  0  0  0  0  0  0  0
  -22.3810  -39.1840    5.9640 C   0  0  0  0  0  0  0  0  0  0  0  0
  -22.9450  -39.7030    7.0620 F   0  0  0  0  0  0  0  0  0  0  0  0
  -21.0150  -38.9440    5.9440 C   0  0  0  0  0  0  0  0  0  0  0  0
  -20.4290  -38.4030    4.7960 C   0  0  0  0  0  0  0  0  0  0  0  0
  -18.7210  -34.9620    0.8190 C   0  0  0  0  0  0  0  0  0  0  0  0
  -18.2640  -33.9640    1.6120 N   0  0  0  0  0  0  0  0  0  0  0  0
  -17.3590  -32.3050    4.6120 C   0  0  0  0  0  0  0  0  0  0  0  0
  -17.0600  -32.8230    5.8760 C   0  0  0  0  0  0  0  0  0  0  0  0
  -14.1286  -34.4110    5.1370 H   0  0  0  0  0  0  0  0  0  0  0  0
  -14.6610  -33.4897    2.8837 H   0  0  0  0  0  0  0  0  0  0  0  0
  -17.6415  -31.2540    2.2564 H   0  0  0  0  0  0  0  0  0  0  0  0
  -15.9166  -31.5518    1.7447 H   0  0  0  0  0  0  0  0  0  0  0  0
  -16.0152  -32.4247   -0.3860 H   0  0  0  0  0  0  0  0  0  0  0  0
  -20.2373  -37.5226   -0.4767 H   0  0  0  0  0  0  0  0  0  0  0  0
  -20.1050  -38.2350    1.9420 H   0  0  0  0  0  0  0  0  0  0  0  0
  -23.2077  -38.1190    2.8356 H   0  0  0  0  0  0  0  0  0  0  0  0
  -24.2524  -39.0858    4.8881 H   0  0  0  0  0  0  0  0  0  0  0  0
  -20.3980  -39.1775    6.8242 H   0  0  0  0  0  0  0  0  0  0  0  0
  -19.3458  -38.2126    4.7762 H   0  0  0  0  0  0  0  0  0  0  0  0
  -18.5820  -33.8900    2.5820 H   0  0  0  0  0  0  0  0  0  0  0  0
  -18.2730  -31.7101    4.4682 H   0  0  0  0  0  0  0  0  0  0  0  0
  -17.7388  -32.6348    6.7209 H   0  0  0  0  0  0  0  0  0  0  0  0
  1  2  3  0
  2  3  1  0
  3  4  2  0
  4  5  1  0
  5  6  2  0
  6  7  1  0
  7  8  1  0
  8  9  2  0
  9 10  1  0
 10 11  2  0
 10 12  1  0
 12 13  1  0
 13 14  2  0
 14 15  1  0
 15 16  1  0
 16 17  2  0
 16 18  1  0
 18 19  1  0
 19 20  2  0
 20 21  1  0
 21 22  2  0
 22 23  1  0
 22 24  1  0
 24 25  2  0
 15 26  2  0
 26 27  1  0
  6 28  1  0
 28 29  2  0
 29  3  1  0
 27  8  1  0
 26 12  1  0
 25 19  1  0
  4 30  1  0
  5 31  1  0
  7 32  1  0
  7 33  1  0
  9 34  1  0
 14 35  1  0
 18 36  1  0
 20 37  1  0
 21 38  1  0
 24 39  1  0
 25 40  1  0
 27 41  1  0
 28 42  1  0
 29 43  1  0
M  END
>  <meeko>  (2) 
{"is_sidechain": [false], "free_energy": -10.913, "intermolecular_energy": -13.217, "internal_energy": -1.172}

$$$$
4k18_ligand
     RDKit          3D

 43 46  0  0  0  0  0  0  0  0999 V2000
  -22.6890  -39.8280    1.0630 N   0  0  0  0  0  0  0  0  0  0  0  0
  -22.0200  -38.9170    0.8040 C   0  0  0  0  0  0  0  0  0  0  0  0
  -21.1940  -37.7900    0.4820 C   0  0  0  0  0  0  0  0  0  0  0  0
  -21.3320  -36.5940    1.1920 C   0  0  0  0  0  0  0  0  0  0  0  0
  -20.5260  -35.4950    0.8800 C   0  0  0  0  0  0  0  0  0  0  0  0
  -19.5750  -35.5800   -0.1480 C   0  0  0  0  0  0  0  0  0  0  0  0
  -18.6900  -34.3960   -0.4710 C   0  0  0  0  0  0  0  0  0  0  0  0
  -18.0730  -33.7600    0.7610 C   0  0  0  0  0  0  0  0  0  0  0  0
  -17.1600  -32.7720    0.6530 C   0  0  0  0  0  0  0  0  0  0  0  0
  -16.5620  -32.1640    1.8750 C   0  0  0  0  0  0  0  0  0  0  0  0
  -15.7330  -31.2650    1.8450 O   0  0  0  0  0  0  0  0  0  0  0  0
  -17.0390  -32.7110    3.0780 N   0  0  0  0  0  0  0  0  0  0  0  0
  -16.6370  -32.3000    4.3100 N   0  0  0  0  0  0  0  0  0  0  0  0
  -17.3430  -33.0690    5.1460 C   0  0  0  0  0  0  0  0  0  0  0  0
  -18.2030  -33.9860    4.4910 C   0  0  0  0  0  0  0  0  0  0  0  0
  -19.1310  -34.9890    5.0010 C   0  0  0  0  0  0  0  0  0  0  0  0
  -20.0850  -34.6490    5.6940 O   0  0  0  0  0  0  0  0  0  0  0  0
  -18.8280  -36.2900    4.6360 N   0  0  0  0  0  0  0  0  0  0  0  0
  -19.5330  -37.4660    4.9720 C   0  0  0  0  0  0  0  0  0  0  0  0
  -20.4660  -38.0910    4.1380 C   0  0  0  0  0  0  0  0  0  0  0  0
  -21.1190  -39.2560    4.5530 C   0  0  0  0  0  0  0  0  0  0  0  0
  -20.8400  -39.7960    5.8010 C   0  0  0  0  0  0  0  0  0  0  0  0
  -21.4670  -40.9120    6.1950 F   0  0  0  0  0  0  0  0  0  0  0  0
  -19.9190  -39.1930    6.6450 C   0  0  0  0  0  0  0  0  0  0  0  0
  -19.2660  -38.0290    6.2300 C   0  0  0  0  0  0  0  0  0  0  0  0
  -17.9730  -33.7250    3.1570 C   0  0  0  0  0  0  0  0  0  0  0  0
  -18.4620  -34.2390    2.0050 N   0  0  0  0  0  0  0  0  0  0  0  0
  -19.4420  -36.7830   -0.8550 C   0  0  0  0  0  0  0  0  0  0  0  0
  -20.2480  -37.8820   -0.5410 C   0  0  0  0  0  0  0  0  0  0  0  0
  -22.0765  -36.5172    1.9981 H   0  0  0  0  0  0  0  0  0  0  0  0
  -20.6382  -34.5575    1.4443 H   0  0  0  0  0  0  0  0  0  0  0  0
  -17.8796  -34.7350   -1.1330 H   0  0  0  0  0  0  0  0  0  0  0  0
  -19.3228  -33.6349   -0.9509 H   0  0  0  0  0  0  0  0  0  0  0  0
  -16.8559  -32.4139   -0.3416 H   0  0  0  0  0  0  0  0  0  0  0  0
  -17.2637  -32.9966    6.2407 H   0  0  0  0  0  0  0  0  0  0  0  0
  -18.0070  -36.4340    4.0670 H   0  0  0  0  0  0  0  0  0  0  0  0
  -20.6876  -37.6633    3.1491 H   0  0  0  0  0  0  0  0  0  0  0  0
  -21.8515  -39.7430    3.8925 H   0  0  0  0  0  0  0  0  0  0  0  0
  -19.7044  -39.6273    7.6326 H   0  0  0  0  0  0  0  0  0  0  0  0
  -18.5346  -37.5486    6.8966 H   0  0  0  0  0  0  0  0  0  0  0  0
  -19.1920  -34.9560    2.0300 H   0  0  0  0  0  0  0  0  0  0  0  0
  -18.6989  -36.8632   -1.6620 H   0  0  0  0  0  0  0  0  0  0  0  0
  -20.1364  -38.8218   -1.1017 H   0  0  0  0  0  0  0  0  0  0  0  0
  1  2  3  0
  2  3  1  0
  3  4  2  0
  4  5  1  0
  5  6  2  0
  6  7  1  0
  7  8  1  0
  8  9  2  0
  9 10  1  0
 10 11  2  0
 10 12  1  0
 12 13  1  0
 13 14  2  0
 14 15  1  0
 15 16  1  0
 16 17  2  0
 16 18  1  0
 18 19  1  0
 19 20  2  0
 20 21  1  0
 21 22  2  0
 22 23  1  0
 22 24  1  0
 24 25  2  0
 15 26  2  0
 26 27  1  0
  6 28  1  0
 28 29  2  0
 29  3  1  0
 27  8  1  0
 26 12  1  0
 25 19  1  0
  4 30  1  0
  5 31  1  0
  7 32  1  0
  7 33  1  0
  9 34  1  0
 14 35  1  0
 18 36  1  0
 20 37  1  0
 21 38  1  0
 24 39  1  0
 25 40  1  0
 27 41  1  0
 28 42  1  0
 29 43  1  0
M  END
>  <meeko>  (3) 
{"is_sidechain": [false], "free_energy": -10.282, "intermolecular_energy": -13.043, "internal_energy": -0.567}

$$$$
4k18_ligand
     RDKit          3D

 43 46  0  0  0  0  0  0  0  0999 V2000
  -16.8650  -34.2150   -1.7160 N   0  0  0  0  0  0  0  0  0  0  0  0
  -17.7090  -34.8080   -1.1840 C   0  0  0  0  0  0  0  0  0  0  0  0
  -18.7490  -35.5420   -0.5260 C   0  0  0  0  0  0  0  0  0  0  0  0
  -19.4110  -34.9870    0.5740 C   0  0  0  0  0  0  0  0  0  0  0  0
  -20.4270  -35.7000    1.2160 C   0  0  0  0  0  0  0  0  0  0  0  0
  -20.7910  -36.9790    0.7670 C   0  0  0  0  0  0  0  0  0  0  0  0
  -21.9050  -37.7420    1.4500 C   0  0  0  0  0  0  0  0  0  0  0  0
  -21.7120  -37.8600    2.9510 C   0  0  0  0  0  0  0  0  0  0  0  0
  -22.5210  -38.6390    3.6980 C   0  0  0  0  0  0  0  0  0  0  0  0
  -22.3190  -38.7380    5.1720 C   0  0  0  0  0  0  0  0  0  0  0  0
  -23.0160  -39.4270    5.9040 O   0  0  0  0  0  0  0  0  0  0  0  0
  -21.2460  -37.9700    5.6540 N   0  0  0  0  0  0  0  0  0  0  0  0
  -20.8780  -37.9190    6.9610 N   0  0  0  0  0  0  0  0  0  0  0  0
  -19.8250  -37.0940    6.9620 C   0  0  0  0  0  0  0  0  0  0  0  0
  -19.4910  -36.5930    5.6780 C   0  0  0  0  0  0  0  0  0  0  0  0
  -18.4410  -35.6860    5.2270 C   0  0  0  0  0  0  0  0  0  0  0  0
  -17.2760  -35.8760    5.5650 O   0  0  0  0  0  0  0  0  0  0  0  0
  -18.8840  -34.6490    4.4240 N   0  0  0  0  0  0  0  0  0  0  0  0
  -18.1120  -33.6220    3.8390 C   0  0  0  0  0  0  0  0  0  0  0  0
  -18.1750  -32.2760    4.2160 C   0  0  0  0  0  0  0  0  0  0  0  0
  -17.3710  -31.3240    3.5810 C   0  0  0  0  0  0  0  0  0  0  0  0
  -16.5040  -31.7160    2.5700 C   0  0  0  0  0  0  0  0  0  0  0  0
  -15.7350  -30.8020    1.9650 F   0  0  0  0  0  0  0  0  0  0  0  0
  -16.4250  -33.0450    2.1800 C   0  0  0  0  0  0  0  0  0  0  0  0
  -17.2280  -33.9970    2.8140 C   0  0  0  0  0  0  0  0  0  0  0  0
  -20.4360  -37.1790    4.8640 C   0  0  0  0  0  0  0  0  0  0  0  0
  -20.6880  -37.1270    3.5350 N   0  0  0  0  0  0  0  0  0  0  0  0
  -20.1230  -37.5280   -0.3370 C   0  0  0  0  0  0  0  0  0  0  0  0
  -19.1080  -36.8130   -0.9790 C   0  0  0  0  0  0  0  0  0  0  0  0
  -19.1310  -33.9863    0.9348 H   0  0  0  0  0  0  0  0  0  0  0  0
  -20.9449  -35.2559    2.0789 H   0  0  0  0  0  0  0  0  0  0  0  0
  -22.8547  -37.2209    1.2589 H   0  0  0  0  0  0  0  0  0  0  0  0
  -21.9050  -38.7619    1.0379 H   0  0  0  0  0  0  0  0  0  0  0  0
  -23.3335  -39.2038    3.2176 H   0  0  0  0  0  0  0  0  0  0  0  0
  -19.2698  -36.8289    7.8739 H   0  0  0  0  0  0  0  0  0  0  0  0
  -19.8730  -34.6030    4.2280 H   0  0  0  0  0  0  0  0  0  0  0  0
  -18.8614  -31.9646    5.0171 H   0  0  0  0  0  0  0  0  0  0  0  0
  -17.4254  -30.2673    3.8818 H   0  0  0  0  0  0  0  0  0  0  0  0
  -15.7356  -33.3471    1.3779 H   0  0  0  0  0  0  0  0  0  0  0  0
  -17.1671  -35.0515    2.5069 H   0  0  0  0  0  0  0  0  0  0  0  0
  -20.0750  -36.5900    2.9150 H   0  0  0  0  0  0  0  0  0  0  0  0
  -20.3998  -38.5287   -0.7004 H   0  0  0  0  0  0  0  0  0  0  0  0
  -18.5903  -37.2531   -1.8440 H   0  0  0  0  0  0  0  0  0  0  0  0
  1  2  3  0
  2  3  1  0
  3  4  2  0
  4  5  1  0
  5  6  2  0
  6  7  1  0
  7  8  1  0
  8  9  2  0
  9 10  1  0
 10 11  2  0
 10 12  1  0
 12 13  1  0
 13 14  2  0
 14 15  1  0
 15 16  1  0
 16 17  2  0
 16 18  1  0
 18 19  1  0
 19 20  2  0
 20 21  1  0
 21 22  2  0
 22 23  1  0
 22 24  1  0
 24 25  2  0
 15 26  2  0
 26 27  1  0
  6 28  1  0
 28 29  2  0
 29  3  1  0
 27  8  1  0
 26 12  1  0
 25 19  1  0
  4 30  1  0
  5 31  1  0
  7 32  1  0
  7 33  1  0
  9 34  1  0
 14 35  1  0
 18 36  1  0
 20 37  1  0
 21 38  1  0
 24 39  1  0
 25 40  1  0
 27 41  1  0
 28 42  1  0
 29 43  1  0
M  END
>  <meeko>  (4) 
{"is_sidechain": [false], "free_energy": -9.91, "intermolecular_energy": -12.663, "internal_energy": -0.488}

$$$$
4k18_ligand
     RDKit          3D

 43 46  0  0  0  0  0  0  0  0999 V2000
  -21.5990  -37.3250    7.6120 N   0  0  0  0  0  0  0  0  0  0  0  0
  -21.2850  -37.1170    6.5140 C   0  0  0  0  0  0  0  0  0  0  0  0
  -20.8970  -36.8610    5.1580 C   0  0  0  0  0  0  0  0  0  0  0  0
  -21.6000  -35.9250    4.3930 C   0  0  0  0  0  0  0  0  0  0  0  0
  -21.2220  -35.6730    3.0710 C   0  0  0  0  0  0  0  0  0  0  0  0
  -20.1390  -36.3570    2.4990 C   0  0  0  0  0  0  0  0  0  0  0  0
  -19.7190  -36.0690    1.0740 C   0  0  0  0  0  0  0  0  0  0  0  0
  -18.7340  -34.9200    0.9640 C   0  0  0  0  0  0  0  0  0  0  0  0
  -18.2830  -34.5000   -0.2360 C   0  0  0  0  0  0  0  0  0  0  0  0
  -17.3130  -33.3720   -0.3220 C   0  0  0  0  0  0  0  0  0  0  0  0
  -16.8680  -32.9430   -1.3790 O   0  0  0  0  0  0  0  0  0  0  0  0
  -16.9510  -32.8330    0.9240 N   0  0  0  0  0  0  0  0  0  0  0  0
  -16.0870  -31.7940    1.0780 N   0  0  0  0  0  0  0  0  0  0  0  0
  -16.0470  -31.6110    2.4020 C   0  0  0  0  0  0  0  0  0  0  0  0
  -16.8660  -32.5110    3.1290 C   0  0  0  0  0  0  0  0  0  0  0  0
  -17.1190  -32.6650    4.5580 C   0  0  0  0  0  0  0  0  0  0  0  0
  -17.8830  -31.8960    5.1340 O   0  0  0  0  0  0  0  0  0  0  0  0
  -16.4370  -33.7130    5.1520 N   0  0  0  0  0  0  0  0  0  0  0  0
  -16.4770  -34.1100    6.5070 C   0  0  0  0  0  0  0  0  0  0  0  0
  -15.4910  -33.7990    7.4480 C   0  0  0  0  0  0  0  0  0  0  0  0
  -15.6130  -34.2330    8.7720 C   0  0  0  0  0  0  0  0  0  0  0  0
  -16.7200  -34.9770    9.1550 C   0  0  0  0  0  0  0  0  0  0  0  0
  -16.8350  -35.3910   10.4230 F   0  0  0  0  0  0  0  0  0  0  0  0
  -17.7110  -35.2970    8.2380 C   0  0  0  0  0  0  0  0  0  0  0  0
  -17.5890  -34.8630    6.9150 C   0  0  0  0  0  0  0  0  0  0  0  0
  -17.4270  -33.2860    2.1370 C   0  0  0  0  0  0  0  0  0  0  0  0
  -18.2960  -34.3240    2.1390 N   0  0  0  0  0  0  0  0  0  0  0  0
  -19.4390  -37.2940    3.2730 C   0  0  0  0  0  0  0  0  0  0  0  0
  -19.8170  -37.5440    4.5950 C   0  0  0  0  0  0  0  0  0  0  0  0
  -22.4522  -35.3859    4.8324 H   0  0  0  0  0  0  0  0  0  0  0  0
  -21.7774  -34.9336    2.4754 H   0  0  0  0  0  0  0  0  0  0  0  0
  -19.2503  -36.9729    0.6578 H   0  0  0  0  0  0  0  0  0  0  0  0
  -20.6230  -35.7802    0.5178 H   0  0  0  0  0  0  0  0  0  0  0  0
  -18.6329  -34.9924   -1.1553 H   0  0  0  0  0  0  0  0  0  0  0  0
  -15.4349  -30.8336    2.8827 H   0  0  0  0  0  0  0  0  0  0  0  0
  -15.8310  -34.2660    4.5640 H   0  0  0  0  0  0  0  0  0  0  0  0
  -14.6134  -33.2090    7.1451 H   0  0  0  0  0  0  0  0  0  0  0  0
  -14.8336  -33.9853    9.5076 H   0  0  0  0  0  0  0  0  0  0  0  0
  -18.5853  -35.8873    8.5497 H   0  0  0  0  0  0  0  0  0  0  0  0
  -18.3731  -35.1143    6.1856 H   0  0  0  0  0  0  0  0  0  0  0  0
  -18.7070  -34.6510    3.0190 H   0  0  0  0  0  0  0  0  0  0  0  0
  -18.5869  -37.8357    2.8366 H   0  0  0  0  0  0  0  0  0  0  0  0
  -19.2620  -38.2811    5.1939 H   0  0  0  0  0  0  0  0  0  0  0  0
  1  2  3  0
  2  3  1  0
  3  4  2  0
  4  5  1  0
  5  6  2  0
  6  7  1  0
  7  8  1  0
  8  9  2  0
  9 10  1  0
 10 11  2  0
 10 12  1  0
 12 13  1  0
 13 14  2  0
 14 15  1  0
 15 16  1  0
 16 17  2  0
 16 18  1  0
 18 19  1  0
 19 20  2  0
 20 21  1  0
 21 22  2  0
 22 23  1  0
 22 24  1  0
 24 25  2  0
 15 26  2  0
 26 27  1  0
  6 28  1  0
 28 29  2  0
 29  3  1  0
 27  8  1  0
 26 12  1  0
 25 19  1  0
  4 30  1  0
  5 31  1  0
  7 32  1  0
  7 33  1  0
  9 34  1  0
 14 35  1  0
 18 36  1  0
 20 37  1  0
 21 38  1  0
 24 39  1  0
 25 40  1  0
 27 41  1  0
 28 42  1  0
 29 43  1  0
M  END
>  <meeko>  (5) 
{"is_sidechain": [false], "free_energy": -9.774, "intermolecular_energy": -11.852, "internal_energy": -1.13}

$$$$
4k18_ligand
     RDKit          3D

 43 46  0  0  0  0  0  0  0  0999 V2000
  -17.1770  -29.7230    1.9530 N   0  0  0  0  0  0  0  0  0  0  0  0
  -17.1770  -30.6560    2.6430 C   0  0  0  0  0  0  0  0  0  0  0  0
  -17.1770  -31.8070    3.4970 C   0  0  0  0  0  0  0  0  0  0  0  0
  -18.2730  -32.0670    4.3250 C   0  0  0  0  0  0  0  0  0  0  0  0
  -18.2750  -33.1900    5.1570 C   0  0  0  0  0  0  0  0  0  0  0  0
  -17.1780  -34.0650    5.1720 C   0  0  0  0  0  0  0  0  0  0  0  0
  -17.1890  -35.2920    6.0580 C   0  0  0  0  0  0  0  0  0  0  0  0
  -18.2760  -36.2840    5.6870 C   0  0  0  0  0  0  0  0  0  0  0  0
  -18.7630  -37.1560    6.5950 C   0  0  0  0  0  0  0  0  0  0  0  0
  -19.8270  -38.1260    6.2090 C   0  0  0  0  0  0  0  0  0  0  0  0
  -20.3110  -38.9390    6.9840 O   0  0  0  0  0  0  0  0  0  0  0  0
  -20.2340  -38.0240    4.8680 N   0  0  0  0  0  0  0  0  0  0  0  0
  -21.1970  -38.8040    4.3080 N   0  0  0  0  0  0  0  0  0  0  0  0
  -21.2660  -38.3630    3.0470 C   0  0  0  0  0  0  0  0  0  0  0  0
  -20.3650  -37.3070    2.7600 C   0  0  0  0  0  0  0  0  0  0  0  0
  -20.1090  -36.5450    1.5430 C   0  0  0  0  0  0  0  0  0  0  0  0
  -20.9940  -36.4130    0.7020 O   0  0  0  0  0  0  0  0  0  0  0  0
  -18.8310  -36.0210    1.4510 N   0  0  0  0  0  0  0  0  0  0  0  0
  -18.2910  -35.2450    0.4020 C   0  0  0  0  0  0  0  0  0  0  0  0
  -18.1740  -35.6820   -0.9220 C   0  0  0  0  0  0  0  0  0  0  0  0
  -17.6270  -34.8450   -1.8990 C   0  0  0  0  0  0  0  0  0  0  0  0
  -17.1970  -33.5710   -1.5530 C   0  0  0  0  0  0  0  0  0  0  0  0
  -16.6730  -32.7700   -2.4910 F   0  0  0  0  0  0  0  0  0  0  0  0
  -17.3030  -33.1160   -0.2460 C   0  0  0  0  0  0  0  0  0  0  0  0
  -17.8500  -33.9530    0.7300 C   0  0  0  0  0  0  0  0  0  0  0  0
  -19.7140  -37.1230    3.9620 C   0  0  0  0  0  0  0  0  0  0  0  0
  -18.7400  -36.2820    4.3790 N   0  0  0  0  0  0  0  0  0  0  0  0
  -16.0820  -33.7980    4.3380 C   0  0  0  0  0  0  0  0  0  0  0  0
  -16.0820  -32.6750    3.5060 C   0  0  0  0  0  0  0  0  0  0  0  0
  -19.1365  -31.3856    4.3217 H   0  0  0  0  0  0  0  0  0  0  0  0
  -19.1419  -33.3892    5.8041 H   0  0  0  0  0  0  0  0  0  0  0  0
  -16.2136  -35.7935    5.9737 H   0  0  0  0  0  0  0  0  0  0  0  0
  -17.3904  -34.9534    7.0850 H   0  0  0  0  0  0  0  0  0  0  0  0
  -18.3733  -37.1508    7.6236 H   0  0  0  0  0  0  0  0  0  0  0  0
  -21.9582  -38.7813    2.3014 H   0  0  0  0  0  0  0  0  0  0  0  0
  -18.1950  -36.2110    2.2110 H   0  0  0  0  0  0  0  0  0  0  0  0
  -18.5148  -36.6913   -1.1961 H   0  0  0  0  0  0  0  0  0  0  0  0
  -17.5376  -35.1945   -2.9382 H   0  0  0  0  0  0  0  0  0  0  0  0
  -16.9594  -32.1053    0.0192 H   0  0  0  0  0  0  0  0  0  0  0  0
  -17.9361  -33.5958    1.7668 H   0  0  0  0  0  0  0  0  0  0  0  0
  -18.3690  -35.5670    3.7450 H   0  0  0  0  0  0  0  0  0  0  0  0
  -15.2167  -34.4772    4.3389 H   0  0  0  0  0  0  0  0  0  0  0  0
  -15.2174  -32.4738    2.8563 H   0  0  0  0  0  0  0  0  0  0  0  0
  1  2  3  0
  2  3  1  0
  3  4  2  0
  4  5  1  0
  5  6  2  0
  6  7  1  0
  7  8  1  0
  8  9  2  0
  9 10  1  0
 10 11  2  0
 10 12  1  0
 12 13  1  0
 13 14  2  0
 14 15  1  0
 15 16  1  0
 16 17  2  0
 16 18  1  0
 18 19  1  0
 19 20  2  0
 20 21  1  0
 21 22  2  0
 22 23  1  0
 22 24  1  0
 24 25  2  0
 15 26  2  0
 26 27  1  0
  6 28  1  0
 28 29  2  0
 29  3  1  0
 27  8  1  0
 26 12  1  0
 25 19  1  0
  4 30  1  0
  5 31  1  0
  7 32  1  0
  7 33  1  0
  9 34  1  0
 14 35  1  0
 18 36  1  0
 20 37  1  0
 21 38  1  0
 24 39  1  0
 25 40  1  0
 27 41  1  0
 28 42  1  0
 29 43  1  0
M  END
>  <meeko>  (6) 
{"is_sidechain": [false], "free_energy": -9.703, "intermolecular_energy": -11.916, "internal_energy": -0.979}

$$$$
4k18_ligand
     RDKit          3D

 43 46  0  0  0  0  0  0  0  0999 V2000
  -20.5820  -37.2410   -1.5470 N   0  0  0  0  0  0  0  0  0  0  0  0
  -19.9650  -36.5150   -0.8850 C   0  0  0  0  0  0  0  0  0  0  0  0
  -19.2030  -35.6170   -0.0680 C   0  0  0  0  0  0  0  0  0  0  0  0
  -19.6460  -35.2900    1.2170 C   0  0  0  0  0  0  0  0  0  0  0  0
  -18.9040  -34.4160    2.0160 C   0  0  0  0  0  0  0  0  0  0  0  0
  -17.7090  -33.8570    1.5360 C   0  0  0  0  0  0  0  0  0  0  0  0
  -16.8950  -32.9260    2.4090 C   0  0  0  0  0  0  0  0  0  0  0  0
  -16.5290  -33.5350    3.7500 C   0  0  0  0  0  0  0  0  0  0  0  0
  -15.3020  -33.3620    4.2830 C   0  0  0  0  0  0  0  0  0  0  0  0
  -14.9600  -33.9730    5.5980 C   0  0  0  0  0  0  0  0  0  0  0  0
  -13.8670  -33.8520    6.1350 O   0  0  0  0  0  0  0  0  0  0  0  0
  -16.0100  -34.7030    6.1790 N   0  0  0  0  0  0  0  0  0  0  0  0
  -15.9200  -35.3350    7.3800 N   0  0  0  0  0  0  0  0  0  0  0  0
  -17.1310  -35.8790    7.5420 C   0  0  0  0  0  0  0  0  0  0  0  0
  -18.0220  -35.6240    6.4690 C   0  0  0  0  0  0  0  0  0  0  0  0
  -19.4070  -36.0160    6.2350 C   0  0  0  0  0  0  0  0  0  0  0  0
  -20.3110  -35.5020    6.8870 O   0  0  0  0  0  0  0  0  0  0  0  0
  -19.5740  -36.9770    5.2520 N   0  0  0  0  0  0  0  0  0  0  0  0
  -20.7840  -37.5510    4.8050 C   0  0  0  0  0  0  0  0  0  0  0  0
  -21.9220  -37.7100    5.6020 C   0  0  0  0  0  0  0  0  0  0  0  0
  -23.0810  -38.2900    5.0750 C   0  0  0  0  0  0  0  0  0  0  0  0
  -23.1020  -38.7090    3.7520 C   0  0  0  0  0  0  0  0  0  0  0  0
  -24.2130  -39.2630    3.2500 F   0  0  0  0  0  0  0  0  0  0  0  0
  -21.9850  -38.5610    2.9430 C   0  0  0  0  0  0  0  0  0  0  0  0
  -20.8270  -37.9820    3.4690 C   0  0  0  0  0  0  0  0  0  0  0  0
  -17.2560  -34.8660    5.6080 C   0  0  0  0  0  0  0  0  0  0  0  0
  -17.4900  -34.2940    4.4040 N   0  0  0  0  0  0  0  0  0  0  0  0
  -17.2700  -34.1900    0.2470 C   0  0  0  0  0  0  0  0  0  0  0  0
  -18.0140  -35.0660   -0.5500 C   0  0  0  0  0  0  0  0  0  0  0  0
  -20.5820  -35.7222    1.6005 H   0  0  0  0  0  0  0  0  0  0  0  0
  -19.2582  -34.1646    3.0266 H   0  0  0  0  0  0  0  0  0  0  0  0
  -15.9675  -32.6686    1.8766 H   0  0  0  0  0  0  0  0  0  0  0  0
  -17.5145  -32.0394    2.6097 H   0  0  0  0  0  0  0  0  0  0  0  0
  -14.5502  -32.7668    3.7440 H   0  0  0  0  0  0  0  0  0  0  0  0
  -17.4102  -36.4701    8.4267 H   0  0  0  0  0  0  0  0  0  0  0  0
  -18.7430  -37.3240    4.7950 H   0  0  0  0  0  0  0  0  0  0  0  0
  -21.9058  -37.3768    6.6502 H   0  0  0  0  0  0  0  0  0  0  0  0
  -23.9727  -38.4135    5.7071 H   0  0  0  0  0  0  0  0  0  0  0  0
  -22.0105  -38.8967    1.8958 H   0  0  0  0  0  0  0  0  0  0  0  0
  -19.9397  -37.8625    2.8299 H   0  0  0  0  0  0  0  0  0  0  0  0
  -18.4200  -34.3530    3.9770 H   0  0  0  0  0  0  0  0  0  0  0  0
  -16.3346  -33.7597   -0.1400 H   0  0  0  0  0  0  0  0  0  0  0  0
  -17.6612  -35.3218   -1.5600 H   0  0  0  0  0  0  0  0  0  0  0  0
  1  2  3  0
  2  3  1  0
  3  4  2  0
  4  5  1  0
  5  6  2  0
  6  7  1  0
  7  8  1  0
  8  9  2  0
  9 10  1  0
 10 11  2  0
 10 12  1  0
 12 13  1  0
 13 14  2  0
 14 15  1  0
 15 16  1  0
 16 17  2  0
 16 18  1  0
 18 19  1  0
 19 20  2  0
 20 21  1  0
 21 22  2  0
 22 23  1  0
 22 24  1  0
 24 25  2  0
 15 26  2  0
 26 27  1  0
  6 28  1  0
 28 29  2  0
 29  3  1  0
 27  8  1  0
 26 12  1  0
 25 19  1  0
  4 30  1  0
  5 31  1  0
  7 32  1  0
  7 33  1  0
  9 34  1  0
 14 35  1  0
 18 36  1  0
 20 37  1  0
 21 38  1  0
 24 39  1  0
 25 40  1  0
 27 41  1  0
 28 42  1  0
 29 43  1  0
M  END
>  <meeko>  (7) 
{"is_sidechain": [false], "free_energy": -9.647, "intermolecular_energy": -12.511, "internal_energy": -0.316}

$$$$
4k18_ligand
     RDKit          3D

 43 46  0  0  0  0  0  0  0  0999 V2000
  -15.8510  -31.3390    1.7390 N   0  0  0  0  0  0  0  0  0  0  0  0
  -16.5220  -32.2040    1.3530 C   0  0  0  0  0  0  0  0  0  0  0  0
  -17.3510  -33.2710    0.8750 C   0  0  0  0  0  0  0  0  0  0  0  0
  -17.0470  -33.9090   -0.3320 C   0  0  0  0  0  0  0  0  0  0  0  0
  -17.8540  -34.9500   -0.7990 C   0  0  0  0  0  0  0  0  0  0  0  0
  -18.9760  -35.3630   -0.0650 C   0  0  0  0  0  0  0  0  0  0  0  0
  -19.8380  -36.5040   -0.5610 C   0  0  0  0  0  0  0  0  0  0  0  0
  -20.5470  -37.2450    0.5570 C   0  0  0  0  0  0  0  0  0  0  0  0
  -21.3790  -38.2750    0.2930 C   0  0  0  0  0  0  0  0  0  0  0  0
  -22.0700  -38.9860    1.4060 C   0  0  0  0  0  0  0  0  0  0  0  0
  -22.8330  -39.9270    1.2330 O   0  0  0  0  0  0  0  0  0  0  0  0
  -21.7650  -38.4850    2.6820 N   0  0  0  0  0  0  0  0  0  0  0  0
  -22.2750  -38.9900    3.8360 N   0  0  0  0  0  0  0  0  0  0  0  0
  -21.7170  -38.2330    4.7870 C   0  0  0  0  0  0  0  0  0  0  0  0
  -20.8470  -37.2320    4.2840 C   0  0  0  0  0  0  0  0  0  0  0  0
  -20.0460  -36.2100    4.9480 C   0  0  0  0  0  0  0  0  0  0  0  0
  -20.5950  -35.2770    5.5260 O   0  0  0  0  0  0  0  0  0  0  0  0
  -18.6780  -36.4030    4.8560 N   0  0  0  0  0  0  0  0  0  0  0  0
  -17.6550  -35.5910    5.3930 C   0  0  0  0  0  0  0  0  0  0  0  0
  -17.1930  -34.4110    4.8010 C   0  0  0  0  0  0  0  0  0  0  0  0
  -16.1740  -33.6670    5.4050 C   0  0  0  0  0  0  0  0  0  0  0  0
  -15.6180  -34.1020    6.6000 C   0  0  0  0  0  0  0  0  0  0  0  0
  -14.6430  -33.3870    7.1760 F   0  0  0  0  0  0  0  0  0  0  0  0
  -16.0610  -35.2690    7.2060 C   0  0  0  0  0  0  0  0  0  0  0  0
  -17.0790  -36.0120    6.6020 C   0  0  0  0  0  0  0  0  0  0  0  0
  -20.9110  -37.4270    2.9200 C   0  0  0  0  0  0  0  0  0  0  0  0
  -20.3300  -36.8190    1.8600 N   0  0  0  0  0  0  0  0  0  0  0  0
  -19.2750  -34.7190    1.1440 C   0  0  0  0  0  0  0  0  0  0  0  0
  -18.4660  -33.6780    1.6110 C   0  0  0  0  0  0  0  0  0  0  0  0
  -16.1704  -33.5905   -0.9152 H   0  0  0  0  0  0  0  0  0  0  0  0
  -17.6079  -35.4487   -1.7481 H   0  0  0  0  0  0  0  0  0  0  0  0
  -20.5958  -36.0975   -1.2470 H   0  0  0  0  0  0  0  0  0  0  0  0
  -19.1730  -37.2237   -1.0608 H   0  0  0  0  0  0  0  0  0  0  0  0
  -21.5475  -38.5906   -0.7472 H   0  0  0  0  0  0  0  0  0  0  0  0
  -21.9145  -38.3737    5.8599 H   0  0  0  0  0  0  0  0  0  0  0  0
  -18.3560  -37.2100    4.3430 H   0  0  0  0  0  0  0  0  0  0  0  0
  -17.6339  -34.0658    3.8542 H   0  0  0  0  0  0  0  0  0  0  0  0
  -15.8145  -32.7401    4.9343 H   0  0  0  0  0  0  0  0  0  0  0  0
  -15.6150  -35.6063    8.1533 H   0  0  0  0  0  0  0  0  0  0  0  0
  -17.4331  -36.9375    7.0795 H   0  0  0  0  0  0  0  0  0  0  0  0
  -19.6520  -36.0640    2.0060 H   0  0  0  0  0  0  0  0  0  0  0  0
  -20.1515  -35.0345    1.7290 H   0  0  0  0  0  0  0  0  0  0  0  0
  -18.7086  -33.1785    2.5605 H   0  0  0  0  0  0  0  0  0  0  0  0
  1  2  3  0
  2  3  1  0
  3  4  2  0
  4  5  1  0
  5  6  2  0
  6  7  1  0
  7  8  1  0
  8  9  2  0
  9 10  1  0
 10 11  2  0
 10 12  1  0
 12 13  1  0
 13 14  2  0
 14 15  1  0
 15 16  1  0
 16 17  2  0
 16 18  1  0
 18 19  1  0
 19 20  2  0
 20 21  1  0
 21 22  2  0
 22 23  1  0
 22 24  1  0
 24 25  2  0
 15 26  2  0
 26 27  1  0
  6 28  1  0
 28 29  2  0
 29  3  1  0
 27  8  1  0
 26 12  1  0
 25 19  1  0
  4 30  1  0
  5 31  1  0
  7 32  1  0
  7 33  1  0
  9 34  1  0
 14 35  1  0
 18 36  1  0
 20 37  1  0
 21 38  1  0
 24 39  1  0
 25 40  1  0
 27 41  1  0
 28 42  1  0
 29 43  1  0
M  END
>  <meeko>  (8) 
{"is_sidechain": [false], "free_energy": -9.606, "intermolecular_energy": -12.63, "internal_energy": -0.145}

$$$$
4k18_ligand
     RDKit          3D

 43 46  0  0  0  0  0  0  0  0999 V2000
  -16.4290  -32.5730    0.0970 N   0  0  0  0  0  0  0  0  0  0  0  0
  -16.4600  -32.6520    1.2540 C   0  0  0  0  0  0  0  0  0  0  0  0
  -16.4980  -32.7490    2.6840 C   0  0  0  0  0  0  0  0  0  0  0  0
  -17.4720  -32.0550    3.4080 C   0  0  0  0  0  0  0  0  0  0  0  0
  -17.5110  -32.1490    4.8020 C   0  0  0  0  0  0  0  0  0  0  0  0
  -16.5740  -32.9360    5.4870 C   0  0  0  0  0  0  0  0  0  0  0  0
  -16.6300  -33.0530    6.9950 C   0  0  0  0  0  0  0  0  0  0  0  0
  -17.6000  -34.1170    7.4750 C   0  0  0  0  0  0  0  0  0  0  0  0
  -17.5960  -34.5380    8.7560 C   0  0  0  0  0  0  0  0  0  0  0  0
  -18.5540  -35.5870    9.2060 C   0  0  0  0  0  0  0  0  0  0  0  0
  -18.6010  -36.0110   10.3530 O   0  0  0  0  0  0  0  0  0  0  0  0
  -19.4100  -36.0510    8.1940 N   0  0  0  0  0  0  0  0  0  0  0  0
  -20.3660  -36.9990    8.3850 N   0  0  0  0  0  0  0  0  0  0  0  0
  -20.9380  -37.1180    7.1820 C   0  0  0  0  0  0  0  0  0  0  0  0
  -20.3760  -36.2700    6.1950 C   0  0  0  0  0  0  0  0  0  0  0  0
  -20.6850  -36.0780    4.7820 C   0  0  0  0  0  0  0  0  0  0  0  0
  -21.6870  -35.4510    4.4510 O   0  0  0  0  0  0  0  0  0  0  0  0
  -19.7720  -36.6500    3.9120 N   0  0  0  0  0  0  0  0  0  0  0  0
  -19.8000  -36.6320    2.5000 C   0  0  0  0  0  0  0  0  0  0  0  0
  -20.5280  -37.5330    1.7150 C   0  0  0  0  0  0  0  0  0  0  0  0
  -20.4990  -37.4410    0.3200 C   0  0  0  0  0  0  0  0  0  0  0  0
  -19.7430  -36.4500   -0.2910 C   0  0  0  0  0  0  0  0  0  0  0  0
  -19.7170  -36.3640   -1.6270 F   0  0  0  0  0  0  0  0  0  0  0  0
  -19.0130  -35.5460    0.4680 C   0  0  0  0  0  0  0  0  0  0  0  0
  -19.0420  -35.6370    1.8620 C   0  0  0  0  0  0  0  0  0  0  0  0
  -19.3900  -35.6020    6.8890 C   0  0  0  0  0  0  0  0  0  0  0  0
  -18.4820  -34.6580    6.5480 N   0  0  0  0  0  0  0  0  0  0  0  0
  -15.6000  -33.6300    4.7540 C   0  0  0  0  0  0  0  0  0  0  0  0
  -15.5630  -33.5360    3.3600 C   0  0  0  0  0  0  0  0  0  0  0  0
  -18.2096  -31.4334    2.8792 H   0  0  0  0  0  0  0  0  0  0  0  0
  -18.2815  -31.6022    5.3653 H   0  0  0  0  0  0  0  0  0  0  0  0
  -15.6246  -33.3040    7.3640 H   0  0  0  0  0  0  0  0  0  0  0  0
  -16.9835  -32.0873    7.3856 H   0  0  0  0  0  0  0  0  0  0  0  0
  -16.8822  -34.1050    9.4722 H   0  0  0  0  0  0  0  0  0  0  0  0
  -21.7681  -37.8102    6.9774 H   0  0  0  0  0  0  0  0  0  0  0  0
  -18.9920  -37.1460    4.3160 H   0  0  0  0  0  0  0  0  0  0  0  0
  -21.1270  -38.3188    2.1984 H   0  0  0  0  0  0  0  0  0  0  0  0
  -21.0738  -38.1521   -0.2916 H   0  0  0  0  0  0  0  0  0  0  0  0
  -18.4162  -34.7639   -0.0241 H   0  0  0  0  0  0  0  0  0  0  0  0
  -18.4648  -34.9215    2.4661 H   0  0  0  0  0  0  0  0  0  0  0  0
  -18.4750  -34.2670    5.6020 H   0  0  0  0  0  0  0  0  0  0  0  0
  -14.8606  -34.2521    5.2796 H   0  0  0  0  0  0  0  0  0  0  0  0
  -14.7952  -34.0835    2.7936 H   0  0  0  0  0  0  0  0  0  0  0  0
  1  2  3  0
  2  3  1  0
  3  4  2  0
  4  5  1  0
  5  6  2  0
  6  7  1  0
  7  8  1  0
  8  9  2  0
  9 10  1  0
 10 11  2  0
 10 12  1  0
 12 13  1  0
 13 14  2  0
 14 15  1  0
 15 16  1  0
 16 17  2  0
 16 18  1  0
 18 19  1  0
 19 20  2  0
 20 21  1  0
 21 22  2  0
 22 23  1  0
 22 24  1  0
 24 25  2  0
 15 26  2  0
 26 27  1  0
  6 28  1  0
 28 29  2  0
 29  3  1  0
 27  8  1  0
 26 12  1  0
 25 19  1  0
  4 30  1  0
  5 31  1  0
  7 32  1  0
  7 33  1  0
  9 34  1  0
 14 35  1  0
 18 36  1  0
 20 37  1  0
 21 38  1  0
 24 39  1  0
 25 40  1  0
 27 41  1  0
 28 42  1  0
 29 43  1  0
M  END
>  <meeko>  (9) 
{"is_sidechain": [false], "free_energy": -9.53, "intermolecular_energy": -11.413, "internal_energy": -1.269}

$$$$
