1z95_ligand
     RDKit          3D

 43 44  0  0  0  0  0  0  0  0999 V2000
   29.4030   -1.0870    3.6190 C   0  0  0  0  0  0  0  0  0  0  0  0
   29.5630    0.2030    4.4360 C   0  0  2  0  0  0  0  0  0  0  0  0
   30.7720    0.8080    3.9520 O   0  0  0  0  0  0  0  0  0  0  0  0
   29.6620   -0.1500    5.9220 C   0  0  0  0  0  0  0  0  0  0  0  0
   30.9350    0.7960    6.7330 S   0  0  0  0  0  0  0  0  0  0  0  0
   30.8930    2.1730    6.2930 O   0  0  0  0  0  0  0  0  0  0  0  0
   32.1650    0.0270    6.6290 O   0  0  0  0  0  0  0  0  0  0  0  0
   30.4320    0.7790    8.4390 C   0  0  0  0  0  0  0  0  0  0  0  0
   31.1620    0.0360    9.3730 C   0  0  0  0  0  0  0  0  0  0  0  0
   30.7620    0.0390   10.7090 C   0  0  0  0  0  0  0  0  0  0  0  0
   29.6520    0.7870   11.0950 C   0  0  0  0  0  0  0  0  0  0  0  0
   29.2740    0.7870   12.3790 F   0  0  0  0  0  0  0  0  0  0  0  0
   28.9350    1.5400   10.1700 C   0  0  0  0  0  0  0  0  0  0  0  0
   29.3270    1.5430    8.8310 C   0  0  0  0  0  0  0  0  0  0  0  0
   28.3170    1.0710    4.1430 C   0  0  0  0  0  0  0  0  0  0  0  0
   27.4470    0.6930    3.3670 O   0  0  0  0  0  0  0  0  0  0  0  0
   28.3870    2.2970    4.7800 N   0  0  0  0  0  0  0  0  0  0  0  0
   27.4440    3.3380    4.7590 C   0  0  0  0  0  0  0  0  0  0  0  0
   27.9380    4.6440    4.6840 C   0  0  0  0  0  0  0  0  0  0  0  0
   27.0640    5.7340    4.6620 C   0  0  0  0  0  0  0  0  0  0  0  0
   25.6790    5.5360    4.7150 C   0  0  0  0  0  0  0  0  0  0  0  0
   24.8190    6.6870    4.6880 C   0  0  0  0  0  0  0  0  0  0  0  0
   24.1370    7.6240    4.6630 N   0  0  0  0  0  0  0  0  0  0  0  0
   25.1660    4.2300    4.7940 C   0  0  0  0  0  0  0  0  0  0  0  0
   23.6770    3.9870    4.8540 C   0  0  0  0  0  0  0  0  0  0  0  0
   23.3450    2.7140    4.5130 F   0  0  0  0  0  0  0  0  0  0  0  0
   23.1710    4.1940    6.1010 F   0  0  0  0  0  0  0  0  0  0  0  0
   22.9560    4.7930    4.0270 F   0  0  0  0  0  0  0  0  0  0  0  0
   26.0620    3.1400    4.8160 C   0  0  0  0  0  0  0  0  0  0  0  0
   29.2969   -1.9428    4.3019 H   0  0  0  0  0  0  0  0  0  0  0  0
   28.5074   -1.0107    2.9849 H   0  0  0  0  0  0  0  0  0  0  0  0
   30.2901   -1.2318    2.9849 H   0  0  0  0  0  0  0  0  0  0  0  0
   31.0530    1.5000    4.5930 H   0  0  0  0  0  0  0  0  0  0  0  0
   28.6966    0.0616    6.4049 H   0  0  0  0  0  0  0  0  0  0  0  0
   29.9166   -1.2167    6.0076 H   0  0  0  0  0  0  0  0  0  0  0  0
   32.0416   -0.5441    9.0571 H   0  0  0  0  0  0  0  0  0  0  0  0
   31.3203   -0.5464   11.4544 H   0  0  0  0  0  0  0  0  0  0  0  0
   28.0642    2.1295   10.4927 H   0  0  0  0  0  0  0  0  0  0  0  0
   28.7733    2.1397    8.0912 H   0  0  0  0  0  0  0  0  0  0  0  0
   29.2310    2.4390    5.3310 H   0  0  0  0  0  0  0  0  0  0  0  0
   29.0239    4.8147    4.6420 H   0  0  0  0  0  0  0  0  0  0  0  0
   27.4673    6.7557    4.6026 H   0  0  0  0  0  0  0  0  0  0  0  0
   25.6653    2.1160    4.8792 H   0  0  0  0  0  0  0  0  0  0  0  0
  1  2  1  0
  2  3  1  6
  2  4  1  0
  4  5  1  0
  5  6  2  0
  5  7  2  0
  5  8  1  0
  8  9  2  0
  9 10  1  0
 10 11  2  0
 11 12  1  0
 11 13  1  0
 13 14  2  0
  2 15  1  0
 15 16  2  0
 15 17  1  0
 17 18  1  0
 18 19  2  0
 19 20  1  0
 20 21  2  0
 21 22  1  0
 22 23  3  0
 21 24  1  0
 24 25  1  0
 25 26  1  0
 25 27  1  0
 25 28  1  0
 24 29  2  0
 14  8  1  0
 29 18  1  0
  1 30  1  0
  1 31  1  0
  1 32  1  0
  3 33  1  0
  4 34  1  0
  4 35  1  0
  9 36  1  0
 10 37  1  0
 13 38  1  0
 14 39  1  0
 17 40  1  0
 19 41  1  0
 20 42  1  0
 29 43  1  0
M  END
>  <meeko>  (1) 
{"is_sidechain": [false], "free_energy": -10.352, "intermolecular_energy": -14.286, "internal_energy": -0.938}

$$$$
1z95_ligand
     RDKit          3D

 43 44  0  0  0  0  0  0  0  0999 V2000
   29.7040   -1.1800    4.3460 C   0  0  0  0  0  0  0  0  0  0  0  0
   29.7690    0.1650    5.0830 C   0  0  2  0  0  0  0  0  0  0  0  0
   31.0850    0.6770    4.8150 O   0  0  0  0  0  0  0  0  0  0  0  0
   29.5470   -0.0670    6.5790 C   0  0  0  0  0  0  0  0  0  0  0  0
   30.6580    0.9180    7.5640 S   0  0  0  0  0  0  0  0  0  0  0  0
   30.5080    2.3190    7.2360 O   0  0  0  0  0  0  0  0  0  0  0  0
   31.9630    0.2810    7.4960 O   0  0  0  0  0  0  0  0  0  0  0  0
   30.0380    0.7020    9.2170 C   0  0  0  0  0  0  0  0  0  0  0  0
   30.5550   -0.3150   10.0270 C   0  0  0  0  0  0  0  0  0  0  0  0
   30.0670   -0.4670   11.3250 C   0  0  0  0  0  0  0  0  0  0  0  0
   29.0830    0.3980   11.7980 C   0  0  0  0  0  0  0  0  0  0  0  0
   28.6190    0.2470   13.0450 F   0  0  0  0  0  0  0  0  0  0  0  0
   28.5800    1.4200   10.9990 C   0  0  0  0  0  0  0  0  0  0  0  0
   29.0610    1.5800    9.7000 C   0  0  0  0  0  0  0  0  0  0  0  0
   28.6600    1.0570    4.4780 C   0  0  0  0  0  0  0  0  0  0  0  0
   28.0780    0.7370    3.4480 O   0  0  0  0  0  0  0  0  0  0  0  0
   28.5100    2.2360    5.1860 N   0  0  0  0  0  0  0  0  0  0  0  0
   27.6020    3.2810    4.9450 C   0  0  0  0  0  0  0  0  0  0  0  0
   28.1300    4.4890    4.4800 C   0  0  0  0  0  0  0  0  0  0  0  0
   27.2930    5.5770    4.2190 C   0  0  0  0  0  0  0  0  0  0  0  0
   25.9110    5.4740    4.4190 C   0  0  0  0  0  0  0  0  0  0  0  0
   25.0890    6.6180    4.1370 C   0  0  0  0  0  0  0  0  0  0  0  0
   24.4370    7.5480    3.9020 N   0  0  0  0  0  0  0  0  0  0  0  0
   25.3640    4.2670    4.8880 C   0  0  0  0  0  0  0  0  0  0  0  0
   23.8780    4.1290    5.1150 C   0  0  0  0  0  0  0  0  0  0  0  0
   23.2170    5.3050    4.9450 F   0  0  0  0  0  0  0  0  0  0  0  0
   23.3050    3.2410    4.2570 F   0  0  0  0  0  0  0  0  0  0  0  0
   23.5500    3.6970    6.3640 F   0  0  0  0  0  0  0  0  0  0  0  0
   26.2230    3.1790    5.1480 C   0  0  0  0  0  0  0  0  0  0  0  0
   29.6644   -1.9986    5.0797 H   0  0  0  0  0  0  0  0  0  0  0  0
   28.8034   -1.2092    3.7151 H   0  0  0  0  0  0  0  0  0  0  0  0
   30.5976   -1.2960    3.7151 H   0  0  0  0  0  0  0  0  0  0  0  0
   31.5310    0.8560    5.6740 H   0  0  0  0  0  0  0  0  0  0  0  0
   28.5108    0.2015    6.8325 H   0  0  0  0  0  0  0  0  0  0  0  0
   29.7409   -1.1277    6.7964 H   0  0  0  0  0  0  0  0  0  0  0  0
   31.3374   -0.9871    9.6446 H   0  0  0  0  0  0  0  0  0  0  0  0
   30.4575   -1.2663   11.9720 H   0  0  0  0  0  0  0  0  0  0  0  0
   27.8071    2.0981   11.3899 H   0  0  0  0  0  0  0  0  0  0  0  0
   28.6763    2.3885    9.0610 H   0  0  0  0  0  0  0  0  0  0  0  0
   29.1400    2.3360    5.9790 H   0  0  0  0  0  0  0  0  0  0  0  0
   29.2139    4.5839    4.3182 H   0  0  0  0  0  0  0  0  0  0  0  0
   27.7229    6.5213    3.8537 H   0  0  0  0  0  0  0  0  0  0  0  0
   25.8000    2.2331    5.5172 H   0  0  0  0  0  0  0  0  0  0  0  0
  1  2  1  0
  2  3  1  1
  2  4  1  0
  4  5  1  0
  5  6  2  0
  5  7  2  0
  5  8  1  0
  8  9  2  0
  9 10  1  0
 10 11  2  0
 11 12  1  0
 11 13  1  0
 13 14  2  0
  2 15  1  0
 15 16  2  0
 15 17  1  0
 17 18  1  0
 18 19  2  0
 19 20  1  0
 20 21  2  0
 21 22  1  0
 22 23  3  0
 21 24  1  0
 24 25  1  0
 25 26  1  0
 25 27  1  0
 25 28  1  0
 24 29  2  0
 14  8  1  0
 29 18  1  0
  1 30  1  0
  1 31  1  0
  1 32  1  0
  3 33  1  0
  4 34  1  0
  4 35  1  0
  9 36  1  0
 10 37  1  0
 13 38  1  0
 14 39  1  0
 17 40  1  0
 19 41  1  0
 20 42  1  0
 29 43  1  0
M  END
>  <meeko>  (2) 
{"is_sidechain": [false], "free_energy": -10.014, "intermolecular_energy": -14.337, "internal_energy": -0.42}

$$$$
1z95_ligand
     RDKit          3D

 43 44  0  0  0  0  0  0  0  0999 V2000
   29.9440   -1.1220    4.1470 C   0  0  0  0  0  0  0  0  0  0  0  0
   29.7240    0.1980    4.8970 C   0  0  2  0  0  0  0  0  0  0  0  0
   30.8530    1.0180    4.5550 O   0  0  0  0  0  0  0  0  0  0  0  0
   29.6610   -0.0790    6.4010 C   0  0  0  0  0  0  0  0  0  0  0  0
   30.6170    1.1080    7.3230 S   0  0  0  0  0  0  0  0  0  0  0  0
   30.1920    2.4520    7.0000 O   0  0  0  0  0  0  0  0  0  0  0  0
   32.0130    0.7240    7.1890 O   0  0  0  0  0  0  0  0  0  0  0  0
   30.1340    0.8010    9.0070 C   0  0  0  0  0  0  0  0  0  0  0  0
   30.8060   -0.1700    9.7590 C   0  0  0  0  0  0  0  0  0  0  0  0
   30.4230   -0.3940   11.0810 C   0  0  0  0  0  0  0  0  0  0  0  0
   29.3880    0.3550   11.6360 C   0  0  0  0  0  0  0  0  0  0  0  0
   29.0260    0.1360   12.9060 F   0  0  0  0  0  0  0  0  0  0  0  0
   28.7290    1.3320   10.8940 C   0  0  0  0  0  0  0  0  0  0  0  0
   29.1040    1.5630    9.5710 C   0  0  0  0  0  0  0  0  0  0  0  0
   28.3930    0.7890    4.3750 C   0  0  0  0  0  0  0  0  0  0  0  0
   27.9970    0.5560    3.2390 O   0  0  0  0  0  0  0  0  0  0  0  0
   27.8130    1.6390    5.3000 N   0  0  0  0  0  0  0  0  0  0  0  0
   26.6050    2.3460    5.1860 C   0  0  0  0  0  0  0  0  0  0  0  0
   25.4220    1.6050    5.2650 C   0  0  0  0  0  0  0  0  0  0  0  0
   24.1790    2.2350    5.1580 C   0  0  0  0  0  0  0  0  0  0  0  0
   24.0990    3.6200    4.9690 C   0  0  0  0  0  0  0  0  0  0  0  0
   22.8000    4.2250    4.8660 C   0  0  0  0  0  0  0  0  0  0  0  0
   21.7450    4.7000    4.7870 N   0  0  0  0  0  0  0  0  0  0  0  0
   25.2790    4.3800    4.8850 C   0  0  0  0  0  0  0  0  0  0  0  0
   25.2210    5.8750    4.6790 C   0  0  0  0  0  0  0  0  0  0  0  0
   24.6610    6.5210    5.7360 F   0  0  0  0  0  0  0  0  0  0  0  0
   26.4560    6.4200    4.5070 F   0  0  0  0  0  0  0  0  0  0  0  0
   24.4970    6.2520    3.5900 F   0  0  0  0  0  0  0  0  0  0  0  0
   26.5250    3.7280    4.9940 C   0  0  0  0  0  0  0  0  0  0  0  0
   30.0799   -1.9376    4.8724 H   0  0  0  0  0  0  0  0  0  0  0  0
   29.0690   -1.3351    3.5154 H   0  0  0  0  0  0  0  0  0  0  0  0
   30.8408   -1.0398    3.5154 H   0  0  0  0  0  0  0  0  0  0  0  0
   30.5200    1.8790    4.2120 H   0  0  0  0  0  0  0  0  0  0  0  0
   28.6128   -0.0274    6.7305 H   0  0  0  0  0  0  0  0  0  0  0  0
   30.0804   -1.0789    6.5860 H   0  0  0  0  0  0  0  0  0  0  0  0
   31.6270   -0.7498    9.3120 H   0  0  0  0  0  0  0  0  0  0  0  0
   30.9359   -1.1587   11.6828 H   0  0  0  0  0  0  0  0  0  0  0  0
   27.9171    1.9183   11.3491 H   0  0  0  0  0  0  0  0  0  0  0  0
   28.5955    2.3363    8.9764 H   0  0  0  0  0  0  0  0  0  0  0  0
   28.3400    1.7460    6.1630 H   0  0  0  0  0  0  0  0  0  0  0  0
   25.4700    0.5160    5.4127 H   0  0  0  0  0  0  0  0  0  0  0  0
   23.2570    1.6385    5.2227 H   0  0  0  0  0  0  0  0  0  0  0  0
   27.4508    4.3182    4.9266 H   0  0  0  0  0  0  0  0  0  0  0  0
  1  2  1  0
  2  3  1  1
  2  4  1  0
  4  5  1  0
  5  6  2  0
  5  7  2  0
  5  8  1  0
  8  9  2  0
  9 10  1  0
 10 11  2  0
 11 12  1  0
 11 13  1  0
 13 14  2  0
  2 15  1  0
 15 16  2  0
 15 17  1  0
 17 18  1  0
 18 19  2  0
 19 20  1  0
 20 21  2  0
 21 22  1  0
 22 23  3  0
 21 24  1  0
 24 25  1  0
 25 26  1  0
 25 27  1  0
 25 28  1  0
 24 29  2  0
 14  8  1  0
 29 18  1  0
  1 30  1  0
  1 31  1  0
  1 32  1  0
  3 33  1  0
  4 34  1  0
  4 35  1  0
  9 36  1  0
 10 37  1  0
 13 38  1  0
 14 39  1  0
 17 40  1  0
 19 41  1  0
 20 42  1  0
 29 43  1  0
M  END
>  <meeko>  (3) 
{"is_sidechain": [false], "free_energy": -9.231, "intermolecular_energy": -12.384, "internal_energy": -1.293}

$$$$
1z95_ligand
     RDKit          3D

 43 44  0  0  0  0  0  0  0  0999 V2000
   31.5360    1.6990    6.2440 C   0  0  0  0  0  0  0  0  0  0  0  0
   30.2630    1.0100    5.7360 C   0  0  2  0  0  0  0  0  0  0  0  0
   30.1930   -0.2310    6.4570 O   0  0  0  0  0  0  0  0  0  0  0  0
   30.3800    0.7820    4.2270 C   0  0  0  0  0  0  0  0  0  0  0  0
   29.4670   -0.6590    3.7130 S   0  0  0  0  0  0  0  0  0  0  0  0
   29.6160   -1.7200    4.6850 O   0  0  0  0  0  0  0  0  0  0  0  0
   29.7900   -0.8900    2.3150 O   0  0  0  0  0  0  0  0  0  0  0  0
   27.7740   -0.1180    3.7920 C   0  0  0  0  0  0  0  0  0  0  0  0
   27.2490    0.6780    2.7670 C   0  0  0  0  0  0  0  0  0  0  0  0
   25.9170    1.0870    2.8370 C   0  0  0  0  0  0  0  0  0  0  0  0
   25.1290    0.6920    3.9140 C   0  0  0  0  0  0  0  0  0  0  0  0
   23.8520    1.0880    3.9750 F   0  0  0  0  0  0  0  0  0  0  0  0
   25.6450   -0.1130    4.9260 C   0  0  0  0  0  0  0  0  0  0  0  0
   26.9760   -0.5270    4.8660 C   0  0  0  0  0  0  0  0  0  0  0  0
   29.0830    1.9500    6.0750 C   0  0  0  0  0  0  0  0  0  0  0  0
   28.5140    1.8900    7.1600 O   0  0  0  0  0  0  0  0  0  0  0  0
   28.7380    2.7470    4.9990 N   0  0  0  0  0  0  0  0  0  0  0  0
   27.7300    3.7240    4.9330 C   0  0  0  0  0  0  0  0  0  0  0  0
   28.1340    5.0420    4.7010 C   0  0  0  0  0  0  0  0  0  0  0  0
   27.1920    6.0710    4.6240 C   0  0  0  0  0  0  0  0  0  0  0  0
   25.8280    5.7980    4.7800 C   0  0  0  0  0  0  0  0  0  0  0  0
   24.8950    6.8880    4.6930 C   0  0  0  0  0  0  0  0  0  0  0  0
   24.1530    7.7760    4.6180 N   0  0  0  0  0  0  0  0  0  0  0  0
   25.4050    4.4790    5.0180 C   0  0  0  0  0  0  0  0  0  0  0  0
   23.9400    4.1570    5.1910 C   0  0  0  0  0  0  0  0  0  0  0  0
   23.3480    3.7890    4.0240 F   0  0  0  0  0  0  0  0  0  0  0  0
   23.7360    3.1330    6.0640 F   0  0  0  0  0  0  0  0  0  0  0  0
   23.2020    5.1980    5.6680 F   0  0  0  0  0  0  0  0  0  0  0  0
   26.3680    3.4520    5.0920 C   0  0  0  0  0  0  0  0  0  0  0  0
   31.5382    1.7002    7.3440 H   0  0  0  0  0  0  0  0  0  0  0  0
   32.4188    1.1555    5.8761 H   0  0  0  0  0  0  0  0  0  0  0  0
   31.5638    2.7353    5.8761 H   0  0  0  0  0  0  0  0  0  0  0  0
   29.7320   -0.8930    5.8930 H   0  0  0  0  0  0  0  0  0  0  0  0
   29.9840    1.6629    3.7004 H   0  0  0  0  0  0  0  0  0  0  0  0
   31.4408    0.6244    3.9825 H   0  0  0  0  0  0  0  0  0  0  0  0
   27.8792    0.9774    1.9166 H   0  0  0  0  0  0  0  0  0  0  0  0
   25.4912    1.7193    2.0440 H   0  0  0  0  0  0  0  0  0  0  0  0
   25.0072   -0.4207    5.7677 H   0  0  0  0  0  0  0  0  0  0  0  0
   27.3940   -1.1688    5.6555 H   0  0  0  0  0  0  0  0  0  0  0  0
   29.2990    2.5950    4.1630 H   0  0  0  0  0  0  0  0  0  0  0  0
   29.2028    5.2710    4.5780 H   0  0  0  0  0  0  0  0  0  0  0  0
   27.5247    7.1031    4.4395 H   0  0  0  0  0  0  0  0  0  0  0  0
   26.0418    2.4181    5.2782 H   0  0  0  0  0  0  0  0  0  0  0  0
  1  2  1  0
  2  3  1  1
  2  4  1  0
  4  5  1  0
  5  6  2  0
  5  7  2  0
  5  8  1  0
  8  9  2  0
  9 10  1  0
 10 11  2  0
 11 12  1  0
 11 13  1  0
 13 14  2  0
  2 15  1  0
 15 16  2  0
 15 17  1  0
 17 18  1  0
 18 19  2  0
 19 20  1  0
 20 21  2  0
 21 22  1  0
 22 23  3  0
 21 24  1  0
 24 25  1  0
 25 26  1  0
 25 27  1  0
 25 28  1  0
 24 29  2  0
 14  8  1  0
 29 18  1  0
  1 30  1  0
  1 31  1  0
  1 32  1  0
  3 33  1  0
  4 34  1  0
  4 35  1  0
  9 36  1  0
 10 37  1  0
 13 38  1  0
 14 39  1  0
 17 40  1  0
 19 41  1  0
 20 42  1  0
 29 43  1  0
M  END
>  <meeko>  (4) 
{"is_sidechain": [false], "free_energy": -8.372, "intermolecular_energy": -12.034, "internal_energy": -0.458}

$$$$
1z95_ligand
     RDKit          3D

 43 44  0  0  0  0  0  0  0  0999 V2000
   29.4980    0.0390    2.3750 C   0  0  0  0  0  0  0  0  0  0  0  0
   28.5250    0.0780    3.5600 C   0  0  2  0  0  0  0  0  0  0  0  0
   27.4960   -0.8700    3.2340 O   0  0  0  0  0  0  0  0  0  0  0  0
   27.9630    1.4950    3.7060 C   0  0  0  0  0  0  0  0  0  0  0  0
   26.1840    1.4840    3.8020 S   0  0  0  0  0  0  0  0  0  0  0  0
   25.7490    0.7090    4.9430 O   0  0  0  0  0  0  0  0  0  0  0  0
   25.6900    1.1750    2.4700 O   0  0  0  0  0  0  0  0  0  0  0  0
   25.7840    3.1820    4.1450 C   0  0  0  0  0  0  0  0  0  0  0  0
   26.7130    4.1890    3.8580 C   0  0  0  0  0  0  0  0  0  0  0  0
   26.3820    5.5180    4.1230 C   0  0  0  0  0  0  0  0  0  0  0  0
   25.1340    5.8240    4.6580 C   0  0  0  0  0  0  0  0  0  0  0  0
   24.8220    7.1020    4.9100 F   0  0  0  0  0  0  0  0  0  0  0  0
   24.2020    4.8260    4.9290 C   0  0  0  0  0  0  0  0  0  0  0  0
   24.5230    3.4940    4.6680 C   0  0  0  0  0  0  0  0  0  0  0  0
   29.3300   -0.3420    4.8120 C   0  0  0  0  0  0  0  0  0  0  0  0
   29.8370   -1.4550    4.8970 O   0  0  0  0  0  0  0  0  0  0  0  0
   29.3070    0.6380    5.7880 N   0  0  0  0  0  0  0  0  0  0  0  0
   29.9300    0.6200    7.0470 C   0  0  0  0  0  0  0  0  0  0  0  0
   31.3120    0.4120    7.0720 C   0  0  0  0  0  0  0  0  0  0  0  0
   32.0050    0.3780    8.2850 C   0  0  0  0  0  0  0  0  0  0  0  0
   31.3240    0.5500    9.4960 C   0  0  0  0  0  0  0  0  0  0  0  0
   32.0770    0.5080   10.7190 C   0  0  0  0  0  0  0  0  0  0  0  0
   32.6980    0.4750   11.6980 N   0  0  0  0  0  0  0  0  0  0  0  0
   29.9340    0.7570    9.4900 C   0  0  0  0  0  0  0  0  0  0  0  0
   29.1750    0.9440   10.7810 C   0  0  0  0  0  0  0  0  0  0  0  0
   28.0120    1.6270   10.6050 F   0  0  0  0  0  0  0  0  0  0  0  0
   28.8390   -0.2420   11.3590 F   0  0  0  0  0  0  0  0  0  0  0  0
   29.8670    1.6320   11.7300 F   0  0  0  0  0  0  0  0  0  0  0  0
   29.2500    0.7880    8.2560 C   0  0  0  0  0  0  0  0  0  0  0  0
   30.5312   -0.0024    2.7502 H   0  0  0  0  0  0  0  0  0  0  0  0
   29.2943   -0.8517    1.7625 H   0  0  0  0  0  0  0  0  0  0  0  0
   29.3663    0.9431    1.7625 H   0  0  0  0  0  0  0  0  0  0  0  0
   27.1350   -0.6450    2.3460 H   0  0  0  0  0  0  0  0  0  0  0  0
   28.3678    1.9475    4.6232 H   0  0  0  0  0  0  0  0  0  0  0  0
   28.2576    2.0766    2.8200 H   0  0  0  0  0  0  0  0  0  0  0  0
   27.6932    3.9352    3.4282 H   0  0  0  0  0  0  0  0  0  0  0  0
   27.1038    6.3203    3.9102 H   0  0  0  0  0  0  0  0  0  0  0  0
   23.2182    5.0864    5.3465 H   0  0  0  0  0  0  0  0  0  0  0  0
   23.7930    2.6966    4.8709 H   0  0  0  0  0  0  0  0  0  0  0  0
   28.7730    1.4680    5.5410 H   0  0  0  0  0  0  0  0  0  0  0  0
   31.8593    0.2738    6.1279 H   0  0  0  0  0  0  0  0  0  0  0  0
   33.0929    0.2150    8.2883 H   0  0  0  0  0  0  0  0  0  0  0  0
   28.1616    0.9473    8.2458 H   0  0  0  0  0  0  0  0  0  0  0  0
  1  2  1  0
  2  3  1  6
  2  4  1  0
  4  5  1  0
  5  6  2  0
  5  7  2  0
  5  8  1  0
  8  9  2  0
  9 10  1  0
 10 11  2  0
 11 12  1  0
 11 13  1  0
 13 14  2  0
  2 15  1  0
 15 16  2  0
 15 17  1  0
 17 18  1  0
 18 19  2  0
 19 20  1  0
 20 21  2  0
 21 22  1  0
 22 23  3  0
 21 24  1  0
 24 25  1  0
 25 26  1  0
 25 27  1  0
 25 28  1  0
 24 29  2  0
 14  8  1  0
 29 18  1  0
  1 30  1  0
  1 31  1  0
  1 32  1  0
  3 33  1  0
  4 34  1  0
  4 35  1  0
  9 36  1  0
 10 37  1  0
 13 38  1  0
 14 39  1  0
 17 40  1  0
 19 41  1  0
 20 42  1  0
 29 43  1  0
M  END
>  <meeko>  (5) 
{"is_sidechain": [false], "free_energy": -7.614, "intermolecular_energy": -10.617, "internal_energy": -0.829}

$$$$
