1gpk_ligand
     RDKit          3D

 37 39  0  0  0  0  0  0  0  0999 V2000
    4.7790   63.5970   63.6190 C   0  0  0  0  0  0  0  0  0  0  0  0
    3.7550   64.5670   64.1380 C   0  0  0  0  0  0  0  0  0  0  0  0
    3.6990   65.8980   63.9110 C   0  0  0  0  0  0  0  0  0  0  0  0
    4.7190   66.6750   63.0800 C   0  0  2  0  0  0  0  0  0  0  0  0
    5.2460   67.8680   63.8560 C   0  0  0  0  0  0  0  0  0  0  0  0
    4.6280   68.4130   64.9210 C   0  0  0  0  0  0  0  0  0  0  0  0
    5.2030   69.5750   65.6780 C   0  0  0  0  0  0  0  0  0  0  0  0
    3.2980   67.8760   65.4070 C   0  0  0  0  0  0  0  0  0  0  0  0
    2.6230   66.8800   64.4100 C   0  0  2  0  0  0  0  0  0  0  0  0
    1.5600   66.1430   65.1650 N   0  0  0  0  0  0  0  0  0  0  0  0
    2.0100   67.6390   63.2090 C   0  0  0  0  0  0  0  0  0  0  0  0
    0.7270   68.3280   63.3390 C   0  0  0  0  0  0  0  0  0  0  0  0
    0.1590   68.9500   62.2940 C   0  0  0  0  0  0  0  0  0  0  0  0
    0.8400   68.9630   60.9790 C   0  0  0  0  0  0  0  0  0  0  0  0
    0.3340   69.4990   60.0050 O   0  0  0  0  0  0  0  0  0  0  0  0
    2.0630   68.3440   60.9480 N   0  0  0  0  0  0  0  0  0  0  0  0
    2.6490   67.7040   62.0150 C   0  0  0  0  0  0  0  0  0  0  0  0
    4.0260   67.1170   61.7740 C   0  0  0  0  0  0  0  0  0  0  0  0
    5.2888   63.1141   64.4657 H   0  0  0  0  0  0  0  0  0  0  0  0
    4.2812   62.8315   63.0057 H   0  0  0  0  0  0  0  0  0  0  0  0
    5.5165   64.1355   63.0057 H   0  0  0  0  0  0  0  0  0  0  0  0
    2.9622   64.1463   64.7740 H   0  0  0  0  0  0  0  0  0  0  0  0
    5.5856   66.0397   62.8447 H   0  0  0  0  0  0  0  0  0  0  0  0
    6.1948   68.3168   63.5270 H   0  0  0  0  0  0  0  0  0  0  0  0
    5.1115   69.3901   66.7585 H   0  0  0  0  0  0  0  0  0  0  0  0
    6.2644   69.6948   65.4151 H   0  0  0  0  0  0  0  0  0  0  0  0
    4.6544   70.4915   65.4151 H   0  0  0  0  0  0  0  0  0  0  0  0
    3.4614   67.3549   66.3618 H   0  0  0  0  0  0  0  0  0  0  0  0
    2.6211   68.7369   65.5105 H   0  0  0  0  0  0  0  0  0  0  0  0
    1.6750   66.2850   66.1730 H   0  0  0  0  0  0  0  0  0  0  0  0
    1.6390   65.1380   64.9650 H   0  0  0  0  0  0  0  0  0  0  0  0
    0.6180   66.4490   64.9130 H   0  0  0  0  0  0  0  0  0  0  0  0
    0.2167   68.3368   64.3134 H   0  0  0  0  0  0  0  0  0  0  0  0
   -0.8131   69.4505   62.4144 H   0  0  0  0  0  0  0  0  0  0  0  0
    2.5320   68.3870   60.0480 H   0  0  0  0  0  0  0  0  0  0  0  0
    3.9257   66.2421   61.1148 H   0  0  0  0  0  0  0  0  0  0  0  0
    4.6470   67.9008   61.3158 H   0  0  0  0  0  0  0  0  0  0  0  0
  1  2  1  0
  2  3  2  0
  3  4  1  0
  4  5  1  0
  5  6  2  0
  6  7  1  0
  6  8  1  0
  8  9  1  0
  9 10  1  1
  9 11  1  0
 11 12  1  0
 12 13  2  0
 13 14  1  0
 14 15  2  0
 14 16  1  0
 16 17  1  0
 17 18  1  0
  9  3  1  0
 17 11  2  0
 18  4  1  0
  1 19  1  0
  1 20  1  0
  1 21  1  0
  2 22  1  0
  4 23  1  6
  5 24  1  0
  7 25  1  0
  7 26  1  0
  7 27  1  0
  8 28  1  0
  8 29  1  0
 10 30  1  0
 10 31  1  0
 10 32  1  0
 12 33  1  0
 13 34  1  0
 16 35  1  0
 18 36  1  0
 18 37  1  0
M  CHG  1  10   1
M  END
>  <meeko>  (1) 
{"is_sidechain": [false], "free_energy": -10.41, "intermolecular_energy": -10.714, "internal_energy": 0.0}

$$$$
1gpk_ligand
     RDKit          3D

 37 39  0  0  0  0  0  0  0  0999 V2000
    6.0520   69.8060   65.8810 C   0  0  0  0  0  0  0  0  0  0  0  0
    5.7250   69.3190   64.4980 C   0  0  0  0  0  0  0  0  0  0  0  0
    4.7830   68.4150   64.1490 C   0  0  0  0  0  0  0  0  0  0  0  0
    3.8740   67.6900   65.1400 C   0  0  2  0  0  0  0  0  0  0  0  0
    3.9280   66.1900   64.9180 C   0  0  0  0  0  0  0  0  0  0  0  0
    4.3590   65.6050   63.7840 C   0  0  0  0  0  0  0  0  0  0  0  0
    4.4230   64.1150   63.6200 C   0  0  0  0  0  0  0  0  0  0  0  0
    4.7950   66.4400   62.5970 C   0  0  0  0  0  0  0  0  0  0  0  0
    4.4230   67.9520   62.7250 C   0  0  2  0  0  0  0  0  0  0  0  0
    5.2400   68.7000   61.7160 N   0  0  0  0  0  0  0  0  0  0  0  0
    2.9130   68.1680   62.4700 C   0  0  0  0  0  0  0  0  0  0  0  0
    2.3810   68.1860   61.1080 C   0  0  0  0  0  0  0  0  0  0  0  0
    1.0820   68.4210   60.8680 C   0  0  0  0  0  0  0  0  0  0  0  0
    0.1490   68.6520   61.9950 C   0  0  0  0  0  0  0  0  0  0  0  0
   -1.0330   68.8920   61.8040 O   0  0  0  0  0  0  0  0  0  0  0  0
    0.7090   68.5660   63.2430 N   0  0  0  0  0  0  0  0  0  0  0  0
    2.0410   68.3270   63.4960 C   0  0  0  0  0  0  0  0  0  0  0  0
    2.4420   68.2340   64.9540 C   0  0  0  0  0  0  0  0  0  0  0  0
    5.5996   69.1322   66.6235 H   0  0  0  0  0  0  0  0  0  0  0  0
    7.1436   69.8205   66.0161 H   0  0  0  0  0  0  0  0  0  0  0  0
    5.6523   70.8219   66.0161 H   0  0  0  0  0  0  0  0  0  0  0  0
    6.3192   69.7464   63.6769 H   0  0  0  0  0  0  0  0  0  0  0  0
    4.2092   67.8720   66.1718 H   0  0  0  0  0  0  0  0  0  0  0  0
    3.5930   65.5371   65.7375 H   0  0  0  0  0  0  0  0  0  0  0  0
    4.4435   63.6376   64.6108 H   0  0  0  0  0  0  0  0  0  0  0  0
    3.5389   63.7689   63.0645 H   0  0  0  0  0  0  0  0  0  0  0  0
    5.3335   63.8460   63.0645 H   0  0  0  0  0  0  0  0  0  0  0  0
    5.8873   66.3580   62.4967 H   0  0  0  0  0  0  0  0  0  0  0  0
    4.2634   66.0506   61.7162 H   0  0  0  0  0  0  0  0  0  0  0  0
    5.2540   68.1960   60.8240 H   0  0  0  0  0  0  0  0  0  0  0  0
    6.2050   68.7860   62.0590 H   0  0  0  0  0  0  0  0  0  0  0  0
    4.8760   69.6390   61.5370 H   0  0  0  0  0  0  0  0  0  0  0  0
    3.0602   68.0030   60.2623 H   0  0  0  0  0  0  0  0  0  0  0  0
    0.7095   68.4421   59.8332 H   0  0  0  0  0  0  0  0  0  0  0  0
    0.0520   68.6960   64.0080 H   0  0  0  0  0  0  0  0  0  0  0  0
    2.3854   69.2379   65.4001 H   0  0  0  0  0  0  0  0  0  0  0  0
    1.7518   67.5330   65.4462 H   0  0  0  0  0  0  0  0  0  0  0  0
  1  2  1  0
  2  3  2  0
  3  4  1  0
  4  5  1  0
  5  6  2  0
  6  7  1  0
  6  8  1  0
  8  9  1  0
  9 10  1  6
  9 11  1  0
 11 12  1  0
 12 13  2  0
 13 14  1  0
 14 15  2  0
 14 16  1  0
 16 17  1  0
 17 18  1  0
  9  3  1  0
 17 11  2  0
 18  4  1  0
  1 19  1  0
  1 20  1  0
  1 21  1  0
  2 22  1  0
  4 23  1  1
  5 24  1  0
  7 25  1  0
  7 26  1  0
  7 27  1  0
  8 28  1  0
  8 29  1  0
 10 30  1  0
 10 31  1  0
 10 32  1  0
 12 33  1  0
 13 34  1  0
 16 35  1  0
 18 36  1  0
 18 37  1  0
M  CHG  1  10   1
M  END
>  <meeko>  (2) 
{"is_sidechain": [false], "free_energy": -10.368, "intermolecular_energy": -10.671, "internal_energy": 0.0}

$$$$
1gpk_ligand
     RDKit          3D

 37 39  0  0  0  0  0  0  0  0999 V2000
    0.3500   69.2950   62.0260 C   0  0  0  0  0  0  0  0  0  0  0  0
    1.6610   68.5820   61.8520 C   0  0  0  0  0  0  0  0  0  0  0  0
    2.4920   68.1470   62.8250 C   0  0  0  0  0  0  0  0  0  0  0  0
    2.2430   68.3360   64.3200 C   0  0  2  0  0  0  0  0  0  0  0  0
    3.4510   68.9640   64.9900 C   0  0  0  0  0  0  0  0  0  0  0  0
    4.6920   68.9700   64.4660 C   0  0  0  0  0  0  0  0  0  0  0  0
    5.8520   69.6310   65.1510 C   0  0  0  0  0  0  0  0  0  0  0  0
    4.9800   68.2900   63.1440 C   0  0  0  0  0  0  0  0  0  0  0  0
    3.8140   67.3790   62.6410 C   0  0  2  0  0  0  0  0  0  0  0  0
    4.0560   67.1050   61.1880 N   0  0  0  0  0  0  0  0  0  0  0  0
    3.7670   66.0570   63.4430 C   0  0  0  0  0  0  0  0  0  0  0  0
    4.7000   64.9710   63.1470 C   0  0  0  0  0  0  0  0  0  0  0  0
    4.6410   63.8010   63.8010 C   0  0  0  0  0  0  0  0  0  0  0  0
    3.6260   63.5930   64.8590 C   0  0  0  0  0  0  0  0  0  0  0  0
    3.5330   62.5300   65.4530 O   0  0  0  0  0  0  0  0  0  0  0  0
    2.8230   64.6740   65.1190 N   0  0  0  0  0  0  0  0  0  0  0  0
    2.8780   65.8750   64.4510 C   0  0  0  0  0  0  0  0  0  0  0  0
    1.9220   66.9520   64.9240 C   0  0  0  0  0  0  0  0  0  0  0  0
    0.1356   69.4116   63.0986 H   0  0  0  0  0  0  0  0  0  0  0  0
    0.4064   70.2867   61.5534 H   0  0  0  0  0  0  0  0  0  0  0  0
   -0.4518   68.7087   61.5534 H   0  0  0  0  0  0  0  0  0  0  0  0
    1.9803   68.3928   60.8165 H   0  0  0  0  0  0  0  0  0  0  0  0
    1.3967   69.0191   64.4845 H   0  0  0  0  0  0  0  0  0  0  0  0
    3.3037   69.4460   65.9677 H   0  0  0  0  0  0  0  0  0  0  0  0
    5.7241   69.5581   66.2411 H   0  0  0  0  0  0  0  0  0  0  0  0
    6.7858   69.1294   64.8570 H   0  0  0  0  0  0  0  0  0  0  0  0
    5.8965   70.6901   64.8570 H   0  0  0  0  0  0  0  0  0  0  0  0
    5.1660   69.0662   62.3871 H   0  0  0  0  0  0  0  0  0  0  0  0
    5.8531   67.6393   63.2998 H   0  0  0  0  0  0  0  0  0  0  0  0
    3.2960   67.4950   60.6210 H   0  0  0  0  0  0  0  0  0  0  0  0
    4.0900   66.0900   61.0370 H   0  0  0  0  0  0  0  0  0  0  0  0
    4.9330   67.5120   60.8550 H   0  0  0  0  0  0  0  0  0  0  0  0
    5.4666   65.1162   62.3716 H   0  0  0  0  0  0  0  0  0  0  0  0
    5.3472   62.9955   63.5511 H   0  0  0  0  0  0  0  0  0  0  0  0
    2.1520   64.5280   65.8680 H   0  0  0  0  0  0  0  0  0  0  0  0
    0.8998   66.6687   64.6327 H   0  0  0  0  0  0  0  0  0  0  0  0
    2.0243   67.0327   66.0163 H   0  0  0  0  0  0  0  0  0  0  0  0
  1  2  1  0
  2  3  2  0
  3  4  1  0
  4  5  1  0
  5  6  2  0
  6  7  1  0
  6  8  1  0
  8  9  1  0
  9 10  1  6
  9 11  1  0
 11 12  1  0
 12 13  2  0
 13 14  1  0
 14 15  2  0
 14 16  1  0
 16 17  1  0
 17 18  1  0
  9  3  1  0
 17 11  2  0
 18  4  1  0
  1 19  1  0
  1 20  1  0
  1 21  1  0
  2 22  1  0
  4 23  1  6
  5 24  1  0
  7 25  1  0
  7 26  1  0
  7 27  1  0
  8 28  1  0
  8 29  1  0
 10 30  1  0
 10 31  1  0
 10 32  1  0
 12 33  1  0
 13 34  1  0
 16 35  1  0
 18 36  1  0
 18 37  1  0
M  CHG  1  10   1
M  END
>  <meeko>  (3) 
{"is_sidechain": [false], "free_energy": -9.679, "intermolecular_energy": -9.962, "internal_energy": 0.0}

$$$$
1gpk_ligand
     RDKit          3D

 37 39  0  0  0  0  0  0  0  0999 V2000
    5.7890   70.0830   65.3080 C   0  0  0  0  0  0  0  0  0  0  0  0
    4.7280   69.0390   65.5180 C   0  0  0  0  0  0  0  0  0  0  0  0
    4.1630   68.2450   64.5820 C   0  0  0  0  0  0  0  0  0  0  0  0
    4.4990   68.2950   63.0920 C   0  0  2  0  0  0  0  0  0  0  0  0
    3.2360   68.4330   62.2620 C   0  0  0  0  0  0  0  0  0  0  0  0
    2.0000   68.1370   62.7060 C   0  0  0  0  0  0  0  0  0  0  0  0
    0.7740   68.3180   61.8590 C   0  0  0  0  0  0  0  0  0  0  0  0
    1.7870   67.5870   64.1010 C   0  0  0  0  0  0  0  0  0  0  0  0
    3.1080   67.1470   64.8100 C   0  0  2  0  0  0  0  0  0  0  0  0
    2.8090   67.0130   66.2710 N   0  0  0  0  0  0  0  0  0  0  0  0
    3.6170   65.8050   64.2330 C   0  0  0  0  0  0  0  0  0  0  0  0
    3.0120   64.5390   64.6450 C   0  0  0  0  0  0  0  0  0  0  0  0
    3.4740   63.3640   64.1920 C   0  0  0  0  0  0  0  0  0  0  0  0
    4.6080   63.3300   63.2400 C   0  0  0  0  0  0  0  0  0  0  0  0
    5.0650   62.2730   62.8300 O   0  0  0  0  0  0  0  0  0  0  0  0
    5.0870   64.5560   62.8570 N   0  0  0  0  0  0  0  0  0  0  0  0
    4.6190   65.7640   63.3210 C   0  0  0  0  0  0  0  0  0  0  0  0
    5.2660   67.0040   62.7370 C   0  0  0  0  0  0  0  0  0  0  0  0
    6.1511   70.4393   66.2837 H   0  0  0  0  0  0  0  0  0  0  0  0
    6.6261   69.6467   64.7433 H   0  0  0  0  0  0  0  0  0  0  0  0
    5.3662   70.9270   64.7433 H   0  0  0  0  0  0  0  0  0  0  0  0
    4.3713   68.9065   66.5501 H   0  0  0  0  0  0  0  0  0  0  0  0
    5.1243   69.1720   62.8689 H   0  0  0  0  0  0  0  0  0  0  0  0
    3.3371   68.7990   61.2296 H   0  0  0  0  0  0  0  0  0  0  0  0
   -0.1044   68.4477   62.5083 H   0  0  0  0  0  0  0  0  0  0  0  0
    0.8952   69.2080   61.2240 H   0  0  0  0  0  0  0  0  0  0  0  0
    0.6328   67.4310   61.2240 H   0  0  0  0  0  0  0  0  0  0  0  0
    1.3074   68.3658   64.7121 H   0  0  0  0  0  0  0  0  0  0  0  0
    1.1608   66.6882   64.0005 H   0  0  0  0  0  0  0  0  0  0  0  0
    2.0400   67.6370   66.5370 H   0  0  0  0  0  0  0  0  0  0  0  0
    3.6430   67.2710   66.8120 H   0  0  0  0  0  0  0  0  0  0  0  0
    2.5390   66.0610   66.5290 H   0  0  0  0  0  0  0  0  0  0  0  0
    2.1602   64.5505   65.3409 H   0  0  0  0  0  0  0  0  0  0  0  0
    3.0102   62.4248   64.5279 H   0  0  0  0  0  0  0  0  0  0  0  0
    5.8440   64.5190   62.1810 H   0  0  0  0  0  0  0  0  0  0  0  0
    6.2911   67.0841   63.1279 H   0  0  0  0  0  0  0  0  0  0  0  0
    5.2570   66.9009   61.6419 H   0  0  0  0  0  0  0  0  0  0  0  0
  1  2  1  0
  2  3  2  0
  3  4  1  0
  4  5  1  0
  5  6  2  0
  6  7  1  0
  6  8  1  0
  8  9  1  0
  9 10  1  1
  9 11  1  0
 11 12  1  0
 12 13  2  0
 13 14  1  0
 14 15  2  0
 14 16  1  0
 16 17  1  0
 17 18  1  0
  9  3  1  0
 17 11  2  0
 18  4  1  0
  1 19  1  0
  1 20  1  0
  1 21  1  0
  2 22  1  0
  4 23  1  1
  5 24  1  0
  7 25  1  0
  7 26  1  0
  7 27  1  0
  8 28  1  0
  8 29  1  0
 10 30  1  0
 10 31  1  0
 10 32  1  0
 12 33  1  0
 13 34  1  0
 16 35  1  0
 18 36  1  0
 18 37  1  0
M  CHG  1  10   1
M  END
>  <meeko>  (4) 
{"is_sidechain": [false], "free_energy": -9.546, "intermolecular_energy": -9.825, "internal_energy": 0.0}

$$$$
1gpk_ligand
     RDKit          3D

 37 39  0  0  0  0  0  0  0  0999 V2000
    2.1740   69.6490   67.6780 C   0  0  0  0  0  0  0  0  0  0  0  0
    3.1160   69.3270   66.5520 C   0  0  0  0  0  0  0  0  0  0  0  0
    2.9740   68.3630   65.6150 C   0  0  0  0  0  0  0  0  0  0  0  0
    1.8020   67.3840   65.5560 C   0  0  2  0  0  0  0  0  0  0  0  0
    2.3030   65.9530   65.4770 C   0  0  0  0  0  0  0  0  0  0  0  0
    3.5450   65.6040   65.0950 C   0  0  0  0  0  0  0  0  0  0  0  0
    4.0070   64.1760   65.0610 C   0  0  0  0  0  0  0  0  0  0  0  0
    4.5490   66.6530   64.6640 C   0  0  0  0  0  0  0  0  0  0  0  0
    3.9210   68.0660   64.4380 C   0  0  2  0  0  0  0  0  0  0  0  0
    5.0440   69.0560   64.4150 N   0  0  0  0  0  0  0  0  0  0  0  0
    3.1320   68.1070   63.1080 C   0  0  0  0  0  0  0  0  0  0  0  0
    3.8290   68.2490   61.8310 C   0  0  0  0  0  0  0  0  0  0  0  0
    3.1560   68.3360   60.6740 C   0  0  0  0  0  0  0  0  0  0  0  0
    1.6760   68.2710   60.6680 C   0  0  0  0  0  0  0  0  0  0  0  0
    1.0380   68.3720   59.6320 O   0  0  0  0  0  0  0  0  0  0  0  0
    1.0960   68.0830   61.8960 N   0  0  0  0  0  0  0  0  0  0  0  0
    1.7810   67.9950   63.0870 C   0  0  0  0  0  0  0  0  0  0  0  0
    0.9440   67.7470   64.3260 C   0  0  0  0  0  0  0  0  0  0  0  0
    2.6794   69.4762   68.6396 H   0  0  0  0  0  0  0  0  0  0  0  0
    1.8671   70.7031   67.6092 H   0  0  0  0  0  0  0  0  0  0  0  0
    1.2861   69.0033   67.6092 H   0  0  0  0  0  0  0  0  0  0  0  0
    4.0231   69.9454   66.4825 H   0  0  0  0  0  0  0  0  0  0  0  0
    1.1929   67.4591   66.4689 H   0  0  0  0  0  0  0  0  0  0  0  0
    1.6044   65.1484   65.7501 H   0  0  0  0  0  0  0  0  0  0  0  0
    4.1271   63.8049   66.0895 H   0  0  0  0  0  0  0  0  0  0  0  0
    3.2617   63.5619   64.5343 H   0  0  0  0  0  0  0  0  0  0  0  0
    4.9708   64.1149   64.5343 H   0  0  0  0  0  0  0  0  0  0  0  0
    5.3208   66.7363   65.4433 H   0  0  0  0  0  0  0  0  0  0  0  0
    4.9622   66.3259   63.6984 H   0  0  0  0  0  0  0  0  0  0  0  0
    5.7040   68.8310   63.6640 H   0  0  0  0  0  0  0  0  0  0  0  0
    5.5440   69.0210   65.3120 H   0  0  0  0  0  0  0  0  0  0  0  0
    4.7170   70.0140   64.2650 H   0  0  0  0  0  0  0  0  0  0  0  0
    4.9283   68.2853   61.8186 H   0  0  0  0  0  0  0  0  0  0  0  0
    3.7041   68.4558   59.7278 H   0  0  0  0  0  0  0  0  0  0  0  0
    0.0830   68.0090   61.8750 H   0  0  0  0  0  0  0  0  0  0  0  0
    0.3705   68.6580   64.5524 H   0  0  0  0  0  0  0  0  0  0  0  0
    0.2820   66.8938   64.1168 H   0  0  0  0  0  0  0  0  0  0  0  0
  1  2  1  0
  2  3  2  0
  3  4  1  0
  4  5  1  0
  5  6  2  0
  6  7  1  0
  6  8  1  0
  8  9  1  0
  9 10  1  6
  9 11  1  0
 11 12  1  0
 12 13  2  0
 13 14  1  0
 14 15  2  0
 14 16  1  0
 16 17  1  0
 17 18  1  0
  9  3  1  0
 17 11  2  0
 18  4  1  0
  1 19  1  0
  1 20  1  0
  1 21  1  0
  2 22  1  0
  4 23  1  1
  5 24  1  0
  7 25  1  0
  7 26  1  0
  7 27  1  0
  8 28  1  0
  8 29  1  0
 10 30  1  0
 10 31  1  0
 10 32  1  0
 12 33  1  0
 13 34  1  0
 16 35  1  0
 18 36  1  0
 18 37  1  0
M  CHG  1  10   1
M  END
>  <meeko>  (5) 
{"is_sidechain": [false], "free_energy": -9.324, "intermolecular_energy": -9.597, "internal_energy": 0.0}

$$$$
1gpk_ligand
     RDKit          3D

 37 39  0  0  0  0  0  0  0  0999 V2000
    2.7490   68.1920   59.5590 C   0  0  0  0  0  0  0  0  0  0  0  0
    2.4060   68.1680   61.0230 C   0  0  0  0  0  0  0  0  0  0  0  0
    3.1780   67.7190   62.0370 C   0  0  0  0  0  0  0  0  0  0  0  0
    4.5700   67.1150   61.8600 C   0  0  2  0  0  0  0  0  0  0  0  0
    4.6640   65.7700   62.5560 C   0  0  0  0  0  0  0  0  0  0  0  0
    3.8230   65.3570   63.5240 C   0  0  0  0  0  0  0  0  0  0  0  0
    3.9360   64.0030   64.1640 C   0  0  0  0  0  0  0  0  0  0  0  0
    2.7130   66.2560   64.0260 C   0  0  0  0  0  0  0  0  0  0  0  0
    2.8380   67.7360   63.5390 C   0  0  2  0  0  0  0  0  0  0  0  0
    1.5110   68.3930   63.7620 N   0  0  0  0  0  0  0  0  0  0  0  0
    3.9500   68.4770   64.3190 C   0  0  0  0  0  0  0  0  0  0  0  0
    3.7060   68.9770   65.6710 C   0  0  0  0  0  0  0  0  0  0  0  0
    4.6440   69.6630   66.3410 C   0  0  0  0  0  0  0  0  0  0  0  0
    5.9650   69.9160   65.7210 C   0  0  0  0  0  0  0  0  0  0  0  0
    6.8280   70.5590   66.2980 O   0  0  0  0  0  0  0  0  0  0  0  0
    6.1390   69.3700   64.4750 N   0  0  0  0  0  0  0  0  0  0  0  0
    5.1800   68.6660   63.7820 C   0  0  0  0  0  0  0  0  0  0  0  0
    5.5950   68.1170   62.4320 C   0  0  0  0  0  0  0  0  0  0  0  0
    3.8398   68.2683   59.4392 H   0  0  0  0  0  0  0  0  0  0  0  0
    2.3917   67.2667   59.0835 H   0  0  0  0  0  0  0  0  0  0  0  0
    2.2664   69.0586   59.0835 H   0  0  0  0  0  0  0  0  0  0  0  0
    1.4160   68.5598   61.2993 H   0  0  0  0  0  0  0  0  0  0  0  0
    4.7786   66.9367   60.7948 H   0  0  0  0  0  0  0  0  0  0  0  0
    5.4711   65.0880   62.2504 H   0  0  0  0  0  0  0  0  0  0  0  0
    3.9268   64.1128   65.2585 H   0  0  0  0  0  0  0  0  0  0  0  0
    3.0869   63.3775   63.8511 H   0  0  0  0  0  0  0  0  0  0  0  0
    4.8770   63.5269   63.8511 H   0  0  0  0  0  0  0  0  0  0  0  0
    1.7525   65.8534   63.6721 H   0  0  0  0  0  0  0  0  0  0  0  0
    2.7814   66.2707   65.1238 H   0  0  0  0  0  0  0  0  0  0  0  0
    0.8080   68.0040   63.1250 H   0  0  0  0  0  0  0  0  0  0  0  0
    1.5970   69.4000   63.5780 H   0  0  0  0  0  0  0  0  0  0  0  0
    1.1680   68.2670   64.7170 H   0  0  0  0  0  0  0  0  0  0  0  0
    2.7335   68.7868   66.1485 H   0  0  0  0  0  0  0  0  0  0  0  0
    4.4316   70.0384   67.3529 H   0  0  0  0  0  0  0  0  0  0  0  0
    7.0590   69.5240   64.0740 H   0  0  0  0  0  0  0  0  0  0  0  0
    5.6996   68.9553   61.7275 H   0  0  0  0  0  0  0  0  0  0  0  0
    6.5460   67.5810   62.5676 H   0  0  0  0  0  0  0  0  0  0  0  0
  1  2  1  0
  2  3  2  0
  3  4  1  0
  4  5  1  0
  5  6  2  0
  6  7  1  0
  6  8  1  0
  8  9  1  0
  9 10  1  6
  9 11  1  0
 11 12  1  0
 12 13  2  0
 13 14  1  0
 14 15  2  0
 14 16  1  0
 16 17  1  0
 17 18  1  0
  9  3  1  0
 17 11  2  0
 18  4  1  0
  1 19  1  0
  1 20  1  0
  1 21  1  0
  2 22  1  0
  4 23  1  6
  5 24  1  0
  7 25  1  0
  7 26  1  0
  7 27  1  0
  8 28  1  0
  8 29  1  0
 10 30  1  0
 10 31  1  0
 10 32  1  0
 12 33  1  0
 13 34  1  0
 16 35  1  0
 18 36  1  0
 18 37  1  0
M  CHG  1  10   1
M  END
>  <meeko>  (6) 
{"is_sidechain": [false], "free_energy": -8.751, "intermolecular_energy": -9.007, "internal_energy": 0.0}

$$$$
1gpk_ligand
     RDKit          3D

 37 39  0  0  0  0  0  0  0  0999 V2000
    3.9300   63.3190   64.0020 C   0  0  0  0  0  0  0  0  0  0  0  0
    4.4040   64.5410   63.2660 C   0  0  0  0  0  0  0  0  0  0  0  0
    3.9780   65.8130   63.4300 C   0  0  0  0  0  0  0  0  0  0  0  0
    2.8850   66.2370   64.4100 C   0  0  2  0  0  0  0  0  0  0  0  0
    1.8220   67.0590   63.7040 C   0  0  0  0  0  0  0  0  0  0  0  0
    2.0030   67.6800   62.5230 C   0  0  0  0  0  0  0  0  0  0  0  0
    0.9130   68.4580   61.8460 C   0  0  0  0  0  0  0  0  0  0  0  0
    3.3420   67.6290   61.8150 C   0  0  0  0  0  0  0  0  0  0  0  0
    4.4980   67.0670   62.7030 C   0  0  2  0  0  0  0  0  0  0  0  0
    5.6270   66.7030   61.7890 N   0  0  0  0  0  0  0  0  0  0  0  0
    4.9550   68.1210   63.7390 C   0  0  0  0  0  0  0  0  0  0  0  0
    5.8350   69.2200   63.3460 C   0  0  0  0  0  0  0  0  0  0  0  0
    6.2780   70.1150   64.2420 C   0  0  0  0  0  0  0  0  0  0  0  0
    5.8660   70.0110   65.6610 C   0  0  0  0  0  0  0  0  0  0  0  0
    6.2740   70.7960   66.5020 O   0  0  0  0  0  0  0  0  0  0  0  0
    4.9970   68.9880   65.9430 N   0  0  0  0  0  0  0  0  0  0  0  0
    4.5400   68.0670   65.0280 C   0  0  0  0  0  0  0  0  0  0  0  0
    3.5540   67.0400   65.5450 C   0  0  0  0  0  0  0  0  0  0  0  0
    3.9980   63.4943   65.0858 H   0  0  0  0  0  0  0  0  0  0  0  0
    2.8852   63.1090   63.7294 H   0  0  0  0  0  0  0  0  0  0  0  0
    4.5599   62.4594   63.7294 H   0  0  0  0  0  0  0  0  0  0  0  0
    5.1857   64.3819   62.5086 H   0  0  0  0  0  0  0  0  0  0  0  0
    2.3798   65.3536   64.8276 H   0  0  0  0  0  0  0  0  0  0  0  0
    0.8392   67.1536   64.1890 H   0  0  0  0  0  0  0  0  0  0  0  0
    0.2658   68.9199   62.6061 H   0  0  0  0  0  0  0  0  0  0  0  0
    1.3589   69.2432   61.2178 H   0  0  0  0  0  0  0  0  0  0  0  0
    0.3153   67.7812   61.2178 H   0  0  0  0  0  0  0  0  0  0  0  0
    3.2418   66.9871   60.9274 H   0  0  0  0  0  0  0  0  0  0  0  0
    3.6090   68.6639   61.5549 H   0  0  0  0  0  0  0  0  0  0  0  0
    5.2980   66.0800   61.0440 H   0  0  0  0  0  0  0  0  0  0  0  0
    6.3540   66.2150   62.3260 H   0  0  0  0  0  0  0  0  0  0  0  0
    6.0490   67.5220   61.3440 H   0  0  0  0  0  0  0  0  0  0  0  0
    6.1404   69.3153   62.2936 H   0  0  0  0  0  0  0  0  0  0  0  0
    6.9479   70.9269   63.9225 H   0  0  0  0  0  0  0  0  0  0  0  0
    4.6980   68.9480   66.9130 H   0  0  0  0  0  0  0  0  0  0  0  0
    4.0876   66.3401   66.2048 H   0  0  0  0  0  0  0  0  0  0  0  0
    2.7613   67.5802   66.0834 H   0  0  0  0  0  0  0  0  0  0  0  0
  1  2  1  0
  2  3  2  0
  3  4  1  0
  4  5  1  0
  5  6  2  0
  6  7  1  0
  6  8  1  0
  8  9  1  0
  9 10  1  6
  9 11  1  0
 11 12  1  0
 12 13  2  0
 13 14  1  0
 14 15  2  0
 14 16  1  0
 16 17  1  0
 17 18  1  0
  9  3  1  0
 17 11  2  0
 18  4  1  0
  1 19  1  0
  1 20  1  0
  1 21  1  0
  2 22  1  0
  4 23  1  1
  5 24  1  0
  7 25  1  0
  7 26  1  0
  7 27  1  0
  8 28  1  0
  8 29  1  0
 10 30  1  0
 10 31  1  0
 10 32  1  0
 12 33  1  0
 13 34  1  0
 16 35  1  0
 18 36  1  0
 18 37  1  0
M  CHG  1  10   1
M  END
>  <meeko>  (7) 
{"is_sidechain": [false], "free_energy": -8.334, "intermolecular_energy": -8.578, "internal_energy": 0.0}

$$$$
1gpk_ligand
     RDKit          3D

 37 39  0  0  0  0  0  0  0  0999 V2000
    3.6610   68.5670   60.6580 C   0  0  0  0  0  0  0  0  0  0  0  0
    2.6640   68.1030   61.6840 C   0  0  0  0  0  0  0  0  0  0  0  0
    2.9200   67.6740   62.9390 C   0  0  0  0  0  0  0  0  0  0  0  0
    4.3190   67.5580   63.5420 C   0  0  2  0  0  0  0  0  0  0  0  0
    4.5390   66.1740   64.1250 C   0  0  0  0  0  0  0  0  0  0  0  0
    3.5480   65.3210   64.4480 C   0  0  0  0  0  0  0  0  0  0  0  0
    3.8140   63.9480   64.9940 C   0  0  0  0  0  0  0  0  0  0  0  0
    2.0960   65.7180   64.2820 C   0  0  0  0  0  0  0  0  0  0  0  0
    1.8910   67.2410   64.0000 C   0  0  2  0  0  0  0  0  0  0  0  0
    0.5010   67.4150   63.4720 N   0  0  0  0  0  0  0  0  0  0  0  0
    2.0910   68.0690   65.2910 C   0  0  0  0  0  0  0  0  0  0  0  0
    1.0340   68.1470   66.2980 C   0  0  0  0  0  0  0  0  0  0  0  0
    1.1730   68.8990   67.4000 C   0  0  0  0  0  0  0  0  0  0  0  0
    2.4230   69.6610   67.6260 C   0  0  0  0  0  0  0  0  0  0  0  0
    2.5670   70.3730   68.6080 O   0  0  0  0  0  0  0  0  0  0  0  0
    3.3890   69.4950   66.6680 N   0  0  0  0  0  0  0  0  0  0  0  0
    3.2510   68.7260   65.5350 C   0  0  0  0  0  0  0  0  0  0  0  0
    4.4600   68.6510   64.6230 C   0  0  0  0  0  0  0  0  0  0  0  0
    4.5455   68.9786   61.1662 H   0  0  0  0  0  0  0  0  0  0  0  0
    3.9623   67.7166   60.0287 H   0  0  0  0  0  0  0  0  0  0  0  0
    3.2044   69.3451   60.0287 H   0  0  0  0  0  0  0  0  0  0  0  0
    1.6075   68.1142   61.3780 H   0  0  0  0  0  0  0  0  0  0  0  0
    5.0843   67.7021   62.7651 H   0  0  0  0  0  0  0  0  0  0  0  0
    5.5752   65.8463   64.2948 H   0  0  0  0  0  0  0  0  0  0  0  0
    3.8072   63.9830   66.0934 H   0  0  0  0  0  0  0  0  0  0  0  0
    3.0331   63.2567   64.6443 H   0  0  0  0  0  0  0  0  0  0  0  0
    4.7966   63.5984   64.6443 H   0  0  0  0  0  0  0  0  0  0  0  0
    1.6741   65.1489   63.4405 H   0  0  0  0  0  0  0  0  0  0  0  0
    1.5906   65.4958   65.2334 H   0  0  0  0  0  0  0  0  0  0  0  0
   -0.1230   67.7500   64.2130 H   0  0  0  0  0  0  0  0  0  0  0  0
    0.1510   66.5100   63.1340 H   0  0  0  0  0  0  0  0  0  0  0  0
    0.4560   68.0860   62.7010 H   0  0  0  0  0  0  0  0  0  0  0  0
    0.1051   67.5770   66.1488 H   0  0  0  0  0  0  0  0  0  0  0  0
    0.3578   68.9499   68.1368 H   0  0  0  0  0  0  0  0  0  0  0  0
    4.2520   69.9980   66.8500 H   0  0  0  0  0  0  0  0  0  0  0  0
    4.5878   69.6240   64.1261 H   0  0  0  0  0  0  0  0  0  0  0  0
    5.3314   68.3961   65.2440 H   0  0  0  0  0  0  0  0  0  0  0  0
  1  2  1  0
  2  3  2  0
  3  4  1  0
  4  5  1  0
  5  6  2  0
  6  7  1  0
  6  8  1  0
  8  9  1  0
  9 10  1  6
  9 11  1  0
 11 12  1  0
 12 13  2  0
 13 14  1  0
 14 15  2  0
 14 16  1  0
 16 17  1  0
 17 18  1  0
  9  3  1  0
 17 11  2  0
 18  4  1  0
  1 19  1  0
  1 20  1  0
  1 21  1  0
  2 22  1  0
  4 23  1  6
  5 24  1  0
  7 25  1  0
  7 26  1  0
  7 27  1  0
  8 28  1  0
  8 29  1  0
 10 30  1  0
 10 31  1  0
 10 32  1  0
 12 33  1  0
 13 34  1  0
 16 35  1  0
 18 36  1  0
 18 37  1  0
M  CHG  1  10   1
M  END
>  <meeko>  (8) 
{"is_sidechain": [false], "free_energy": -7.961, "intermolecular_energy": -8.193, "internal_energy": 0.0}

$$$$
