3ui7_ligand
     RDKit          3D

 47 50  0  0  0  0  0  0  0  0999 V2000
    3.4010   14.0700   39.9900 C   0  0  0  0  0  0  0  0  0  0  0  0
    4.4620   13.2970   40.5470 O   0  0  0  0  0  0  0  0  0  0  0  0
    4.5250   13.2290   41.9100 C   0  0  0  0  0  0  0  0  0  0  0  0
    3.9020   14.0790   42.8060 C   0  0  0  0  0  0  0  0  0  0  0  0
    4.0620   13.8900   44.1910 C   0  0  0  0  0  0  0  0  0  0  0  0
    3.3780   14.8550   45.1340 C   0  0  0  0  0  0  0  0  0  0  0  0
    4.8350   12.8420   44.7020 C   0  0  0  0  0  0  0  0  0  0  0  0
    4.9180   12.7620   46.0390 N   0  0  0  0  0  0  0  0  0  0  0  0
    5.6940   11.7710   46.5110 C   0  0  0  0  0  0  0  0  0  0  0  0
    5.9420   11.5150   47.7900 N   0  0  0  0  0  0  0  0  0  0  0  0
    6.7780   10.4740   47.7590 N   0  0  0  0  0  0  0  0  0  0  0  0
    7.0550   10.0030   46.4920 C   0  0  0  0  0  0  0  0  0  0  0  0
    7.9970    8.8690   46.3310 C   0  0  0  0  0  0  0  0  0  0  0  0
    6.3390   10.8340   45.6480 C   0  0  0  0  0  0  0  0  0  0  0  0
    6.2500   10.8100   44.2450 C   0  0  0  0  0  0  0  0  0  0  0  0
    6.7940    9.7590   43.3280 C   0  0  0  0  0  0  0  0  0  0  0  0
    7.9940   10.2280   42.5210 N   0  0  0  0  0  0  0  0  0  0  0  0
    9.2950   10.2050   43.3210 C   0  0  0  0  0  0  0  0  0  0  0  0
   10.1320    8.9820   42.9420 C   0  0  0  0  0  0  0  0  0  0  0  0
   10.5050    8.9660   41.5590 O   0  0  0  0  0  0  0  0  0  0  0  0
    9.5740    9.6050   40.6780 C   0  0  0  0  0  0  0  0  0  0  0  0
    8.1300    9.5080   41.1750 C   0  0  0  0  0  0  0  0  0  0  0  0
    5.4720   11.9290   43.7790 C   0  0  0  0  0  0  0  0  0  0  0  0
    5.3010   12.1780   42.3990 C   0  0  0  0  0  0  0  0  0  0  0  0
    2.8008   14.5073   40.8015 H   0  0  0  0  0  0  0  0  0  0  0  0
    3.8208   14.8754   39.3694 H   0  0  0  0  0  0  0  0  0  0  0  0
    2.7630   13.4236   39.3694 H   0  0  0  0  0  0  0  0  0  0  0  0
    3.2791   14.9059   42.4342 H   0  0  0  0  0  0  0  0  0  0  0  0
    3.5861   14.5615   46.1735 H   0  0  0  0  0  0  0  0  0  0  0  0
    3.7580   15.8720   44.9571 H   0  0  0  0  0  0  0  0  0  0  0  0
    2.2925   14.8333   44.9571 H   0  0  0  0  0  0  0  0  0  0  0  0
    7.1330   10.1300   48.6470 H   0  0  0  0  0  0  0  0  0  0  0  0
    8.3019    8.5020   47.3222 H   0  0  0  0  0  0  0  0  0  0  0  0
    7.5031    8.0580   45.7757 H   0  0  0  0  0  0  0  0  0  0  0  0
    8.8848    9.2058   45.7757 H   0  0  0  0  0  0  0  0  0  0  0  0
    7.0971    8.8913   43.9323 H   0  0  0  0  0  0  0  0  0  0  0  0
    5.9978    9.5075   42.6119 H   0  0  0  0  0  0  0  0  0  0  0  0
    7.8240   11.2150   42.2900 H   0  0  0  0  0  0  0  0  0  0  0  0
    9.8692   11.1182   43.1056 H   0  0  0  0  0  0  0  0  0  0  0  0
    9.0540   10.1544   44.3931 H   0  0  0  0  0  0  0  0  0  0  0  0
   11.0474    8.9810   43.5520 H   0  0  0  0  0  0  0  0  0  0  0  0
    9.5146    8.0906   43.1267 H   0  0  0  0  0  0  0  0  0  0  0  0
    9.8453   10.6673   40.5895 H   0  0  0  0  0  0  0  0  0  0  0  0
    9.6271    9.0899   39.7075 H   0  0  0  0  0  0  0  0  0  0  0  0
    7.4589    9.9772   40.4406 H   0  0  0  0  0  0  0  0  0  0  0  0
    7.8599    8.4491   41.3010 H   0  0  0  0  0  0  0  0  0  0  0  0
    5.8016   11.5142   41.6787 H   0  0  0  0  0  0  0  0  0  0  0  0
  1  2  1  0
  2  3  1  0
  3  4  1  0
  4  5  2  0
  5  6  1  0
  5  7  1  0
  7  8  2  0
  8  9  1  0
  9 10  2  0
 10 11  1  0
 11 12  1  0
 12 13  1  0
 12 14  2  0
 14 15  1  0
 15 16  1  0
 16 17  1  0
 17 18  1  0
 18 19  1  0
 19 20  1  0
 20 21  1  0
 21 22  1  0
 15 23  2  0
 23 24  1  0
 24  3  2  0
 23  7  1  0
 14  9  1  0
 22 17  1  0
  1 25  1  0
  1 26  1  0
  1 27  1  0
  4 28  1  0
  6 29  1  0
  6 30  1  0
  6 31  1  0
 11 32  1  0
 13 33  1  0
 13 34  1  0
 13 35  1  0
 16 36  1  0
 16 37  1  0
 17 38  1  0
 18 39  1  0
 18 40  1  0
 19 41  1  0
 19 42  1  0
 21 43  1  0
 21 44  1  0
 22 45  1  0
 22 46  1  0
 24 47  1  0
M  CHG  1  17   1
M  END
>  <meeko>  (1) 
{"is_sidechain": [false], "free_energy": -9.002, "intermolecular_energy": -10.581, "internal_energy": -0.434}

$$$$
3ui7_ligand
     RDKit          3D

 47 50  0  0  0  0  0  0  0  0999 V2000
    6.2410    9.9180   40.5700 C   0  0  0  0  0  0  0  0  0  0  0  0
    5.5600   10.9910   39.9230 O   0  0  0  0  0  0  0  0  0  0  0  0
    5.0490   11.9710   40.7280 C   0  0  0  0  0  0  0  0  0  0  0  0
    4.5080   13.1740   40.3150 C   0  0  0  0  0  0  0  0  0  0  0  0
    4.0220   14.0950   41.2620 C   0  0  0  0  0  0  0  0  0  0  0  0
    3.4560   15.4060   40.7670 C   0  0  0  0  0  0  0  0  0  0  0  0
    4.0560   13.8210   42.6340 C   0  0  0  0  0  0  0  0  0  0  0  0
    3.5680   14.7730   43.4420 N   0  0  0  0  0  0  0  0  0  0  0  0
    3.6430   14.5080   44.7570 C   0  0  0  0  0  0  0  0  0  0  0  0
    3.2460   15.3090   45.7390 N   0  0  0  0  0  0  0  0  0  0  0  0
    3.5490   14.6360   46.8530 N   0  0  0  0  0  0  0  0  0  0  0  0
    4.0960   13.3890   46.6340 C   0  0  0  0  0  0  0  0  0  0  0  0
    4.5040   12.5630   47.7960 C   0  0  0  0  0  0  0  0  0  0  0  0
    4.1560   13.2720   45.2560 C   0  0  0  0  0  0  0  0  0  0  0  0
    4.6250   12.2020   44.4760 C   0  0  0  0  0  0  0  0  0  0  0  0
    5.0310   10.8450   44.9630 C   0  0  0  0  0  0  0  0  0  0  0  0
    6.5380   10.6600   45.0390 N   0  0  0  0  0  0  0  0  0  0  0  0
    7.0760   10.7450   46.4660 C   0  0  0  0  0  0  0  0  0  0  0  0
    7.3650    9.3450   47.0110 C   0  0  0  0  0  0  0  0  0  0  0  0
    8.3500    8.6400   46.2470 O   0  0  0  0  0  0  0  0  0  0  0  0
    8.3920    8.9840   44.8570 C   0  0  0  0  0  0  0  0  0  0  0  0
    7.0250    9.4020   44.3110 C   0  0  0  0  0  0  0  0  0  0  0  0
    4.5960   12.5550   43.0800 C   0  0  0  0  0  0  0  0  0  0  0  0
    5.0940   11.6770   42.0910 C   0  0  0  0  0  0  0  0  0  0  0  0
    6.1640   10.0394   41.6606 H   0  0  0  0  0  0  0  0  0  0  0  0
    5.7839    8.9622   40.2742 H   0  0  0  0  0  0  0  0  0  0  0  0
    7.3005    9.9248   40.2742 H   0  0  0  0  0  0  0  0  0  0  0  0
    4.4571   13.4125   39.2424 H   0  0  0  0  0  0  0  0  0  0  0  0
    3.1840   16.0359   41.6268 H   0  0  0  0  0  0  0  0  0  0  0  0
    4.2106   15.9241   40.1570 H   0  0  0  0  0  0  0  0  0  0  0  0
    2.5614   15.2121   40.1570 H   0  0  0  0  0  0  0  0  0  0  0  0
    3.3610   15.0910   47.7430 H   0  0  0  0  0  0  0  0  0  0  0  0
    4.2450   13.0874   48.7276 H   0  0  0  0  0  0  0  0  0  0  0  0
    3.9796   11.5967   47.7612 H   0  0  0  0  0  0  0  0  0  0  0  0
    5.5901   12.3922   47.7612 H   0  0  0  0  0  0  0  0  0  0  0  0
    4.6095   10.6940   45.9678 H   0  0  0  0  0  0  0  0  0  0  0  0
    4.6485   10.1108   44.2387 H   0  0  0  0  0  0  0  0  0  0  0  0
    6.9560   11.4510   44.5330 H   0  0  0  0  0  0  0  0  0  0  0  0
    8.0051   11.3339   46.4687 H   0  0  0  0  0  0  0  0  0  0  0  0
    6.3209   11.2275   47.1040 H   0  0  0  0  0  0  0  0  0  0  0  0
    7.7254    9.4392   48.0460 H   0  0  0  0  0  0  0  0  0  0  0  0
    6.4294    8.7695   46.9530 H   0  0  0  0  0  0  0  0  0  0  0  0
    9.0952    9.8190   44.7221 H   0  0  0  0  0  0  0  0  0  0  0  0
    8.7120    8.0894   44.3026 H   0  0  0  0  0  0  0  0  0  0  0  0
    7.1105    9.6129   43.2348 H   0  0  0  0  0  0  0  0  0  0  0  0
    6.3044    8.5868   44.4727 H   0  0  0  0  0  0  0  0  0  0  0  0
    5.5358   10.7213   42.4094 H   0  0  0  0  0  0  0  0  0  0  0  0
  1  2  1  0
  2  3  1  0
  3  4  1  0
  4  5  2  0
  5  6  1  0
  5  7  1  0
  7  8  2  0
  8  9  1  0
  9 10  2  0
 10 11  1  0
 11 12  1  0
 12 13  1  0
 12 14  2  0
 14 15  1  0
 15 16  1  0
 16 17  1  0
 17 18  1  0
 18 19  1  0
 19 20  1  0
 20 21  1  0
 21 22  1  0
 15 23  2  0
 23 24  1  0
 24  3  2  0
 23  7  1  0
 14  9  1  0
 22 17  1  0
  1 25  1  0
  1 26  1  0
  1 27  1  0
  4 28  1  0
  6 29  1  0
  6 30  1  0
  6 31  1  0
 11 32  1  0
 13 33  1  0
 13 34  1  0
 13 35  1  0
 16 36  1  0
 16 37  1  0
 17 38  1  0
 18 39  1  0
 18 40  1  0
 19 41  1  0
 19 42  1  0
 21 43  1  0
 21 44  1  0
 22 45  1  0
 22 46  1  0
 24 47  1  0
M  CHG  1  17   1
M  END
>  <meeko>  (2) 
{"is_sidechain": [false], "free_energy": -8.778, "intermolecular_energy": -10.29, "internal_energy": -0.462}

$$$$
3ui7_ligand
     RDKit          3D

 47 50  0  0  0  0  0  0  0  0999 V2000
   10.1790    9.8360   42.5480 C   0  0  0  0  0  0  0  0  0  0  0  0
    8.7910   10.1600   42.5520 O   0  0  0  0  0  0  0  0  0  0  0  0
    8.2110   10.3680   43.7720 C   0  0  0  0  0  0  0  0  0  0  0  0
    8.4720    9.6710   44.9370 C   0  0  0  0  0  0  0  0  0  0  0  0
    7.7900    9.9940   46.1250 C   0  0  0  0  0  0  0  0  0  0  0  0
    8.0930    9.1920   47.3710 C   0  0  0  0  0  0  0  0  0  0  0  0
    6.8480   11.0280   46.1700 C   0  0  0  0  0  0  0  0  0  0  0  0
    6.2600   11.2440   47.3560 N   0  0  0  0  0  0  0  0  0  0  0  0
    5.3320   12.2160   47.3720 C   0  0  0  0  0  0  0  0  0  0  0  0
    4.6080   12.5870   48.4210 N   0  0  0  0  0  0  0  0  0  0  0  0
    3.8150   13.5510   47.9460 N   0  0  0  0  0  0  0  0  0  0  0  0
    4.0270   13.8600   46.6180 C   0  0  0  0  0  0  0  0  0  0  0  0
    3.1820   14.8940   45.9720 C   0  0  0  0  0  0  0  0  0  0  0  0
    5.0350   13.0020   46.2180 C   0  0  0  0  0  0  0  0  0  0  0  0
    5.6510   12.8820   44.9600 C   0  0  0  0  0  0  0  0  0  0  0  0
    5.4660   13.7840   43.7790 C   0  0  0  0  0  0  0  0  0  0  0  0
    4.4040   13.2910   42.8090 N   0  0  0  0  0  0  0  0  0  0  0  0
    3.5270   14.4170   42.2640 C   0  0  0  0  0  0  0  0  0  0  0  0
    3.9580   14.7910   40.8440 C   0  0  0  0  0  0  0  0  0  0  0  0
    3.8420   13.7020   39.9210 O   0  0  0  0  0  0  0  0  0  0  0  0
    4.0180   12.4030   40.4970 C   0  0  0  0  0  0  0  0  0  0  0  0
    4.9750   12.4120   41.6910 C   0  0  0  0  0  0  0  0  0  0  0  0
    6.5840   11.7840   44.9660 C   0  0  0  0  0  0  0  0  0  0  0  0
    7.2750   11.4030   43.7950 C   0  0  0  0  0  0  0  0  0  0  0  0
   10.5389    9.7520   43.5841 H   0  0  0  0  0  0  0  0  0  0  0  0
   10.3305    8.8783   42.0284 H   0  0  0  0  0  0  0  0  0  0  0  0
   10.7388   10.6276   42.0284 H   0  0  0  0  0  0  0  0  0  0  0  0
    9.2158    8.8606   44.9355 H   0  0  0  0  0  0  0  0  0  0  0  0
    7.8645    9.7968   48.2609 H   0  0  0  0  0  0  0  0  0  0  0  0
    7.4773    8.2805   47.3791 H   0  0  0  0  0  0  0  0  0  0  0  0
    9.1576    8.9154   47.3791 H   0  0  0  0  0  0  0  0  0  0  0  0
    3.1370   13.9600   48.5850 H   0  0  0  0  0  0  0  0  0  0  0  0
    2.6873   15.4993   46.7459 H   0  0  0  0  0  0  0  0  0  0  0  0
    3.8115   15.5431   45.3455 H   0  0  0  0  0  0  0  0  0  0  0  0
    2.4206   14.4064   45.3455 H   0  0  0  0  0  0  0  0  0  0  0  0
    5.1723   14.7798   44.1424 H   0  0  0  0  0  0  0  0  0  0  0  0
    6.4209   13.8081   43.2335 H   0  0  0  0  0  0  0  0  0  0  0  0
    3.7760   12.6810   43.3460 H   0  0  0  0  0  0  0  0  0  0  0  0
    2.4786   14.0844   42.2485 H   0  0  0  0  0  0  0  0  0  0  0  0
    3.6350   15.2986   42.9129 H   0  0  0  0  0  0  0  0  0  0  0  0
    3.3249   15.6186   40.4916 H   0  0  0  0  0  0  0  0  0  0  0  0
    5.0195   15.0765   40.8858 H   0  0  0  0  0  0  0  0  0  0  0  0
    3.0388   12.0315   40.8334 H   0  0  0  0  0  0  0  0  0  0  0  0
    4.4558   11.7533   39.7248 H   0  0  0  0  0  0  0  0  0  0  0  0
    5.1032   11.3850   42.0637 H   0  0  0  0  0  0  0  0  0  0  0  0
    5.9476   12.8158   41.3732 H   0  0  0  0  0  0  0  0  0  0  0  0
    7.0666   11.9452   42.8609 H   0  0  0  0  0  0  0  0  0  0  0  0
  1  2  1  0
  2  3  1  0
  3  4  1  0
  4  5  2  0
  5  6  1  0
  5  7  1  0
  7  8  2  0
  8  9  1  0
  9 10  2  0
 10 11  1  0
 11 12  1  0
 12 13  1  0
 12 14  2  0
 14 15  1  0
 15 16  1  0
 16 17  1  0
 17 18  1  0
 18 19  1  0
 19 20  1  0
 20 21  1  0
 21 22  1  0
 15 23  2  0
 23 24  1  0
 24  3  2  0
 23  7  1  0
 14  9  1  0
 22 17  1  0
  1 25  1  0
  1 26  1  0
  1 27  1  0
  4 28  1  0
  6 29  1  0
  6 30  1  0
  6 31  1  0
 11 32  1  0
 13 33  1  0
 13 34  1  0
 13 35  1  0
 16 36  1  0
 16 37  1  0
 17 38  1  0
 18 39  1  0
 18 40  1  0
 19 41  1  0
 19 42  1  0
 21 43  1  0
 21 44  1  0
 22 45  1  0
 22 46  1  0
 24 47  1  0
M  CHG  1  17   1
M  END
>  <meeko>  (3) 
{"is_sidechain": [false], "free_energy": -8.418, "intermolecular_energy": -10.007, "internal_energy": -0.321}

$$$$
3ui7_ligand
     RDKit          3D

 47 50  0  0  0  0  0  0  0  0999 V2000
    6.8460   10.1860   47.2970 C   0  0  0  0  0  0  0  0  0  0  0  0
    6.0550   11.3280   47.6150 O   0  0  0  0  0  0  0  0  0  0  0  0
    5.5360   12.0300   46.5630 C   0  0  0  0  0  0  0  0  0  0  0  0
    4.8970   13.2550   46.6260 C   0  0  0  0  0  0  0  0  0  0  0  0
    4.4060   13.8600   45.4550 C   0  0  0  0  0  0  0  0  0  0  0  0
    3.6970   15.1900   45.5730 C   0  0  0  0  0  0  0  0  0  0  0  0
    4.5590   13.2580   44.2010 C   0  0  0  0  0  0  0  0  0  0  0  0
    4.0490   13.9250   43.1540 N   0  0  0  0  0  0  0  0  0  0  0  0
    4.1730   13.3150   41.9640 C   0  0  0  0  0  0  0  0  0  0  0  0
    3.7250   13.7740   40.8010 N   0  0  0  0  0  0  0  0  0  0  0  0
    4.0510   12.8190   39.9260 N   0  0  0  0  0  0  0  0  0  0  0  0
    4.7450   11.7580   40.4720 C   0  0  0  0  0  0  0  0  0  0  0  0
    5.1320   10.6210   39.6010 C   0  0  0  0  0  0  0  0  0  0  0  0
    4.8520   12.0680   41.8160 C   0  0  0  0  0  0  0  0  0  0  0  0
    5.4680   11.3390   42.8480 C   0  0  0  0  0  0  0  0  0  0  0  0
    6.3080   10.1080   42.7010 C   0  0  0  0  0  0  0  0  0  0  0  0
    7.7720   10.4100   42.4220 N   0  0  0  0  0  0  0  0  0  0  0  0
    8.6640   10.2110   43.6450 C   0  0  0  0  0  0  0  0  0  0  0  0
    9.4220    8.8860   43.5430 C   0  0  0  0  0  0  0  0  0  0  0  0
   10.2800    8.8200   42.3990 O   0  0  0  0  0  0  0  0  0  0  0  0
    9.8350    9.5790   41.2680 C   0  0  0  0  0  0  0  0  0  0  0  0
    8.3110    9.6780   41.1880 C   0  0  0  0  0  0  0  0  0  0  0  0
    5.2490   11.9890   44.1140 C   0  0  0  0  0  0  0  0  0  0  0  0
    5.6990   11.4120   45.3220 C   0  0  0  0  0  0  0  0  0  0  0  0
    7.1813    9.7019   48.2261 H   0  0  0  0  0  0  0  0  0  0  0  0
    6.2453    9.4759   46.7097 H   0  0  0  0  0  0  0  0  0  0  0  0
    7.7220   10.4987   46.7097 H   0  0  0  0  0  0  0  0  0  0  0  0
    4.7722   13.7583   47.5961 H   0  0  0  0  0  0  0  0  0  0  0  0
    3.5631   15.4411   46.6355 H   0  0  0  0  0  0  0  0  0  0  0  0
    4.2986   15.9708   45.0847 H   0  0  0  0  0  0  0  0  0  0  0  0
    2.7134   15.1258   45.0847 H   0  0  0  0  0  0  0  0  0  0  0  0
    3.7630   12.9490   38.9590 H   0  0  0  0  0  0  0  0  0  0  0  0
    5.4238    9.7636   40.2253 H   0  0  0  0  0  0  0  0  0  0  0  0
    4.2793   10.3388   38.9660 H   0  0  0  0  0  0  0  0  0  0  0  0
    5.9798   10.9176   38.9660 H   0  0  0  0  0  0  0  0  0  0  0  0
    6.2425    9.5271   43.6328 H   0  0  0  0  0  0  0  0  0  0  0  0
    5.9196    9.5492   41.8367 H   0  0  0  0  0  0  0  0  0  0  0  0
    7.8260   11.4110   42.1950 H   0  0  0  0  0  0  0  0  0  0  0  0
    9.3866   11.0382   43.7049 H   0  0  0  0  0  0  0  0  0  0  0  0
    8.0341   10.1930   44.5466 H   0  0  0  0  0  0  0  0  0  0  0  0
   10.0344    8.7617   44.4483 H   0  0  0  0  0  0  0  0  0  0  0  0
    8.6742    8.0858   43.4406 H   0  0  0  0  0  0  0  0  0  0  0  0
   10.2506   10.5949   41.3401 H   0  0  0  0  0  0  0  0  0  0  0  0
   10.1829    9.0612   40.3620 H   0  0  0  0  0  0  0  0  0  0  0  0
    8.0284   10.2335   40.2816 H   0  0  0  0  0  0  0  0  0  0  0  0
    7.8830    8.6653   41.1511 H   0  0  0  0  0  0  0  0  0  0  0  0
    6.1996   10.4333   45.2832 H   0  0  0  0  0  0  0  0  0  0  0  0
  1  2  1  0
  2  3  1  0
  3  4  1  0
  4  5  2  0
  5  6  1  0
  5  7  1  0
  7  8  2  0
  8  9  1  0
  9 10  2  0
 10 11  1  0
 11 12  1  0
 12 13  1  0
 12 14  2  0
 14 15  1  0
 15 16  1  0
 16 17  1  0
 17 18  1  0
 18 19  1  0
 19 20  1  0
 20 21  1  0
 21 22  1  0
 15 23  2  0
 23 24  1  0
 24  3  2  0
 23  7  1  0
 14  9  1  0
 22 17  1  0
  1 25  1  0
  1 26  1  0
  1 27  1  0
  4 28  1  0
  6 29  1  0
  6 30  1  0
  6 31  1  0
 11 32  1  0
 13 33  1  0
 13 34  1  0
 13 35  1  0
 16 36  1  0
 16 37  1  0
 17 38  1  0
 18 39  1  0
 18 40  1  0
 19 41  1  0
 19 42  1  0
 21 43  1  0
 21 44  1  0
 22 45  1  0
 22 46  1  0
 24 47  1  0
M  CHG  1  17   1
M  END
>  <meeko>  (4) 
{"is_sidechain": [false], "free_energy": -8.295, "intermolecular_energy": -9.571, "internal_energy": -0.613}

$$$$
3ui7_ligand
     RDKit          3D

 47 50  0  0  0  0  0  0  0  0999 V2000
    4.3240   12.9270   40.6480 C   0  0  0  0  0  0  0  0  0  0  0  0
    4.8930   11.6650   40.9880 O   0  0  0  0  0  0  0  0  0  0  0  0
    5.3580   11.5220   42.2650 C   0  0  0  0  0  0  0  0  0  0  0  0
    5.1760   12.4090   43.3110 C   0  0  0  0  0  0  0  0  0  0  0  0
    5.7190   12.1310   44.5780 C   0  0  0  0  0  0  0  0  0  0  0  0
    5.5120   13.1370   45.6870 C   0  0  0  0  0  0  0  0  0  0  0  0
    6.4400   10.9560   44.8250 C   0  0  0  0  0  0  0  0  0  0  0  0
    6.9130   10.8000   46.0710 N   0  0  0  0  0  0  0  0  0  0  0  0
    7.6320    9.6850   46.2780 C   0  0  0  0  0  0  0  0  0  0  0  0
    8.2150    9.3330   47.4190 N   0  0  0  0  0  0  0  0  0  0  0  0
    8.8310    8.1830   47.1300 N   0  0  0  0  0  0  0  0  0  0  0  0
    8.6330    7.7390   45.8390 C   0  0  0  0  0  0  0  0  0  0  0  0
    9.2940    6.4890   45.3930 C   0  0  0  0  0  0  0  0  0  0  0  0
    7.8320    8.7060   45.2580 C   0  0  0  0  0  0  0  0  0  0  0  0
    7.3170    8.7640   43.9510 C   0  0  0  0  0  0  0  0  0  0  0  0
    7.3860    7.6910   42.9090 C   0  0  0  0  0  0  0  0  0  0  0  0
    8.3530    8.0110   41.7810 N   0  0  0  0  0  0  0  0  0  0  0  0
    9.8120    8.0190   42.2310 C   0  0  0  0  0  0  0  0  0  0  0  0
   10.5080    6.7240   41.8080 C   0  0  0  0  0  0  0  0  0  0  0  0
   10.5230    6.5350   40.3890 O   0  0  0  0  0  0  0  0  0  0  0  0
    9.4110    7.1130   39.6940 C   0  0  0  0  0  0  0  0  0  0  0  0
    8.1360    7.1380   40.5400 C   0  0  0  0  0  0  0  0  0  0  0  0
    6.6160   10.0060   43.7480 C   0  0  0  0  0  0  0  0  0  0  0  0
    6.0730   10.3450   42.4890 C   0  0  0  0  0  0  0  0  0  0  0  0
    4.0760   13.4771   41.5677 H   0  0  0  0  0  0  0  0  0  0  0  0
    5.0472   13.5080   40.0570 H   0  0  0  0  0  0  0  0  0  0  0  0
    3.4097   12.7697   40.0570 H   0  0  0  0  0  0  0  0  0  0  0  0
    4.6044   13.3351   43.1510 H   0  0  0  0  0  0  0  0  0  0  0  0
    5.6151   12.6357   46.6607 H   0  0  0  0  0  0  0  0  0  0  0  0
    6.2648   13.9347   45.6037 H   0  0  0  0  0  0  0  0  0  0  0  0
    4.5054   13.5727   45.6037 H   0  0  0  0  0  0  0  0  0  0  0  0
    9.3820    7.7470   47.8650 H   0  0  0  0  0  0  0  0  0  0  0  0
    9.6033    5.9041   46.2718 H   0  0  0  0  0  0  0  0  0  0  0  0
    8.5906    5.8979   44.7882 H   0  0  0  0  0  0  0  0  0  0  0  0
   10.1785    6.7376   44.7882 H   0  0  0  0  0  0  0  0  0  0  0  0
    7.7085    6.7563   43.3910 H   0  0  0  0  0  0  0  0  0  0  0  0
    6.3837    7.6031   42.4644 H   0  0  0  0  0  0  0  0  0  0  0  0
    8.1460    8.9720   41.4810 H   0  0  0  0  0  0  0  0  0  0  0  0
   10.3283    8.8747   41.7714 H   0  0  0  0  0  0  0  0  0  0  0  0
    9.8466    8.1008   43.3274 H   0  0  0  0  0  0  0  0  0  0  0  0
   11.5467    6.7501   42.1692 H   0  0  0  0  0  0  0  0  0  0  0  0
    9.9422    5.8882   42.2454 H   0  0  0  0  0  0  0  0  0  0  0  0
    9.6684    8.1453   39.4144 H   0  0  0  0  0  0  0  0  0  0  0  0
    9.2113    6.4905   38.8093 H   0  0  0  0  0  0  0  0  0  0  0  0
    7.3097    7.5511   39.9429 H   0  0  0  0  0  0  0  0  0  0  0  0
    7.8894    6.1134   40.8554 H   0  0  0  0  0  0  0  0  0  0  0  0
    6.2202    9.6509   41.6485 H   0  0  0  0  0  0  0  0  0  0  0  0
  1  2  1  0
  2  3  1  0
  3  4  1  0
  4  5  2  0
  5  6  1  0
  5  7  1  0
  7  8  2  0
  8  9  1  0
  9 10  2  0
 10 11  1  0
 11 12  1  0
 12 13  1  0
 12 14  2  0
 14 15  1  0
 15 16  1  0
 16 17  1  0
 17 18  1  0
 18 19  1  0
 19 20  1  0
 20 21  1  0
 21 22  1  0
 15 23  2  0
 23 24  1  0
 24  3  2  0
 23  7  1  0
 14  9  1  0
 22 17  1  0
  1 25  1  0
  1 26  1  0
  1 27  1  0
  4 28  1  0
  6 29  1  0
  6 30  1  0
  6 31  1  0
 11 32  1  0
 13 33  1  0
 13 34  1  0
 13 35  1  0
 16 36  1  0
 16 37  1  0
 17 38  1  0
 18 39  1  0
 18 40  1  0
 19 41  1  0
 19 42  1  0
 21 43  1  0
 21 44  1  0
 22 45  1  0
 22 46  1  0
 24 47  1  0
M  CHG  1  17   1
M  END
>  <meeko>  (5) 
{"is_sidechain": [false], "free_energy": -7.992, "intermolecular_energy": -9.374, "internal_energy": -0.454}

$$$$
3ui7_ligand
     RDKit          3D

 47 50  0  0  0  0  0  0  0  0999 V2000
    4.0970   14.1190   41.4470 C   0  0  0  0  0  0  0  0  0  0  0  0
    4.1460   14.7550   42.7210 O   0  0  0  0  0  0  0  0  0  0  0  0
    4.5370   13.9840   43.7800 C   0  0  0  0  0  0  0  0  0  0  0  0
    4.1120   14.1110   45.0910 C   0  0  0  0  0  0  0  0  0  0  0  0
    4.6060   13.2440   46.0820 C   0  0  0  0  0  0  0  0  0  0  0  0
    4.1290   13.4300   47.5050 C   0  0  0  0  0  0  0  0  0  0  0  0
    5.5210   12.2290   45.7780 C   0  0  0  0  0  0  0  0  0  0  0  0
    5.9250   11.4660   46.8050 N   0  0  0  0  0  0  0  0  0  0  0  0
    6.8300   10.5210   46.5010 C   0  0  0  0  0  0  0  0  0  0  0  0
    7.3870    9.6690   47.3540 N   0  0  0  0  0  0  0  0  0  0  0  0
    8.2330    8.9590   46.6020 N   0  0  0  0  0  0  0  0  0  0  0  0
    8.2180    9.2880   45.2620 C   0  0  0  0  0  0  0  0  0  0  0  0
    9.1390    8.5880   44.3350 C   0  0  0  0  0  0  0  0  0  0  0  0
    7.2880   10.3080   45.1650 C   0  0  0  0  0  0  0  0  0  0  0  0
    6.8670   11.0200   44.0280 C   0  0  0  0  0  0  0  0  0  0  0  0
    7.2170   10.7240   42.6020 C   0  0  0  0  0  0  0  0  0  0  0  0
    6.3010    9.6960   41.9600 N   0  0  0  0  0  0  0  0  0  0  0  0
    5.3210   10.3120   40.9630 C   0  0  0  0  0  0  0  0  0  0  0  0
    5.7970   10.0690   39.5290 C   0  0  0  0  0  0  0  0  0  0  0  0
    5.8910    8.6790   39.1990 O   0  0  0  0  0  0  0  0  0  0  0  0
    6.1980    7.8180   40.3030 C   0  0  0  0  0  0  0  0  0  0  0  0
    7.0600    8.5060   41.3630 C   0  0  0  0  0  0  0  0  0  0  0  0
    5.9550   12.0680   44.4080 C   0  0  0  0  0  0  0  0  0  0  0  0
    5.4490   12.9800   43.4550 C   0  0  0  0  0  0  0  0  0  0  0  0
    4.0132   13.0307   41.5835 H   0  0  0  0  0  0  0  0  0  0  0  0
    3.2245   14.4866   40.8870 H   0  0  0  0  0  0  0  0  0  0  0  0
    5.0155   14.3486   40.8870 H   0  0  0  0  0  0  0  0  0  0  0  0
    3.3856   14.8925   45.3587 H   0  0  0  0  0  0  0  0  0  0  0  0
    4.9225   13.1206   48.2011 H   0  0  0  0  0  0  0  0  0  0  0  0
    3.8851   14.4891   47.6745 H   0  0  0  0  0  0  0  0  0  0  0  0
    3.2325   12.8156   47.6745 H   0  0  0  0  0  0  0  0  0  0  0  0
    8.8040    8.2600   47.0700 H   0  0  0  0  0  0  0  0  0  0  0  0
    9.8831    8.0224   44.9150 H   0  0  0  0  0  0  0  0  0  0  0  0
    8.5652    7.8960   43.7011 H   0  0  0  0  0  0  0  0  0  0  0  0
    9.6521    9.3261   43.7011 H   0  0  0  0  0  0  0  0  0  0  0  0
    7.1519   11.6584   42.0252 H   0  0  0  0  0  0  0  0  0  0  0  0
    8.2335   10.3037   42.5962 H   0  0  0  0  0  0  0  0  0  0  0  0
    5.7240    9.3050   42.7150 H   0  0  0  0  0  0  0  0  0  0  0  0
    4.3300    9.8542   41.0986 H   0  0  0  0  0  0  0  0  0  0  0  0
    5.2638   11.3959   41.1416 H   0  0  0  0  0  0  0  0  0  0  0  0
    5.0863   10.5461   38.8381 H   0  0  0  0  0  0  0  0  0  0  0  0
    6.8063   10.4974   39.4402 H   0  0  0  0  0  0  0  0  0  0  0  0
    5.2561    7.4947   40.7703 H   0  0  0  0  0  0  0  0  0  0  0  0
    6.7701    6.9642   39.9109 H   0  0  0  0  0  0  0  0  0  0  0  0
    7.2987    7.7879   42.1614 H   0  0  0  0  0  0  0  0  0  0  0  0
    7.9891    8.8659   40.8968 H   0  0  0  0  0  0  0  0  0  0  0  0
    5.7888   12.8946   42.4123 H   0  0  0  0  0  0  0  0  0  0  0  0
  1  2  1  0
  2  3  1  0
  3  4  1  0
  4  5  2  0
  5  6  1  0
  5  7  1  0
  7  8  2  0
  8  9  1  0
  9 10  2  0
 10 11  1  0
 11 12  1  0
 12 13  1  0
 12 14  2  0
 14 15  1  0
 15 16  1  0
 16 17  1  0
 17 18  1  0
 18 19  1  0
 19 20  1  0
 20 21  1  0
 21 22  1  0
 15 23  2  0
 23 24  1  0
 24  3  2  0
 23  7  1  0
 14  9  1  0
 22 17  1  0
  1 25  1  0
  1 26  1  0
  1 27  1  0
  4 28  1  0
  6 29  1  0
  6 30  1  0
  6 31  1  0
 11 32  1  0
 13 33  1  0
 13 34  1  0
 13 35  1  0
 16 36  1  0
 16 37  1  0
 17 38  1  0
 18 39  1  0
 18 40  1  0
 19 41  1  0
 19 42  1  0
 21 43  1  0
 21 44  1  0
 22 45  1  0
 22 46  1  0
 24 47  1  0
M  CHG  1  17   1
M  END
>  <meeko>  (6) 
{"is_sidechain": [false], "free_energy": -7.687, "intermolecular_energy": -8.858, "internal_energy": -0.611}

$$$$
3ui7_ligand
     RDKit          3D

 47 50  0  0  0  0  0  0  0  0999 V2000
    3.0160   14.8010   40.0990 C   0  0  0  0  0  0  0  0  0  0  0  0
    3.4610   15.2950   41.3600 O   0  0  0  0  0  0  0  0  0  0  0  0
    3.8650   14.3670   42.2780 C   0  0  0  0  0  0  0  0  0  0  0  0
    3.6850   14.4320   43.6480 C   0  0  0  0  0  0  0  0  0  0  0  0
    4.1620   13.3980   44.4750 C   0  0  0  0  0  0  0  0  0  0  0  0
    3.9610   13.5200   45.9680 C   0  0  0  0  0  0  0  0  0  0  0  0
    4.8140   12.2780   43.9460 C   0  0  0  0  0  0  0  0  0  0  0  0
    5.2270   11.3580   44.8300 N   0  0  0  0  0  0  0  0  0  0  0  0
    5.8820   10.3090   44.3070 C   0  0  0  0  0  0  0  0  0  0  0  0
    6.4010    9.2930   44.9890 N   0  0  0  0  0  0  0  0  0  0  0  0
    6.9700    8.5280   44.0530 N   0  0  0  0  0  0  0  0  0  0  0  0
    6.8030    8.9870   42.7630 C   0  0  0  0  0  0  0  0  0  0  0  0
    7.4200    8.2370   41.6420 C   0  0  0  0  0  0  0  0  0  0  0  0
    6.0750   10.1550   42.9010 C   0  0  0  0  0  0  0  0  0  0  0  0
    5.6170   11.0390   41.9070 C   0  0  0  0  0  0  0  0  0  0  0  0
    5.6750   10.8320   40.4250 C   0  0  0  0  0  0  0  0  0  0  0  0
    4.6980    9.7790   39.9270 N   0  0  0  0  0  0  0  0  0  0  0  0
    3.3060   10.3430   39.6500 C   0  0  0  0  0  0  0  0  0  0  0  0
    3.1010   10.5450   38.1470 C   0  0  0  0  0  0  0  0  0  0  0  0
    3.2020    9.3270   37.4010 O   0  0  0  0  0  0  0  0  0  0  0  0
    4.0800    8.3460   37.9660 C   0  0  0  0  0  0  0  0  0  0  0  0
    5.2400    8.9710   38.7430 C   0  0  0  0  0  0  0  0  0  0  0  0
    4.9860   12.1830   42.5130 C   0  0  0  0  0  0  0  0  0  0  0  0
    4.5130   13.2590   41.7290 C   0  0  0  0  0  0  0  0  0  0  0  0
    2.2875   13.9923   40.2584 H   0  0  0  0  0  0  0  0  0  0  0  0
    2.5412   15.6159   39.5328 H   0  0  0  0  0  0  0  0  0  0  0  0
    3.8759   14.4136   39.5328 H   0  0  0  0  0  0  0  0  0  0  0  0
    3.1673   15.2948   44.0925 H   0  0  0  0  0  0  0  0  0  0  0  0
    4.7880   13.0180   46.4915 H   0  0  0  0  0  0  0  0  0  0  0  0
    3.9404   14.5832   46.2495 H   0  0  0  0  0  0  0  0  0  0  0  0
    3.0083   13.0476   46.2495 H   0  0  0  0  0  0  0  0  0  0  0  0
    7.4690    7.6990   44.3640 H   0  0  0  0  0  0  0  0  0  0  0  0
    8.0705    7.4463   42.0440 H   0  0  0  0  0  0  0  0  0  0  0  0
    6.6299    7.7837   41.0253 H   0  0  0  0  0  0  0  0  0  0  0  0
    8.0171    8.9249   41.0253 H   0  0  0  0  0  0  0  0  0  0  0  0
    5.4425   11.7863   39.9297 H   0  0  0  0  0  0  0  0  0  0  0  0
    6.6879   10.4767   40.1847 H   0  0  0  0  0  0  0  0  0  0  0  0
    4.5810    9.1030   40.6920 H   0  0  0  0  0  0  0  0  0  0  0  0
    2.5486    9.6404   40.0278 H   0  0  0  0  0  0  0  0  0  0  0  0
    3.2074   11.3142   40.1570 H   0  0  0  0  0  0  0  0  0  0  0  0
    2.1015   10.9743   37.9839 H   0  0  0  0  0  0  0  0  0  0  0  0
    3.8980   11.2154   37.7929 H   0  0  0  0  0  0  0  0  0  0  0  0
    3.5013    7.7079   38.6500 H   0  0  0  0  0  0  0  0  0  0  0  0
    4.5097    7.7665   37.1356 H   0  0  0  0  0  0  0  0  0  0  0  0
    5.9002    8.1744   39.1165 H   0  0  0  0  0  0  0  0  0  0  0  0
    5.8048    9.6392   38.0762 H   0  0  0  0  0  0  0  0  0  0  0  0
    4.6616   13.2221   40.6397 H   0  0  0  0  0  0  0  0  0  0  0  0
  1  2  1  0
  2  3  1  0
  3  4  1  0
  4  5  2  0
  5  6  1  0
  5  7  1  0
  7  8  2  0
  8  9  1  0
  9 10  2  0
 10 11  1  0
 11 12  1  0
 12 13  1  0
 12 14  2  0
 14 15  1  0
 15 16  1  0
 16 17  1  0
 17 18  1  0
 18 19  1  0
 19 20  1  0
 20 21  1  0
 21 22  1  0
 15 23  2  0
 23 24  1  0
 24  3  2  0
 23  7  1  0
 14  9  1  0
 22 17  1  0
  1 25  1  0
  1 26  1  0
  1 27  1  0
  4 28  1  0
  6 29  1  0
  6 30  1  0
  6 31  1  0
 11 32  1  0
 13 33  1  0
 13 34  1  0
 13 35  1  0
 16 36  1  0
 16 37  1  0
 17 38  1  0
 18 39  1  0
 18 40  1  0
 19 41  1  0
 19 42  1  0
 21 43  1  0
 21 44  1  0
 22 45  1  0
 22 46  1  0
 24 47  1  0
M  CHG  1  17   1
M  END
>  <meeko>  (7) 
{"is_sidechain": [false], "free_energy": -7.666, "intermolecular_energy": -8.841, "internal_energy": -0.603}

$$$$
3ui7_ligand
     RDKit          3D

 47 50  0  0  0  0  0  0  0  0999 V2000
    8.0200    9.3790   47.3360 C   0  0  0  0  0  0  0  0  0  0  0  0
    7.1060   10.3860   47.7620 O   0  0  0  0  0  0  0  0  0  0  0  0
    6.4210   11.0510   46.7840 C   0  0  0  0  0  0  0  0  0  0  0  0
    5.5040   12.0700   46.9680 C   0  0  0  0  0  0  0  0  0  0  0  0
    4.8690   12.6610   45.8610 C   0  0  0  0  0  0  0  0  0  0  0  0
    3.8580   13.7580   46.1110 C   0  0  0  0  0  0  0  0  0  0  0  0
    5.1520   12.2560   44.5520 C   0  0  0  0  0  0  0  0  0  0  0  0
    4.4840   12.8900   43.5760 N   0  0  0  0  0  0  0  0  0  0  0  0
    4.7420   12.4620   42.3290 C   0  0  0  0  0  0  0  0  0  0  0  0
    4.1850   12.9230   41.2150 N   0  0  0  0  0  0  0  0  0  0  0  0
    4.7250   12.1770   40.2470 N   0  0  0  0  0  0  0  0  0  0  0  0
    5.6610   11.2640   40.6860 C   0  0  0  0  0  0  0  0  0  0  0  0
    6.3060   10.3580   39.7050 C   0  0  0  0  0  0  0  0  0  0  0  0
    5.7030   11.4410   42.0580 C   0  0  0  0  0  0  0  0  0  0  0  0
    6.4880   10.7750   43.0150 C   0  0  0  0  0  0  0  0  0  0  0  0
    7.6010    9.8100   42.7500 C   0  0  0  0  0  0  0  0  0  0  0  0
    7.1930    8.3570   42.9340 N   0  0  0  0  0  0  0  0  0  0  0  0
    7.1960    7.5680   41.6270 C   0  0  0  0  0  0  0  0  0  0  0  0
    8.4510    6.6960   41.5330 C   0  0  0  0  0  0  0  0  0  0  0  0
    8.5430    5.7340   42.5890 O   0  0  0  0  0  0  0  0  0  0  0  0
    7.9340    6.1340   43.8230 C   0  0  0  0  0  0  0  0  0  0  0  0
    7.9830    7.6480   44.0400 C   0  0  0  0  0  0  0  0  0  0  0  0
    6.1290   11.2110   44.3410 C   0  0  0  0  0  0  0  0  0  0  0  0
    6.7180   10.6310   45.4860 C   0  0  0  0  0  0  0  0  0  0  0  0
    8.4635    8.8904   48.2161 H   0  0  0  0  0  0  0  0  0  0  0  0
    7.4859    8.6311   46.7316 H   0  0  0  0  0  0  0  0  0  0  0  0
    8.8160    9.8383   46.7316 H   0  0  0  0  0  0  0  0  0  0  0  0
    5.2704   12.4196   47.9845 H   0  0  0  0  0  0  0  0  0  0  0  0
    3.7291   13.8979   47.1944 H   0  0  0  0  0  0  0  0  0  0  0  0
    4.2153   14.6956   45.6602 H   0  0  0  0  0  0  0  0  0  0  0  0
    2.8944   13.4783   45.6602 H   0  0  0  0  0  0  0  0  0  0  0  0
    4.4050   12.3390   39.2950 H   0  0  0  0  0  0  0  0  0  0  0  0
    6.8634    9.5751   40.2402 H   0  0  0  0  0  0  0  0  0  0  0  0
    5.5349    9.8925   39.0736 H   0  0  0  0  0  0  0  0  0  0  0  0
    6.9982   10.9343   39.0736 H   0  0  0  0  0  0  0  0  0  0  0  0
    7.9436    9.9480   41.7139 H   0  0  0  0  0  0  0  0  0  0  0  0
    8.3959   10.0205   43.4806 H   0  0  0  0  0  0  0  0  0  0  0  0
    6.2170    8.3660   43.2550 H   0  0  0  0  0  0  0  0  0  0  0  0
    6.3043    6.9250   41.5897 H   0  0  0  0  0  0  0  0  0  0  0  0
    7.1882    8.2743   40.7837 H   0  0  0  0  0  0  0  0  0  0  0  0
    8.4353    6.1613   40.5718 H   0  0  0  0  0  0  0  0  0  0  0  0
    9.3222    7.3623   41.6175 H   0  0  0  0  0  0  0  0  0  0  0  0
    6.8819    5.8129   43.8170 H   0  0  0  0  0  0  0  0  0  0  0  0
    8.4977    5.6618   44.6411 H   0  0  0  0  0  0  0  0  0  0  0  0
    7.5413    7.8913   45.0176 H   0  0  0  0  0  0  0  0  0  0  0  0
    9.0297    7.9852   44.0119 H   0  0  0  0  0  0  0  0  0  0  0  0
    7.4414    9.8137   45.3495 H   0  0  0  0  0  0  0  0  0  0  0  0
  1  2  1  0
  2  3  1  0
  3  4  1  0
  4  5  2  0
  5  6  1  0
  5  7  1  0
  7  8  2  0
  8  9  1  0
  9 10  2  0
 10 11  1  0
 11 12  1  0
 12 13  1  0
 12 14  2  0
 14 15  1  0
 15 16  1  0
 16 17  1  0
 17 18  1  0
 18 19  1  0
 19 20  1  0
 20 21  1  0
 21 22  1  0
 15 23  2  0
 23 24  1  0
 24  3  2  0
 23  7  1  0
 14  9  1  0
 22 17  1  0
  1 25  1  0
  1 26  1  0
  1 27  1  0
  4 28  1  0
  6 29  1  0
  6 30  1  0
  6 31  1  0
 11 32  1  0
 13 33  1  0
 13 34  1  0
 13 35  1  0
 16 36  1  0
 16 37  1  0
 17 38  1  0
 18 39  1  0
 18 40  1  0
 19 41  1  0
 19 42  1  0
 21 43  1  0
 21 44  1  0
 22 45  1  0
 22 46  1  0
 24 47  1  0
M  CHG  1  17   1
M  END
>  <meeko>  (8) 
{"is_sidechain": [false], "free_energy": -7.575, "intermolecular_energy": -8.887, "internal_energy": -0.451}

$$$$
3ui7_ligand
     RDKit          3D

 47 50  0  0  0  0  0  0  0  0999 V2000
    6.6550    9.6170   38.2210 C   0  0  0  0  0  0  0  0  0  0  0  0
    6.3350    9.0030   39.4670 O   0  0  0  0  0  0  0  0  0  0  0  0
    6.0310    9.8370   40.5060 C   0  0  0  0  0  0  0  0  0  0  0  0
    5.3410   11.0330   40.4260 C   0  0  0  0  0  0  0  0  0  0  0  0
    5.1040   11.7930   41.5850 C   0  0  0  0  0  0  0  0  0  0  0  0
    4.3630   13.1040   41.4480 C   0  0  0  0  0  0  0  0  0  0  0  0
    5.5400   11.3650   42.8440 C   0  0  0  0  0  0  0  0  0  0  0  0
    5.2600   12.1730   43.8770 N   0  0  0  0  0  0  0  0  0  0  0  0
    5.7180   11.7630   45.0710 C   0  0  0  0  0  0  0  0  0  0  0  0
    5.5820   12.4090   46.2240 N   0  0  0  0  0  0  0  0  0  0  0  0
    6.2200   11.6370   47.1090 N   0  0  0  0  0  0  0  0  0  0  0  0
    6.7370   10.4730   46.5800 C   0  0  0  0  0  0  0  0  0  0  0  0
    7.4950    9.5520   47.4610 C   0  0  0  0  0  0  0  0  0  0  0  0
    6.4070   10.5230   45.2380 C   0  0  0  0  0  0  0  0  0  0  0  0
    6.6820    9.5930   44.2200 C   0  0  0  0  0  0  0  0  0  0  0  0
    7.2700    8.2260   44.3880 C   0  0  0  0  0  0  0  0  0  0  0  0
    8.7830    8.2360   44.5270 N   0  0  0  0  0  0  0  0  0  0  0  0
    9.3090    7.0940   45.3950 C   0  0  0  0  0  0  0  0  0  0  0  0
    9.8830    5.9790   44.5180 C   0  0  0  0  0  0  0  0  0  0  0  0
   10.9830    6.4140   43.7090 O   0  0  0  0  0  0  0  0  0  0  0  0
   10.9380    7.7940   43.3270 C   0  0  0  0  0  0  0  0  0  0  0  0
    9.5090    8.3190   43.1800 C   0  0  0  0  0  0  0  0  0  0  0  0
    6.2400   10.1030   42.9480 C   0  0  0  0  0  0  0  0  0  0  0  0
    6.4760    9.3910   41.7510 C   0  0  0  0  0  0  0  0  0  0  0  0
    7.1563   10.5788   38.4042 H   0  0  0  0  0  0  0  0  0  0  0  0
    7.3243    8.9579   37.6486 H   0  0  0  0  0  0  0  0  0  0  0  0
    5.7314    9.7881   37.6486 H   0  0  0  0  0  0  0  0  0  0  0  0
    4.9762   11.3910   39.4519 H   0  0  0  0  0  0  0  0  0  0  0  0
    4.1371   13.5037   42.4476 H   0  0  0  0  0  0  0  0  0  0  0  0
    4.9883   13.8229   40.8984 H   0  0  0  0  0  0  0  0  0  0  0  0
    3.4245   12.9391   40.8984 H   0  0  0  0  0  0  0  0  0  0  0  0
    6.2730   11.9680   48.0690 H   0  0  0  0  0  0  0  0  0  0  0  0
    7.2909    9.8000   48.5131 H   0  0  0  0  0  0  0  0  0  0  0  0
    7.1847    8.5157   47.2617 H   0  0  0  0  0  0  0  0  0  0  0  0
    8.5717    9.6571   47.2617 H   0  0  0  0  0  0  0  0  0  0  0  0
    6.8393    7.7692   45.2912 H   0  0  0  0  0  0  0  0  0  0  0  0
    7.0298    7.6539   43.4797 H   0  0  0  0  0  0  0  0  0  0  0  0
    9.0260    9.1010   45.0260 H   0  0  0  0  0  0  0  0  0  0  0  0
   10.0989    7.4767   46.0581 H   0  0  0  0  0  0  0  0  0  0  0  0
    8.4791    6.6875   45.9917 H   0  0  0  0  0  0  0  0  0  0  0  0
   10.2282    5.1628   45.1697 H   0  0  0  0  0  0  0  0  0  0  0  0
    9.0835    5.6505   43.8377 H   0  0  0  0  0  0  0  0  0  0  0  0
   11.4543    8.3888   44.0949 H   0  0  0  0  0  0  0  0  0  0  0  0
   11.4276    7.8835   42.3461 H   0  0  0  0  0  0  0  0  0  0  0  0
    9.5376    9.3663   42.8448 H   0  0  0  0  0  0  0  0  0  0  0  0
    8.9721    7.7070   42.4403 H   0  0  0  0  0  0  0  0  0  0  0  0
    7.0344    8.4447   41.8026 H   0  0  0  0  0  0  0  0  0  0  0  0
  1  2  1  0
  2  3  1  0
  3  4  1  0
  4  5  2  0
  5  6  1  0
  5  7  1  0
  7  8  2  0
  8  9  1  0
  9 10  2  0
 10 11  1  0
 11 12  1  0
 12 13  1  0
 12 14  2  0
 14 15  1  0
 15 16  1  0
 16 17  1  0
 17 18  1  0
 18 19  1  0
 19 20  1  0
 20 21  1  0
 21 22  1  0
 15 23  2  0
 23 24  1  0
 24  3  2  0
 23  7  1  0
 14  9  1  0
 22 17  1  0
  1 25  1  0
  1 26  1  0
  1 27  1  0
  4 28  1  0
  6 29  1  0
  6 30  1  0
  6 31  1  0
 11 32  1  0
 13 33  1  0
 13 34  1  0
 13 35  1  0
 16 36  1  0
 16 37  1  0
 17 38  1  0
 18 39  1  0
 18 40  1  0
 19 41  1  0
 19 42  1  0
 21 43  1  0
 21 44  1  0
 22 45  1  0
 22 46  1  0
 24 47  1  0
M  CHG  1  17   1
M  END
>  <meeko>  (9) 
{"is_sidechain": [false], "free_energy": -7.496, "intermolecular_energy": -8.778, "internal_energy": -0.466}

$$$$
