1ydr_ligand
     RDKit          3D

 38 40  0  0  0  0  0  0  0  0999 V2000
   10.7460    7.9850    1.4250 C   0  0  0  0  0  0  0  0  0  0  0  0
   10.3370    8.1030    2.8900 C   0  0  1  0  0  0  0  0  0  0  0  0
   11.4490    7.5830    3.8380 C   0  0  0  0  0  0  0  0  0  0  0  0
   11.5070    8.4010    5.0940 N   0  0  0  0  0  0  0  0  0  0  0  0
   11.8490    9.8430    4.8450 C   0  0  0  0  0  0  0  0  0  0  0  0
   11.1280   10.3800    3.5910 C   0  0  0  0  0  0  0  0  0  0  0  0
    9.9490    9.5410    3.1820 N   0  0  0  0  0  0  0  0  0  0  0  0
    8.5490    9.6700    4.1750 S   0  0  0  0  0  0  0  0  0  0  0  0
    8.7450   10.9360    4.8630 O   0  0  0  0  0  0  0  0  0  0  0  0
    8.4230    8.4420    4.9230 O   0  0  0  0  0  0  0  0  0  0  0  0
    7.2000    9.8040    3.0340 C   0  0  0  0  0  0  0  0  0  0  0  0
    7.5220    9.8620    1.6690 C   0  0  0  0  0  0  0  0  0  0  0  0
    6.5090    9.9160    0.7190 C   0  0  0  0  0  0  0  0  0  0  0  0
    5.1790    9.9080    1.1290 C   0  0  0  0  0  0  0  0  0  0  0  0
    4.8430    9.8630    2.4940 C   0  0  0  0  0  0  0  0  0  0  0  0
    3.5080    9.8600    2.9060 C   0  0  0  0  0  0  0  0  0  0  0  0
    3.1020    9.8220    4.1920 N   0  0  0  0  0  0  0  0  0  0  0  0
    4.0650    9.8110    5.1280 C   0  0  0  0  0  0  0  0  0  0  0  0
    5.4200    9.8070    4.8330 C   0  0  0  0  0  0  0  0  0  0  0  0
    5.8500    9.8220    3.4840 C   0  0  0  0  0  0  0  0  0  0  0  0
   11.8012    7.6806    1.3623 H   0  0  0  0  0  0  0  0  0  0  0  0
   10.1169    7.2317    0.9282 H   0  0  0  0  0  0  0  0  0  0  0  0
   10.6148    8.9576    0.9282 H   0  0  0  0  0  0  0  0  0  0  0  0
    9.4629    7.4621    3.0778 H   0  0  0  0  0  0  0  0  0  0  0  0
   11.2384    6.5355    4.0997 H   0  0  0  0  0  0  0  0  0  0  0  0
   12.4169    7.6627    3.3215 H   0  0  0  0  0  0  0  0  0  0  0  0
   12.1340    7.9860    5.7930 H   0  0  0  0  0  0  0  0  0  0  0  0
   10.5600    8.4040    5.5310 H   0  0  0  0  0  0  0  0  0  0  0  0
   11.5438   10.4397    5.7172 H   0  0  0  0  0  0  0  0  0  0  0  0
   12.9341    9.9201    4.6821 H   0  0  0  0  0  0  0  0  0  0  0  0
   10.7752   11.4006    3.8005 H   0  0  0  0  0  0  0  0  0  0  0  0
   11.8507   10.3552    2.7621 H   0  0  0  0  0  0  0  0  0  0  0  0
    8.5752    9.8647    1.3515 H   0  0  0  0  0  0  0  0  0  0  0  0
    6.7572    9.9648   -0.3515 H   0  0  0  0  0  0  0  0  0  0  0  0
    4.3790    9.9373    0.3745 H   0  0  0  0  0  0  0  0  0  0  0  0
    2.7327    9.8908    2.1263 H   0  0  0  0  0  0  0  0  0  0  0  0
    3.7627    9.8048    6.1856 H   0  0  0  0  0  0  0  0  0  0  0  0
    6.1603    9.7922    5.6465 H   0  0  0  0  0  0  0  0  0  0  0  0
  1  2  1  0
  2  3  1  0
  3  4  1  0
  4  5  1  0
  5  6  1  0
  6  7  1  0
  7  8  1  0
  8  9  2  0
  8 10  2  0
  8 11  1  0
 11 12  2  0
 12 13  1  0
 13 14  2  0
 14 15  1  0
 15 16  2  0
 16 17  1  0
 17 18  2  0
 18 19  1  0
 19 20  2  0
  7  2  1  0
 20 11  1  0
 20 15  1  0
  1 21  1  0
  1 22  1  0
  1 23  1  0
  2 24  1  6
  3 25  1  0
  3 26  1  0
  4 27  1  0
  4 28  1  0
  5 29  1  0
  5 30  1  0
  6 31  1  0
  6 32  1  0
 12 33  1  0
 13 34  1  0
 14 35  1  0
 16 36  1  0
 18 37  1  0
 19 38  1  0
M  CHG  1   4   1
M  END
>  <meeko>  (1) 
{"is_sidechain": [false], "free_energy": -8.604, "intermolecular_energy": -9.61, "internal_energy": -0.546}

$$$$
1ydr_ligand
     RDKit          3D

 38 40  0  0  0  0  0  0  0  0999 V2000
   11.5650   10.5740    2.1090 C   0  0  0  0  0  0  0  0  0  0  0  0
   11.2560    9.0940    2.3100 C   0  0  1  0  0  0  0  0  0  0  0  0
   12.5050    8.2100    2.0500 C   0  0  0  0  0  0  0  0  0  0  0  0
   12.5360    7.0400    2.9870 N   0  0  0  0  0  0  0  0  0  0  0  0
   12.6350    7.4410    4.4310 C   0  0  0  0  0  0  0  0  0  0  0  0
   11.7460    8.6650    4.7340 C   0  0  0  0  0  0  0  0  0  0  0  0
   10.6790    8.8920    3.6990 N   0  0  0  0  0  0  0  0  0  0  0  0
    9.3570    7.7890    3.7220 S   0  0  0  0  0  0  0  0  0  0  0  0
    9.4920    7.1370    5.0140 O   0  0  0  0  0  0  0  0  0  0  0  0
    9.4030    7.0180    2.5040 O   0  0  0  0  0  0  0  0  0  0  0  0
    7.9150    8.8180    3.7110 C   0  0  0  0  0  0  0  0  0  0  0  0
    7.2450    8.9900    4.9320 C   0  0  0  0  0  0  0  0  0  0  0  0
    6.1370    9.8270    5.0040 C   0  0  0  0  0  0  0  0  0  0  0  0
    5.7010   10.4930    3.8630 C   0  0  0  0  0  0  0  0  0  0  0  0
    6.3570   10.3200    2.6300 C   0  0  0  0  0  0  0  0  0  0  0  0
    5.9180   10.9860    1.4830 C   0  0  0  0  0  0  0  0  0  0  0  0
    6.4870   10.8720    0.2650 N   0  0  0  0  0  0  0  0  0  0  0  0
    7.5340   10.0370    0.1650 C   0  0  0  0  0  0  0  0  0  0  0  0
    8.0560    9.3300    1.2380 C   0  0  0  0  0  0  0  0  0  0  0  0
    7.4770    9.4650    2.5220 C   0  0  0  0  0  0  0  0  0  0  0  0
   11.6672   11.0636    3.0887 H   0  0  0  0  0  0  0  0  0  0  0  0
   12.5045   10.6793    1.5467 H   0  0  0  0  0  0  0  0  0  0  0  0
   10.7461   11.0465    1.5467 H   0  0  0  0  0  0  0  0  0  0  0  0
   10.5053    8.7735    1.5726 H   0  0  0  0  0  0  0  0  0  0  0  0
   12.4761    7.8412    1.0141 H   0  0  0  0  0  0  0  0  0  0  0  0
   13.4068    8.8177    2.2161 H   0  0  0  0  0  0  0  0  0  0  0  0
   13.2710    6.3670    2.7370 H   0  0  0  0  0  0  0  0  0  0  0  0
   11.6360    6.5200    2.8970 H   0  0  0  0  0  0  0  0  0  0  0  0
   12.3116    6.5985    5.0600 H   0  0  0  0  0  0  0  0  0  0  0  0
   13.6800    7.7084    4.6467 H   0  0  0  0  0  0  0  0  0  0  0  0
   11.2605    8.5118    5.7091 H   0  0  0  0  0  0  0  0  0  0  0  0
   12.3976    9.5512    4.7320 H   0  0  0  0  0  0  0  0  0  0  0  0
    7.5961    8.4631    5.8315 H   0  0  0  0  0  0  0  0  0  0  0  0
    5.6076    9.9619    5.9587 H   0  0  0  0  0  0  0  0  0  0  0  0
    4.8316   11.1640    3.9255 H   0  0  0  0  0  0  0  0  0  0  0  0
    5.0467   11.6504    1.5798 H   0  0  0  0  0  0  0  0  0  0  0  0
    8.0031    9.9067   -0.8214 H   0  0  0  0  0  0  0  0  0  0  0  0
    8.9196    8.6647    1.0909 H   0  0  0  0  0  0  0  0  0  0  0  0
  1  2  1  0
  2  3  1  0
  3  4  1  0
  4  5  1  0
  5  6  1  0
  6  7  1  0
  7  8  1  0
  8  9  2  0
  8 10  2  0
  8 11  1  0
 11 12  2  0
 12 13  1  0
 13 14  2  0
 14 15  1  0
 15 16  2  0
 16 17  1  0
 17 18  2  0
 18 19  1  0
 19 20  2  0
  7  2  1  0
 20 11  1  0
 20 15  1  0
  1 21  1  0
  1 22  1  0
  1 23  1  0
  2 24  1  6
  3 25  1  0
  3 26  1  0
  4 27  1  0
  4 28  1  0
  5 29  1  0
  5 30  1  0
  6 31  1  0
  6 32  1  0
 12 33  1  0
 13 34  1  0
 14 35  1  0
 16 36  1  0
 18 37  1  0
 19 38  1  0
M  CHG  1   4   1
M  END
>  <meeko>  (2) 
{"is_sidechain": [false], "free_energy": -8.036, "intermolecular_energy": -9.333, "internal_energy": -0.189}

$$$$
1ydr_ligand
     RDKit          3D

 38 40  0  0  0  0  0  0  0  0999 V2000
   11.7970   11.3200    2.9310 C   0  0  0  0  0  0  0  0  0  0  0  0
   11.6950    9.8690    2.4720 C   0  0  1  0  0  0  0  0  0  0  0  0
   13.0930    9.2100    2.3420 C   0  0  0  0  0  0  0  0  0  0  0  0
   13.0450    7.7670    2.7490 N   0  0  0  0  0  0  0  0  0  0  0  0
   12.6520    7.5710    4.1850 C   0  0  0  0  0  0  0  0  0  0  0  0
   11.5240    8.5400    4.5940 C   0  0  0  0  0  0  0  0  0  0  0  0
   10.7810    9.1120    3.4190 N   0  0  0  0  0  0  0  0  0  0  0  0
    9.7120    8.0380    2.6030 S   0  0  0  0  0  0  0  0  0  0  0  0
    9.2910    7.1260    3.6550 O   0  0  0  0  0  0  0  0  0  0  0  0
   10.3920    7.5410    1.4320 O   0  0  0  0  0  0  0  0  0  0  0  0
    8.3490    9.0540    2.1040 C   0  0  0  0  0  0  0  0  0  0  0  0
    8.3050    9.4470    0.7570 C   0  0  0  0  0  0  0  0  0  0  0  0
    7.2360   10.2020    0.2890 C   0  0  0  0  0  0  0  0  0  0  0  0
    6.2110   10.5600    1.1610 C   0  0  0  0  0  0  0  0  0  0  0  0
    6.2490   10.1820    2.5150 C   0  0  0  0  0  0  0  0  0  0  0  0
    5.2230   10.5440    3.3910 C   0  0  0  0  0  0  0  0  0  0  0  0
    5.1850   10.2270    4.7020 N   0  0  0  0  0  0  0  0  0  0  0  0
    6.2290    9.5330    5.1840 C   0  0  0  0  0  0  0  0  0  0  0  0
    7.2980    9.1170    4.4050 C   0  0  0  0  0  0  0  0  0  0  0  0
    7.3300    9.4270    3.0240 C   0  0  0  0  0  0  0  0  0  0  0  0
   11.7996   11.3575    4.0304 H   0  0  0  0  0  0  0  0  0  0  0  0
   12.7284   11.7615    2.5468 H   0  0  0  0  0  0  0  0  0  0  0  0
   10.9365   11.8875    2.5468 H   0  0  0  0  0  0  0  0  0  0  0  0
   11.2559    9.8356    1.4640 H   0  0  0  0  0  0  0  0  0  0  0  0
   13.4274    9.2782    1.2963 H   0  0  0  0  0  0  0  0  0  0  0  0
   13.7936    9.7388    3.0049 H   0  0  0  0  0  0  0  0  0  0  0  0
   13.9220    7.2780    2.5330 H   0  0  0  0  0  0  0  0  0  0  0  0
   12.3100    7.2890    2.1850 H   0  0  0  0  0  0  0  0  0  0  0  0
   12.3038    6.5368    4.3233 H   0  0  0  0  0  0  0  0  0  0  0  0
   13.5298    7.7735    4.8162 H   0  0  0  0  0  0  0  0  0  0  0  0
   10.8090    7.9964    5.2290 H   0  0  0  0  0  0  0  0  0  0  0  0
   11.9921    9.3812    5.1263 H   0  0  0  0  0  0  0  0  0  0  0  0
    9.1160    9.1576    0.0724 H   0  0  0  0  0  0  0  0  0  0  0  0
    7.1998   10.5151   -0.7649 H   0  0  0  0  0  0  0  0  0  0  0  0
    5.3597   11.1467    0.7854 H   0  0  0  0  0  0  0  0  0  0  0  0
    4.3860   11.1295    2.9828 H   0  0  0  0  0  0  0  0  0  0  0  0
    6.2364    9.2810    6.2547 H   0  0  0  0  0  0  0  0  0  0  0  0
    8.1210    8.5463    4.8599 H   0  0  0  0  0  0  0  0  0  0  0  0
  1  2  1  0
  2  3  1  0
  3  4  1  0
  4  5  1  0
  5  6  1  0
  6  7  1  0
  7  8  1  0
  8  9  2  0
  8 10  2  0
  8 11  1  0
 11 12  2  0
 12 13  1  0
 13 14  2  0
 14 15  1  0
 15 16  2  0
 16 17  1  0
 17 18  2  0
 18 19  1  0
 19 20  2  0
  7  2  1  0
 20 11  1  0
 20 15  1  0
  1 21  1  0
  1 22  1  0
  1 23  1  0
  2 24  1  6
  3 25  1  0
  3 26  1  0
  4 27  1  0
  4 28  1  0
  5 29  1  0
  5 30  1  0
  6 31  1  0
  6 32  1  0
 12 33  1  0
 13 34  1  0
 14 35  1  0
 16 36  1  0
 18 37  1  0
 19 38  1  0
M  CHG  1   4   1
M  END
>  <meeko>  (3) 
{"is_sidechain": [false], "free_energy": -7.677, "intermolecular_energy": -8.831, "internal_energy": -0.29}

$$$$
1ydr_ligand
     RDKit          3D

 38 40  0  0  0  0  0  0  0  0999 V2000
   12.1510   12.1840    2.5150 C   0  0  0  0  0  0  0  0  0  0  0  0
   11.5720   11.1290    1.5770 C   0  0  1  0  0  0  0  0  0  0  0  0
   12.6300   10.6280    0.5580 C   0  0  0  0  0  0  0  0  0  0  0  0
   12.4500    9.1670    0.2750 N   0  0  0  0  0  0  0  0  0  0  0  0
   12.6370    8.3020    1.4890 C   0  0  0  0  0  0  0  0  0  0  0  0
   11.9970    8.9450    2.7370 C   0  0  0  0  0  0  0  0  0  0  0  0
   10.9810   10.0020    2.4030 N   0  0  0  0  0  0  0  0  0  0  0  0
    9.4760    9.4370    1.7870 S   0  0  0  0  0  0  0  0  0  0  0  0
    9.6810    8.0010    1.6770 O   0  0  0  0  0  0  0  0  0  0  0  0
    9.1520   10.2230    0.6220 O   0  0  0  0  0  0  0  0  0  0  0  0
    8.3070    9.7830    3.0730 C   0  0  0  0  0  0  0  0  0  0  0  0
    8.8250   10.0830    4.3430 C   0  0  0  0  0  0  0  0  0  0  0  0
    7.9640   10.4150    5.3830 C   0  0  0  0  0  0  0  0  0  0  0  0
    6.5910   10.4510    5.1560 C   0  0  0  0  0  0  0  0  0  0  0  0
    6.0590   10.1410    3.8910 C   0  0  0  0  0  0  0  0  0  0  0  0
    4.6810   10.1730    3.6640 C   0  0  0  0  0  0  0  0  0  0  0  0
    4.0910    9.8860    2.4850 N   0  0  0  0  0  0  0  0  0  0  0  0
    4.9010    9.5230    1.4780 C   0  0  0  0  0  0  0  0  0  0  0  0
    6.2820    9.4620    1.5900 C   0  0  0  0  0  0  0  0  0  0  0  0
    6.9070    9.7860    2.8180 C   0  0  0  0  0  0  0  0  0  0  0  0
   11.9834   11.8786    3.5584 H   0  0  0  0  0  0  0  0  0  0  0  0
   13.2309   12.2849    2.3314 H   0  0  0  0  0  0  0  0  0  0  0  0
   11.6561   13.1491    2.3314 H   0  0  0  0  0  0  0  0  0  0  0  0
   10.7677   11.5771    0.9751 H   0  0  0  0  0  0  0  0  0  0  0  0
   12.5223   11.1925   -0.3799 H   0  0  0  0  0  0  0  0  0  0  0  0
   13.6313   10.7823    0.9864 H   0  0  0  0  0  0  0  0  0  0  0  0
   13.0430    8.8510   -0.5010 H   0  0  0  0  0  0  0  0  0  0  0  0
   11.4680    9.0090   -0.0390 H   0  0  0  0  0  0  0  0  0  0  0  0
   12.1670    7.3240    1.3084 H   0  0  0  0  0  0  0  0  0  0  0  0
   13.7156    8.1866    1.6713 H   0  0  0  0  0  0  0  0  0  0  0  0
   11.5015    8.1560    3.3218 H   0  0  0  0  0  0  0  0  0  0  0  0
   12.8035    9.4338    3.3032 H   0  0  0  0  0  0  0  0  0  0  0  0
    9.9111   10.0554    4.5151 H   0  0  0  0  0  0  0  0  0  0  0  0
    8.3657   10.6480    6.3802 H   0  0  0  0  0  0  0  0  0  0  0  0
    5.9126   10.7257    5.9772 H   0  0  0  0  0  0  0  0  0  0  0  0
    4.0308   10.4520    4.5062 H   0  0  0  0  0  0  0  0  0  0  0  0
    4.4450    9.2598    0.5122 H   0  0  0  0  0  0  0  0  0  0  0  0
    6.8914    9.1619    0.7248 H   0  0  0  0  0  0  0  0  0  0  0  0
  1  2  1  0
  2  3  1  0
  3  4  1  0
  4  5  1  0
  5  6  1  0
  6  7  1  0
  7  8  1  0
  8  9  2  0
  8 10  2  0
  8 11  1  0
 11 12  2  0
 12 13  1  0
 13 14  2  0
 14 15  1  0
 15 16  2  0
 16 17  1  0
 17 18  2  0
 18 19  1  0
 19 20  2  0
  7  2  1  0
 20 11  1  0
 20 15  1  0
  1 21  1  0
  1 22  1  0
  1 23  1  0
  2 24  1  6
  3 25  1  0
  3 26  1  0
  4 27  1  0
  4 28  1  0
  5 29  1  0
  5 30  1  0
  6 31  1  0
  6 32  1  0
 12 33  1  0
 13 34  1  0
 14 35  1  0
 16 36  1  0
 18 37  1  0
 19 38  1  0
M  CHG  1   4   1
M  END
>  <meeko>  (4) 
{"is_sidechain": [false], "free_energy": -7.574, "intermolecular_energy": -8.798, "internal_energy": -0.208}

$$$$
1ydr_ligand
     RDKit          3D

 38 40  0  0  0  0  0  0  0  0999 V2000
    9.5220    6.5800    4.7460 C   0  0  0  0  0  0  0  0  0  0  0  0
   10.1310    7.9250    4.3640 C   0  0  1  0  0  0  0  0  0  0  0  0
   11.6760    7.9140    4.5030 C   0  0  0  0  0  0  0  0  0  0  0  0
   12.3170    8.7380    3.4270 N   0  0  0  0  0  0  0  0  0  0  0  0
   12.0460    8.2200    2.0430 C   0  0  0  0  0  0  0  0  0  0  0  0
   10.5850    7.7420    1.9020 C   0  0  0  0  0  0  0  0  0  0  0  0
    9.6760    8.2960    2.9640 N   0  0  0  0  0  0  0  0  0  0  0  0
    9.2610    9.9600    2.8120 S   0  0  0  0  0  0  0  0  0  0  0  0
    9.2480   10.1680    1.3730 O   0  0  0  0  0  0  0  0  0  0  0  0
   10.1550   10.7170    3.6540 O   0  0  0  0  0  0  0  0  0  0  0  0
    7.6140   10.0710    3.4540 C   0  0  0  0  0  0  0  0  0  0  0  0
    7.4790   10.3050    4.8320 C   0  0  0  0  0  0  0  0  0  0  0  0
    6.2150   10.4540    5.3900 C   0  0  0  0  0  0  0  0  0  0  0  0
    5.0890   10.3760    4.5770 C   0  0  0  0  0  0  0  0  0  0  0  0
    5.2090   10.1300    3.1970 C   0  0  0  0  0  0  0  0  0  0  0  0
    4.0790   10.0470    2.3810 C   0  0  0  0  0  0  0  0  0  0  0  0
    4.1070    9.8110    1.0530 N   0  0  0  0  0  0  0  0  0  0  0  0
    5.3160    9.6220    0.5000 C   0  0  0  0  0  0  0  0  0  0  0  0
    6.5030    9.6880    1.2130 C   0  0  0  0  0  0  0  0  0  0  0  0
    6.4800    9.9590    2.6020 C   0  0  0  0  0  0  0  0  0  0  0  0
    9.4827    6.4933    5.8419 H   0  0  0  0  0  0  0  0  0  0  0  0
    8.5038    6.5088    4.3358 H   0  0  0  0  0  0  0  0  0  0  0  0
   10.1402    5.7678    4.3358 H   0  0  0  0  0  0  0  0  0  0  0  0
    9.7752    8.6975    5.0616 H   0  0  0  0  0  0  0  0  0  0  0  0
   11.9520    8.3264    5.4847 H   0  0  0  0  0  0  0  0  0  0  0  0
   12.0295    6.8767    4.4082 H   0  0  0  0  0  0  0  0  0  0  0  0
   13.3240    8.8620    3.5870 H   0  0  0  0  0  0  0  0  0  0  0  0
   11.9070    9.6970    3.4570 H   0  0  0  0  0  0  0  0  0  0  0  0
   12.2321    9.0243    1.3160 H   0  0  0  0  0  0  0  0  0  0  0  0
   12.7119    7.3650    1.8545 H   0  0  0  0  0  0  0  0  0  0  0  0
   10.2070    8.0580    0.9185 H   0  0  0  0  0  0  0  0  0  0  0  0
   10.5869    6.6475    2.0114 H   0  0  0  0  0  0  0  0  0  0  0  0
    8.3732   10.3703    5.4693 H   0  0  0  0  0  0  0  0  0  0  0  0
    6.1054   10.6328    6.4698 H   0  0  0  0  0  0  0  0  0  0  0  0
    4.0906   10.5085    5.0193 H   0  0  0  0  0  0  0  0  0  0  0  0
    3.0957   10.1838    2.8548 H   0  0  0  0  0  0  0  0  0  0  0  0
    5.3672    9.4030   -0.5768 H   0  0  0  0  0  0  0  0  0  0  0  0
    7.4627    9.5298    0.6993 H   0  0  0  0  0  0  0  0  0  0  0  0
  1  2  1  0
  2  3  1  0
  3  4  1  0
  4  5  1  0
  5  6  1  0
  6  7  1  0
  7  8  1  0
  8  9  2  0
  8 10  2  0
  8 11  1  0
 11 12  2  0
 12 13  1  0
 13 14  2  0
 14 15  1  0
 15 16  2  0
 16 17  1  0
 17 18  2  0
 18 19  1  0
 19 20  2  0
  7  2  1  0
 20 11  1  0
 20 15  1  0
  1 21  1  0
  1 22  1  0
  1 23  1  0
  2 24  1  1
  3 25  1  0
  3 26  1  0
  4 27  1  0
  4 28  1  0
  5 29  1  0
  5 30  1  0
  6 31  1  0
  6 32  1  0
 12 33  1  0
 13 34  1  0
 14 35  1  0
 16 36  1  0
 18 37  1  0
 19 38  1  0
M  CHG  1   4   1
M  END
>  <meeko>  (5) 
{"is_sidechain": [false], "free_energy": -7.354, "intermolecular_energy": -8.66, "internal_energy": -0.1}

$$$$
1ydr_ligand
     RDKit          3D

 38 40  0  0  0  0  0  0  0  0999 V2000
    9.1650    6.8100    4.7940 C   0  0  0  0  0  0  0  0  0  0  0  0
    9.9220    8.0520    4.3340 C   0  0  1  0  0  0  0  0  0  0  0  0
   11.4080    8.0120    4.7760 C   0  0  0  0  0  0  0  0  0  0  0  0
   12.2930    8.6250    3.7320 N   0  0  0  0  0  0  0  0  0  0  0  0
   12.2560    7.8930    2.4210 C   0  0  0  0  0  0  0  0  0  0  0  0
   10.8210    7.4470    2.0700 C   0  0  0  0  0  0  0  0  0  0  0  0
    9.7650    8.2000    2.8320 N   0  0  0  0  0  0  0  0  0  0  0  0
    9.4960    9.8290    2.3430 S   0  0  0  0  0  0  0  0  0  0  0  0
   10.1980    9.9130    1.0720 O   0  0  0  0  0  0  0  0  0  0  0  0
    9.8630   10.6870    3.4420 O   0  0  0  0  0  0  0  0  0  0  0  0
    7.7480    9.9330    2.0740 C   0  0  0  0  0  0  0  0  0  0  0  0
    7.3000    9.8580    0.7460 C   0  0  0  0  0  0  0  0  0  0  0  0
    5.9380    9.8820    0.4710 C   0  0  0  0  0  0  0  0  0  0  0  0
    5.0250    9.9750    1.5170 C   0  0  0  0  0  0  0  0  0  0  0  0
    5.4600   10.0620    2.8510 C   0  0  0  0  0  0  0  0  0  0  0  0
    4.5440   10.1590    3.9010 C   0  0  0  0  0  0  0  0  0  0  0  0
    4.8790   10.2500    5.2050 N   0  0  0  0  0  0  0  0  0  0  0  0
    6.1910   10.2710    5.4910 C   0  0  0  0  0  0  0  0  0  0  0  0
    7.1860   10.1760    4.5290 C   0  0  0  0  0  0  0  0  0  0  0  0
    6.8390   10.0550    3.1620 C   0  0  0  0  0  0  0  0  0  0  0  0
    9.1458    6.7785    5.8934 H   0  0  0  0  0  0  0  0  0  0  0  0
    8.1348    6.8454    4.4102 H   0  0  0  0  0  0  0  0  0  0  0  0
    9.6686    5.9105    4.4102 H   0  0  0  0  0  0  0  0  0  0  0  0
    9.4923    8.9418    4.8174 H   0  0  0  0  0  0  0  0  0  0  0  0
   11.5193    8.5717    5.7164 H   0  0  0  0  0  0  0  0  0  0  0  0
   11.7050    6.9622    4.9165 H   0  0  0  0  0  0  0  0  0  0  0  0
   13.2580    8.7400    4.0670 H   0  0  0  0  0  0  0  0  0  0  0  0
   11.9490    9.5890    3.5310 H   0  0  0  0  0  0  0  0  0  0  0  0
   12.6288    8.5582    1.6282 H   0  0  0  0  0  0  0  0  0  0  0  0
   12.8881    6.9967    2.5051 H   0  0  0  0  0  0  0  0  0  0  0  0
   10.6579    7.6079    0.9941 H   0  0  0  0  0  0  0  0  0  0  0  0
   10.7308    6.3862    2.3466 H   0  0  0  0  0  0  0  0  0  0  0  0
    8.0263    9.7803   -0.0764 H   0  0  0  0  0  0  0  0  0  0  0  0
    5.5833    9.8277   -0.5688 H   0  0  0  0  0  0  0  0  0  0  0  0
    3.9473    9.9805    1.2969 H   0  0  0  0  0  0  0  0  0  0  0  0
    3.4737   10.1614    3.6469 H   0  0  0  0  0  0  0  0  0  0  0  0
    6.4928   10.3687    6.5443 H   0  0  0  0  0  0  0  0  0  0  0  0
    8.2443   10.1947    4.8284 H   0  0  0  0  0  0  0  0  0  0  0  0
  1  2  1  0
  2  3  1  0
  3  4  1  0
  4  5  1  0
  5  6  1  0
  6  7  1  0
  7  8  1  0
  8  9  2  0
  8 10  2  0
  8 11  1  0
 11 12  2  0
 12 13  1  0
 13 14  2  0
 14 15  1  0
 15 16  2  0
 16 17  1  0
 17 18  2  0
 18 19  1  0
 19 20  2  0
  7  2  1  0
 20 11  1  0
 20 15  1  0
  1 21  1  0
  1 22  1  0
  1 23  1  0
  2 24  1  1
  3 25  1  0
  3 26  1  0
  4 27  1  0
  4 28  1  0
  5 29  1  0
  5 30  1  0
  6 31  1  0
  6 32  1  0
 12 33  1  0
 13 34  1  0
 14 35  1  0
 16 36  1  0
 18 37  1  0
 19 38  1  0
M  CHG  1   4   1
M  END
>  <meeko>  (6) 
{"is_sidechain": [false], "free_energy": -7.292, "intermolecular_energy": -8.504, "internal_energy": -0.188}

$$$$
1ydr_ligand
     RDKit          3D

 38 40  0  0  0  0  0  0  0  0999 V2000
    9.9250    7.1620    2.5280 C   0  0  0  0  0  0  0  0  0  0  0  0
   10.0470    7.9030    3.8560 C   0  0  1  0  0  0  0  0  0  0  0  0
   11.4250    7.6560    4.5240 C   0  0  0  0  0  0  0  0  0  0  0  0
   11.9060    8.8870    5.2310 N   0  0  0  0  0  0  0  0  0  0  0  0
   12.1230   10.0530    4.3080 C   0  0  0  0  0  0  0  0  0  0  0  0
   11.0060   10.1420    3.2480 C   0  0  0  0  0  0  0  0  0  0  0  0
    9.7680    9.3770    3.6280 N   0  0  0  0  0  0  0  0  0  0  0  0
    8.7980   10.0750    4.8670 S   0  0  0  0  0  0  0  0  0  0  0  0
    9.2240   11.4660    4.8780 O   0  0  0  0  0  0  0  0  0  0  0  0
    8.9340    9.2580    6.0480 O   0  0  0  0  0  0  0  0  0  0  0  0
    7.1390    9.9560    4.2590 C   0  0  0  0  0  0  0  0  0  0  0  0
    6.1100    9.9130    5.2120 C   0  0  0  0  0  0  0  0  0  0  0  0
    4.7830    9.8720    4.8010 C   0  0  0  0  0  0  0  0  0  0  0  0
    4.4820    9.8780    3.4420 C   0  0  0  0  0  0  0  0  0  0  0  0
    5.5040    9.9090    2.4750 C   0  0  0  0  0  0  0  0  0  0  0  0
    5.2030    9.9110    1.1120 C   0  0  0  0  0  0  0  0  0  0  0  0
    6.1220    9.9360    0.1230 N   0  0  0  0  0  0  0  0  0  0  0  0
    7.4110    9.9340    0.4990 C   0  0  0  0  0  0  0  0  0  0  0  0
    7.8240    9.9380    1.8230 C   0  0  0  0  0  0  0  0  0  0  0  0
    6.8630    9.9360    2.8630 C   0  0  0  0  0  0  0  0  0  0  0  0
    9.7490    6.0932    2.7193 H   0  0  0  0  0  0  0  0  0  0  0  0
    9.0828    7.5752    1.9536 H   0  0  0  0  0  0  0  0  0  0  0  0
   10.8552    7.2834    1.9536 H   0  0  0  0  0  0  0  0  0  0  0  0
    9.2996    7.5123    4.5622 H   0  0  0  0  0  0  0  0  0  0  0  0
   11.3305    6.8366    5.2518 H   0  0  0  0  0  0  0  0  0  0  0  0
   12.1524    7.3937    3.7417 H   0  0  0  0  0  0  0  0  0  0  0  0
   12.7420    8.7020    5.7990 H   0  0  0  0  0  0  0  0  0  0  0  0
   11.1700    9.1900    5.9050 H   0  0  0  0  0  0  0  0  0  0  0  0
   12.1318   10.9810    4.8985 H   0  0  0  0  0  0  0  0  0  0  0  0
   13.0834    9.9129    3.7904 H   0  0  0  0  0  0  0  0  0  0  0  0
   10.7359   11.1997    3.1124 H   0  0  0  0  0  0  0  0  0  0  0  0
   11.3965    9.6940    2.3224 H   0  0  0  0  0  0  0  0  0  0  0  0
    6.3537    9.9117    6.2847 H   0  0  0  0  0  0  0  0  0  0  0  0
    3.9745    9.8350    5.5460 H   0  0  0  0  0  0  0  0  0  0  0  0
    3.4306    9.8582    3.1194 H   0  0  0  0  0  0  0  0  0  0  0  0
    4.1418    9.8908    0.8230 H   0  0  0  0  0  0  0  0  0  0  0  0
    8.1816    9.9289   -0.2860 H   0  0  0  0  0  0  0  0  0  0  0  0
    8.8970    9.9427    2.0650 H   0  0  0  0  0  0  0  0  0  0  0  0
  1  2  1  0
  2  3  1  0
  3  4  1  0
  4  5  1  0
  5  6  1  0
  6  7  1  0
  7  8  1  0
  8  9  2  0
  8 10  2  0
  8 11  1  0
 11 12  2  0
 12 13  1  0
 13 14  2  0
 14 15  1  0
 15 16  2  0
 16 17  1  0
 17 18  2  0
 18 19  1  0
 19 20  2  0
  7  2  1  0
 20 11  1  0
 20 15  1  0
  1 21  1  0
  1 22  1  0
  1 23  1  0
  2 24  1  1
  3 25  1  0
  3 26  1  0
  4 27  1  0
  4 28  1  0
  5 29  1  0
  5 30  1  0
  6 31  1  0
  6 32  1  0
 12 33  1  0
 13 34  1  0
 14 35  1  0
 16 36  1  0
 18 37  1  0
 19 38  1  0
M  CHG  1   4   1
M  END
>  <meeko>  (7) 
{"is_sidechain": [false], "free_energy": -7.228, "intermolecular_energy": -8.791, "internal_energy": 0.172}

$$$$
1ydr_ligand
     RDKit          3D

 38 40  0  0  0  0  0  0  0  0999 V2000
   11.8640   10.9130    3.5090 C   0  0  0  0  0  0  0  0  0  0  0  0
   11.4220   10.8470    2.0500 C   0  0  1  0  0  0  0  0  0  0  0  0
   12.2490   11.8100    1.1580 C   0  0  0  0  0  0  0  0  0  0  0  0
   12.4860   11.2140   -0.1970 N   0  0  0  0  0  0  0  0  0  0  0  0
   13.2850    9.9420   -0.1520 C   0  0  0  0  0  0  0  0  0  0  0  0
   12.8530    9.0530    1.0330 C   0  0  0  0  0  0  0  0  0  0  0  0
   11.4950    9.4070    1.5750 N   0  0  0  0  0  0  0  0  0  0  0  0
   10.1500    8.9540    0.6010 S   0  0  0  0  0  0  0  0  0  0  0  0
   10.2370    7.5020    0.5710 O   0  0  0  0  0  0  0  0  0  0  0  0
   10.2110    9.7170   -0.6210 O   0  0  0  0  0  0  0  0  0  0  0  0
    8.7310    9.4540    1.5370 C   0  0  0  0  0  0  0  0  0  0  0  0
    7.7560   10.2070    0.8650 C   0  0  0  0  0  0  0  0  0  0  0  0
    6.5940   10.5870    1.5270 C   0  0  0  0  0  0  0  0  0  0  0  0
    6.4040   10.2130    2.8540 C   0  0  0  0  0  0  0  0  0  0  0  0
    7.3790    9.4690    3.5430 C   0  0  0  0  0  0  0  0  0  0  0  0
    7.1900    9.0980    4.8760 C   0  0  0  0  0  0  0  0  0  0  0  0
    8.0750    8.3890    5.6080 N   0  0  0  0  0  0  0  0  0  0  0  0
    9.2220    8.0470    5.0000 C   0  0  0  0  0  0  0  0  0  0  0  0
    9.5130    8.3590    3.6800 C   0  0  0  0  0  0  0  0  0  0  0  0
    8.5760    9.0810    2.9010 C   0  0  0  0  0  0  0  0  0  0  0  0
   10.9895   10.7824    4.1633 H   0  0  0  0  0  0  0  0  0  0  0  0
   12.5932   10.1138    3.7077 H   0  0  0  0  0  0  0  0  0  0  0  0
   12.3279   11.8904    3.7077 H   0  0  0  0  0  0  0  0  0  0  0  0
   10.3793   11.1878    1.9682 H   0  0  0  0  0  0  0  0  0  0  0  0
   11.6997   12.7562    1.0441 H   0  0  0  0  0  0  0  0  0  0  0  0
   13.2223   11.9860    1.6394 H   0  0  0  0  0  0  0  0  0  0  0  0
   12.9030   11.8920   -0.8460 H   0  0  0  0  0  0  0  0  0  0  0  0
   11.5640   10.9570   -0.6110 H   0  0  0  0  0  0  0  0  0  0  0  0
   13.1317    9.3886   -1.0902 H   0  0  0  0  0  0  0  0  0  0  0  0
   14.3462   10.2017   -0.0237 H   0  0  0  0  0  0  0  0  0  0  0  0
   12.8328    8.0062    0.6956 H   0  0  0  0  0  0  0  0  0  0  0  0
   13.5800    9.2120    1.8431 H   0  0  0  0  0  0  0  0  0  0  0  0
    7.9110   10.4964   -0.1849 H   0  0  0  0  0  0  0  0  0  0  0  0
    5.8289   11.1801    1.0047 H   0  0  0  0  0  0  0  0  0  0  0  0
    5.4779   10.5034    3.3716 H   0  0  0  0  0  0  0  0  0  0  0  0
    6.2534    9.4054    5.3641 H   0  0  0  0  0  0  0  0  0  0  0  0
    9.9718    7.4890    5.5800 H   0  0  0  0  0  0  0  0  0  0  0  0
   10.4707    8.0459    3.2387 H   0  0  0  0  0  0  0  0  0  0  0  0
  1  2  1  0
  2  3  1  0
  3  4  1  0
  4  5  1  0
  5  6  1  0
  6  7  1  0
  7  8  1  0
  8  9  2  0
  8 10  2  0
  8 11  1  0
 11 12  2  0
 12 13  1  0
 13 14  2  0
 14 15  1  0
 15 16  2  0
 16 17  1  0
 17 18  2  0
 18 19  1  0
 19 20  2  0
  7  2  1  0
 20 11  1  0
 20 15  1  0
  1 21  1  0
  1 22  1  0
  1 23  1  0
  2 24  1  1
  3 25  1  0
  3 26  1  0
  4 27  1  0
  4 28  1  0
  5 29  1  0
  5 30  1  0
  6 31  1  0
  6 32  1  0
 12 33  1  0
 13 34  1  0
 14 35  1  0
 16 36  1  0
 18 37  1  0
 19 38  1  0
M  CHG  1   4   1
M  END
>  <meeko>  (8) 
{"is_sidechain": [false], "free_energy": -6.667, "intermolecular_energy": -8.025, "internal_energy": 0.032}

$$$$
1ydr_ligand
     RDKit          3D

 38 40  0  0  0  0  0  0  0  0999 V2000
    6.2500   10.8810    4.8560 C   0  0  0  0  0  0  0  0  0  0  0  0
    6.1250    9.9010    3.6950 C   0  0  1  0  0  0  0  0  0  0  0  0
    4.6420    9.6520    3.3130 C   0  0  0  0  0  0  0  0  0  0  0  0
    4.4930    9.4780    1.8320 N   0  0  0  0  0  0  0  0  0  0  0  0
    4.8990   10.6940    1.0490 C   0  0  0  0  0  0  0  0  0  0  0  0
    6.1690   11.3400    1.6390 C   0  0  0  0  0  0  0  0  0  0  0  0
    6.9490   10.4090    2.5260 N   0  0  0  0  0  0  0  0  0  0  0  0
    7.8230    9.1590    1.7280 S   0  0  0  0  0  0  0  0  0  0  0  0
    7.2660    9.1710    0.3840 O   0  0  0  0  0  0  0  0  0  0  0  0
    7.7420    7.9720    2.5440 O   0  0  0  0  0  0  0  0  0  0  0  0
    9.4980    9.7350    1.6930 C   0  0  0  0  0  0  0  0  0  0  0  0
    9.9690   10.2560    0.4780 C   0  0  0  0  0  0  0  0  0  0  0  0
   11.2570   10.7720    0.3970 C   0  0  0  0  0  0  0  0  0  0  0  0
   12.0710   10.7730    1.5250 C   0  0  0  0  0  0  0  0  0  0  0  0
   11.6160   10.2430    2.7460 C   0  0  0  0  0  0  0  0  0  0  0  0
   12.4340   10.2400    3.8780 C   0  0  0  0  0  0  0  0  0  0  0  0
   12.0760    9.7480    5.0820 N   0  0  0  0  0  0  0  0  0  0  0  0
   10.8510    9.2070    5.1720 C   0  0  0  0  0  0  0  0  0  0  0  0
    9.9540    9.1610    4.1150 C   0  0  0  0  0  0  0  0  0  0  0  0
   10.3170    9.6970    2.8560 C   0  0  0  0  0  0  0  0  0  0  0  0
    6.1801   10.3332    5.8073 H   0  0  0  0  0  0  0  0  0  0  0  0
    7.2210   11.3948    4.7992 H   0  0  0  0  0  0  0  0  0  0  0  0
    5.4391   11.6221    4.7992 H   0  0  0  0  0  0  0  0  0  0  0  0
    6.5217    8.9216    4.0005 H   0  0  0  0  0  0  0  0  0  0  0  0
    4.2874    8.7424    3.8199 H   0  0  0  0  0  0  0  0  0  0  0  0
    4.0475   10.5230    3.6260 H   0  0  0  0  0  0  0  0  0  0  0  0
    3.5470    9.1700    1.5750 H   0  0  0  0  0  0  0  0  0  0  0  0
    5.1310    8.7140    1.5220 H   0  0  0  0  0  0  0  0  0  0  0  0
    5.0967   10.4004    0.0075 H   0  0  0  0  0  0  0  0  0  0  0  0
    4.0810   11.4278    1.0970 H   0  0  0  0  0  0  0  0  0  0  0  0
    6.8175   11.6578    0.8093 H   0  0  0  0  0  0  0  0  0  0  0  0
    5.8463   12.1892    2.2593 H   0  0  0  0  0  0  0  0  0  0  0  0
    9.3193   10.2560   -0.4096 H   0  0  0  0  0  0  0  0  0  0  0  0
   11.6309   11.1777   -0.5546 H   0  0  0  0  0  0  0  0  0  0  0  0
   13.0851   11.1943    1.4613 H   0  0  0  0  0  0  0  0  0  0  0  0
   13.4420   10.6694    3.7809 H   0  0  0  0  0  0  0  0  0  0  0  0
   10.5417    8.7769    6.1360 H   0  0  0  0  0  0  0  0  0  0  0  0
    8.9613    8.7083    4.2549 H   0  0  0  0  0  0  0  0  0  0  0  0
  1  2  1  0
  2  3  1  0
  3  4  1  0
  4  5  1  0
  5  6  1  0
  6  7  1  0
  7  8  1  0
  8  9  2  0
  8 10  2  0
  8 11  1  0
 11 12  2  0
 12 13  1  0
 13 14  2  0
 14 15  1  0
 15 16  2  0
 16 17  1  0
 17 18  2  0
 18 19  1  0
 19 20  2  0
  7  2  1  0
 20 11  1  0
 20 15  1  0
  1 21  1  0
  1 22  1  0
  1 23  1  0
  2 24  1  1
  3 25  1  0
  3 26  1  0
  4 27  1  0
  4 28  1  0
  5 29  1  0
  5 30  1  0
  6 31  1  0
  6 32  1  0
 12 33  1  0
 13 34  1  0
 14 35  1  0
 16 36  1  0
 18 37  1  0
 19 38  1  0
M  CHG  1   4   1
M  END
>  <meeko>  (9) 
{"is_sidechain": [false], "free_energy": -5.91, "intermolecular_energy": -7.103, "internal_energy": -0.044}

$$$$
