3b1m_ligand
     RDKit          3D

 65 69  0  0  0  0  0  0  0  0999 V2000
   10.3800   50.6370   55.3960 C   0  0  0  0  0  0  0  0  0  0  0  0
   10.0840   50.5790   56.8880 C   0  0  0  0  0  0  0  0  0  0  0  0
    9.0510   49.5220   57.2220 C   0  0  0  0  0  0  0  0  0  0  0  0
    7.7020   49.8980   57.1680 C   0  0  0  0  0  0  0  0  0  0  0  0
    6.6920   48.9830   57.4490 C   0  0  0  0  0  0  0  0  0  0  0  0
    6.9950   47.6600   57.7840 C   0  0  0  0  0  0  0  0  0  0  0  0
    5.9540   46.7530   58.0420 C   0  0  0  0  0  0  0  0  0  0  0  0
    6.2190   45.4250   58.3670 C   0  0  0  0  0  0  0  0  0  0  0  0
    7.5330   44.9890   58.4370 C   0  0  0  0  0  0  0  0  0  0  0  0
    8.5790   45.8830   58.1860 C   0  0  0  0  0  0  0  0  0  0  0  0
    8.3480   47.2420   57.8590 C   0  0  0  0  0  0  0  0  0  0  0  0
    9.3880   48.1970   57.5970 C   0  0  0  0  0  0  0  0  0  0  0  0
   10.8400   47.7680   57.6710 C   0  0  0  0  0  0  0  0  0  0  0  0
   11.3380   47.8840   59.0210 N   0  0  0  0  0  0  0  0  0  0  0  0
   12.6570   47.6270   59.3190 C   0  0  0  0  0  0  0  0  0  0  0  0
   13.4340   47.1530   58.4980 O   0  0  0  0  0  0  0  0  0  0  0  0
   13.1030   47.9630   60.7040 C   0  0  0  0  0  0  0  0  0  0  0  0
   12.3680   47.6350   61.8680 C   0  0  0  0  0  0  0  0  0  0  0  0
   11.1820   46.9660   61.6890 O   0  0  0  0  0  0  0  0  0  0  0  0
   10.6430   46.2350   62.7840 C   0  0  0  0  0  0  0  0  0  0  0  0
   12.8680   47.9890   63.1410 C   0  0  0  0  0  0  0  0  0  0  0  0
   14.0780   48.6750   63.2690 C   0  0  0  0  0  0  0  0  0  0  0  0
   14.5970   48.9710   64.4900 O   0  0  0  0  0  0  0  0  0  0  0  0
   14.7800   49.0250   62.1380 C   0  0  0  0  0  0  0  0  0  0  0  0
   14.2970   48.6540   60.8750 C   0  0  0  0  0  0  0  0  0  0  0  0
   15.1610   49.0500   59.8720 O   0  0  0  0  0  0  0  0  0  0  0  0
   16.1450   49.8240   60.4710 C   0  0  0  0  0  0  0  0  0  0  0  0
   16.8530   50.7520   59.8180 C   0  0  0  0  0  0  0  0  0  0  0  0
   17.5710   51.7500   60.5790 C   0  0  0  0  0  0  0  0  0  0  0  0
   18.4830   52.4450   59.8170 O   0  0  0  0  0  0  0  0  0  0  0  0
   17.2790   52.0100   61.8730 C   0  0  0  0  0  0  0  0  0  0  0  0
   17.9830   53.1100   62.5910 C   0  0  0  0  0  0  0  0  0  0  0  0
   18.6840   52.8190   63.8920 C   0  0  0  0  0  0  0  0  0  0  0  0
   18.0000   54.2460   62.1060 O   0  0  0  0  0  0  0  0  0  0  0  0
   16.2300   51.1450   62.5170 C   0  0  0  0  0  0  0  0  0  0  0  0
   15.5630   51.5930   63.4480 O   0  0  0  0  0  0  0  0  0  0  0  0
   16.1040   49.7130   61.9820 C   0  0  1  0  0  0  0  0  0  0  0  0
   17.2450   48.8390   62.5210 C   0  0  0  0  0  0  0  0  0  0  0  0
   11.4489   50.8464   55.2421 H   0  0  0  0  0  0  0  0  0  0  0  0
   10.1252   49.6719   54.9338 H   0  0  0  0  0  0  0  0  0  0  0  0
    9.7798   51.4346   54.9338 H   0  0  0  0  0  0  0  0  0  0  0  0
   11.0152   50.3477   57.4259 H   0  0  0  0  0  0  0  0  0  0  0  0
    9.6804   51.5560   57.1921 H   0  0  0  0  0  0  0  0  0  0  0  0
    7.4377   50.9315   56.8996 H   0  0  0  0  0  0  0  0  0  0  0  0
    5.6410   49.3050   57.4070 H   0  0  0  0  0  0  0  0  0  0  0  0
    4.9109   47.0978   57.9864 H   0  0  0  0  0  0  0  0  0  0  0  0
    5.3921   44.7275   58.5666 H   0  0  0  0  0  0  0  0  0  0  0  0
    7.7528   43.9412   58.6896 H   0  0  0  0  0  0  0  0  0  0  0  0
    9.6153   45.5188   58.2444 H   0  0  0  0  0  0  0  0  0  0  0  0
   10.9244   46.7212   57.3436 H   0  0  0  0  0  0  0  0  0  0  0  0
   11.4357   48.4216   57.0168 H   0  0  0  0  0  0  0  0  0  0  0  0
   10.8120   48.4570   59.6700 H   0  0  0  0  0  0  0  0  0  0  0  0
   10.9778   46.6891   63.7283 H   0  0  0  0  0  0  0  0  0  0  0  0
    9.5443   46.2584   62.7352 H   0  0  0  0  0  0  0  0  0  0  0  0
   10.9901   45.1923   62.7352 H   0  0  0  0  0  0  0  0  0  0  0  0
   12.2974   47.7211   64.0425 H   0  0  0  0  0  0  0  0  0  0  0  0
   15.0740   49.8160   64.4430 H   0  0  0  0  0  0  0  0  0  0  0  0
   16.8885   50.7559   58.7186 H   0  0  0  0  0  0  0  0  0  0  0  0
   19.1580   52.8360   60.4180 H   0  0  0  0  0  0  0  0  0  0  0  0
   18.0273   53.0916   64.7313 H   0  0  0  0  0  0  0  0  0  0  0  0
   18.9240   51.7469   63.9474 H   0  0  0  0  0  0  0  0  0  0  0  0
   19.6127   53.4059   63.9474 H   0  0  0  0  0  0  0  0  0  0  0  0
   17.2285   48.8517   63.6208 H   0  0  0  0  0  0  0  0  0  0  0  0
   17.1159   47.8065   62.1642 H   0  0  0  0  0  0  0  0  0  0  0  0
   18.2083   49.2325   62.1642 H   0  0  0  0  0  0  0  0  0  0  0  0
  1  2  1  0
  2  3  1  0
  3  4  2  0
  4  5  1  0
  5  6  2  0
  6  7  1  0
  7  8  2  0
  8  9  1  0
  9 10  2  0
 10 11  1  0
 11 12  2  0
 12 13  1  0
 13 14  1  0
 14 15  1  0
 15 16  2  0
 15 17  1  0
 17 18  2  0
 18 19  1  0
 19 20  1  0
 18 21  1  0
 21 22  2  0
 22 23  1  0
 22 24  1  0
 24 25  2  0
 25 26  1  0
 26 27  1  0
 27 28  2  0
 28 29  1  0
 29 30  1  0
 29 31  2  0
 31 32  1  0
 32 33  1  0
 32 34  2  0
 31 35  1  0
 35 36  2  0
 35 37  1  0
 37 38  1  1
 12  3  1  0
 25 17  1  0
 37 27  1  0
 11  6  1  0
 37 24  1  0
  1 39  1  0
  1 40  1  0
  1 41  1  0
  2 42  1  0
  2 43  1  0
  4 44  1  0
  5 45  1  0
  7 46  1  0
  8 47  1  0
  9 48  1  0
 10 49  1  0
 13 50  1  0
 13 51  1  0
 14 52  1  0
 20 53  1  0
 20 54  1  0
 20 55  1  0
 21 56  1  0
 23 57  1  0
 28 58  1  0
 30 59  1  0
 33 60  1  0
 33 61  1  0
 33 62  1  0
 38 63  1  0
 38 64  1  0
 38 65  1  0
M  END
>  <meeko>  (1) 
{"is_sidechain": [false], "free_energy": -10.921, "intermolecular_energy": -15.39, "internal_energy": -1.355}

$$$$
3b1m_ligand
     RDKit          3D

 65 69  0  0  0  0  0  0  0  0999 V2000
   10.1170   50.6400   55.7200 C   0  0  0  0  0  0  0  0  0  0  0  0
   10.0040   50.3450   57.2080 C   0  0  0  0  0  0  0  0  0  0  0  0
    8.9690   49.2780   57.5000 C   0  0  0  0  0  0  0  0  0  0  0  0
    7.6280   49.6800   57.5650 C   0  0  0  0  0  0  0  0  0  0  0  0
    6.6160   48.7580   57.8160 C   0  0  0  0  0  0  0  0  0  0  0  0
    6.9090   47.4040   58.0010 C   0  0  0  0  0  0  0  0  0  0  0  0
    5.8640   46.4930   58.2310 C   0  0  0  0  0  0  0  0  0  0  0  0
    6.1180   45.1350   58.4080 C   0  0  0  0  0  0  0  0  0  0  0  0
    7.4240   44.6720   58.3530 C   0  0  0  0  0  0  0  0  0  0  0  0
    8.4720   45.5690   58.1280 C   0  0  0  0  0  0  0  0  0  0  0  0
    8.2530   46.9580   57.9510 C   0  0  0  0  0  0  0  0  0  0  0  0
    9.2970   47.9160   57.7210 C   0  0  0  0  0  0  0  0  0  0  0  0
   10.7410   47.4590   57.6630 C   0  0  0  0  0  0  0  0  0  0  0  0
   11.2050   47.0670   58.9720 N   0  0  0  0  0  0  0  0  0  0  0  0
   11.6090   48.0040   59.8960 C   0  0  0  0  0  0  0  0  0  0  0  0
   11.7350   49.1910   59.6130 O   0  0  0  0  0  0  0  0  0  0  0  0
   11.8840   47.5030   61.2760 C   0  0  0  0  0  0  0  0  0  0  0  0
   11.0540   46.5820   61.9580 C   0  0  0  0  0  0  0  0  0  0  0  0
    9.9400   46.1330   61.2910 O   0  0  0  0  0  0  0  0  0  0  0  0
    9.6300   44.7460   61.3460 C   0  0  0  0  0  0  0  0  0  0  0  0
   11.3940   46.1590   63.2630 C   0  0  0  0  0  0  0  0  0  0  0  0
   12.5350   46.6490   63.8990 C   0  0  0  0  0  0  0  0  0  0  0  0
   12.9040   46.2080   65.1310 O   0  0  0  0  0  0  0  0  0  0  0  0
   13.3280   47.5710   63.2530 C   0  0  0  0  0  0  0  0  0  0  0  0
   13.0060   47.9750   61.9490 C   0  0  0  0  0  0  0  0  0  0  0  0
   13.9420   48.8610   61.4530 O   0  0  0  0  0  0  0  0  0  0  0  0
   14.8040   49.1610   62.4980 C   0  0  0  0  0  0  0  0  0  0  0  0
   15.5140   50.2940   62.5660 C   0  0  0  0  0  0  0  0  0  0  0  0
   16.0810   50.6900   63.8350 C   0  0  0  0  0  0  0  0  0  0  0  0
   17.0210   51.6880   63.7090 O   0  0  0  0  0  0  0  0  0  0  0  0
   15.6390   50.1800   65.0070 C   0  0  0  0  0  0  0  0  0  0  0  0
   16.1890   50.6850   66.2960 C   0  0  0  0  0  0  0  0  0  0  0  0
   16.9750   49.7560   67.1840 C   0  0  0  0  0  0  0  0  0  0  0  0
   16.0120   51.8650   66.6180 O   0  0  0  0  0  0  0  0  0  0  0  0
   14.5870   49.1070   64.9240 C   0  0  0  0  0  0  0  0  0  0  0  0
   13.7980   48.9590   65.8560 O   0  0  0  0  0  0  0  0  0  0  0  0
   14.6130   48.2220   63.6710 C   0  0  1  0  0  0  0  0  0  0  0  0
   15.7460   47.1920   63.7680 C   0  0  0  0  0  0  0  0  0  0  0  0
   10.5071   51.6585   55.5767 H   0  0  0  0  0  0  0  0  0  0  0  0
   10.8015   49.9162   55.2536 H   0  0  0  0  0  0  0  0  0  0  0  0
    9.1241   50.5587   55.2536 H   0  0  0  0  0  0  0  0  0  0  0  0
   10.9817   50.0013   57.5768 H   0  0  0  0  0  0  0  0  0  0  0  0
    9.6895   51.2697   57.7139 H   0  0  0  0  0  0  0  0  0  0  0  0
    7.3716   50.7392   57.4155 H   0  0  0  0  0  0  0  0  0  0  0  0
    5.5717   49.0995   57.8695 H   0  0  0  0  0  0  0  0  0  0  0  0
    4.8274   46.8588   58.2720 H   0  0  0  0  0  0  0  0  0  0  0  0
    5.2891   44.4352   58.5900 H   0  0  0  0  0  0  0  0  0  0  0  0
    7.6348   43.6006   58.4862 H   0  0  0  0  0  0  0  0  0  0  0  0
    9.5016   45.1839   58.0869 H   0  0  0  0  0  0  0  0  0  0  0  0
   10.8209   46.6008   56.9796 H   0  0  0  0  0  0  0  0  0  0  0  0
   11.3616   48.2928   57.3029 H   0  0  0  0  0  0  0  0  0  0  0  0
   10.9280   46.1550   59.3190 H   0  0  0  0  0  0  0  0  0  0  0  0
    9.5588   44.4276   62.3965 H   0  0  0  0  0  0  0  0  0  0  0  0
    8.6692   44.5648   60.8420 H   0  0  0  0  0  0  0  0  0  0  0  0
   10.4222   44.1730   60.8420 H   0  0  0  0  0  0  0  0  0  0  0  0
   10.7509   45.4343   63.7838 H   0  0  0  0  0  0  0  0  0  0  0  0
   13.8470   46.3890   65.2720 H   0  0  0  0  0  0  0  0  0  0  0  0
   15.6635   50.9140   61.6697 H   0  0  0  0  0  0  0  0  0  0  0  0
   17.8460   51.3980   64.1600 H   0  0  0  0  0  0  0  0  0  0  0  0
   16.7714   49.9966   68.2379 H   0  0  0  0  0  0  0  0  0  0  0  0
   16.6781   48.7164   66.9813 H   0  0  0  0  0  0  0  0  0  0  0  0
   18.0494   49.8766   66.9813 H   0  0  0  0  0  0  0  0  0  0  0  0
   15.9683   46.9900   64.8262 H   0  0  0  0  0  0  0  0  0  0  0  0
   15.4369   46.2592   63.2737 H   0  0  0  0  0  0  0  0  0  0  0  0
   16.6452   47.5884   63.2737 H   0  0  0  0  0  0  0  0  0  0  0  0
  1  2  1  0
  2  3  1  0
  3  4  2  0
  4  5  1  0
  5  6  2  0
  6  7  1  0
  7  8  2  0
  8  9  1  0
  9 10  2  0
 10 11  1  0
 11 12  2  0
 12 13  1  0
 13 14  1  0
 14 15  1  0
 15 16  2  0
 15 17  1  0
 17 18  2  0
 18 19  1  0
 19 20  1  0
 18 21  1  0
 21 22  2  0
 22 23  1  0
 22 24  1  0
 24 25  2  0
 25 26  1  0
 26 27  1  0
 27 28  2  0
 28 29  1  0
 29 30  1  0
 29 31  2  0
 31 32  1  0
 32 33  1  0
 32 34  2  0
 31 35  1  0
 35 36  2  0
 35 37  1  0
 37 38  1  1
 12  3  1  0
 25 17  1  0
 37 27  1  0
 11  6  1  0
 37 24  1  0
  1 39  1  0
  1 40  1  0
  1 41  1  0
  2 42  1  0
  2 43  1  0
  4 44  1  0
  5 45  1  0
  7 46  1  0
  8 47  1  0
  9 48  1  0
 10 49  1  0
 13 50  1  0
 13 51  1  0
 14 52  1  0
 20 53  1  0
 20 54  1  0
 20 55  1  0
 21 56  1  0
 23 57  1  0
 28 58  1  0
 30 59  1  0
 33 60  1  0
 33 61  1  0
 33 62  1  0
 38 63  1  0
 38 64  1  0
 38 65  1  0
M  END
>  <meeko>  (2) 
{"is_sidechain": [false], "free_energy": -10.901, "intermolecular_energy": -15.416, "internal_energy": -1.301}

$$$$
3b1m_ligand
     RDKit          3D

 65 69  0  0  0  0  0  0  0  0999 V2000
    9.9200   47.2130   58.3290 C   0  0  0  0  0  0  0  0  0  0  0  0
   10.9930   48.2630   58.0830 C   0  0  0  0  0  0  0  0  0  0  0  0
   11.1700   48.5620   56.6080 C   0  0  0  0  0  0  0  0  0  0  0  0
   10.3170   49.5150   56.0360 C   0  0  0  0  0  0  0  0  0  0  0  0
   10.4240   49.8540   54.6900 C   0  0  0  0  0  0  0  0  0  0  0  0
   11.3900   49.2600   53.8750 C   0  0  0  0  0  0  0  0  0  0  0  0
   11.4880   49.6380   52.5250 C   0  0  0  0  0  0  0  0  0  0  0  0
   12.4480   49.0750   51.6870 C   0  0  0  0  0  0  0  0  0  0  0  0
   13.3230   48.1260   52.1920 C   0  0  0  0  0  0  0  0  0  0  0  0
   13.2340   47.7390   53.5330 C   0  0  0  0  0  0  0  0  0  0  0  0
   12.2670   48.2850   54.4130 C   0  0  0  0  0  0  0  0  0  0  0  0
   12.1350   47.9160   55.7950 C   0  0  0  0  0  0  0  0  0  0  0  0
   13.0630   46.8750   56.3890 C   0  0  0  0  0  0  0  0  0  0  0  0
   14.0620   47.5000   57.2230 N   0  0  0  0  0  0  0  0  0  0  0  0
   15.3920   47.1610   57.1180 C   0  0  0  0  0  0  0  0  0  0  0  0
   15.7770   46.2230   56.4280 O   0  0  0  0  0  0  0  0  0  0  0  0
   16.3550   48.0030   57.8880 C   0  0  0  0  0  0  0  0  0  0  0  0
   17.6360   48.3690   57.4110 C   0  0  0  0  0  0  0  0  0  0  0  0
   17.9890   47.9180   56.1630 O   0  0  0  0  0  0  0  0  0  0  0  0
   18.7670   48.7680   55.3280 C   0  0  0  0  0  0  0  0  0  0  0  0
   18.4830   49.1730   58.2080 C   0  0  0  0  0  0  0  0  0  0  0  0
   18.0780   49.6020   59.4730 C   0  0  0  0  0  0  0  0  0  0  0  0
   18.8600   50.4210   60.2250 O   0  0  0  0  0  0  0  0  0  0  0  0
   16.8470   49.2210   59.9560 C   0  0  0  0  0  0  0  0  0  0  0  0
   15.9960   48.4430   59.1570 C   0  0  0  0  0  0  0  0  0  0  0  0
   14.7920   48.2060   59.7920 O   0  0  0  0  0  0  0  0  0  0  0  0
   14.9130   48.7020   61.0820 C   0  0  0  0  0  0  0  0  0  0  0  0
   14.1870   48.2580   62.1140 C   0  0  0  0  0  0  0  0  0  0  0  0
   14.6280   48.5520   63.4590 C   0  0  0  0  0  0  0  0  0  0  0  0
   13.6560   48.3070   64.4040 O   0  0  0  0  0  0  0  0  0  0  0  0
   15.8970   48.9310   63.7300 C   0  0  0  0  0  0  0  0  0  0  0  0
   16.3320   49.1350   65.1400 C   0  0  0  0  0  0  0  0  0  0  0  0
   16.8470   50.4830   65.5710 C   0  0  0  0  0  0  0  0  0  0  0  0
   16.2520   48.2030   65.9470 O   0  0  0  0  0  0  0  0  0  0  0  0
   16.8110   49.1230   62.5490 C   0  0  0  0  0  0  0  0  0  0  0  0
   18.0230   48.9650   62.6890 O   0  0  0  0  0  0  0  0  0  0  0  0
   16.1480   49.5640   61.2380 C   0  0  1  0  0  0  0  0  0  0  0  0
   15.8000   51.0580   61.2920 C   0  0  0  0  0  0  0  0  0  0  0  0
    9.7812   47.0772   59.4117 H   0  0  0  0  0  0  0  0  0  0  0  0
    8.9733   47.5432   57.8766 H   0  0  0  0  0  0  0  0  0  0  0  0
   10.2296   46.2594   57.8766 H   0  0  0  0  0  0  0  0  0  0  0  0
   10.7073   49.1903   58.6012 H   0  0  0  0  0  0  0  0  0  0  0  0
   11.9462   47.8695   58.4658 H   0  0  0  0  0  0  0  0  0  0  0  0
    9.5523   50.0020   56.6590 H   0  0  0  0  0  0  0  0  0  0  0  0
    9.7381   50.6001   54.2625 H   0  0  0  0  0  0  0  0  0  0  0  0
   10.7947   50.3915   52.1230 H   0  0  0  0  0  0  0  0  0  0  0  0
   12.5111   49.3813   50.6324 H   0  0  0  0  0  0  0  0  0  0  0  0
   14.0863   47.6779   51.5389 H   0  0  0  0  0  0  0  0  0  0  0  0
   13.9378   46.9860   53.9172 H   0  0  0  0  0  0  0  0  0  0  0  0
   12.4748   46.1708   56.9958 H   0  0  0  0  0  0  0  0  0  0  0  0
   13.5683   46.3424   55.5699 H   0  0  0  0  0  0  0  0  0  0  0  0
   13.8370   48.3960   57.6380 H   0  0  0  0  0  0  0  0  0  0  0  0
   19.3783   49.4359   55.9526 H   0  0  0  0  0  0  0  0  0  0  0  0
   19.4246   48.1562   54.6930 H   0  0  0  0  0  0  0  0  0  0  0  0
   18.0995   49.3690   54.6930 H   0  0  0  0  0  0  0  0  0  0  0  0
   19.4729   49.4639   57.8266 H   0  0  0  0  0  0  0  0  0  0  0  0
   18.3070   50.8970   60.8670 H   0  0  0  0  0  0  0  0  0  0  0  0
   13.2683   47.6780   61.9419 H   0  0  0  0  0  0  0  0  0  0  0  0
   12.9200   47.8150   63.9730 H   0  0  0  0  0  0  0  0  0  0  0  0
   16.8665   50.5339   66.6696 H   0  0  0  0  0  0  0  0  0  0  0  0
   17.8643   50.6293   65.1791 H   0  0  0  0  0  0  0  0  0  0  0  0
   16.1863   51.2704   65.1791 H   0  0  0  0  0  0  0  0  0  0  0  0
   15.7251   51.3793   62.3413 H   0  0  0  0  0  0  0  0  0  0  0  0
   16.5875   51.6364   60.7867 H   0  0  0  0  0  0  0  0  0  0  0  0
   14.8380   51.2289   60.7867 H   0  0  0  0  0  0  0  0  0  0  0  0
  1  2  1  0
  2  3  1  0
  3  4  2  0
  4  5  1  0
  5  6  2  0
  6  7  1  0
  7  8  2  0
  8  9  1  0
  9 10  2  0
 10 11  1  0
 11 12  2  0
 12 13  1  0
 13 14  1  0
 14 15  1  0
 15 16  2  0
 15 17  1  0
 17 18  2  0
 18 19  1  0
 19 20  1  0
 18 21  1  0
 21 22  2  0
 22 23  1  0
 22 24  1  0
 24 25  2  0
 25 26  1  0
 26 27  1  0
 27 28  2  0
 28 29  1  0
 29 30  1  0
 29 31  2  0
 31 32  1  0
 32 33  1  0
 32 34  2  0
 31 35  1  0
 35 36  2  0
 35 37  1  0
 37 38  1  1
 12  3  1  0
 25 17  1  0
 37 27  1  0
 11  6  1  0
 37 24  1  0
  1 39  1  0
  1 40  1  0
  1 41  1  0
  2 42  1  0
  2 43  1  0
  4 44  1  0
  5 45  1  0
  7 46  1  0
  8 47  1  0
  9 48  1  0
 10 49  1  0
 13 50  1  0
 13 51  1  0
 14 52  1  0
 20 53  1  0
 20 54  1  0
 20 55  1  0
 21 56  1  0
 23 57  1  0
 28 58  1  0
 30 59  1  0
 33 60  1  0
 33 61  1  0
 33 62  1  0
 38 63  1  0
 38 64  1  0
 38 65  1  0
M  END
>  <meeko>  (3) 
{"is_sidechain": [false], "free_energy": -9.949, "intermolecular_energy": -14.061, "internal_energy": -1.314}

$$$$
3b1m_ligand
     RDKit          3D

 65 69  0  0  0  0  0  0  0  0999 V2000
   10.7750   51.0810   55.0610 C   0  0  0  0  0  0  0  0  0  0  0  0
   10.7680   49.6680   54.4970 C   0  0  0  0  0  0  0  0  0  0  0  0
   11.6920   49.5270   53.3040 C   0  0  0  0  0  0  0  0  0  0  0  0
   11.6470   50.5340   52.3300 C   0  0  0  0  0  0  0  0  0  0  0  0
   12.4720   50.4840   51.2110 C   0  0  0  0  0  0  0  0  0  0  0  0
   13.3750   49.4330   51.0320 C   0  0  0  0  0  0  0  0  0  0  0  0
   14.2110   49.4210   49.9020 C   0  0  0  0  0  0  0  0  0  0  0  0
   15.1310   48.3950   49.6980 C   0  0  0  0  0  0  0  0  0  0  0  0
   15.2260   47.3690   50.6250 C   0  0  0  0  0  0  0  0  0  0  0  0
   14.3980   47.3680   51.7520 C   0  0  0  0  0  0  0  0  0  0  0  0
   13.4460   48.3900   51.9890 C   0  0  0  0  0  0  0  0  0  0  0  0
   12.5720   48.4300   53.1280 C   0  0  0  0  0  0  0  0  0  0  0  0
   12.6330   47.3240   54.1640 C   0  0  0  0  0  0  0  0  0  0  0  0
   13.4550   47.7180   55.2820 N   0  0  0  0  0  0  0  0  0  0  0  0
   13.4440   47.0070   56.4610 C   0  0  0  0  0  0  0  0  0  0  0  0
   12.6420   46.1050   56.6740 O   0  0  0  0  0  0  0  0  0  0  0  0
   14.4710   47.3880   57.4770 C   0  0  0  0  0  0  0  0  0  0  0  0
   15.8620   47.4130   57.2180 C   0  0  0  0  0  0  0  0  0  0  0  0
   16.2670   47.0700   55.9510 O   0  0  0  0  0  0  0  0  0  0  0  0
   17.4500   47.6660   55.4320 C   0  0  0  0  0  0  0  0  0  0  0  0
   16.7630   47.7900   58.2390 C   0  0  0  0  0  0  0  0  0  0  0  0
   16.3000   48.1250   59.5130 C   0  0  0  0  0  0  0  0  0  0  0  0
   17.1500   48.5430   60.4870 O   0  0  0  0  0  0  0  0  0  0  0  0
   14.9500   48.0690   59.7790 C   0  0  0  0  0  0  0  0  0  0  0  0
   14.0530   47.7190   58.7610 C   0  0  0  0  0  0  0  0  0  0  0  0
   12.7460   47.7670   59.2060 O   0  0  0  0  0  0  0  0  0  0  0  0
   12.7950   48.0020   60.5730 C   0  0  0  0  0  0  0  0  0  0  0  0
   11.8190   47.6490   61.4170 C   0  0  0  0  0  0  0  0  0  0  0  0
   12.1060   47.5870   62.8330 C   0  0  0  0  0  0  0  0  0  0  0  0
   10.9680   47.5100   63.6030 O   0  0  0  0  0  0  0  0  0  0  0  0
   13.3710   47.5150   63.3040 C   0  0  0  0  0  0  0  0  0  0  0  0
   13.6160   47.3610   64.7660 C   0  0  0  0  0  0  0  0  0  0  0  0
   14.4820   48.3620   65.4840 C   0  0  0  0  0  0  0  0  0  0  0  0
   13.0940   46.4230   65.3790 O   0  0  0  0  0  0  0  0  0  0  0  0
   14.4770   47.5950   62.2870 C   0  0  0  0  0  0  0  0  0  0  0  0
   15.5580   47.0560   62.5230 O   0  0  0  0  0  0  0  0  0  0  0  0
   14.1830   48.4110   61.0220 C   0  0  1  0  0  0  0  0  0  0  0  0
   14.2650   49.9130   61.3240 C   0  0  0  0  0  0  0  0  0  0  0  0
   10.7748   51.0371   56.1601 H   0  0  0  0  0  0  0  0  0  0  0  0
   11.6758   51.6093   54.7153 H   0  0  0  0  0  0  0  0  0  0  0  0
    9.8795   51.6182   54.7153 H   0  0  0  0  0  0  0  0  0  0  0  0
   11.0940   48.9706   55.2828 H   0  0  0  0  0  0  0  0  0  0  0  0
    9.7449   49.4414   54.1624 H   0  0  0  0  0  0  0  0  0  0  0  0
   10.9495   51.3757   52.4522 H   0  0  0  0  0  0  0  0  0  0  0  0
   12.4126   51.2827   50.4570 H   0  0  0  0  0  0  0  0  0  0  0  0
   14.1375   50.2355   49.1664 H   0  0  0  0  0  0  0  0  0  0  0  0
   15.7772   48.3991   48.8079 H   0  0  0  0  0  0  0  0  0  0  0  0
   15.9519   46.5564   50.4744 H   0  0  0  0  0  0  0  0  0  0  0  0
   14.4889   46.5468   52.4782 H   0  0  0  0  0  0  0  0  0  0  0  0
   11.6156   47.1081   54.5221 H   0  0  0  0  0  0  0  0  0  0  0  0
   13.0722   46.4285   53.7001 H   0  0  0  0  0  0  0  0  0  0  0  0
   14.2630   48.3010   55.0930 H   0  0  0  0  0  0  0  0  0  0  0  0
   18.0928   47.9898   56.2639 H   0  0  0  0  0  0  0  0  0  0  0  0
   17.9901   46.9324   54.8154 H   0  0  0  0  0  0  0  0  0  0  0  0
   17.1819   48.5366   54.8154 H   0  0  0  0  0  0  0  0  0  0  0  0
   17.8421   47.8200   58.0277 H   0  0  0  0  0  0  0  0  0  0  0  0
   16.8280   49.3790   60.8630 H   0  0  0  0  0  0  0  0  0  0  0  0
   10.8138   47.4096   61.0398 H   0  0  0  0  0  0  0  0  0  0  0  0
   10.7760   46.5610   63.7830 H   0  0  0  0  0  0  0  0  0  0  0  0
   14.3693   48.2318   66.5704 H   0  0  0  0  0  0  0  0  0  0  0  0
   15.5339   48.2051   65.2030 H   0  0  0  0  0  0  0  0  0  0  0  0
   14.1754   49.3804   65.2030 H   0  0  0  0  0  0  0  0  0  0  0  0
   14.2735   50.0681   62.4130 H   0  0  0  0  0  0  0  0  0  0  0  0
   15.1870   50.3249   60.8878 H   0  0  0  0  0  0  0  0  0  0  0  0
   13.3934   50.4228   60.8878 H   0  0  0  0  0  0  0  0  0  0  0  0
  1  2  1  0
  2  3  1  0
  3  4  2  0
  4  5  1  0
  5  6  2  0
  6  7  1  0
  7  8  2  0
  8  9  1  0
  9 10  2  0
 10 11  1  0
 11 12  2  0
 12 13  1  0
 13 14  1  0
 14 15  1  0
 15 16  2  0
 15 17  1  0
 17 18  2  0
 18 19  1  0
 19 20  1  0
 18 21  1  0
 21 22  2  0
 22 23  1  0
 22 24  1  0
 24 25  2  0
 25 26  1  0
 26 27  1  0
 27 28  2  0
 28 29  1  0
 29 30  1  0
 29 31  2  0
 31 32  1  0
 32 33  1  0
 32 34  2  0
 31 35  1  0
 35 36  2  0
 35 37  1  0
 37 38  1  1
 12  3  1  0
 25 17  1  0
 37 27  1  0
 11  6  1  0
 37 24  1  0
  1 39  1  0
  1 40  1  0
  1 41  1  0
  2 42  1  0
  2 43  1  0
  4 44  1  0
  5 45  1  0
  7 46  1  0
  8 47  1  0
  9 48  1  0
 10 49  1  0
 13 50  1  0
 13 51  1  0
 14 52  1  0
 20 53  1  0
 20 54  1  0
 20 55  1  0
 21 56  1  0
 23 57  1  0
 28 58  1  0
 30 59  1  0
 33 60  1  0
 33 61  1  0
 33 62  1  0
 38 63  1  0
 38 64  1  0
 38 65  1  0
M  END
>  <meeko>  (4) 
{"is_sidechain": [false], "free_energy": -9.886, "intermolecular_energy": -13.779, "internal_energy": -1.508}

$$$$
3b1m_ligand
     RDKit          3D

 65 69  0  0  0  0  0  0  0  0999 V2000
    9.0250   45.0870   60.3180 C   0  0  0  0  0  0  0  0  0  0  0  0
    9.7060   45.6600   59.0830 C   0  0  0  0  0  0  0  0  0  0  0  0
    8.8800   46.7510   58.4330 C   0  0  0  0  0  0  0  0  0  0  0  0
    7.4870   46.5940   58.4340 C   0  0  0  0  0  0  0  0  0  0  0  0
    6.6590   47.5580   57.8670 C   0  0  0  0  0  0  0  0  0  0  0  0
    7.1920   48.7130   57.2890 C   0  0  0  0  0  0  0  0  0  0  0  0
    6.3290   49.6790   56.7450 C   0  0  0  0  0  0  0  0  0  0  0  0
    6.8260   50.8470   56.1720 C   0  0  0  0  0  0  0  0  0  0  0  0
    8.1950   51.0640   56.1400 C   0  0  0  0  0  0  0  0  0  0  0  0
    9.0640   50.1090   56.6760 C   0  0  0  0  0  0  0  0  0  0  0  0
    8.5960   48.9060   57.2610 C   0  0  0  0  0  0  0  0  0  0  0  0
    9.4500   47.8950   57.8200 C   0  0  0  0  0  0  0  0  0  0  0  0
   10.9540   48.0830   57.7990 C   0  0  0  0  0  0  0  0  0  0  0  0
   11.4720   48.1960   59.1410 N   0  0  0  0  0  0  0  0  0  0  0  0
   12.7340   47.7470   59.4580 C   0  0  0  0  0  0  0  0  0  0  0  0
   13.4190   47.1050   58.6690 O   0  0  0  0  0  0  0  0  0  0  0  0
   13.2380   48.0870   60.8220 C   0  0  0  0  0  0  0  0  0  0  0  0
   12.5610   47.7470   62.0170 C   0  0  0  0  0  0  0  0  0  0  0  0
   11.3780   47.0610   61.8910 O   0  0  0  0  0  0  0  0  0  0  0  0
   10.7140   46.6280   63.0730 C   0  0  0  0  0  0  0  0  0  0  0  0
   13.1140   48.1060   63.2680 C   0  0  0  0  0  0  0  0  0  0  0  0
   14.3180   48.8080   63.3420 C   0  0  0  0  0  0  0  0  0  0  0  0
   14.8880   49.1100   64.5380 O   0  0  0  0  0  0  0  0  0  0  0  0
   14.9630   49.1700   62.1810 C   0  0  0  0  0  0  0  0  0  0  0  0
   14.4290   48.7950   60.9400 C   0  0  0  0  0  0  0  0  0  0  0  0
   15.2410   49.2040   59.9000 O   0  0  0  0  0  0  0  0  0  0  0  0
   16.2400   49.9910   60.4560 C   0  0  0  0  0  0  0  0  0  0  0  0
   16.9040   50.9300   59.7730 C   0  0  0  0  0  0  0  0  0  0  0  0
   17.6420   51.9360   60.5020 C   0  0  0  0  0  0  0  0  0  0  0  0
   18.5090   52.6460   59.7020 O   0  0  0  0  0  0  0  0  0  0  0  0
   17.4060   52.1910   61.8090 C   0  0  0  0  0  0  0  0  0  0  0  0
   18.1260   53.2990   62.4970 C   0  0  0  0  0  0  0  0  0  0  0  0
   18.8820   53.0180   63.7690 C   0  0  0  0  0  0  0  0  0  0  0  0
   18.1100   54.4350   62.0100 O   0  0  0  0  0  0  0  0  0  0  0  0
   16.3990   51.3100   62.4980 C   0  0  0  0  0  0  0  0  0  0  0  0
   15.7680   51.7470   63.4600 O   0  0  0  0  0  0  0  0  0  0  0  0
   16.2690   49.8770   61.9660 C   0  0  1  0  0  0  0  0  0  0  0  0
   17.4450   49.0190   62.4510 C   0  0  0  0  0  0  0  0  0  0  0  0
    9.5048   45.4907   61.2218 H   0  0  0  0  0  0  0  0  0  0  0  0
    7.9608   45.3654   60.3123 H   0  0  0  0  0  0  0  0  0  0  0  0
    9.1173   43.9909   60.3123 H   0  0  0  0  0  0  0  0  0  0  0  0
   10.6796   46.0793   59.3769 H   0  0  0  0  0  0  0  0  0  0  0  0
    9.8268   44.8456   58.3535 H   0  0  0  0  0  0  0  0  0  0  0  0
    7.0425   45.6967   58.8891 H   0  0  0  0  0  0  0  0  0  0  0  0
    5.5692   47.4086   57.8739 H   0  0  0  0  0  0  0  0  0  0  0  0
    5.2424   49.5099   56.7721 H   0  0  0  0  0  0  0  0  0  0  0  0
    6.1371   51.5923   55.7477 H   0  0  0  0  0  0  0  0  0  0  0  0
    8.5966   51.9857   55.6938 H   0  0  0  0  0  0  0  0  0  0  0  0
   10.1472   50.2976   56.6426 H   0  0  0  0  0  0  0  0  0  0  0  0
   11.4193   47.2179   57.3039 H   0  0  0  0  0  0  0  0  0  0  0  0
   11.1875   49.0074   57.2505 H   0  0  0  0  0  0  0  0  0  0  0  0
   11.0510   48.8840   59.7540 H   0  0  0  0  0  0  0  0  0  0  0  0
   11.2644   46.9869   63.9552 H   0  0  0  0  0  0  0  0  0  0  0  0
    9.6916   47.0335   63.0887 H   0  0  0  0  0  0  0  0  0  0  0  0
   10.6728   45.5289   63.0887 H   0  0  0  0  0  0  0  0  0  0  0  0
   12.5889   47.8286   64.1939 H   0  0  0  0  0  0  0  0  0  0  0  0
   14.4440   49.8840   64.9230 H   0  0  0  0  0  0  0  0  0  0  0  0
   16.8885   50.9363   58.6731 H   0  0  0  0  0  0  0  0  0  0  0  0
   19.4250   52.3280   59.8760 H   0  0  0  0  0  0  0  0  0  0  0  0
   18.2451   53.2547   64.6340 H   0  0  0  0  0  0  0  0  0  0  0  0
   19.1636   51.9551   63.8010 H   0  0  0  0  0  0  0  0  0  0  0  0
   19.7895   53.6389   63.8010 H   0  0  0  0  0  0  0  0  0  0  0  0
   17.4612   49.0072   63.5508 H   0  0  0  0  0  0  0  0  0  0  0  0
   17.3291   47.9918   62.0749 H   0  0  0  0  0  0  0  0  0  0  0  0
   18.3878   49.4429   62.0749 H   0  0  0  0  0  0  0  0  0  0  0  0
  1  2  1  0
  2  3  1  0
  3  4  2  0
  4  5  1  0
  5  6  2  0
  6  7  1  0
  7  8  2  0
  8  9  1  0
  9 10  2  0
 10 11  1  0
 11 12  2  0
 12 13  1  0
 13 14  1  0
 14 15  1  0
 15 16  2  0
 15 17  1  0
 17 18  2  0
 18 19  1  0
 19 20  1  0
 18 21  1  0
 21 22  2  0
 22 23  1  0
 22 24  1  0
 24 25  2  0
 25 26  1  0
 26 27  1  0
 27 28  2  0
 28 29  1  0
 29 30  1  0
 29 31  2  0
 31 32  1  0
 32 33  1  0
 32 34  2  0
 31 35  1  0
 35 36  2  0
 35 37  1  0
 37 38  1  6
 12  3  1  0
 25 17  1  0
 37 27  1  0
 11  6  1  0
 37 24  1  0
  1 39  1  0
  1 40  1  0
  1 41  1  0
  2 42  1  0
  2 43  1  0
  4 44  1  0
  5 45  1  0
  7 46  1  0
  8 47  1  0
  9 48  1  0
 10 49  1  0
 13 50  1  0
 13 51  1  0
 14 52  1  0
 20 53  1  0
 20 54  1  0
 20 55  1  0
 21 56  1  0
 23 57  1  0
 28 58  1  0
 30 59  1  0
 33 60  1  0
 33 61  1  0
 33 62  1  0
 38 63  1  0
 38 64  1  0
 38 65  1  0
M  END
>  <meeko>  (5) 
{"is_sidechain": [false], "free_energy": -9.867, "intermolecular_energy": -14.011, "internal_energy": -1.249}

$$$$
3b1m_ligand
     RDKit          3D

 65 69  0  0  0  0  0  0  0  0999 V2000
   13.5190   47.6320   51.7380 C   0  0  0  0  0  0  0  0  0  0  0  0
   13.7770   47.6240   53.2380 C   0  0  0  0  0  0  0  0  0  0  0  0
   12.6730   48.3170   54.0090 C   0  0  0  0  0  0  0  0  0  0  0  0
   11.9350   49.3000   53.3360 C   0  0  0  0  0  0  0  0  0  0  0  0
   10.8960   49.9750   53.9710 C   0  0  0  0  0  0  0  0  0  0  0  0
   10.5540   49.6840   55.2940 C   0  0  0  0  0  0  0  0  0  0  0  0
    9.4860   50.3660   55.9010 C   0  0  0  0  0  0  0  0  0  0  0  0
    9.1100   50.0920   57.2140 C   0  0  0  0  0  0  0  0  0  0  0  0
    9.8000   49.1300   57.9350 C   0  0  0  0  0  0  0  0  0  0  0  0
   10.8660   48.4460   57.3430 C   0  0  0  0  0  0  0  0  0  0  0  0
   11.2810   48.7020   56.0130 C   0  0  0  0  0  0  0  0  0  0  0  0
   12.3720   48.0290   55.3640 C   0  0  0  0  0  0  0  0  0  0  0  0
   13.1610   46.9760   56.1160 C   0  0  0  0  0  0  0  0  0  0  0  0
   14.1250   47.5920   56.9950 N   0  0  0  0  0  0  0  0  0  0  0  0
   15.4370   47.1760   57.0190 C   0  0  0  0  0  0  0  0  0  0  0  0
   15.8200   46.1810   56.4140 O   0  0  0  0  0  0  0  0  0  0  0  0
   16.3840   48.0070   57.8210 C   0  0  0  0  0  0  0  0  0  0  0  0
   17.6750   48.3790   57.3750 C   0  0  0  0  0  0  0  0  0  0  0  0
   18.0550   47.9430   56.1290 O   0  0  0  0  0  0  0  0  0  0  0  0
   18.8390   48.8090   55.3180 C   0  0  0  0  0  0  0  0  0  0  0  0
   18.5050   49.1720   58.2000 C   0  0  0  0  0  0  0  0  0  0  0  0
   18.0730   49.5850   59.4620 C   0  0  0  0  0  0  0  0  0  0  0  0
   18.8390   50.3940   60.2420 O   0  0  0  0  0  0  0  0  0  0  0  0
   16.8320   49.1980   59.9130 C   0  0  0  0  0  0  0  0  0  0  0  0
   15.9980   48.4310   59.0870 C   0  0  0  0  0  0  0  0  0  0  0  0
   14.7800   48.1860   59.6930 O   0  0  0  0  0  0  0  0  0  0  0  0
   14.8740   48.6660   60.9910 C   0  0  0  0  0  0  0  0  0  0  0  0
   14.1260   48.2090   62.0020 C   0  0  0  0  0  0  0  0  0  0  0  0
   14.5380   48.4850   63.3600 C   0  0  0  0  0  0  0  0  0  0  0  0
   13.5460   48.2290   64.2800 O   0  0  0  0  0  0  0  0  0  0  0  0
   15.8010   48.8600   63.6620 C   0  0  0  0  0  0  0  0  0  0  0  0
   16.2060   49.0460   65.0840 C   0  0  0  0  0  0  0  0  0  0  0  0
   16.8020   50.3570   65.5220 C   0  0  0  0  0  0  0  0  0  0  0  0
   16.0340   48.1290   65.8950 O   0  0  0  0  0  0  0  0  0  0  0  0
   16.7410   49.0670   62.5040 C   0  0  0  0  0  0  0  0  0  0  0  0
   17.9490   48.9070   62.6680 O   0  0  0  0  0  0  0  0  0  0  0  0
   16.1060   49.5250   61.1850 C   0  0  1  0  0  0  0  0  0  0  0  0
   15.7570   51.0180   61.2510 C   0  0  0  0  0  0  0  0  0  0  0  0
   12.4353   47.6656   51.5525 H   0  0  0  0  0  0  0  0  0  0  0  0
   13.9955   48.5158   51.2887 H   0  0  0  0  0  0  0  0  0  0  0  0
   13.9398   46.7204   51.2887 H   0  0  0  0  0  0  0  0  0  0  0  0
   13.8480   46.5810   53.5802 H   0  0  0  0  0  0  0  0  0  0  0  0
   14.7141   48.1693   53.4237 H   0  0  0  0  0  0  0  0  0  0  0  0
   12.1801   49.5417   52.2912 H   0  0  0  0  0  0  0  0  0  0  0  0
   10.3367   50.7480   53.4236 H   0  0  0  0  0  0  0  0  0  0  0  0
    8.9374   51.1293   55.3296 H   0  0  0  0  0  0  0  0  0  0  0  0
    8.2718   50.6349   57.6752 H   0  0  0  0  0  0  0  0  0  0  0  0
    9.5092   48.9050   58.9717 H   0  0  0  0  0  0  0  0  0  0  0  0
   11.4001   47.6838   57.9294 H   0  0  0  0  0  0  0  0  0  0  0  0
   12.4687   46.3633   56.7120 H   0  0  0  0  0  0  0  0  0  0  0  0
   13.6964   46.3485   55.3883 H   0  0  0  0  0  0  0  0  0  0  0  0
   13.9210   48.5220   57.3420 H   0  0  0  0  0  0  0  0  0  0  0  0
   19.4381   49.4707   55.9608 H   0  0  0  0  0  0  0  0  0  0  0  0
   19.5085   48.2103   54.6829 H   0  0  0  0  0  0  0  0  0  0  0  0
   18.1769   49.4158   54.6829 H   0  0  0  0  0  0  0  0  0  0  0  0
   19.5029   49.4672   57.8436 H   0  0  0  0  0  0  0  0  0  0  0  0
   19.6430   50.6430   59.7580 H   0  0  0  0  0  0  0  0  0  0  0  0
   13.2110   47.6318   61.8028 H   0  0  0  0  0  0  0  0  0  0  0  0
   13.8350   47.4780   64.8480 H   0  0  0  0  0  0  0  0  0  0  0  0
   16.8223   50.4016   66.6209 H   0  0  0  0  0  0  0  0  0  0  0  0
   17.8272   50.4420   65.1326 H   0  0  0  0  0  0  0  0  0  0  0  0
   16.1920   51.1854   65.1326 H   0  0  0  0  0  0  0  0  0  0  0  0
   15.6838   51.3313   62.3029 H   0  0  0  0  0  0  0  0  0  0  0  0
   16.5431   51.6009   60.7487 H   0  0  0  0  0  0  0  0  0  0  0  0
   14.7940   51.1920   60.7487 H   0  0  0  0  0  0  0  0  0  0  0  0
  1  2  1  0
  2  3  1  0
  3  4  2  0
  4  5  1  0
  5  6  2  0
  6  7  1  0
  7  8  2  0
  8  9  1  0
  9 10  2  0
 10 11  1  0
 11 12  2  0
 12 13  1  0
 13 14  1  0
 14 15  1  0
 15 16  2  0
 15 17  1  0
 17 18  2  0
 18 19  1  0
 19 20  1  0
 18 21  1  0
 21 22  2  0
 22 23  1  0
 22 24  1  0
 24 25  2  0
 25 26  1  0
 26 27  1  0
 27 28  2  0
 28 29  1  0
 29 30  1  0
 29 31  2  0
 31 32  1  0
 32 33  1  0
 32 34  2  0
 31 35  1  0
 35 36  2  0
 35 37  1  0
 37 38  1  1
 12  3  1  0
 25 17  1  0
 37 27  1  0
 11  6  1  0
 37 24  1  0
  1 39  1  0
  1 40  1  0
  1 41  1  0
  2 42  1  0
  2 43  1  0
  4 44  1  0
  5 45  1  0
  7 46  1  0
  8 47  1  0
  9 48  1  0
 10 49  1  0
 13 50  1  0
 13 51  1  0
 14 52  1  0
 20 53  1  0
 20 54  1  0
 20 55  1  0
 21 56  1  0
 23 57  1  0
 28 58  1  0
 30 59  1  0
 33 60  1  0
 33 61  1  0
 33 62  1  0
 38 63  1  0
 38 64  1  0
 38 65  1  0
M  END
>  <meeko>  (6) 
{"is_sidechain": [false], "free_energy": -9.789, "intermolecular_energy": -13.705, "internal_energy": -1.446}

$$$$
3b1m_ligand
     RDKit          3D

 65 69  0  0  0  0  0  0  0  0999 V2000
    7.1580   44.2580   58.8440 C   0  0  0  0  0  0  0  0  0  0  0  0
    8.2070   45.1670   58.2180 C   0  0  0  0  0  0  0  0  0  0  0  0
    7.6850   46.5720   58.0010 C   0  0  0  0  0  0  0  0  0  0  0  0
    6.3110   46.7860   58.1780 C   0  0  0  0  0  0  0  0  0  0  0  0
    5.7550   48.0500   58.0090 C   0  0  0  0  0  0  0  0  0  0  0  0
    6.5540   49.1450   57.6670 C   0  0  0  0  0  0  0  0  0  0  0  0
    5.9680   50.4140   57.5240 C   0  0  0  0  0  0  0  0  0  0  0  0
    6.7360   51.5290   57.1960 C   0  0  0  0  0  0  0  0  0  0  0  0
    8.1020   51.3860   57.0080 C   0  0  0  0  0  0  0  0  0  0  0  0
    8.6960   50.1270   57.1430 C   0  0  0  0  0  0  0  0  0  0  0  0
    7.9470   48.9700   57.4700 C   0  0  0  0  0  0  0  0  0  0  0  0
    8.5110   47.6580   57.6160 C   0  0  0  0  0  0  0  0  0  0  0  0
    9.9990   47.4510   57.4110 C   0  0  0  0  0  0  0  0  0  0  0  0
   10.6370   47.0680   58.6480 N   0  0  0  0  0  0  0  0  0  0  0  0
   11.1830   48.0100   59.4900 C   0  0  0  0  0  0  0  0  0  0  0  0
   11.2880   49.1890   59.1730 O   0  0  0  0  0  0  0  0  0  0  0  0
   11.6420   47.5220   60.8250 C   0  0  0  0  0  0  0  0  0  0  0  0
   10.9150   46.6040   61.6190 C   0  0  0  0  0  0  0  0  0  0  0  0
    9.7240   46.1450   61.1110 O   0  0  0  0  0  0  0  0  0  0  0  0
    8.7910   45.5470   62.0020 C   0  0  0  0  0  0  0  0  0  0  0  0
   11.4270   46.1940   62.8710 C   0  0  0  0  0  0  0  0  0  0  0  0
   12.6410   46.6950   63.3450 C   0  0  0  0  0  0  0  0  0  0  0  0
   13.1720   46.2660   64.5210 O   0  0  0  0  0  0  0  0  0  0  0  0
   13.3360   47.6130   62.5910 C   0  0  0  0  0  0  0  0  0  0  0  0
   12.8410   48.0040   61.3380 C   0  0  0  0  0  0  0  0  0  0  0  0
   13.6980   48.8900   60.7150 O   0  0  0  0  0  0  0  0  0  0  0  0
   14.6900   49.2030   61.6330 C   0  0  0  0  0  0  0  0  0  0  0  0
   15.3970   50.3380   61.5960 C   0  0  0  0  0  0  0  0  0  0  0  0
   16.1260   50.7480   62.7750 C   0  0  0  0  0  0  0  0  0  0  0  0
   17.0360   51.7490   62.5180 O   0  0  0  0  0  0  0  0  0  0  0  0
   15.8470   50.2470   64.0000 C   0  0  0  0  0  0  0  0  0  0  0  0
   16.5610   50.7650   65.2000 C   0  0  0  0  0  0  0  0  0  0  0  0
   16.0260   51.9750   65.9200 C   0  0  0  0  0  0  0  0  0  0  0  0
   17.5760   50.1880   65.6050 O   0  0  0  0  0  0  0  0  0  0  0  0
   14.7980   49.1700   64.0670 C   0  0  0  0  0  0  0  0  0  0  0  0
   14.1410   49.0270   65.0960 O   0  0  0  0  0  0  0  0  0  0  0  0
   14.6620   48.2740   62.8290 C   0  0  1  0  0  0  0  0  0  0  0  0
   15.8020   47.2480   62.7830 C   0  0  0  0  0  0  0  0  0  0  0  0
    7.2276   44.3183   59.9401 H   0  0  0  0  0  0  0  0  0  0  0  0
    6.1561   44.5783   58.5220 H   0  0  0  0  0  0  0  0  0  0  0  0
    7.3325   43.2207   58.5220 H   0  0  0  0  0  0  0  0  0  0  0  0
    9.0809   45.2120   58.8845 H   0  0  0  0  0  0  0  0  0  0  0  0
    8.4756   44.7494   57.2364 H   0  0  0  0  0  0  0  0  0  0  0  0
    5.6626   45.9416   58.4547 H   0  0  0  0  0  0  0  0  0  0  0  0
    4.6726   48.1897   58.1463 H   0  0  0  0  0  0  0  0  0  0  0  0
    4.8843   50.5290   57.6736 H   0  0  0  0  0  0  0  0  0  0  0  0
    6.2620   52.5156   57.0870 H   0  0  0  0  0  0  0  0  0  0  0  0
    8.7177   52.2612   56.7531 H   0  0  0  0  0  0  0  0  0  0  0  0
    9.7812   50.0321   56.9901 H   0  0  0  0  0  0  0  0  0  0  0  0
   10.1536   46.6580   56.6645 H   0  0  0  0  0  0  0  0  0  0  0  0
   10.4423   48.3955   57.0625 H   0  0  0  0  0  0  0  0  0  0  0  0
   10.3950   46.1670   59.0440 H   0  0  0  0  0  0  0  0  0  0  0  0
    9.0975   45.7435   63.0400 H   0  0  0  0  0  0  0  0  0  0  0  0
    7.7922   45.9736   61.8276 H   0  0  0  0  0  0  0  0  0  0  0  0
    8.7615   44.4613   61.8276 H   0  0  0  0  0  0  0  0  0  0  0  0
   10.8625   45.4718   63.4790 H   0  0  0  0  0  0  0  0  0  0  0  0
   13.4950   45.3560   64.4180 H   0  0  0  0  0  0  0  0  0  0  0  0
   15.4232   50.9500   60.6823 H   0  0  0  0  0  0  0  0  0  0  0  0
   17.6570   51.4350   61.8210 H   0  0  0  0  0  0  0  0  0  0  0  0
   16.0962   51.8161   67.0062 H   0  0  0  0  0  0  0  0  0  0  0  0
   16.6170   52.8595   65.6398 H   0  0  0  0  0  0  0  0  0  0  0  0
   14.9741   52.1331   65.6398 H   0  0  0  0  0  0  0  0  0  0  0  0
   16.0975   46.9820   63.8086 H   0  0  0  0  0  0  0  0  0  0  0  0
   15.4620   46.3456   62.2537 H   0  0  0  0  0  0  0  0  0  0  0  0
   16.6637   47.6808   62.2537 H   0  0  0  0  0  0  0  0  0  0  0  0
  1  2  1  0
  2  3  1  0
  3  4  2  0
  4  5  1  0
  5  6  2  0
  6  7  1  0
  7  8  2  0
  8  9  1  0
  9 10  2  0
 10 11  1  0
 11 12  2  0
 12 13  1  0
 13 14  1  0
 14 15  1  0
 15 16  2  0
 15 17  1  0
 17 18  2  0
 18 19  1  0
 19 20  1  0
 18 21  1  0
 21 22  2  0
 22 23  1  0
 22 24  1  0
 24 25  2  0
 25 26  1  0
 26 27  1  0
 27 28  2  0
 28 29  1  0
 29 30  1  0
 29 31  2  0
 31 32  1  0
 32 33  1  0
 32 34  2  0
 31 35  1  0
 35 36  2  0
 35 37  1  0
 37 38  1  6
 12  3  1  0
 25 17  1  0
 37 27  1  0
 11  6  1  0
 37 24  1  0
  1 39  1  0
  1 40  1  0
  1 41  1  0
  2 42  1  0
  2 43  1  0
  4 44  1  0
  5 45  1  0
  7 46  1  0
  8 47  1  0
  9 48  1  0
 10 49  1  0
 13 50  1  0
 13 51  1  0
 14 52  1  0
 20 53  1  0
 20 54  1  0
 20 55  1  0
 21 56  1  0
 23 57  1  0
 28 58  1  0
 30 59  1  0
 33 60  1  0
 33 61  1  0
 33 62  1  0
 38 63  1  0
 38 64  1  0
 38 65  1  0
M  END
>  <meeko>  (7) 
{"is_sidechain": [false], "free_energy": -9.258, "intermolecular_energy": -13.216, "internal_energy": -1.186}

$$$$
3b1m_ligand
     RDKit          3D

 65 69  0  0  0  0  0  0  0  0999 V2000
    9.4720   49.9760   55.5660 C   0  0  0  0  0  0  0  0  0  0  0  0
   10.8910   49.4330   55.6600 C   0  0  0  0  0  0  0  0  0  0  0  0
   11.5830   49.4120   54.3120 C   0  0  0  0  0  0  0  0  0  0  0  0
   11.2780   50.4440   53.4140 C   0  0  0  0  0  0  0  0  0  0  0  0
   11.8810   50.5030   52.1610 C   0  0  0  0  0  0  0  0  0  0  0  0
   12.8120   49.5390   51.7670 C   0  0  0  0  0  0  0  0  0  0  0  0
   13.4200   49.6370   50.5040 C   0  0  0  0  0  0  0  0  0  0  0  0
   14.3620   48.7010   50.0830 C   0  0  0  0  0  0  0  0  0  0  0  0
   14.7080   47.6550   50.9250 C   0  0  0  0  0  0  0  0  0  0  0  0
   14.1080   47.5450   52.1830 C   0  0  0  0  0  0  0  0  0  0  0  0
   13.1410   48.4740   52.6420 C   0  0  0  0  0  0  0  0  0  0  0  0
   12.4960   48.4000   53.9230 C   0  0  0  0  0  0  0  0  0  0  0  0
   12.8350   47.2690   54.8730 C   0  0  0  0  0  0  0  0  0  0  0  0
   12.7420   47.7090   56.2440 N   0  0  0  0  0  0  0  0  0  0  0  0
   12.5710   46.8110   57.2730 C   0  0  0  0  0  0  0  0  0  0  0  0
   12.3420   45.6230   57.0730 O   0  0  0  0  0  0  0  0  0  0  0  0
   12.6810   47.3560   58.6590 C   0  0  0  0  0  0  0  0  0  0  0  0
   11.5880   47.4630   59.5510 C   0  0  0  0  0  0  0  0  0  0  0  0
   10.3670   47.0280   59.0970 O   0  0  0  0  0  0  0  0  0  0  0  0
    9.8090   45.8520   59.6700 C   0  0  0  0  0  0  0  0  0  0  0  0
   11.7850   47.9890   60.8480 C   0  0  0  0  0  0  0  0  0  0  0  0
   13.0460   48.4220   61.2600 C   0  0  0  0  0  0  0  0  0  0  0  0
   13.2610   48.8770   62.5220 O   0  0  0  0  0  0  0  0  0  0  0  0
   14.1060   48.3510   60.3840 C   0  0  0  0  0  0  0  0  0  0  0  0
   13.9180   47.8080   59.1050 C   0  0  0  0  0  0  0  0  0  0  0  0
   15.1030   47.7770   58.3940 O   0  0  0  0  0  0  0  0  0  0  0  0
   16.0470   48.4490   59.1580 C   0  0  0  0  0  0  0  0  0  0  0  0
   17.1310   49.0370   58.6390 C   0  0  0  0  0  0  0  0  0  0  0  0
   17.8450   50.0130   59.4310 C   0  0  0  0  0  0  0  0  0  0  0  0
   19.0860   50.3120   58.9150 O   0  0  0  0  0  0  0  0  0  0  0  0
   17.2810   50.6180   60.5010 C   0  0  0  0  0  0  0  0  0  0  0  0
   18.0200   51.6840   61.2330 C   0  0  0  0  0  0  0  0  0  0  0  0
   17.5960   53.1210   61.0820 C   0  0  0  0  0  0  0  0  0  0  0  0
   18.9630   51.3790   61.9710 O   0  0  0  0  0  0  0  0  0  0  0  0
   15.9010   50.1580   60.8880 C   0  0  0  0  0  0  0  0  0  0  0  0
   15.1430   50.9350   61.4670 O   0  0  0  0  0  0  0  0  0  0  0  0
   15.5540   48.6980   60.5680 C   0  0  1  0  0  0  0  0  0  0  0  0
   16.2200   47.7570   61.5800 C   0  0  0  0  0  0  0  0  0  0  0  0
    9.0704   50.1297   56.5785 H   0  0  0  0  0  0  0  0  0  0  0  0
    9.4811   50.9342   55.0258 H   0  0  0  0  0  0  0  0  0  0  0  0
    8.8391   49.2565   55.0258 H   0  0  0  0  0  0  0  0  0  0  0  0
   11.4696   50.0691   56.3460 H   0  0  0  0  0  0  0  0  0  0  0  0
   10.8343   48.3980   56.0282 H   0  0  0  0  0  0  0  0  0  0  0  0
   10.5520   51.2180   53.7035 H   0  0  0  0  0  0  0  0  0  0  0  0
   11.6209   51.3198   51.4716 H   0  0  0  0  0  0  0  0  0  0  0  0
   13.1474   50.4673   49.8360 H   0  0  0  0  0  0  0  0  0  0  0  0
   14.8277   48.7910   49.0905 H   0  0  0  0  0  0  0  0  0  0  0  0
   15.4535   46.9128   50.6036 H   0  0  0  0  0  0  0  0  0  0  0  0
   14.3960   46.7097   52.8383 H   0  0  0  0  0  0  0  0  0  0  0  0
   12.1315   46.4389   54.7117 H   0  0  0  0  0  0  0  0  0  0  0  0
   13.8659   46.9394   54.6767 H   0  0  0  0  0  0  0  0  0  0  0  0
   13.1250   48.6190   56.4750 H   0  0  0  0  0  0  0  0  0  0  0  0
    9.8443   45.9263   60.7669 H   0  0  0  0  0  0  0  0  0  0  0  0
    8.7641   45.7451   59.3431 H   0  0  0  0  0  0  0  0  0  0  0  0
   10.3870   44.9750   59.3431 H   0  0  0  0  0  0  0  0  0  0  0  0
   10.9337   48.0579   61.5413 H   0  0  0  0  0  0  0  0  0  0  0  0
   13.4280   48.1260   63.1140 H   0  0  0  0  0  0  0  0  0  0  0  0
   17.4736   48.7817   57.6254 H   0  0  0  0  0  0  0  0  0  0  0  0
   19.0520   51.2160   58.5260 H   0  0  0  0  0  0  0  0  0  0  0  0
   17.4633   53.5706   62.0771 H   0  0  0  0  0  0  0  0  0  0  0  0
   18.3689   53.6752   60.5293 H   0  0  0  0  0  0  0  0  0  0  0  0
   16.6460   53.1669   60.5293 H   0  0  0  0  0  0  0  0  0  0  0  0
   15.9839   48.0905   62.6013 H   0  0  0  0  0  0  0  0  0  0  0  0
   15.8437   46.7340   61.4322 H   0  0  0  0  0  0  0  0  0  0  0  0
   17.3099   47.7717   61.4322 H   0  0  0  0  0  0  0  0  0  0  0  0
  1  2  1  0
  2  3  1  0
  3  4  2  0
  4  5  1  0
  5  6  2  0
  6  7  1  0
  7  8  2  0
  8  9  1  0
  9 10  2  0
 10 11  1  0
 11 12  2  0
 12 13  1  0
 13 14  1  0
 14 15  1  0
 15 16  2  0
 15 17  1  0
 17 18  2  0
 18 19  1  0
 19 20  1  0
 18 21  1  0
 21 22  2  0
 22 23  1  0
 22 24  1  0
 24 25  2  0
 25 26  1  0
 26 27  1  0
 27 28  2  0
 28 29  1  0
 29 30  1  0
 29 31  2  0
 31 32  1  0
 32 33  1  0
 32 34  2  0
 31 35  1  0
 35 36  2  0
 35 37  1  0
 37 38  1  1
 12  3  1  0
 25 17  1  0
 37 27  1  0
 11  6  1  0
 37 24  1  0
  1 39  1  0
  1 40  1  0
  1 41  1  0
  2 42  1  0
  2 43  1  0
  4 44  1  0
  5 45  1  0
  7 46  1  0
  8 47  1  0
  9 48  1  0
 10 49  1  0
 13 50  1  0
 13 51  1  0
 14 52  1  0
 20 53  1  0
 20 54  1  0
 20 55  1  0
 21 56  1  0
 23 57  1  0
 28 58  1  0
 30 59  1  0
 33 60  1  0
 33 61  1  0
 33 62  1  0
 38 63  1  0
 38 64  1  0
 38 65  1  0
M  END
>  <meeko>  (8) 
{"is_sidechain": [false], "free_energy": -8.918, "intermolecular_energy": -13.418, "internal_energy": -0.505}

$$$$
3b1m_ligand
     RDKit          3D

 65 69  0  0  0  0  0  0  0  0999 V2000
   10.4640   46.3100   59.0350 C   0  0  0  0  0  0  0  0  0  0  0  0
   11.0200   47.6810   59.3920 C   0  0  0  0  0  0  0  0  0  0  0  0
   11.7470   47.6710   60.7210 C   0  0  0  0  0  0  0  0  0  0  0  0
   10.9650   47.6620   61.8850 C   0  0  0  0  0  0  0  0  0  0  0  0
   11.5570   47.6400   63.1440 C   0  0  0  0  0  0  0  0  0  0  0  0
   12.9480   47.6180   63.2830 C   0  0  0  0  0  0  0  0  0  0  0  0
   13.5160   47.5740   64.5670 C   0  0  0  0  0  0  0  0  0  0  0  0
   14.8970   47.5390   64.7430 C   0  0  0  0  0  0  0  0  0  0  0  0
   15.7270   47.5450   63.6320 C   0  0  0  0  0  0  0  0  0  0  0  0
   15.1740   47.5920   62.3490 C   0  0  0  0  0  0  0  0  0  0  0  0
   13.7740   47.6350   62.1320 C   0  0  0  0  0  0  0  0  0  0  0  0
   13.1600   47.6880   60.8350 C   0  0  0  0  0  0  0  0  0  0  0  0
   14.0270   47.7060   59.5910 C   0  0  0  0  0  0  0  0  0  0  0  0
   15.2510   48.4310   59.8330 N   0  0  0  0  0  0  0  0  0  0  0  0
   16.2610   48.4580   58.8980 C   0  0  0  0  0  0  0  0  0  0  0  0
   16.2400   47.7600   57.8910 O   0  0  0  0  0  0  0  0  0  0  0  0
   17.3940   49.3920   59.1700 C   0  0  0  0  0  0  0  0  0  0  0  0
   18.6160   49.3750   58.4560 C   0  0  0  0  0  0  0  0  0  0  0  0
   18.7410   48.4410   57.4570 O   0  0  0  0  0  0  0  0  0  0  0  0
   18.7690   48.8910   56.1070 C   0  0  0  0  0  0  0  0  0  0  0  0
   19.6350   50.2990   58.7790 C   0  0  0  0  0  0  0  0  0  0  0  0
   19.4600   51.2260   59.8080 C   0  0  0  0  0  0  0  0  0  0  0  0
   20.4090   52.1560   60.0910 O   0  0  0  0  0  0  0  0  0  0  0  0
   18.2860   51.2250   60.5280 C   0  0  0  0  0  0  0  0  0  0  0  0
   17.2640   50.3240   60.1940 C   0  0  0  0  0  0  0  0  0  0  0  0
   16.1530   50.5080   60.9930 O   0  0  0  0  0  0  0  0  0  0  0  0
   16.5050   51.4360   61.9630 C   0  0  0  0  0  0  0  0  0  0  0  0
   15.9060   51.5170   63.1570 C   0  0  0  0  0  0  0  0  0  0  0  0
   16.5640   52.2370   64.2240 C   0  0  0  0  0  0  0  0  0  0  0  0
   15.7270   52.5000   65.2840 O   0  0  0  0  0  0  0  0  0  0  0  0
   17.8870   52.5160   64.1890 C   0  0  0  0  0  0  0  0  0  0  0  0
   18.5420   53.1800   65.3510 C   0  0  0  0  0  0  0  0  0  0  0  0
   19.1340   54.5540   65.1860 C   0  0  0  0  0  0  0  0  0  0  0  0
   18.5790   52.6040   66.4440 O   0  0  0  0  0  0  0  0  0  0  0  0
   18.6280   52.1230   62.9390 C   0  0  0  0  0  0  0  0  0  0  0  0
   19.8300   51.8690   63.0030 O   0  0  0  0  0  0  0  0  0  0  0  0
   17.8170   52.1190   61.6380 C   0  0  1  0  0  0  0  0  0  0  0  0
   17.6050   53.5530   61.1360 C   0  0  0  0  0  0  0  0  0  0  0  0
   10.2386   45.7543   59.9571 H   0  0  0  0  0  0  0  0  0  0  0  0
    9.5435   46.4299   58.4449 H   0  0  0  0  0  0  0  0  0  0  0  0
   11.2081   45.7549   58.4449 H   0  0  0  0  0  0  0  0  0  0  0  0
   11.7221   47.9951   58.6056 H   0  0  0  0  0  0  0  0  0  0  0  0
   10.1742   48.3796   59.4730 H   0  0  0  0  0  0  0  0  0  0  0  0
    9.8682   47.6725   61.8016 H   0  0  0  0  0  0  0  0  0  0  0  0
   10.9220   47.6399   64.0422 H   0  0  0  0  0  0  0  0  0  0  0  0
   12.8585   47.5671   65.4488 H   0  0  0  0  0  0  0  0  0  0  0  0
   15.3261   47.5069   65.7553 H   0  0  0  0  0  0  0  0  0  0  0  0
   16.8190   47.5128   63.7602 H   0  0  0  0  0  0  0  0  0  0  0  0
   15.8475   47.5957   61.4793 H   0  0  0  0  0  0  0  0  0  0  0  0
   14.2702   46.6720   59.3053 H   0  0  0  0  0  0  0  0  0  0  0  0
   13.4741   48.2054   58.7817 H   0  0  0  0  0  0  0  0  0  0  0  0
   15.2320   49.1710   60.5260 H   0  0  0  0  0  0  0  0  0  0  0  0
   18.8373   49.9887   56.0877 H   0  0  0  0  0  0  0  0  0  0  0  0
   19.6421   48.4603   55.5950 H   0  0  0  0  0  0  0  0  0  0  0  0
   17.8493   48.5718   55.5950 H   0  0  0  0  0  0  0  0  0  0  0  0
   20.5779   50.2877   58.2126 H   0  0  0  0  0  0  0  0  0  0  0  0
   21.2800   51.7290   60.1320 H   0  0  0  0  0  0  0  0  0  0  0  0
   14.9276   51.0428   63.3240 H   0  0  0  0  0  0  0  0  0  0  0  0
   15.2250   51.6810   65.4960 H   0  0  0  0  0  0  0  0  0  0  0  0
   19.3232   54.9931   66.1766 H   0  0  0  0  0  0  0  0  0  0  0  0
   20.0806   54.4811   64.6304 H   0  0  0  0  0  0  0  0  0  0  0  0
   18.4309   55.1919   64.6304 H   0  0  0  0  0  0  0  0  0  0  0  0
   17.5047   54.2315   61.9960 H   0  0  0  0  0  0  0  0  0  0  0  0
   18.4676   53.8592   60.5260 H   0  0  0  0  0  0  0  0  0  0  0  0
   16.6907   53.5965   60.5260 H   0  0  0  0  0  0  0  0  0  0  0  0
  1  2  1  0
  2  3  1  0
  3  4  2  0
  4  5  1  0
  5  6  2  0
  6  7  1  0
  7  8  2  0
  8  9  1  0
  9 10  2  0
 10 11  1  0
 11 12  2  0
 12 13  1  0
 13 14  1  0
 14 15  1  0
 15 16  2  0
 15 17  1  0
 17 18  2  0
 18 19  1  0
 19 20  1  0
 18 21  1  0
 21 22  2  0
 22 23  1  0
 22 24  1  0
 24 25  2  0
 25 26  1  0
 26 27  1  0
 27 28  2  0
 28 29  1  0
 29 30  1  0
 29 31  2  0
 31 32  1  0
 32 33  1  0
 32 34  2  0
 31 35  1  0
 35 36  2  0
 35 37  1  0
 37 38  1  6
 12  3  1  0
 25 17  1  0
 37 27  1  0
 11  6  1  0
 37 24  1  0
  1 39  1  0
  1 40  1  0
  1 41  1  0
  2 42  1  0
  2 43  1  0
  4 44  1  0
  5 45  1  0
  7 46  1  0
  8 47  1  0
  9 48  1  0
 10 49  1  0
 13 50  1  0
 13 51  1  0
 14 52  1  0
 20 53  1  0
 20 54  1  0
 20 55  1  0
 21 56  1  0
 23 57  1  0
 28 58  1  0
 30 59  1  0
 33 60  1  0
 33 61  1  0
 33 62  1  0
 38 63  1  0
 38 64  1  0
 38 65  1  0
M  END
>  <meeko>  (9) 
{"is_sidechain": [false], "free_energy": -8.584, "intermolecular_energy": -12.909, "internal_energy": -0.543}

$$$$
