1sqa_ligand
     RDKit          3D

 54 57  0  0  0  0  0  0  0  0999 V2000
   17.0570   19.7370   33.9810 N   0  0  0  0  0  0  0  0  0  0  0  0
   18.3660   19.8220   34.0770 C   0  0  0  0  0  0  0  0  0  0  0  0
   18.9550   20.9500   34.4100 N   0  0  0  0  0  0  0  0  0  0  0  0
   19.1870   18.6320   33.8120 C   0  0  0  0  0  0  0  0  0  0  0  0
   18.6010   17.4490   33.3550 C   0  0  0  0  0  0  0  0  0  0  0  0
   19.3860   16.3200   33.1240 C   0  0  0  0  0  0  0  0  0  0  0  0
   20.7730   16.3430   33.3360 C   0  0  0  0  0  0  0  0  0  0  0  0
   21.5310   15.1870   33.1190 C   0  0  0  0  0  0  0  0  0  0  0  0
   22.9100   15.1780   33.3450 C   0  0  0  0  0  0  0  0  0  0  0  0
   23.6630   13.9160   33.0890 C   0  0  0  0  0  0  0  0  0  0  0  0
   24.7440   13.9970   32.5170 O   0  0  0  0  0  0  0  0  0  0  0  0
   23.0350   12.7480   33.4900 N   0  0  0  0  0  0  0  0  0  0  0  0
   23.5640   11.4410   33.4300 C   0  0  0  0  0  0  0  0  0  0  0  0
   23.9500   10.8420   34.6340 C   0  0  0  0  0  0  0  0  0  0  0  0
   24.4880    9.5480   34.6540 C   0  0  0  0  0  0  0  0  0  0  0  0
   24.6650    8.8340   33.4610 C   0  0  0  0  0  0  0  0  0  0  0  0
   25.2090    7.4360   33.4700 C   0  0  0  0  0  0  0  0  0  0  0  0
   24.8970    6.7530   34.7430 N   0  0  0  0  0  0  0  0  0  0  0  0
   24.2850    9.4380   32.2570 C   0  0  0  0  0  0  0  0  0  0  0  0
   23.7410   10.7270   32.2440 C   0  0  0  0  0  0  0  0  0  0  0  0
   23.5470   16.3500   33.7560 C   0  0  0  0  0  0  0  0  0  0  0  0
   22.8240   17.5370   33.9640 C   0  0  0  0  0  0  0  0  0  0  0  0
   23.4670   18.7130   34.4010 N   0  0  0  0  0  0  0  0  0  0  0  0
   24.0800   19.0570   35.6050 C   0  0  0  0  0  0  0  0  0  0  0  0
   24.7470   20.2140   35.7540 N   0  0  0  0  0  0  0  0  0  0  0  0
   25.3350   20.4290   36.9480 C   0  0  0  0  0  0  0  0  0  0  0  0
   25.2820   19.5410   37.9930 C   0  0  0  0  0  0  0  0  0  0  0  0
   24.5820   18.3890   37.7440 C   0  0  0  0  0  0  0  0  0  0  0  0
   23.9840   18.1240   36.5670 N   0  0  0  0  0  0  0  0  0  0  0  0
   21.4060   17.5320   33.7770 C   0  0  0  0  0  0  0  0  0  0  0  0
   20.5780   18.6590   34.0170 C   0  0  0  0  0  0  0  0  0  0  0  0
   16.6240   18.8630   33.6970 H   0  0  0  0  0  0  0  0  0  0  0  0
   16.4440   20.5220   34.1560 H   0  0  0  0  0  0  0  0  0  0  0  0
   19.9660   20.9880   34.5050 H   0  0  0  0  0  0  0  0  0  0  0  0
   18.4400   21.7970   34.6080 H   0  0  0  0  0  0  0  0  0  0  0  0
   17.5163   17.4080   33.1767 H   0  0  0  0  0  0  0  0  0  0  0  0
   18.9093   15.3944   32.7691 H   0  0  0  0  0  0  0  0  0  0  0  0
   21.0340   14.2717   32.7652 H   0  0  0  0  0  0  0  0  0  0  0  0
   22.0750   12.8260   33.8030 H   0  0  0  0  0  0  0  0  0  0  0  0
   23.8296   11.3941   35.5777 H   0  0  0  0  0  0  0  0  0  0  0  0
   24.7732    9.0897   35.6124 H   0  0  0  0  0  0  0  0  0  0  0  0
   24.7610    6.8706   32.6395 H   0  0  0  0  0  0  0  0  0  0  0  0
   26.3022    7.4853   33.3582 H   0  0  0  0  0  0  0  0  0  0  0  0
   24.0580    7.1580   35.1760 H   0  0  0  0  0  0  0  0  0  0  0  0
   24.7310    5.7490   34.6050 H   0  0  0  0  0  0  0  0  0  0  0  0
   25.6670    6.8640   35.4140 H   0  0  0  0  0  0  0  0  0  0  0  0
   24.4155    8.8932   31.3103 H   0  0  0  0  0  0  0  0  0  0  0  0
   23.4491   11.1835   31.2867 H   0  0  0  0  0  0  0  0  0  0  0  0
   24.6347   16.3444   33.9201 H   0  0  0  0  0  0  0  0  0  0  0  0
   23.9090   19.2670   33.6810 H   0  0  0  0  0  0  0  0  0  0  0  0
   25.8882   21.3687   37.0927 H   0  0  0  0  0  0  0  0  0  0  0  0
   25.7663   19.7393   38.9605 H   0  0  0  0  0  0  0  0  0  0  0  0
   24.5048   17.6420   38.5477 H   0  0  0  0  0  0  0  0  0  0  0  0
   21.0418   19.5892   34.3771 H   0  0  0  0  0  0  0  0  0  0  0  0
  1  2  1  0
  2  3  2  0
  2  4  1  0
  4  5  2  0
  5  6  1  0
  6  7  2  0
  7  8  1  0
  8  9  2  0
  9 10  1  0
 10 11  2  0
 10 12  1  0
 12 13  1  0
 13 14  2  0
 14 15  1  0
 15 16  2  0
 16 17  1  0
 17 18  1  0
 16 19  1  0
 19 20  2  0
  9 21  1  0
 21 22  2  0
 22 23  1  0
 23 24  1  0
 24 25  2  0
 25 26  1  0
 26 27  2  0
 27 28  1  0
 28 29  2  0
 22 30  1  0
 30 31  2  0
 31  4  1  0
 30  7  1  0
 20 13  1  0
 29 24  1  0
  1 32  1  0
  1 33  1  0
  3 34  1  0
  3 35  1  0
  5 36  1  0
  6 37  1  0
  8 38  1  0
 12 39  1  0
 14 40  1  0
 15 41  1  0
 17 42  1  0
 17 43  1  0
 18 44  1  0
 18 45  1  0
 18 46  1  0
 19 47  1  0
 20 48  1  0
 21 49  1  0
 23 50  1  0
 26 51  1  0
 27 52  1  0
 28 53  1  0
 31 54  1  0
M  CHG  2   3   1  18   1
M  END
>  <meeko>  (1) 
{"is_sidechain": [false], "free_energy": -9.489, "intermolecular_energy": -13.095, "internal_energy": -0.826}

$$$$
1sqa_ligand
     RDKit          3D

 54 57  0  0  0  0  0  0  0  0999 V2000
   26.4940   19.8560   29.3950 N   0  0  0  0  0  0  0  0  0  0  0  0
   25.3150   19.4690   29.8300 C   0  0  0  0  0  0  0  0  0  0  0  0
   24.2740   20.2710   29.7880 N   0  0  0  0  0  0  0  0  0  0  0  0
   25.1560   18.1110   30.3700 C   0  0  0  0  0  0  0  0  0  0  0  0
   25.9280   17.0550   29.8800 C   0  0  0  0  0  0  0  0  0  0  0  0
   25.7560   15.7660   30.3860 C   0  0  0  0  0  0  0  0  0  0  0  0
   24.8180   15.5000   31.3940 C   0  0  0  0  0  0  0  0  0  0  0  0
   24.6510   14.1920   31.8640 C   0  0  0  0  0  0  0  0  0  0  0  0
   23.7080   13.8980   32.8510 C   0  0  0  0  0  0  0  0  0  0  0  0
   23.5830   12.4850   33.3160 C   0  0  0  0  0  0  0  0  0  0  0  0
   22.5130   12.1290   33.7940 O   0  0  0  0  0  0  0  0  0  0  0  0
   24.7250   11.7100   33.1980 N   0  0  0  0  0  0  0  0  0  0  0  0
   24.8470   10.3350   33.4920 C   0  0  0  0  0  0  0  0  0  0  0  0
   25.2790    9.9830   34.7750 C   0  0  0  0  0  0  0  0  0  0  0  0
   25.4300    8.6380   35.1390 C   0  0  0  0  0  0  0  0  0  0  0  0
   25.1650    7.6170   34.2160 C   0  0  0  0  0  0  0  0  0  0  0  0
   25.2890    6.1730   34.6010 C   0  0  0  0  0  0  0  0  0  0  0  0
   25.3170    6.0160   36.0700 N   0  0  0  0  0  0  0  0  0  0  0  0
   24.7390    7.9730   32.9300 C   0  0  0  0  0  0  0  0  0  0  0  0
   24.5830    9.3170   32.5750 C   0  0  0  0  0  0  0  0  0  0  0  0
   22.9470   14.9290   33.4050 C   0  0  0  0  0  0  0  0  0  0  0  0
   23.1000   16.2580   32.9760 C   0  0  0  0  0  0  0  0  0  0  0  0
   22.3140   17.2940   33.5200 N   0  0  0  0  0  0  0  0  0  0  0  0
   20.9630   17.6140   33.3940 C   0  0  0  0  0  0  0  0  0  0  0  0
   20.4080   18.6250   34.0840 N   0  0  0  0  0  0  0  0  0  0  0  0
   19.0850   18.8240   33.9150 C   0  0  0  0  0  0  0  0  0  0  0  0
   18.3010   18.0600   33.0900 C   0  0  0  0  0  0  0  0  0  0  0  0
   18.9550   17.0510   32.4320 C   0  0  0  0  0  0  0  0  0  0  0  0
   20.2730   16.8070   32.5710 N   0  0  0  0  0  0  0  0  0  0  0  0
   24.0330   16.5500   31.9320 C   0  0  0  0  0  0  0  0  0  0  0  0
   24.2210   17.8470   31.3870 C   0  0  0  0  0  0  0  0  0  0  0  0
   27.2910   19.2290   29.4600 H   0  0  0  0  0  0  0  0  0  0  0  0
   26.6600   20.7760   29.0100 H   0  0  0  0  0  0  0  0  0  0  0  0
   23.3660   19.9440   30.1050 H   0  0  0  0  0  0  0  0  0  0  0  0
   24.3250   21.2130   29.4240 H   0  0  0  0  0  0  0  0  0  0  0  0
   26.6738   17.2401   29.0929 H   0  0  0  0  0  0  0  0  0  0  0  0
   26.3675   14.9433   29.9869 H   0  0  0  0  0  0  0  0  0  0  0  0
   25.2718   13.3839   31.4497 H   0  0  0  0  0  0  0  0  0  0  0  0
   25.5790   12.1860   32.9330 H   0  0  0  0  0  0  0  0  0  0  0  0
   25.5031   10.7721   35.5078 H   0  0  0  0  0  0  0  0  0  0  0  0
   25.7590    8.3817   36.1569 H   0  0  0  0  0  0  0  0  0  0  0  0
   24.4297    5.6180   34.1964 H   0  0  0  0  0  0  0  0  0  0  0  0
   26.2305    5.7806   34.1891 H   0  0  0  0  0  0  0  0  0  0  0  0
   24.5980    6.6020   36.5120 H   0  0  0  0  0  0  0  0  0  0  0  0
   25.1520    5.0430   36.3520 H   0  0  0  0  0  0  0  0  0  0  0  0
   26.2240    6.3130   36.4510 H   0  0  0  0  0  0  0  0  0  0  0  0
   24.5247    7.1869   32.1910 H   0  0  0  0  0  0  0  0  0  0  0  0
   24.2478    9.5747   31.5595 H   0  0  0  0  0  0  0  0  0  0  0  0
   22.2142   14.6965   34.1918 H   0  0  0  0  0  0  0  0  0  0  0  0
   22.6150   17.6490   34.4170 H   0  0  0  0  0  0  0  0  0  0  0  0
   18.6083   19.6453   34.4702 H   0  0  0  0  0  0  0  0  0  0  0  0
   17.2237   18.2436   32.9649 H   0  0  0  0  0  0  0  0  0  0  0  0
   18.3739   16.4071   31.7554 H   0  0  0  0  0  0  0  0  0  0  0  0
   23.6124   18.6772   31.7747 H   0  0  0  0  0  0  0  0  0  0  0  0
  1  2  1  0
  2  3  2  0
  2  4  1  0
  4  5  2  0
  5  6  1  0
  6  7  2  0
  7  8  1  0
  8  9  2  0
  9 10  1  0
 10 11  2  0
 10 12  1  0
 12 13  1  0
 13 14  2  0
 14 15  1  0
 15 16  2  0
 16 17  1  0
 17 18  1  0
 16 19  1  0
 19 20  2  0
  9 21  1  0
 21 22  2  0
 22 23  1  0
 23 24  1  0
 24 25  2  0
 25 26  1  0
 26 27  2  0
 27 28  1  0
 28 29  2  0
 22 30  1  0
 30 31  2  0
 31  4  1  0
 30  7  1  0
 20 13  1  0
 29 24  1  0
  1 32  1  0
  1 33  1  0
  3 34  1  0
  3 35  1  0
  5 36  1  0
  6 37  1  0
  8 38  1  0
 12 39  1  0
 14 40  1  0
 15 41  1  0
 17 42  1  0
 17 43  1  0
 18 44  1  0
 18 45  1  0
 18 46  1  0
 19 47  1  0
 20 48  1  0
 21 49  1  0
 23 50  1  0
 26 51  1  0
 27 52  1  0
 28 53  1  0
 31 54  1  0
M  CHG  2   3   1  18   1
M  END
>  <meeko>  (2) 
{"is_sidechain": [false], "free_energy": -9.093, "intermolecular_energy": -12.5, "internal_energy": -0.874}

$$$$
1sqa_ligand
     RDKit          3D

 54 57  0  0  0  0  0  0  0  0999 V2000
   17.0010   19.7530   33.9780 N   0  0  0  0  0  0  0  0  0  0  0  0
   18.3060   19.9140   33.9830 C   0  0  0  0  0  0  0  0  0  0  0  0
   18.8530   21.0520   34.3520 N   0  0  0  0  0  0  0  0  0  0  0  0
   19.1710   18.7990   33.5740 C   0  0  0  0  0  0  0  0  0  0  0  0
   18.6350   17.6790   32.9340 C   0  0  0  0  0  0  0  0  0  0  0  0
   19.4620   16.6170   32.5660 C   0  0  0  0  0  0  0  0  0  0  0  0
   20.8410   16.6490   32.8200 C   0  0  0  0  0  0  0  0  0  0  0  0
   21.6410   15.5570   32.4610 C   0  0  0  0  0  0  0  0  0  0  0  0
   23.0130   15.5550   32.7240 C   0  0  0  0  0  0  0  0  0  0  0  0
   23.8130   14.3650   32.3110 C   0  0  0  0  0  0  0  0  0  0  0  0
   23.3650   13.2530   32.5660 O   0  0  0  0  0  0  0  0  0  0  0  0
   25.0290   14.6380   31.7060 N   0  0  0  0  0  0  0  0  0  0  0  0
   25.9310   13.7000   31.1600 C   0  0  0  0  0  0  0  0  0  0  0  0
   26.0360   13.6370   29.7660 C   0  0  0  0  0  0  0  0  0  0  0  0
   26.9050   12.7270   29.1510 C   0  0  0  0  0  0  0  0  0  0  0  0
   27.6780   11.8480   29.9230 C   0  0  0  0  0  0  0  0  0  0  0  0
   28.6370   10.8920   29.2790 C   0  0  0  0  0  0  0  0  0  0  0  0
   27.9880    9.5940   29.0020 N   0  0  0  0  0  0  0  0  0  0  0  0
   27.5660   11.9070   31.3170 C   0  0  0  0  0  0  0  0  0  0  0  0
   26.7010   12.8240   31.9260 C   0  0  0  0  0  0  0  0  0  0  0  0
   23.6020   16.6730   33.3190 C   0  0  0  0  0  0  0  0  0  0  0  0
   22.8370   17.7960   33.6740 C   0  0  0  0  0  0  0  0  0  0  0  0
   23.4300   18.9130   34.2960 N   0  0  0  0  0  0  0  0  0  0  0  0
   24.0260   19.0880   35.5430 C   0  0  0  0  0  0  0  0  0  0  0  0
   24.7270   20.1960   35.8430 N   0  0  0  0  0  0  0  0  0  0  0  0
   25.2940   20.2450   37.0660 C   0  0  0  0  0  0  0  0  0  0  0  0
   25.1880   19.2410   37.9940 C   0  0  0  0  0  0  0  0  0  0  0  0
   24.4580   18.1520   37.5950 C   0  0  0  0  0  0  0  0  0  0  0  0
   23.8780   18.0510   36.3830 N   0  0  0  0  0  0  0  0  0  0  0  0
   21.4250   17.7780   33.4460 C   0  0  0  0  0  0  0  0  0  0  0  0
   20.5550   18.8350   33.8220 C   0  0  0  0  0  0  0  0  0  0  0  0
   16.5980   18.8750   33.6650 H   0  0  0  0  0  0  0  0  0  0  0  0
   16.3590   20.4840   34.2530 H   0  0  0  0  0  0  0  0  0  0  0  0
   19.8640   21.1470   34.3750 H   0  0  0  0  0  0  0  0  0  0  0  0
   18.3070   21.8500   34.6470 H   0  0  0  0  0  0  0  0  0  0  0  0
   17.5571   17.6340   32.7193 H   0  0  0  0  0  0  0  0  0  0  0  0
   19.0246   15.7392   32.0679 H   0  0  0  0  0  0  0  0  0  0  0  0
   21.1826   14.6887   31.9650 H   0  0  0  0  0  0  0  0  0  0  0  0
   25.3370   15.6030   31.7070 H   0  0  0  0  0  0  0  0  0  0  0  0
   25.4279   14.3112   29.1450 H   0  0  0  0  0  0  0  0  0  0  0  0
   26.9817   12.7016   28.0540 H   0  0  0  0  0  0  0  0  0  0  0  0
   28.9943   11.3243   28.3327 H   0  0  0  0  0  0  0  0  0  0  0  0
   29.4775   10.7226   29.9681 H   0  0  0  0  0  0  0  0  0  0  0  0
   27.8020    9.4870   27.9980 H   0  0  0  0  0  0  0  0  0  0  0  0
   28.5730    8.8050   29.3030 H   0  0  0  0  0  0  0  0  0  0  0  0
   27.0840    9.5280   29.4860 H   0  0  0  0  0  0  0  0  0  0  0  0
   28.1638   11.2258   31.9404 H   0  0  0  0  0  0  0  0  0  0  0  0
   26.6274   12.8543   33.0231 H   0  0  0  0  0  0  0  0  0  0  0  0
   24.6847   16.6739   33.5131 H   0  0  0  0  0  0  0  0  0  0  0  0
   23.8500   19.5910   33.6740 H   0  0  0  0  0  0  0  0  0  0  0  0
   25.8739   21.1405   37.3339 H   0  0  0  0  0  0  0  0  0  0  0  0
   25.6555   19.3052   38.9876 H   0  0  0  0  0  0  0  0  0  0  0  0
   24.3394   17.3168   38.3010 H   0  0  0  0  0  0  0  0  0  0  0  0
   20.9794   19.7156   34.3264 H   0  0  0  0  0  0  0  0  0  0  0  0
  1  2  1  0
  2  3  2  0
  2  4  1  0
  4  5  2  0
  5  6  1  0
  6  7  2  0
  7  8  1  0
  8  9  2  0
  9 10  1  0
 10 11  2  0
 10 12  1  0
 12 13  1  0
 13 14  2  0
 14 15  1  0
 15 16  2  0
 16 17  1  0
 17 18  1  0
 16 19  1  0
 19 20  2  0
  9 21  1  0
 21 22  2  0
 22 23  1  0
 23 24  1  0
 24 25  2  0
 25 26  1  0
 26 27  2  0
 27 28  1  0
 28 29  2  0
 22 30  1  0
 30 31  2  0
 31  4  1  0
 30  7  1  0
 20 13  1  0
 29 24  1  0
  1 32  1  0
  1 33  1  0
  3 34  1  0
  3 35  1  0
  5 36  1  0
  6 37  1  0
  8 38  1  0
 12 39  1  0
 14 40  1  0
 15 41  1  0
 17 42  1  0
 17 43  1  0
 18 44  1  0
 18 45  1  0
 18 46  1  0
 19 47  1  0
 20 48  1  0
 21 49  1  0
 23 50  1  0
 26 51  1  0
 27 52  1  0
 28 53  1  0
 31 54  1  0
M  CHG  2   3   1  18   1
M  END
>  <meeko>  (3) 
{"is_sidechain": [false], "free_energy": -9.042, "intermolecular_energy": -12.479, "internal_energy": -0.825}

$$$$
1sqa_ligand
     RDKit          3D

 54 57  0  0  0  0  0  0  0  0999 V2000
   28.9450    9.1590   30.0810 N   0  0  0  0  0  0  0  0  0  0  0  0
   27.6300    9.1310   30.0950 C   0  0  0  0  0  0  0  0  0  0  0  0
   26.9660    8.0570   29.7260 N   0  0  0  0  0  0  0  0  0  0  0  0
   26.8890   10.3210   30.5350 C   0  0  0  0  0  0  0  0  0  0  0  0
   27.1250   11.5660   29.9470 C   0  0  0  0  0  0  0  0  0  0  0  0
   26.4290   12.6930   30.3850 C   0  0  0  0  0  0  0  0  0  0  0  0
   25.4780   12.6050   31.4120 C   0  0  0  0  0  0  0  0  0  0  0  0
   24.8140   13.7590   31.8470 C   0  0  0  0  0  0  0  0  0  0  0  0
   23.8790   13.7020   32.8830 C   0  0  0  0  0  0  0  0  0  0  0  0
   23.1990   14.9650   33.2960 C   0  0  0  0  0  0  0  0  0  0  0  0
   23.8400   15.7740   33.9550 O   0  0  0  0  0  0  0  0  0  0  0  0
   21.8700   15.0810   32.9250 N   0  0  0  0  0  0  0  0  0  0  0  0
   21.0320   16.1990   33.1250 C   0  0  0  0  0  0  0  0  0  0  0  0
   19.7920   16.2030   32.4760 C   0  0  0  0  0  0  0  0  0  0  0  0
   18.9080   17.2810   32.6230 C   0  0  0  0  0  0  0  0  0  0  0  0
   19.2570   18.3850   33.4120 C   0  0  0  0  0  0  0  0  0  0  0  0
   18.3080   19.5300   33.6050 C   0  0  0  0  0  0  0  0  0  0  0  0
   18.6560   20.3110   34.8100 N   0  0  0  0  0  0  0  0  0  0  0  0
   20.5020   18.3820   34.0550 C   0  0  0  0  0  0  0  0  0  0  0  0
   21.3770   17.2990   33.9110 C   0  0  0  0  0  0  0  0  0  0  0  0
   23.5750   12.4710   33.4690 C   0  0  0  0  0  0  0  0  0  0  0  0
   24.2040   11.2880   33.0460 C   0  0  0  0  0  0  0  0  0  0  0  0
   23.9110   10.0510   33.6550 N   0  0  0  0  0  0  0  0  0  0  0  0
   24.6280    9.2460   34.5390 C   0  0  0  0  0  0  0  0  0  0  0  0
   25.3160    9.7660   35.5700 N   0  0  0  0  0  0  0  0  0  0  0  0
   26.0060    8.9010   36.3400 C   0  0  0  0  0  0  0  0  0  0  0  0
   26.0330    7.5460   36.1250 C   0  0  0  0  0  0  0  0  0  0  0  0
   25.3040    7.1120   35.0480 C   0  0  0  0  0  0  0  0  0  0  0  0
   24.6050    7.9360   34.2440 N   0  0  0  0  0  0  0  0  0  0  0  0
   25.1940   11.3560   32.0160 C   0  0  0  0  0  0  0  0  0  0  0  0
   25.9290   10.2310   31.5590 C   0  0  0  0  0  0  0  0  0  0  0  0
   29.4380   10.0070   30.3450 H   0  0  0  0  0  0  0  0  0  0  0  0
   29.5060    8.3690   29.7910 H   0  0  0  0  0  0  0  0  0  0  0  0
   25.9510    8.0460   29.7700 H   0  0  0  0  0  0  0  0  0  0  0  0
   27.4240    7.2100   29.4190 H   0  0  0  0  0  0  0  0  0  0  0  0
   27.8622   11.6581   29.1358 H   0  0  0  0  0  0  0  0  0  0  0  0
   26.6297   13.6678   29.9166 H   0  0  0  0  0  0  0  0  0  0  0  0
   25.0320   14.7239   31.3659 H   0  0  0  0  0  0  0  0  0  0  0  0
   21.4310   14.2620   32.5220 H   0  0  0  0  0  0  0  0  0  0  0  0
   19.5076   15.3497   31.8428 H   0  0  0  0  0  0  0  0  0  0  0  0
   17.9326   17.2600   32.1149 H   0  0  0  0  0  0  0  0  0  0  0  0
   18.3546   20.1877   32.7245 H   0  0  0  0  0  0  0  0  0  0  0  0
   17.2930   19.1254   33.7316 H   0  0  0  0  0  0  0  0  0  0  0  0
   19.3850   19.8340   35.3540 H   0  0  0  0  0  0  0  0  0  0  0  0
   19.0010   21.2480   34.5690 H   0  0  0  0  0  0  0  0  0  0  0  0
   17.8400   20.4160   35.4240 H   0  0  0  0  0  0  0  0  0  0  0  0
   20.7946   19.2392   34.6791 H   0  0  0  0  0  0  0  0  0  0  0  0
   22.3497   17.3153   34.4244 H   0  0  0  0  0  0  0  0  0  0  0  0
   22.8294   12.4270   34.2765 H   0  0  0  0  0  0  0  0  0  0  0  0
   22.9320    9.8610   33.8160 H   0  0  0  0  0  0  0  0  0  0  0  0
   26.5794    9.3038   37.1879 H   0  0  0  0  0  0  0  0  0  0  0  0
   26.5987    6.8577   36.7702 H   0  0  0  0  0  0  0  0  0  0  0  0
   25.2892    6.0341   34.8290 H   0  0  0  0  0  0  0  0  0  0  0  0
   25.7407    9.2517   32.0233 H   0  0  0  0  0  0  0  0  0  0  0  0
  1  2  1  0
  2  3  2  0
  2  4  1  0
  4  5  2  0
  5  6  1  0
  6  7  2  0
  7  8  1  0
  8  9  2  0
  9 10  1  0
 10 11  2  0
 10 12  1  0
 12 13  1  0
 13 14  2  0
 14 15  1  0
 15 16  2  0
 16 17  1  0
 17 18  1  0
 16 19  1  0
 19 20  2  0
  9 21  1  0
 21 22  2  0
 22 23  1  0
 23 24  1  0
 24 25  2  0
 25 26  1  0
 26 27  2  0
 27 28  1  0
 28 29  2  0
 22 30  1  0
 30 31  2  0
 31  4  1  0
 30  7  1  0
 20 13  1  0
 29 24  1  0
  1 32  1  0
  1 33  1  0
  3 34  1  0
  3 35  1  0
  5 36  1  0
  6 37  1  0
  8 38  1  0
 12 39  1  0
 14 40  1  0
 15 41  1  0
 17 42  1  0
 17 43  1  0
 18 44  1  0
 18 45  1  0
 18 46  1  0
 19 47  1  0
 20 48  1  0
 21 49  1  0
 23 50  1  0
 26 51  1  0
 27 52  1  0
 28 53  1  0
 31 54  1  0
M  CHG  2   3   1  18   1
M  END
>  <meeko>  (4) 
{"is_sidechain": [false], "free_energy": -8.597, "intermolecular_energy": -12.333, "internal_energy": -0.356}

$$$$
1sqa_ligand
     RDKit          3D

 54 57  0  0  0  0  0  0  0  0999 V2000
   26.9440    7.4400   33.2860 N   0  0  0  0  0  0  0  0  0  0  0  0
   26.0230    7.7710   32.4070 C   0  0  0  0  0  0  0  0  0  0  0  0
   25.6740    6.9490   31.4410 N   0  0  0  0  0  0  0  0  0  0  0  0
   25.3680    9.0820   32.5080 C   0  0  0  0  0  0  0  0  0  0  0  0
   24.1610    9.2250   33.1960 C   0  0  0  0  0  0  0  0  0  0  0  0
   23.5370   10.4700   33.2710 C   0  0  0  0  0  0  0  0  0  0  0  0
   24.1030   11.6030   32.6680 C   0  0  0  0  0  0  0  0  0  0  0  0
   23.4410   12.8350   32.7380 C   0  0  0  0  0  0  0  0  0  0  0  0
   23.9720   13.9720   32.1270 C   0  0  0  0  0  0  0  0  0  0  0  0
   23.2220   15.2570   32.2440 C   0  0  0  0  0  0  0  0  0  0  0  0
   23.7500   16.2740   31.8090 O   0  0  0  0  0  0  0  0  0  0  0  0
   21.9970   15.1820   32.8860 N   0  0  0  0  0  0  0  0  0  0  0  0
   21.0680   16.2300   33.0570 C   0  0  0  0  0  0  0  0  0  0  0  0
   21.4350   17.2920   33.8910 C   0  0  0  0  0  0  0  0  0  0  0  0
   20.5620   18.3660   34.1140 C   0  0  0  0  0  0  0  0  0  0  0  0
   19.2940   18.3880   33.5160 C   0  0  0  0  0  0  0  0  0  0  0  0
   18.3630   19.5460   33.7190 C   0  0  0  0  0  0  0  0  0  0  0  0
   18.6560   20.2470   34.9860 N   0  0  0  0  0  0  0  0  0  0  0  0
   18.9260   17.3200   32.6880 C   0  0  0  0  0  0  0  0  0  0  0  0
   19.8050   16.2550   32.4630 C   0  0  0  0  0  0  0  0  0  0  0  0
   25.2010   13.8890   31.4690 C   0  0  0  0  0  0  0  0  0  0  0  0
   25.9070   12.6770   31.3940 C   0  0  0  0  0  0  0  0  0  0  0  0
   27.1350   12.5910   30.7090 N   0  0  0  0  0  0  0  0  0  0  0  0
   27.4580   12.6030   29.3530 C   0  0  0  0  0  0  0  0  0  0  0  0
   27.0610   11.6220   28.5230 N   0  0  0  0  0  0  0  0  0  0  0  0
   27.4610   11.7120   27.2380 C   0  0  0  0  0  0  0  0  0  0  0  0
   28.2340   12.7360   26.7530 C   0  0  0  0  0  0  0  0  0  0  0  0
   28.5910   13.6860   27.6750 C   0  0  0  0  0  0  0  0  0  0  0  0
   28.2230   13.6380   28.9700 N   0  0  0  0  0  0  0  0  0  0  0  0
   25.3380   11.5030   31.9810 C   0  0  0  0  0  0  0  0  0  0  0  0
   25.9410   10.2200   31.9110 C   0  0  0  0  0  0  0  0  0  0  0  0
   27.2170    8.1000   34.0090 H   0  0  0  0  0  0  0  0  0  0  0  0
   27.4240    6.5500   33.2670 H   0  0  0  0  0  0  0  0  0  0  0  0
   24.9420    7.2130   30.7880 H   0  0  0  0  0  0  0  0  0  0  0  0
   26.0890    6.0340   31.3270 H   0  0  0  0  0  0  0  0  0  0  0  0
   23.7004    8.3517   33.6809 H   0  0  0  0  0  0  0  0  0  0  0  0
   22.5843   10.5652   33.8125 H   0  0  0  0  0  0  0  0  0  0  0  0
   22.4881   12.9078   33.2827 H   0  0  0  0  0  0  0  0  0  0  0  0
   21.7650   14.3030   33.3340 H   0  0  0  0  0  0  0  0  0  0  0  0
   22.4213   17.2840   34.3780 H   0  0  0  0  0  0  0  0  0  0  0  0
   20.8741   19.1976   34.7629 H   0  0  0  0  0  0  0  0  0  0  0  0
   18.4790   20.2513   32.8829 H   0  0  0  0  0  0  0  0  0  0  0  0
   17.3326   19.1632   33.7612 H   0  0  0  0  0  0  0  0  0  0  0  0
   18.4380   19.6480   35.7920 H   0  0  0  0  0  0  0  0  0  0  0  0
   19.6440   20.5190   35.0500 H   0  0  0  0  0  0  0  0  0  0  0  0
   18.0820   21.0940   35.0750 H   0  0  0  0  0  0  0  0  0  0  0  0
   17.9355   17.3185   32.2096 H   0  0  0  0  0  0  0  0  0  0  0  0
   19.4966   15.4260   31.8091 H   0  0  0  0  0  0  0  0  0  0  0  0
   25.6242   14.7898   31.0006 H   0  0  0  0  0  0  0  0  0  0  0  0
   27.9400   12.9500   31.2030 H   0  0  0  0  0  0  0  0  0  0  0  0
   27.1501   10.9204   26.5404 H   0  0  0  0  0  0  0  0  0  0  0  0
   28.5453   12.7912   25.6994 H   0  0  0  0  0  0  0  0  0  0  0  0
   29.2101   14.5312   27.3398 H   0  0  0  0  0  0  0  0  0  0  0  0
   26.8923   10.1112   31.3695 H   0  0  0  0  0  0  0  0  0  0  0  0
  1  2  1  0
  2  3  2  0
  2  4  1  0
  4  5  2  0
  5  6  1  0
  6  7  2  0
  7  8  1  0
  8  9  2  0
  9 10  1  0
 10 11  2  0
 10 12  1  0
 12 13  1  0
 13 14  2  0
 14 15  1  0
 15 16  2  0
 16 17  1  0
 17 18  1  0
 16 19  1  0
 19 20  2  0
  9 21  1  0
 21 22  2  0
 22 23  1  0
 23 24  1  0
 24 25  2  0
 25 26  1  0
 26 27  2  0
 27 28  1  0
 28 29  2  0
 22 30  1  0
 30 31  2  0
 31  4  1  0
 30  7  1  0
 20 13  1  0
 29 24  1  0
  1 32  1  0
  1 33  1  0
  3 34  1  0
  3 35  1  0
  5 36  1  0
  6 37  1  0
  8 38  1  0
 12 39  1  0
 14 40  1  0
 15 41  1  0
 17 42  1  0
 17 43  1  0
 18 44  1  0
 18 45  1  0
 18 46  1  0
 19 47  1  0
 20 48  1  0
 21 49  1  0
 23 50  1  0
 26 51  1  0
 27 52  1  0
 28 53  1  0
 31 54  1  0
M  CHG  2   3   1  18   1
M  END
>  <meeko>  (5) 
{"is_sidechain": [false], "free_energy": -8.383, "intermolecular_energy": -11.527, "internal_energy": -0.868}

$$$$
1sqa_ligand
     RDKit          3D

 54 57  0  0  0  0  0  0  0  0999 V2000
   24.1990   19.8880   30.0610 N   0  0  0  0  0  0  0  0  0  0  0  0
   25.3140   19.1950   29.9830 C   0  0  0  0  0  0  0  0  0  0  0  0
   26.4350   19.7480   29.5710 N   0  0  0  0  0  0  0  0  0  0  0  0
   25.3100   17.7770   30.3680 C   0  0  0  0  0  0  0  0  0  0  0  0
   26.1430   16.8610   29.7210 C   0  0  0  0  0  0  0  0  0  0  0  0
   26.1180   15.5130   30.0800 C   0  0  0  0  0  0  0  0  0  0  0  0
   25.2700   15.0480   31.0950 C   0  0  0  0  0  0  0  0  0  0  0  0
   25.2490   13.6860   31.4170 C   0  0  0  0  0  0  0  0  0  0  0  0
   24.3960   13.1940   32.4080 C   0  0  0  0  0  0  0  0  0  0  0  0
   24.4270   11.7320   32.7090 C   0  0  0  0  0  0  0  0  0  0  0  0
   23.4740   11.2480   33.3080 O   0  0  0  0  0  0  0  0  0  0  0  0
   25.5720   11.0600   32.3140 N   0  0  0  0  0  0  0  0  0  0  0  0
   25.8140    9.6740   32.4140 C   0  0  0  0  0  0  0  0  0  0  0  0
   25.0870    8.8260   31.5710 C   0  0  0  0  0  0  0  0  0  0  0  0
   25.2700    7.4370   31.6170 C   0  0  0  0  0  0  0  0  0  0  0  0
   26.1760    6.8680   32.5220 C   0  0  0  0  0  0  0  0  0  0  0  0
   26.4070    5.3870   32.5580 C   0  0  0  0  0  0  0  0  0  0  0  0
   26.7060    4.8630   31.2090 N   0  0  0  0  0  0  0  0  0  0  0  0
   26.8980    7.7180   33.3690 C   0  0  0  0  0  0  0  0  0  0  0  0
   26.7170    9.1050   33.3140 C   0  0  0  0  0  0  0  0  0  0  0  0
   23.5800   14.0790   33.1150 C   0  0  0  0  0  0  0  0  0  0  0  0
   23.5880   15.4560   32.8370 C   0  0  0  0  0  0  0  0  0  0  0  0
   22.7450   16.3440   33.5360 N   0  0  0  0  0  0  0  0  0  0  0  0
   21.4120   16.7110   33.3590 C   0  0  0  0  0  0  0  0  0  0  0  0
   20.8210   17.6280   34.1440 N   0  0  0  0  0  0  0  0  0  0  0  0
   19.5170   17.8800   33.9110 C   0  0  0  0  0  0  0  0  0  0  0  0
   18.7860   17.2580   32.9300 C   0  0  0  0  0  0  0  0  0  0  0  0
   19.4750   16.3370   32.1850 C   0  0  0  0  0  0  0  0  0  0  0  0
   20.7750   16.0440   32.3830 N   0  0  0  0  0  0  0  0  0  0  0  0
   24.4270   15.9510   31.7900 C   0  0  0  0  0  0  0  0  0  0  0  0
   24.4650   17.3130   31.3910 C   0  0  0  0  0  0  0  0  0  0  0  0
   23.3390   19.4360   30.3570 H   0  0  0  0  0  0  0  0  0  0  0  0
   24.1450   20.8670   29.8130 H   0  0  0  0  0  0  0  0  0  0  0  0
   27.2910   19.2030   29.5440 H   0  0  0  0  0  0  0  0  0  0  0  0
   26.4960   20.7200   29.2990 H   0  0  0  0  0  0  0  0  0  0  0  0
   26.8211   17.2038   28.9256 H   0  0  0  0  0  0  0  0  0  0  0  0
   26.7753   14.8025   29.5574 H   0  0  0  0  0  0  0  0  0  0  0  0
   25.9142   12.9925   30.8817 H   0  0  0  0  0  0  0  0  0  0  0  0
   26.3420   11.6240   31.9740 H   0  0  0  0  0  0  0  0  0  0  0  0
   24.3625    9.2550   30.8631 H   0  0  0  0  0  0  0  0  0  0  0  0
   24.6978    6.7885   30.9373 H   0  0  0  0  0  0  0  0  0  0  0  0
   27.2560    5.1718   33.2235 H   0  0  0  0  0  0  0  0  0  0  0  0
   25.4930    4.8994   32.9279 H   0  0  0  0  0  0  0  0  0  0  0  0
   26.3640    3.8990   31.1100 H   0  0  0  0  0  0  0  0  0  0  0  0
   26.2690    5.4330   30.4750 H   0  0  0  0  0  0  0  0  0  0  0  0
   27.7190    4.8430   31.0430 H   0  0  0  0  0  0  0  0  0  0  0  0
   27.6153    7.2910   34.0854 H   0  0  0  0  0  0  0  0  0  0  0  0
   27.2937    9.7550   33.9886 H   0  0  0  0  0  0  0  0  0  0  0  0
   22.9189   13.6911   33.9040 H   0  0  0  0  0  0  0  0  0  0  0  0
   22.9540   16.4660   34.5170 H   0  0  0  0  0  0  0  0  0  0  0  0
   19.0111   18.6254   34.5422 H   0  0  0  0  0  0  0  0  0  0  0  0
   17.7236   17.4826   32.7544 H   0  0  0  0  0  0  0  0  0  0  0  0
   18.9383   15.8091   31.3830 H   0  0  0  0  0  0  0  0  0  0  0  0
   23.8082   18.0325   31.9018 H   0  0  0  0  0  0  0  0  0  0  0  0
  1  2  1  0
  2  3  2  0
  2  4  1  0
  4  5  2  0
  5  6  1  0
  6  7  2  0
  7  8  1  0
  8  9  2  0
  9 10  1  0
 10 11  2  0
 10 12  1  0
 12 13  1  0
 13 14  2  0
 14 15  1  0
 15 16  2  0
 16 17  1  0
 17 18  1  0
 16 19  1  0
 19 20  2  0
  9 21  1  0
 21 22  2  0
 22 23  1  0
 23 24  1  0
 24 25  2  0
 25 26  1  0
 26 27  2  0
 27 28  1  0
 28 29  2  0
 22 30  1  0
 30 31  2  0
 31  4  1  0
 30  7  1  0
 20 13  1  0
 29 24  1  0
  1 32  1  0
  1 33  1  0
  3 34  1  0
  3 35  1  0
  5 36  1  0
  6 37  1  0
  8 38  1  0
 12 39  1  0
 14 40  1  0
 15 41  1  0
 17 42  1  0
 17 43  1  0
 18 44  1  0
 18 45  1  0
 18 46  1  0
 19 47  1  0
 20 48  1  0
 21 49  1  0
 23 50  1  0
 26 51  1  0
 27 52  1  0
 28 53  1  0
 31 54  1  0
M  CHG  2   3   1  18   1
M  END
>  <meeko>  (6) 
{"is_sidechain": [false], "free_energy": -8.37, "intermolecular_energy": -11.495, "internal_energy": -0.882}

$$$$
1sqa_ligand
     RDKit          3D

 54 57  0  0  0  0  0  0  0  0999 V2000
   27.4440    7.0930   28.9840 N   0  0  0  0  0  0  0  0  0  0  0  0
   27.3020    7.1370   30.2910 C   0  0  0  0  0  0  0  0  0  0  0  0
   27.9530    6.3060   31.0770 N   0  0  0  0  0  0  0  0  0  0  0  0
   26.4040    8.1360   30.8850 C   0  0  0  0  0  0  0  0  0  0  0  0
   25.2620    7.7410   31.5860 C   0  0  0  0  0  0  0  0  0  0  0  0
   24.4060    8.6980   32.1310 C   0  0  0  0  0  0  0  0  0  0  0  0
   24.6690   10.0690   31.9960 C   0  0  0  0  0  0  0  0  0  0  0  0
   23.7780   11.0060   32.5320 C   0  0  0  0  0  0  0  0  0  0  0  0
   24.0060   12.3770   32.3920 C   0  0  0  0  0  0  0  0  0  0  0  0
   23.0220   13.3250   32.9930 C   0  0  0  0  0  0  0  0  0  0  0  0
   22.2780   12.9040   33.8700 O   0  0  0  0  0  0  0  0  0  0  0  0
   23.0150   14.6030   32.4580 N   0  0  0  0  0  0  0  0  0  0  0  0
   22.2410   15.6980   32.8970 C   0  0  0  0  0  0  0  0  0  0  0  0
   20.9940   15.8940   32.2920 C   0  0  0  0  0  0  0  0  0  0  0  0
   20.1710   16.9630   32.6710 C   0  0  0  0  0  0  0  0  0  0  0  0
   20.5900   17.8690   33.6550 C   0  0  0  0  0  0  0  0  0  0  0  0
   19.7060   18.9980   34.0950 C   0  0  0  0  0  0  0  0  0  0  0  0
   18.2820   18.6780   33.8630 N   0  0  0  0  0  0  0  0  0  0  0  0
   21.8410   17.6750   34.2540 C   0  0  0  0  0  0  0  0  0  0  0  0
   22.6550   16.6010   33.8770 C   0  0  0  0  0  0  0  0  0  0  0  0
   25.1590   12.8200   31.7410 C   0  0  0  0  0  0  0  0  0  0  0  0
   26.0880   11.9110   31.2080 C   0  0  0  0  0  0  0  0  0  0  0  0
   27.2390   12.3610   30.5300 N   0  0  0  0  0  0  0  0  0  0  0  0
   27.7280   12.1230   29.2470 C   0  0  0  0  0  0  0  0  0  0  0  0
   26.9200   12.1130   28.1730 N   0  0  0  0  0  0  0  0  0  0  0  0
   27.4900   11.8340   26.9840 C   0  0  0  0  0  0  0  0  0  0  0  0
   28.8270   11.5690   26.8250 C   0  0  0  0  0  0  0  0  0  0  0  0
   29.5680   11.5980   27.9780 C   0  0  0  0  0  0  0  0  0  0  0  0
   29.0450   11.8650   29.1900 N   0  0  0  0  0  0  0  0  0  0  0  0
   25.8300   10.5080   31.3120 C   0  0  0  0  0  0  0  0  0  0  0  0
   26.6730    9.5110   30.7570 C   0  0  0  0  0  0  0  0  0  0  0  0
   26.9130    7.7260   28.3930 H   0  0  0  0  0  0  0  0  0  0  0  0
   28.0510    6.4290   28.5220 H   0  0  0  0  0  0  0  0  0  0  0  0
   27.8510    6.3750   32.0850 H   0  0  0  0  0  0  0  0  0  0  0  0
   28.5860    5.6020   30.7230 H   0  0  0  0  0  0  0  0  0  0  0  0
   25.0370    6.6713   31.7086 H   0  0  0  0  0  0  0  0  0  0  0  0
   23.5084    8.3715   32.6766 H   0  0  0  0  0  0  0  0  0  0  0  0
   22.8850   10.6576   33.0715 H   0  0  0  0  0  0  0  0  0  0  0  0
   23.5760   14.7580   31.6290 H   0  0  0  0  0  0  0  0  0  0  0  0
   20.6556   15.1997   31.5087 H   0  0  0  0  0  0  0  0  0  0  0  0
   19.1889   17.0921   32.1927 H   0  0  0  0  0  0  0  0  0  0  0  0
   19.8633   19.1806   35.1683 H   0  0  0  0  0  0  0  0  0  0  0  0
   19.9636   19.8930   33.5097 H   0  0  0  0  0  0  0  0  0  0  0  0
   17.8760   19.3140   33.1660 H   0  0  0  0  0  0  0  0  0  0  0  0
   18.1580   17.7160   33.5260 H   0  0  0  0  0  0  0  0  0  0  0  0
   17.7380   18.7900   34.7270 H   0  0  0  0  0  0  0  0  0  0  0  0
   22.1874   18.3744   35.0292 H   0  0  0  0  0  0  0  0  0  0  0  0
   23.6343   16.4668   34.3596 H   0  0  0  0  0  0  0  0  0  0  0  0
   25.3432   13.9001   31.6437 H   0  0  0  0  0  0  0  0  0  0  0  0
   27.5900   13.2660   30.8130 H   0  0  0  0  0  0  0  0  0  0  0  0
   26.8476   11.8178   26.0912 H   0  0  0  0  0  0  0  0  0  0  0  0
   29.2720   11.3492   25.8433 H   0  0  0  0  0  0  0  0  0  0  0  0
   30.6464   11.3924   27.9096 H   0  0  0  0  0  0  0  0  0  0  0  0
   27.5714    9.8251   30.2054 H   0  0  0  0  0  0  0  0  0  0  0  0
  1  2  1  0
  2  3  2  0
  2  4  1  0
  4  5  2  0
  5  6  1  0
  6  7  2  0
  7  8  1  0
  8  9  2  0
  9 10  1  0
 10 11  2  0
 10 12  1  0
 12 13  1  0
 13 14  2  0
 14 15  1  0
 15 16  2  0
 16 17  1  0
 17 18  1  0
 16 19  1  0
 19 20  2  0
  9 21  1  0
 21 22  2  0
 22 23  1  0
 23 24  1  0
 24 25  2  0
 25 26  1  0
 26 27  2  0
 27 28  1  0
 28 29  2  0
 22 30  1  0
 30 31  2  0
 31  4  1  0
 30  7  1  0
 20 13  1  0
 29 24  1  0
  1 32  1  0
  1 33  1  0
  3 34  1  0
  3 35  1  0
  5 36  1  0
  6 37  1  0
  8 38  1  0
 12 39  1  0
 14 40  1  0
 15 41  1  0
 17 42  1  0
 17 43  1  0
 18 44  1  0
 18 45  1  0
 18 46  1  0
 19 47  1  0
 20 48  1  0
 21 49  1  0
 23 50  1  0
 26 51  1  0
 27 52  1  0
 28 53  1  0
 31 54  1  0
M  CHG  2   3   1  18   1
M  END
>  <meeko>  (7) 
{"is_sidechain": [false], "free_energy": -7.92, "intermolecular_energy": -11.069, "internal_energy": -0.687}

$$$$
1sqa_ligand
     RDKit          3D

 54 57  0  0  0  0  0  0  0  0999 V2000
   25.9710    6.9700   31.2450 N   0  0  0  0  0  0  0  0  0  0  0  0
   26.2690    8.1600   30.7720 C   0  0  0  0  0  0  0  0  0  0  0  0
   27.1630    8.3120   29.8190 N   0  0  0  0  0  0  0  0  0  0  0  0
   25.5870    9.3430   31.3140 C   0  0  0  0  0  0  0  0  0  0  0  0
   24.3280    9.2300   31.9090 C   0  0  0  0  0  0  0  0  0  0  0  0
   23.6800   10.3620   32.4040 C   0  0  0  0  0  0  0  0  0  0  0  0
   24.2730   11.6310   32.3240 C   0  0  0  0  0  0  0  0  0  0  0  0
   23.5880   12.7520   32.8070 C   0  0  0  0  0  0  0  0  0  0  0  0
   24.1470   14.0290   32.7190 C   0  0  0  0  0  0  0  0  0  0  0  0
   23.3690   15.1830   33.2590 C   0  0  0  0  0  0  0  0  0  0  0  0
   23.8700   15.8420   34.1620 O   0  0  0  0  0  0  0  0  0  0  0  0
   22.1140   15.3740   32.7060 N   0  0  0  0  0  0  0  0  0  0  0  0
   21.2180   16.4280   32.9860 C   0  0  0  0  0  0  0  0  0  0  0  0
   19.8810   16.2590   32.6130 C   0  0  0  0  0  0  0  0  0  0  0  0
   18.9350   17.2650   32.8520 C   0  0  0  0  0  0  0  0  0  0  0  0
   19.3160   18.4700   33.4590 C   0  0  0  0  0  0  0  0  0  0  0  0
   18.3080   19.5410   33.7520 C   0  0  0  0  0  0  0  0  0  0  0  0
   18.7250   20.3590   34.9110 N   0  0  0  0  0  0  0  0  0  0  0  0
   20.6570   18.6400   33.8260 C   0  0  0  0  0  0  0  0  0  0  0  0
   21.5950   17.6280   33.5900 C   0  0  0  0  0  0  0  0  0  0  0  0
   25.4230   14.1860   32.1760 C   0  0  0  0  0  0  0  0  0  0  0  0
   26.1520   13.0830   31.7000 C   0  0  0  0  0  0  0  0  0  0  0  0
   27.4310   13.2470   31.1310 N   0  0  0  0  0  0  0  0  0  0  0  0
   28.0290   14.3080   30.4530 C   0  0  0  0  0  0  0  0  0  0  0  0
   27.4460   14.8850   29.3880 N   0  0  0  0  0  0  0  0  0  0  0  0
   28.1290   15.8780   28.7830 C   0  0  0  0  0  0  0  0  0  0  0  0
   29.3610   16.3160   29.1980 C   0  0  0  0  0  0  0  0  0  0  0  0
   29.8750   15.6630   30.2890 C   0  0  0  0  0  0  0  0  0  0  0  0
   29.2360   14.6620   30.9240 N   0  0  0  0  0  0  0  0  0  0  0  0
   25.5590   11.7820   31.7490 C   0  0  0  0  0  0  0  0  0  0  0  0
   26.1850   10.6140   31.2410 C   0  0  0  0  0  0  0  0  0  0  0  0
   25.2970    6.8770   32.0000 H   0  0  0  0  0  0  0  0  0  0  0  0
   26.4060    6.1220   30.9070 H   0  0  0  0  0  0  0  0  0  0  0  0
   27.3590    9.2370   29.4480 H   0  0  0  0  0  0  0  0  0  0  0  0
   27.6590    7.5330   29.4060 H   0  0  0  0  0  0  0  0  0  0  0  0
   23.8457    8.2445   31.9875 H   0  0  0  0  0  0  0  0  0  0  0  0
   22.6868   10.2578   32.8651 H   0  0  0  0  0  0  0  0  0  0  0  0
   22.5948   12.6254   33.2626 H   0  0  0  0  0  0  0  0  0  0  0  0
   21.7710   14.6520   32.0820 H   0  0  0  0  0  0  0  0  0  0  0  0
   19.5676   15.3241   32.1255 H   0  0  0  0  0  0  0  0  0  0  0  0
   17.8858   17.1080   32.5612 H   0  0  0  0  0  0  0  0  0  0  0  0
   18.2076   20.1912   32.8704 H   0  0  0  0  0  0  0  0  0  0  0  0
   17.3467   19.0618   33.9892 H   0  0  0  0  0  0  0  0  0  0  0  0
   19.6360   20.7990   34.7360 H   0  0  0  0  0  0  0  0  0  0  0  0
   18.0460   21.1020   35.1150 H   0  0  0  0  0  0  0  0  0  0  0  0
   18.8270   19.7760   35.7500 H   0  0  0  0  0  0  0  0  0  0  0  0
   20.9762   19.5778   34.3043 H   0  0  0  0  0  0  0  0  0  0  0  0
   22.6437   17.7809   33.8848 H   0  0  0  0  0  0  0  0  0  0  0  0
   25.8660   15.1913   32.1196 H   0  0  0  0  0  0  0  0  0  0  0  0
   28.1770   12.7220   31.5660 H   0  0  0  0  0  0  0  0  0  0  0  0
   27.6728   16.3639   27.9079 H   0  0  0  0  0  0  0  0  0  0  0  0
   29.8979   17.1321   28.6922 H   0  0  0  0  0  0  0  0  0  0  0  0
   30.8610   15.9732   30.6651 H   0  0  0  0  0  0  0  0  0  0  0  0
   27.1758   10.7062   30.7722 H   0  0  0  0  0  0  0  0  0  0  0  0
  1  2  1  0
  2  3  2  0
  2  4  1  0
  4  5  2  0
  5  6  1  0
  6  7  2  0
  7  8  1  0
  8  9  2  0
  9 10  1  0
 10 11  2  0
 10 12  1  0
 12 13  1  0
 13 14  2  0
 14 15  1  0
 15 16  2  0
 16 17  1  0
 17 18  1  0
 16 19  1  0
 19 20  2  0
  9 21  1  0
 21 22  2  0
 22 23  1  0
 23 24  1  0
 24 25  2  0
 25 26  1  0
 26 27  2  0
 27 28  1  0
 28 29  2  0
 22 30  1  0
 30 31  2  0
 31  4  1  0
 30  7  1  0
 20 13  1  0
 29 24  1  0
  1 32  1  0
  1 33  1  0
  3 34  1  0
  3 35  1  0
  5 36  1  0
  6 37  1  0
  8 38  1  0
 12 39  1  0
 14 40  1  0
 15 41  1  0
 17 42  1  0
 17 43  1  0
 18 44  1  0
 18 45  1  0
 18 46  1  0
 19 47  1  0
 20 48  1  0
 21 49  1  0
 23 50  1  0
 26 51  1  0
 27 52  1  0
 28 53  1  0
 31 54  1  0
M  CHG  2   3   1  18   1
M  END
>  <meeko>  (8) 
{"is_sidechain": [false], "free_energy": -7.821, "intermolecular_energy": -11.155, "internal_energy": -0.464}

$$$$
1sqa_ligand
     RDKit          3D

 54 57  0  0  0  0  0  0  0  0999 V2000
   23.8550   16.0660   29.2800 N   0  0  0  0  0  0  0  0  0  0  0  0
   24.5630   17.0740   29.7410 C   0  0  0  0  0  0  0  0  0  0  0  0
   24.9920   18.0280   28.9440 N   0  0  0  0  0  0  0  0  0  0  0  0
   24.8760   17.1390   31.1750 C   0  0  0  0  0  0  0  0  0  0  0  0
   26.0790   16.6250   31.6660 C   0  0  0  0  0  0  0  0  0  0  0  0
   26.3590   16.6750   33.0310 C   0  0  0  0  0  0  0  0  0  0  0  0
   25.4520   17.2410   33.9390 C   0  0  0  0  0  0  0  0  0  0  0  0
   25.7500   17.2540   35.3070 C   0  0  0  0  0  0  0  0  0  0  0  0
   24.8530   17.7920   36.2330 C   0  0  0  0  0  0  0  0  0  0  0  0
   25.2330   17.7820   37.6760 C   0  0  0  0  0  0  0  0  0  0  0  0
   24.3510   17.5730   38.5010 O   0  0  0  0  0  0  0  0  0  0  0  0
   26.5610   18.0600   37.9510 N   0  0  0  0  0  0  0  0  0  0  0  0
   27.1850   18.0380   39.2170 C   0  0  0  0  0  0  0  0  0  0  0  0
   27.3520   19.2600   39.8770 C   0  0  0  0  0  0  0  0  0  0  0  0
   27.9680   19.3190   41.1350 C   0  0  0  0  0  0  0  0  0  0  0  0
   28.4430   18.1520   41.7500 C   0  0  0  0  0  0  0  0  0  0  0  0
   29.0740   18.1950   43.1100 C   0  0  0  0  0  0  0  0  0  0  0  0
   29.8910   16.9890   43.3550 N   0  0  0  0  0  0  0  0  0  0  0  0
   28.2810   16.9310   41.0830 C   0  0  0  0  0  0  0  0  0  0  0  0
   27.6580   16.8780   39.8310 C   0  0  0  0  0  0  0  0  0  0  0  0
   23.6590   18.3600   35.7840 C   0  0  0  0  0  0  0  0  0  0  0  0
   23.3330   18.3860   34.4180 C   0  0  0  0  0  0  0  0  0  0  0  0
   22.1160   18.9380   33.9710 N   0  0  0  0  0  0  0  0  0  0  0  0
   20.8550   18.3850   33.7570 C   0  0  0  0  0  0  0  0  0  0  0  0
   19.7680   19.1540   33.5690 N   0  0  0  0  0  0  0  0  0  0  0  0
   18.5910   18.5150   33.4090 C   0  0  0  0  0  0  0  0  0  0  0  0
   18.4580   17.1500   33.4290 C   0  0  0  0  0  0  0  0  0  0  0  0
   19.6210   16.4530   33.6310 C   0  0  0  0  0  0  0  0  0  0  0  0
   20.8190   17.0430   33.8020 N   0  0  0  0  0  0  0  0  0  0  0  0
   24.2320   17.7930   33.4760 C   0  0  0  0  0  0  0  0  0  0  0  0
   23.9690   17.7140   32.0830 C   0  0  0  0  0  0  0  0  0  0  0  0
   23.5550   15.3260   29.9080 H   0  0  0  0  0  0  0  0  0  0  0  0
   23.6070   15.9730   28.3040 H   0  0  0  0  0  0  0  0  0  0  0  0
   25.5150   18.8120   29.3240 H   0  0  0  0  0  0  0  0  0  0  0  0
   24.8030   18.0370   27.9510 H   0  0  0  0  0  0  0  0  0  0  0  0
   26.8078   16.1793   30.9731 H   0  0  0  0  0  0  0  0  0  0  0  0
   27.3088   16.2629   33.4027 H   0  0  0  0  0  0  0  0  0  0  0  0
   26.7044   16.8344   35.6577 H   0  0  0  0  0  0  0  0  0  0  0  0
   27.1360   18.3700   37.1760 H   0  0  0  0  0  0  0  0  0  0  0  0
   26.9955   20.1864   39.4029 H   0  0  0  0  0  0  0  0  0  0  0  0
   28.0795   20.2881   41.6433 H   0  0  0  0  0  0  0  0  0  0  0  0
   29.7169   19.0849   43.1799 H   0  0  0  0  0  0  0  0  0  0  0  0
   28.2750   18.2353   43.8650 H   0  0  0  0  0  0  0  0  0  0  0  0
   29.5130   16.4480   44.1420 H   0  0  0  0  0  0  0  0  0  0  0  0
   29.9190   16.3750   42.5320 H   0  0  0  0  0  0  0  0  0  0  0  0
   30.8550   17.2450   43.5990 H   0  0  0  0  0  0  0  0  0  0  0  0
   28.6473   16.0040   41.5482 H   0  0  0  0  0  0  0  0  0  0  0  0
   27.5397   15.9089   39.3243 H   0  0  0  0  0  0  0  0  0  0  0  0
   22.9605   18.7953   36.5138 H   0  0  0  0  0  0  0  0  0  0  0  0
   21.9740   19.9160   34.1820 H   0  0  0  0  0  0  0  0  0  0  0  0
   17.6872   19.1225   33.2538 H   0  0  0  0  0  0  0  0  0  0  0  0
   17.4876   16.6503   33.2927 H   0  0  0  0  0  0  0  0  0  0  0  0
   19.5729   15.3543   33.6546 H   0  0  0  0  0  0  0  0  0  0  0  0
   23.0203   18.1177   31.6996 H   0  0  0  0  0  0  0  0  0  0  0  0
  1  2  1  0
  2  3  2  0
  2  4  1  0
  4  5  2  0
  5  6  1  0
  6  7  2  0
  7  8  1  0
  8  9  2  0
  9 10  1  0
 10 11  2  0
 10 12  1  0
 12 13  1  0
 13 14  2  0
 14 15  1  0
 15 16  2  0
 16 17  1  0
 17 18  1  0
 16 19  1  0
 19 20  2  0
  9 21  1  0
 21 22  2  0
 22 23  1  0
 23 24  1  0
 24 25  2  0
 25 26  1  0
 26 27  2  0
 27 28  1  0
 28 29  2  0
 22 30  1  0
 30 31  2  0
 31  4  1  0
 30  7  1  0
 20 13  1  0
 29 24  1  0
  1 32  1  0
  1 33  1  0
  3 34  1  0
  3 35  1  0
  5 36  1  0
  6 37  1  0
  8 38  1  0
 12 39  1  0
 14 40  1  0
 15 41  1  0
 17 42  1  0
 17 43  1  0
 18 44  1  0
 18 45  1  0
 18 46  1  0
 19 47  1  0
 20 48  1  0
 21 49  1  0
 23 50  1  0
 26 51  1  0
 27 52  1  0
 28 53  1  0
 31 54  1  0
M  CHG  2   3   1  18   1
M  END
>  <meeko>  (9) 
{"is_sidechain": [false], "free_energy": -7.687, "intermolecular_energy": -10.517, "internal_energy": -0.917}

$$$$
