4gkm_ligand
     RDKit          3D

 31 32  0  0  0  0  0  0  0  0999 V2000
  -27.1170  -35.9030    9.7260 C   0  0  0  0  0  0  0  0  0  0  0  0
  -27.1170  -34.5820    9.0230 C   0  0  0  0  0  0  0  0  0  0  0  0
  -26.1200  -33.6390    9.2680 C   0  0  0  0  0  0  0  0  0  0  0  0
  -26.1510  -32.4020    8.6200 C   0  0  0  0  0  0  0  0  0  0  0  0
  -27.1900  -32.0550    7.7290 C   0  0  0  0  0  0  0  0  0  0  0  0
  -27.0790  -30.8030    7.0530 N   0  0  0  0  0  0  0  0  0  0  0  0
  -26.7160  -29.6020    7.7520 C   0  0  0  0  0  0  0  0  0  0  0  0
  -25.4250  -29.4990    8.3030 C   0  0  0  0  0  0  0  0  0  0  0  0
  -25.0010  -28.3440    8.9600 C   0  0  0  0  0  0  0  0  0  0  0  0
  -25.8620  -27.2620    9.0780 C   0  0  0  0  0  0  0  0  0  0  0  0
  -27.1470  -27.3420    8.5370 C   0  0  0  0  0  0  0  0  0  0  0  0
  -27.6010  -28.5010    7.8680 C   0  0  0  0  0  0  0  0  0  0  0  0
  -29.0260  -28.5200    7.3410 C   0  0  0  0  0  0  0  0  0  0  0  0
  -29.1920  -28.6600    6.0860 O   0  0  0  0  0  0  0  0  0  0  0  0
  -29.9720  -28.4190    8.1920 O   0  0  0  0  0  0  0  0  0  0  0  0
  -28.2080  -32.9940    7.4890 C   0  0  0  0  0  0  0  0  0  0  0  0
  -29.3880  -32.7600    6.5880 C   0  0  0  0  0  0  0  0  0  0  0  0
  -30.0410  -31.6760    6.7340 O   0  0  0  0  0  0  0  0  0  0  0  0
  -29.7330  -33.7350    5.8400 O   0  0  0  0  0  0  0  0  0  0  0  0
  -28.1560  -34.2460    8.1460 C   0  0  0  0  0  0  0  0  0  0  0  0
  -26.0799  -36.2267    9.8983 H   0  0  0  0  0  0  0  0  0  0  0  0
  -27.6355  -35.8047   10.6911 H   0  0  0  0  0  0  0  0  0  0  0  0
  -27.6355  -36.6486    9.1054 H   0  0  0  0  0  0  0  0  0  0  0  0
  -25.3075  -33.8694    9.9728 H   0  0  0  0  0  0  0  0  0  0  0  0
  -25.3442  -31.6786    8.8089 H   0  0  0  0  0  0  0  0  0  0  0  0
  -28.0110  -30.5910    6.6400 H   0  0  0  0  0  0  0  0  0  0  0  0
  -24.7337  -30.3499    8.2133 H   0  0  0  0  0  0  0  0  0  0  0  0
  -23.9871  -28.2909    9.3834 H   0  0  0  0  0  0  0  0  0  0  0  0
  -25.5345  -26.3475    9.5942 H   0  0  0  0  0  0  0  0  0  0  0  0
  -27.8236  -26.4801    8.6342 H   0  0  0  0  0  0  0  0  0  0  0  0
  -28.9563  -34.9780    7.9623 H   0  0  0  0  0  0  0  0  0  0  0  0
  1  2  1  0
  2  3  2  0
  3  4  1  0
  4  5  2  0
  5  6  1  0
  6  7  1  0
  7  8  2  0
  8  9  1  0
  9 10  2  0
 10 11  1  0
 11 12  2  0
 12 13  1  0
 13 14  2  0
 13 15  1  0
  5 16  1  0
 16 17  1  0
 17 18  2  0
 17 19  1  0
 16 20  2  0
 20  2  1  0
 12  7  1  0
  1 21  1  0
  1 22  1  0
  1 23  1  0
  3 24  1  0
  4 25  1  0
  6 26  1  0
  8 27  1  0
  9 28  1  0
 10 29  1  0
 11 30  1  0
 20 31  1  0
M  CHG  2  15  -1  19  -1
M  END
>  <meeko>  (1) 
{"is_sidechain": [false], "free_energy": -8.635, "intermolecular_energy": -10.655, "internal_energy": -0.639}

$$$$
4gkm_ligand
     RDKit          3D

 31 32  0  0  0  0  0  0  0  0999 V2000
  -24.3570  -28.2010    8.3960 C   0  0  0  0  0  0  0  0  0  0  0  0
  -25.4270  -29.2310    8.2220 C   0  0  0  0  0  0  0  0  0  0  0  0
  -25.1400  -30.5900    8.3430 C   0  0  0  0  0  0  0  0  0  0  0  0
  -26.1490  -31.5390    8.1520 C   0  0  0  0  0  0  0  0  0  0  0  0
  -27.4660  -31.1650    7.8100 C   0  0  0  0  0  0  0  0  0  0  0  0
  -28.4390  -32.2060    7.7260 N   0  0  0  0  0  0  0  0  0  0  0  0
  -28.1430  -33.5460    8.1500 C   0  0  0  0  0  0  0  0  0  0  0  0
  -27.2700  -33.7380    9.2370 C   0  0  0  0  0  0  0  0  0  0  0  0
  -26.9740  -35.0130    9.7200 C   0  0  0  0  0  0  0  0  0  0  0  0
  -27.5490  -36.1270    9.1240 C   0  0  0  0  0  0  0  0  0  0  0  0
  -28.4200  -35.9590    8.0460 C   0  0  0  0  0  0  0  0  0  0  0  0
  -28.7350  -34.6780    7.5370 C   0  0  0  0  0  0  0  0  0  0  0  0
  -29.6620  -34.5850    6.3370 C   0  0  0  0  0  0  0  0  0  0  0  0
  -30.5620  -35.4780    6.2130 O   0  0  0  0  0  0  0  0  0  0  0  0
  -29.4970  -33.6040    5.5370 O   0  0  0  0  0  0  0  0  0  0  0  0
  -27.7600  -29.7980    7.6700 C   0  0  0  0  0  0  0  0  0  0  0  0
  -29.1060  -29.2500    7.2870 C   0  0  0  0  0  0  0  0  0  0  0  0
  -29.6350  -28.3820    8.0540 O   0  0  0  0  0  0  0  0  0  0  0  0
  -29.6830  -29.8060    6.2930 O   0  0  0  0  0  0  0  0  0  0  0  0
  -26.7300  -28.8500    7.8770 C   0  0  0  0  0  0  0  0  0  0  0  0
  -24.1816  -28.0321    9.4687 H   0  0  0  0  0  0  0  0  0  0  0  0
  -23.4283  -28.5537    7.9236 H   0  0  0  0  0  0  0  0  0  0  0  0
  -24.6740  -27.2595    7.9236 H   0  0  0  0  0  0  0  0  0  0  0  0
  -24.1186  -30.9160    8.5890 H   0  0  0  0  0  0  0  0  0  0  0  0
  -25.9097  -32.6060    8.2716 H   0  0  0  0  0  0  0  0  0  0  0  0
  -28.7020  -32.3040    6.7230 H   0  0  0  0  0  0  0  0  0  0  0  0
  -26.8100  -32.8618    9.7173 H   0  0  0  0  0  0  0  0  0  0  0  0
  -26.2871  -35.1351   10.5705 H   0  0  0  0  0  0  0  0  0  0  0  0
  -27.3199  -37.1355    9.4986 H   0  0  0  0  0  0  0  0  0  0  0  0
  -28.8732  -36.8466    7.5803 H   0  0  0  0  0  0  0  0  0  0  0  0
  -26.9598  -27.7803    7.7634 H   0  0  0  0  0  0  0  0  0  0  0  0
  1  2  1  0
  2  3  2  0
  3  4  1  0
  4  5  2  0
  5  6  1  0
  6  7  1  0
  7  8  2  0
  8  9  1  0
  9 10  2  0
 10 11  1  0
 11 12  2  0
 12 13  1  0
 13 14  2  0
 13 15  1  0
  5 16  1  0
 16 17  1  0
 17 18  2  0
 17 19  1  0
 16 20  2  0
 20  2  1  0
 12  7  1  0
  1 21  1  0
  1 22  1  0
  1 23  1  0
  3 24  1  0
  4 25  1  0
  6 26  1  0
  8 27  1  0
  9 28  1  0
 10 29  1  0
 11 30  1  0
 20 31  1  0
M  CHG  2  15  -1  19  -1
M  END
>  <meeko>  (2) 
{"is_sidechain": [false], "free_energy": -8.472, "intermolecular_energy": -10.92, "internal_energy": -0.172}

$$$$
4gkm_ligand
     RDKit          3D

 31 32  0  0  0  0  0  0  0  0999 V2000
  -25.8410  -33.6640    8.7970 C   0  0  0  0  0  0  0  0  0  0  0  0
  -26.2640  -32.2720    8.4480 C   0  0  0  0  0  0  0  0  0  0  0  0
  -25.3700  -31.2060    8.5370 C   0  0  0  0  0  0  0  0  0  0  0  0
  -25.7920  -29.9100    8.2300 C   0  0  0  0  0  0  0  0  0  0  0  0
  -27.1220  -29.6310    7.8510 C   0  0  0  0  0  0  0  0  0  0  0  0
  -27.4250  -28.2890    7.4720 N   0  0  0  0  0  0  0  0  0  0  0  0
  -27.2480  -27.8300    6.1230 C   0  0  0  0  0  0  0  0  0  0  0  0
  -25.9550  -27.8290    5.5690 C   0  0  0  0  0  0  0  0  0  0  0  0
  -25.7250  -27.4320    4.2510 C   0  0  0  0  0  0  0  0  0  0  0  0
  -26.7890  -27.0290    3.4570 C   0  0  0  0  0  0  0  0  0  0  0  0
  -28.0810  -27.0240    3.9860 C   0  0  0  0  0  0  0  0  0  0  0  0
  -28.3400  -27.4210    5.3180 C   0  0  0  0  0  0  0  0  0  0  0  0
  -29.7700  -27.3510    5.8280 C   0  0  0  0  0  0  0  0  0  0  0  0
  -30.6890  -27.8190    5.0800 O   0  0  0  0  0  0  0  0  0  0  0  0
  -29.9610  -26.8480    6.9850 O   0  0  0  0  0  0  0  0  0  0  0  0
  -28.0350  -30.6980    7.7740 C   0  0  0  0  0  0  0  0  0  0  0  0
  -29.4850  -30.5530    7.4090 C   0  0  0  0  0  0  0  0  0  0  0  0
  -29.8710  -31.0470    6.3000 O   0  0  0  0  0  0  0  0  0  0  0  0
  -30.1930  -29.8180    8.1760 O   0  0  0  0  0  0  0  0  0  0  0  0
  -27.5880  -32.0060    8.0780 C   0  0  0  0  0  0  0  0  0  0  0  0
  -25.8077  -33.7737    9.8910 H   0  0  0  0  0  0  0  0  0  0  0  0
  -26.5615  -34.3820    8.3783 H   0  0  0  0  0  0  0  0  0  0  0  0
  -24.8428  -33.8597    8.3783 H   0  0  0  0  0  0  0  0  0  0  0  0
  -24.3307  -31.3856    8.8494 H   0  0  0  0  0  0  0  0  0  0  0  0
  -25.0673  -29.0844    8.2853 H   0  0  0  0  0  0  0  0  0  0  0  0
  -26.8180  -27.6620    8.0410 H   0  0  0  0  0  0  0  0  0  0  0  0
  -25.1049  -28.1488    6.1895 H   0  0  0  0  0  0  0  0  0  0  0  0
  -24.7035  -27.4386    3.8430 H   0  0  0  0  0  0  0  0  0  0  0  0
  -26.6157  -26.7153    2.4170 H   0  0  0  0  0  0  0  0  0  0  0  0
  -28.9191  -26.7029    3.3500 H   0  0  0  0  0  0  0  0  0  0  0  0
  -28.3032  -32.8399    8.0218 H   0  0  0  0  0  0  0  0  0  0  0  0
  1  2  1  0
  2  3  2  0
  3  4  1  0
  4  5  2  0
  5  6  1  0
  6  7  1  0
  7  8  2  0
  8  9  1  0
  9 10  2  0
 10 11  1  0
 11 12  2  0
 12 13  1  0
 13 14  2  0
 13 15  1  0
  5 16  1  0
 16 17  1  0
 17 18  2  0
 17 19  1  0
 16 20  2  0
 20  2  1  0
 12  7  1  0
  1 21  1  0
  1 22  1  0
  1 23  1  0
  3 24  1  0
  4 25  1  0
  6 26  1  0
  8 27  1  0
  9 28  1  0
 10 29  1  0
 11 30  1  0
 20 31  1  0
M  CHG  2  15  -1  19  -1
M  END
>  <meeko>  (3) 
{"is_sidechain": [false], "free_energy": -8.464, "intermolecular_energy": -9.907, "internal_energy": -1.176}

$$$$
4gkm_ligand
     RDKit          3D

 31 32  0  0  0  0  0  0  0  0999 V2000
  -26.9990  -36.9360    9.7220 C   0  0  0  0  0  0  0  0  0  0  0  0
  -27.2950  -35.5950    9.1280 C   0  0  0  0  0  0  0  0  0  0  0  0
  -26.7180  -34.4370    9.6470 C   0  0  0  0  0  0  0  0  0  0  0  0
  -27.0260  -33.1920    9.0940 C   0  0  0  0  0  0  0  0  0  0  0  0
  -27.9380  -33.0590    8.0250 C   0  0  0  0  0  0  0  0  0  0  0  0
  -28.1140  -31.7520    7.4760 N   0  0  0  0  0  0  0  0  0  0  0  0
  -27.2620  -30.6590    7.8520 C   0  0  0  0  0  0  0  0  0  0  0  0
  -25.9320  -30.9300    8.2240 C   0  0  0  0  0  0  0  0  0  0  0  0
  -25.0460  -29.9080    8.5630 C   0  0  0  0  0  0  0  0  0  0  0  0
  -25.4720  -28.5870    8.5340 C   0  0  0  0  0  0  0  0  0  0  0  0
  -26.7870  -28.2960    8.1650 C   0  0  0  0  0  0  0  0  0  0  0  0
  -27.7050  -29.3140    7.8190 C   0  0  0  0  0  0  0  0  0  0  0  0
  -29.1280  -28.9150    7.4670 C   0  0  0  0  0  0  0  0  0  0  0  0
  -29.6760  -29.4910    6.4710 O   0  0  0  0  0  0  0  0  0  0  0  0
  -29.6970  -28.0420    8.2030 O   0  0  0  0  0  0  0  0  0  0  0  0
  -28.5370  -34.2200    7.5060 C   0  0  0  0  0  0  0  0  0  0  0  0
  -29.5420  -34.2340    6.3880 C   0  0  0  0  0  0  0  0  0  0  0  0
  -29.5700  -33.2330    5.6020 O   0  0  0  0  0  0  0  0  0  0  0  0
  -30.3910  -35.1870    6.4010 O   0  0  0  0  0  0  0  0  0  0  0  0
  -28.2050  -35.4740    8.0710 C   0  0  0  0  0  0  0  0  0  0  0  0
  -27.0152  -36.8626   10.8194 H   0  0  0  0  0  0  0  0  0  0  0  0
  -27.7591  -37.6592    9.3916 H   0  0  0  0  0  0  0  0  0  0  0  0
  -26.0051  -37.2721    9.3916 H   0  0  0  0  0  0  0  0  0  0  0  0
  -26.0189  -34.5039   10.4936 H   0  0  0  0  0  0  0  0  0  0  0  0
  -26.5450  -32.2910    9.5025 H   0  0  0  0  0  0  0  0  0  0  0  0
  -29.0720  -31.4350    7.7330 H   0  0  0  0  0  0  0  0  0  0  0  0
  -25.5831  -31.9729    8.2479 H   0  0  0  0  0  0  0  0  0  0  0  0
  -24.0123  -30.1478    8.8526 H   0  0  0  0  0  0  0  0  0  0  0  0
  -24.7787  -27.7754    8.7998 H   0  0  0  0  0  0  0  0  0  0  0  0
  -27.1173  -27.2470    8.1430 H   0  0  0  0  0  0  0  0  0  0  0  0
  -28.6766  -36.3821    7.6672 H   0  0  0  0  0  0  0  0  0  0  0  0
  1  2  1  0
  2  3  2  0
  3  4  1  0
  4  5  2  0
  5  6  1  0
  6  7  1  0
  7  8  2  0
  8  9  1  0
  9 10  2  0
 10 11  1  0
 11 12  2  0
 12 13  1  0
 13 14  2  0
 13 15  1  0
  5 16  1  0
 16 17  1  0
 17 18  2  0
 17 19  1  0
 16 20  2  0
 20  2  1  0
 12  7  1  0
  1 21  1  0
  1 22  1  0
  1 23  1  0
  3 24  1  0
  4 25  1  0
  6 26  1  0
  8 27  1  0
  9 28  1  0
 10 29  1  0
 11 30  1  0
 20 31  1  0
M  CHG  2  15  -1  19  -1
M  END
>  <meeko>  (4) 
{"is_sidechain": [false], "free_energy": -8.449, "intermolecular_energy": -10.976, "internal_energy": -0.088}

$$$$
4gkm_ligand
     RDKit          3D

 31 32  0  0  0  0  0  0  0  0999 V2000
  -26.9650  -35.5500    9.8250 C   0  0  0  0  0  0  0  0  0  0  0  0
  -27.0050  -34.2690    9.0530 C   0  0  0  0  0  0  0  0  0  0  0  0
  -26.0420  -33.2820    9.2520 C   0  0  0  0  0  0  0  0  0  0  0  0
  -26.1100  -32.0820    8.5390 C   0  0  0  0  0  0  0  0  0  0  0  0
  -27.1550  -31.8180    7.6270 C   0  0  0  0  0  0  0  0  0  0  0  0
  -27.0810  -30.5990    6.8870 N   0  0  0  0  0  0  0  0  0  0  0  0
  -27.4970  -29.3480    7.4560 C   0  0  0  0  0  0  0  0  0  0  0  0
  -28.8740  -29.0690    7.5530 C   0  0  0  0  0  0  0  0  0  0  0  0
  -29.3400  -27.8880    8.1310 C   0  0  0  0  0  0  0  0  0  0  0  0
  -28.4360  -26.9600    8.6280 C   0  0  0  0  0  0  0  0  0  0  0  0
  -27.0670  -27.2180    8.5440 C   0  0  0  0  0  0  0  0  0  0  0  0
  -26.5680  -28.4060    7.9620 C   0  0  0  0  0  0  0  0  0  0  0  0
  -25.0630  -28.5920    7.8760 C   0  0  0  0  0  0  0  0  0  0  0  0
  -24.4260  -27.8860    7.0280 O   0  0  0  0  0  0  0  0  0  0  0  0
  -24.5240  -29.4280    8.6750 O   0  0  0  0  0  0  0  0  0  0  0  0
  -28.1390  -32.8010    7.4330 C   0  0  0  0  0  0  0  0  0  0  0  0
  -29.3210  -32.6550    6.5160 C   0  0  0  0  0  0  0  0  0  0  0  0
  -29.4070  -33.4500    5.5260 O   0  0  0  0  0  0  0  0  0  0  0  0
  -30.0760  -31.6450    6.7210 O   0  0  0  0  0  0  0  0  0  0  0  0
  -28.0490  -34.0150    8.1550 C   0  0  0  0  0  0  0  0  0  0  0  0
  -26.9719  -35.3291   10.9026 H   0  0  0  0  0  0  0  0  0  0  0  0
  -27.8446  -36.1594    9.5700 H   0  0  0  0  0  0  0  0  0  0  0  0
  -26.0491  -36.1033    9.5700 H   0  0  0  0  0  0  0  0  0  0  0  0
  -25.2267  -33.4476    9.9716 H   0  0  0  0  0  0  0  0  0  0  0  0
  -25.3287  -31.3230    8.6924 H   0  0  0  0  0  0  0  0  0  0  0  0
  -27.6820  -30.7130    6.0430 H   0  0  0  0  0  0  0  0  0  0  0  0
  -29.5989  -29.7992    7.1640 H   0  0  0  0  0  0  0  0  0  0  0  0
  -30.4208  -27.6930    8.1926 H   0  0  0  0  0  0  0  0  0  0  0  0
  -28.7962  -26.0267    9.0854 H   0  0  0  0  0  0  0  0  0  0  0  0
  -26.3573  -26.4773    8.9412 H   0  0  0  0  0  0  0  0  0  0  0  0
  -28.8228  -34.7825    8.0062 H   0  0  0  0  0  0  0  0  0  0  0  0
  1  2  1  0
  2  3  2  0
  3  4  1  0
  4  5  2  0
  5  6  1  0
  6  7  1  0
  7  8  2  0
  8  9  1  0
  9 10  2  0
 10 11  1  0
 11 12  2  0
 12 13  1  0
 13 14  2  0
 13 15  1  0
  5 16  1  0
 16 17  1  0
 17 18  2  0
 17 19  1  0
 16 20  2  0
 20  2  1  0
 12  7  1  0
  1 21  1  0
  1 22  1  0
  1 23  1  0
  3 24  1  0
  4 25  1  0
  6 26  1  0
  8 27  1  0
  9 28  1  0
 10 29  1  0
 11 30  1  0
 20 31  1  0
M  CHG  2  15  -1  19  -1
M  END
>  <meeko>  (5) 
{"is_sidechain": [false], "free_energy": -8.021, "intermolecular_energy": -9.877, "internal_energy": -0.659}

$$$$
4gkm_ligand
     RDKit          3D

 31 32  0  0  0  0  0  0  0  0999 V2000
  -25.9310  -32.8640    8.8570 C   0  0  0  0  0  0  0  0  0  0  0  0
  -26.3240  -31.4910    8.4110 C   0  0  0  0  0  0  0  0  0  0  0  0
  -27.4520  -31.2900    7.6180 C   0  0  0  0  0  0  0  0  0  0  0  0
  -27.7890  -30.0030    7.1920 C   0  0  0  0  0  0  0  0  0  0  0  0
  -26.9980  -28.8810    7.5190 C   0  0  0  0  0  0  0  0  0  0  0  0
  -27.4790  -27.6010    7.1080 N   0  0  0  0  0  0  0  0  0  0  0  0
  -28.3000  -27.4470    5.9390 C   0  0  0  0  0  0  0  0  0  0  0  0
  -29.6990  -27.4600    6.0840 C   0  0  0  0  0  0  0  0  0  0  0  0
  -30.5480  -27.2770    4.9920 C   0  0  0  0  0  0  0  0  0  0  0  0
  -30.0120  -27.0750    3.7280 C   0  0  0  0  0  0  0  0  0  0  0  0
  -28.6260  -27.0560    3.5630 C   0  0  0  0  0  0  0  0  0  0  0  0
  -27.7440  -27.2400    4.6530 C   0  0  0  0  0  0  0  0  0  0  0  0
  -26.2500  -27.2440    4.3800 C   0  0  0  0  0  0  0  0  0  0  0  0
  -25.4650  -27.2630    5.3840 O   0  0  0  0  0  0  0  0  0  0  0  0
  -25.8700  -27.2510    3.1620 O   0  0  0  0  0  0  0  0  0  0  0  0
  -25.8490  -29.0770    8.3050 C   0  0  0  0  0  0  0  0  0  0  0  0
  -24.8990  -27.9860    8.7130 C   0  0  0  0  0  0  0  0  0  0  0  0
  -25.3860  -26.9570    9.2820 O   0  0  0  0  0  0  0  0  0  0  0  0
  -23.6900  -28.1130    8.3240 O   0  0  0  0  0  0  0  0  0  0  0  0
  -25.5290  -30.3860    8.7370 C   0  0  0  0  0  0  0  0  0  0  0  0
  -25.9198  -32.9033    9.9562 H   0  0  0  0  0  0  0  0  0  0  0  0
  -26.6556  -33.5962    8.4713 H   0  0  0  0  0  0  0  0  0  0  0  0
  -24.9287  -33.1019    8.4713 H   0  0  0  0  0  0  0  0  0  0  0  0
  -28.0782  -32.1463    7.3269 H   0  0  0  0  0  0  0  0  0  0  0  0
  -28.6954  -29.8603    6.5853 H   0  0  0  0  0  0  0  0  0  0  0  0
  -26.6480  -27.0030    6.9230 H   0  0  0  0  0  0  0  0  0  0  0  0
  -30.1340  -27.6182    7.0819 H   0  0  0  0  0  0  0  0  0  0  0  0
  -31.6389  -27.2928    5.1326 H   0  0  0  0  0  0  0  0  0  0  0  0
  -30.6748  -26.9308    2.8620 H   0  0  0  0  0  0  0  0  0  0  0  0
  -28.2087  -26.8936    2.5583 H   0  0  0  0  0  0  0  0  0  0  0  0
  -24.6274  -30.5400    9.3481 H   0  0  0  0  0  0  0  0  0  0  0  0
  1  2  1  0
  2  3  2  0
  3  4  1  0
  4  5  2  0
  5  6  1  0
  6  7  1  0
  7  8  2  0
  8  9  1  0
  9 10  2  0
 10 11  1  0
 11 12  2  0
 12 13  1  0
 13 14  2  0
 13 15  1  0
  5 16  1  0
 16 17  1  0
 17 18  2  0
 17 19  1  0
 16 20  2  0
 20  2  1  0
 12  7  1  0
  1 21  1  0
  1 22  1  0
  1 23  1  0
  3 24  1  0
  4 25  1  0
  6 26  1  0
  8 27  1  0
  9 28  1  0
 10 29  1  0
 11 30  1  0
 20 31  1  0
M  CHG  2  15  -1  19  -1
M  END
>  <meeko>  (6) 
{"is_sidechain": [false], "free_energy": -7.438, "intermolecular_energy": -9.184, "internal_energy": -0.632}

$$$$
4gkm_ligand
     RDKit          3D

 31 32  0  0  0  0  0  0  0  0999 V2000
  -29.3450  -26.8460    8.5730 C   0  0  0  0  0  0  0  0  0  0  0  0
  -28.7970  -28.1840    8.1870 C   0  0  0  0  0  0  0  0  0  0  0  0
  -29.6450  -29.2290    7.8250 C   0  0  0  0  0  0  0  0  0  0  0  0
  -29.1140  -30.4780    7.4920 C   0  0  0  0  0  0  0  0  0  0  0  0
  -27.7260  -30.7320    7.5360 C   0  0  0  0  0  0  0  0  0  0  0  0
  -27.2840  -32.0140    7.0910 N   0  0  0  0  0  0  0  0  0  0  0  0
  -27.6190  -33.2140    7.8050 C   0  0  0  0  0  0  0  0  0  0  0  0
  -26.9070  -33.5290    8.9780 C   0  0  0  0  0  0  0  0  0  0  0  0
  -27.2120  -34.6600    9.7360 C   0  0  0  0  0  0  0  0  0  0  0  0
  -28.2410  -35.5010    9.3360 C   0  0  0  0  0  0  0  0  0  0  0  0
  -28.9620  -35.2060    8.1780 C   0  0  0  0  0  0  0  0  0  0  0  0
  -28.6720  -34.0670    7.3910 C   0  0  0  0  0  0  0  0  0  0  0  0
  -29.4790  -33.8390    6.1250 C   0  0  0  0  0  0  0  0  0  0  0  0
  -29.6590  -34.8350    5.3500 O   0  0  0  0  0  0  0  0  0  0  0  0
  -29.9470  -32.6690    5.9240 O   0  0  0  0  0  0  0  0  0  0  0  0
  -26.8660  -29.6880    7.9150 C   0  0  0  0  0  0  0  0  0  0  0  0
  -25.3730  -29.8140    8.0300 C   0  0  0  0  0  0  0  0  0  0  0  0
  -24.8990  -30.9240    8.4360 O   0  0  0  0  0  0  0  0  0  0  0  0
  -24.6980  -28.7450    7.8490 O   0  0  0  0  0  0  0  0  0  0  0  0
  -27.4180  -28.4260    8.2390 C   0  0  0  0  0  0  0  0  0  0  0  0
  -29.3779  -26.7657    9.6696 H   0  0  0  0  0  0  0  0  0  0  0  0
  -28.6988  -26.0540    8.1666 H   0  0  0  0  0  0  0  0  0  0  0  0
  -30.3611  -26.7348    8.1666 H   0  0  0  0  0  0  0  0  0  0  0  0
  -30.7333  -29.0705    7.8014 H   0  0  0  0  0  0  0  0  0  0  0  0
  -29.7962  -31.2853    7.1873 H   0  0  0  0  0  0  0  0  0  0  0  0
  -26.2430  -31.9980    7.0850 H   0  0  0  0  0  0  0  0  0  0  0  0
  -26.0909  -32.8678    9.3046 H   0  0  0  0  0  0  0  0  0  0  0  0
  -26.6388  -34.8844   10.6476 H   0  0  0  0  0  0  0  0  0  0  0  0
  -28.4869  -36.3948    9.9282 H   0  0  0  0  0  0  0  0  0  0  0  0
  -29.7772  -35.8769    7.8692 H   0  0  0  0  0  0  0  0  0  0  0  0
  -26.7442  -27.6105    8.5407 H   0  0  0  0  0  0  0  0  0  0  0  0
  1  2  1  0
  2  3  2  0
  3  4  1  0
  4  5  2  0
  5  6  1  0
  6  7  1  0
  7  8  2  0
  8  9  1  0
  9 10  2  0
 10 11  1  0
 11 12  2  0
 12 13  1  0
 13 14  2  0
 13 15  1  0
  5 16  1  0
 16 17  1  0
 17 18  2  0
 17 19  1  0
 16 20  2  0
 20  2  1  0
 12  7  1  0
  1 21  1  0
  1 22  1  0
  1 23  1  0
  3 24  1  0
  4 25  1  0
  6 26  1  0
  8 27  1  0
  9 28  1  0
 10 29  1  0
 11 30  1  0
 20 31  1  0
M  CHG  2  15  -1  19  -1
M  END
>  <meeko>  (7) 
{"is_sidechain": [false], "free_energy": -7.352, "intermolecular_energy": -9.094, "internal_energy": -0.616}

$$$$
4gkm_ligand
     RDKit          3D

 31 32  0  0  0  0  0  0  0  0999 V2000
  -26.0040  -32.1420    9.0730 C   0  0  0  0  0  0  0  0  0  0  0  0
  -26.9270  -33.2320    8.6270 C   0  0  0  0  0  0  0  0  0  0  0  0
  -26.8580  -34.5050    9.1910 C   0  0  0  0  0  0  0  0  0  0  0  0
  -27.7130  -35.5160    8.7440 C   0  0  0  0  0  0  0  0  0  0  0  0
  -28.6430  -35.2980    7.7050 C   0  0  0  0  0  0  0  0  0  0  0  0
  -29.5290  -36.3720    7.3870 N   0  0  0  0  0  0  0  0  0  0  0  0
  -30.8660  -36.4220    7.9090 C   0  0  0  0  0  0  0  0  0  0  0  0
  -31.0830  -36.0800    9.2570 C   0  0  0  0  0  0  0  0  0  0  0  0
  -32.3630  -36.0740    9.8120 C   0  0  0  0  0  0  0  0  0  0  0  0
  -33.4570  -36.4070    9.0260 C   0  0  0  0  0  0  0  0  0  0  0  0
  -33.2650  -36.7470    7.6850 C   0  0  0  0  0  0  0  0  0  0  0  0
  -31.9780  -36.7630    7.1000 C   0  0  0  0  0  0  0  0  0  0  0  0
  -31.8510  -37.1810    5.6450 C   0  0  0  0  0  0  0  0  0  0  0  0
  -32.6840  -36.6930    4.8130 O   0  0  0  0  0  0  0  0  0  0  0  0
  -30.9030  -37.9790    5.3390 O   0  0  0  0  0  0  0  0  0  0  0  0
  -28.7080  -34.0220    7.1210 C   0  0  0  0  0  0  0  0  0  0  0  0
  -29.6280  -33.6470    5.9930 C   0  0  0  0  0  0  0  0  0  0  0  0
  -29.7960  -34.4930    5.0560 O   0  0  0  0  0  0  0  0  0  0  0  0
  -30.0600  -32.4460    5.9890 O   0  0  0  0  0  0  0  0  0  0  0  0
  -27.8430  -33.0060    7.5920 C   0  0  0  0  0  0  0  0  0  0  0  0
  -25.9776  -32.1108   10.1722 H   0  0  0  0  0  0  0  0  0  0  0  0
  -24.9925  -32.3373    8.6873 H   0  0  0  0  0  0  0  0  0  0  0  0
  -26.3634  -31.1765    8.6873 H   0  0  0  0  0  0  0  0  0  0  0  0
  -26.1299  -34.7139    9.9886 H   0  0  0  0  0  0  0  0  0  0  0  0
  -27.6597  -36.5087    9.2148 H   0  0  0  0  0  0  0  0  0  0  0  0
  -29.0850  -37.2500    7.7260 H   0  0  0  0  0  0  0  0  0  0  0  0
  -30.2230  -35.8111    9.8879 H   0  0  0  0  0  0  0  0  0  0  0  0
  -32.5045  -35.8061   10.8694 H   0  0  0  0  0  0  0  0  0  0  0  0
  -34.4693  -36.4032    9.4564 H   0  0  0  0  0  0  0  0  0  0  0  0
  -34.1374  -37.0090    7.0683 H   0  0  0  0  0  0  0  0  0  0  0  0
  -27.8915  -32.0084    7.1312 H   0  0  0  0  0  0  0  0  0  0  0  0
  1  2  1  0
  2  3  2  0
  3  4  1  0
  4  5  2  0
  5  6  1  0
  6  7  1  0
  7  8  2  0
  8  9  1  0
  9 10  2  0
 10 11  1  0
 11 12  2  0
 12 13  1  0
 13 14  2  0
 13 15  1  0
  5 16  1  0
 16 17  1  0
 17 18  2  0
 17 19  1  0
 16 20  2  0
 20  2  1  0
 12  7  1  0
  1 21  1  0
  1 22  1  0
  1 23  1  0
  3 24  1  0
  4 25  1  0
  6 26  1  0
  8 27  1  0
  9 28  1  0
 10 29  1  0
 11 30  1  0
 20 31  1  0
M  CHG  2  15  -1  19  -1
M  END
>  <meeko>  (8) 
{"is_sidechain": [false], "free_energy": -7.165, "intermolecular_energy": -8.305, "internal_energy": -1.175}

$$$$
4gkm_ligand
     RDKit          3D

 31 32  0  0  0  0  0  0  0  0999 V2000
  -24.9610  -30.4710    8.4610 C   0  0  0  0  0  0  0  0  0  0  0  0
  -26.0730  -31.4660    8.3570 C   0  0  0  0  0  0  0  0  0  0  0  0
  -25.8870  -32.7920    8.7430 C   0  0  0  0  0  0  0  0  0  0  0  0
  -26.9310  -33.7120    8.6140 C   0  0  0  0  0  0  0  0  0  0  0  0
  -28.1820  -33.3460    8.0720 C   0  0  0  0  0  0  0  0  0  0  0  0
  -29.2070  -34.3400    8.0680 N   0  0  0  0  0  0  0  0  0  0  0  0
  -29.2290  -35.3920    7.0910 C   0  0  0  0  0  0  0  0  0  0  0  0
  -29.5830  -35.0810    5.7650 C   0  0  0  0  0  0  0  0  0  0  0  0
  -29.5860  -36.0520    4.7630 C   0  0  0  0  0  0  0  0  0  0  0  0
  -29.2310  -37.3580    5.0670 C   0  0  0  0  0  0  0  0  0  0  0  0
  -28.8730  -37.6880    6.3750 C   0  0  0  0  0  0  0  0  0  0  0  0
  -28.8640  -36.7230    7.4100 C   0  0  0  0  0  0  0  0  0  0  0  0
  -28.4990  -37.1730    8.8140 C   0  0  0  0  0  0  0  0  0  0  0  0
  -27.4480  -36.6800    9.3400 O   0  0  0  0  0  0  0  0  0  0  0  0
  -29.2800  -38.0000    9.3920 O   0  0  0  0  0  0  0  0  0  0  0  0
  -28.3730  -32.0150    7.6650 C   0  0  0  0  0  0  0  0  0  0  0  0
  -29.6370  -31.4840    7.0510 C   0  0  0  0  0  0  0  0  0  0  0  0
  -30.1110  -32.0990    6.0420 O   0  0  0  0  0  0  0  0  0  0  0  0
  -30.0620  -30.3680    7.5020 O   0  0  0  0  0  0  0  0  0  0  0  0
  -27.3090  -31.0930    7.8120 C   0  0  0  0  0  0  0  0  0  0  0  0
  -24.7422  -30.2752    9.5211 H   0  0  0  0  0  0  0  0  0  0  0  0
  -24.0626  -30.8724    7.9692 H   0  0  0  0  0  0  0  0  0  0  0  0
  -25.2604  -29.5337    7.9692 H   0  0  0  0  0  0  0  0  0  0  0  0
  -24.9173  -33.1149    9.1497 H   0  0  0  0  0  0  0  0  0  0  0  0
  -26.7737  -34.7495    8.9438 H   0  0  0  0  0  0  0  0  0  0  0  0
  -30.1150  -33.8480    7.9400 H   0  0  0  0  0  0  0  0  0  0  0  0
  -29.8640  -34.0479    5.5125 H   0  0  0  0  0  0  0  0  0  0  0  0
  -29.8691  -35.7826    3.7348 H   0  0  0  0  0  0  0  0  0  0  0  0
  -29.2316  -38.1287    4.2821 H   0  0  0  0  0  0  0  0  0  0  0  0
  -28.5904  -38.7254    6.6074 H   0  0  0  0  0  0  0  0  0  0  0  0
  -27.4569  -30.0521    7.4886 H   0  0  0  0  0  0  0  0  0  0  0  0
  1  2  1  0
  2  3  2  0
  3  4  1  0
  4  5  2  0
  5  6  1  0
  6  7  1  0
  7  8  2  0
  8  9  1  0
  9 10  2  0
 10 11  1  0
 11 12  2  0
 12 13  1  0
 13 14  2  0
 13 15  1  0
  5 16  1  0
 16 17  1  0
 17 18  2  0
 17 19  1  0
 16 20  2  0
 20  2  1  0
 12  7  1  0
  1 21  1  0
  1 22  1  0
  1 23  1  0
  3 24  1  0
  4 25  1  0
  6 26  1  0
  8 27  1  0
  9 28  1  0
 10 29  1  0
 11 30  1  0
 20 31  1  0
M  CHG  2  15  -1  19  -1
M  END
>  <meeko>  (9) 
{"is_sidechain": [false], "free_energy": -7.089, "intermolecular_energy": -8.575, "internal_energy": -0.81}

$$$$
