3tsk_ligand
     RDKit          3D

 71 73  0  0  0  0  0  0  0  0999 V2000
   13.8490   26.1060   -2.4130 N   0  0  0  0  0  0  0  0  0  0  0  0
   12.5030   26.3200   -2.3720 C   0  0  0  0  0  0  0  0  0  0  0  0
   11.7670   25.9520   -3.2820 O   0  0  0  0  0  0  0  0  0  0  0  0
   12.0080   26.9640   -1.0940 C   0  0  0  0  0  0  0  0  0  0  0  0
   11.4120   25.9310   -0.1370 C   0  0  0  0  0  0  0  0  0  0  0  0
    9.9250   26.1700    0.1510 C   0  0  2  0  0  0  0  0  0  0  0  0
    9.6520   25.9550    1.5730 N   0  0  0  0  0  0  0  0  0  0  0  0
    8.8520   26.8260    2.2800 C   0  0  0  0  0  0  0  0  0  0  0  0
    8.5340   27.9380    1.8730 O   0  0  0  0  0  0  0  0  0  0  0  0
    8.3840   26.2440    3.6020 C   0  0  0  0  0  0  0  0  0  0  0  0
    8.3000   24.7200    3.5990 C   0  0  0  0  0  0  0  0  0  0  0  0
    7.0940   24.2000    4.3480 C   0  0  0  0  0  0  0  0  0  0  0  0
    7.1980   23.0740    5.1720 C   0  0  0  0  0  0  0  0  0  0  0  0
    6.0790   22.5850    5.8540 C   0  0  0  0  0  0  0  0  0  0  0  0
    4.8300   23.2070    5.7230 C   0  0  0  0  0  0  0  0  0  0  0  0
    3.6470   22.7220    6.4440 C   0  0  0  0  0  0  0  0  0  0  0  0
    2.3270   23.1110    6.2960 C   0  0  0  0  0  0  0  0  0  0  0  0
    1.4260   22.4110    7.1630 C   0  0  0  0  0  0  0  0  0  0  0  0
   -0.0210   22.5810    7.2530 C   0  0  0  0  0  0  0  0  0  0  0  0
   -0.6540   23.6890    6.6750 C   0  0  0  0  0  0  0  0  0  0  0  0
   -2.0410   23.8380    6.7610 C   0  0  0  0  0  0  0  0  0  0  0  0
   -2.8060   22.8790    7.4240 C   0  0  0  0  0  0  0  0  0  0  0  0
   -2.1860   21.7710    7.9990 C   0  0  0  0  0  0  0  0  0  0  0  0
   -0.7990   21.6210    7.9120 C   0  0  0  0  0  0  0  0  0  0  0  0
    2.1050   21.4870    7.9320 C   0  0  0  0  0  0  0  0  0  0  0  0
    3.7860   21.4830    7.6230 S   0  0  0  0  0  0  0  0  0  0  0  0
    4.7310   24.3350    4.8960 C   0  0  0  0  0  0  0  0  0  0  0  0
    5.8490   24.8230    4.2110 C   0  0  0  0  0  0  0  0  0  0  0  0
    9.0510   25.1370   -0.6020 C   0  0  0  0  0  0  0  0  0  0  0  0
    8.4810   24.2230   -0.0050 O   0  0  0  0  0  0  0  0  0  0  0  0
    9.0420   25.2910   -1.9660 N   0  0  0  0  0  0  0  0  0  0  0  0
    8.4120   24.3630   -2.9020 C   0  0  1  0  0  0  0  0  0  0  0  0
    7.6960   25.0540   -4.0800 C   0  0  0  0  0  0  0  0  0  0  0  0
    8.3630   26.3530   -4.5340 C   0  0  0  0  0  0  0  0  0  0  0  0
    8.8800   26.2870   -5.9700 C   0  0  0  0  0  0  0  0  0  0  0  0
    9.1660   25.1220   -6.3740 O   0  0  0  0  0  0  0  0  0  0  0  0
    8.9930   27.3940   -6.5640 O   0  0  0  0  0  0  0  0  0  0  0  0
    9.3820   23.2490   -3.3580 C   0  0  0  0  0  0  0  0  0  0  0  0
    8.9900   22.5570   -4.4760 N   0  0  0  0  0  0  0  0  0  0  0  0
   10.4030   22.9100   -2.7660 O   0  0  0  0  0  0  0  0  0  0  0  0
   14.4630   26.7870   -1.9230 H   0  0  0  0  0  0  0  0  0  0  0  0
   14.2230   25.8280   -3.3070 H   0  0  0  0  0  0  0  0  0  0  0  0
   12.8515   27.4659   -0.5973 H   0  0  0  0  0  0  0  0  0  0  0  0
   11.2200   27.6856   -1.3553 H   0  0  0  0  0  0  0  0  0  0  0  0
   11.5266   24.9322   -0.5834 H   0  0  0  0  0  0  0  0  0  0  0  0
   11.9506   26.0177    0.8182 H   0  0  0  0  0  0  0  0  0  0  0  0
    9.6930   27.1980   -0.1642 H   0  0  0  0  0  0  0  0  0  0  0  0
    9.5800   24.9740    1.8250 H   0  0  0  0  0  0  0  0  0  0  0  0
    9.0893   26.5525    4.3877 H   0  0  0  0  0  0  0  0  0  0  0  0
    7.3676   26.6243    3.7820 H   0  0  0  0  0  0  0  0  0  0  0  0
    8.2434   24.3728    2.5568 H   0  0  0  0  0  0  0  0  0  0  0  0
    9.1971   24.3371    4.1075 H   0  0  0  0  0  0  0  0  0  0  0  0
    8.1686   22.5687    5.2845 H   0  0  0  0  0  0  0  0  0  0  0  0
    6.1806   21.7013    6.5012 H   0  0  0  0  0  0  0  0  0  0  0  0
    2.0013   23.8822    5.5825 H   0  0  0  0  0  0  0  0  0  0  0  0
   -0.0550   24.4474    6.1496 H   0  0  0  0  0  0  0  0  0  0  0  0
   -2.5293   24.7121    6.3055 H   0  0  0  0  0  0  0  0  0  0  0  0
   -3.8975   22.9968    7.4931 H   0  0  0  0  0  0  0  0  0  0  0  0
   -2.7888   21.0138    8.5218 H   0  0  0  0  0  0  0  0  0  0  0  0
   -0.3152   20.7427    8.3643 H   0  0  0  0  0  0  0  0  0  0  0  0
    1.6175   20.8258    8.6635 H   0  0  0  0  0  0  0  0  0  0  0  0
    3.7617   24.8428    4.7844 H   0  0  0  0  0  0  0  0  0  0  0  0
    5.7483   25.7036    3.5595 H   0  0  0  0  0  0  0  0  0  0  0  0
    9.4140   26.1410   -2.3670 H   0  0  0  0  0  0  0  0  0  0  0  0
    7.6071   23.8718   -2.3357 H   0  0  0  0  0  0  0  0  0  0  0  0
    7.6785   24.3576   -4.9313 H   0  0  0  0  0  0  0  0  0  0  0  0
    6.6872   25.3182   -3.7300 H   0  0  0  0  0  0  0  0  0  0  0  0
    7.6279   27.1682   -4.4630 H   0  0  0  0  0  0  0  0  0  0  0  0
    9.2300   26.5246   -3.8792 H   0  0  0  0  0  0  0  0  0  0  0  0
    9.5320   21.7360   -4.7060 H   0  0  0  0  0  0  0  0  0  0  0  0
    8.0220   22.5940   -4.7750 H   0  0  0  0  0  0  0  0  0  0  0  0
  1  2  1  0
  2  3  2  0
  2  4  1  0
  4  5  1  0
  5  6  1  0
  6  7  1  0
  7  8  1  0
  8  9  2  0
  8 10  1  0
 10 11  1  0
 11 12  1  0
 12 13  2  0
 13 14  1  0
 14 15  2  0
 15 16  1  0
 16 17  2  0
 17 18  1  0
 18 19  1  0
 19 20  2  0
 20 21  1  0
 21 22  2  0
 22 23  1  0
 23 24  2  0
 18 25  2  0
 25 26  1  0
 15 27  1  0
 27 28  2  0
  6 29  1  0
 29 30  2  0
 29 31  1  0
 31 32  1  0
 32 33  1  0
 33 34  1  0
 34 35  1  0
 35 36  2  0
 35 37  1  0
 32 38  1  0
 38 39  1  0
 38 40  2  0
 28 12  1  0
 26 16  1  0
 24 19  1  0
  1 41  1  0
  1 42  1  0
  4 43  1  0
  4 44  1  0
  5 45  1  0
  5 46  1  0
  6 47  1  6
  7 48  1  0
 10 49  1  0
 10 50  1  0
 11 51  1  0
 11 52  1  0
 13 53  1  0
 14 54  1  0
 17 55  1  0
 20 56  1  0
 21 57  1  0
 22 58  1  0
 23 59  1  0
 24 60  1  0
 25 61  1  0
 27 62  1  0
 28 63  1  0
 31 64  1  0
 32 65  1  1
 33 66  1  0
 33 67  1  0
 34 68  1  0
 34 69  1  0
 39 70  1  0
 39 71  1  0
M  CHG  1  37  -1
M  END
>  <meeko>  (1) 
{"is_sidechain": [false], "free_energy": -9.198, "intermolecular_energy": -17.263, "internal_energy": -2.377}

$$$$
3tsk_ligand
     RDKit          3D

 71 73  0  0  0  0  0  0  0  0999 V2000
   13.7440   26.2820   -1.6760 N   0  0  0  0  0  0  0  0  0  0  0  0
   12.4140   26.3350   -1.9710 C   0  0  0  0  0  0  0  0  0  0  0  0
   12.0020   26.1440   -3.1110 O   0  0  0  0  0  0  0  0  0  0  0  0
   11.5140   26.5640   -0.7750 C   0  0  0  0  0  0  0  0  0  0  0  0
   10.1000   26.9580   -1.2020 C   0  0  0  0  0  0  0  0  0  0  0  0
    9.0580   25.8770   -0.8880 C   0  0  2  0  0  0  0  0  0  0  0  0
    9.2620   25.3680    0.4690 N   0  0  0  0  0  0  0  0  0  0  0  0
    8.2540   25.4290    1.4070 C   0  0  0  0  0  0  0  0  0  0  0  0
    7.2450   26.1140    1.2760 O   0  0  0  0  0  0  0  0  0  0  0  0
    8.5150   24.5280    2.6010 C   0  0  0  0  0  0  0  0  0  0  0  0
    8.1930   25.1870    3.9400 C   0  0  0  0  0  0  0  0  0  0  0  0
    7.0060   24.5560    4.6320 C   0  0  0  0  0  0  0  0  0  0  0  0
    5.7000   24.9080    4.2700 C   0  0  0  0  0  0  0  0  0  0  0  0
    4.6030   24.3350    4.9200 C   0  0  0  0  0  0  0  0  0  0  0  0
    4.7850   23.4000    5.9480 C   0  0  0  0  0  0  0  0  0  0  0  0
    3.6470   22.7710    6.6310 C   0  0  0  0  0  0  0  0  0  0  0  0
    2.2950   23.0000    6.4420 C   0  0  0  0  0  0  0  0  0  0  0  0
    1.4590   22.1920    7.2800 C   0  0  0  0  0  0  0  0  0  0  0  0
   -0.0000   22.1850    7.3240 C   0  0  0  0  0  0  0  0  0  0  0  0
   -0.6990   21.1260    7.9180 C   0  0  0  0  0  0  0  0  0  0  0  0
   -2.0960   21.1340    7.9600 C   0  0  0  0  0  0  0  0  0  0  0  0
   -2.8050   22.2010    7.4110 C   0  0  0  0  0  0  0  0  0  0  0  0
   -2.1190   23.2610    6.8210 C   0  0  0  0  0  0  0  0  0  0  0  0
   -0.7220   23.2550    6.7790 C   0  0  0  0  0  0  0  0  0  0  0  0
    2.2200   21.3530    8.0680 C   0  0  0  0  0  0  0  0  0  0  0  0
    3.8980   21.5530    7.8120 S   0  0  0  0  0  0  0  0  0  0  0  0
    6.0950   23.0510    6.3070 C   0  0  0  0  0  0  0  0  0  0  0  0
    7.1940   23.6270    5.6600 C   0  0  0  0  0  0  0  0  0  0  0  0
    9.2400   24.6560   -1.8230 C   0  0  0  0  0  0  0  0  0  0  0  0
    9.8290   23.6420   -1.4460 O   0  0  0  0  0  0  0  0  0  0  0  0
    8.7640   24.8440   -3.0970 N   0  0  0  0  0  0  0  0  0  0  0  0
    8.9440   23.9000   -4.1970 C   0  0  1  0  0  0  0  0  0  0  0  0
    7.7550   23.8490   -5.1780 C   0  0  0  0  0  0  0  0  0  0  0  0
    7.9170   22.8150   -6.2940 C   0  0  0  0  0  0  0  0  0  0  0  0
    6.5920   22.4420   -6.9570 C   0  0  0  0  0  0  0  0  0  0  0  0
    5.6500   23.2610   -6.7480 O   0  0  0  0  0  0  0  0  0  0  0  0
    6.5860   21.3560   -7.5980 O   0  0  0  0  0  0  0  0  0  0  0  0
   10.3020   24.0890   -4.9110 C   0  0  0  0  0  0  0  0  0  0  0  0
   11.3320   23.3310   -4.4150 N   0  0  0  0  0  0  0  0  0  0  0  0
   10.5250   24.8960   -5.8100 O   0  0  0  0  0  0  0  0  0  0  0  0
   14.0900   26.8720   -0.8930 H   0  0  0  0  0  0  0  0  0  0  0  0
   14.3700   26.2900   -2.4670 H   0  0  0  0  0  0  0  0  0  0  0  0
   11.4633   25.6377   -0.1838 H   0  0  0  0  0  0  0  0  0  0  0  0
   11.9356   27.3874   -0.1798 H   0  0  0  0  0  0  0  0  0  0  0  0
    9.8183   27.8809   -0.6738 H   0  0  0  0  0  0  0  0  0  0  0  0
   10.1118   27.0978   -2.2930 H   0  0  0  0  0  0  0  0  0  0  0  0
    8.0656   26.3344   -1.0138 H   0  0  0  0  0  0  0  0  0  0  0  0
    9.8610   24.5480    0.5060 H   0  0  0  0  0  0  0  0  0  0  0  0
    7.8949   23.6252    2.4987 H   0  0  0  0  0  0  0  0  0  0  0  0
    9.5902   24.2959    2.6037 H   0  0  0  0  0  0  0  0  0  0  0  0
    9.0712   25.0973    4.5963 H   0  0  0  0  0  0  0  0  0  0  0  0
    7.9397   26.2385    3.7397 H   0  0  0  0  0  0  0  0  0  0  0  0
    5.5358   25.6418    3.4672 H   0  0  0  0  0  0  0  0  0  0  0  0
    3.5840   24.6216    4.6208 H   0  0  0  0  0  0  0  0  0  0  0  0
    1.9011   23.7302    5.7198 H   0  0  0  0  0  0  0  0  0  0  0  0
   -0.1444   20.2822    8.3544 H   0  0  0  0  0  0  0  0  0  0  0  0
   -2.6365   20.2973    8.4268 H   0  0  0  0  0  0  0  0  0  0  0  0
   -3.9045   22.2065    7.4433 H   0  0  0  0  0  0  0  0  0  0  0  0
   -2.6779   24.1036    6.3877 H   0  0  0  0  0  0  0  0  0  0  0  0
   -0.1858   24.0959    6.3150 H   0  0  0  0  0  0  0  0  0  0  0  0
    1.7933   20.6340    8.7828 H   0  0  0  0  0  0  0  0  0  0  0  0
    6.2607   22.3150    7.1075 H   0  0  0  0  0  0  0  0  0  0  0  0
    8.2138   23.3468    5.9625 H   0  0  0  0  0  0  0  0  0  0  0  0
    8.1720   25.6400   -3.2880 H   0  0  0  0  0  0  0  0  0  0  0  0
    8.9652   22.9042   -3.7301 H   0  0  0  0  0  0  0  0  0  0  0  0
    6.8462   23.6047   -4.6085 H   0  0  0  0  0  0  0  0  0  0  0  0
    7.6973   24.8352   -5.6619 H   0  0  0  0  0  0  0  0  0  0  0  0
    8.5887   23.2286   -7.0606 H   0  0  0  0  0  0  0  0  0  0  0  0
    8.3272   21.9010   -5.8397 H   0  0  0  0  0  0  0  0  0  0  0  0
   12.2540   23.5430   -4.7690 H   0  0  0  0  0  0  0  0  0  0  0  0
   11.2540   22.9210   -3.4910 H   0  0  0  0  0  0  0  0  0  0  0  0
  1  2  1  0
  2  3  2  0
  2  4  1  0
  4  5  1  0
  5  6  1  0
  6  7  1  0
  7  8  1  0
  8  9  2  0
  8 10  1  0
 10 11  1  0
 11 12  1  0
 12 13  2  0
 13 14  1  0
 14 15  2  0
 15 16  1  0
 16 17  2  0
 17 18  1  0
 18 19  1  0
 19 20  2  0
 20 21  1  0
 21 22  2  0
 22 23  1  0
 23 24  2  0
 18 25  2  0
 25 26  1  0
 15 27  1  0
 27 28  2  0
  6 29  1  0
 29 30  2  0
 29 31  1  0
 31 32  1  0
 32 33  1  0
 33 34  1  0
 34 35  1  0
 35 36  2  0
 35 37  1  0
 32 38  1  0
 38 39  1  0
 38 40  2  0
 28 12  1  0
 26 16  1  0
 24 19  1  0
  1 41  1  0
  1 42  1  0
  4 43  1  0
  4 44  1  0
  5 45  1  0
  5 46  1  0
  6 47  1  1
  7 48  1  0
 10 49  1  0
 10 50  1  0
 11 51  1  0
 11 52  1  0
 13 53  1  0
 14 54  1  0
 17 55  1  0
 20 56  1  0
 21 57  1  0
 22 58  1  0
 23 59  1  0
 24 60  1  0
 25 61  1  0
 27 62  1  0
 28 63  1  0
 31 64  1  0
 32 65  1  1
 33 66  1  0
 33 67  1  0
 34 68  1  0
 34 69  1  0
 39 70  1  0
 39 71  1  0
M  CHG  1  37  -1
M  END
>  <meeko>  (2) 
{"is_sidechain": [false], "free_energy": -8.52, "intermolecular_energy": -16.48, "internal_energy": -1.887}

$$$$
3tsk_ligand
     RDKit          3D

 71 73  0  0  0  0  0  0  0  0999 V2000
    6.0540   30.7390   -0.9450 N   0  0  0  0  0  0  0  0  0  0  0  0
    7.0900   29.9740   -1.3900 C   0  0  0  0  0  0  0  0  0  0  0  0
    7.2820   29.7880   -2.5890 O   0  0  0  0  0  0  0  0  0  0  0  0
    8.0040   29.4560   -0.3000 C   0  0  0  0  0  0  0  0  0  0  0  0
    9.0890   28.5390   -0.8620 C   0  0  0  0  0  0  0  0  0  0  0  0
    8.9850   27.1000   -0.3420 C   0  0  2  0  0  0  0  0  0  0  0  0
    8.8310   27.1060    1.1140 N   0  0  0  0  0  0  0  0  0  0  0  0
    8.0980   26.1290    1.7520 C   0  0  0  0  0  0  0  0  0  0  0  0
    7.3340   25.3650    1.1720 O   0  0  0  0  0  0  0  0  0  0  0  0
    8.3660   26.0840    3.2460 C   0  0  0  0  0  0  0  0  0  0  0  0
    8.5200   24.6660    3.7930 C   0  0  0  0  0  0  0  0  0  0  0  0
    7.2740   24.1690    4.4880 C   0  0  0  0  0  0  0  0  0  0  0  0
    7.2910   22.9690    5.2100 C   0  0  0  0  0  0  0  0  0  0  0  0
    6.1340   22.5030    5.8410 C   0  0  0  0  0  0  0  0  0  0  0  0
    4.9330   23.2210    5.7620 C   0  0  0  0  0  0  0  0  0  0  0  0
    3.7110   22.7590    6.4330 C   0  0  0  0  0  0  0  0  0  0  0  0
    2.4050   23.1670    6.2240 C   0  0  0  0  0  0  0  0  0  0  0  0
    1.4560   22.4870    7.0550 C   0  0  0  0  0  0  0  0  0  0  0  0
    0.0100   22.6790    7.0790 C   0  0  0  0  0  0  0  0  0  0  0  0
   -0.5640   23.8910    6.6710 C   0  0  0  0  0  0  0  0  0  0  0  0
   -1.9510   24.0610    6.6920 C   0  0  0  0  0  0  0  0  0  0  0  0
   -2.7750   23.0220    7.1200 C   0  0  0  0  0  0  0  0  0  0  0  0
   -2.2150   21.8110    7.5240 C   0  0  0  0  0  0  0  0  0  0  0  0
   -0.8280   21.6390    7.5020 C   0  0  0  0  0  0  0  0  0  0  0  0
    2.0860   21.5580    7.8590 C   0  0  0  0  0  0  0  0  0  0  0  0
    3.7790   21.5270    7.6250 S   0  0  0  0  0  0  0  0  0  0  0  0
    4.9210   24.4220    5.0380 C   0  0  0  0  0  0  0  0  0  0  0  0
    6.0770   24.8880    4.4020 C   0  0  0  0  0  0  0  0  0  0  0  0
   10.2960   26.3240   -0.6180 C   0  0  0  0  0  0  0  0  0  0  0  0
   11.0350   25.9650    0.3000 O   0  0  0  0  0  0  0  0  0  0  0  0
   10.5830   26.1530   -1.9490 N   0  0  0  0  0  0  0  0  0  0  0  0
   11.8250   25.5830   -2.4650 C   0  0  1  0  0  0  0  0  0  0  0  0
   11.6380   24.7130   -3.7250 C   0  0  0  0  0  0  0  0  0  0  0  0
   10.1770   24.5340   -4.1420 C   0  0  0  0  0  0  0  0  0  0  0  0
    9.5530   23.2520   -3.5940 C   0  0  0  0  0  0  0  0  0  0  0  0
    8.6740   22.7330   -4.3420 O   0  0  0  0  0  0  0  0  0  0  0  0
    9.9590   22.8870   -2.4570 O   0  0  0  0  0  0  0  0  0  0  0  0
   12.9300   26.6510   -2.6320 C   0  0  0  0  0  0  0  0  0  0  0  0
   14.2130   26.1640   -2.6520 N   0  0  0  0  0  0  0  0  0  0  0  0
   12.7450   27.8640   -2.6730 O   0  0  0  0  0  0  0  0  0  0  0  0
    5.6470   30.5100   -0.0160 H   0  0  0  0  0  0  0  0  0  0  0  0
    5.3460   30.9620   -1.6280 H   0  0  0  0  0  0  0  0  0  0  0  0
    8.4831   30.3108    0.1998 H   0  0  0  0  0  0  0  0  0  0  0  0
    7.3969   28.8747    0.4096 H   0  0  0  0  0  0  0  0  0  0  0  0
    9.0012   28.5229   -1.9584 H   0  0  0  0  0  0  0  0  0  0  0  0
   10.0601   28.9383   -0.5340 H   0  0  0  0  0  0  0  0  0  0  0  0
    8.1272   26.6324   -0.8476 H   0  0  0  0  0  0  0  0  0  0  0  0
    9.6540   27.4430    1.6050 H   0  0  0  0  0  0  0  0  0  0  0  0
    9.2933   26.6391    3.4506 H   0  0  0  0  0  0  0  0  0  0  0  0
    7.4942   26.5316    3.7456 H   0  0  0  0  0  0  0  0  0  0  0  0
    8.7497   23.9895    2.9566 H   0  0  0  0  0  0  0  0  0  0  0  0
    9.3300   24.6838    4.5371 H   0  0  0  0  0  0  0  0  0  0  0  0
    8.2226   22.3884    5.2811 H   0  0  0  0  0  0  0  0  0  0  0  0
    6.1666   21.5604    6.4070 H   0  0  0  0  0  0  0  0  0  0  0  0
    2.1231   23.9378    5.4916 H   0  0  0  0  0  0  0  0  0  0  0  0
    0.0819   24.7142    6.3318 H   0  0  0  0  0  0  0  0  0  0  0  0
   -2.3926   25.0158    6.3704 H   0  0  0  0  0  0  0  0  0  0  0  0
   -3.8665   23.1573    7.1391 H   0  0  0  0  0  0  0  0  0  0  0  0
   -2.8652   20.9900    7.8604 H   0  0  0  0  0  0  0  0  0  0  0  0
   -0.3914   20.6804    7.8190 H   0  0  0  0  0  0  0  0  0  0  0  0
    1.5565   20.9090    8.5720 H   0  0  0  0  0  0  0  0  0  0  0  0
    3.9909   25.0052    4.9692 H   0  0  0  0  0  0  0  0  0  0  0  0
    6.0443   25.8270    3.8300 H   0  0  0  0  0  0  0  0  0  0  0  0
    9.8660   26.3470   -2.6350 H   0  0  0  0  0  0  0  0  0  0  0  0
   12.1725   24.8828   -1.6910 H   0  0  0  0  0  0  0  0  0  0  0  0
   12.1803   25.1865   -4.5567 H   0  0  0  0  0  0  0  0  0  0  0  0
   12.0265   23.7126   -3.4835 H   0  0  0  0  0  0  0  0  0  0  0  0
    9.5985   25.3924   -3.7698 H   0  0  0  0  0  0  0  0  0  0  0  0
   10.1537   24.4683   -5.2398 H   0  0  0  0  0  0  0  0  0  0  0  0
   14.9520   26.8510   -2.6150 H   0  0  0  0  0  0  0  0  0  0  0  0
   14.4020   25.2340   -2.2960 H   0  0  0  0  0  0  0  0  0  0  0  0
  1  2  1  0
  2  3  2  0
  2  4  1  0
  4  5  1  0
  5  6  1  0
  6  7  1  0
  7  8  1  0
  8  9  2  0
  8 10  1  0
 10 11  1  0
 11 12  1  0
 12 13  2  0
 13 14  1  0
 14 15  2  0
 15 16  1  0
 16 17  2  0
 17 18  1  0
 18 19  1  0
 19 20  2  0
 20 21  1  0
 21 22  2  0
 22 23  1  0
 23 24  2  0
 18 25  2  0
 25 26  1  0
 15 27  1  0
 27 28  2  0
  6 29  1  0
 29 30  2  0
 29 31  1  0
 31 32  1  0
 32 33  1  0
 33 34  1  0
 34 35  1  0
 35 36  2  0
 35 37  1  0
 32 38  1  0
 38 39  1  0
 38 40  2  0
 28 12  1  0
 26 16  1  0
 24 19  1  0
  1 41  1  0
  1 42  1  0
  4 43  1  0
  4 44  1  0
  5 45  1  0
  5 46  1  0
  6 47  1  6
  7 48  1  0
 10 49  1  0
 10 50  1  0
 11 51  1  0
 11 52  1  0
 13 53  1  0
 14 54  1  0
 17 55  1  0
 20 56  1  0
 21 57  1  0
 22 58  1  0
 23 59  1  0
 24 60  1  0
 25 61  1  0
 27 62  1  0
 28 63  1  0
 31 64  1  0
 32 65  1  1
 33 66  1  0
 33 67  1  0
 34 68  1  0
 34 69  1  0
 39 70  1  0
 39 71  1  0
M  CHG  1  37  -1
M  END
>  <meeko>  (3) 
{"is_sidechain": [false], "free_energy": -8.36, "intermolecular_energy": -16.469, "internal_energy": -1.599}

$$$$
3tsk_ligand
     RDKit          3D

 71 73  0  0  0  0  0  0  0  0999 V2000
   12.1390   21.8800   -6.6870 N   0  0  0  0  0  0  0  0  0  0  0  0
   12.6610   23.1310   -6.5420 C   0  0  0  0  0  0  0  0  0  0  0  0
   12.5300   23.9860   -7.4120 O   0  0  0  0  0  0  0  0  0  0  0  0
   13.3280   23.3820   -5.2060 C   0  0  0  0  0  0  0  0  0  0  0  0
   12.3460   23.2230   -4.0460 C   0  0  0  0  0  0  0  0  0  0  0  0
   11.2540   24.3000   -4.0350 C   0  0  2  0  0  0  0  0  0  0  0  0
   11.3250   25.0690   -2.7910 N   0  0  0  0  0  0  0  0  0  0  0  0
   11.5450   26.4290   -2.8100 C   0  0  0  0  0  0  0  0  0  0  0  0
   11.9410   27.0390   -3.7980 O   0  0  0  0  0  0  0  0  0  0  0  0
   11.2100   27.0920   -1.4860 C   0  0  0  0  0  0  0  0  0  0  0  0
    9.7130   27.3060   -1.2750 C   0  0  0  0  0  0  0  0  0  0  0  0
    9.2000   26.6480   -0.0140 C   0  0  0  0  0  0  0  0  0  0  0  0
    8.8460   27.4190    1.0990 C   0  0  0  0  0  0  0  0  0  0  0  0
    8.3850   26.8100    2.2700 C   0  0  0  0  0  0  0  0  0  0  0  0
    8.2730   25.4150    2.3570 C   0  0  0  0  0  0  0  0  0  0  0  0
    7.7740   24.7550    3.5700 C   0  0  0  0  0  0  0  0  0  0  0  0
    6.4770   24.3830    3.8780 C   0  0  0  0  0  0  0  0  0  0  0  0
    6.3570   23.7440    5.1550 C   0  0  0  0  0  0  0  0  0  0  0  0
    5.1370   23.2300    5.7710 C   0  0  0  0  0  0  0  0  0  0  0  0
    5.1930   22.2610    6.7830 C   0  0  0  0  0  0  0  0  0  0  0  0
    4.0190   21.7820    7.3700 C   0  0  0  0  0  0  0  0  0  0  0  0
    2.7810   22.2670    6.9520 C   0  0  0  0  0  0  0  0  0  0  0  0
    2.7140   23.2340    5.9500 C   0  0  0  0  0  0  0  0  0  0  0  0
    3.8880   23.7150    5.3630 C   0  0  0  0  0  0  0  0  0  0  0  0
    7.5890   23.6350    5.7670 C   0  0  0  0  0  0  0  0  0  0  0  0
    8.8500   24.3040    4.8270 S   0  0  0  0  0  0  0  0  0  0  0  0
    8.6290   24.6470    1.2390 C   0  0  0  0  0  0  0  0  0  0  0  0
    9.0940   25.2550    0.0680 C   0  0  0  0  0  0  0  0  0  0  0  0
    9.8480   23.6520   -4.0440 C   0  0  0  0  0  0  0  0  0  0  0  0
    9.3750   23.1310   -3.0330 O   0  0  0  0  0  0  0  0  0  0  0  0
    9.2360   23.6470   -5.2730 N   0  0  0  0  0  0  0  0  0  0  0  0
    7.9750   22.9710   -5.5690 C   0  0  1  0  0  0  0  0  0  0  0  0
    6.8710   23.9110   -6.0970 C   0  0  0  0  0  0  0  0  0  0  0  0
    6.4450   24.9870   -5.0970 C   0  0  0  0  0  0  0  0  0  0  0  0
    5.4500   25.9860   -5.6860 C   0  0  0  0  0  0  0  0  0  0  0  0
    5.9310   27.1340   -5.9150 O   0  0  0  0  0  0  0  0  0  0  0  0
    4.2720   25.5620   -5.8380 O   0  0  0  0  0  0  0  0  0  0  0  0
    8.1780   21.7240   -6.4600 C   0  0  0  0  0  0  0  0  0  0  0  0
    7.1210   20.8500   -6.4890 N   0  0  0  0  0  0  0  0  0  0  0  0
    9.2110   21.4420   -7.0610 O   0  0  0  0  0  0  0  0  0  0  0  0
   12.6270   21.0930   -6.2150 H   0  0  0  0  0  0  0  0  0  0  0  0
   11.8330   21.6370   -7.6170 H   0  0  0  0  0  0  0  0  0  0  0  0
   14.1509   22.6634   -5.0777 H   0  0  0  0  0  0  0  0  0  0  0  0
   13.7033   24.4160   -5.1987 H   0  0  0  0  0  0  0  0  0  0  0  0
   11.8653   22.2369   -4.1260 H   0  0  0  0  0  0  0  0  0  0  0  0
   12.9191   23.3252   -3.1127 H   0  0  0  0  0  0  0  0  0  0  0  0
   11.4106   24.9314   -4.9220 H   0  0  0  0  0  0  0  0  0  0  0  0
   10.6990   24.7250   -2.0690 H   0  0  0  0  0  0  0  0  0  0  0  0
   11.5892   26.4564   -0.6723 H   0  0  0  0  0  0  0  0  0  0  0  0
   11.6817   28.0857   -1.4926 H   0  0  0  0  0  0  0  0  0  0  0  0
    9.5177   28.3867   -1.2122 H   0  0  0  0  0  0  0  0  0  0  0  0
    9.1891   26.8459   -2.1258 H   0  0  0  0  0  0  0  0  0  0  0  0
    8.9313   28.5147    1.0520 H   0  0  0  0  0  0  0  0  0  0  0  0
    8.1069   27.4325    3.1332 H   0  0  0  0  0  0  0  0  0  0  0  0
    5.6224   24.5604    3.2085 H   0  0  0  0  0  0  0  0  0  0  0  0
    6.1676   21.8754    7.1169 H   0  0  0  0  0  0  0  0  0  0  0  0
    4.0719   21.0213    8.1628 H   0  0  0  0  0  0  0  0  0  0  0  0
    1.8572   21.8869    7.4125 H   0  0  0  0  0  0  0  0  0  0  0  0
    1.7372   23.6185    5.6213 H   0  0  0  0  0  0  0  0  0  0  0  0
    3.8304   24.4801    4.5748 H   0  0  0  0  0  0  0  0  0  0  0  0
    7.7426   23.1689    6.7514 H   0  0  0  0  0  0  0  0  0  0  0  0
    8.5414   23.5514    1.2834 H   0  0  0  0  0  0  0  0  0  0  0  0
    9.3783   24.6339   -0.7942 H   0  0  0  0  0  0  0  0  0  0  0  0
    9.6200   24.2140   -6.0160 H   0  0  0  0  0  0  0  0  0  0  0  0
    7.5975   22.6121   -4.6002 H   0  0  0  0  0  0  0  0  0  0  0  0
    7.2443   24.4090   -7.0040 H   0  0  0  0  0  0  0  0  0  0  0  0
    5.9862   23.2874   -6.2924 H   0  0  0  0  0  0  0  0  0  0  0  0
    5.9779   24.4958   -4.2307 H   0  0  0  0  0  0  0  0  0  0  0  0
    7.3470   25.5485   -4.8122 H   0  0  0  0  0  0  0  0  0  0  0  0
    7.2860   19.9650   -6.9460 H   0  0  0  0  0  0  0  0  0  0  0  0
    6.4150   20.8930   -5.7630 H   0  0  0  0  0  0  0  0  0  0  0  0
  1  2  1  0
  2  3  2  0
  2  4  1  0
  4  5  1  0
  5  6  1  0
  6  7  1  0
  7  8  1  0
  8  9  2  0
  8 10  1  0
 10 11  1  0
 11 12  1  0
 12 13  2  0
 13 14  1  0
 14 15  2  0
 15 16  1  0
 16 17  2  0
 17 18  1  0
 18 19  1  0
 19 20  2  0
 20 21  1  0
 21 22  2  0
 22 23  1  0
 23 24  2  0
 18 25  2  0
 25 26  1  0
 15 27  1  0
 27 28  2  0
  6 29  1  0
 29 30  2  0
 29 31  1  0
 31 32  1  0
 32 33  1  0
 33 34  1  0
 34 35  1  0
 35 36  2  0
 35 37  1  0
 32 38  1  0
 38 39  1  0
 38 40  2  0
 28 12  1  0
 26 16  1  0
 24 19  1  0
  1 41  1  0
  1 42  1  0
  4 43  1  0
  4 44  1  0
  5 45  1  0
  5 46  1  0
  6 47  1  6
  7 48  1  0
 10 49  1  0
 10 50  1  0
 11 51  1  0
 11 52  1  0
 13 53  1  0
 14 54  1  0
 17 55  1  0
 20 56  1  0
 21 57  1  0
 22 58  1  0
 23 59  1  0
 24 60  1  0
 25 61  1  0
 27 62  1  0
 28 63  1  0
 31 64  1  0
 32 65  1  1
 33 66  1  0
 33 67  1  0
 34 68  1  0
 34 69  1  0
 39 70  1  0
 39 71  1  0
M  CHG  1  37  -1
M  END
>  <meeko>  (4) 
{"is_sidechain": [false], "free_energy": -8.24, "intermolecular_energy": -15.627, "internal_energy": -2.215}

$$$$
3tsk_ligand
     RDKit          3D

 71 73  0  0  0  0  0  0  0  0999 V2000
   14.0390   25.7510   -3.4370 N   0  0  0  0  0  0  0  0  0  0  0  0
   12.6820   25.7830   -3.3150 C   0  0  0  0  0  0  0  0  0  0  0  0
   11.9690   24.9470   -3.8620 O   0  0  0  0  0  0  0  0  0  0  0  0
   12.1590   26.8700   -2.4000 C   0  0  0  0  0  0  0  0  0  0  0  0
   11.3770   26.2870   -1.2230 C   0  0  0  0  0  0  0  0  0  0  0  0
    9.9130   26.7440   -1.1930 C   0  0  2  0  0  0  0  0  0  0  0  0
    9.5110   27.0350    0.1850 N   0  0  0  0  0  0  0  0  0  0  0  0
    8.9120   28.2330    0.5090 C   0  0  0  0  0  0  0  0  0  0  0  0
    8.9050   29.2110   -0.2320 O   0  0  0  0  0  0  0  0  0  0  0  0
    8.2360   28.1970    1.8680 C   0  0  0  0  0  0  0  0  0  0  0  0
    8.9600   27.3170    2.8840 C   0  0  0  0  0  0  0  0  0  0  0  0
    8.0310   26.3630    3.5990 C   0  0  0  0  0  0  0  0  0  0  0  0
    7.4570   25.2830    2.9180 C   0  0  0  0  0  0  0  0  0  0  0  0
    6.5870   24.4080    3.5760 C   0  0  0  0  0  0  0  0  0  0  0  0
    6.2660   24.5970    4.9280 C   0  0  0  0  0  0  0  0  0  0  0  0
    5.3680   23.6810    5.6430 C   0  0  0  0  0  0  0  0  0  0  0  0
    3.9910   23.7420    5.7640 C   0  0  0  0  0  0  0  0  0  0  0  0
    3.4380   22.6640    6.5300 C   0  0  0  0  0  0  0  0  0  0  0  0
    2.0300   22.4340    6.8390 C   0  0  0  0  0  0  0  0  0  0  0  0
    1.6420   21.4130    7.7160 C   0  0  0  0  0  0  0  0  0  0  0  0
    0.2910   21.2070    8.0090 C   0  0  0  0  0  0  0  0  0  0  0  0
   -0.6810   22.0200    7.4300 C   0  0  0  0  0  0  0  0  0  0  0  0
   -0.3050   23.0410    6.5580 C   0  0  0  0  0  0  0  0  0  0  0  0
    1.0460   23.2490    6.2660 C   0  0  0  0  0  0  0  0  0  0  0  0
    4.4310   21.8010    6.9490 C   0  0  0  0  0  0  0  0  0  0  0  0
    5.9870   22.2950    6.4420 S   0  0  0  0  0  0  0  0  0  0  0  0
    6.8430   25.6810    5.6050 C   0  0  0  0  0  0  0  0  0  0  0  0
    7.7110   26.5580    4.9460 C   0  0  0  0  0  0  0  0  0  0  0  0
    8.9770   25.6070   -1.6690 C   0  0  0  0  0  0  0  0  0  0  0  0
    8.3770   24.8920   -0.8650 O   0  0  0  0  0  0  0  0  0  0  0  0
    8.9470   25.4310   -3.0290 N   0  0  0  0  0  0  0  0  0  0  0  0
    8.2550   24.3400   -3.7110 C   0  0  1  0  0  0  0  0  0  0  0  0
    7.7340   24.7090   -5.1150 C   0  0  0  0  0  0  0  0  0  0  0  0
    8.6970   25.5810   -5.9220 C   0  0  0  0  0  0  0  0  0  0  0  0
    9.4270   24.8060   -7.0170 C   0  0  0  0  0  0  0  0  0  0  0  0
   10.6750   24.6920   -6.8390 O   0  0  0  0  0  0  0  0  0  0  0  0
    8.7120   24.4080   -7.9780 O   0  0  0  0  0  0  0  0  0  0  0  0
    9.0800   23.0320   -3.7020 C   0  0  0  0  0  0  0  0  0  0  0  0
    8.8170   22.1690   -4.7350 N   0  0  0  0  0  0  0  0  0  0  0  0
    9.8720   22.6980   -2.8230 O   0  0  0  0  0  0  0  0  0  0  0  0
   14.5520   26.6540   -3.3860 H   0  0  0  0  0  0  0  0  0  0  0  0
   14.4010   25.1450   -4.1580 H   0  0  0  0  0  0  0  0  0  0  0  0
   13.0095   27.4494   -2.0115 H   0  0  0  0  0  0  0  0  0  0  0  0
   11.4794   27.5110   -2.9808 H   0  0  0  0  0  0  0  0  0  0  0  0
   11.4006   25.1896   -1.2953 H   0  0  0  0  0  0  0  0  0  0  0  0
   11.8539   26.6472   -0.2995 H   0  0  0  0  0  0  0  0  0  0  0  0
    9.8334   27.6276   -1.8433 H   0  0  0  0  0  0  0  0  0  0  0  0
    9.1820   26.2180    0.6900 H   0  0  0  0  0  0  0  0  0  0  0  0
    8.1935   29.2227    2.2632 H   0  0  0  0  0  0  0  0  0  0  0  0
    7.2350   27.7654    1.7206 H   0  0  0  0  0  0  0  0  0  0  0  0
    9.7282   26.7314    2.3577 H   0  0  0  0  0  0  0  0  0  0  0  0
    9.4014   27.9805    3.6422 H   0  0  0  0  0  0  0  0  0  0  0  0
    7.6924   25.1212    1.8557 H   0  0  0  0  0  0  0  0  0  0  0  0
    6.1493   23.5615    3.0266 H   0  0  0  0  0  0  0  0  0  0  0  0
    3.3803   24.5398    5.3161 H   0  0  0  0  0  0  0  0  0  0  0  0
    2.4055   20.7692    8.1771 H   0  0  0  0  0  0  0  0  0  0  0  0
   -0.0052   20.4020    8.6976 H   0  0  0  0  0  0  0  0  0  0  0  0
   -1.7441   21.8566    7.6606 H   0  0  0  0  0  0  0  0  0  0  0  0
   -1.0718   23.6829    6.0998 H   0  0  0  0  0  0  0  0  0  0  0  0
    1.3383   24.0587    5.5812 H   0  0  0  0  0  0  0  0  0  0  0  0
    4.2417   20.8952    7.5437 H   0  0  0  0  0  0  0  0  0  0  0  0
    6.6101   25.8438    6.6677 H   0  0  0  0  0  0  0  0  0  0  0  0
    8.1455   27.4082    5.4922 H   0  0  0  0  0  0  0  0  0  0  0  0
    9.3500   26.1410   -3.6260 H   0  0  0  0  0  0  0  0  0  0  0  0
    7.3482   24.1500   -3.1181 H   0  0  0  0  0  0  0  0  0  0  0  0
    7.5569   23.7787   -5.6746 H   0  0  0  0  0  0  0  0  0  0  0  0
    6.8148   25.2958   -4.9713 H   0  0  0  0  0  0  0  0  0  0  0  0
    8.1243   26.3949   -6.3906 H   0  0  0  0  0  0  0  0  0  0  0  0
    9.4579   25.9632   -5.2256 H   0  0  0  0  0  0  0  0  0  0  0  0
    9.2360   21.2530   -4.6700 H   0  0  0  0  0  0  0  0  0  0  0  0
    7.9590   22.2700   -5.2660 H   0  0  0  0  0  0  0  0  0  0  0  0
  1  2  1  0
  2  3  2  0
  2  4  1  0
  4  5  1  0
  5  6  1  0
  6  7  1  0
  7  8  1  0
  8  9  2  0
  8 10  1  0
 10 11  1  0
 11 12  1  0
 12 13  2  0
 13 14  1  0
 14 15  2  0
 15 16  1  0
 16 17  2  0
 17 18  1  0
 18 19  1  0
 19 20  2  0
 20 21  1  0
 21 22  2  0
 22 23  1  0
 23 24  2  0
 18 25  2  0
 25 26  1  0
 15 27  1  0
 27 28  2  0
  6 29  1  0
 29 30  2  0
 29 31  1  0
 31 32  1  0
 32 33  1  0
 33 34  1  0
 34 35  1  0
 35 36  2  0
 35 37  1  0
 32 38  1  0
 38 39  1  0
 38 40  2  0
 28 12  1  0
 26 16  1  0
 24 19  1  0
  1 41  1  0
  1 42  1  0
  4 43  1  0
  4 44  1  0
  5 45  1  0
  5 46  1  0
  6 47  1  6
  7 48  1  0
 10 49  1  0
 10 50  1  0
 11 51  1  0
 11 52  1  0
 13 53  1  0
 14 54  1  0
 17 55  1  0
 20 56  1  0
 21 57  1  0
 22 58  1  0
 23 59  1  0
 24 60  1  0
 25 61  1  0
 27 62  1  0
 28 63  1  0
 31 64  1  0
 32 65  1  1
 33 66  1  0
 33 67  1  0
 34 68  1  0
 34 69  1  0
 39 70  1  0
 39 71  1  0
M  CHG  1  37  -1
M  END
>  <meeko>  (5) 
{"is_sidechain": [false], "free_energy": -8.18, "intermolecular_energy": -15.631, "internal_energy": -2.098}

$$$$
3tsk_ligand
     RDKit          3D

 71 73  0  0  0  0  0  0  0  0999 V2000
   10.0190   32.8270    3.1250 N   0  0  0  0  0  0  0  0  0  0  0  0
   10.7120   31.8160    3.7190 C   0  0  0  0  0  0  0  0  0  0  0  0
   11.8430   31.9870    4.1630 O   0  0  0  0  0  0  0  0  0  0  0  0
    9.9440   30.5180    3.8460 C   0  0  0  0  0  0  0  0  0  0  0  0
    8.5790   30.6020    3.1630 C   0  0  0  0  0  0  0  0  0  0  0  0
    7.9270   29.2290    2.9590 C   0  0  2  0  0  0  0  0  0  0  0  0
    8.7410   28.1900    3.5940 N   0  0  0  0  0  0  0  0  0  0  0  0
    8.2830   27.5120    4.7030 C   0  0  0  0  0  0  0  0  0  0  0  0
    7.3250   27.8780    5.3750 O   0  0  0  0  0  0  0  0  0  0  0  0
    9.0740   26.2460    4.9780 C   0  0  0  0  0  0  0  0  0  0  0  0
    8.5610   25.0290    4.2100 C   0  0  0  0  0  0  0  0  0  0  0  0
    7.2910   24.4600    4.8000 C   0  0  0  0  0  0  0  0  0  0  0  0
    6.0410   24.8200    4.2830 C   0  0  0  0  0  0  0  0  0  0  0  0
    4.8660   24.3040    4.8370 C   0  0  0  0  0  0  0  0  0  0  0  0
    4.9130   23.4200    5.9240 C   0  0  0  0  0  0  0  0  0  0  0  0
    3.6920   22.8510    6.5100 C   0  0  0  0  0  0  0  0  0  0  0  0
    2.3830   23.2690    6.3490 C   0  0  0  0  0  0  0  0  0  0  0  0
    1.4360   22.4660    7.0650 C   0  0  0  0  0  0  0  0  0  0  0  0
   -0.0130   22.6350    7.1020 C   0  0  0  0  0  0  0  0  0  0  0  0
   -0.8500   21.5960    7.5310 C   0  0  0  0  0  0  0  0  0  0  0  0
   -2.2350   21.7710    7.5680 C   0  0  0  0  0  0  0  0  0  0  0  0
   -2.7960   22.9870    7.1790 C   0  0  0  0  0  0  0  0  0  0  0  0
   -1.9720   24.0290    6.7550 C   0  0  0  0  0  0  0  0  0  0  0  0
   -0.5860   23.8540    6.7190 C   0  0  0  0  0  0  0  0  0  0  0  0
    2.0720   21.4400    7.7340 C   0  0  0  0  0  0  0  0  0  0  0  0
    3.7670   21.4630    7.5150 S   0  0  0  0  0  0  0  0  0  0  0  0
    6.1670   23.0620    6.4380 C   0  0  0  0  0  0  0  0  0  0  0  0
    7.3440   23.5810    5.8870 C   0  0  0  0  0  0  0  0  0  0  0  0
    7.8860   28.8630    1.4550 C   0  0  0  0  0  0  0  0  0  0  0  0
    7.3280   29.5910    0.6330 O   0  0  0  0  0  0  0  0  0  0  0  0
    8.4460   27.6470    1.1530 N   0  0  0  0  0  0  0  0  0  0  0  0
    8.4050   27.0180   -0.1650 C   0  0  1  0  0  0  0  0  0  0  0  0
    9.4230   27.5980   -1.1670 C   0  0  0  0  0  0  0  0  0  0  0  0
   10.8570   27.6420   -0.6370 C   0  0  0  0  0  0  0  0  0  0  0  0
   11.7950   26.6890   -1.3750 C   0  0  0  0  0  0  0  0  0  0  0  0
   11.3740   26.3070   -2.5070 O   0  0  0  0  0  0  0  0  0  0  0  0
   12.8500   26.3700   -0.7610 O   0  0  0  0  0  0  0  0  0  0  0  0
    8.4640   25.4760   -0.0750 C   0  0  0  0  0  0  0  0  0  0  0  0
    8.8510   24.8390   -1.2270 N   0  0  0  0  0  0  0  0  0  0  0  0
    8.1280   24.8080    0.9000 O   0  0  0  0  0  0  0  0  0  0  0  0
    9.3320   32.5760    2.3860 H   0  0  0  0  0  0  0  0  0  0  0  0
   10.5560   33.6470    2.8850 H   0  0  0  0  0  0  0  0  0  0  0  0
   10.5276   29.7109    3.3791 H   0  0  0  0  0  0  0  0  0  0  0  0
    9.7816   30.3178    4.9154 H   0  0  0  0  0  0  0  0  0  0  0  0
    7.9128   31.2177    3.7851 H   0  0  0  0  0  0  0  0  0  0  0  0
    8.7350   31.0439    2.1678 H   0  0  0  0  0  0  0  0  0  0  0  0
    6.9155   29.2825    3.3880 H   0  0  0  0  0  0  0  0  0  0  0  0
    9.2940   27.6520    2.9340 H   0  0  0  0  0  0  0  0  0  0  0  0
   10.1219   26.4213    4.6932 H   0  0  0  0  0  0  0  0  0  0  0  0
    8.9651   26.0223    6.0495 H   0  0  0  0  0  0  0  0  0  0  0  0
    8.3631   25.3270    3.1698 H   0  0  0  0  0  0  0  0  0  0  0  0
    9.3338   24.2485    4.2694 H   0  0  0  0  0  0  0  0  0  0  0  0
    5.9828   25.5155    3.4328 H   0  0  0  0  0  0  0  0  0  0  0  0
    3.8928   24.5951    4.4150 H   0  0  0  0  0  0  0  0  0  0  0  0
    2.0969   24.1333    5.7317 H   0  0  0  0  0  0  0  0  0  0  0  0
   -0.4127   20.6354    7.8409 H   0  0  0  0  0  0  0  0  0  0  0  0
   -2.8840   20.9490    7.9043 H   0  0  0  0  0  0  0  0  0  0  0  0
   -3.8871   23.1240    7.2066 H   0  0  0  0  0  0  0  0  0  0  0  0
   -2.4131   24.9890    6.4488 H   0  0  0  0  0  0  0  0  0  0  0  0
    0.0599   24.6803    6.3872 H   0  0  0  0  0  0  0  0  0  0  0  0
    1.5455   20.6894    8.3418 H   0  0  0  0  0  0  0  0  0  0  0  0
    6.2267   22.3637    7.2859 H   0  0  0  0  0  0  0  0  0  0  0  0
    8.3178   23.2958    6.3116 H   0  0  0  0  0  0  0  0  0  0  0  0
    9.0060   27.1770    1.8510 H   0  0  0  0  0  0  0  0  0  0  0  0
    7.4217   27.2762   -0.5851 H   0  0  0  0  0  0  0  0  0  0  0  0
    9.4080   26.9770   -2.0748 H   0  0  0  0  0  0  0  0  0  0  0  0
    9.1224   28.6380   -1.3622 H   0  0  0  0  0  0  0  0  0  0  0  0
   11.2404   28.6670   -0.7477 H   0  0  0  0  0  0  0  0  0  0  0  0
   10.8286   27.3260    0.4163 H   0  0  0  0  0  0  0  0  0  0  0  0
    8.7580   23.8330   -1.2350 H   0  0  0  0  0  0  0  0  0  0  0  0
    8.8110   25.3330   -2.1110 H   0  0  0  0  0  0  0  0  0  0  0  0
  1  2  1  0
  2  3  2  0
  2  4  1  0
  4  5  1  0
  5  6  1  0
  6  7  1  0
  7  8  1  0
  8  9  2  0
  8 10  1  0
 10 11  1  0
 11 12  1  0
 12 13  2  0
 13 14  1  0
 14 15  2  0
 15 16  1  0
 16 17  2  0
 17 18  1  0
 18 19  1  0
 19 20  2  0
 20 21  1  0
 21 22  2  0
 22 23  1  0
 23 24  2  0
 18 25  2  0
 25 26  1  0
 15 27  1  0
 27 28  2  0
  6 29  1  0
 29 30  2  0
 29 31  1  0
 31 32  1  0
 32 33  1  0
 33 34  1  0
 34 35  1  0
 35 36  2  0
 35 37  1  0
 32 38  1  0
 38 39  1  0
 38 40  2  0
 28 12  1  0
 26 16  1  0
 24 19  1  0
  1 41  1  0
  1 42  1  0
  4 43  1  0
  4 44  1  0
  5 45  1  0
  5 46  1  0
  6 47  1  1
  7 48  1  0
 10 49  1  0
 10 50  1  0
 11 51  1  0
 11 52  1  0
 13 53  1  0
 14 54  1  0
 17 55  1  0
 20 56  1  0
 21 57  1  0
 22 58  1  0
 23 59  1  0
 24 60  1  0
 25 61  1  0
 27 62  1  0
 28 63  1  0
 31 64  1  0
 32 65  1  6
 33 66  1  0
 33 67  1  0
 34 68  1  0
 34 69  1  0
 39 70  1  0
 39 71  1  0
M  CHG  1  37  -1
M  END
>  <meeko>  (6) 
{"is_sidechain": [false], "free_energy": -8.089, "intermolecular_energy": -15.601, "internal_energy": -1.958}

$$$$
3tsk_ligand
     RDKit          3D

 71 73  0  0  0  0  0  0  0  0999 V2000
    7.9370   31.6710   -0.0280 N   0  0  0  0  0  0  0  0  0  0  0  0
    7.8660   30.3910   -0.4910 C   0  0  0  0  0  0  0  0  0  0  0  0
    8.5430   30.0150   -1.4430 O   0  0  0  0  0  0  0  0  0  0  0  0
    6.9590   29.4820    0.3100 C   0  0  0  0  0  0  0  0  0  0  0  0
    7.1190   29.7090    1.8130 C   0  0  0  0  0  0  0  0  0  0  0  0
    8.3080   28.9480    2.4100 C   0  0  2  0  0  0  0  0  0  0  0  0
    7.9660   27.5330    2.5680 N   0  0  0  0  0  0  0  0  0  0  0  0
    8.5810   26.5650    1.8030 C   0  0  0  0  0  0  0  0  0  0  0  0
    9.2370   26.8120    0.7970 O   0  0  0  0  0  0  0  0  0  0  0  0
    8.3830   25.1680    2.3630 C   0  0  0  0  0  0  0  0  0  0  0  0
    8.4950   25.1010    3.8840 C   0  0  0  0  0  0  0  0  0  0  0  0
    7.2580   24.5280    4.5370 C   0  0  0  0  0  0  0  0  0  0  0  0
    5.9830   24.9320    4.1250 C   0  0  0  0  0  0  0  0  0  0  0  0
    4.8390   24.4120    4.7390 C   0  0  0  0  0  0  0  0  0  0  0  0
    4.9440   23.4810    5.7820 C   0  0  0  0  0  0  0  0  0  0  0  0
    3.7560   22.9080    6.4280 C   0  0  0  0  0  0  0  0  0  0  0  0
    2.4300   23.2730    6.2730 C   0  0  0  0  0  0  0  0  0  0  0  0
    1.5270   22.4820    7.0560 C   0  0  0  0  0  0  0  0  0  0  0  0
    0.0740   22.6060    7.1170 C   0  0  0  0  0  0  0  0  0  0  0  0
   -0.7200   21.5550    7.5950 C   0  0  0  0  0  0  0  0  0  0  0  0
   -2.1090   21.6870    7.6550 C   0  0  0  0  0  0  0  0  0  0  0  0
   -2.7170   22.8710    7.2390 C   0  0  0  0  0  0  0  0  0  0  0  0
   -1.9360   23.9240    6.7660 C   0  0  0  0  0  0  0  0  0  0  0  0
   -0.5450   23.7930    6.7070 C   0  0  0  0  0  0  0  0  0  0  0  0
    2.2120   21.5190    7.7700 C   0  0  0  0  0  0  0  0  0  0  0  0
    3.9000   21.5840    7.5090 S   0  0  0  0  0  0  0  0  0  0  0  0
    6.2240   23.0800    6.1910 C   0  0  0  0  0  0  0  0  0  0  0  0
    7.3690   23.6020    5.5800 C   0  0  0  0  0  0  0  0  0  0  0  0
    8.6250   29.4610    3.8360 C   0  0  0  0  0  0  0  0  0  0  0  0
    9.7840   29.6570    4.2050 O   0  0  0  0  0  0  0  0  0  0  0  0
    7.5250   29.5960    4.6450 N   0  0  0  0  0  0  0  0  0  0  0  0
    7.5760   29.9260    6.0680 C   0  0  1  0  0  0  0  0  0  0  0  0
    7.0300   31.3280    6.4040 C   0  0  0  0  0  0  0  0  0  0  0  0
    7.5790   31.9100    7.7080 C   0  0  0  0  0  0  0  0  0  0  0  0
    9.0930   32.1070    7.6810 C   0  0  0  0  0  0  0  0  0  0  0  0
    9.5430   32.5860    6.5990 O   0  0  0  0  0  0  0  0  0  0  0  0
    9.7130   31.7380    8.7160 O   0  0  0  0  0  0  0  0  0  0  0  0
    6.9560   28.8140    6.9460 C   0  0  0  0  0  0  0  0  0  0  0  0
    7.2890   27.5330    6.5870 N   0  0  0  0  0  0  0  0  0  0  0  0
    6.1570   28.9960    7.8610 O   0  0  0  0  0  0  0  0  0  0  0  0
    7.0880   32.0740    0.4150 H   0  0  0  0  0  0  0  0  0  0  0  0
    8.4050   32.3310   -0.6300 H   0  0  0  0  0  0  0  0  0  0  0  0
    5.9146   29.6815    0.0281 H   0  0  0  0  0  0  0  0  0  0  0  0
    7.2338   28.4402    0.0885 H   0  0  0  0  0  0  0  0  0  0  0  0
    7.2658   30.7845    1.9915 H   0  0  0  0  0  0  0  0  0  0  0  0
    6.2083   29.3324    2.3016 H   0  0  0  0  0  0  0  0  0  0  0  0
    9.1614   29.0949    1.7317 H   0  0  0  0  0  0  0  0  0  0  0  0
    7.7470   27.2760    3.5270 H   0  0  0  0  0  0  0  0  0  0  0  0
    7.3830   24.8144    2.0715 H   0  0  0  0  0  0  0  0  0  0  0  0
    9.1846   24.5373    1.9511 H   0  0  0  0  0  0  0  0  0  0  0  0
    9.3559   24.4682    4.1456 H   0  0  0  0  0  0  0  0  0  0  0  0
    8.6183   26.1299    4.2530 H   0  0  0  0  0  0  0  0  0  0  0  0
    5.8797   25.6649    3.3112 H   0  0  0  0  0  0  0  0  0  0  0  0
    3.8446   24.7375    4.3994 H   0  0  0  0  0  0  0  0  0  0  0  0
    2.1015   24.0899    5.6137 H   0  0  0  0  0  0  0  0  0  0  0  0
   -0.2458   20.6191    7.9254 H   0  0  0  0  0  0  0  0  0  0  0  0
   -2.7241   20.8561    8.0308 H   0  0  0  0  0  0  0  0  0  0  0  0
   -3.8113   22.9737    7.2841 H   0  0  0  0  0  0  0  0  0  0  0  0
   -2.4142   24.8590    6.4388 H   0  0  0  0  0  0  0  0  0  0  0  0
    0.0671   24.6283    6.3359 H   0  0  0  0  0  0  0  0  0  0  0  0
    1.7248   20.7898    8.4341 H   0  0  0  0  0  0  0  0  0  0  0  0
    6.3291   22.3453    7.0029 H   0  0  0  0  0  0  0  0  0  0  0  0
    8.3643   23.2820    5.9222 H   0  0  0  0  0  0  0  0  0  0  0  0
    6.6030   29.5550    4.2330 H   0  0  0  0  0  0  0  0  0  0  0  0
    8.6451   29.9739    6.3223 H   0  0  0  0  0  0  0  0  0  0  0  0
    7.2949   32.0092    5.5819 H   0  0  0  0  0  0  0  0  0  0  0  0
    5.9424   31.2251    6.5328 H   0  0  0  0  0  0  0  0  0  0  0  0
    7.1015   32.8849    7.8855 H   0  0  0  0  0  0  0  0  0  0  0  0
    7.3543   31.1915    8.5100 H   0  0  0  0  0  0  0  0  0  0  0  0
    6.7850   26.7930    7.0530 H   0  0  0  0  0  0  0  0  0  0  0  0
    7.6640   27.3530    5.6630 H   0  0  0  0  0  0  0  0  0  0  0  0
  1  2  1  0
  2  3  2  0
  2  4  1  0
  4  5  1  0
  5  6  1  0
  6  7  1  0
  7  8  1  0
  8  9  2  0
  8 10  1  0
 10 11  1  0
 11 12  1  0
 12 13  2  0
 13 14  1  0
 14 15  2  0
 15 16  1  0
 16 17  2  0
 17 18  1  0
 18 19  1  0
 19 20  2  0
 20 21  1  0
 21 22  2  0
 22 23  1  0
 23 24  2  0
 18 25  2  0
 25 26  1  0
 15 27  1  0
 27 28  2  0
  6 29  1  0
 29 30  2  0
 29 31  1  0
 31 32  1  0
 32 33  1  0
 33 34  1  0
 34 35  1  0
 35 36  2  0
 35 37  1  0
 32 38  1  0
 38 39  1  0
 38 40  2  0
 28 12  1  0
 26 16  1  0
 24 19  1  0
  1 41  1  0
  1 42  1  0
  4 43  1  0
  4 44  1  0
  5 45  1  0
  5 46  1  0
  6 47  1  6
  7 48  1  0
 10 49  1  0
 10 50  1  0
 11 51  1  0
 11 52  1  0
 13 53  1  0
 14 54  1  0
 17 55  1  0
 20 56  1  0
 21 57  1  0
 22 58  1  0
 23 59  1  0
 24 60  1  0
 25 61  1  0
 27 62  1  0
 28 63  1  0
 31 64  1  0
 32 65  1  1
 33 66  1  0
 33 67  1  0
 34 68  1  0
 34 69  1  0
 39 70  1  0
 39 71  1  0
M  CHG  1  37  -1
M  END
>  <meeko>  (7) 
{"is_sidechain": [false], "free_energy": -8.088, "intermolecular_energy": -15.605, "internal_energy": -1.951}

$$$$
3tsk_ligand
     RDKit          3D

 71 73  0  0  0  0  0  0  0  0999 V2000
    5.8910   31.2550    8.7270 N   0  0  0  0  0  0  0  0  0  0  0  0
    6.1260   29.9720    8.3350 C   0  0  0  0  0  0  0  0  0  0  0  0
    5.7550   29.0160    9.0100 O   0  0  0  0  0  0  0  0  0  0  0  0
    6.7980   29.8400    6.9850 C   0  0  0  0  0  0  0  0  0  0  0  0
    7.5180   28.4990    6.8420 C   0  0  0  0  0  0  0  0  0  0  0  0
    8.2780   28.3660    5.5170 C   0  0  2  0  0  0  0  0  0  0  0  0
    7.5060   28.9810    4.4350 N   0  0  0  0  0  0  0  0  0  0  0  0
    8.0920   29.8780    3.5690 C   0  0  0  0  0  0  0  0  0  0  0  0
    9.1770   30.4120    3.7750 O   0  0  0  0  0  0  0  0  0  0  0  0
    7.2620   30.1050    2.3180 C   0  0  0  0  0  0  0  0  0  0  0  0
    8.0970   30.4810    1.0950 C   0  0  0  0  0  0  0  0  0  0  0  0
    8.5310   29.2770    0.2910 C   0  0  0  0  0  0  0  0  0  0  0  0
    8.6760   29.3630   -1.0980 C   0  0  0  0  0  0  0  0  0  0  0  0
    9.0640   28.2450   -1.8430 C   0  0  0  0  0  0  0  0  0  0  0  0
    9.3110   27.0160   -1.2180 C   0  0  0  0  0  0  0  0  0  0  0  0
    9.7370   25.8340   -1.9790 C   0  0  0  0  0  0  0  0  0  0  0  0
   10.7260   25.7390   -2.9420 C   0  0  0  0  0  0  0  0  0  0  0  0
   10.8810   24.4160   -3.4710 C   0  0  0  0  0  0  0  0  0  0  0  0
   11.8310   23.9810   -4.4900 C   0  0  0  0  0  0  0  0  0  0  0  0
   11.4320   23.8120   -5.8230 C   0  0  0  0  0  0  0  0  0  0  0  0
   12.3520   23.4010   -6.7910 C   0  0  0  0  0  0  0  0  0  0  0  0
   13.6780   23.1570   -6.4350 C   0  0  0  0  0  0  0  0  0  0  0  0
   14.0850   23.3240   -5.1130 C   0  0  0  0  0  0  0  0  0  0  0  0
   13.1660   23.7370   -4.1440 C   0  0  0  0  0  0  0  0  0  0  0  0
   10.0040   23.5400   -2.8630 C   0  0  0  0  0  0  0  0  0  0  0  0
    9.0130   24.3040   -1.6990 S   0  0  0  0  0  0  0  0  0  0  0  0
    9.1630   26.9350    0.1740 C   0  0  0  0  0  0  0  0  0  0  0  0
    8.7710   28.0510    0.9210 C   0  0  0  0  0  0  0  0  0  0  0  0
    8.4320   26.8770    5.1240 C   0  0  0  0  0  0  0  0  0  0  0  0
    9.5410   26.3710    4.9480 O   0  0  0  0  0  0  0  0  0  0  0  0
    7.2440   26.2200    4.9210 N   0  0  0  0  0  0  0  0  0  0  0  0
    7.1250   24.8570    4.4090 C   0  0  1  0  0  0  0  0  0  0  0  0
    5.7590   24.2000    4.6890 C   0  0  0  0  0  0  0  0  0  0  0  0
    5.7920   23.1540    5.8050 C   0  0  0  0  0  0  0  0  0  0  0  0
    4.3990   22.7120    6.2490 C   0  0  0  0  0  0  0  0  0  0  0  0
    3.4470   23.3460    5.7060 O   0  0  0  0  0  0  0  0  0  0  0  0
    4.3640   21.8010    7.1210 O   0  0  0  0  0  0  0  0  0  0  0  0
    7.5470   24.7540    2.9250 C   0  0  0  0  0  0  0  0  0  0  0  0
    8.8200   24.2920    2.7110 N   0  0  0  0  0  0  0  0  0  0  0  0
    6.8670   25.1150    1.9670 O   0  0  0  0  0  0  0  0  0  0  0  0
    6.5700   31.9850    8.4320 H   0  0  0  0  0  0  0  0  0  0  0  0
    5.5920   31.3760    9.6830 H   0  0  0  0  0  0  0  0  0  0  0  0
    6.0347   29.9208    6.1971 H   0  0  0  0  0  0  0  0  0  0  0  0
    7.5448   30.6424    6.8932 H   0  0  0  0  0  0  0  0  0  0  0  0
    8.2354   28.3962    7.6695 H   0  0  0  0  0  0  0  0  0  0  0  0
    6.7518   27.7100    6.8627 H   0  0  0  0  0  0  0  0  0  0  0  0
    9.2569   28.8489    5.6533 H   0  0  0  0  0  0  0  0  0  0  0  0
    6.8080   28.3610    4.0360 H   0  0  0  0  0  0  0  0  0  0  0  0
    6.7109   29.1801    2.0928 H   0  0  0  0  0  0  0  0  0  0  0  0
    6.5893   30.9506    2.5240 H   0  0  0  0  0  0  0  0  0  0  0  0
    7.4972   31.1382    0.4482 H   0  0  0  0  0  0  0  0  0  0  0  0
    9.0062   30.9841    1.4560 H   0  0  0  0  0  0  0  0  0  0  0  0
    8.4831   30.3182   -1.6083 H   0  0  0  0  0  0  0  0  0  0  0  0
    9.1767   28.3318   -2.9338 H   0  0  0  0  0  0  0  0  0  0  0  0
   11.3339   26.5952   -3.2696 H   0  0  0  0  0  0  0  0  0  0  0  0
   10.3874   24.0043   -6.1090 H   0  0  0  0  0  0  0  0  0  0  0  0
   12.0301   23.2698   -7.8346 H   0  0  0  0  0  0  0  0  0  0  0  0
   14.4020   22.8330   -7.1972 H   0  0  0  0  0  0  0  0  0  0  0  0
   15.1306   23.1306   -4.8315 H   0  0  0  0  0  0  0  0  0  0  0  0
   13.4936   23.8713   -3.1025 H   0  0  0  0  0  0  0  0  0  0  0  0
    9.9491   22.4676   -3.1017 H   0  0  0  0  0  0  0  0  0  0  0  0
    9.3578   25.9809    0.6856 H   0  0  0  0  0  0  0  0  0  0  0  0
    8.6507   27.9640    2.0109 H   0  0  0  0  0  0  0  0  0  0  0  0
    6.3830   26.6570    5.2210 H   0  0  0  0  0  0  0  0  0  0  0  0
    7.8454   24.2607    4.9882 H   0  0  0  0  0  0  0  0  0  0  0  0
    5.0472   24.9887    4.9743 H   0  0  0  0  0  0  0  0  0  0  0  0
    5.4617   23.6760    3.7686 H   0  0  0  0  0  0  0  0  0  0  0  0
    6.3409   22.2722    5.4430 H   0  0  0  0  0  0  0  0  0  0  0  0
    6.2839   23.6151    6.6742 H   0  0  0  0  0  0  0  0  0  0  0  0
    9.1650   24.3530    1.7640 H   0  0  0  0  0  0  0  0  0  0  0  0
    9.4930   24.3050    3.4690 H   0  0  0  0  0  0  0  0  0  0  0  0
  1  2  1  0
  2  3  2  0
  2  4  1  0
  4  5  1  0
  5  6  1  0
  6  7  1  0
  7  8  1  0
  8  9  2  0
  8 10  1  0
 10 11  1  0
 11 12  1  0
 12 13  2  0
 13 14  1  0
 14 15  2  0
 15 16  1  0
 16 17  2  0
 17 18  1  0
 18 19  1  0
 19 20  2  0
 20 21  1  0
 21 22  2  0
 22 23  1  0
 23 24  2  0
 18 25  2  0
 25 26  1  0
 15 27  1  0
 27 28  2  0
  6 29  1  0
 29 30  2  0
 29 31  1  0
 31 32  1  0
 32 33  1  0
 33 34  1  0
 34 35  1  0
 35 36  2  0
 35 37  1  0
 32 38  1  0
 38 39  1  0
 38 40  2  0
 28 12  1  0
 26 16  1  0
 24 19  1  0
  1 41  1  0
  1 42  1  0
  4 43  1  0
  4 44  1  0
  5 45  1  0
  5 46  1  0
  6 47  1  1
  7 48  1  0
 10 49  1  0
 10 50  1  0
 11 51  1  0
 11 52  1  0
 13 53  1  0
 14 54  1  0
 17 55  1  0
 20 56  1  0
 21 57  1  0
 22 58  1  0
 23 59  1  0
 24 60  1  0
 25 61  1  0
 27 62  1  0
 28 63  1  0
 31 64  1  0
 32 65  1  1
 33 66  1  0
 33 67  1  0
 34 68  1  0
 34 69  1  0
 39 70  1  0
 39 71  1  0
M  CHG  1  37  -1
M  END
>  <meeko>  (8) 
{"is_sidechain": [false], "free_energy": -7.985, "intermolecular_energy": -15.472, "internal_energy": -1.893}

$$$$
