1c5z_ligand
     RDKit          3D

 18 18  0  0  0  0  0  0  0  0999 V2000
    8.3410   -0.4470   26.7910 N   0  0  0  0  0  0  0  0  0  0  0  0
    8.3920   -0.2650   25.4890 C   0  0  0  0  0  0  0  0  0  0  0  0
    8.0680   -1.2230   24.6480 N   0  0  0  0  0  0  0  0  0  0  0  0
    8.8220    1.0360   24.9640 C   0  0  0  0  0  0  0  0  0  0  0  0
    8.7970    2.1790   25.7790 C   0  0  0  0  0  0  0  0  0  0  0  0
    9.2070    3.4160   25.2780 C   0  0  0  0  0  0  0  0  0  0  0  0
    9.6460    3.5230   23.9610 C   0  0  0  0  0  0  0  0  0  0  0  0
    9.6760    2.3980   23.1410 C   0  0  0  0  0  0  0  0  0  0  0  0
    9.2680    1.1590   23.6380 C   0  0  0  0  0  0  0  0  0  0  0  0
    8.5680    0.3210   27.4150 H   0  0  0  0  0  0  0  0  0  0  0  0
    8.0530   -1.3200   27.2100 H   0  0  0  0  0  0  0  0  0  0  0  0
    8.1410   -1.0600   23.6480 H   0  0  0  0  0  0  0  0  0  0  0  0
    7.7670   -2.1380   24.9510 H   0  0  0  0  0  0  0  0  0  0  0  0
    8.4517    2.0993   26.8203 H   0  0  0  0  0  0  0  0  0  0  0  0
    9.1832    4.3062   25.9238 H   0  0  0  0  0  0  0  0  0  0  0  0
    9.9697    4.4979   23.5676 H   0  0  0  0  0  0  0  0  0  0  0  0
   10.0216    2.4857   22.1004 H   0  0  0  0  0  0  0  0  0  0  0  0
    9.2960    0.2730   22.9867 H   0  0  0  0  0  0  0  0  0  0  0  0
  1  2  1  0
  2  3  2  0
  2  4  1  0
  4  5  2  0
  5  6  1  0
  6  7  2  0
  7  8  1  0
  8  9  2  0
  9  4  1  0
  1 10  1  0
  1 11  1  0
  3 12  1  0
  3 13  1  0
  5 14  1  0
  6 15  1  0
  7 16  1  0
  8 17  1  0
  9 18  1  0
M  CHG  1   3   1
M  END
>  <meeko>  (1) 
{"is_sidechain": [false], "free_energy": -5.882, "intermolecular_energy": -6.226, "internal_energy": -0.035}

$$$$
1c5z_ligand
     RDKit          3D

 18 18  0  0  0  0  0  0  0  0999 V2000
    8.4200   -0.4710   26.8140 N   0  0  0  0  0  0  0  0  0  0  0  0
    8.4380   -0.2860   25.5120 C   0  0  0  0  0  0  0  0  0  0  0  0
    8.0840   -1.2390   24.6780 N   0  0  0  0  0  0  0  0  0  0  0  0
    8.8630    1.0140   24.9780 C   0  0  0  0  0  0  0  0  0  0  0  0
    9.2790    1.1360   23.6430 C   0  0  0  0  0  0  0  0  0  0  0  0
    9.6820    2.3730   23.1370 C   0  0  0  0  0  0  0  0  0  0  0  0
    9.6740    3.4980   23.9580 C   0  0  0  0  0  0  0  0  0  0  0  0
    9.2640    3.3910   25.2850 C   0  0  0  0  0  0  0  0  0  0  0  0
    8.8580    2.1570   25.7940 C   0  0  0  0  0  0  0  0  0  0  0  0
    8.6700    0.2940   27.4340 H   0  0  0  0  0  0  0  0  0  0  0  0
    8.1380   -1.3430   27.2390 H   0  0  0  0  0  0  0  0  0  0  0  0
    8.1320   -1.0750   23.6770 H   0  0  0  0  0  0  0  0  0  0  0  0
    7.7850   -2.1530   24.9870 H   0  0  0  0  0  0  0  0  0  0  0  0
    9.2875    0.2503   22.9907 H   0  0  0  0  0  0  0  0  0  0  0  0
   10.0060    2.4593   22.0894 H   0  0  0  0  0  0  0  0  0  0  0  0
    9.9918    4.4722   23.5581 H   0  0  0  0  0  0  0  0  0  0  0  0
    9.2603    4.2804   25.9323 H   0  0  0  0  0  0  0  0  0  0  0  0
    8.5318    2.0788   26.8416 H   0  0  0  0  0  0  0  0  0  0  0  0
  1  2  1  0
  2  3  2  0
  2  4  1  0
  4  5  2  0
  5  6  1  0
  6  7  2  0
  7  8  1  0
  8  9  2  0
  9  4  1  0
  1 10  1  0
  1 11  1  0
  3 12  1  0
  3 13  1  0
  5 14  1  0
  6 15  1  0
  7 16  1  0
  8 17  1  0
  9 18  1  0
M  CHG  1   3   1
M  END
>  <meeko>  (2) 
{"is_sidechain": [false], "free_energy": -5.867, "intermolecular_energy": -6.21, "internal_energy": -0.035}

$$$$
1c5z_ligand
     RDKit          3D

 18 18  0  0  0  0  0  0  0  0999 V2000
   11.2500    2.9260   23.1520 N   0  0  0  0  0  0  0  0  0  0  0  0
    9.9550    2.9710   23.3720 C   0  0  0  0  0  0  0  0  0  0  0  0
    9.2070    3.9350   22.8810 N   0  0  0  0  0  0  0  0  0  0  0  0
    9.3300    1.9220   24.1880 C   0  0  0  0  0  0  0  0  0  0  0  0
    8.8390    2.2130   25.4700 C   0  0  0  0  0  0  0  0  0  0  0  0
    8.2430    1.2150   26.2440 C   0  0  0  0  0  0  0  0  0  0  0  0
    8.1340   -0.0810   25.7450 C   0  0  0  0  0  0  0  0  0  0  0  0
    8.6180   -0.3830   24.4750 C   0  0  0  0  0  0  0  0  0  0  0  0
    9.2120    0.6120   23.6970 C   0  0  0  0  0  0  0  0  0  0  0  0
   11.7970    2.1530   23.5200 H   0  0  0  0  0  0  0  0  0  0  0  0
   11.7350    3.6190   22.5990 H   0  0  0  0  0  0  0  0  0  0  0  0
    8.2130    3.9560   23.0890 H   0  0  0  0  0  0  0  0  0  0  0  0
    9.5820    4.6830   22.3150 H   0  0  0  0  0  0  0  0  0  0  0  0
    8.9242    3.2348   25.8682 H   0  0  0  0  0  0  0  0  0  0  0  0
    7.8597    1.4522   27.2474 H   0  0  0  0  0  0  0  0  0  0  0  0
    7.6649   -0.8669   26.3552 H   0  0  0  0  0  0  0  0  0  0  0  0
    8.5321   -1.4076   24.0840 H   0  0  0  0  0  0  0  0  0  0  0  0
    9.5900    0.3683   22.6931 H   0  0  0  0  0  0  0  0  0  0  0  0
  1  2  1  0
  2  3  2  0
  2  4  1  0
  4  5  2  0
  5  6  1  0
  6  7  2  0
  7  8  1  0
  8  9  2  0
  9  4  1  0
  1 10  1  0
  1 11  1  0
  3 12  1  0
  3 13  1  0
  5 14  1  0
  6 15  1  0
  7 16  1  0
  8 17  1  0
  9 18  1  0
M  CHG  1   3   1
M  END
>  <meeko>  (3) 
{"is_sidechain": [false], "free_energy": -5.055, "intermolecular_energy": -5.364, "internal_energy": -0.022}

$$$$
1c5z_ligand
     RDKit          3D

 18 18  0  0  0  0  0  0  0  0999 V2000
   11.2610    2.9090   23.1430 N   0  0  0  0  0  0  0  0  0  0  0  0
    9.9670    2.9620   23.3730 C   0  0  0  0  0  0  0  0  0  0  0  0
    9.2210    3.9270   22.8800 N   0  0  0  0  0  0  0  0  0  0  0  0
    9.3430    1.9230   24.1990 C   0  0  0  0  0  0  0  0  0  0  0  0
    9.1990    0.6130   23.7130 C   0  0  0  0  0  0  0  0  0  0  0  0
    8.6070   -0.3740   24.5010 C   0  0  0  0  0  0  0  0  0  0  0  0
    8.1510   -0.0650   25.7800 C   0  0  0  0  0  0  0  0  0  0  0  0
    8.2860    1.2300   26.2750 C   0  0  0  0  0  0  0  0  0  0  0  0
    8.8800    2.2200   25.4920 C   0  0  0  0  0  0  0  0  0  0  0  0
   11.8050    2.1360   23.5120 H   0  0  0  0  0  0  0  0  0  0  0  0
   11.7450    3.5960   22.5820 H   0  0  0  0  0  0  0  0  0  0  0  0
    8.2280    3.9550   23.0960 H   0  0  0  0  0  0  0  0  0  0  0  0
    9.5950    4.6690   22.3070 H   0  0  0  0  0  0  0  0  0  0  0  0
    9.5560    0.3635   22.7029 H   0  0  0  0  0  0  0  0  0  0  0  0
    8.5002   -1.3973   24.1118 H   0  0  0  0  0  0  0  0  0  0  0  0
    7.6838   -0.8443   26.4000 H   0  0  0  0  0  0  0  0  0  0  0  0
    7.9236    1.4724   27.2849 H   0  0  0  0  0  0  0  0  0  0  0  0
    8.9867    3.2401   25.8895 H   0  0  0  0  0  0  0  0  0  0  0  0
  1  2  1  0
  2  3  2  0
  2  4  1  0
  4  5  2  0
  5  6  1  0
  6  7  2  0
  7  8  1  0
  8  9  2  0
  9  4  1  0
  1 10  1  0
  1 11  1  0
  3 12  1  0
  3 13  1  0
  5 14  1  0
  6 15  1  0
  7 16  1  0
  8 17  1  0
  9 18  1  0
M  CHG  1   3   1
M  END
>  <meeko>  (4) 
{"is_sidechain": [false], "free_energy": -5.049, "intermolecular_energy": -5.357, "internal_energy": -0.022}

$$$$
1c5z_ligand
     RDKit          3D

 18 18  0  0  0  0  0  0  0  0999 V2000
    8.0780    3.6210   27.6360 N   0  0  0  0  0  0  0  0  0  0  0  0
    7.9480    3.7160   26.3310 C   0  0  0  0  0  0  0  0  0  0  0  0
    7.3360    4.7370   25.7730 N   0  0  0  0  0  0  0  0  0  0  0  0
    8.4990    2.6560   25.4780 C   0  0  0  0  0  0  0  0  0  0  0  0
    9.2540    2.9760   24.3380 C   0  0  0  0  0  0  0  0  0  0  0  0
    9.7770    1.9660   23.5290 C   0  0  0  0  0  0  0  0  0  0  0  0
    9.5520    0.6290   23.8480 C   0  0  0  0  0  0  0  0  0  0  0  0
    8.8030    0.2980   24.9750 C   0  0  0  0  0  0  0  0  0  0  0  0
    8.2800    1.3040   25.7880 C   0  0  0  0  0  0  0  0  0  0  0  0
    8.5810    2.8350   28.0360 H   0  0  0  0  0  0  0  0  0  0  0  0
    7.7190    4.3190   28.2730 H   0  0  0  0  0  0  0  0  0  0  0  0
    7.2300    4.7700   24.7630 H   0  0  0  0  0  0  0  0  0  0  0  0
    6.9360    5.4940   26.3090 H   0  0  0  0  0  0  0  0  0  0  0  0
    9.4345    4.0302   24.0808 H   0  0  0  0  0  0  0  0  0  0  0  0
   10.3677    2.2263   22.6383 H   0  0  0  0  0  0  0  0  0  0  0  0
    9.9658   -0.1657   23.2099 H   0  0  0  0  0  0  0  0  0  0  0  0
    8.6236   -0.7583   25.2243 H   0  0  0  0  0  0  0  0  0  0  0  0
    7.6919    1.0362   26.6782 H   0  0  0  0  0  0  0  0  0  0  0  0
  1  2  1  0
  2  3  2  0
  2  4  1  0
  4  5  2  0
  5  6  1  0
  6  7  2  0
  7  8  1  0
  8  9  2  0
  9  4  1  0
  1 10  1  0
  1 11  1  0
  3 12  1  0
  3 13  1  0
  5 14  1  0
  6 15  1  0
  7 16  1  0
  8 17  1  0
  9 18  1  0
M  CHG  1   3   1
M  END
>  <meeko>  (5) 
{"is_sidechain": [false], "free_energy": -4.68, "intermolecular_energy": -4.96, "internal_energy": -0.028}

$$$$
1c5z_ligand
     RDKit          3D

 18 18  0  0  0  0  0  0  0  0999 V2000
    8.1390    0.9700   26.6960 N   0  0  0  0  0  0  0  0  0  0  0  0
    8.6960    0.9880   25.5040 C   0  0  0  0  0  0  0  0  0  0  0  0
    8.9620   -0.1240   24.8540 N   0  0  0  0  0  0  0  0  0  0  0  0
    9.0300    2.2770   24.8880 C   0  0  0  0  0  0  0  0  0  0  0  0
    8.3240    3.4390   25.2370 C   0  0  0  0  0  0  0  0  0  0  0  0
    8.6440    4.6650   24.6510 C   0  0  0  0  0  0  0  0  0  0  0  0
    9.6700    4.7420   23.7120 C   0  0  0  0  0  0  0  0  0  0  0  0
   10.3780    3.5970   23.3560 C   0  0  0  0  0  0  0  0  0  0  0  0
   10.0630    2.3700   23.9410 C   0  0  0  0  0  0  0  0  0  0  0  0
    7.9190    1.8450   27.1600 H   0  0  0  0  0  0  0  0  0  0  0  0
    7.8880    0.1140   27.1690 H   0  0  0  0  0  0  0  0  0  0  0  0
    9.4150   -0.0790   23.9460 H   0  0  0  0  0  0  0  0  0  0  0  0
    8.7570   -1.0400   25.2280 H   0  0  0  0  0  0  0  0  0  0  0  0
    7.5127    3.3831   25.9777 H   0  0  0  0  0  0  0  0  0  0  0  0
    8.0857    5.5705   24.9309 H   0  0  0  0  0  0  0  0  0  0  0  0
    9.9213    5.7086   23.2511 H   0  0  0  0  0  0  0  0  0  0  0  0
   11.1865    3.6599   22.6128 H   0  0  0  0  0  0  0  0  0  0  0  0
   10.6277    1.4693   23.6585 H   0  0  0  0  0  0  0  0  0  0  0  0
  1  2  1  0
  2  3  2  0
  2  4  1  0
  4  5  2  0
  5  6  1  0
  6  7  2  0
  7  8  1  0
  8  9  2  0
  9  4  1  0
  1 10  1  0
  1 11  1  0
  3 12  1  0
  3 13  1  0
  5 14  1  0
  6 15  1  0
  7 16  1  0
  8 17  1  0
  9 18  1  0
M  CHG  1   3   1
M  END
>  <meeko>  (6) 
{"is_sidechain": [false], "free_energy": -4.171, "intermolecular_energy": -4.416, "internal_energy": -0.033}

$$$$
1c5z_ligand
     RDKit          3D

 18 18  0  0  0  0  0  0  0  0999 V2000
    8.4020    0.3380   26.6150 N   0  0  0  0  0  0  0  0  0  0  0  0
    8.4110    1.6060   26.2630 C   0  0  0  0  0  0  0  0  0  0  0  0
    7.9020    2.5380   27.0390 N   0  0  0  0  0  0  0  0  0  0  0  0
    9.0010    1.9880   24.9750 C   0  0  0  0  0  0  0  0  0  0  0  0
    9.0180    1.0840   23.9010 C   0  0  0  0  0  0  0  0  0  0  0  0
    9.5780    1.4490   22.6760 C   0  0  0  0  0  0  0  0  0  0  0  0
   10.1270    2.7190   22.5120 C   0  0  0  0  0  0  0  0  0  0  0  0
   10.1190    3.6250   23.5690 C   0  0  0  0  0  0  0  0  0  0  0  0
    9.5570    3.2640   24.7950 C   0  0  0  0  0  0  0  0  0  0  0  0
    8.8290   -0.3550   26.0080 H   0  0  0  0  0  0  0  0  0  0  0  0
    8.0100    0.0160   27.4880 H   0  0  0  0  0  0  0  0  0  0  0  0
    7.9020    3.5050   26.7300 H   0  0  0  0  0  0  0  0  0  0  0  0
    7.4820    2.3340   27.9350 H   0  0  0  0  0  0  0  0  0  0  0  0
    8.5864    0.0800   24.0261 H   0  0  0  0  0  0  0  0  0  0  0  0
    9.5860    0.7341   21.8400 H   0  0  0  0  0  0  0  0  0  0  0  0
   10.5675    3.0063   21.5458 H   0  0  0  0  0  0  0  0  0  0  0  0
   10.5558    4.6260   23.4381 H   0  0  0  0  0  0  0  0  0  0  0  0
    9.5499    3.9849   25.6258 H   0  0  0  0  0  0  0  0  0  0  0  0
  1  2  1  0
  2  3  2  0
  2  4  1  0
  4  5  2  0
  5  6  1  0
  6  7  2  0
  7  8  1  0
  8  9  2  0
  9  4  1  0
  1 10  1  0
  1 11  1  0
  3 12  1  0
  3 13  1  0
  5 14  1  0
  6 15  1  0
  7 16  1  0
  8 17  1  0
  9 18  1  0
M  CHG  1   3   1
M  END
>  <meeko>  (7) 
{"is_sidechain": [false], "free_energy": -4.064, "intermolecular_energy": -4.304, "internal_energy": -0.033}

$$$$
1c5z_ligand
     RDKit          3D

 18 18  0  0  0  0  0  0  0  0999 V2000
    8.8970    0.6790   23.2300 N   0  0  0  0  0  0  0  0  0  0  0  0
    9.2390    1.9480   23.2740 C   0  0  0  0  0  0  0  0  0  0  0  0
    9.9450    2.5020   22.3120 N   0  0  0  0  0  0  0  0  0  0  0  0
    8.8240    2.7630   24.4210 C   0  0  0  0  0  0  0  0  0  0  0  0
    9.0970    2.3410   25.7320 C   0  0  0  0  0  0  0  0  0  0  0  0
    8.7030    3.1190   26.8230 C   0  0  0  0  0  0  0  0  0  0  0  0
    8.0330    4.3220   26.6150 C   0  0  0  0  0  0  0  0  0  0  0  0
    7.7550    4.7520   25.3200 C   0  0  0  0  0  0  0  0  0  0  0  0
    8.1500    3.9790   24.2270 C   0  0  0  0  0  0  0  0  0  0  0  0
    8.3260    0.2860   23.9730 H   0  0  0  0  0  0  0  0  0  0  0  0
    9.1540    0.0690   22.4670 H   0  0  0  0  0  0  0  0  0  0  0  0
   10.2150    3.4790   22.3860 H   0  0  0  0  0  0  0  0  0  0  0  0
   10.2600    1.9910   21.5000 H   0  0  0  0  0  0  0  0  0  0  0  0
    9.6249    1.3909   25.9011 H   0  0  0  0  0  0  0  0  0  0  0  0
    8.9220    2.7814   27.8468 H   0  0  0  0  0  0  0  0  0  0  0  0
    7.7229    4.9336   27.4751 H   0  0  0  0  0  0  0  0  0  0  0  0
    7.2237    5.7015   25.1583 H   0  0  0  0  0  0  0  0  0  0  0  0
    7.9315    4.3252   23.2060 H   0  0  0  0  0  0  0  0  0  0  0  0
  1  2  1  0
  2  3  2  0
  2  4  1  0
  4  5  2  0
  5  6  1  0
  6  7  2  0
  7  8  1  0
  8  9  2  0
  9  4  1  0
  1 10  1  0
  1 11  1  0
  3 12  1  0
  3 13  1  0
  5 14  1  0
  6 15  1  0
  7 16  1  0
  8 17  1  0
  9 18  1  0
M  CHG  1   3   1
M  END
>  <meeko>  (8) 
{"is_sidechain": [false], "free_energy": -3.829, "intermolecular_energy": -4.062, "internal_energy": -0.026}

$$$$
