4gr0_ligand
     RDKit          3D

 74 77  0  0  0  0  0  0  0  0999 V2000
   -9.3170   23.0410    3.8920 C   0  0  0  0  0  0  0  0  0  0  0  0
  -10.4010   23.6180    2.9830 C   0  0  2  0  0  0  0  0  0  0  0  0
   -9.9060   24.7910    2.2660 N   0  0  0  0  0  0  0  0  0  0  0  0
   -9.4540   24.7030    0.9640 C   0  0  0  0  0  0  0  0  0  0  0  0
   -9.3400   23.6200    0.3840 O   0  0  0  0  0  0  0  0  0  0  0  0
   -8.9030   26.0040    0.3350 C   0  0  2  0  0  0  0  0  0  0  0  0
   -9.4530   27.1940    1.1160 C   0  0  0  0  0  0  0  0  0  0  0  0
   -9.2110   26.1570   -1.0770 N   0  0  0  0  0  0  0  0  0  0  0  0
   -8.2750   26.1130   -2.0690 C   0  0  0  0  0  0  0  0  0  0  0  0
   -7.0840   25.8910   -1.8590 O   0  0  0  0  0  0  0  0  0  0  0  0
   -8.7960   26.3720   -3.4790 C   0  0  2  0  0  0  0  0  0  0  0  0
   -9.2600   25.0740   -4.1520 C   0  0  0  0  0  0  0  0  0  0  0  0
   -8.1140   24.2410   -4.6120 C   0  0  0  0  0  0  0  0  0  0  0  0
   -6.8470   24.5250   -5.0560 C   0  0  0  0  0  0  0  0  0  0  0  0
   -6.2610   23.2600   -5.3330 C   0  0  0  0  0  0  0  0  0  0  0  0
   -4.9150   22.9690   -5.8380 C   0  0  0  0  0  0  0  0  0  0  0  0
   -3.7950   23.6240   -5.3050 C   0  0  0  0  0  0  0  0  0  0  0  0
   -2.5070   23.3550   -5.7820 C   0  0  0  0  0  0  0  0  0  0  0  0
   -2.2950   22.4210   -6.8070 C   0  0  0  0  0  0  0  0  0  0  0  0
   -0.9410   22.1400   -7.3130 C   0  0  0  0  0  0  0  0  0  0  0  0
   -0.6840   20.9990   -8.0940 C   0  0  0  0  0  0  0  0  0  0  0  0
    0.5990   20.7270   -8.5760 C   0  0  0  0  0  0  0  0  0  0  0  0
    1.6490   21.5930   -8.2840 C   0  0  0  0  0  0  0  0  0  0  0  0
    1.4120   22.7280   -7.5130 C   0  0  0  0  0  0  0  0  0  0  0  0
    2.7090   23.8000   -7.1540 Cl  0  0  0  0  0  0  0  0  0  0  0  0
    0.1310   23.0030   -7.0300 C   0  0  0  0  0  0  0  0  0  0  0  0
   -3.4170   21.7650   -7.3370 C   0  0  0  0  0  0  0  0  0  0  0  0
   -4.7070   22.0350   -6.8600 C   0  0  0  0  0  0  0  0  0  0  0  0
   -7.1390   22.2790   -5.0600 N   0  0  0  0  0  0  0  0  0  0  0  0
   -8.2910   22.8960   -4.6140 O   0  0  0  0  0  0  0  0  0  0  0  0
   -7.7820   27.1680   -4.3110 C   0  0  0  0  0  0  0  0  0  0  0  0
   -8.0780   28.9780   -4.4650 P   0  0  2  0  0  5  0  0  0  0  0  0
   -7.0840   29.6380   -3.5380 O   0  0  0  0  0  0  0  0  0  0  0  0
   -9.5620   29.2120   -4.2020 O   0  0  0  0  0  0  0  0  0  0  0  0
   -7.6820   29.3120   -6.1880 C   0  0  0  0  0  0  0  0  0  0  0  0
   -7.5960   30.6310   -6.6490 C   0  0  0  0  0  0  0  0  0  0  0  0
   -7.2820   30.8970   -7.9830 C   0  0  0  0  0  0  0  0  0  0  0  0
   -7.0560   29.8370   -8.8600 C   0  0  0  0  0  0  0  0  0  0  0  0
   -6.6310   30.1930  -10.6690 Br  0  0  0  0  0  0  0  0  0  0  0  0
   -7.1440   28.5180   -8.4180 C   0  0  0  0  0  0  0  0  0  0  0  0
   -7.4570   28.2580   -7.0830 C   0  0  0  0  0  0  0  0  0  0  0  0
  -11.6830   23.8870    3.8100 C   0  0  0  0  0  0  0  0  0  0  0  0
  -12.3850   22.7910    4.2230 N   0  0  0  0  0  0  0  0  0  0  0  0
  -11.9930   24.9990    4.2390 O   0  0  0  0  0  0  0  0  0  0  0  0
   -9.6015   23.1924    4.9437 H   0  0  0  0  0  0  0  0  0  0  0  0
   -9.2065   21.9647    3.6934 H   0  0  0  0  0  0  0  0  0  0  0  0
   -8.3625   23.5504    3.6934 H   0  0  0  0  0  0  0  0  0  0  0  0
  -10.6700   22.8882    2.2052 H   0  0  0  0  0  0  0  0  0  0  0  0
  -10.2420   25.7040    2.5820 H   0  0  0  0  0  0  0  0  0  0  0  0
   -7.8060   25.9522    0.3977 H   0  0  0  0  0  0  0  0  0  0  0  0
   -9.3625   26.9981    2.1946 H   0  0  0  0  0  0  0  0  0  0  0  0
   -8.8812   28.0977    0.8582 H   0  0  0  0  0  0  0  0  0  0  0  0
  -10.5118   27.3440    0.8582 H   0  0  0  0  0  0  0  0  0  0  0  0
  -10.1950   26.2160   -1.3640 H   0  0  0  0  0  0  0  0  0  0  0  0
   -9.6909   27.0076   -3.4066 H   0  0  0  0  0  0  0  0  0  0  0  0
   -9.8538   24.4932   -3.4309 H   0  0  0  0  0  0  0  0  0  0  0  0
   -9.8578   25.3449   -5.0347 H   0  0  0  0  0  0  0  0  0  0  0  0
   -6.3851   25.5165   -5.1723 H   0  0  0  0  0  0  0  0  0  0  0  0
   -3.9311   24.3606   -4.4995 H   0  0  0  0  0  0  0  0  0  0  0  0
   -1.6470   23.8845   -5.3461 H   0  0  0  0  0  0  0  0  0  0  0  0
   -1.5074   20.3087   -8.3295 H   0  0  0  0  0  0  0  0  0  0  0  0
    0.7791   19.8293   -9.1857 H   0  0  0  0  0  0  0  0  0  0  0  0
    2.6608   21.3818   -8.6604 H   0  0  0  0  0  0  0  0  0  0  0  0
   -0.0404   23.9037   -6.4223 H   0  0  0  0  0  0  0  0  0  0  0  0
   -3.2816   21.0262   -8.1406 H   0  0  0  0  0  0  0  0  0  0  0  0
   -5.5678   21.5058   -7.2946 H   0  0  0  0  0  0  0  0  0  0  0  0
   -6.7923   27.0301   -3.8512 H   0  0  0  0  0  0  0  0  0  0  0  0
   -7.8730   26.7723   -5.3333 H   0  0  0  0  0  0  0  0  0  0  0  0
   -7.7773   31.4646   -5.9545 H   0  0  0  0  0  0  0  0  0  0  0  0
   -7.2134   31.9353   -8.3396 H   0  0  0  0  0  0  0  0  0  0  0  0
   -6.9678   27.6872   -9.1171 H   0  0  0  0  0  0  0  0  0  0  0  0
   -7.5275   27.2182   -6.7311 H   0  0  0  0  0  0  0  0  0  0  0  0
  -13.2740   22.9720    4.6670 H   0  0  0  0  0  0  0  0  0  0  0  0
  -12.3910   21.9350    3.6500 H   0  0  0  0  0  0  0  0  0  0  0  0
  1  2  1  0
  2  3  1  0
  3  4  1  0
  4  5  2  0
  4  6  1  0
  6  7  1  0
  6  8  1  0
  8  9  1  0
  9 10  2  0
  9 11  1  0
 11 12  1  0
 12 13  1  0
 13 14  2  0
 14 15  1  0
 15 16  1  0
 16 17  2  0
 17 18  1  0
 18 19  2  0
 19 20  1  0
 20 21  2  0
 21 22  1  0
 22 23  2  0
 23 24  1  0
 24 25  1  0
 24 26  2  0
 19 27  1  0
 27 28  2  0
 15 29  2  0
 29 30  1  0
 11 31  1  0
 31 32  1  0
 32 33  2  0
 32 34  1  1
 32 35  1  0
 35 36  2  0
 36 37  1  0
 37 38  2  0
 38 39  1  0
 38 40  1  0
 40 41  2  0
  2 42  1  0
 42 43  1  0
 42 44  2  0
 30 13  1  0
 41 35  1  0
 28 16  1  0
 26 20  1  0
  1 45  1  0
  1 46  1  0
  1 47  1  0
  2 48  1  6
  3 49  1  0
  6 50  1  6
  7 51  1  0
  7 52  1  0
  7 53  1  0
  8 54  1  0
 11 55  1  1
 12 56  1  0
 12 57  1  0
 14 58  1  0
 17 59  1  0
 18 60  1  0
 21 61  1  0
 22 62  1  0
 23 63  1  0
 26 64  1  0
 27 65  1  0
 28 66  1  0
 31 67  1  0
 31 68  1  0
 36 69  1  0
 37 70  1  0
 40 71  1  0
 41 72  1  0
 43 73  1  0
 43 74  1  0
M  CHG  1  34  -1
M  END
>  <meeko>  (1) 
{"is_sidechain": [false], "free_energy": -11.626, "intermolecular_energy": -19.782, "internal_energy": -1.216}

$$$$
4gr0_ligand
     RDKit          3D

 74 77  0  0  0  0  0  0  0  0999 V2000
   -6.7690   28.9930   -8.2630 C   0  0  0  0  0  0  0  0  0  0  0  0
   -7.8170   30.0970   -8.1180 C   0  0  2  0  0  0  0  0  0  0  0  0
   -8.6650   29.8570   -6.9530 N   0  0  0  0  0  0  0  0  0  0  0  0
   -8.3390   30.3560   -5.7080 C   0  0  0  0  0  0  0  0  0  0  0  0
   -7.2670   30.9280   -5.4930 O   0  0  0  0  0  0  0  0  0  0  0  0
   -9.2890   29.9850   -4.5450 C   0  0  2  0  0  0  0  0  0  0  0  0
   -9.3020   31.1330   -3.5400 C   0  0  0  0  0  0  0  0  0  0  0  0
   -8.9460   28.7430   -3.8720 N   0  0  0  0  0  0  0  0  0  0  0  0
   -8.8920   27.5310   -4.4930 C   0  0  0  0  0  0  0  0  0  0  0  0
   -9.0830   27.3840   -5.7000 O   0  0  0  0  0  0  0  0  0  0  0  0
   -8.5870   26.3400   -3.5900 C   0  0  2  0  0  0  0  0  0  0  0  0
   -9.0550   25.0230   -4.2210 C   0  0  0  0  0  0  0  0  0  0  0  0
   -7.9140   24.1970   -4.7050 C   0  0  0  0  0  0  0  0  0  0  0  0
   -6.6270   24.4800   -5.0880 C   0  0  0  0  0  0  0  0  0  0  0  0
   -6.0610   23.2250   -5.4390 C   0  0  0  0  0  0  0  0  0  0  0  0
   -4.7070   22.9370   -5.9220 C   0  0  0  0  0  0  0  0  0  0  0  0
   -4.4980   22.0160   -6.9590 C   0  0  0  0  0  0  0  0  0  0  0  0
   -3.2090   21.7330   -7.4250 C   0  0  0  0  0  0  0  0  0  0  0  0
   -2.0850   22.3620   -6.8710 C   0  0  0  0  0  0  0  0  0  0  0  0
   -0.7280   22.0620   -7.3570 C   0  0  0  0  0  0  0  0  0  0  0  0
   -0.4680   20.8960   -8.1000 C   0  0  0  0  0  0  0  0  0  0  0  0
    0.8180   20.6050   -8.5630 C   0  0  0  0  0  0  0  0  0  0  0  0
    1.8690   21.4770   -8.2900 C   0  0  0  0  0  0  0  0  0  0  0  0
    1.6280   22.6360   -7.5570 C   0  0  0  0  0  0  0  0  0  0  0  0
    2.9260   23.7150   -7.2200 Cl  0  0  0  0  0  0  0  0  0  0  0  0
    0.3450   22.9300   -7.0930 C   0  0  0  0  0  0  0  0  0  0  0  0
   -2.2960   23.2850   -5.8340 C   0  0  0  0  0  0  0  0  0  0  0  0
   -3.5860   23.5680   -5.3670 C   0  0  0  0  0  0  0  0  0  0  0  0
   -6.9690   22.2490   -5.2660 N   0  0  0  0  0  0  0  0  0  0  0  0
   -8.1220   22.8600   -4.8110 O   0  0  0  0  0  0  0  0  0  0  0  0
   -9.1220   26.5660   -2.1700 C   0  0  0  0  0  0  0  0  0  0  0  0
   -7.9020   26.4480   -0.7980 P   0  0  2  0  0  5  0  0  0  0  0  0
   -7.5360   27.8710   -0.4480 O   0  0  0  0  0  0  0  0  0  0  0  0
   -6.7860   25.5210   -1.2710 O   0  0  0  0  0  0  0  0  0  0  0  0
   -8.8460   25.6740    0.5250 C   0  0  0  0  0  0  0  0  0  0  0  0
   -9.0500   24.2890    0.5290 C   0  0  0  0  0  0  0  0  0  0  0  0
   -9.7750   23.6820    1.5550 C   0  0  0  0  0  0  0  0  0  0  0  0
  -10.3010   24.4660    2.5810 C   0  0  0  0  0  0  0  0  0  0  0  0
  -11.2850   23.6480    3.9740 Br  0  0  0  0  0  0  0  0  0  0  0  0
  -10.1120   25.8470    2.5880 C   0  0  0  0  0  0  0  0  0  0  0  0
   -9.3850   26.4490    1.5600 C   0  0  0  0  0  0  0  0  0  0  0  0
   -8.6030   30.2430   -9.4450 C   0  0  0  0  0  0  0  0  0  0  0  0
   -7.9410   29.9000  -10.5880 N   0  0  0  0  0  0  0  0  0  0  0  0
   -9.8090   30.4870   -9.4960 O   0  0  0  0  0  0  0  0  0  0  0  0
   -6.4500   28.6569   -7.2654 H   0  0  0  0  0  0  0  0  0  0  0  0
   -7.2029   28.1456   -8.8140 H   0  0  0  0  0  0  0  0  0  0  0  0
   -5.9002   29.3823   -8.8140 H   0  0  0  0  0  0  0  0  0  0  0  0
   -7.3260   31.0633   -7.9303 H   0  0  0  0  0  0  0  0  0  0  0  0
   -9.6530   29.6580   -7.1320 H   0  0  0  0  0  0  0  0  0  0  0  0
  -10.2849   29.8219   -4.9826 H   0  0  0  0  0  0  0  0  0  0  0  0
   -9.2974   30.7258   -2.5181 H   0  0  0  0  0  0  0  0  0  0  0  0
   -8.4109   31.7606   -3.6887 H   0  0  0  0  0  0  0  0  0  0  0  0
  -10.2071   31.7402   -3.6887 H   0  0  0  0  0  0  0  0  0  0  0  0
   -8.6430   28.7820   -2.8920 H   0  0  0  0  0  0  0  0  0  0  0  0
   -7.4951   26.2514   -3.4904 H   0  0  0  0  0  0  0  0  0  0  0  0
   -9.6148   24.4483   -3.4684 H   0  0  0  0  0  0  0  0  0  0  0  0
   -9.6871   25.2682   -5.0872 H   0  0  0  0  0  0  0  0  0  0  0  0
   -6.1391   25.4654   -5.1170 H   0  0  0  0  0  0  0  0  0  0  0  0
   -5.3613   21.5078   -7.4134 H   0  0  0  0  0  0  0  0  0  0  0  0
   -3.0755   21.0053   -8.2391 H   0  0  0  0  0  0  0  0  0  0  0  0
   -1.2916   20.2010   -8.3204 H   0  0  0  0  0  0  0  0  0  0  0  0
    1.0000   19.6880   -9.1426 H   0  0  0  0  0  0  0  0  0  0  0  0
    2.8832   21.2515   -8.6512 H   0  0  0  0  0  0  0  0  0  0  0  0
    0.1721   23.8499   -6.5152 H   0  0  0  0  0  0  0  0  0  0  0  0
   -1.4332   23.7947   -5.3804 H   0  0  0  0  0  0  0  0  0  0  0  0
   -3.7207   24.2958   -4.5532 H   0  0  0  0  0  0  0  0  0  0  0  0
   -9.5643   27.5726   -2.1369 H   0  0  0  0  0  0  0  0  0  0  0  0
   -9.8332   25.7452   -1.9954 H   0  0  0  0  0  0  0  0  0  0  0  0
   -8.6353   23.6742   -0.2834 H   0  0  0  0  0  0  0  0  0  0  0  0
   -9.9304   22.5930    1.5544 H   0  0  0  0  0  0  0  0  0  0  0  0
  -10.5335   26.4589    3.3992 H   0  0  0  0  0  0  0  0  0  0  0  0
   -9.2343   27.5386    1.5625 H   0  0  0  0  0  0  0  0  0  0  0  0
   -8.4180   30.0980  -11.4570 H   0  0  0  0  0  0  0  0  0  0  0  0
   -6.9220   30.0270  -10.6540 H   0  0  0  0  0  0  0  0  0  0  0  0
  1  2  1  0
  2  3  1  0
  3  4  1  0
  4  5  2  0
  4  6  1  0
  6  7  1  0
  6  8  1  0
  8  9  1  0
  9 10  2  0
  9 11  1  0
 11 12  1  0
 12 13  1  0
 13 14  2  0
 14 15  1  0
 15 16  1  0
 16 17  2  0
 17 18  1  0
 18 19  2  0
 19 20  1  0
 20 21  2  0
 21 22  1  0
 22 23  2  0
 23 24  1  0
 24 25  1  0
 24 26  2  0
 19 27  1  0
 27 28  2  0
 15 29  2  0
 29 30  1  0
 11 31  1  0
 31 32  1  0
 32 33  2  0
 32 34  1  6
 32 35  1  0
 35 36  2  0
 36 37  1  0
 37 38  2  0
 38 39  1  0
 38 40  1  0
 40 41  2  0
  2 42  1  0
 42 43  1  0
 42 44  2  0
 30 13  1  0
 41 35  1  0
 28 16  1  0
 26 20  1  0
  1 45  1  0
  1 46  1  0
  1 47  1  0
  2 48  1  1
  3 49  1  0
  6 50  1  6
  7 51  1  0
  7 52  1  0
  7 53  1  0
  8 54  1  0
 11 55  1  1
 12 56  1  0
 12 57  1  0
 14 58  1  0
 17 59  1  0
 18 60  1  0
 21 61  1  0
 22 62  1  0
 23 63  1  0
 26 64  1  0
 27 65  1  0
 28 66  1  0
 31 67  1  0
 31 68  1  0
 36 69  1  0
 37 70  1  0
 40 71  1  0
 41 72  1  0
 43 73  1  0
 43 74  1  0
M  CHG  1  34  -1
M  END
>  <meeko>  (2) 
{"is_sidechain": [false], "free_energy": -11.531, "intermolecular_energy": -19.032, "internal_energy": -1.804}

$$$$
4gr0_ligand
     RDKit          3D

 74 77  0  0  0  0  0  0  0  0999 V2000
  -11.4660   25.8480    1.5300 C   0  0  0  0  0  0  0  0  0  0  0  0
   -9.9870   25.4600    1.5530 C   0  0  2  0  0  0  0  0  0  0  0  0
   -9.2420   26.1990    0.5360 N   0  0  0  0  0  0  0  0  0  0  0  0
   -8.3860   27.2280    0.8740 C   0  0  0  0  0  0  0  0  0  0  0  0
   -8.2940   27.6480    2.0300 O   0  0  0  0  0  0  0  0  0  0  0  0
   -7.6990   27.9670   -0.2980 C   0  0  2  0  0  0  0  0  0  0  0  0
   -7.7070   29.4640   -0.0030 C   0  0  0  0  0  0  0  0  0  0  0  0
   -8.3060   27.7160   -1.5950 N   0  0  0  0  0  0  0  0  0  0  0  0
   -8.1330   26.5650   -2.3060 C   0  0  0  0  0  0  0  0  0  0  0  0
   -7.4820   25.6090   -1.8890 O   0  0  0  0  0  0  0  0  0  0  0  0
   -8.7960   26.5330   -3.6800 C   0  0  2  0  0  0  0  0  0  0  0  0
   -9.2460   25.1150   -4.0530 C   0  0  0  0  0  0  0  0  0  0  0  0
   -8.1130   24.2770   -4.5370 C   0  0  0  0  0  0  0  0  0  0  0  0
   -6.8420   24.5540   -4.9760 C   0  0  0  0  0  0  0  0  0  0  0  0
   -6.2760   23.2890   -5.2880 C   0  0  0  0  0  0  0  0  0  0  0  0
   -4.9360   22.9910   -5.8030 C   0  0  0  0  0  0  0  0  0  0  0  0
   -3.8100   23.6480   -5.2860 C   0  0  0  0  0  0  0  0  0  0  0  0
   -2.5260   23.3720   -5.7740 C   0  0  0  0  0  0  0  0  0  0  0  0
   -2.3260   22.4300   -6.7930 C   0  0  0  0  0  0  0  0  0  0  0  0
   -0.9780   22.1430   -7.3090 C   0  0  0  0  0  0  0  0  0  0  0  0
   -0.7410   21.0230   -8.1280 C   0  0  0  0  0  0  0  0  0  0  0  0
    0.5370   20.7450   -8.6200 C   0  0  0  0  0  0  0  0  0  0  0  0
    1.6020   21.5830   -8.3020 C   0  0  0  0  0  0  0  0  0  0  0  0
    1.3850   22.6960   -7.4940 C   0  0  0  0  0  0  0  0  0  0  0  0
    2.7010   23.7340   -7.1010 Cl  0  0  0  0  0  0  0  0  0  0  0  0
    0.1090   22.9770   -7.0010 C   0  0  0  0  0  0  0  0  0  0  0  0
   -3.4550   21.7730   -7.3070 C   0  0  0  0  0  0  0  0  0  0  0  0
   -4.7390   22.0480   -6.8210 C   0  0  0  0  0  0  0  0  0  0  0  0
   -7.1680   22.3140   -5.0400 N   0  0  0  0  0  0  0  0  0  0  0  0
   -8.3110   22.9350   -4.5740 O   0  0  0  0  0  0  0  0  0  0  0  0
   -7.9100   27.1960   -4.7420 C   0  0  0  0  0  0  0  0  0  0  0  0
   -7.9990   29.0310   -4.8670 P   0  0  2  0  0  5  0  0  0  0  0  0
   -6.9240   29.5580   -3.9460 O   0  0  0  0  0  0  0  0  0  0  0  0
   -9.4440   29.4280   -4.5780 O   0  0  0  0  0  0  0  0  0  0  0  0
   -7.5920   29.3440   -6.5910 C   0  0  0  0  0  0  0  0  0  0  0  0
   -7.2690   30.6390   -7.0150 C   0  0  0  0  0  0  0  0  0  0  0  0
   -6.9450   30.8870   -8.3500 C   0  0  0  0  0  0  0  0  0  0  0  0
   -6.9460   29.8350   -9.2650 C   0  0  0  0  0  0  0  0  0  0  0  0
   -6.5080   30.1680  -11.0750 Br  0  0  0  0  0  0  0  0  0  0  0  0
   -7.2710   28.5420   -8.8590 C   0  0  0  0  0  0  0  0  0  0  0  0
   -7.5930   28.2980   -7.5230 C   0  0  0  0  0  0  0  0  0  0  0  0
   -9.8530   23.9220    1.4330 C   0  0  0  0  0  0  0  0  0  0  0  0
   -9.4690   23.4350    0.2170 N   0  0  0  0  0  0  0  0  0  0  0  0
   -9.9120   23.1580    2.3970 O   0  0  0  0  0  0  0  0  0  0  0  0
  -11.8357   25.9450    2.5615 H   0  0  0  0  0  0  0  0  0  0  0  0
  -11.5852   26.8078    1.0060 H   0  0  0  0  0  0  0  0  0  0  0  0
  -12.0410   25.0703    1.0060 H   0  0  0  0  0  0  0  0  0  0  0  0
   -9.5349   25.7451    2.5144 H   0  0  0  0  0  0  0  0  0  0  0  0
   -9.0670   25.7180   -0.3510 H   0  0  0  0  0  0  0  0  0  0  0  0
   -6.6733   27.5758   -0.3679 H   0  0  0  0  0  0  0  0  0  0  0  0
   -7.7079   29.6232    1.0854 H   0  0  0  0  0  0  0  0  0  0  0  0
   -6.8113   29.9288   -0.4409 H   0  0  0  0  0  0  0  0  0  0  0  0
   -8.6076   29.9192   -0.4409 H   0  0  0  0  0  0  0  0  0  0  0  0
   -8.9730   28.4020   -1.9680 H   0  0  0  0  0  0  0  0  0  0  0  0
   -9.7151   27.1357   -3.6350 H   0  0  0  0  0  0  0  0  0  0  0  0
   -9.6865   24.6376   -3.1653 H   0  0  0  0  0  0  0  0  0  0  0  0
   -9.9802   25.1958   -4.8681 H   0  0  0  0  0  0  0  0  0  0  0  0
   -6.3654   25.5412   -5.0665 H   0  0  0  0  0  0  0  0  0  0  0  0
   -3.9368   24.3913   -4.4852 H   0  0  0  0  0  0  0  0  0  0  0  0
   -1.6607   23.9031   -5.3507 H   0  0  0  0  0  0  0  0  0  0  0  0
   -1.5763   20.3550   -8.3852 H   0  0  0  0  0  0  0  0  0  0  0  0
    0.7013   19.8643   -9.2583 H   0  0  0  0  0  0  0  0  0  0  0  0
    2.6096   21.3671   -8.6869 H   0  0  0  0  0  0  0  0  0  0  0  0
   -0.0462   23.8608   -6.3648 H   0  0  0  0  0  0  0  0  0  0  0  0
   -3.3286   21.0282   -8.1065 H   0  0  0  0  0  0  0  0  0  0  0  0
   -5.6046   21.5169   -7.2438 H   0  0  0  0  0  0  0  0  0  0  0  0
   -6.8666   26.9275   -4.5202 H   0  0  0  0  0  0  0  0  0  0  0  0
   -8.2863   26.8225   -5.7058 H   0  0  0  0  0  0  0  0  0  0  0  0
   -7.2706   31.4669   -6.2907 H   0  0  0  0  0  0  0  0  0  0  0  0
   -6.6906   31.9057   -8.6779 H   0  0  0  0  0  0  0  0  0  0  0  0
   -7.2737   27.7180   -9.5877 H   0  0  0  0  0  0  0  0  0  0  0  0
   -7.8491   27.2782   -7.1999 H   0  0  0  0  0  0  0  0  0  0  0  0
   -9.4880   22.4300    0.1120 H   0  0  0  0  0  0  0  0  0  0  0  0
   -9.7330   23.9310   -0.6450 H   0  0  0  0  0  0  0  0  0  0  0  0
  1  2  1  0
  2  3  1  0
  3  4  1  0
  4  5  2  0
  4  6  1  0
  6  7  1  0
  6  8  1  0
  8  9  1  0
  9 10  2  0
  9 11  1  0
 11 12  1  0
 12 13  1  0
 13 14  2  0
 14 15  1  0
 15 16  1  0
 16 17  2  0
 17 18  1  0
 18 19  2  0
 19 20  1  0
 20 21  2  0
 21 22  1  0
 22 23  2  0
 23 24  1  0
 24 25  1  0
 24 26  2  0
 19 27  1  0
 27 28  2  0
 15 29  2  0
 29 30  1  0
 11 31  1  0
 31 32  1  0
 32 33  2  0
 32 34  1  1
 32 35  1  0
 35 36  2  0
 36 37  1  0
 37 38  2  0
 38 39  1  0
 38 40  1  0
 40 41  2  0
  2 42  1  0
 42 43  1  0
 42 44  2  0
 30 13  1  0
 41 35  1  0
 28 16  1  0
 26 20  1  0
  1 45  1  0
  1 46  1  0
  1 47  1  0
  2 48  1  1
  3 49  1  0
  6 50  1  6
  7 51  1  0
  7 52  1  0
  7 53  1  0
  8 54  1  0
 11 55  1  1
 12 56  1  0
 12 57  1  0
 14 58  1  0
 17 59  1  0
 18 60  1  0
 21 61  1  0
 22 62  1  0
 23 63  1  0
 26 64  1  0
 27 65  1  0
 28 66  1  0
 31 67  1  0
 31 68  1  0
 36 69  1  0
 37 70  1  0
 40 71  1  0
 41 72  1  0
 43 73  1  0
 43 74  1  0
M  CHG  1  34  -1
M  END
>  <meeko>  (3) 
{"is_sidechain": [false], "free_energy": -11.384, "intermolecular_energy": -19.666, "internal_energy": -0.92}

$$$$
4gr0_ligand
     RDKit          3D

 74 77  0  0  0  0  0  0  0  0999 V2000
  -12.1550   27.2590    3.8520 C   0  0  0  0  0  0  0  0  0  0  0  0
  -12.0480   26.3880    2.6000 C   0  0  2  0  0  0  0  0  0  0  0  0
  -10.9420   26.8310    1.7540 N   0  0  0  0  0  0  0  0  0  0  0  0
   -9.9460   25.9620    1.3550 C   0  0  0  0  0  0  0  0  0  0  0  0
   -9.8770   24.8070    1.7820 O   0  0  0  0  0  0  0  0  0  0  0  0
   -8.8020   26.5660    0.5070 C   0  0  2  0  0  0  0  0  0  0  0  0
   -8.6390   28.0360    0.8830 C   0  0  0  0  0  0  0  0  0  0  0  0
   -8.9990   26.4430   -0.9280 N   0  0  0  0  0  0  0  0  0  0  0  0
   -8.4930   25.4240   -1.6800 C   0  0  0  0  0  0  0  0  0  0  0  0
   -7.8620   24.4830   -1.2010 O   0  0  0  0  0  0  0  0  0  0  0  0
   -8.7500   25.5210   -3.1810 C   0  0  2  0  0  0  0  0  0  0  0  0
   -9.0420   24.1450   -3.7910 C   0  0  0  0  0  0  0  0  0  0  0  0
   -7.9330   23.6730   -4.6650 C   0  0  0  0  0  0  0  0  0  0  0  0
   -6.5650   23.6620   -4.5480 C   0  0  0  0  0  0  0  0  0  0  0  0
   -6.0960   23.0630   -5.7490 C   0  0  0  0  0  0  0  0  0  0  0  0
   -4.7130   22.8020   -6.1590 C   0  0  0  0  0  0  0  0  0  0  0  0
   -4.4350   21.9220   -7.2150 C   0  0  0  0  0  0  0  0  0  0  0  0
   -3.1170   21.6640   -7.6110 C   0  0  0  0  0  0  0  0  0  0  0  0
   -2.0340   22.2780   -6.9660 C   0  0  0  0  0  0  0  0  0  0  0  0
   -0.6480   22.0030   -7.3790 C   0  0  0  0  0  0  0  0  0  0  0  0
   -0.3110   20.8010   -8.0270 C   0  0  0  0  0  0  0  0  0  0  0  0
    1.0030   20.5350   -8.4210 C   0  0  0  0  0  0  0  0  0  0  0  0
    2.0060   21.4690   -8.1720 C   0  0  0  0  0  0  0  0  0  0  0  0
    1.6890   22.6640   -7.5330 C   0  0  0  0  0  0  0  0  0  0  0  0
    2.9280   23.8200   -7.2280 Cl  0  0  0  0  0  0  0  0  0  0  0  0
    0.3770   22.9330   -7.1390 C   0  0  0  0  0  0  0  0  0  0  0  0
   -2.3150   23.1590   -5.9110 C   0  0  0  0  0  0  0  0  0  0  0  0
   -3.6330   23.4180   -5.5130 C   0  0  0  0  0  0  0  0  0  0  0  0
   -7.1380   22.7320   -6.5320 N   0  0  0  0  0  0  0  0  0  0  0  0
   -8.2780   23.1160   -5.8540 O   0  0  0  0  0  0  0  0  0  0  0  0
   -7.6240   26.2820   -3.8910 C   0  0  0  0  0  0  0  0  0  0  0  0
   -8.1310   27.5600   -5.1150 P   0  0  2  0  0  5  0  0  0  0  0  0
   -9.4560   27.0930   -5.6710 O   0  0  0  0  0  0  0  0  0  0  0  0
   -6.9690   27.7320   -6.0880 O   0  0  0  0  0  0  0  0  0  0  0  0
   -8.3320   29.0360   -4.1060 C   0  0  0  0  0  0  0  0  0  0  0  0
   -9.0670   30.1260   -4.5890 C   0  0  0  0  0  0  0  0  0  0  0  0
   -9.2330   31.2710   -3.8080 C   0  0  0  0  0  0  0  0  0  0  0  0
   -8.6590   31.3270   -2.5390 C   0  0  0  0  0  0  0  0  0  0  0  0
   -8.8810   32.8770   -1.4780 Br  0  0  0  0  0  0  0  0  0  0  0  0
   -7.9190   30.2520   -2.0460 C   0  0  0  0  0  0  0  0  0  0  0  0
   -7.7570   29.1090   -2.8310 C   0  0  0  0  0  0  0  0  0  0  0  0
  -13.4160   26.3530    1.8740 C   0  0  0  0  0  0  0  0  0  0  0  0
  -14.4860   25.9290    2.6070 N   0  0  0  0  0  0  0  0  0  0  0  0
  -13.6020   26.8320    0.7550 O   0  0  0  0  0  0  0  0  0  0  0  0
  -12.0771   26.6250    4.7475 H   0  0  0  0  0  0  0  0  0  0  0  0
  -11.3410   27.9989    3.8546 H   0  0  0  0  0  0  0  0  0  0  0  0
  -13.1239   27.7798    3.8546 H   0  0  0  0  0  0  0  0  0  0  0  0
  -11.8088   25.3512    2.8789 H   0  0  0  0  0  0  0  0  0  0  0  0
  -11.1080   27.6520    1.1650 H   0  0  0  0  0  0  0  0  0  0  0  0
   -7.8937   25.9888    0.7346 H   0  0  0  0  0  0  0  0  0  0  0  0
   -8.6280   28.1352    1.9785 H   0  0  0  0  0  0  0  0  0  0  0  0
   -7.6931   28.4172    0.4708 H   0  0  0  0  0  0  0  0  0  0  0  0
   -9.4784   28.6152    0.4708 H   0  0  0  0  0  0  0  0  0  0  0  0
   -9.6220   27.1080   -1.3990 H   0  0  0  0  0  0  0  0  0  0  0  0
   -9.6618   26.1159   -3.3381 H   0  0  0  0  0  0  0  0  0  0  0  0
   -9.1854   23.4193   -2.9769 H   0  0  0  0  0  0  0  0  0  0  0  0
   -9.9468   24.2341   -4.4102 H   0  0  0  0  0  0  0  0  0  0  0  0
   -5.9624   24.0357   -3.7071 H   0  0  0  0  0  0  0  0  0  0  0  0
   -5.2651   21.4269   -7.7402 H   0  0  0  0  0  0  0  0  0  0  0  0
   -2.9281   20.9682   -8.4418 H   0  0  0  0  0  0  0  0  0  0  0  0
   -1.0960   20.0569   -8.2272 H   0  0  0  0  0  0  0  0  0  0  0  0
    1.2451   19.5889   -8.9273 H   0  0  0  0  0  0  0  0  0  0  0  0
    3.0422   21.2633   -8.4785 H   0  0  0  0  0  0  0  0  0  0  0  0
    0.1436   23.8828   -6.6356 H   0  0  0  0  0  0  0  0  0  0  0  0
   -1.4852   23.6555   -5.3867 H   0  0  0  0  0  0  0  0  0  0  0  0
   -3.8225   24.1140   -4.6825 H   0  0  0  0  0  0  0  0  0  0  0  0
   -7.0210   26.7815   -3.1184 H   0  0  0  0  0  0  0  0  0  0  0  0
   -7.0854   25.5211   -4.4749 H   0  0  0  0  0  0  0  0  0  0  0  0
   -9.5170   30.0794   -5.5917 H   0  0  0  0  0  0  0  0  0  0  0  0
   -9.8129   32.1234   -4.1914 H   0  0  0  0  0  0  0  0  0  0  0  0
   -7.4660   30.3047   -1.0450 H   0  0  0  0  0  0  0  0  0  0  0  0
   -7.1737   28.2598   -2.4455 H   0  0  0  0  0  0  0  0  0  0  0  0
  -15.3530   25.8050    2.1020 H   0  0  0  0  0  0  0  0  0  0  0  0
  -14.3570   25.2350    3.3570 H   0  0  0  0  0  0  0  0  0  0  0  0
  1  2  1  0
  2  3  1  0
  3  4  1  0
  4  5  2  0
  4  6  1  0
  6  7  1  0
  6  8  1  0
  8  9  1  0
  9 10  2  0
  9 11  1  0
 11 12  1  0
 12 13  1  0
 13 14  2  0
 14 15  1  0
 15 16  1  0
 16 17  2  0
 17 18  1  0
 18 19  2  0
 19 20  1  0
 20 21  2  0
 21 22  1  0
 22 23  2  0
 23 24  1  0
 24 25  1  0
 24 26  2  0
 19 27  1  0
 27 28  2  0
 15 29  2  0
 29 30  1  0
 11 31  1  0
 31 32  1  0
 32 33  2  0
 32 34  1  6
 32 35  1  0
 35 36  2  0
 36 37  1  0
 37 38  2  0
 38 39  1  0
 38 40  1  0
 40 41  2  0
  2 42  1  0
 42 43  1  0
 42 44  2  0
 30 13  1  0
 41 35  1  0
 28 16  1  0
 26 20  1  0
  1 45  1  0
  1 46  1  0
  1 47  1  0
  2 48  1  1
  3 49  1  0
  6 50  1  1
  7 51  1  0
  7 52  1  0
  7 53  1  0
  8 54  1  0
 11 55  1  1
 12 56  1  0
 12 57  1  0
 14 58  1  0
 17 59  1  0
 18 60  1  0
 21 61  1  0
 22 62  1  0
 23 63  1  0
 26 64  1  0
 27 65  1  0
 28 66  1  0
 31 67  1  0
 31 68  1  0
 36 69  1  0
 37 70  1  0
 40 71  1  0
 41 72  1  0
 43 73  1  0
 43 74  1  0
M  CHG  1  34  -1
M  END
>  <meeko>  (4) 
{"is_sidechain": [false], "free_energy": -11.363, "intermolecular_energy": -18.852, "internal_energy": -1.698}

$$$$
4gr0_ligand
     RDKit          3D

 74 77  0  0  0  0  0  0  0  0999 V2000
   -8.2810   23.2510    4.8050 C   0  0  0  0  0  0  0  0  0  0  0  0
   -9.2970   23.3840    3.6710 C   0  0  2  0  0  0  0  0  0  0  0  0
   -9.0550   24.6000    2.8990 N   0  0  0  0  0  0  0  0  0  0  0  0
   -9.2880   24.6500    1.5390 C   0  0  0  0  0  0  0  0  0  0  0  0
   -9.6000   23.6470    0.8920 O   0  0  0  0  0  0  0  0  0  0  0  0
   -8.9390   25.9780    0.8270 C   0  0  2  0  0  0  0  0  0  0  0  0
   -9.7740   27.0970    1.4440 C   0  0  0  0  0  0  0  0  0  0  0  0
   -9.1390   25.9500   -0.6130 N   0  0  0  0  0  0  0  0  0  0  0  0
   -8.1340   25.7740   -1.5170 C   0  0  0  0  0  0  0  0  0  0  0  0
   -6.9650   25.5730   -1.1920 O   0  0  0  0  0  0  0  0  0  0  0  0
   -8.5460   25.8530   -2.9840 C   0  0  2  0  0  0  0  0  0  0  0  0
   -8.9190   24.4720   -3.5370 C   0  0  0  0  0  0  0  0  0  0  0  0
   -7.8590   23.9180   -4.4240 C   0  0  0  0  0  0  0  0  0  0  0  0
   -6.4870   23.9310   -4.3930 C   0  0  0  0  0  0  0  0  0  0  0  0
   -6.0840   23.2100   -5.5500 C   0  0  0  0  0  0  0  0  0  0  0  0
   -4.7250   22.9180   -6.0150 C   0  0  0  0  0  0  0  0  0  0  0  0
   -3.6170   23.5410   -5.4220 C   0  0  0  0  0  0  0  0  0  0  0  0
   -2.3160   23.2710   -5.8620 C   0  0  0  0  0  0  0  0  0  0  0  0
   -2.0780   22.3680   -6.9090 C   0  0  0  0  0  0  0  0  0  0  0  0
   -0.7100   22.0860   -7.3750 C   0  0  0  0  0  0  0  0  0  0  0  0
   -0.4250   20.9250   -8.1170 C   0  0  0  0  0  0  0  0  0  0  0  0
    0.8710   20.6520   -8.5610 C   0  0  0  0  0  0  0  0  0  0  0  0
    1.9070   21.5360   -8.2700 C   0  0  0  0  0  0  0  0  0  0  0  0
    1.6410   22.6900   -7.5380 C   0  0  0  0  0  0  0  0  0  0  0  0
    2.9200   23.7850   -7.1800 Cl  0  0  0  0  0  0  0  0  0  0  0  0
    0.3470   22.9660   -7.0930 C   0  0  0  0  0  0  0  0  0  0  0  0
   -3.1880   21.7440   -7.4990 C   0  0  0  0  0  0  0  0  0  0  0  0
   -4.4910   22.0150   -7.0600 C   0  0  0  0  0  0  0  0  0  0  0  0
   -7.1670   22.7880   -6.2260 N   0  0  0  0  0  0  0  0  0  0  0  0
   -8.2690   23.2330   -5.5220 O   0  0  0  0  0  0  0  0  0  0  0  0
   -7.4890   26.5840   -3.8210 C   0  0  0  0  0  0  0  0  0  0  0  0
   -8.1090   27.7990   -5.0580 P   0  0  2  0  0  5  0  0  0  0  0  0
   -9.3880   27.2110   -5.6060 O   0  0  0  0  0  0  0  0  0  0  0  0
   -6.9680   28.0610   -6.0360 O   0  0  0  0  0  0  0  0  0  0  0  0
   -8.4380   29.2630   -4.0650 C   0  0  0  0  0  0  0  0  0  0  0  0
   -7.8260   29.4200   -2.8150 C   0  0  0  0  0  0  0  0  0  0  0  0
   -8.0720   30.5570   -2.0440 C   0  0  0  0  0  0  0  0  0  0  0  0
   -8.9360   31.5400   -2.5240 C   0  0  0  0  0  0  0  0  0  0  0  0
   -9.2720   33.0810   -1.4810 Br  0  0  0  0  0  0  0  0  0  0  0  0
   -9.5580   31.3950   -3.7630 C   0  0  0  0  0  0  0  0  0  0  0  0
   -9.3080   30.2570   -4.5310 C   0  0  0  0  0  0  0  0  0  0  0  0
  -10.7320   23.2830    4.2450 C   0  0  0  0  0  0  0  0  0  0  0  0
  -10.8390   23.1080    5.5950 N   0  0  0  0  0  0  0  0  0  0  0  0
  -11.7450   23.5140    3.5840 O   0  0  0  0  0  0  0  0  0  0  0  0
   -8.8002   23.3190    5.7724 H   0  0  0  0  0  0  0  0  0  0  0  0
   -7.7723   22.2786    4.7294 H   0  0  0  0  0  0  0  0  0  0  0  0
   -7.5392   24.0597    4.7294 H   0  0  0  0  0  0  0  0  0  0  0  0
   -9.1798   22.5541    2.9586 H   0  0  0  0  0  0  0  0  0  0  0  0
   -9.0820   25.4870    3.4090 H   0  0  0  0  0  0  0  0  0  0  0  0
   -7.8626   26.1492    0.9757 H   0  0  0  0  0  0  0  0  0  0  0  0
   -9.7239   27.0298    2.5408 H   0  0  0  0  0  0  0  0  0  0  0  0
   -9.3801   28.0709    1.1179 H   0  0  0  0  0  0  0  0  0  0  0  0
  -10.8198   26.9966    1.1179 H   0  0  0  0  0  0  0  0  0  0  0  0
  -10.0990   25.9790   -0.9780 H   0  0  0  0  0  0  0  0  0  0  0  0
   -9.4604   26.4604   -3.0544 H   0  0  0  0  0  0  0  0  0  0  0  0
   -9.0723   23.7821   -2.6941 H   0  0  0  0  0  0  0  0  0  0  0  0
   -9.8361   24.5830   -4.1342 H   0  0  0  0  0  0  0  0  0  0  0  0
   -5.8393   24.3982   -3.6366 H   0  0  0  0  0  0  0  0  0  0  0  0
   -3.7730   24.2530   -4.5982 H   0  0  0  0  0  0  0  0  0  0  0  0
   -1.4661   23.7752   -5.3789 H   0  0  0  0  0  0  0  0  0  0  0  0
   -1.2365   20.2204   -8.3514 H   0  0  0  0  0  0  0  0  0  0  0  0
    1.0732   19.7390   -9.1403 H   0  0  0  0  0  0  0  0  0  0  0  0
    2.9292   21.3238   -8.6164 H   0  0  0  0  0  0  0  0  0  0  0  0
    0.1535   23.8821   -6.5156 H   0  0  0  0  0  0  0  0  0  0  0  0
   -3.0325   21.0294   -8.3207 H   0  0  0  0  0  0  0  0  0  0  0  0
   -5.3417   21.5117   -7.5427 H   0  0  0  0  0  0  0  0  0  0  0  0
   -6.8282   27.1233   -3.1263 H   0  0  0  0  0  0  0  0  0  0  0  0
   -6.9932   25.7987   -4.4105 H   0  0  0  0  0  0  0  0  0  0  0  0
   -7.1464   28.6414   -2.4382 H   0  0  0  0  0  0  0  0  0  0  0  0
   -7.5872   30.6767   -1.0639 H   0  0  0  0  0  0  0  0  0  0  0  0
  -10.2419   32.1730   -4.1332 H   0  0  0  0  0  0  0  0  0  0  0  0
   -9.7975   30.1397   -5.5091 H   0  0  0  0  0  0  0  0  0  0  0  0
  -11.7690   22.9350    5.9500 H   0  0  0  0  0  0  0  0  0  0  0  0
  -10.1130   22.5910    6.1080 H   0  0  0  0  0  0  0  0  0  0  0  0
  1  2  1  0
  2  3  1  0
  3  4  1  0
  4  5  2  0
  4  6  1  0
  6  7  1  0
  6  8  1  0
  8  9  1  0
  9 10  2  0
  9 11  1  0
 11 12  1  0
 12 13  1  0
 13 14  2  0
 14 15  1  0
 15 16  1  0
 16 17  2  0
 17 18  1  0
 18 19  2  0
 19 20  1  0
 20 21  2  0
 21 22  1  0
 22 23  2  0
 23 24  1  0
 24 25  1  0
 24 26  2  0
 19 27  1  0
 27 28  2  0
 15 29  2  0
 29 30  1  0
 11 31  1  0
 31 32  1  0
 32 33  2  0
 32 34  1  6
 32 35  1  0
 35 36  2  0
 36 37  1  0
 37 38  2  0
 38 39  1  0
 38 40  1  0
 40 41  2  0
  2 42  1  0
 42 43  1  0
 42 44  2  0
 30 13  1  0
 41 35  1  0
 28 16  1  0
 26 20  1  0
  1 45  1  0
  1 46  1  0
  1 47  1  0
  2 48  1  6
  3 49  1  0
  6 50  1  6
  7 51  1  0
  7 52  1  0
  7 53  1  0
  8 54  1  0
 11 55  1  1
 12 56  1  0
 12 57  1  0
 14 58  1  0
 17 59  1  0
 18 60  1  0
 21 61  1  0
 22 62  1  0
 23 63  1  0
 26 64  1  0
 27 65  1  0
 28 66  1  0
 31 67  1  0
 31 68  1  0
 36 69  1  0
 37 70  1  0
 40 71  1  0
 41 72  1  0
 43 73  1  0
 43 74  1  0
M  CHG  1  34  -1
M  END
>  <meeko>  (5) 
{"is_sidechain": [false], "free_energy": -11.361, "intermolecular_energy": -19.204, "internal_energy": -1.344}

$$$$
4gr0_ligand
     RDKit          3D

 74 77  0  0  0  0  0  0  0  0999 V2000
   -6.2850   30.4720   -8.2700 C   0  0  0  0  0  0  0  0  0  0  0  0
   -7.7860   30.2460   -8.0860 C   0  0  2  0  0  0  0  0  0  0  0  0
   -8.1060   30.0200   -6.6790 N   0  0  0  0  0  0  0  0  0  0  0  0
   -7.4680   29.0420   -5.9420 C   0  0  0  0  0  0  0  0  0  0  0  0
   -6.6850   28.2410   -6.4580 O   0  0  0  0  0  0  0  0  0  0  0  0
   -7.9370   28.8650   -4.4780 C   0  0  2  0  0  0  0  0  0  0  0  0
   -7.1260   29.8040   -3.5890 C   0  0  0  0  0  0  0  0  0  0  0  0
   -7.8330   27.5030   -3.9830 N   0  0  0  0  0  0  0  0  0  0  0  0
   -8.7410   26.5230   -4.2540 C   0  0  0  0  0  0  0  0  0  0  0  0
   -9.7130   26.6920   -4.9890 O   0  0  0  0  0  0  0  0  0  0  0  0
   -8.4870   25.1810   -3.5740 C   0  0  2  0  0  0  0  0  0  0  0  0
   -8.6700   24.0140   -4.5520 C   0  0  0  0  0  0  0  0  0  0  0  0
   -7.3670   23.4760   -5.0320 C   0  0  0  0  0  0  0  0  0  0  0  0
   -6.1110   24.0100   -5.1780 C   0  0  0  0  0  0  0  0  0  0  0  0
   -5.3150   22.9490   -5.6900 C   0  0  0  0  0  0  0  0  0  0  0  0
   -3.8910   22.9620   -6.0360 C   0  0  0  0  0  0  0  0  0  0  0  0
   -2.9820   23.7300   -5.2930 C   0  0  0  0  0  0  0  0  0  0  0  0
   -1.6200   23.7500   -5.6180 C   0  0  0  0  0  0  0  0  0  0  0  0
   -1.1220   23.0030   -6.6950 C   0  0  0  0  0  0  0  0  0  0  0  0
    0.3090   23.0280   -7.0400 C   0  0  0  0  0  0  0  0  0  0  0  0
    1.0660   24.2060   -6.9000 C   0  0  0  0  0  0  0  0  0  0  0  0
    2.4250   24.2350   -7.2270 C   0  0  0  0  0  0  0  0  0  0  0  0
    3.0510   23.0850   -7.7000 C   0  0  0  0  0  0  0  0  0  0  0  0
    2.3170   21.9110   -7.8440 C   0  0  0  0  0  0  0  0  0  0  0  0
    3.0900   20.4880   -8.4270 Cl  0  0  0  0  0  0  0  0  0  0  0  0
    0.9600   21.8780   -7.5180 C   0  0  0  0  0  0  0  0  0  0  0  0
   -2.0330   22.2350   -7.4360 C   0  0  0  0  0  0  0  0  0  0  0  0
   -3.3960   22.2140   -7.1120 C   0  0  0  0  0  0  0  0  0  0  0  0
   -6.0660   21.8430   -5.8320 N   0  0  0  0  0  0  0  0  0  0  0  0
   -7.3420   22.1770   -5.4240 O   0  0  0  0  0  0  0  0  0  0  0  0
   -9.3140   25.0420   -2.2890 C   0  0  0  0  0  0  0  0  0  0  0  0
   -8.4170   25.2750   -0.6990 P   0  0  2  0  0  5  0  0  0  0  0  0
   -7.1430   26.0090   -1.0490 O   0  0  0  0  0  0  0  0  0  0  0  0
   -8.2920   23.9000   -0.0510 O   0  0  0  0  0  0  0  0  0  0  0  0
   -9.5310   26.3210    0.2500 C   0  0  0  0  0  0  0  0  0  0  0  0
  -10.8440   25.9040    0.5060 C   0  0  0  0  0  0  0  0  0  0  0  0
  -11.7110   26.7080    1.2470 C   0  0  0  0  0  0  0  0  0  0  0  0
  -11.2640   27.9360    1.7340 C   0  0  0  0  0  0  0  0  0  0  0  0
  -12.4360   29.0270    2.7390 Br  0  0  0  0  0  0  0  0  0  0  0  0
   -9.9620   28.3670    1.4830 C   0  0  0  0  0  0  0  0  0  0  0  0
   -9.0980   27.5590    0.7420 C   0  0  0  0  0  0  0  0  0  0  0  0
   -8.2580   29.1100   -9.0260 C   0  0  0  0  0  0  0  0  0  0  0  0
   -7.3260   28.1740   -9.3700 N   0  0  0  0  0  0  0  0  0  0  0  0
   -9.4370   28.9270   -9.3300 O   0  0  0  0  0  0  0  0  0  0  0  0
   -5.8016   30.5448   -7.2846 H   0  0  0  0  0  0  0  0  0  0  0  0
   -5.8530   29.6288   -8.8289 H   0  0  0  0  0  0  0  0  0  0  0  0
   -6.1205   31.4050   -8.8289 H   0  0  0  0  0  0  0  0  0  0  0  0
   -8.3441   31.1492   -8.3736 H   0  0  0  0  0  0  0  0  0  0  0  0
   -8.5060   30.8080   -6.1620 H   0  0  0  0  0  0  0  0  0  0  0  0
   -9.0088   29.1109   -4.4509 H   0  0  0  0  0  0  0  0  0  0  0  0
   -7.3260   29.5724   -2.5324 H   0  0  0  0  0  0  0  0  0  0  0  0
   -6.0540   29.6711   -3.7970 H   0  0  0  0  0  0  0  0  0  0  0  0
   -7.4135   30.8452   -3.7970 H   0  0  0  0  0  0  0  0  0  0  0  0
   -6.9880   27.2290   -3.4680 H   0  0  0  0  0  0  0  0  0  0  0  0
   -7.4334   25.1452   -3.2598 H   0  0  0  0  0  0  0  0  0  0  0  0
   -9.2209   23.2086   -4.0441 H   0  0  0  0  0  0  0  0  0  0  0  0
   -9.2247   24.3877   -5.4253 H   0  0  0  0  0  0  0  0  0  0  0  0
   -5.7898   25.0367   -4.9485 H   0  0  0  0  0  0  0  0  0  0  0  0
   -3.3446   24.3255   -4.4422 H   0  0  0  0  0  0  0  0  0  0  0  0
   -0.9296   24.3617   -5.0186 H   0  0  0  0  0  0  0  0  0  0  0  0
    0.5802   25.1196   -6.5269 H   0  0  0  0  0  0  0  0  0  0  0  0
    2.9993   25.1659   -7.1106 H   0  0  0  0  0  0  0  0  0  0  0  0
    4.1200   23.1039   -7.9586 H   0  0  0  0  0  0  0  0  0  0  0  0
    0.3944   20.9420   -7.6365 H   0  0  0  0  0  0  0  0  0  0  0  0
   -1.6707   21.6388   -8.2864 H   0  0  0  0  0  0  0  0  0  0  0  0
   -4.0867   21.6019   -7.7106 H   0  0  0  0  0  0  0  0  0  0  0  0
  -10.1204   25.7891   -2.3293 H   0  0  0  0  0  0  0  0  0  0  0  0
   -9.6560   23.9966   -2.2772 H   0  0  0  0  0  0  0  0  0  0  0  0
  -11.1940   24.9353    0.1198 H   0  0  0  0  0  0  0  0  0  0  0  0
  -12.7405   26.3753    1.4457 H   0  0  0  0  0  0  0  0  0  0  0  0
   -9.6175   29.3386    1.8669 H   0  0  0  0  0  0  0  0  0  0  0  0
   -8.0702   27.8967    0.5431 H   0  0  0  0  0  0  0  0  0  0  0  0
   -7.6080   27.4980  -10.0670 H   0  0  0  0  0  0  0  0  0  0  0  0
   -6.3340   28.4370   -9.4470 H   0  0  0  0  0  0  0  0  0  0  0  0
  1  2  1  0
  2  3  1  0
  3  4  1  0
  4  5  2  0
  4  6  1  0
  6  7  1  0
  6  8  1  0
  8  9  1  0
  9 10  2  0
  9 11  1  0
 11 12  1  0
 12 13  1  0
 13 14  2  0
 14 15  1  0
 15 16  1  0
 16 17  2  0
 17 18  1  0
 18 19  2  0
 19 20  1  0
 20 21  2  0
 21 22  1  0
 22 23  2  0
 23 24  1  0
 24 25  1  0
 24 26  2  0
 19 27  1  0
 27 28  2  0
 15 29  2  0
 29 30  1  0
 11 31  1  0
 31 32  1  0
 32 33  2  0
 32 34  1  1
 32 35  1  0
 35 36  2  0
 36 37  1  0
 37 38  2  0
 38 39  1  0
 38 40  1  0
 40 41  2  0
  2 42  1  0
 42 43  1  0
 42 44  2  0
 30 13  1  0
 41 35  1  0
 28 16  1  0
 26 20  1  0
  1 45  1  0
  1 46  1  0
  1 47  1  0
  2 48  1  6
  3 49  1  0
  6 50  1  6
  7 51  1  0
  7 52  1  0
  7 53  1  0
  8 54  1  0
 11 55  1  1
 12 56  1  0
 12 57  1  0
 14 58  1  0
 17 59  1  0
 18 60  1  0
 21 61  1  0
 22 62  1  0
 23 63  1  0
 26 64  1  0
 27 65  1  0
 28 66  1  0
 31 67  1  0
 31 68  1  0
 36 69  1  0
 37 70  1  0
 40 71  1  0
 41 72  1  0
 43 73  1  0
 43 74  1  0
M  CHG  1  34  -1
M  END
>  <meeko>  (6) 
{"is_sidechain": [false], "free_energy": -11.344, "intermolecular_energy": -18.878, "internal_energy": -1.64}

$$$$
4gr0_ligand
     RDKit          3D

 74 77  0  0  0  0  0  0  0  0999 V2000
   -8.7530   31.9340   -0.6510 C   0  0  0  0  0  0  0  0  0  0  0  0
   -9.0560   31.8530   -2.1470 C   0  0  2  0  0  0  0  0  0  0  0  0
   -8.2740   30.7910   -2.7770 N   0  0  0  0  0  0  0  0  0  0  0  0
   -8.6950   30.1780   -3.9400 C   0  0  0  0  0  0  0  0  0  0  0  0
   -9.7970   30.4130   -4.4410 O   0  0  0  0  0  0  0  0  0  0  0  0
   -7.8070   29.0300   -4.4760 C   0  0  2  0  0  0  0  0  0  0  0  0
   -7.7490   29.1270   -5.9980 C   0  0  0  0  0  0  0  0  0  0  0  0
   -8.2500   27.7040   -4.0820 N   0  0  0  0  0  0  0  0  0  0  0  0
   -8.2040   27.2340   -2.8020 C   0  0  0  0  0  0  0  0  0  0  0  0
   -7.8250   27.9150   -1.8500 O   0  0  0  0  0  0  0  0  0  0  0  0
   -8.6470   25.7870   -2.6140 C   0  0  2  0  0  0  0  0  0  0  0  0
   -9.0100   25.1330   -3.9540 C   0  0  0  0  0  0  0  0  0  0  0  0
   -7.8990   24.2980   -4.4890 C   0  0  0  0  0  0  0  0  0  0  0  0
   -6.6140   24.5650   -4.8900 C   0  0  0  0  0  0  0  0  0  0  0  0
   -6.0840   23.3090   -5.2940 C   0  0  0  0  0  0  0  0  0  0  0  0
   -4.7480   23.0080   -5.8150 C   0  0  0  0  0  0  0  0  0  0  0  0
   -4.5760   22.0630   -6.8370 C   0  0  0  0  0  0  0  0  0  0  0  0
   -3.3030   21.7660   -7.3390 C   0  0  0  0  0  0  0  0  0  0  0  0
   -2.1600   22.4050   -6.8370 C   0  0  0  0  0  0  0  0  0  0  0  0
   -0.8210   22.0900   -7.3620 C   0  0  0  0  0  0  0  0  0  0  0  0
   -0.6030   20.9440   -8.1470 C   0  0  0  0  0  0  0  0  0  0  0  0
    0.6660   20.6390   -8.6470 C   0  0  0  0  0  0  0  0  0  0  0  0
    1.7420   21.4780   -8.3690 C   0  0  0  0  0  0  0  0  0  0  0  0
    1.5440   22.6180   -7.5930 C   0  0  0  0  0  0  0  0  0  0  0  0
    2.8730   23.6560   -7.2500 Cl  0  0  0  0  0  0  0  0  0  0  0  0
    0.2770   22.9240   -7.0930 C   0  0  0  0  0  0  0  0  0  0  0  0
   -2.3350   23.3510   -5.8160 C   0  0  0  0  0  0  0  0  0  0  0  0
   -3.6080   23.6480   -5.3120 C   0  0  0  0  0  0  0  0  0  0  0  0
   -7.0110   22.3490   -5.1330 N   0  0  0  0  0  0  0  0  0  0  0  0
   -8.1390   22.9700   -4.6330 O   0  0  0  0  0  0  0  0  0  0  0  0
   -9.7530   25.6750   -1.5570 C   0  0  0  0  0  0  0  0  0  0  0  0
   -9.2400   25.1120    0.1190 P   0  0  2  0  0  5  0  0  0  0  0  0
   -7.8080   25.5640    0.2850 O   0  0  0  0  0  0  0  0  0  0  0  0
   -9.5290   23.6160    0.1950 O   0  0  0  0  0  0  0  0  0  0  0  0
  -10.3410   26.0240    1.2120 C   0  0  0  0  0  0  0  0  0  0  0  0
  -11.6560   26.3020    0.8170 C   0  0  0  0  0  0  0  0  0  0  0  0
  -12.5160   27.0030    1.6630 C   0  0  0  0  0  0  0  0  0  0  0  0
  -12.0600   27.4290    2.9090 C   0  0  0  0  0  0  0  0  0  0  0  0
  -13.2230   28.3790    4.0580 Br  0  0  0  0  0  0  0  0  0  0  0  0
  -10.7520   27.1640    3.3150 C   0  0  0  0  0  0  0  0  0  0  0  0
   -9.8950   26.4620    2.4650 C   0  0  0  0  0  0  0  0  0  0  0  0
   -8.8530   33.2450   -2.7940 C   0  0  0  0  0  0  0  0  0  0  0  0
   -9.6760   33.5610   -3.8350 N   0  0  0  0  0  0  0  0  0  0  0  0
   -8.1210   34.1140   -2.3180 O   0  0  0  0  0  0  0  0  0  0  0  0
   -9.6609   31.6913   -0.0793 H   0  0  0  0  0  0  0  0  0  0  0  0
   -7.9581   31.2168   -0.3985 H   0  0  0  0  0  0  0  0  0  0  0  0
   -8.4220   32.9522   -0.3985 H   0  0  0  0  0  0  0  0  0  0  0  0
  -10.1093   31.5783   -2.3052 H   0  0  0  0  0  0  0  0  0  0  0  0
   -7.2700   30.7730   -2.5770 H   0  0  0  0  0  0  0  0  0  0  0  0
   -6.8111   29.1571   -4.0265 H   0  0  0  0  0  0  0  0  0  0  0  0
   -7.2043   30.0380   -6.2869 H   0  0  0  0  0  0  0  0  0  0  0  0
   -7.2296   28.2456   -6.4021 H   0  0  0  0  0  0  0  0  0  0  0  0
   -8.7713   29.1674   -6.4021 H   0  0  0  0  0  0  0  0  0  0  0  0
   -8.7050   27.1070   -4.7840 H   0  0  0  0  0  0  0  0  0  0  0  0
   -7.7950   25.2126   -2.2214 H   0  0  0  0  0  0  0  0  0  0  0  0
   -9.8948   24.4957   -3.8095 H   0  0  0  0  0  0  0  0  0  0  0  0
   -9.2103   25.9354   -4.6793 H   0  0  0  0  0  0  0  0  0  0  0  0
   -6.1043   25.5398   -4.8973 H   0  0  0  0  0  0  0  0  0  0  0  0
   -5.4550   21.5470   -7.2507 H   0  0  0  0  0  0  0  0  0  0  0  0
   -3.1978   21.0195   -8.1400 H   0  0  0  0  0  0  0  0  0  0  0  0
   -1.4468   20.2751   -8.3718 H   0  0  0  0  0  0  0  0  0  0  0  0
    0.8146   19.7373   -9.2593 H   0  0  0  0  0  0  0  0  0  0  0  0
    2.7427   21.2420   -8.7599 H   0  0  0  0  0  0  0  0  0  0  0  0
    0.1369   23.8278   -6.4819 H   0  0  0  0  0  0  0  0  0  0  0  0
   -1.4566   23.8691   -5.4036 H   0  0  0  0  0  0  0  0  0  0  0  0
   -3.7137   24.3939   -4.5104 H   0  0  0  0  0  0  0  0  0  0  0  0
  -10.2127   26.6685   -1.4488 H   0  0  0  0  0  0  0  0  0  0  0  0
  -10.4314   24.8934   -1.9297 H   0  0  0  0  0  0  0  0  0  0  0  0
  -12.0132   25.9652   -0.1674 H   0  0  0  0  0  0  0  0  0  0  0  0
  -13.5478   27.2181    1.3483 H   0  0  0  0  0  0  0  0  0  0  0  0
  -10.3979   27.5059    4.2987 H   0  0  0  0  0  0  0  0  0  0  0  0
   -8.8628   26.2517    2.7818 H   0  0  0  0  0  0  0  0  0  0  0  0
   -9.4700   34.4230   -4.3220 H   0  0  0  0  0  0  0  0  0  0  0  0
  -10.0250   32.8220   -4.4610 H   0  0  0  0  0  0  0  0  0  0  0  0
  1  2  1  0
  2  3  1  0
  3  4  1  0
  4  5  2  0
  4  6  1  0
  6  7  1  0
  6  8  1  0
  8  9  1  0
  9 10  2  0
  9 11  1  0
 11 12  1  0
 12 13  1  0
 13 14  2  0
 14 15  1  0
 15 16  1  0
 16 17  2  0
 17 18  1  0
 18 19  2  0
 19 20  1  0
 20 21  2  0
 21 22  1  0
 22 23  2  0
 23 24  1  0
 24 25  1  0
 24 26  2  0
 19 27  1  0
 27 28  2  0
 15 29  2  0
 29 30  1  0
 11 31  1  0
 31 32  1  0
 32 33  2  0
 32 34  1  6
 32 35  1  0
 35 36  2  0
 36 37  1  0
 37 38  2  0
 38 39  1  0
 38 40  1  0
 40 41  2  0
  2 42  1  0
 42 43  1  0
 42 44  2  0
 30 13  1  0
 41 35  1  0
 28 16  1  0
 26 20  1  0
  1 45  1  0
  1 46  1  0
  1 47  1  0
  2 48  1  1
  3 49  1  0
  6 50  1  1
  7 51  1  0
  7 52  1  0
  7 53  1  0
  8 54  1  0
 11 55  1  1
 12 56  1  0
 12 57  1  0
 14 58  1  0
 17 59  1  0
 18 60  1  0
 21 61  1  0
 22 62  1  0
 23 63  1  0
 26 64  1  0
 27 65  1  0
 28 66  1  0
 31 67  1  0
 31 68  1  0
 36 69  1  0
 37 70  1  0
 40 71  1  0
 41 72  1  0
 43 73  1  0
 43 74  1  0
M  CHG  1  34  -1
M  END
>  <meeko>  (7) 
{"is_sidechain": [false], "free_energy": -11.04, "intermolecular_energy": -17.972, "internal_energy": -2.029}

$$$$
4gr0_ligand
     RDKit          3D

 74 77  0  0  0  0  0  0  0  0999 V2000
   -9.0040   31.1640   -2.0680 C   0  0  0  0  0  0  0  0  0  0  0  0
   -8.3730   31.3450   -3.4480 C   0  0  2  0  0  0  0  0  0  0  0  0
   -7.7430   30.1050   -3.8960 N   0  0  0  0  0  0  0  0  0  0  0  0
   -7.7480   29.7320   -5.2250 C   0  0  0  0  0  0  0  0  0  0  0  0
   -8.3770   30.3630   -6.0780 O   0  0  0  0  0  0  0  0  0  0  0  0
   -7.0960   28.3700   -5.5620 C   0  0  2  0  0  0  0  0  0  0  0  0
   -7.5870   27.9210   -6.9360 C   0  0  0  0  0  0  0  0  0  0  0  0
   -7.3560   27.3300   -4.5810 N   0  0  0  0  0  0  0  0  0  0  0  0
   -8.6000   26.8550   -4.2870 C   0  0  0  0  0  0  0  0  0  0  0  0
   -9.6180   27.2330   -4.8650 O   0  0  0  0  0  0  0  0  0  0  0  0
   -8.6620   25.8160   -3.1720 C   0  0  2  0  0  0  0  0  0  0  0  0
   -9.0080   24.4250   -3.7190 C   0  0  0  0  0  0  0  0  0  0  0  0
   -7.9160   23.8690   -4.5670 C   0  0  0  0  0  0  0  0  0  0  0  0
   -6.5460   23.9190   -4.5090 C   0  0  0  0  0  0  0  0  0  0  0  0
   -6.1020   23.1700   -5.6320 C   0  0  0  0  0  0  0  0  0  0  0  0
   -4.7260   22.8970   -6.0610 C   0  0  0  0  0  0  0  0  0  0  0  0
   -4.4700   22.0040   -7.1120 C   0  0  0  0  0  0  0  0  0  0  0  0
   -3.1600   21.7350   -7.5260 C   0  0  0  0  0  0  0  0  0  0  0  0
   -2.0630   22.3510   -6.9050 C   0  0  0  0  0  0  0  0  0  0  0  0
   -0.6850   22.0650   -7.3380 C   0  0  0  0  0  0  0  0  0  0  0  0
   -0.3830   20.9010   -8.0680 C   0  0  0  0  0  0  0  0  0  0  0  0
    0.9230   20.6240   -8.4800 C   0  0  0  0  0  0  0  0  0  0  0  0
    1.9520   21.5080   -8.1680 C   0  0  0  0  0  0  0  0  0  0  0  0
    1.6710   22.6660   -7.4470 C   0  0  0  0  0  0  0  0  0  0  0  0
    2.9420   23.7600   -7.0620 Cl  0  0  0  0  0  0  0  0  0  0  0  0
    0.3670   22.9450   -7.0340 C   0  0  0  0  0  0  0  0  0  0  0  0
   -2.3230   23.2450   -5.8560 C   0  0  0  0  0  0  0  0  0  0  0  0
   -3.6340   23.5150   -5.4400 C   0  0  0  0  0  0  0  0  0  0  0  0
   -7.1600   22.6980   -6.3140 N   0  0  0  0  0  0  0  0  0  0  0  0
   -8.2860   23.1370   -5.6480 O   0  0  0  0  0  0  0  0  0  0  0  0
   -9.5830   26.2740   -2.0340 C   0  0  0  0  0  0  0  0  0  0  0  0
   -9.0050   25.9420   -0.3180 P   0  0  2  0  0  5  0  0  0  0  0  0
   -8.0240   24.7980   -0.4280 O   0  0  0  0  0  0  0  0  0  0  0  0
  -10.2500   25.7330    0.5400 O   0  0  0  0  0  0  0  0  0  0  0  0
   -8.1740   27.4710    0.1380 C   0  0  0  0  0  0  0  0  0  0  0  0
   -8.4740   28.1020    1.3520 C   0  0  0  0  0  0  0  0  0  0  0  0
   -7.8280   29.2850    1.7140 C   0  0  0  0  0  0  0  0  0  0  0  0
   -6.8790   29.8410    0.8580 C   0  0  0  0  0  0  0  0  0  0  0  0
   -6.0020   31.4440    1.3450 Br  0  0  0  0  0  0  0  0  0  0  0  0
   -6.5740   29.2280   -0.3570 C   0  0  0  0  0  0  0  0  0  0  0  0
   -7.2220   28.0440   -0.7150 C   0  0  0  0  0  0  0  0  0  0  0  0
   -7.4130   32.5600   -3.4240 C   0  0  0  0  0  0  0  0  0  0  0  0
   -6.9830   32.9760   -2.1970 N   0  0  0  0  0  0  0  0  0  0  0  0
   -6.9070   33.0450   -4.4370 O   0  0  0  0  0  0  0  0  0  0  0  0
   -8.2552   31.3788   -1.2914 H   0  0  0  0  0  0  0  0  0  0  0  0
   -9.8532   31.8548   -1.9596 H   0  0  0  0  0  0  0  0  0  0  0  0
   -9.3579   30.1281   -1.9596 H   0  0  0  0  0  0  0  0  0  0  0  0
   -9.1505   31.5674   -4.1936 H   0  0  0  0  0  0  0  0  0  0  0  0
   -6.9960   29.7260   -3.3070 H   0  0  0  0  0  0  0  0  0  0  0  0
   -6.0067   28.5230   -5.5536 H   0  0  0  0  0  0  0  0  0  0  0  0
   -8.3938   27.1833   -6.8140 H   0  0  0  0  0  0  0  0  0  0  0  0
   -7.9666   28.7909   -7.4920 H   0  0  0  0  0  0  0  0  0  0  0  0
   -6.7544   27.4653   -7.4920 H   0  0  0  0  0  0  0  0  0  0  0  0
   -6.5580   26.8580   -4.1390 H   0  0  0  0  0  0  0  0  0  0  0  0
   -7.6589   25.7226   -2.7304 H   0  0  0  0  0  0  0  0  0  0  0  0
   -9.1816   23.7441   -2.8727 H   0  0  0  0  0  0  0  0  0  0  0  0
   -9.9075   24.5210   -4.3448 H   0  0  0  0  0  0  0  0  0  0  0  0
   -5.9260   24.4283   -3.7565 H   0  0  0  0  0  0  0  0  0  0  0  0
   -5.3110   21.5077   -7.6184 H   0  0  0  0  0  0  0  0  0  0  0  0
   -2.9879   21.0290   -8.3518 H   0  0  0  0  0  0  0  0  0  0  0  0
   -1.1895   20.1963   -8.3189 H   0  0  0  0  0  0  0  0  0  0  0  0
    1.1378   19.7083   -9.0503 H   0  0  0  0  0  0  0  0  0  0  0  0
    2.9819   21.2931   -8.4893 H   0  0  0  0  0  0  0  0  0  0  0  0
    0.1611   23.8634   -6.4646 H   0  0  0  0  0  0  0  0  0  0  0  0
   -1.4827   23.7434   -5.3505 H   0  0  0  0  0  0  0  0  0  0  0  0
   -3.8071   24.2216   -4.6149 H   0  0  0  0  0  0  0  0  0  0  0  0
   -9.7220   27.3605   -2.1345 H   0  0  0  0  0  0  0  0  0  0  0  0
  -10.5020   25.6806   -2.1493 H   0  0  0  0  0  0  0  0  0  0  0  0
   -9.2244   27.6618    2.0251 H   0  0  0  0  0  0  0  0  0  0  0  0
   -8.0664   29.7756    2.6692 H   0  0  0  0  0  0  0  0  0  0  0  0
   -5.8270   29.6748   -1.0296 H   0  0  0  0  0  0  0  0  0  0  0  0
   -6.9834   27.5583   -1.6727 H   0  0  0  0  0  0  0  0  0  0  0  0
   -6.4460   33.8320   -2.1780 H   0  0  0  0  0  0  0  0  0  0  0  0
   -7.5900   32.8670   -1.3730 H   0  0  0  0  0  0  0  0  0  0  0  0
  1  2  1  0
  2  3  1  0
  3  4  1  0
  4  5  2  0
  4  6  1  0
  6  7  1  0
  6  8  1  0
  8  9  1  0
  9 10  2  0
  9 11  1  0
 11 12  1  0
 12 13  1  0
 13 14  2  0
 14 15  1  0
 15 16  1  0
 16 17  2  0
 17 18  1  0
 18 19  2  0
 19 20  1  0
 20 21  2  0
 21 22  1  0
 22 23  2  0
 23 24  1  0
 24 25  1  0
 24 26  2  0
 19 27  1  0
 27 28  2  0
 15 29  2  0
 29 30  1  0
 11 31  1  0
 31 32  1  0
 32 33  2  0
 32 34  1  1
 32 35  1  0
 35 36  2  0
 36 37  1  0
 37 38  2  0
 38 39  1  0
 38 40  1  0
 40 41  2  0
  2 42  1  0
 42 43  1  0
 42 44  2  0
 30 13  1  0
 41 35  1  0
 28 16  1  0
 26 20  1  0
  1 45  1  0
  1 46  1  0
  1 47  1  0
  2 48  1  6
  3 49  1  0
  6 50  1  6
  7 51  1  0
  7 52  1  0
  7 53  1  0
  8 54  1  0
 11 55  1  1
 12 56  1  0
 12 57  1  0
 14 58  1  0
 17 59  1  0
 18 60  1  0
 21 61  1  0
 22 62  1  0
 23 63  1  0
 26 64  1  0
 27 65  1  0
 28 66  1  0
 31 67  1  0
 31 68  1  0
 36 69  1  0
 37 70  1  0
 40 71  1  0
 41 72  1  0
 43 73  1  0
 43 74  1  0
M  CHG  1  34  -1
M  END
>  <meeko>  (8) 
{"is_sidechain": [false], "free_energy": -11.038, "intermolecular_energy": -18.02, "internal_energy": -1.977}

$$$$
4gr0_ligand
     RDKit          3D

 74 77  0  0  0  0  0  0  0  0999 V2000
   -8.3480   31.6050    1.1220 C   0  0  0  0  0  0  0  0  0  0  0  0
   -7.2920   31.5160    0.0200 C   0  0  2  0  0  0  0  0  0  0  0  0
   -7.7730   30.7000   -1.0930 N   0  0  0  0  0  0  0  0  0  0  0  0
   -7.0380   30.5580   -2.2530 C   0  0  0  0  0  0  0  0  0  0  0  0
   -6.0030   31.1980   -2.4530 O   0  0  0  0  0  0  0  0  0  0  0  0
   -7.6810   29.7140   -3.3780 C   0  0  2  0  0  0  0  0  0  0  0  0
   -9.0340   30.3240   -3.7340 C   0  0  0  0  0  0  0  0  0  0  0  0
   -7.8460   28.3090   -3.0450 N   0  0  0  0  0  0  0  0  0  0  0  0
   -8.4640   27.4020   -3.8550 C   0  0  0  0  0  0  0  0  0  0  0  0
   -8.8970   27.6840   -4.9710 O   0  0  0  0  0  0  0  0  0  0  0  0
   -8.6000   25.9940   -3.2850 C   0  0  2  0  0  0  0  0  0  0  0  0
   -9.0120   24.9880   -4.3670 C   0  0  0  0  0  0  0  0  0  0  0  0
   -7.8660   24.1540   -4.8240 C   0  0  0  0  0  0  0  0  0  0  0  0
   -6.5800   24.4340   -5.2140 C   0  0  0  0  0  0  0  0  0  0  0  0
   -6.0060   23.1710   -5.5250 C   0  0  0  0  0  0  0  0  0  0  0  0
   -4.6490   22.8770   -5.9970 C   0  0  0  0  0  0  0  0  0  0  0  0
   -3.5380   23.5010   -5.4120 C   0  0  0  0  0  0  0  0  0  0  0  0
   -2.2390   23.2290   -5.8580 C   0  0  0  0  0  0  0  0  0  0  0  0
   -2.0080   22.3230   -6.9030 C   0  0  0  0  0  0  0  0  0  0  0  0
   -0.6430   22.0390   -7.3760 C   0  0  0  0  0  0  0  0  0  0  0  0
   -0.3600   20.8710   -8.1070 C   0  0  0  0  0  0  0  0  0  0  0  0
    0.9340   20.5960   -8.5580 C   0  0  0  0  0  0  0  0  0  0  0  0
    1.9690   21.4860   -8.2850 C   0  0  0  0  0  0  0  0  0  0  0  0
    1.7060   22.6480   -7.5640 C   0  0  0  0  0  0  0  0  0  0  0  0
    2.9850   23.7500   -7.2280 Cl  0  0  0  0  0  0  0  0  0  0  0  0
    0.4150   22.9260   -7.1120 C   0  0  0  0  0  0  0  0  0  0  0  0
   -3.1210   21.6990   -7.4870 C   0  0  0  0  0  0  0  0  0  0  0  0
   -4.4220   21.9710   -7.0410 C   0  0  0  0  0  0  0  0  0  0  0  0
   -6.9080   22.1960   -5.3200 N   0  0  0  0  0  0  0  0  0  0  0  0
   -8.0640   22.8130   -4.8860 O   0  0  0  0  0  0  0  0  0  0  0  0
   -9.5110   25.9770   -2.0510 C   0  0  0  0  0  0  0  0  0  0  0  0
   -8.6870   25.7950   -0.4160 P   0  0  2  0  0  5  0  0  0  0  0  0
   -7.4800   26.7030   -0.4600 O   0  0  0  0  0  0  0  0  0  0  0  0
   -8.4500   24.3040   -0.1990 O   0  0  0  0  0  0  0  0  0  0  0  0
   -9.9240   26.4110    0.7370 C   0  0  0  0  0  0  0  0  0  0  0  0
   -9.5660   27.3300    1.7310 C   0  0  0  0  0  0  0  0  0  0  0  0
  -10.5220   27.8170    2.6240 C   0  0  0  0  0  0  0  0  0  0  0  0
  -11.8420   27.3810    2.5230 C   0  0  0  0  0  0  0  0  0  0  0  0
  -13.1400   28.0380    3.7310 Br  0  0  0  0  0  0  0  0  0  0  0  0
  -12.2130   26.4620    1.5420 C   0  0  0  0  0  0  0  0  0  0  0  0
  -11.2530   25.9780    0.6510 C   0  0  0  0  0  0  0  0  0  0  0  0
   -5.9530   31.0240    0.6240 C   0  0  0  0  0  0  0  0  0  0  0  0
   -4.8980   31.8860    0.5540 N   0  0  0  0  0  0  0  0  0  0  0  0
   -5.8470   29.9920    1.2880 O   0  0  0  0  0  0  0  0  0  0  0  0
   -7.8564   31.5636    2.1051 H   0  0  0  0  0  0  0  0  0  0  0  0
   -8.8983   32.5527    1.0269 H   0  0  0  0  0  0  0  0  0  0  0  0
   -9.0491   30.7628    1.0269 H   0  0  0  0  0  0  0  0  0  0  0  0
   -7.1025   32.5125   -0.4055 H   0  0  0  0  0  0  0  0  0  0  0  0
   -8.4390   29.9570   -0.8680 H   0  0  0  0  0  0  0  0  0  0  0  0
   -6.9900   29.7392   -4.2335 H   0  0  0  0  0  0  0  0  0  0  0  0
   -9.5796   30.5700   -2.8110 H   0  0  0  0  0  0  0  0  0  0  0  0
   -8.8796   31.2396   -4.3238 H   0  0  0  0  0  0  0  0  0  0  0  0
   -9.6179   29.6021   -4.3238 H   0  0  0  0  0  0  0  0  0  0  0  0
   -7.4020   27.9490   -2.1920 H   0  0  0  0  0  0  0  0  0  0  0  0
   -7.6106   25.6661   -2.9335 H   0  0  0  0  0  0  0  0  0  0  0  0
   -9.7906   24.3271   -3.9584 H   0  0  0  0  0  0  0  0  0  0  0  0
   -9.3834   25.5558   -5.2328 H   0  0  0  0  0  0  0  0  0  0  0  0
   -6.0982   25.4211   -5.2731 H   0  0  0  0  0  0  0  0  0  0  0  0
   -3.6894   24.2156   -4.5896 H   0  0  0  0  0  0  0  0  0  0  0  0
   -1.3861   23.7341   -5.3811 H   0  0  0  0  0  0  0  0  0  0  0  0
   -1.1713   20.1617   -8.3275 H   0  0  0  0  0  0  0  0  0  0  0  0
    1.1344   19.6770   -9.1283 H   0  0  0  0  0  0  0  0  0  0  0  0
    2.9891   21.2725   -8.6369 H   0  0  0  0  0  0  0  0  0  0  0  0
    0.2237   23.8482   -6.5437 H   0  0  0  0  0  0  0  0  0  0  0  0
   -2.9700   20.9839   -8.3091 H   0  0  0  0  0  0  0  0  0  0  0  0
   -5.2757   21.4664   -7.5171 H   0  0  0  0  0  0  0  0  0  0  0  0
  -10.0717   26.9233   -2.0379 H   0  0  0  0  0  0  0  0  0  0  0  0
  -10.1317   25.0758   -2.1631 H   0  0  0  0  0  0  0  0  0  0  0  0
   -8.5231   27.6709    1.8088 H   0  0  0  0  0  0  0  0  0  0  0  0
  -10.2356   28.5399    3.4021 H   0  0  0  0  0  0  0  0  0  0  0  0
  -13.2561   26.1203    1.4705 H   0  0  0  0  0  0  0  0  0  0  0  0
  -11.5424   25.2522   -0.1232 H   0  0  0  0  0  0  0  0  0  0  0  0
   -4.0020   31.5220    0.8500 H   0  0  0  0  0  0  0  0  0  0  0  0
   -4.8200   32.5470   -0.2320 H   0  0  0  0  0  0  0  0  0  0  0  0
  1  2  1  0
  2  3  1  0
  3  4  1  0
  4  5  2  0
  4  6  1  0
  6  7  1  0
  6  8  1  0
  8  9  1  0
  9 10  2  0
  9 11  1  0
 11 12  1  0
 12 13  1  0
 13 14  2  0
 14 15  1  0
 15 16  1  0
 16 17  2  0
 17 18  1  0
 18 19  2  0
 19 20  1  0
 20 21  2  0
 21 22  1  0
 22 23  2  0
 23 24  1  0
 24 25  1  0
 24 26  2  0
 19 27  1  0
 27 28  2  0
 15 29  2  0
 29 30  1  0
 11 31  1  0
 31 32  1  0
 32 33  2  0
 32 34  1  1
 32 35  1  0
 35 36  2  0
 36 37  1  0
 37 38  2  0
 38 39  1  0
 38 40  1  0
 40 41  2  0
  2 42  1  0
 42 43  1  0
 42 44  2  0
 30 13  1  0
 41 35  1  0
 28 16  1  0
 26 20  1  0
  1 45  1  0
  1 46  1  0
  1 47  1  0
  2 48  1  6
  3 49  1  0
  6 50  1  6
  7 51  1  0
  7 52  1  0
  7 53  1  0
  8 54  1  0
 11 55  1  1
 12 56  1  0
 12 57  1  0
 14 58  1  0
 17 59  1  0
 18 60  1  0
 21 61  1  0
 22 62  1  0
 23 63  1  0
 26 64  1  0
 27 65  1  0
 28 66  1  0
 31 67  1  0
 31 68  1  0
 36 69  1  0
 37 70  1  0
 40 71  1  0
 41 72  1  0
 43 73  1  0
 43 74  1  0
M  CHG  1  34  -1
M  END
>  <meeko>  (9) 
{"is_sidechain": [false], "free_energy": -11.035, "intermolecular_energy": -18.229, "internal_energy": -1.764}

$$$$
