1r5y_ligand
     RDKit          3D

 21 22  0  0  0  0  0  0  0  0999 V2000
   19.3520   16.9170   18.3060 N   0  0  0  0  0  0  0  0  0  0  0  0
   18.3260   16.8840   19.2570 C   0  0  0  0  0  0  0  0  0  0  0  0
   17.0370   16.4860   18.8870 C   0  0  0  0  0  0  0  0  0  0  0  0
   16.0290   16.3320   19.8460 C   0  0  0  0  0  0  0  0  0  0  0  0
   16.3020   16.5330   21.1980 C   0  0  0  0  0  0  0  0  0  0  0  0
   15.2700   16.3680   22.1360 N   0  0  0  0  0  0  0  0  0  0  0  0
   15.5530   16.5260   23.3890 C   0  0  0  0  0  0  0  0  0  0  0  0
   14.5940   16.3730   24.3340 N   0  0  0  0  0  0  0  0  0  0  0  0
   16.8030   16.8400   23.8310 N   0  0  0  0  0  0  0  0  0  0  0  0
   17.8720   17.0540   22.9990 C   0  0  0  0  0  0  0  0  0  0  0  0
   18.9740   17.3830   23.4240 O   0  0  0  0  0  0  0  0  0  0  0  0
   17.6040   16.8730   21.5650 C   0  0  0  0  0  0  0  0  0  0  0  0
   18.6180   17.0300   20.6130 C   0  0  0  0  0  0  0  0  0  0  0  0
   20.2850   16.9640   18.7040 H   0  0  0  0  0  0  0  0  0  0  0  0
   19.2120   17.5990   17.5680 H   0  0  0  0  0  0  0  0  0  0  0  0
   16.8124   16.2914   17.8279 H   0  0  0  0  0  0  0  0  0  0  0  0
   15.0137   16.0502   19.5302 H   0  0  0  0  0  0  0  0  0  0  0  0
   14.0950   15.4960   24.2140 H   0  0  0  0  0  0  0  0  0  0  0  0
   14.8890   16.5180   25.2900 H   0  0  0  0  0  0  0  0  0  0  0  0
   16.9630   17.0110   24.8100 H   0  0  0  0  0  0  0  0  0  0  0  0
   19.6430   17.2680   20.9336 H   0  0  0  0  0  0  0  0  0  0  0  0
  1  2  1  0
  2  3  2  0
  3  4  1  0
  4  5  2  0
  5  6  1  0
  6  7  2  0
  7  8  1  0
  7  9  1  0
  9 10  1  0
 10 11  2  0
 10 12  1  0
 12 13  2  0
 13  2  1  0
 12  5  1  0
  1 14  1  0
  1 15  1  0
  3 16  1  0
  4 17  1  0
  8 18  1  0
  8 19  1  0
  9 20  1  0
 13 21  1  0
M  END
>  <meeko>  (1) 
{"is_sidechain": [false], "free_energy": -7.406, "intermolecular_energy": -7.839, "internal_energy": 0.0}

$$$$
1r5y_ligand
     RDKit          3D

 21 22  0  0  0  0  0  0  0  0999 V2000
   15.0870   16.3200   24.2080 N   0  0  0  0  0  0  0  0  0  0  0  0
   15.9740   16.6010   23.1640 C   0  0  0  0  0  0  0  0  0  0  0  0
   17.3200   16.8670   23.4360 C   0  0  0  0  0  0  0  0  0  0  0  0
   18.2450   17.0320   22.3980 C   0  0  0  0  0  0  0  0  0  0  0  0
   17.8480   16.8930   21.0690 C   0  0  0  0  0  0  0  0  0  0  0  0
   18.8000   17.0620   20.0490 N   0  0  0  0  0  0  0  0  0  0  0  0
   18.4180   16.8950   18.8250 C   0  0  0  0  0  0  0  0  0  0  0  0
   19.2990   17.0420   17.8060 N   0  0  0  0  0  0  0  0  0  0  0  0
   17.1420   16.5620   18.4860 N   0  0  0  0  0  0  0  0  0  0  0  0
   16.1290   16.4050   19.3980 C   0  0  0  0  0  0  0  0  0  0  0  0
   14.9790   16.1520   19.0600 O   0  0  0  0  0  0  0  0  0  0  0  0
   16.5160   16.5710   20.8070 C   0  0  0  0  0  0  0  0  0  0  0  0
   15.5850   16.4050   21.8380 C   0  0  0  0  0  0  0  0  0  0  0  0
   14.2360   16.8740   24.1910 H   0  0  0  0  0  0  0  0  0  0  0  0
   15.5190   16.3030   25.1260 H   0  0  0  0  0  0  0  0  0  0  0  0
   17.6565   16.9477   24.4801 H   0  0  0  0  0  0  0  0  0  0  0  0
   19.2923   17.2730   22.6328 H   0  0  0  0  0  0  0  0  0  0  0  0
   20.0920   17.6140   18.0830 H   0  0  0  0  0  0  0  0  0  0  0  0
   19.5850   16.1890   17.3430 H   0  0  0  0  0  0  0  0  0  0  0  0
   16.8770   16.5000   17.5160 H   0  0  0  0  0  0  0  0  0  0  0  0
   14.5485   16.1206   21.6040 H   0  0  0  0  0  0  0  0  0  0  0  0
  1  2  1  0
  2  3  2  0
  3  4  1  0
  4  5  2  0
  5  6  1  0
  6  7  2  0
  7  8  1  0
  7  9  1  0
  9 10  1  0
 10 11  2  0
 10 12  1  0
 12 13  2  0
 13  2  1  0
 12  5  1  0
  1 14  1  0
  1 15  1  0
  3 16  1  0
  4 17  1  0
  8 18  1  0
  8 19  1  0
  9 20  1  0
 13 21  1  0
M  END
>  <meeko>  (2) 
{"is_sidechain": [false], "free_energy": -6.916, "intermolecular_energy": -7.32, "internal_energy": 0.0}

$$$$
1r5y_ligand
     RDKit          3D

 21 22  0  0  0  0  0  0  0  0999 V2000
   12.6190   15.8510   18.1720 N   0  0  0  0  0  0  0  0  0  0  0  0
   14.0020   16.0030   18.3110 C   0  0  0  0  0  0  0  0  0  0  0  0
   14.7980   16.2630   17.1900 C   0  0  0  0  0  0  0  0  0  0  0  0
   16.1640   16.5360   17.3260 C   0  0  0  0  0  0  0  0  0  0  0  0
   16.7520   16.5950   18.5880 C   0  0  0  0  0  0  0  0  0  0  0  0
   18.1250   16.8730   18.6920 N   0  0  0  0  0  0  0  0  0  0  0  0
   18.6430   16.9570   19.8740 C   0  0  0  0  0  0  0  0  0  0  0  0
   19.9620   17.2290   20.0270 N   0  0  0  0  0  0  0  0  0  0  0  0
   17.9170   16.7900   21.0140 N   0  0  0  0  0  0  0  0  0  0  0  0
   16.5800   16.4830   21.0260 C   0  0  0  0  0  0  0  0  0  0  0  0
   15.9630   16.2910   22.0670 O   0  0  0  0  0  0  0  0  0  0  0  0
   15.9410   16.3910   19.7050 C   0  0  0  0  0  0  0  0  0  0  0  0
   14.5740   16.1170   19.5790 C   0  0  0  0  0  0  0  0  0  0  0  0
   12.3020   15.7970   17.2090 H   0  0  0  0  0  0  0  0  0  0  0  0
   12.0720   16.5040   18.7230 H   0  0  0  0  0  0  0  0  0  0  0  0
   14.3440   16.2527   16.1881 H   0  0  0  0  0  0  0  0  0  0  0  0
   16.7784   16.7054   16.4294 H   0  0  0  0  0  0  0  0  0  0  0  0
   20.1900   17.4100   21.0010 H   0  0  0  0  0  0  0  0  0  0  0  0
   20.6010   16.5720   19.6000 H   0  0  0  0  0  0  0  0  0  0  0  0
   18.3750   16.8060   21.9110 H   0  0  0  0  0  0  0  0  0  0  0  0
   13.9519   15.9918   20.4775 H   0  0  0  0  0  0  0  0  0  0  0  0
  1  2  1  0
  2  3  2  0
  3  4  1  0
  4  5  2  0
  5  6  1  0
  6  7  2  0
  7  8  1  0
  7  9  1  0
  9 10  1  0
 10 11  2  0
 10 12  1  0
 12 13  2  0
 13  2  1  0
 12  5  1  0
  1 14  1  0
  1 15  1  0
  3 16  1  0
  4 17  1  0
  8 18  1  0
  8 19  1  0
  9 20  1  0
 13 21  1  0
M  END
>  <meeko>  (3) 
{"is_sidechain": [false], "free_energy": -5.749, "intermolecular_energy": -6.085, "internal_energy": 0.0}

$$$$
1r5y_ligand
     RDKit          3D

 21 22  0  0  0  0  0  0  0  0999 V2000
   19.2870   17.2060   17.1610 N   0  0  0  0  0  0  0  0  0  0  0  0
   18.8450   17.0330   18.4770 C   0  0  0  0  0  0  0  0  0  0  0  0
   19.6650   17.4030   19.5480 C   0  0  0  0  0  0  0  0  0  0  0  0
   19.1950   17.3480   20.8660 C   0  0  0  0  0  0  0  0  0  0  0  0
   17.8830   16.9630   21.1330 C   0  0  0  0  0  0  0  0  0  0  0  0
   17.4400   16.9200   22.4660 N   0  0  0  0  0  0  0  0  0  0  0  0
   16.2080   16.5920   22.6890 C   0  0  0  0  0  0  0  0  0  0  0  0
   15.7310   16.5420   23.9560 N   0  0  0  0  0  0  0  0  0  0  0  0
   15.3300   16.2920   21.6920 N   0  0  0  0  0  0  0  0  0  0  0  0
   15.6660   16.2720   20.3630 C   0  0  0  0  0  0  0  0  0  0  0  0
   14.8670   15.9500   19.4920 O   0  0  0  0  0  0  0  0  0  0  0  0
   17.0530   16.6510   20.0550 C   0  0  0  0  0  0  0  0  0  0  0  0
   17.5150   16.7020   18.7350 C   0  0  0  0  0  0  0  0  0  0  0  0
   20.1510   17.7330   17.0790 H   0  0  0  0  0  0  0  0  0  0  0  0
   18.5710   17.5370   16.5230 H   0  0  0  0  0  0  0  0  0  0  0  0
   20.6931   17.7418   19.3523 H   0  0  0  0  0  0  0  0  0  0  0  0
   19.8667   17.6107   21.6966 H   0  0  0  0  0  0  0  0  0  0  0  0
   14.8610   17.0610   24.0440 H   0  0  0  0  0  0  0  0  0  0  0  0
   15.6700   15.6210   24.3700 H   0  0  0  0  0  0  0  0  0  0  0  0
   14.3970   15.9860   21.9170 H   0  0  0  0  0  0  0  0  0  0  0  0
   16.8305   16.4815   17.9026 H   0  0  0  0  0  0  0  0  0  0  0  0
  1  2  1  0
  2  3  2  0
  3  4  1  0
  4  5  2  0
  5  6  1  0
  6  7  2  0
  7  8  1  0
  7  9  1  0
  9 10  1  0
 10 11  2  0
 10 12  1  0
 12 13  2  0
 13  2  1  0
 12  5  1  0
  1 14  1  0
  1 15  1  0
  3 16  1  0
  4 17  1  0
  8 18  1  0
  8 19  1  0
  9 20  1  0
 13 21  1  0
M  END
>  <meeko>  (4) 
{"is_sidechain": [false], "free_energy": -5.541, "intermolecular_energy": -5.865, "internal_energy": 0.0}

$$$$
1r5y_ligand
     RDKit          3D

 21 22  0  0  0  0  0  0  0  0999 V2000
   18.4610   17.3780   23.9310 N   0  0  0  0  0  0  0  0  0  0  0  0
   17.7140   16.9860   22.8150 C   0  0  0  0  0  0  0  0  0  0  0  0
   16.3460   16.7220   22.9420 C   0  0  0  0  0  0  0  0  0  0  0  0
   15.5590   16.4460   21.8170 C   0  0  0  0  0  0  0  0  0  0  0  0
   16.1180   16.4700   20.5410 C   0  0  0  0  0  0  0  0  0  0  0  0
   15.3030   16.1910   19.4310 N   0  0  0  0  0  0  0  0  0  0  0  0
   15.8340   16.2520   18.2530 C   0  0  0  0  0  0  0  0  0  0  0  0
   15.0880   15.9970   17.1510 N   0  0  0  0  0  0  0  0  0  0  0  0
   17.1400   16.5760   18.0460 N   0  0  0  0  0  0  0  0  0  0  0  0
   18.0290   16.8340   19.0580 C   0  0  0  0  0  0  0  0  0  0  0  0
   19.2110   17.0760   18.8430 O   0  0  0  0  0  0  0  0  0  0  0  0
   17.4710   16.7910   20.4170 C   0  0  0  0  0  0  0  0  0  0  0  0
   18.2640   17.0680   21.5360 C   0  0  0  0  0  0  0  0  0  0  0  0
   19.2120   18.0280   23.7210 H   0  0  0  0  0  0  0  0  0  0  0  0
   18.7690   16.6080   24.5160 H   0  0  0  0  0  0  0  0  0  0  0  0
   15.8821   16.7313   23.9394 H   0  0  0  0  0  0  0  0  0  0  0  0
   14.4922   16.2086   21.9416 H   0  0  0  0  0  0  0  0  0  0  0  0
   14.2390   16.5560   17.1420 H   0  0  0  0  0  0  0  0  0  0  0  0
   15.5790   16.0330   16.2670 H   0  0  0  0  0  0  0  0  0  0  0  0
   17.5240   16.5540   17.1150 H   0  0  0  0  0  0  0  0  0  0  0  0
   19.3194   17.3500   21.4072 H   0  0  0  0  0  0  0  0  0  0  0  0
  1  2  1  0
  2  3  2  0
  3  4  1  0
  4  5  2  0
  5  6  1  0
  6  7  2  0
  7  8  1  0
  7  9  1  0
  9 10  1  0
 10 11  2  0
 10 12  1  0
 12 13  2  0
 13  2  1  0
 12  5  1  0
  1 14  1  0
  1 15  1  0
  3 16  1  0
  4 17  1  0
  8 18  1  0
  8 19  1  0
  9 20  1  0
 13 21  1  0
M  END
>  <meeko>  (5) 
{"is_sidechain": [false], "free_energy": -5.108, "intermolecular_energy": -5.406, "internal_energy": 0.0}

$$$$
