4de3_ligand
     RDKit          3D

 31 33  0  0  0  0  0  0  0  0999 V2000
   -8.9810   56.0340   13.3680 O   0  0  0  0  0  0  0  0  0  0  0  0
   -9.0240   56.0940   12.1460 C   0  0  0  0  0  0  0  0  0  0  0  0
   -8.4710   55.1960   11.2490 N   0  0  0  0  0  0  0  0  0  0  0  0
   -7.6760   54.0690   11.5480 C   0  0  0  0  0  0  0  0  0  0  0  0
   -8.1640   52.7630   11.6030 C   0  0  0  0  0  0  0  0  0  0  0  0
   -7.3110   51.7010   11.9140 C   0  0  0  0  0  0  0  0  0  0  0  0
   -5.9610   51.9360   12.1730 C   0  0  0  0  0  0  0  0  0  0  0  0
   -5.4490   53.2380   12.1270 C   0  0  0  0  0  0  0  0  0  0  0  0
   -4.0420   53.4980   12.3990 C   0  0  0  0  0  0  0  0  0  0  0  0
   -3.0760   53.4890   11.4160 N   0  0  0  0  0  0  0  0  0  0  0  0
   -1.9220   53.7610   12.0070 N   0  0  0  0  0  0  0  0  0  0  0  0
   -2.2350   53.9200   13.2970 N   0  0  0  0  0  0  0  0  0  0  0  0
   -3.5290   53.7720   13.6130 N   0  0  0  0  0  0  0  0  0  0  0  0
   -6.3180   54.2970   11.8140 C   0  0  0  0  0  0  0  0  0  0  0  0
   -9.7780   57.2170   11.5230 C   0  0  0  0  0  0  0  0  0  0  0  0
   -9.3510   57.6970   10.2770 C   0  0  0  0  0  0  0  0  0  0  0  0
  -10.0310   58.7470    9.6570 C   0  0  0  0  0  0  0  0  0  0  0  0
  -11.1450   59.3140   10.2750 C   0  0  0  0  0  0  0  0  0  0  0  0
  -11.5800   58.8220   11.5060 C   0  0  0  0  0  0  0  0  0  0  0  0
  -13.1040   59.5800   12.3290 Br  0  0  0  0  0  0  0  0  0  0  0  0
  -10.9070   57.7740   12.1340 C   0  0  0  0  0  0  0  0  0  0  0  0
   -8.7120   55.3130   10.2730 H   0  0  0  0  0  0  0  0  0  0  0  0
   -9.2274   52.5682   11.4001 H   0  0  0  0  0  0  0  0  0  0  0  0
   -7.7060   50.6752   11.9547 H   0  0  0  0  0  0  0  0  0  0  0  0
   -5.2953   51.0942   12.4146 H   0  0  0  0  0  0  0  0  0  0  0  0
   -1.5290   54.1400   13.9940 H   0  0  0  0  0  0  0  0  0  0  0  0
   -5.9258   55.3240   11.7769 H   0  0  0  0  0  0  0  0  0  0  0  0
   -8.4768   57.2446    9.7859 H   0  0  0  0  0  0  0  0  0  0  0  0
   -9.6886   59.1263    8.6829 H   0  0  0  0  0  0  0  0  0  0  0  0
  -11.6791   60.1464    9.7936 H   0  0  0  0  0  0  0  0  0  0  0  0
  -11.2608   57.3885   13.1016 H   0  0  0  0  0  0  0  0  0  0  0  0
  1  2  2  0
  2  3  1  0
  3  4  1  0
  4  5  2  0
  5  6  1  0
  6  7  2  0
  7  8  1  0
  8  9  1  0
  9 10  1  0
 10 11  2  0
 11 12  1  0
 12 13  1  0
  8 14  2  0
  2 15  1  0
 15 16  2  0
 16 17  1  0
 17 18  2  0
 18 19  1  0
 19 20  1  0
 19 21  2  0
 14  4  1  0
 21 15  1  0
 13  9  2  0
  3 22  1  0
  5 23  1  0
  6 24  1  0
  7 25  1  0
 12 26  1  0
 14 27  1  0
 16 28  1  0
 17 29  1  0
 18 30  1  0
 21 31  1  0
M  END
>  <meeko>  (1) 
{"is_sidechain": [false], "free_energy": -8.456, "intermolecular_energy": -9.939, "internal_energy": -0.491}

$$$$
4de3_ligand
     RDKit          3D

 31 33  0  0  0  0  0  0  0  0999 V2000
   -8.7930   55.9820   13.4510 O   0  0  0  0  0  0  0  0  0  0  0  0
   -8.4700   55.7830   12.2870 C   0  0  0  0  0  0  0  0  0  0  0  0
   -7.4960   54.9120   11.8310 N   0  0  0  0  0  0  0  0  0  0  0  0
   -6.6180   54.1280   12.6100 C   0  0  0  0  0  0  0  0  0  0  0  0
   -6.9840   53.4930   13.7970 C   0  0  0  0  0  0  0  0  0  0  0  0
   -6.0500   52.7400   14.5140 C   0  0  0  0  0  0  0  0  0  0  0  0
   -4.7410   52.6160   14.0500 C   0  0  0  0  0  0  0  0  0  0  0  0
   -4.3490   53.2480   12.8630 C   0  0  0  0  0  0  0  0  0  0  0  0
   -2.9840   53.1290   12.3690 C   0  0  0  0  0  0  0  0  0  0  0  0
   -2.4920   53.9000   11.3380 N   0  0  0  0  0  0  0  0  0  0  0  0
   -1.2330   53.5350   11.1500 N   0  0  0  0  0  0  0  0  0  0  0  0
   -1.0220   52.5770   12.0590 N   0  0  0  0  0  0  0  0  0  0  0  0
   -2.0620   52.2730   12.8470 N   0  0  0  0  0  0  0  0  0  0  0  0
   -5.2980   54.0030   12.1520 C   0  0  0  0  0  0  0  0  0  0  0  0
   -9.2100   56.5100   11.2170 C   0  0  0  0  0  0  0  0  0  0  0  0
  -10.1550   57.4730   11.5970 C   0  0  0  0  0  0  0  0  0  0  0  0
  -10.8690   58.1770   10.6260 C   0  0  0  0  0  0  0  0  0  0  0  0
  -10.6340   57.9310    9.2740 C   0  0  0  0  0  0  0  0  0  0  0  0
   -9.6780   56.9870    8.8980 C   0  0  0  0  0  0  0  0  0  0  0  0
   -9.3460   56.6720    7.0640 Br  0  0  0  0  0  0  0  0  0  0  0  0
   -8.9600   56.2760    9.8600 C   0  0  0  0  0  0  0  0  0  0  0  0
   -7.4440   54.7620   10.8320 H   0  0  0  0  0  0  0  0  0  0  0  0
   -8.0143   53.5855   14.1711 H   0  0  0  0  0  0  0  0  0  0  0  0
   -6.3490   52.2429   15.4486 H   0  0  0  0  0  0  0  0  0  0  0  0
   -4.0128   52.0191   14.6187 H   0  0  0  0  0  0  0  0  0  0  0  0
   -0.1240   52.1090   12.1410 H   0  0  0  0  0  0  0  0  0  0  0  0
   -5.0001   54.5049   11.2196 H   0  0  0  0  0  0  0  0  0  0  0  0
  -10.3344   57.6745   12.6634 H   0  0  0  0  0  0  0  0  0  0  0  0
  -11.6167   58.9255   10.9273 H   0  0  0  0  0  0  0  0  0  0  0  0
  -11.2002   58.4791    8.5066 H   0  0  0  0  0  0  0  0  0  0  0  0
   -8.2039   55.5378    9.5545 H   0  0  0  0  0  0  0  0  0  0  0  0
  1  2  2  0
  2  3  1  0
  3  4  1  0
  4  5  2  0
  5  6  1  0
  6  7  2  0
  7  8  1  0
  8  9  1  0
  9 10  1  0
 10 11  2  0
 11 12  1  0
 12 13  1  0
  8 14  2  0
  2 15  1  0
 15 16  2  0
 16 17  1  0
 17 18  2  0
 18 19  1  0
 19 20  1  0
 19 21  2  0
 14  4  1  0
 21 15  1  0
 13  9  2  0
  3 22  1  0
  5 23  1  0
  6 24  1  0
  7 25  1  0
 12 26  1  0
 14 27  1  0
 16 28  1  0
 17 29  1  0
 18 30  1  0
 21 31  1  0
M  END
>  <meeko>  (2) 
{"is_sidechain": [false], "free_energy": -7.712, "intermolecular_energy": -9.307, "internal_energy": -0.248}

$$$$
4de3_ligand
     RDKit          3D

 31 33  0  0  0  0  0  0  0  0999 V2000
   -1.9350   53.4830   12.5640 O   0  0  0  0  0  0  0  0  0  0  0  0
   -2.5120   53.1050   11.5520 C   0  0  0  0  0  0  0  0  0  0  0  0
   -3.8790   52.9960   11.3650 N   0  0  0  0  0  0  0  0  0  0  0  0
   -4.8930   53.2200   12.3210 C   0  0  0  0  0  0  0  0  0  0  0  0
   -4.9840   52.5390   13.5350 C   0  0  0  0  0  0  0  0  0  0  0  0
   -6.0250   52.8160   14.4260 C   0  0  0  0  0  0  0  0  0  0  0  0
   -6.9850   53.7760   14.1080 C   0  0  0  0  0  0  0  0  0  0  0  0
   -6.9170   54.4700   12.8940 C   0  0  0  0  0  0  0  0  0  0  0  0
   -7.9150   55.4730   12.5480 C   0  0  0  0  0  0  0  0  0  0  0  0
   -8.9120   55.8660   13.4140 N   0  0  0  0  0  0  0  0  0  0  0  0
   -9.6320   56.7810   12.7840 N   0  0  0  0  0  0  0  0  0  0  0  0
   -9.0500   56.8990   11.5860 N   0  0  0  0  0  0  0  0  0  0  0  0
   -7.9820   56.1200   11.3700 N   0  0  0  0  0  0  0  0  0  0  0  0
   -5.8650   54.1810   12.0070 C   0  0  0  0  0  0  0  0  0  0  0  0
   -1.6870   52.7560   10.3610 C   0  0  0  0  0  0  0  0  0  0  0  0
   -0.4720   53.4280   10.1710 C   0  0  0  0  0  0  0  0  0  0  0  0
    0.3310   53.1300    9.0700 C   0  0  0  0  0  0  0  0  0  0  0  0
   -0.0700   52.1510    8.1610 C   0  0  0  0  0  0  0  0  0  0  0  0
   -1.2690   51.4690    8.3630 C   0  0  0  0  0  0  0  0  0  0  0  0
   -1.7990   50.1270    7.1410 Br  0  0  0  0  0  0  0  0  0  0  0  0
   -2.0810   51.7600    9.4600 C   0  0  0  0  0  0  0  0  0  0  0  0
   -4.2010   52.7990   10.4260 H   0  0  0  0  0  0  0  0  0  0  0  0
   -4.2317   51.7790   13.7929 H   0  0  0  0  0  0  0  0  0  0  0  0
   -6.0870   52.2746   15.3815 H   0  0  0  0  0  0  0  0  0  0  0  0
   -7.8003   53.9892   14.8149 H   0  0  0  0  0  0  0  0  0  0  0  0
   -9.4020   57.5430   10.8840 H   0  0  0  0  0  0  0  0  0  0  0  0
   -5.8032   54.7185   11.0493 H   0  0  0  0  0  0  0  0  0  0  0  0
   -0.1504   54.1933   10.8927 H   0  0  0  0  0  0  0  0  0  0  0  0
    1.2794   53.6664    8.9188 H   0  0  0  0  0  0  0  0  0  0  0  0
    0.5574   51.9179    7.2881 H   0  0  0  0  0  0  0  0  0  0  0  0
   -3.0219   51.2117    9.6152 H   0  0  0  0  0  0  0  0  0  0  0  0
  1  2  2  0
  2  3  1  0
  3  4  1  0
  4  5  2  0
  5  6  1  0
  6  7  2  0
  7  8  1  0
  8  9  1  0
  9 10  1  0
 10 11  2  0
 11 12  1  0
 12 13  1  0
  8 14  2  0
  2 15  1  0
 15 16  2  0
 16 17  1  0
 17 18  2  0
 18 19  1  0
 19 20  1  0
 19 21  2  0
 14  4  1  0
 21 15  1  0
 13  9  2  0
  3 22  1  0
  5 23  1  0
  6 24  1  0
  7 25  1  0
 12 26  1  0
 14 27  1  0
 16 28  1  0
 17 29  1  0
 18 30  1  0
 21 31  1  0
M  END
>  <meeko>  (3) 
{"is_sidechain": [false], "free_energy": -7.43, "intermolecular_energy": -8.81, "internal_energy": -0.414}

$$$$
4de3_ligand
     RDKit          3D

 31 33  0  0  0  0  0  0  0  0999 V2000
   -8.9990   55.7500   13.6460 O   0  0  0  0  0  0  0  0  0  0  0  0
   -8.5950   55.8410   12.4930 C   0  0  0  0  0  0  0  0  0  0  0  0
   -7.5630   55.1240   11.9140 N   0  0  0  0  0  0  0  0  0  0  0  0
   -6.7080   54.1960   12.5450 C   0  0  0  0  0  0  0  0  0  0  0  0
   -6.0630   54.4300   13.7600 C   0  0  0  0  0  0  0  0  0  0  0  0
   -5.2260   53.4590   14.3160 C   0  0  0  0  0  0  0  0  0  0  0  0
   -5.0250   52.2450   13.6610 C   0  0  0  0  0  0  0  0  0  0  0  0
   -5.6580   51.9880   12.4380 C   0  0  0  0  0  0  0  0  0  0  0  0
   -5.4540   50.7250   11.7420 C   0  0  0  0  0  0  0  0  0  0  0  0
   -4.2990   49.9850   11.8570 N   0  0  0  0  0  0  0  0  0  0  0  0
   -4.4510   48.9100   11.0990 N   0  0  0  0  0  0  0  0  0  0  0  0
   -5.6710   49.0450   10.5670 N   0  0  0  0  0  0  0  0  0  0  0  0
   -6.3500   50.1450   10.9200 N   0  0  0  0  0  0  0  0  0  0  0  0
   -6.4970   52.9730   11.8900 C   0  0  0  0  0  0  0  0  0  0  0  0
   -9.2930   56.7860   11.5770 C   0  0  0  0  0  0  0  0  0  0  0  0
   -8.9380   56.7840   10.2210 C   0  0  0  0  0  0  0  0  0  0  0  0
   -9.5680   57.6520    9.3280 C   0  0  0  0  0  0  0  0  0  0  0  0
  -10.5620   58.5180    9.7840 C   0  0  0  0  0  0  0  0  0  0  0  0
  -10.9280   58.5040   11.1300 C   0  0  0  0  0  0  0  0  0  0  0  0
  -12.2920   59.6630   11.7400 Br  0  0  0  0  0  0  0  0  0  0  0  0
  -10.3040   57.6410   12.0310 C   0  0  0  0  0  0  0  0  0  0  0  0
   -7.4430   55.2180   10.9140 H   0  0  0  0  0  0  0  0  0  0  0  0
   -6.2145   55.3854   14.2837 H   0  0  0  0  0  0  0  0  0  0  0  0
   -4.7234   53.6535   15.2749 H   0  0  0  0  0  0  0  0  0  0  0  0
   -4.3662   51.4852   14.1066 H   0  0  0  0  0  0  0  0  0  0  0  0
   -6.0550   48.3510    9.9320 H   0  0  0  0  0  0  0  0  0  0  0  0
   -6.9978   52.7818   10.9295 H   0  0  0  0  0  0  0  0  0  0  0  0
   -8.1599   56.0957    9.8593 H   0  0  0  0  0  0  0  0  0  0  0  0
   -9.2811   57.6533    8.2661 H   0  0  0  0  0  0  0  0  0  0  0  0
  -11.0553   59.2093    9.0849 H   0  0  0  0  0  0  0  0  0  0  0  0
  -10.6039   57.6325   13.0893 H   0  0  0  0  0  0  0  0  0  0  0  0
  1  2  2  0
  2  3  1  0
  3  4  1  0
  4  5  2  0
  5  6  1  0
  6  7  2  0
  7  8  1  0
  8  9  1  0
  9 10  1  0
 10 11  2  0
 11 12  1  0
 12 13  1  0
  8 14  2  0
  2 15  1  0
 15 16  2  0
 16 17  1  0
 17 18  2  0
 18 19  1  0
 19 20  1  0
 19 21  2  0
 14  4  1  0
 21 15  1  0
 13  9  2  0
  3 22  1  0
  5 23  1  0
  6 24  1  0
  7 25  1  0
 12 26  1  0
 14 27  1  0
 16 28  1  0
 17 29  1  0
 18 30  1  0
 21 31  1  0
M  END
>  <meeko>  (4) 
{"is_sidechain": [false], "free_energy": -7.344, "intermolecular_energy": -8.775, "internal_energy": -0.348}

$$$$
4de3_ligand
     RDKit          3D

 31 33  0  0  0  0  0  0  0  0999 V2000
   -8.5950   54.6940   13.0210 O   0  0  0  0  0  0  0  0  0  0  0  0
   -8.4950   54.7980   11.8050 C   0  0  0  0  0  0  0  0  0  0  0  0
   -7.7150   54.0220   10.9650 N   0  0  0  0  0  0  0  0  0  0  0  0
   -6.8130   53.0020   11.3360 C   0  0  0  0  0  0  0  0  0  0  0  0
   -7.1190   51.6410   11.3060 C   0  0  0  0  0  0  0  0  0  0  0  0
   -6.1700   50.6930   11.6980 C   0  0  0  0  0  0  0  0  0  0  0  0
   -4.9060   51.0990   12.1240 C   0  0  0  0  0  0  0  0  0  0  0  0
   -4.5770   52.4590   12.1670 C   0  0  0  0  0  0  0  0  0  0  0  0
   -3.2610   52.8970   12.6130 C   0  0  0  0  0  0  0  0  0  0  0  0
   -2.1100   52.1810   12.3660 N   0  0  0  0  0  0  0  0  0  0  0  0
   -1.1090   52.8590   12.9070 N   0  0  0  0  0  0  0  0  0  0  0  0
   -1.6880   53.9360   13.4470 N   0  0  0  0  0  0  0  0  0  0  0  0
   -3.0180   54.0260   13.3050 N   0  0  0  0  0  0  0  0  0  0  0  0
   -5.5410   53.4020   11.7710 C   0  0  0  0  0  0  0  0  0  0  0  0
   -9.3160   55.8330   11.1170 C   0  0  0  0  0  0  0  0  0  0  0  0
   -9.4660   57.0830   11.7330 C   0  0  0  0  0  0  0  0  0  0  0  0
  -10.2260   58.0820   11.1220 C   0  0  0  0  0  0  0  0  0  0  0  0
  -10.8290   57.8390    9.8880 C   0  0  0  0  0  0  0  0  0  0  0  0
  -10.6620   56.6020    9.2670 C   0  0  0  0  0  0  0  0  0  0  0  0
  -11.4640   56.2840    7.5840 Br  0  0  0  0  0  0  0  0  0  0  0  0
   -9.9060   55.5960    9.8700 C   0  0  0  0  0  0  0  0  0  0  0  0
   -7.8480   54.1450    9.9700 H   0  0  0  0  0  0  0  0  0  0  0  0
   -8.1139   51.3120   10.9715 H   0  0  0  0  0  0  0  0  0  0  0  0
   -6.4212   49.6224   11.6704 H   0  0  0  0  0  0  0  0  0  0  0  0
   -4.1633   50.3466   12.4279 H   0  0  0  0  0  0  0  0  0  0  0  0
   -1.1470   54.6430   13.9380 H   0  0  0  0  0  0  0  0  0  0  0  0
   -5.2934   54.4733   11.8028 H   0  0  0  0  0  0  0  0  0  0  0  0
   -8.9829   57.2777   12.7019 H   0  0  0  0  0  0  0  0  0  0  0  0
  -10.3490   59.0588   11.6127 H   0  0  0  0  0  0  0  0  0  0  0  0
  -11.4344   58.6209    9.4063 H   0  0  0  0  0  0  0  0  0  0  0  0
   -9.7748   54.6252    9.3697 H   0  0  0  0  0  0  0  0  0  0  0  0
  1  2  2  0
  2  3  1  0
  3  4  1  0
  4  5  2  0
  5  6  1  0
  6  7  2  0
  7  8  1  0
  8  9  1  0
  9 10  1  0
 10 11  2  0
 11 12  1  0
 12 13  1  0
  8 14  2  0
  2 15  1  0
 15 16  2  0
 16 17  1  0
 17 18  2  0
 18 19  1  0
 19 20  1  0
 19 21  2  0
 14  4  1  0
 21 15  1  0
 13  9  2  0
  3 22  1  0
  5 23  1  0
  6 24  1  0
  7 25  1  0
 12 26  1  0
 14 27  1  0
 16 28  1  0
 17 29  1  0
 18 30  1  0
 21 31  1  0
M  END
>  <meeko>  (5) 
{"is_sidechain": [false], "free_energy": -7.251, "intermolecular_energy": -8.518, "internal_energy": -0.495}

$$$$
4de3_ligand
     RDKit          3D

 31 33  0  0  0  0  0  0  0  0999 V2000
   -2.8310   50.8940    9.9870 O   0  0  0  0  0  0  0  0  0  0  0  0
   -3.0750   49.9500   10.7280 C   0  0  0  0  0  0  0  0  0  0  0  0
   -4.2270   49.7490   11.4680 N   0  0  0  0  0  0  0  0  0  0  0  0
   -5.3280   50.6230   11.5890 C   0  0  0  0  0  0  0  0  0  0  0  0
   -6.6130   50.3290   11.1310 C   0  0  0  0  0  0  0  0  0  0  0  0
   -7.6490   51.2540   11.2840 C   0  0  0  0  0  0  0  0  0  0  0  0
   -7.4080   52.4840   11.8970 C   0  0  0  0  0  0  0  0  0  0  0  0
   -6.1270   52.8030   12.3620 C   0  0  0  0  0  0  0  0  0  0  0  0
   -5.8610   54.0850   13.0000 C   0  0  0  0  0  0  0  0  0  0  0  0
   -6.5850   54.5490   14.0770 N   0  0  0  0  0  0  0  0  0  0  0  0
   -6.0820   55.7310   14.4000 N   0  0  0  0  0  0  0  0  0  0  0  0
   -5.0940   55.9270   13.5200 N   0  0  0  0  0  0  0  0  0  0  0  0
   -4.9000   54.9500   12.6240 N   0  0  0  0  0  0  0  0  0  0  0  0
   -5.0940   51.8640   12.2000 C   0  0  0  0  0  0  0  0  0  0  0  0
   -2.0640   48.8610   10.8360 C   0  0  0  0  0  0  0  0  0  0  0  0
   -0.9350   48.9150   10.0070 C   0  0  0  0  0  0  0  0  0  0  0  0
    0.0380   47.9170   10.0780 C   0  0  0  0  0  0  0  0  0  0  0  0
   -0.1080   46.8670   10.9850 C   0  0  0  0  0  0  0  0  0  0  0  0
   -1.2220   46.8270   11.8230 C   0  0  0  0  0  0  0  0  0  0  0  0
   -1.4040   45.4140   13.0670 Br  0  0  0  0  0  0  0  0  0  0  0  0
   -2.2000   47.8190   11.7600 C   0  0  0  0  0  0  0  0  0  0  0  0
   -4.3310   48.8510   11.9220 H   0  0  0  0  0  0  0  0  0  0  0  0
   -6.8118   49.3619   10.6460 H   0  0  0  0  0  0  0  0  0  0  0  0
   -8.6583   51.0116   10.9198 H   0  0  0  0  0  0  0  0  0  0  0  0
   -8.2289   53.2066   12.0154 H   0  0  0  0  0  0  0  0  0  0  0  0
   -4.5270   56.7700   13.5340 H   0  0  0  0  0  0  0  0  0  0  0  0
   -4.0830   52.1066   12.5590 H   0  0  0  0  0  0  0  0  0  0  0  0
   -0.8154   49.7472    9.2977 H   0  0  0  0  0  0  0  0  0  0  0  0
    0.9185   47.9582    9.4200 H   0  0  0  0  0  0  0  0  0  0  0  0
    0.6524   46.0740   11.0389 H   0  0  0  0  0  0  0  0  0  0  0  0
   -3.0709   47.7827   12.4309 H   0  0  0  0  0  0  0  0  0  0  0  0
  1  2  2  0
  2  3  1  0
  3  4  1  0
  4  5  2  0
  5  6  1  0
  6  7  2  0
  7  8  1  0
  8  9  1  0
  9 10  1  0
 10 11  2  0
 11 12  1  0
 12 13  1  0
  8 14  2  0
  2 15  1  0
 15 16  2  0
 16 17  1  0
 17 18  2  0
 18 19  1  0
 19 20  1  0
 19 21  2  0
 14  4  1  0
 21 15  1  0
 13  9  2  0
  3 22  1  0
  5 23  1  0
  6 24  1  0
  7 25  1  0
 12 26  1  0
 14 27  1  0
 16 28  1  0
 17 29  1  0
 18 30  1  0
 21 31  1  0
M  END
>  <meeko>  (6) 
{"is_sidechain": [false], "free_energy": -7.214, "intermolecular_energy": -8.544, "internal_energy": -0.426}

$$$$
4de3_ligand
     RDKit          3D

 31 33  0  0  0  0  0  0  0  0999 V2000
   -3.7060   50.7260   11.2610 O   0  0  0  0  0  0  0  0  0  0  0  0
   -3.3750   51.8200   10.8220 C   0  0  0  0  0  0  0  0  0  0  0  0
   -3.8120   53.0590   11.2570 N   0  0  0  0  0  0  0  0  0  0  0  0
   -4.7900   53.3230   12.2410 C   0  0  0  0  0  0  0  0  0  0  0  0
   -4.7990   52.7380   13.5070 C   0  0  0  0  0  0  0  0  0  0  0  0
   -5.8090   53.0490   14.4230 C   0  0  0  0  0  0  0  0  0  0  0  0
   -6.8180   53.9470   14.0790 C   0  0  0  0  0  0  0  0  0  0  0  0
   -6.8320   54.5440   12.8120 C   0  0  0  0  0  0  0  0  0  0  0  0
   -7.8820   55.4810   12.4380 C   0  0  0  0  0  0  0  0  0  0  0  0
   -8.8220   55.9470   13.3320 N   0  0  0  0  0  0  0  0  0  0  0  0
   -9.6150   56.7710   12.6630 N   0  0  0  0  0  0  0  0  0  0  0  0
   -9.1290   56.7680   11.4180 N   0  0  0  0  0  0  0  0  0  0  0  0
   -8.0570   55.9920   11.2050 N   0  0  0  0  0  0  0  0  0  0  0  0
   -5.8110   54.2220   11.9010 C   0  0  0  0  0  0  0  0  0  0  0  0
   -2.3620   51.8620    9.7300 C   0  0  0  0  0  0  0  0  0  0  0  0
   -2.5040   50.9760    8.6540 C   0  0  0  0  0  0  0  0  0  0  0  0
   -1.5790   50.9830    7.6100 C   0  0  0  0  0  0  0  0  0  0  0  0
   -0.5150   51.8840    7.6310 C   0  0  0  0  0  0  0  0  0  0  0  0
   -0.3860   52.7800    8.6920 C   0  0  0  0  0  0  0  0  0  0  0  0
    1.0460   54.0150    8.7050 Br  0  0  0  0  0  0  0  0  0  0  0  0
   -1.3050   52.7800    9.7420 C   0  0  0  0  0  0  0  0  0  0  0  0
   -3.3390   53.8720   10.8840 H   0  0  0  0  0  0  0  0  0  0  0  0
   -4.0070   52.0277   13.7867 H   0  0  0  0  0  0  0  0  0  0  0  0
   -5.8071   52.5829   15.4194 H   0  0  0  0  0  0  0  0  0  0  0  0
   -7.6073   54.1881   14.8062 H   0  0  0  0  0  0  0  0  0  0  0  0
   -9.5510   57.3220   10.6790 H   0  0  0  0  0  0  0  0  0  0  0  0
   -5.8130   54.6839   10.9027 H   0  0  0  0  0  0  0  0  0  0  0  0
   -3.3487   50.2717    8.6324 H   0  0  0  0  0  0  0  0  0  0  0  0
   -1.6887   50.2792    6.7718 H   0  0  0  0  0  0  0  0  0  0  0  0
    0.2205   51.8881    6.8131 H   0  0  0  0  0  0  0  0  0  0  0  0
   -1.2000   53.4947   10.5716 H   0  0  0  0  0  0  0  0  0  0  0  0
  1  2  2  0
  2  3  1  0
  3  4  1  0
  4  5  2  0
  5  6  1  0
  6  7  2  0
  7  8  1  0
  8  9  1  0
  9 10  1  0
 10 11  2  0
 11 12  1  0
 12 13  1  0
  8 14  2  0
  2 15  1  0
 15 16  2  0
 16 17  1  0
 17 18  2  0
 18 19  1  0
 19 20  1  0
 19 21  2  0
 14  4  1  0
 21 15  1  0
 13  9  2  0
  3 22  1  0
  5 23  1  0
  6 24  1  0
  7 25  1  0
 12 26  1  0
 14 27  1  0
 16 28  1  0
 17 29  1  0
 18 30  1  0
 21 31  1  0
M  END
>  <meeko>  (7) 
{"is_sidechain": [false], "free_energy": -7.035, "intermolecular_energy": -8.434, "internal_energy": -0.326}

$$$$
4de3_ligand
     RDKit          3D

 31 33  0  0  0  0  0  0  0  0999 V2000
   -1.7450   49.6230   10.1700 O   0  0  0  0  0  0  0  0  0  0  0  0
   -2.1380   48.6350   10.7760 C   0  0  0  0  0  0  0  0  0  0  0  0
   -3.4090   48.4170   11.2780 N   0  0  0  0  0  0  0  0  0  0  0  0
   -4.4980   49.3150   11.2670 C   0  0  0  0  0  0  0  0  0  0  0  0
   -5.5750   49.2250   10.3860 C   0  0  0  0  0  0  0  0  0  0  0  0
   -6.6120   50.1610   10.4360 C   0  0  0  0  0  0  0  0  0  0  0  0
   -6.5790   51.1960   11.3700 C   0  0  0  0  0  0  0  0  0  0  0  0
   -5.5060   51.3100   12.2620 C   0  0  0  0  0  0  0  0  0  0  0  0
   -5.4580   52.3890   13.2400 C   0  0  0  0  0  0  0  0  0  0  0  0
   -4.2940   52.7850   13.8600 N   0  0  0  0  0  0  0  0  0  0  0  0
   -4.6100   53.7780   14.6780 N   0  0  0  0  0  0  0  0  0  0  0  0
   -5.9280   53.9360   14.5190 N   0  0  0  0  0  0  0  0  0  0  0  0
   -6.5200   53.1110   13.6450 N   0  0  0  0  0  0  0  0  0  0  0  0
   -4.4700   50.3630   12.2000 C   0  0  0  0  0  0  0  0  0  0  0  0
   -1.1830   47.5090   10.9790 C   0  0  0  0  0  0  0  0  0  0  0  0
   -1.4720   46.5600   11.9690 C   0  0  0  0  0  0  0  0  0  0  0  0
   -0.6050   45.4890   12.1900 C   0  0  0  0  0  0  0  0  0  0  0  0
    0.5470   45.3560   11.4160 C   0  0  0  0  0  0  0  0  0  0  0  0
    0.8230   46.2900   10.4180 C   0  0  0  0  0  0  0  0  0  0  0  0
    2.3750   46.0940    9.3560 Br  0  0  0  0  0  0  0  0  0  0  0  0
   -0.0370   47.3650   10.1900 C   0  0  0  0  0  0  0  0  0  0  0  0
   -3.6110   47.4920   11.6340 H   0  0  0  0  0  0  0  0  0  0  0  0
   -5.6088   48.4116    9.6463 H   0  0  0  0  0  0  0  0  0  0  0  0
   -7.4569   50.0809    9.7362 H   0  0  0  0  0  0  0  0  0  0  0  0
   -7.4004   51.9267   11.4061 H   0  0  0  0  0  0  0  0  0  0  0  0
   -6.4460   54.6420   15.0340 H   0  0  0  0  0  0  0  0  0  0  0  0
   -3.6216   50.4445   12.8953 H   0  0  0  0  0  0  0  0  0  0  0  0
   -2.3853   46.6597   12.5739 H   0  0  0  0  0  0  0  0  0  0  0  0
   -0.8302   44.7508   12.9738 H   0  0  0  0  0  0  0  0  0  0  0  0
    1.2361   44.5168   11.5921 H   0  0  0  0  0  0  0  0  0  0  0  0
    0.1845   48.0934    9.3961 H   0  0  0  0  0  0  0  0  0  0  0  0
  1  2  2  0
  2  3  1  0
  3  4  1  0
  4  5  2  0
  5  6  1  0
  6  7  2  0
  7  8  1  0
  8  9  1  0
  9 10  1  0
 10 11  2  0
 11 12  1  0
 12 13  1  0
  8 14  2  0
  2 15  1  0
 15 16  2  0
 16 17  1  0
 17 18  2  0
 18 19  1  0
 19 20  1  0
 19 21  2  0
 14  4  1  0
 21 15  1  0
 13  9  2  0
  3 22  1  0
  5 23  1  0
  6 24  1  0
  7 25  1  0
 12 26  1  0
 14 27  1  0
 16 28  1  0
 17 29  1  0
 18 30  1  0
 21 31  1  0
M  END
>  <meeko>  (8) 
{"is_sidechain": [false], "free_energy": -6.956, "intermolecular_energy": -8.165, "internal_energy": -0.502}

$$$$
4de3_ligand
     RDKit          3D

 31 33  0  0  0  0  0  0  0  0999 V2000
   -8.6800   53.7560   13.3690 O   0  0  0  0  0  0  0  0  0  0  0  0
   -7.9880   53.4660   12.4010 C   0  0  0  0  0  0  0  0  0  0  0  0
   -8.2520   53.7540   11.0730 N   0  0  0  0  0  0  0  0  0  0  0  0
   -9.4070   54.3700   10.5460 C   0  0  0  0  0  0  0  0  0  0  0  0
  -10.4420   53.6780    9.9160 C   0  0  0  0  0  0  0  0  0  0  0  0
  -11.5500   54.3650    9.4140 C   0  0  0  0  0  0  0  0  0  0  0  0
  -11.6340   55.7510    9.5370 C   0  0  0  0  0  0  0  0  0  0  0  0
  -10.6060   56.4680   10.1620 C   0  0  0  0  0  0  0  0  0  0  0  0
  -10.6780   57.9170   10.2940 C   0  0  0  0  0  0  0  0  0  0  0  0
  -11.3490   58.5420   11.3230 N   0  0  0  0  0  0  0  0  0  0  0  0
  -11.2130   59.8460   11.1360 N   0  0  0  0  0  0  0  0  0  0  0  0
  -10.4790   59.9510   10.0230 N   0  0  0  0  0  0  0  0  0  0  0  0
  -10.1130   58.7980    9.4470 N   0  0  0  0  0  0  0  0  0  0  0  0
   -9.4960   55.7650   10.6610 C   0  0  0  0  0  0  0  0  0  0  0  0
   -6.6970   52.7640   12.6450 C   0  0  0  0  0  0  0  0  0  0  0  0
   -5.8850   53.2080   13.6970 C   0  0  0  0  0  0  0  0  0  0  0  0
   -4.6680   52.5770   13.9610 C   0  0  0  0  0  0  0  0  0  0  0  0
   -4.2640   51.4930   13.1820 C   0  0  0  0  0  0  0  0  0  0  0  0
   -5.0830   51.0400   12.1480 C   0  0  0  0  0  0  0  0  0  0  0  0
   -4.5420   49.5560   11.1080 Br  0  0  0  0  0  0  0  0  0  0  0  0
   -6.3000   51.6640   11.8750 C   0  0  0  0  0  0  0  0  0  0  0  0
   -7.5150   53.5670   10.4070 H   0  0  0  0  0  0  0  0  0  0  0  0
  -10.3851   52.5842    9.8139 H   0  0  0  0  0  0  0  0  0  0  0  0
  -12.3602   53.8094    8.9192 H   0  0  0  0  0  0  0  0  0  0  0  0
  -12.5113   56.2838    9.1415 H   0  0  0  0  0  0  0  0  0  0  0  0
  -10.2190   60.8550    9.6390 H   0  0  0  0  0  0  0  0  0  0  0  0
   -8.6818   56.3192   11.1509 H   0  0  0  0  0  0  0  0  0  0  0  0
   -6.2077   54.0571   14.3173 H   0  0  0  0  0  0  0  0  0  0  0  0
   -4.0289   52.9341   14.7820 H   0  0  0  0  0  0  0  0  0  0  0  0
   -3.3028   50.9971   13.3824 H   0  0  0  0  0  0  0  0  0  0  0  0
   -6.9424   51.2952   11.0618 H   0  0  0  0  0  0  0  0  0  0  0  0
  1  2  2  0
  2  3  1  0
  3  4  1  0
  4  5  2  0
  5  6  1  0
  6  7  2  0
  7  8  1  0
  8  9  1  0
  9 10  1  0
 10 11  2  0
 11 12  1  0
 12 13  1  0
  8 14  2  0
  2 15  1  0
 15 16  2  0
 16 17  1  0
 17 18  2  0
 18 19  1  0
 19 20  1  0
 19 21  2  0
 14  4  1  0
 21 15  1  0
 13  9  2  0
  3 22  1  0
  5 23  1  0
  6 24  1  0
  7 25  1  0
 12 26  1  0
 14 27  1  0
 16 28  1  0
 17 29  1  0
 18 30  1  0
 21 31  1  0
M  END
>  <meeko>  (9) 
{"is_sidechain": [false], "free_energy": -6.937, "intermolecular_energy": -8.182, "internal_energy": -0.463}

$$$$
