4djv_ligand
     RDKit          3D

 50 53  0  0  0  0  0  0  0  0999 V2000
   29.9680    9.0480   23.4670 C   0  0  0  0  0  0  0  0  0  0  0  0
   29.6130    8.8810   22.0980 O   0  0  0  0  0  0  0  0  0  0  0  0
   29.0510    9.9610   21.4740 C   0  0  0  0  0  0  0  0  0  0  0  0
   29.6680   11.1870   21.2380 C   0  0  0  0  0  0  0  0  0  0  0  0
   28.9690   12.2040   20.5840 C   0  0  0  0  0  0  0  0  0  0  0  0
   27.6540   11.9990   20.1630 C   0  0  0  0  0  0  0  0  0  0  0  0
   27.0110   10.7730   20.3870 C   0  0  0  0  0  0  0  0  0  0  0  0
   25.6300   10.5440   19.9390 C   0  0  0  0  0  0  0  0  0  0  0  0
   25.3470   10.1730   18.6190 C   0  0  0  0  0  0  0  0  0  0  0  0
   24.0340    9.9540   18.2050 C   0  0  0  0  0  0  0  0  0  0  0  0
   22.9730   10.1090   19.0990 C   0  0  0  0  0  0  0  0  0  0  0  0
   23.2100   10.4880   20.4300 C   0  0  0  0  0  0  0  0  0  0  0  0
   22.0920   10.6950   21.4470 C   0  0  1  0  0  0  0  0  0  0  0  0
   20.6930   10.7770   20.8470 C   0  0  0  0  0  0  0  0  0  0  0  0
   20.2370   11.8960   20.1270 C   0  0  0  0  0  0  0  0  0  0  0  0
   18.9490   11.9230   19.5850 C   0  0  0  0  0  0  0  0  0  0  0  0
   18.0970   10.8340   19.7480 C   0  0  0  0  0  0  0  0  0  0  0  0
   18.5300    9.7170   20.4530 C   0  0  0  0  0  0  0  0  0  0  0  0
   19.8150    9.6860   20.9960 C   0  0  0  0  0  0  0  0  0  0  0  0
   22.1910    9.5380   22.3930 N   0  0  0  0  0  0  0  0  0  0  0  0
   22.4310    9.9580   23.6560 C   0  0  0  0  0  0  0  0  0  0  0  0
   22.5810    9.0980   24.6640 N   0  0  0  0  0  0  0  0  0  0  0  0
   22.5020   11.2860   23.7550 N   0  0  0  0  0  0  0  0  0  0  0  0
   22.7310   12.1190   24.9250 C   0  0  0  0  0  0  0  0  0  0  0  0
   22.3160   11.8770   22.4650 C   0  0  0  0  0  0  0  0  0  0  0  0
   22.3520   13.0750   22.2620 O   0  0  0  0  0  0  0  0  0  0  0  0
   24.5500   10.6910   20.8280 C   0  0  0  0  0  0  0  0  0  0  0  0
   27.7320    9.7640   21.0490 C   0  0  0  0  0  0  0  0  0  0  0  0
   29.1573    8.6666   24.1052 H   0  0  0  0  0  0  0  0  0  0  0  0
   30.8928    8.4905   23.6766 H   0  0  0  0  0  0  0  0  0  0  0  0
   30.1281   10.1159   23.6766 H   0  0  0  0  0  0  0  0  0  0  0  0
   30.7045   11.3542   21.5662 H   0  0  0  0  0  0  0  0  0  0  0  0
   29.4576   13.1721   20.3996 H   0  0  0  0  0  0  0  0  0  0  0  0
   27.1155   12.8090   19.6493 H   0  0  0  0  0  0  0  0  0  0  0  0
   26.1707   10.0529   17.8999 H   0  0  0  0  0  0  0  0  0  0  0  0
   23.8323    9.6566   17.1654 H   0  0  0  0  0  0  0  0  0  0  0  0
   21.9423    9.9327   18.7577 H   0  0  0  0  0  0  0  0  0  0  0  0
   20.9025   12.7608   19.9888 H   0  0  0  0  0  0  0  0  0  0  0  0
   18.6073   12.8077   19.0277 H   0  0  0  0  0  0  0  0  0  0  0  0
   17.0839   10.8575   19.3200 H   0  0  0  0  0  0  0  0  0  0  0  0
   17.8583    8.8557   20.5831 H   0  0  0  0  0  0  0  0  0  0  0  0
   20.1475    8.7953   21.5492 H   0  0  0  0  0  0  0  0  0  0  0  0
   22.2020    8.5690   22.1120 H   0  0  0  0  0  0  0  0  0  0  0  0
   22.7680    9.4190   25.6060 H   0  0  0  0  0  0  0  0  0  0  0  0
   22.5200    8.0970   24.5250 H   0  0  0  0  0  0  0  0  0  0  0  0
   22.5676   11.5245   25.8360 H   0  0  0  0  0  0  0  0  0  0  0  0
   23.7653   12.4932   24.9120 H   0  0  0  0  0  0  0  0  0  0  0  0
   22.0333   12.9693   24.9120 H   0  0  0  0  0  0  0  0  0  0  0  0
   24.7563   10.9742   21.8707 H   0  0  0  0  0  0  0  0  0  0  0  0
   27.2472    8.7948   21.2378 H   0  0  0  0  0  0  0  0  0  0  0  0
  1  2  1  0
  2  3  1  0
  3  4  2  0
  4  5  1  0
  5  6  2  0
  6  7  1  0
  7  8  1  0
  8  9  2  0
  9 10  1  0
 10 11  2  0
 11 12  1  0
 13 12  1  6
 13 14  1  0
 14 15  2  0
 15 16  1  0
 16 17  2  0
 17 18  1  0
 18 19  2  0
 13 20  1  0
 20 21  1  0
 21 22  2  0
 21 23  1  0
 23 24  1  0
 23 25  1  0
 25 26  2  0
 12 27  2  0
  7 28  2  0
 28  3  1  0
 27  8  1  0
 25 13  1  0
 19 14  1  0
  1 29  1  0
  1 30  1  0
  1 31  1  0
  4 32  1  0
  5 33  1  0
  6 34  1  0
  9 35  1  0
 10 36  1  0
 11 37  1  0
 15 38  1  0
 16 39  1  0
 17 40  1  0
 18 41  1  0
 19 42  1  0
 20 43  1  0
 22 44  1  0
 22 45  1  0
 24 46  1  0
 24 47  1  0
 24 48  1  0
 27 49  1  0
 28 50  1  0
M  CHG  1  22   1
M  END
>  <meeko>  (1) 
{"is_sidechain": [false], "free_energy": -9.938, "intermolecular_energy": -12.262, "internal_energy": -1.209}

$$$$
4djv_ligand
     RDKit          3D

 50 53  0  0  0  0  0  0  0  0999 V2000
   17.6890    9.2240   20.1490 C   0  0  0  0  0  0  0  0  0  0  0  0
   17.6420   10.6370   19.9730 O   0  0  0  0  0  0  0  0  0  0  0  0
   18.7230   11.3480   20.4180 C   0  0  0  0  0  0  0  0  0  0  0  0
   18.6950   12.4060   21.3220 C   0  0  0  0  0  0  0  0  0  0  0  0
   19.8840   13.0410   21.6880 C   0  0  0  0  0  0  0  0  0  0  0  0
   21.1030   12.6190   21.1530 C   0  0  0  0  0  0  0  0  0  0  0  0
   21.1570   11.5540   20.2420 C   0  0  0  0  0  0  0  0  0  0  0  0
   22.4370   11.0980   19.6800 C   0  0  0  0  0  0  0  0  0  0  0  0
   22.5420    9.8670   19.0210 C   0  0  0  0  0  0  0  0  0  0  0  0
   23.7580    9.4440   18.4880 C   0  0  0  0  0  0  0  0  0  0  0  0
   24.9000   10.2390   18.6080 C   0  0  0  0  0  0  0  0  0  0  0  0
   24.8420   11.4770   19.2670 C   0  0  0  0  0  0  0  0  0  0  0  0
   26.0590   12.3790   19.4490 C   0  0  1  0  0  0  0  0  0  0  0  0
   27.2590   11.7050   20.1010 C   0  0  0  0  0  0  0  0  0  0  0  0
   27.3110   10.3230   20.3600 C   0  0  0  0  0  0  0  0  0  0  0  0
   28.4380    9.7470   20.9500 C   0  0  0  0  0  0  0  0  0  0  0  0
   29.5330   10.5360   21.2900 C   0  0  0  0  0  0  0  0  0  0  0  0
   29.5040   11.9040   21.0410 C   0  0  0  0  0  0  0  0  0  0  0  0
   28.3800   12.4840   20.4510 C   0  0  0  0  0  0  0  0  0  0  0  0
   26.4090   12.8620   18.0750 N   0  0  0  0  0  0  0  0  0  0  0  0
   26.3270   14.2100   17.9940 C   0  0  0  0  0  0  0  0  0  0  0  0
   26.5740   14.8600   16.8560 N   0  0  0  0  0  0  0  0  0  0  0  0
   25.9770   14.7780   19.1490 N   0  0  0  0  0  0  0  0  0  0  0  0
   25.7960   16.1820   19.4750 C   0  0  0  0  0  0  0  0  0  0  0  0
   25.7720   13.7660   20.1410 C   0  0  0  0  0  0  0  0  0  0  0  0
   25.4270   14.0030   21.2830 O   0  0  0  0  0  0  0  0  0  0  0  0
   23.5950   11.8890   19.7880 C   0  0  0  0  0  0  0  0  0  0  0  0
   19.9490   10.9320   19.8860 C   0  0  0  0  0  0  0  0  0  0  0  0
   17.6968    8.9884   21.2234 H   0  0  0  0  0  0  0  0  0  0  0  0
   16.8056    8.7665   19.6797 H   0  0  0  0  0  0  0  0  0  0  0  0
   18.6009    8.8262   19.6797 H   0  0  0  0  0  0  0  0  0  0  0  0
   17.7378   12.7416   21.7476 H   0  0  0  0  0  0  0  0  0  0  0  0
   19.8601   13.8779   22.4014 H   0  0  0  0  0  0  0  0  0  0  0  0
   22.0319   13.1280   21.4496 H   0  0  0  0  0  0  0  0  0  0  0  0
   21.6535    9.2259   18.9228 H   0  0  0  0  0  0  0  0  0  0  0  0
   23.8190    8.4763   17.9686 H   0  0  0  0  0  0  0  0  0  0  0  0
   25.8531    9.8920   18.1824 H   0  0  0  0  0  0  0  0  0  0  0  0
   26.4529    9.6881   20.0943 H   0  0  0  0  0  0  0  0  0  0  0  0
   28.4604    8.6650   21.1469 H   0  0  0  0  0  0  0  0  0  0  0  0
   30.4191   10.0788   21.7545 H   0  0  0  0  0  0  0  0  0  0  0  0
   30.3680   12.5296   21.3094 H   0  0  0  0  0  0  0  0  0  0  0  0
   28.3689   13.5665   20.2561 H   0  0  0  0  0  0  0  0  0  0  0  0
   26.5630   12.2610   17.2800 H   0  0  0  0  0  0  0  0  0  0  0  0
   26.5050   15.8680   16.8010 H   0  0  0  0  0  0  0  0  0  0  0  0
   26.8330   14.3710   16.0080 H   0  0  0  0  0  0  0  0  0  0  0  0
   25.7801   16.3055   20.5679 H   0  0  0  0  0  0  0  0  0  0  0  0
   26.6262   16.7666   19.0520 H   0  0  0  0  0  0  0  0  0  0  0  0
   24.8447   16.5370   19.0520 H   0  0  0  0  0  0  0  0  0  0  0  0
   23.5274   12.8624   20.2958 H   0  0  0  0  0  0  0  0  0  0  0  0
   19.9669   10.0965   19.1707 H   0  0  0  0  0  0  0  0  0  0  0  0
  1  2  1  0
  2  3  1  0
  3  4  2  0
  4  5  1  0
  5  6  2  0
  6  7  1  0
  7  8  1  0
  8  9  2  0
  9 10  1  0
 10 11  2  0
 11 12  1  0
 13 12  1  6
 13 14  1  0
 14 15  2  0
 15 16  1  0
 16 17  2  0
 17 18  1  0
 18 19  2  0
 13 20  1  0
 20 21  1  0
 21 22  2  0
 21 23  1  0
 23 24  1  0
 23 25  1  0
 25 26  2  0
 12 27  2  0
  7 28  2  0
 28  3  1  0
 27  8  1  0
 25 13  1  0
 19 14  1  0
  1 29  1  0
  1 30  1  0
  1 31  1  0
  4 32  1  0
  5 33  1  0
  6 34  1  0
  9 35  1  0
 10 36  1  0
 11 37  1  0
 15 38  1  0
 16 39  1  0
 17 40  1  0
 18 41  1  0
 19 42  1  0
 20 43  1  0
 22 44  1  0
 22 45  1  0
 24 46  1  0
 24 47  1  0
 24 48  1  0
 27 49  1  0
 28 50  1  0
M  CHG  1  22   1
M  END
>  <meeko>  (2) 
{"is_sidechain": [false], "free_energy": -9.372, "intermolecular_energy": -12.071, "internal_energy": -0.701}

$$$$
4djv_ligand
     RDKit          3D

 50 53  0  0  0  0  0  0  0  0999 V2000
   29.5510   12.7540   20.9770 C   0  0  0  0  0  0  0  0  0  0  0  0
   28.9180   14.0210   20.8300 O   0  0  0  0  0  0  0  0  0  0  0  0
   27.9420   14.1130   19.8760 C   0  0  0  0  0  0  0  0  0  0  0  0
   27.8260   15.1100   18.9110 C   0  0  0  0  0  0  0  0  0  0  0  0
   26.7720   15.0750   17.9960 C   0  0  0  0  0  0  0  0  0  0  0  0
   25.8330   14.0420   18.0400 C   0  0  0  0  0  0  0  0  0  0  0  0
   25.9300   13.0240   19.0000 C   0  0  0  0  0  0  0  0  0  0  0  0
   24.9520   11.9280   19.0490 C   0  0  0  0  0  0  0  0  0  0  0  0
   24.9540   10.9100   18.0880 C   0  0  0  0  0  0  0  0  0  0  0  0
   24.0260    9.8720   18.1440 C   0  0  0  0  0  0  0  0  0  0  0  0
   23.0680    9.8320   19.1600 C   0  0  0  0  0  0  0  0  0  0  0  0
   23.0240   10.8360   20.1400 C   0  0  0  0  0  0  0  0  0  0  0  0
   21.9880   10.8590   21.2600 C   0  0  1  0  0  0  0  0  0  0  0  0
   20.5420   10.7500   20.7920 C   0  0  0  0  0  0  0  0  0  0  0  0
   19.8960   11.7680   20.0680 C   0  0  0  0  0  0  0  0  0  0  0  0
   18.5710   11.6190   19.6490 C   0  0  0  0  0  0  0  0  0  0  0  0
   17.8700   10.4530   19.9420 C   0  0  0  0  0  0  0  0  0  0  0  0
   18.4910    9.4330   20.6540 C   0  0  0  0  0  0  0  0  0  0  0  0
   19.8140    9.5770   21.0740 C   0  0  0  0  0  0  0  0  0  0  0  0
   22.3390    9.7100   22.1550 N   0  0  0  0  0  0  0  0  0  0  0  0
   22.6360   10.1360   23.4040 C   0  0  0  0  0  0  0  0  0  0  0  0
   23.0010    9.2870   24.3650 N   0  0  0  0  0  0  0  0  0  0  0  0
   22.5260   11.4580   23.5400 N   0  0  0  0  0  0  0  0  0  0  0  0
   22.7430   12.2910   24.7110 C   0  0  0  0  0  0  0  0  0  0  0  0
   22.1370   12.0400   22.2920 C   0  0  0  0  0  0  0  0  0  0  0  0
   21.9830   13.2360   22.1260 O   0  0  0  0  0  0  0  0  0  0  0  0
   23.9840   11.8700   20.0670 C   0  0  0  0  0  0  0  0  0  0  0  0
   26.9960   13.0820   19.9130 C   0  0  0  0  0  0  0  0  0  0  0  0
   29.6661   12.5235   22.0464 H   0  0  0  0  0  0  0  0  0  0  0  0
   28.9345   11.9784   20.4991 H   0  0  0  0  0  0  0  0  0  0  0  0
   30.5414   12.7813   20.4991 H   0  0  0  0  0  0  0  0  0  0  0  0
   28.5641   15.9245   18.8696 H   0  0  0  0  0  0  0  0  0  0  0  0
   26.6806   15.8653   17.2363 H   0  0  0  0  0  0  0  0  0  0  0  0
   25.0075   14.0266   17.3131 H   0  0  0  0  0  0  0  0  0  0  0  0
   25.6980   10.9298   17.2780 H   0  0  0  0  0  0  0  0  0  0  0  0
   24.0479    9.0783   17.3827 H   0  0  0  0  0  0  0  0  0  0  0  0
   22.3418    9.0065   19.1923 H   0  0  0  0  0  0  0  0  0  0  0  0
   20.4405   12.6933   19.8284 H   0  0  0  0  0  0  0  0  0  0  0  0
   18.0804   12.4264   19.0855 H   0  0  0  0  0  0  0  0  0  0  0  0
   16.8272   10.3387   19.6111 H   0  0  0  0  0  0  0  0  0  0  0  0
   17.9384    8.5108   20.8867 H   0  0  0  0  0  0  0  0  0  0  0  0
   20.2960    8.7621   21.6339 H   0  0  0  0  0  0  0  0  0  0  0  0
   22.4620    8.7590   21.8420 H   0  0  0  0  0  0  0  0  0  0  0  0
   23.2270    9.6120   25.2960 H   0  0  0  0  0  0  0  0  0  0  0  0
   23.0690    8.2900   24.1990 H   0  0  0  0  0  0  0  0  0  0  0  0
   22.5871   11.6925   25.6207 H   0  0  0  0  0  0  0  0  0  0  0  0
   23.7722   12.6791   24.6993 H   0  0  0  0  0  0  0  0  0  0  0  0
   22.0339   13.1319   24.6993 H   0  0  0  0  0  0  0  0  0  0  0  0
   23.9737   12.6581   20.8343 H   0  0  0  0  0  0  0  0  0  0  0  0
   27.0898   12.2964   20.6772 H   0  0  0  0  0  0  0  0  0  0  0  0
  1  2  1  0
  2  3  1  0
  3  4  2  0
  4  5  1  0
  5  6  2  0
  6  7  1  0
  7  8  1  0
  8  9  2  0
  9 10  1  0
 10 11  2  0
 11 12  1  0
 13 12  1  6
 13 14  1  0
 14 15  2  0
 15 16  1  0
 16 17  2  0
 17 18  1  0
 18 19  2  0
 13 20  1  0
 20 21  1  0
 21 22  2  0
 21 23  1  0
 23 24  1  0
 23 25  1  0
 25 26  2  0
 12 27  2  0
  7 28  2  0
 28  3  1  0
 27  8  1  0
 25 13  1  0
 19 14  1  0
  1 29  1  0
  1 30  1  0
  1 31  1  0
  4 32  1  0
  5 33  1  0
  6 34  1  0
  9 35  1  0
 10 36  1  0
 11 37  1  0
 15 38  1  0
 16 39  1  0
 17 40  1  0
 18 41  1  0
 19 42  1  0
 20 43  1  0
 22 44  1  0
 22 45  1  0
 24 46  1  0
 24 47  1  0
 24 48  1  0
 27 49  1  0
 28 50  1  0
M  CHG  1  22   1
M  END
>  <meeko>  (3) 
{"is_sidechain": [false], "free_energy": -9.303, "intermolecular_energy": -11.443, "internal_energy": -1.244}

$$$$
4djv_ligand
     RDKit          3D

 50 53  0  0  0  0  0  0  0  0999 V2000
   29.8120    9.3420   23.3650 C   0  0  0  0  0  0  0  0  0  0  0  0
   29.4410   10.6100   22.8320 O   0  0  0  0  0  0  0  0  0  0  0  0
   28.7040   10.6000   21.6800 C   0  0  0  0  0  0  0  0  0  0  0  0
   28.8880    9.7490   20.5940 C   0  0  0  0  0  0  0  0  0  0  0  0
   28.0540    9.8520   19.4790 C   0  0  0  0  0  0  0  0  0  0  0  0
   27.0320   10.8040   19.4480 C   0  0  0  0  0  0  0  0  0  0  0  0
   26.8250   11.6700   20.5300 C   0  0  0  0  0  0  0  0  0  0  0  0
   25.7460   12.6690   20.5100 C   0  0  0  0  0  0  0  0  0  0  0  0
   25.8590   13.8440   19.7570 C   0  0  0  0  0  0  0  0  0  0  0  0
   24.8290   14.7830   19.7410 C   0  0  0  0  0  0  0  0  0  0  0  0
   23.6650   14.5730   20.4830 C   0  0  0  0  0  0  0  0  0  0  0  0
   23.5120   13.4120   21.2570 C   0  0  0  0  0  0  0  0  0  0  0  0
   22.2750   13.1360   22.1050 C   0  0  1  0  0  0  0  0  0  0  0  0
   21.0630   12.6440   21.3220 C   0  0  0  0  0  0  0  0  0  0  0  0
   21.1700   12.0080   20.0720 C   0  0  0  0  0  0  0  0  0  0  0  0
   20.0310   11.5630   19.3960 C   0  0  0  0  0  0  0  0  0  0  0  0
   18.7690   11.7420   19.9540 C   0  0  0  0  0  0  0  0  0  0  0  0
   18.6410   12.3650   21.1910 C   0  0  0  0  0  0  0  0  0  0  0  0
   19.7760   12.8110   21.8700 C   0  0  0  0  0  0  0  0  0  0  0  0
   22.6990   12.1150   23.1150 N   0  0  0  0  0  0  0  0  0  0  0  0
   22.5670   12.5880   24.3750 C   0  0  0  0  0  0  0  0  0  0  0  0
   22.9080   11.8580   25.4370 N   0  0  0  0  0  0  0  0  0  0  0  0
   22.0790   13.8280   24.4140 N   0  0  0  0  0  0  0  0  0  0  0  0
   21.7820   14.6730   25.5590 C   0  0  0  0  0  0  0  0  0  0  0  0
   21.8540   14.3000   23.0820 C   0  0  0  0  0  0  0  0  0  0  0  0
   21.4290   15.4100   22.8230 O   0  0  0  0  0  0  0  0  0  0  0  0
   24.5650   12.4690   21.2470 C   0  0  0  0  0  0  0  0  0  0  0  0
   27.6780   11.5510   21.6400 C   0  0  0  0  0  0  0  0  0  0  0  0
   29.7985    9.3880   24.4640 H   0  0  0  0  0  0  0  0  0  0  0  0
   29.1000    8.5772   23.0213 H   0  0  0  0  0  0  0  0  0  0  0  0
   30.8240    9.0817   23.0213 H   0  0  0  0  0  0  0  0  0  0  0  0
   29.6897    8.9961   20.6142 H   0  0  0  0  0  0  0  0  0  0  0  0
   28.2024    9.1802   18.6207 H   0  0  0  0  0  0  0  0  0  0  0  0
   26.3819   10.8746   18.5635 H   0  0  0  0  0  0  0  0  0  0  0  0
   26.7715   14.0283   19.1710 H   0  0  0  0  0  0  0  0  0  0  0  0
   24.9341   15.6974   19.1386 H   0  0  0  0  0  0  0  0  0  0  0  0
   22.8612   15.3236   20.4608 H   0  0  0  0  0  0  0  0  0  0  0  0
   22.1623   11.8592   19.6212 H   0  0  0  0  0  0  0  0  0  0  0  0
   20.1324   11.0690   18.4184 H   0  0  0  0  0  0  0  0  0  0  0  0
   17.8746   11.3916   19.4181 H   0  0  0  0  0  0  0  0  0  0  0  0
   17.6444   12.5063   21.6346 H   0  0  0  0  0  0  0  0  0  0  0  0
   19.6638   13.3007   22.8486 H   0  0  0  0  0  0  0  0  0  0  0  0
   23.1420   11.2380   22.8880 H   0  0  0  0  0  0  0  0  0  0  0  0
   22.8130   12.2200   26.3770 H   0  0  0  0  0  0  0  0  0  0  0  0
   23.2780   10.9200   25.3430 H   0  0  0  0  0  0  0  0  0  0  0  0
   21.9780   14.1155   26.4868 H   0  0  0  0  0  0  0  0  0  0  0  0
   22.4190   15.5693   25.5283 H   0  0  0  0  0  0  0  0  0  0  0  0
   20.7243   14.9736   25.5283 H   0  0  0  0  0  0  0  0  0  0  0  0
   24.4569   11.5465   21.8363 H   0  0  0  0  0  0  0  0  0  0  0  0
   27.5358   12.2225   22.4996 H   0  0  0  0  0  0  0  0  0  0  0  0
  1  2  1  0
  2  3  1  0
  3  4  2  0
  4  5  1  0
  5  6  2  0
  6  7  1  0
  7  8  1  0
  8  9  2  0
  9 10  1  0
 10 11  2  0
 11 12  1  0
 13 12  1  6
 13 14  1  0
 14 15  2  0
 15 16  1  0
 16 17  2  0
 17 18  1  0
 18 19  2  0
 13 20  1  0
 20 21  1  0
 21 22  2  0
 21 23  1  0
 23 24  1  0
 23 25  1  0
 25 26  2  0
 12 27  2  0
  7 28  2  0
 28  3  1  0
 27  8  1  0
 25 13  1  0
 19 14  1  0
  1 29  1  0
  1 30  1  0
  1 31  1  0
  4 32  1  0
  5 33  1  0
  6 34  1  0
  9 35  1  0
 10 36  1  0
 11 37  1  0
 15 38  1  0
 16 39  1  0
 17 40  1  0
 18 41  1  0
 19 42  1  0
 20 43  1  0
 22 44  1  0
 22 45  1  0
 24 46  1  0
 24 47  1  0
 24 48  1  0
 27 49  1  0
 28 50  1  0
M  CHG  1  22   1
M  END
>  <meeko>  (4) 
{"is_sidechain": [false], "free_energy": -9.227, "intermolecular_energy": -11.4, "internal_energy": -1.194}

$$$$
4djv_ligand
     RDKit          3D

 50 53  0  0  0  0  0  0  0  0999 V2000
   21.2450   13.5390   24.1640 C   0  0  0  0  0  0  0  0  0  0  0  0
   20.3440   14.0090   23.1660 O   0  0  0  0  0  0  0  0  0  0  0  0
   20.1200   13.1810   22.1010 C   0  0  0  0  0  0  0  0  0  0  0  0
   18.8770   12.8080   21.5960 C   0  0  0  0  0  0  0  0  0  0  0  0
   18.8010   11.9510   20.4960 C   0  0  0  0  0  0  0  0  0  0  0  0
   19.9650   11.4660   19.8970 C   0  0  0  0  0  0  0  0  0  0  0  0
   21.2290   11.8280   20.3860 C   0  0  0  0  0  0  0  0  0  0  0  0
   22.4600   11.3300   19.7560 C   0  0  0  0  0  0  0  0  0  0  0  0
   22.4860   10.1010   19.0860 C   0  0  0  0  0  0  0  0  0  0  0  0
   23.6570    9.6380   18.4880 C   0  0  0  0  0  0  0  0  0  0  0  0
   24.8320   10.3910   18.5530 C   0  0  0  0  0  0  0  0  0  0  0  0
   24.8530   11.6250   19.2210 C   0  0  0  0  0  0  0  0  0  0  0  0
   26.1090   12.4820   19.3440 C   0  0  1  0  0  0  0  0  0  0  0  0
   27.3080   11.7690   19.9590 C   0  0  0  0  0  0  0  0  0  0  0  0
   28.3670   12.4550   20.5810 C   0  0  0  0  0  0  0  0  0  0  0  0
   29.4400   11.7580   21.1410 C   0  0  0  0  0  0  0  0  0  0  0  0
   29.4750   10.3670   21.0940 C   0  0  0  0  0  0  0  0  0  0  0  0
   28.4360    9.6690   20.4870 C   0  0  0  0  0  0  0  0  0  0  0  0
   27.3620   10.3610   19.9260 C   0  0  0  0  0  0  0  0  0  0  0  0
   26.4240   12.9350   17.9520 N   0  0  0  0  0  0  0  0  0  0  0  0
   26.3910   14.2840   17.8570 C   0  0  0  0  0  0  0  0  0  0  0  0
   26.6180   14.9100   16.7020 N   0  0  0  0  0  0  0  0  0  0  0  0
   26.1080   14.8780   19.0170 N   0  0  0  0  0  0  0  0  0  0  0  0
   25.9930   16.2920   19.3320 C   0  0  0  0  0  0  0  0  0  0  0  0
   25.9030   13.8860   20.0290 C   0  0  0  0  0  0  0  0  0  0  0  0
   25.6120   14.1500   21.1800 O   0  0  0  0  0  0  0  0  0  0  0  0
   23.6500   12.0780   19.8080 C   0  0  0  0  0  0  0  0  0  0  0  0
   21.2820   12.6890   21.4950 C   0  0  0  0  0  0  0  0  0  0  0  0
   20.8327   13.7541   25.1609 H   0  0  0  0  0  0  0  0  0  0  0  0
   21.3837   12.4537   24.0509 H   0  0  0  0  0  0  0  0  0  0  0  0
   22.2145   14.0463   24.0509 H   0  0  0  0  0  0  0  0  0  0  0  0
   17.9563   13.1879   22.0629 H   0  0  0  0  0  0  0  0  0  0  0  0
   17.8183   11.6564   20.0992 H   0  0  0  0  0  0  0  0  0  0  0  0
   19.8901   10.7918   19.0311 H   0  0  0  0  0  0  0  0  0  0  0  0
   21.5709    9.4931   19.0308 H   0  0  0  0  0  0  0  0  0  0  0  0
   23.6559    8.6725   17.9610 H   0  0  0  0  0  0  0  0  0  0  0  0
   25.7487   10.0133   18.0764 H   0  0  0  0  0  0  0  0  0  0  0  0
   28.3498   13.5539   20.6269 H   0  0  0  0  0  0  0  0  0  0  0  0
   30.2610   12.3105   21.6213 H   0  0  0  0  0  0  0  0  0  0  0  0
   30.3219    9.8214   21.5356 H   0  0  0  0  0  0  0  0  0  0  0  0
   28.4611    8.5699   20.4492 H   0  0  0  0  0  0  0  0  0  0  0  0
   26.5447    9.7988   19.4506 H   0  0  0  0  0  0  0  0  0  0  0  0
   26.5250   12.3190   17.1600 H   0  0  0  0  0  0  0  0  0  0  0  0
   26.5850   15.9200   16.6360 H   0  0  0  0  0  0  0  0  0  0  0  0
   26.8250   14.4030   15.8510 H   0  0  0  0  0  0  0  0  0  0  0  0
   25.9822   16.4247   20.4239 H   0  0  0  0  0  0  0  0  0  0  0  0
   26.8501   16.8336   18.9053 H   0  0  0  0  0  0  0  0  0  0  0  0
   25.0597   16.6880   18.9053 H   0  0  0  0  0  0  0  0  0  0  0  0
   23.6440   13.0496   20.3236 H   0  0  0  0  0  0  0  0  0  0  0  0
   22.2622   12.9842   21.8976 H   0  0  0  0  0  0  0  0  0  0  0  0
  1  2  1  0
  2  3  1  0
  3  4  2  0
  4  5  1  0
  5  6  2  0
  6  7  1  0
  7  8  1  0
  8  9  2  0
  9 10  1  0
 10 11  2  0
 11 12  1  0
 13 12  1  6
 13 14  1  0
 14 15  2  0
 15 16  1  0
 16 17  2  0
 17 18  1  0
 18 19  2  0
 13 20  1  0
 20 21  1  0
 21 22  2  0
 21 23  1  0
 23 24  1  0
 23 25  1  0
 25 26  2  0
 12 27  2  0
  7 28  2  0
 28  3  1  0
 27  8  1  0
 25 13  1  0
 19 14  1  0
  1 29  1  0
  1 30  1  0
  1 31  1  0
  4 32  1  0
  5 33  1  0
  6 34  1  0
  9 35  1  0
 10 36  1  0
 11 37  1  0
 15 38  1  0
 16 39  1  0
 17 40  1  0
 18 41  1  0
 19 42  1  0
 20 43  1  0
 22 44  1  0
 22 45  1  0
 24 46  1  0
 24 47  1  0
 24 48  1  0
 27 49  1  0
 28 50  1  0
M  CHG  1  22   1
M  END
>  <meeko>  (5) 
{"is_sidechain": [false], "free_energy": -9.15, "intermolecular_energy": -11.905, "internal_energy": -0.593}

$$$$
4djv_ligand
     RDKit          3D

 50 53  0  0  0  0  0  0  0  0999 V2000
   18.1610    9.7700   19.9320 C   0  0  0  0  0  0  0  0  0  0  0  0
   18.4870   11.1370   19.7010 O   0  0  0  0  0  0  0  0  0  0  0  0
   18.6180   11.9320   20.8060 C   0  0  0  0  0  0  0  0  0  0  0  0
   17.6280   12.2030   21.7470 C   0  0  0  0  0  0  0  0  0  0  0  0
   17.9060   13.0370   22.8320 C   0  0  0  0  0  0  0  0  0  0  0  0
   19.1760   13.6010   22.9810 C   0  0  0  0  0  0  0  0  0  0  0  0
   20.1900   13.3410   22.0490 C   0  0  0  0  0  0  0  0  0  0  0  0
   21.5320   13.9230   22.2020 C   0  0  0  0  0  0  0  0  0  0  0  0
   21.8500   14.7330   23.2990 C   0  0  0  0  0  0  0  0  0  0  0  0
   23.1260   15.2770   23.4380 C   0  0  0  0  0  0  0  0  0  0  0  0
   24.1110   15.0280   22.4800 C   0  0  0  0  0  0  0  0  0  0  0  0
   23.8340   14.2270   21.3620 C   0  0  0  0  0  0  0  0  0  0  0  0
   24.8610   13.9380   20.2720 C   0  0  1  0  0  0  0  0  0  0  0  0
   24.7340   12.5640   19.6250 C   0  0  0  0  0  0  0  0  0  0  0  0
   25.1110   11.3760   20.2770 C   0  0  0  0  0  0  0  0  0  0  0  0
   24.9650   10.1370   19.6480 C   0  0  0  0  0  0  0  0  0  0  0  0
   24.4390   10.0610   18.3620 C   0  0  0  0  0  0  0  0  0  0  0  0
   24.0570   11.2230   17.7010 C   0  0  0  0  0  0  0  0  0  0  0  0
   24.2010   12.4630   18.3250 C   0  0  0  0  0  0  0  0  0  0  0  0
   24.6790   15.0190   19.2510 N   0  0  0  0  0  0  0  0  0  0  0  0
   25.8060   15.7530   19.1090 C   0  0  0  0  0  0  0  0  0  0  0  0
   25.8680   16.7870   18.2690 N   0  0  0  0  0  0  0  0  0  0  0  0
   26.8020   15.3290   19.8880 N   0  0  0  0  0  0  0  0  0  0  0  0
   28.1580   15.8350   20.0180 C   0  0  0  0  0  0  0  0  0  0  0  0
   26.3620   14.2140   20.6690 C   0  0  0  0  0  0  0  0  0  0  0  0
   27.0630   13.6420   21.4820 O   0  0  0  0  0  0  0  0  0  0  0  0
   22.5370   13.6780   21.2500 C   0  0  0  0  0  0  0  0  0  0  0  0
   19.8870   12.5020   20.9630 C   0  0  0  0  0  0  0  0  0  0  0  0
   18.1161    9.5817   21.0148 H   0  0  0  0  0  0  0  0  0  0  0  0
   17.1839    9.5446   19.4798 H   0  0  0  0  0  0  0  0  0  0  0  0
   18.9312    9.1279   19.4798 H   0  0  0  0  0  0  0  0  0  0  0  0
   16.6272   11.7602   21.6357 H   0  0  0  0  0  0  0  0  0  0  0  0
   17.1217   13.2511   23.5729 H   0  0  0  0  0  0  0  0  0  0  0  0
   19.3822   14.2567   23.8398 H   0  0  0  0  0  0  0  0  0  0  0  0
   21.0839   14.9425   24.0601 H   0  0  0  0  0  0  0  0  0  0  0  0
   23.3587   15.9072   24.3090 H   0  0  0  0  0  0  0  0  0  0  0  0
   25.1134   15.4639   22.6031 H   0  0  0  0  0  0  0  0  0  0  0  0
   25.5259   11.4230   21.2947 H   0  0  0  0  0  0  0  0  0  0  0  0
   25.2671    9.2179   20.1715 H   0  0  0  0  0  0  0  0  0  0  0  0
   24.3257    9.0839   17.8695 H   0  0  0  0  0  0  0  0  0  0  0  0
   23.6406   11.1649   16.6845 H   0  0  0  0  0  0  0  0  0  0  0  0
   23.8935   13.3756   17.7934 H   0  0  0  0  0  0  0  0  0  0  0  0
   23.7990   15.2520   18.8170 H   0  0  0  0  0  0  0  0  0  0  0  0
   26.7120   17.3360   18.1710 H   0  0  0  0  0  0  0  0  0  0  0  0
   25.0740   17.0630   17.7040 H   0  0  0  0  0  0  0  0  0  0  0  0
   28.4132   15.9302   21.0837 H   0  0  0  0  0  0  0  0  0  0  0  0
   28.8576   15.1374   19.5343 H   0  0  0  0  0  0  0  0  0  0  0  0
   28.2296   16.8204   19.5343 H   0  0  0  0  0  0  0  0  0  0  0  0
   22.3053   13.0361   20.3873 H   0  0  0  0  0  0  0  0  0  0  0  0
   20.6668   12.2877   20.2173 H   0  0  0  0  0  0  0  0  0  0  0  0
  1  2  1  0
  2  3  1  0
  3  4  2  0
  4  5  1  0
  5  6  2  0
  6  7  1  0
  7  8  1  0
  8  9  2  0
  9 10  1  0
 10 11  2  0
 11 12  1  0
 13 12  1  1
 13 14  1  0
 14 15  2  0
 15 16  1  0
 16 17  2  0
 17 18  1  0
 18 19  2  0
 13 20  1  0
 20 21  1  0
 21 22  2  0
 21 23  1  0
 23 24  1  0
 23 25  1  0
 25 26  2  0
 12 27  2  0
  7 28  2  0
 28  3  1  0
 27  8  1  0
 25 13  1  0
 19 14  1  0
  1 29  1  0
  1 30  1  0
  1 31  1  0
  4 32  1  0
  5 33  1  0
  6 34  1  0
  9 35  1  0
 10 36  1  0
 11 37  1  0
 15 38  1  0
 16 39  1  0
 17 40  1  0
 18 41  1  0
 19 42  1  0
 20 43  1  0
 22 44  1  0
 22 45  1  0
 24 46  1  0
 24 47  1  0
 24 48  1  0
 27 49  1  0
 28 50  1  0
M  CHG  1  22   1
M  END
>  <meeko>  (6) 
{"is_sidechain": [false], "free_energy": -8.72, "intermolecular_energy": -10.613, "internal_energy": -1.355}

$$$$
4djv_ligand
     RDKit          3D

 50 53  0  0  0  0  0  0  0  0999 V2000
   26.1930   13.5420   18.5020 C   0  0  0  0  0  0  0  0  0  0  0  0
   24.8750   13.4280   17.9740 O   0  0  0  0  0  0  0  0  0  0  0  0
   24.1140   12.3920   18.4390 C   0  0  0  0  0  0  0  0  0  0  0  0
   24.3010   11.0410   18.1560 C   0  0  0  0  0  0  0  0  0  0  0  0
   23.4420   10.0880   18.7060 C   0  0  0  0  0  0  0  0  0  0  0  0
   22.3950   10.4810   19.5420 C   0  0  0  0  0  0  0  0  0  0  0  0
   22.1860   11.8340   19.8440 C   0  0  0  0  0  0  0  0  0  0  0  0
   21.0910   12.2560   20.7300 C   0  0  0  0  0  0  0  0  0  0  0  0
   19.7520   12.0510   20.3770 C   0  0  0  0  0  0  0  0  0  0  0  0
   18.7210   12.4510   21.2260 C   0  0  0  0  0  0  0  0  0  0  0  0
   19.0050   13.0710   22.4440 C   0  0  0  0  0  0  0  0  0  0  0  0
   20.3330   13.3020   22.8350 C   0  0  0  0  0  0  0  0  0  0  0  0
   20.7060   13.9940   24.1430 C   0  0  1  0  0  0  0  0  0  0  0  0
   19.6800   15.0040   24.6430 C   0  0  0  0  0  0  0  0  0  0  0  0
   19.4540   16.2390   24.0090 C   0  0  0  0  0  0  0  0  0  0  0  0
   18.4940   17.1290   24.4970 C   0  0  0  0  0  0  0  0  0  0  0  0
   17.7430   16.8030   25.6230 C   0  0  0  0  0  0  0  0  0  0  0  0
   17.9490   15.5860   26.2630 C   0  0  0  0  0  0  0  0  0  0  0  0
   18.9070   14.6930   25.7790 C   0  0  0  0  0  0  0  0  0  0  0  0
   20.8910   12.8930   25.1410 N   0  0  0  0  0  0  0  0  0  0  0  0
   22.1520   12.8820   25.6300 C   0  0  0  0  0  0  0  0  0  0  0  0
   22.5510   11.9710   26.5180 N   0  0  0  0  0  0  0  0  0  0  0  0
   22.9110   13.8550   25.1250 N   0  0  0  0  0  0  0  0  0  0  0  0
   24.3000   14.1850   25.4000 C   0  0  0  0  0  0  0  0  0  0  0  0
   22.1510   14.6210   24.1860 C   0  0  0  0  0  0  0  0  0  0  0  0
   22.6050   15.5610   23.5600 O   0  0  0  0  0  0  0  0  0  0  0  0
   21.3610   12.8760   21.9630 C   0  0  0  0  0  0  0  0  0  0  0  0
   23.0610   12.7760   19.2780 C   0  0  0  0  0  0  0  0  0  0  0  0
   26.1493   13.5382   19.6011 H   0  0  0  0  0  0  0  0  0  0  0  0
   26.8012   12.6931   18.1563 H   0  0  0  0  0  0  0  0  0  0  0  0
   26.6464   14.4827   18.1563 H   0  0  0  0  0  0  0  0  0  0  0  0
   25.1252   10.7252   17.4994 H   0  0  0  0  0  0  0  0  0  0  0  0
   23.5907    9.0219   18.4796 H   0  0  0  0  0  0  0  0  0  0  0  0
   21.7258    9.7195   19.9690 H   0  0  0  0  0  0  0  0  0  0  0  0
   19.5104   11.5686   19.4184 H   0  0  0  0  0  0  0  0  0  0  0  0
   17.6750   12.2766   20.9336 H   0  0  0  0  0  0  0  0  0  0  0  0
   18.1808   13.3812   23.1031 H   0  0  0  0  0  0  0  0  0  0  0  0
   20.0404   16.5075   23.1179 H   0  0  0  0  0  0  0  0  0  0  0  0
   18.3309   18.0912   23.9895 H   0  0  0  0  0  0  0  0  0  0  0  0
   16.9886   17.5064   26.0053 H   0  0  0  0  0  0  0  0  0  0  0  0
   17.3561   15.3262   27.1524 H   0  0  0  0  0  0  0  0  0  0  0  0
   19.0605   13.7323   26.2923 H   0  0  0  0  0  0  0  0  0  0  0  0
   20.2080   12.1760   25.3330 H   0  0  0  0  0  0  0  0  0  0  0  0
   23.4980   11.9640   26.8750 H   0  0  0  0  0  0  0  0  0  0  0  0
   21.9260   11.2520   26.8620 H   0  0  0  0  0  0  0  0  0  0  0  0
   24.4594   14.2229   26.4877 H   0  0  0  0  0  0  0  0  0  0  0  0
   24.9533   13.4171   24.9602 H   0  0  0  0  0  0  0  0  0  0  0  0
   24.5381   15.1647   24.9602 H   0  0  0  0  0  0  0  0  0  0  0  0
   22.4084   13.0350   22.2592 H   0  0  0  0  0  0  0  0  0  0  0  0
   22.9150   13.8435   19.4998 H   0  0  0  0  0  0  0  0  0  0  0  0
  1  2  1  0
  2  3  1  0
  3  4  2  0
  4  5  1  0
  5  6  2  0
  6  7  1  0
  7  8  1  0
  8  9  2  0
  9 10  1  0
 10 11  2  0
 11 12  1  0
 13 12  1  6
 13 14  1  0
 14 15  2  0
 15 16  1  0
 16 17  2  0
 17 18  1  0
 18 19  2  0
 13 20  1  0
 20 21  1  0
 21 22  2  0
 21 23  1  0
 23 24  1  0
 23 25  1  0
 25 26  2  0
 12 27  2  0
  7 28  2  0
 28  3  1  0
 27  8  1  0
 25 13  1  0
 19 14  1  0
  1 29  1  0
  1 30  1  0
  1 31  1  0
  4 32  1  0
  5 33  1  0
  6 34  1  0
  9 35  1  0
 10 36  1  0
 11 37  1  0
 15 38  1  0
 16 39  1  0
 17 40  1  0
 18 41  1  0
 19 42  1  0
 20 43  1  0
 22 44  1  0
 22 45  1  0
 24 46  1  0
 24 47  1  0
 24 48  1  0
 27 49  1  0
 28 50  1  0
M  CHG  1  22   1
M  END
>  <meeko>  (7) 
{"is_sidechain": [false], "free_energy": -8.526, "intermolecular_energy": -10.449, "internal_energy": -1.28}

$$$$
4djv_ligand
     RDKit          3D

 50 53  0  0  0  0  0  0  0  0999 V2000
   19.3630   10.8300   19.3990 C   0  0  0  0  0  0  0  0  0  0  0  0
   18.2470   11.3810   20.0920 O   0  0  0  0  0  0  0  0  0  0  0  0
   18.5270   12.2020   21.1500 C   0  0  0  0  0  0  0  0  0  0  0  0
   17.6370   12.5880   22.1490 C   0  0  0  0  0  0  0  0  0  0  0  0
   18.0640   13.4350   23.1740 C   0  0  0  0  0  0  0  0  0  0  0  0
   19.3820   13.8960   23.2040 C   0  0  0  0  0  0  0  0  0  0  0  0
   20.2980   13.5200   22.2110 C   0  0  0  0  0  0  0  0  0  0  0  0
   21.6890   13.9940   22.2400 C   0  0  0  0  0  0  0  0  0  0  0  0
   22.1060   14.9660   23.1580 C   0  0  0  0  0  0  0  0  0  0  0  0
   23.4280   15.4050   23.1810 C   0  0  0  0  0  0  0  0  0  0  0  0
   24.3630   14.8890   22.2820 C   0  0  0  0  0  0  0  0  0  0  0  0
   23.9880   13.9180   21.3400 C   0  0  0  0  0  0  0  0  0  0  0  0
   24.9580   13.3330   20.3180 C   0  0  1  0  0  0  0  0  0  0  0  0
   25.9600   14.3300   19.7480 C   0  0  0  0  0  0  0  0  0  0  0  0
   25.5730   15.4590   19.0030 C   0  0  0  0  0  0  0  0  0  0  0  0
   26.5270   16.3520   18.5100 C   0  0  0  0  0  0  0  0  0  0  0  0
   27.8810   16.1370   18.7510 C   0  0  0  0  0  0  0  0  0  0  0  0
   28.2840   15.0280   19.4870 C   0  0  0  0  0  0  0  0  0  0  0  0
   27.3340   14.1330   19.9830 C   0  0  0  0  0  0  0  0  0  0  0  0
   25.6670   12.2220   21.0290 N   0  0  0  0  0  0  0  0  0  0  0  0
   25.4460   11.0330   20.4220 C   0  0  0  0  0  0  0  0  0  0  0  0
   25.9620    9.8990   20.8970 N   0  0  0  0  0  0  0  0  0  0  0  0
   24.6750   11.1400   19.3400 N   0  0  0  0  0  0  0  0  0  0  0  0
   24.2230   10.1110   18.4180 C   0  0  0  0  0  0  0  0  0  0  0  0
   24.2920   12.5060   19.1530 C   0  0  0  0  0  0  0  0  0  0  0  0
   23.5700   12.8850   18.2500 O   0  0  0  0  0  0  0  0  0  0  0  0
   22.6440   13.4800   21.3450 C   0  0  0  0  0  0  0  0  0  0  0  0
   19.8450   12.6700   21.1880 C   0  0  0  0  0  0  0  0  0  0  0  0
   20.1026   10.4648   20.1267 H   0  0  0  0  0  0  0  0  0  0  0  0
   19.0264    9.9945   18.7676 H   0  0  0  0  0  0  0  0  0  0  0  0
   19.8217   11.6052   18.7676 H   0  0  0  0  0  0  0  0  0  0  0  0
   16.5984   12.2260   22.1308 H   0  0  0  0  0  0  0  0  0  0  0  0
   17.3591   13.7404   23.9613 H   0  0  0  0  0  0  0  0  0  0  0  0
   19.7057   14.5626   24.0170 H   0  0  0  0  0  0  0  0  0  0  0  0
   21.3809   15.3879   23.8695 H   0  0  0  0  0  0  0  0  0  0  0  0
   23.7377   16.1647   23.9138 H   0  0  0  0  0  0  0  0  0  0  0  0
   25.4029   15.2464   22.3120 H   0  0  0  0  0  0  0  0  0  0  0  0
   24.5061   15.6406   18.8064 H   0  0  0  0  0  0  0  0  0  0  0  0
   26.2069   17.2292   17.9286 H   0  0  0  0  0  0  0  0  0  0  0  0
   28.6297   16.8420   18.3606 H   0  0  0  0  0  0  0  0  0  0  0  0
   29.3533   14.8556   19.6788 H   0  0  0  0  0  0  0  0  0  0  0  0
   27.6642   13.2607   20.5662 H   0  0  0  0  0  0  0  0  0  0  0  0
   26.1430   12.3210   21.9120 H   0  0  0  0  0  0  0  0  0  0  0  0
   25.7880    9.0110   20.4420 H   0  0  0  0  0  0  0  0  0  0  0  0
   26.5390    9.8810   21.7280 H   0  0  0  0  0  0  0  0  0  0  0  0
   23.8445    9.2492   18.9873 H   0  0  0  0  0  0  0  0  0  0  0  0
   23.4189   10.5138   17.7845 H   0  0  0  0  0  0  0  0  0  0  0  0
   25.0636    9.7914   17.7845 H   0  0  0  0  0  0  0  0  0  0  0  0
   22.3343   12.7098   20.6232 H   0  0  0  0  0  0  0  0  0  0  0  0
   20.5449   12.3645   20.3963 H   0  0  0  0  0  0  0  0  0  0  0  0
  1  2  1  0
  2  3  1  0
  3  4  2  0
  4  5  1  0
  5  6  2  0
  6  7  1  0
  7  8  1  0
  8  9  2  0
  9 10  1  0
 10 11  2  0
 11 12  1  0
 13 12  1  1
 13 14  1  0
 14 15  2  0
 15 16  1  0
 16 17  2  0
 17 18  1  0
 18 19  2  0
 13 20  1  0
 20 21  1  0
 21 22  2  0
 21 23  1  0
 23 24  1  0
 23 25  1  0
 25 26  2  0
 12 27  2  0
  7 28  2  0
 28  3  1  0
 27  8  1  0
 25 13  1  0
 19 14  1  0
  1 29  1  0
  1 30  1  0
  1 31  1  0
  4 32  1  0
  5 33  1  0
  6 34  1  0
  9 35  1  0
 10 36  1  0
 11 37  1  0
 15 38  1  0
 16 39  1  0
 17 40  1  0
 18 41  1  0
 19 42  1  0
 20 43  1  0
 22 44  1  0
 22 45  1  0
 24 46  1  0
 24 47  1  0
 24 48  1  0
 27 49  1  0
 28 50  1  0
M  CHG  1  22   1
M  END
>  <meeko>  (8) 
{"is_sidechain": [false], "free_energy": -8.486, "intermolecular_energy": -10.328, "internal_energy": -1.351}

$$$$
4djv_ligand
     RDKit          3D

 50 53  0  0  0  0  0  0  0  0999 V2000
   28.3160   12.3820   22.3540 C   0  0  0  0  0  0  0  0  0  0  0  0
   28.6910   12.9370   23.6110 O   0  0  0  0  0  0  0  0  0  0  0  0
   27.7880   13.7760   24.2050 C   0  0  0  0  0  0  0  0  0  0  0  0
   28.0450   14.6450   25.2620 C   0  0  0  0  0  0  0  0  0  0  0  0
   27.0210   15.4480   25.7690 C   0  0  0  0  0  0  0  0  0  0  0  0
   25.7380   15.3860   25.2200 C   0  0  0  0  0  0  0  0  0  0  0  0
   25.4550   14.5210   24.1530 C   0  0  0  0  0  0  0  0  0  0  0  0
   24.1100   14.4570   23.5620 C   0  0  0  0  0  0  0  0  0  0  0  0
   23.2110   15.5230   23.6850 C   0  0  0  0  0  0  0  0  0  0  0  0
   21.9400   15.4540   23.1180 C   0  0  0  0  0  0  0  0  0  0  0  0
   21.5350   14.3140   22.4210 C   0  0  0  0  0  0  0  0  0  0  0  0
   22.4010   13.2180   22.2790 C   0  0  0  0  0  0  0  0  0  0  0  0
   22.0090   11.9380   21.5490 C   0  0  1  0  0  0  0  0  0  0  0  0
   22.8000   11.6630   20.2750 C   0  0  0  0  0  0  0  0  0  0  0  0
   23.2120   10.3730   19.8960 C   0  0  0  0  0  0  0  0  0  0  0  0
   23.9260   10.1680   18.7130 C   0  0  0  0  0  0  0  0  0  0  0  0
   24.2380   11.2440   17.8870 C   0  0  0  0  0  0  0  0  0  0  0  0
   23.8380   12.5270   18.2410 C   0  0  0  0  0  0  0  0  0  0  0  0
   23.1240   12.7370   19.4230 C   0  0  0  0  0  0  0  0  0  0  0  0
   22.2080   10.8330   22.5400 N   0  0  0  0  0  0  0  0  0  0  0  0
   21.0470   10.1860   22.7910 C   0  0  0  0  0  0  0  0  0  0  0  0
   20.9810    9.1780   23.6620 N   0  0  0  0  0  0  0  0  0  0  0  0
   20.0220   10.6700   22.0890 N   0  0  0  0  0  0  0  0  0  0  0  0
   18.6310   10.2460   22.0640 C   0  0  0  0  0  0  0  0  0  0  0  0
   20.4660   11.7620   21.2780 C   0  0  0  0  0  0  0  0  0  0  0  0
   19.7310   12.4020   20.5500 O   0  0  0  0  0  0  0  0  0  0  0  0
   23.6890   13.3180   22.8530 C   0  0  0  0  0  0  0  0  0  0  0  0
   26.5000   13.7210   23.6610 C   0  0  0  0  0  0  0  0  0  0  0  0
   27.7071   11.4808   22.5181 H   0  0  0  0  0  0  0  0  0  0  0  0
   27.7315   13.1211   21.7866 H   0  0  0  0  0  0  0  0  0  0  0  0
   29.2199   12.1155   21.7866 H   0  0  0  0  0  0  0  0  0  0  0  0
   29.0537   14.6990   25.6974 H   0  0  0  0  0  0  0  0  0  0  0  0
   27.2258   16.1329   26.6050 H   0  0  0  0  0  0  0  0  0  0  0  0
   24.9403   16.0232   25.6294 H   0  0  0  0  0  0  0  0  0  0  0  0
   23.5116   16.4263   24.2361 H   0  0  0  0  0  0  0  0  0  0  0  0
   21.2501   16.3046   23.2204 H   0  0  0  0  0  0  0  0  0  0  0  0
   20.5284   14.2742   21.9792 H   0  0  0  0  0  0  0  0  0  0  0  0
   22.9689    9.5144   20.5393 H   0  0  0  0  0  0  0  0  0  0  0  0
   24.2429    9.1525   18.4332 H   0  0  0  0  0  0  0  0  0  0  0  0
   24.8000   11.0792   16.9559 H   0  0  0  0  0  0  0  0  0  0  0  0
   24.0840   13.3784   17.5894 H   0  0  0  0  0  0  0  0  0  0  0  0
   22.8100   13.7562   19.6926 H   0  0  0  0  0  0  0  0  0  0  0  0
   23.0630   10.6700   23.0500 H   0  0  0  0  0  0  0  0  0  0  0  0
   20.1080    8.7020   23.8500 H   0  0  0  0  0  0  0  0  0  0  0  0
   21.7960    8.8570   24.1700 H   0  0  0  0  0  0  0  0  0  0  0  0
   18.2633   10.1339   23.0946 H   0  0  0  0  0  0  0  0  0  0  0  0
   18.0270   11.0008   21.5392 H   0  0  0  0  0  0  0  0  0  0  0  0
   18.5507    9.2826   21.5392 H   0  0  0  0  0  0  0  0  0  0  0  0
   24.3866   12.4749   22.7410 H   0  0  0  0  0  0  0  0  0  0  0  0
   26.3003   13.0332   22.8261 H   0  0  0  0  0  0  0  0  0  0  0  0
  1  2  1  0
  2  3  1  0
  3  4  2  0
  4  5  1  0
  5  6  2  0
  6  7  1  0
  7  8  1  0
  8  9  2  0
  9 10  1  0
 10 11  2  0
 11 12  1  0
 13 12  1  1
 13 14  1  0
 14 15  2  0
 15 16  1  0
 16 17  2  0
 17 18  1  0
 18 19  2  0
 13 20  1  0
 20 21  1  0
 21 22  2  0
 21 23  1  0
 23 24  1  0
 23 25  1  0
 25 26  2  0
 12 27  2  0
  7 28  2  0
 28  3  1  0
 27  8  1  0
 25 13  1  0
 19 14  1  0
  1 29  1  0
  1 30  1  0
  1 31  1  0
  4 32  1  0
  5 33  1  0
  6 34  1  0
  9 35  1  0
 10 36  1  0
 11 37  1  0
 15 38  1  0
 16 39  1  0
 17 40  1  0
 18 41  1  0
 19 42  1  0
 20 43  1  0
 22 44  1  0
 22 45  1  0
 24 46  1  0
 24 47  1  0
 24 48  1  0
 27 49  1  0
 28 50  1  0
M  CHG  1  22   1
M  END
>  <meeko>  (9) 
{"is_sidechain": [false], "free_energy": -8.476, "intermolecular_energy": -10.277, "internal_energy": -1.39}

$$$$
