4ivd_ligand
     RDKit          3D

 48 51  0  0  0  0  0  0  0  0999 V2000
   10.2670   57.6690   -2.7160 C   0  0  0  0  0  0  0  0  0  0  0  0
    9.8270   57.1590   -1.3510 C   0  0  1  0  0  0  0  0  0  0  0  0
   10.9250   57.2610   -0.4450 O   0  0  0  0  0  0  0  0  0  0  0  0
    8.7260   58.0000   -0.7820 C   0  0  0  0  0  0  0  0  0  0  0  0
    8.6870   59.3190   -0.9270 N   0  0  0  0  0  0  0  0  0  0  0  0
    7.4950   59.7170   -0.3890 C   0  0  0  0  0  0  0  0  0  0  0  0
    6.8890   60.9830   -0.2930 C   0  0  0  0  0  0  0  0  0  0  0  0
    5.6480   61.1710    0.2520 N   0  0  0  0  0  0  0  0  0  0  0  0
    5.0390   60.0470    0.6670 C   0  0  0  0  0  0  0  0  0  0  0  0
    3.7890   59.9390    1.2070 N   0  0  0  0  0  0  0  0  0  0  0  0
    3.5090   58.6110    1.4560 C   0  0  0  0  0  0  0  0  0  0  0  0
    4.6050   57.8490    1.0840 C   0  0  0  0  0  0  0  0  0  0  0  0
    5.5670   58.7760    0.6140 C   0  0  0  0  0  0  0  0  0  0  0  0
    6.8220   58.6150    0.1050 C   0  0  0  0  0  0  0  0  0  0  0  0
    7.6390   57.5450   -0.0370 N   0  0  0  0  0  0  0  0  0  0  0  0
    7.4720   56.2110    0.5310 C   0  0  2  0  0  0  0  0  0  0  0  0
    8.7080   55.6610    1.2780 C   0  0  0  0  0  0  0  0  0  0  0  0
    9.0150   54.2030    0.9390 C   0  0  0  0  0  0  0  0  0  0  0  0
    7.7820   53.2820    0.9640 C   0  0  1  0  0  0  0  0  0  0  0  0
    7.4310   52.8720    2.4140 C   0  0  0  0  0  0  0  0  0  0  0  0
    6.1450   53.4980    2.9670 C   0  0  0  0  0  0  0  0  0  0  0  0
    6.4000   54.7730    3.6520 C   0  0  0  0  0  0  0  0  0  0  0  0
    6.6030   55.7760    4.1980 N   0  0  0  0  0  0  0  0  0  0  0  0
    6.5710   53.8900    0.2260 C   0  0  0  0  0  0  0  0  0  0  0  0
    6.8750   55.2160   -0.4710 C   0  0  0  0  0  0  0  0  0  0  0  0
   10.9805   58.4960   -2.5859 H   0  0  0  0  0  0  0  0  0  0  0  0
   10.7493   56.8531   -3.2743 H   0  0  0  0  0  0  0  0  0  0  0  0
    9.3892   58.0265   -3.2743 H   0  0  0  0  0  0  0  0  0  0  0  0
    9.4808   56.1226   -1.4773 H   0  0  0  0  0  0  0  0  0  0  0  0
   10.5970   56.8900    0.3990 H   0  0  0  0  0  0  0  0  0  0  0  0
    7.4360   61.8589   -0.6721 H   0  0  0  0  0  0  0  0  0  0  0  0
    3.1730   60.7240    1.3630 H   0  0  0  0  0  0  0  0  0  0  0  0
    2.5714   58.2218    1.8795 H   0  0  0  0  0  0  0  0  0  0  0  0
    4.7064   56.7552    1.1416 H   0  0  0  0  0  0  0  0  0  0  0  0
    6.7246   56.3404    1.3276 H   0  0  0  0  0  0  0  0  0  0  0  0
    9.5808   56.2740    1.0090 H   0  0  0  0  0  0  0  0  0  0  0  0
    8.4874   55.7074    2.3547 H   0  0  0  0  0  0  0  0  0  0  0  0
    9.4533   54.1671   -0.0693 H   0  0  0  0  0  0  0  0  0  0  0  0
    9.7038   53.8342    1.7133 H   0  0  0  0  0  0  0  0  0  0  0  0
    8.0461   52.3698    0.4089 H   0  0  0  0  0  0  0  0  0  0  0  0
    7.3185   51.7781    2.4424 H   0  0  0  0  0  0  0  0  0  0  0  0
    8.2515   53.2411    3.0469 H   0  0  0  0  0  0  0  0  0  0  0  0
    5.4504   53.6764    2.1329 H   0  0  0  0  0  0  0  0  0  0  0  0
    5.7170   52.7993    3.7009 H   0  0  0  0  0  0  0  0  0  0  0  0
    6.2298   53.1699   -0.5323 H   0  0  0  0  0  0  0  0  0  0  0  0
    5.8033   54.0965    0.9863 H   0  0  0  0  0  0  0  0  0  0  0  0
    7.5944   55.0430   -1.2850 H   0  0  0  0  0  0  0  0  0  0  0  0
    5.9418   55.6312   -0.8794 H   0  0  0  0  0  0  0  0  0  0  0  0
  1  2  1  0
  2  3  1  0
  2  4  1  0
  4  5  2  0
  5  6  1  0
  6  7  2  0
  7  8  1  0
  8  9  2  0
  9 10  1  0
 10 11  1  0
 11 12  2  0
 12 13  1  0
 13 14  2  0
 14 15  1  0
 15 16  1  0
 16 17  1  0
 17 18  1  0
 18 19  1  0
 19 20  1  0
 20 21  1  0
 21 22  1  0
 22 23  3  0
 19 24  1  0
 24 25  1  0
 15  4  1  0
 25 16  1  0
 14  6  1  0
 13  9  1  0
  1 26  1  0
  1 27  1  0
  1 28  1  0
  2 29  1  6
  3 30  1  0
  7 31  1  0
 10 32  1  0
 11 33  1  0
 12 34  1  0
 16 35  1  6
 17 36  1  0
 17 37  1  0
 18 38  1  0
 18 39  1  0
 19 40  1  1
 20 41  1  0
 20 42  1  0
 21 43  1  0
 21 44  1  0
 24 45  1  0
 24 46  1  0
 25 47  1  0
 25 48  1  0
M  END
>  <meeko>  (1) 
{"is_sidechain": [false], "free_energy": -8.584, "intermolecular_energy": -10.842, "internal_energy": -0.837}

$$$$
4ivd_ligand
     RDKit          3D

 48 51  0  0  0  0  0  0  0  0999 V2000
   10.6680   57.8950   -2.3460 C   0  0  0  0  0  0  0  0  0  0  0  0
    9.7980   57.0520   -1.4240 C   0  0  1  0  0  0  0  0  0  0  0  0
   10.5910   56.6010   -0.3280 O   0  0  0  0  0  0  0  0  0  0  0  0
    8.6810   57.8600   -0.8370 C   0  0  0  0  0  0  0  0  0  0  0  0
    8.5840   59.1720   -1.0060 N   0  0  0  0  0  0  0  0  0  0  0  0
    7.3930   59.5320   -0.4390 C   0  0  0  0  0  0  0  0  0  0  0  0
    6.7390   60.7750   -0.3490 C   0  0  0  0  0  0  0  0  0  0  0  0
    5.5080   60.9240    0.2310 N   0  0  0  0  0  0  0  0  0  0  0  0
    4.9590   59.7850    0.6870 C   0  0  0  0  0  0  0  0  0  0  0  0
    3.7310   59.6370    1.2680 N   0  0  0  0  0  0  0  0  0  0  0  0
    3.5140   58.3050    1.5510 C   0  0  0  0  0  0  0  0  0  0  0  0
    4.6290   57.5800    1.1600 C   0  0  0  0  0  0  0  0  0  0  0  0
    5.5370   58.5360    0.6420 C   0  0  0  0  0  0  0  0  0  0  0  0
    6.7810   58.4150    0.0970 C   0  0  0  0  0  0  0  0  0  0  0  0
    7.6370   57.3760   -0.0500 N   0  0  0  0  0  0  0  0  0  0  0  0
    7.5430   56.0480    0.5480 C   0  0  2  0  0  0  0  0  0  0  0  0
    6.6970   55.0320   -0.2510 C   0  0  0  0  0  0  0  0  0  0  0  0
    5.7530   54.2130    0.6280 C   0  0  0  0  0  0  0  0  0  0  0  0
    6.4140   53.6470    1.8980 C   0  0  1  0  0  0  0  0  0  0  0  0
    7.2220   52.3680    1.5740 C   0  0  0  0  0  0  0  0  0  0  0  0
    8.7120   52.4410    1.9310 C   0  0  0  0  0  0  0  0  0  0  0  0
    9.5210   52.9800    0.8300 C   0  0  0  0  0  0  0  0  0  0  0  0
   10.1590   53.4010   -0.0430 N   0  0  0  0  0  0  0  0  0  0  0  0
    7.2650   54.6970    2.6430 C   0  0  0  0  0  0  0  0  0  0  0  0
    7.1850   56.0970    2.0380 C   0  0  0  0  0  0  0  0  0  0  0  0
   11.3286   58.5351   -1.7428 H   0  0  0  0  0  0  0  0  0  0  0  0
   11.2770   57.2345   -2.9807 H   0  0  0  0  0  0  0  0  0  0  0  0
   10.0270   58.5245   -2.9807 H   0  0  0  0  0  0  0  0  0  0  0  0
    9.3892   56.2210   -2.0175 H   0  0  0  0  0  0  0  0  0  0  0  0
   10.2560   55.7050   -0.1190 H   0  0  0  0  0  0  0  0  0  0  0  0
    7.2380   61.6641   -0.7620 H   0  0  0  0  0  0  0  0  0  0  0  0
    3.0890   60.3990    1.4270 H   0  0  0  0  0  0  0  0  0  0  0  0
    2.6064   57.8869    2.0109 H   0  0  0  0  0  0  0  0  0  0  0  0
    4.7773   56.4927    1.2359 H   0  0  0  0  0  0  0  0  0  0  0  0
    8.5638   55.6432    0.4841 H   0  0  0  0  0  0  0  0  0  0  0  0
    6.0970   55.5818   -0.9911 H   0  0  0  0  0  0  0  0  0  0  0  0
    7.3950   54.3274   -0.7268 H   0  0  0  0  0  0  0  0  0  0  0  0
    4.9159   54.8586    0.9320 H   0  0  0  0  0  0  0  0  0  0  0  0
    5.4264   53.3510    0.0277 H   0  0  0  0  0  0  0  0  0  0  0  0
    5.6055   53.3693    2.5902 H   0  0  0  0  0  0  0  0  0  0  0  0
    6.7769   51.5313    2.1324 H   0  0  0  0  0  0  0  0  0  0  0  0
    7.1709   52.2374    0.4830 H   0  0  0  0  0  0  0  0  0  0  0  0
    8.8340   53.0899    2.8108 H   0  0  0  0  0  0  0  0  0  0  0  0
    9.0603   51.4180    2.1364 H   0  0  0  0  0  0  0  0  0  0  0  0
    6.9171   54.7492    3.6852 H   0  0  0  0  0  0  0  0  0  0  0  0
    8.3135   54.3736    2.5648 H   0  0  0  0  0  0  0  0  0  0  0  0
    6.1625   56.4856    2.1540 H   0  0  0  0  0  0  0  0  0  0  0  0
    7.8966   56.7552    2.5579 H   0  0  0  0  0  0  0  0  0  0  0  0
  1  2  1  0
  2  3  1  0
  2  4  1  0
  4  5  2  0
  5  6  1  0
  6  7  2  0
  7  8  1  0
  8  9  2  0
  9 10  1  0
 10 11  1  0
 11 12  2  0
 12 13  1  0
 13 14  2  0
 14 15  1  0
 15 16  1  0
 16 17  1  0
 17 18  1  0
 18 19  1  0
 19 20  1  0
 20 21  1  0
 21 22  1  0
 22 23  3  0
 19 24  1  0
 24 25  1  0
 15  4  1  0
 25 16  1  0
 14  6  1  0
 13  9  1  0
  1 26  1  0
  1 27  1  0
  1 28  1  0
  2 29  1  6
  3 30  1  0
  7 31  1  0
 10 32  1  0
 11 33  1  0
 12 34  1  0
 16 35  1  6
 17 36  1  0
 17 37  1  0
 18 38  1  0
 18 39  1  0
 19 40  1  6
 20 41  1  0
 20 42  1  0
 21 43  1  0
 21 44  1  0
 24 45  1  0
 24 46  1  0
 25 47  1  0
 25 48  1  0
M  END
>  <meeko>  (2) 
{"is_sidechain": [false], "free_energy": -8.522, "intermolecular_energy": -10.962, "internal_energy": -0.639}

$$$$
4ivd_ligand
     RDKit          3D

 48 51  0  0  0  0  0  0  0  0999 V2000
   10.4770   57.4220   -2.2600 C   0  0  0  0  0  0  0  0  0  0  0  0
    9.6820   56.8170   -1.1120 C   0  0  1  0  0  0  0  0  0  0  0  0
   10.5610   56.5840   -0.0140 O   0  0  0  0  0  0  0  0  0  0  0  0
    8.6270   57.7610   -0.6200 C   0  0  0  0  0  0  0  0  0  0  0  0
    8.6630   59.0640   -0.8720 N   0  0  0  0  0  0  0  0  0  0  0  0
    7.4930   59.5690   -0.3760 C   0  0  0  0  0  0  0  0  0  0  0  0
    6.9590   60.8710   -0.3870 C   0  0  0  0  0  0  0  0  0  0  0  0
    5.7290   61.1710    0.1320 N   0  0  0  0  0  0  0  0  0  0  0  0
    5.0580   60.1200    0.6340 C   0  0  0  0  0  0  0  0  0  0  0  0
    3.8020   60.1260    1.1730 N   0  0  0  0  0  0  0  0  0  0  0  0
    3.4490   58.8400    1.5270 C   0  0  0  0  0  0  0  0  0  0  0  0
    4.5010   57.9910    1.2250 C   0  0  0  0  0  0  0  0  0  0  0  0
    5.5140   58.8220    0.6870 C   0  0  0  0  0  0  0  0  0  0  0  0
    6.7590   58.5510    0.2020 C   0  0  0  0  0  0  0  0  0  0  0  0
    7.5150   57.4290    0.1520 N   0  0  0  0  0  0  0  0  0  0  0  0
    7.2740   56.1570    0.8250 C   0  0  2  0  0  0  0  0  0  0  0  0
    6.2320   55.2440    0.1400 C   0  0  0  0  0  0  0  0  0  0  0  0
    5.2460   54.6130    1.1230 C   0  0  0  0  0  0  0  0  0  0  0  0
    5.9110   54.0100    2.3730 C   0  0  1  0  0  0  0  0  0  0  0  0
    6.4980   52.6130    2.0640 C   0  0  0  0  0  0  0  0  0  0  0  0
    5.6560   51.7570    1.1100 C   0  0  0  0  0  0  0  0  0  0  0  0
    4.4640   51.2030    1.7670 C   0  0  0  0  0  0  0  0  0  0  0  0
    3.5270   50.7620    2.2890 N   0  0  0  0  0  0  0  0  0  0  0  0
    6.9590   54.9520    3.0020 C   0  0  0  0  0  0  0  0  0  0  0  0
    7.0390   56.3220    2.3310 C   0  0  0  0  0  0  0  0  0  0  0  0
   11.2911   58.0415   -1.8558 H   0  0  0  0  0  0  0  0  0  0  0  0
   10.9012   56.6162   -2.8770 H   0  0  0  0  0  0  0  0  0  0  0  0
    9.8134   58.0456   -2.8770 H   0  0  0  0  0  0  0  0  0  0  0  0
    9.2159   55.8913   -1.4807 H   0  0  0  0  0  0  0  0  0  0  0  0
   10.7830   57.4720    0.3320 H   0  0  0  0  0  0  0  0  0  0  0  0
    7.5554   61.6814   -0.8314 H   0  0  0  0  0  0  0  0  0  0  0  0
    3.2310   60.9530    1.2600 H   0  0  0  0  0  0  0  0  0  0  0  0
    2.4906   58.5388    1.9750 H   0  0  0  0  0  0  0  0  0  0  0  0
    4.5412   56.9016    1.3719 H   0  0  0  0  0  0  0  0  0  0  0  0
    8.2179   55.6031    0.7141 H   0  0  0  0  0  0  0  0  0  0  0  0
    5.6652   55.8443   -0.5869 H   0  0  0  0  0  0  0  0  0  0  0  0
    6.7832   54.4234   -0.3425 H   0  0  0  0  0  0  0  0  0  0  0  0
    4.5369   55.3885    1.4480 H   0  0  0  0  0  0  0  0  0  0  0  0
    4.7527   53.7849    0.5930 H   0  0  0  0  0  0  0  0  0  0  0  0
    5.1244   53.8858    3.1318 H   0  0  0  0  0  0  0  0  0  0  0  0
    7.4914   52.7517    1.6125 H   0  0  0  0  0  0  0  0  0  0  0  0
    6.5273   52.0714    3.0210 H   0  0  0  0  0  0  0  0  0  0  0  0
    5.3357   52.3814    0.2630 H   0  0  0  0  0  0  0  0  0  0  0  0
    6.2784   50.9147    0.7735 H   0  0  0  0  0  0  0  0  0  0  0  0
    6.7014   55.0993    4.0612 H   0  0  0  0  0  0  0  0  0  0  0  0
    7.9403   54.4730    2.8697 H   0  0  0  0  0  0  0  0  0  0  0  0
    6.0956   56.8633    2.4950 H   0  0  0  0  0  0  0  0  0  0  0  0
    7.8755   56.8883    2.7664 H   0  0  0  0  0  0  0  0  0  0  0  0
  1  2  1  0
  2  3  1  0
  2  4  1  0
  4  5  2  0
  5  6  1  0
  6  7  2  0
  7  8  1  0
  8  9  2  0
  9 10  1  0
 10 11  1  0
 11 12  2  0
 12 13  1  0
 13 14  2  0
 14 15  1  0
 15 16  1  0
 16 17  1  0
 17 18  1  0
 18 19  1  0
 19 20  1  0
 20 21  1  0
 21 22  1  0
 22 23  3  0
 19 24  1  0
 24 25  1  0
 15  4  1  0
 25 16  1  0
 14  6  1  0
 13  9  1  0
  1 26  1  0
  1 27  1  0
  1 28  1  0
  2 29  1  6
  3 30  1  0
  7 31  1  0
 10 32  1  0
 11 33  1  0
 12 34  1  0
 16 35  1  6
 17 36  1  0
 17 37  1  0
 18 38  1  0
 18 39  1  0
 19 40  1  6
 20 41  1  0
 20 42  1  0
 21 43  1  0
 21 44  1  0
 24 45  1  0
 24 46  1  0
 25 47  1  0
 25 48  1  0
M  END
>  <meeko>  (3) 
{"is_sidechain": [false], "free_energy": -8.434, "intermolecular_energy": -11.068, "internal_energy": -0.421}

$$$$
4ivd_ligand
     RDKit          3D

 48 51  0  0  0  0  0  0  0  0999 V2000
    3.7890   51.1760    0.4320 C   0  0  0  0  0  0  0  0  0  0  0  0
    4.2210   51.9160    1.6900 C   0  0  1  0  0  0  0  0  0  0  0  0
    3.7980   51.1720    2.8310 O   0  0  0  0  0  0  0  0  0  0  0  0
    5.7130   52.0190    1.7790 C   0  0  0  0  0  0  0  0  0  0  0  0
    6.4830   50.9810    2.0810 N   0  0  0  0  0  0  0  0  0  0  0  0
    7.7700   51.4230    1.9500 C   0  0  0  0  0  0  0  0  0  0  0  0
    9.0050   50.7650    2.0980 C   0  0  0  0  0  0  0  0  0  0  0  0
   10.2060   51.3820    1.8750 N   0  0  0  0  0  0  0  0  0  0  0  0
   10.1150   52.6630    1.4780 C   0  0  0  0  0  0  0  0  0  0  0  0
   11.1450   53.4980    1.1480 N   0  0  0  0  0  0  0  0  0  0  0  0
   10.6380   54.7150    0.7440 C   0  0  0  0  0  0  0  0  0  0  0  0
    9.2560   54.6700    0.8270 C   0  0  0  0  0  0  0  0  0  0  0  0
    8.9490   53.3770    1.3160 C   0  0  0  0  0  0  0  0  0  0  0  0
    7.7650   52.7560    1.5830 C   0  0  0  0  0  0  0  0  0  0  0  0
    6.4760   53.1700    1.5830 N   0  0  0  0  0  0  0  0  0  0  0  0
    5.9750   54.5370    1.4810 C   0  0  2  0  0  0  0  0  0  0  0  0
    6.0430   55.1520    0.0650 C   0  0  0  0  0  0  0  0  0  0  0  0
    6.5650   56.5880    0.0590 C   0  0  0  0  0  0  0  0  0  0  0  0
    5.9220   57.4920    1.1270 C   0  0  1  0  0  0  0  0  0  0  0  0
    4.5350   57.9930    0.6590 C   0  0  0  0  0  0  0  0  0  0  0  0
    4.3160   59.5050    0.8000 C   0  0  0  0  0  0  0  0  0  0  0  0
    5.4560   60.2800    0.2930 C   0  0  0  0  0  0  0  0  0  0  0  0
    6.3600   60.8910   -0.1020 N   0  0  0  0  0  0  0  0  0  0  0  0
    5.8560   56.8190    2.5140 C   0  0  0  0  0  0  0  0  0  0  0  0
    6.5410   55.4540    2.5700 C   0  0  0  0  0  0  0  0  0  0  0  0
    3.2528   50.2575    0.7128 H   0  0  0  0  0  0  0  0  0  0  0  0
    3.1254   51.8207   -0.1630 H   0  0  0  0  0  0  0  0  0  0  0  0
    4.6766   50.9150   -0.1630 H   0  0  0  0  0  0  0  0  0  0  0  0
    3.7762   52.9214    1.6548 H   0  0  0  0  0  0  0  0  0  0  0  0
    4.4700   51.3510    3.5200 H   0  0  0  0  0  0  0  0  0  0  0  0
    9.0051   49.7091    2.4063 H   0  0  0  0  0  0  0  0  0  0  0  0
   12.1180   53.2300    1.1780 H   0  0  0  0  0  0  0  0  0  0  0  0
   11.2325   55.5785    0.4110 H   0  0  0  0  0  0  0  0  0  0  0  0
    8.5467   55.4698    0.5678 H   0  0  0  0  0  0  0  0  0  0  0  0
    4.8955   54.4516    1.6745 H   0  0  0  0  0  0  0  0  0  0  0  0
    6.7110   54.5342   -0.5532 H   0  0  0  0  0  0  0  0  0  0  0  0
    5.0174   55.1744   -0.3322 H   0  0  0  0  0  0  0  0  0  0  0  0
    7.6505   56.5623    0.2354 H   0  0  0  0  0  0  0  0  0  0  0  0
    6.3053   57.0172   -0.9199 H   0  0  0  0  0  0  0  0  0  0  0  0
    6.5756   58.3683    1.2488 H   0  0  0  0  0  0  0  0  0  0  0  0
    4.4152   57.7273   -0.4017 H   0  0  0  0  0  0  0  0  0  0  0  0
    3.7943   57.5104    1.3136 H   0  0  0  0  0  0  0  0  0  0  0  0
    3.4160   59.7870    0.2339 H   0  0  0  0  0  0  0  0  0  0  0  0
    4.2027   59.7316    1.8704 H   0  0  0  0  0  0  0  0  0  0  0  0
    6.3429   57.4817    3.2446 H   0  0  0  0  0  0  0  0  0  0  0  0
    4.7922   56.6533    2.7396 H   0  0  0  0  0  0  0  0  0  0  0  0
    7.6220   55.5825    2.4121 H   0  0  0  0  0  0  0  0  0  0  0  0
    6.3585   54.9993    3.5549 H   0  0  0  0  0  0  0  0  0  0  0  0
  1  2  1  0
  2  3  1  0
  2  4  1  0
  4  5  2  0
  5  6  1  0
  6  7  2  0
  7  8  1  0
  8  9  2  0
  9 10  1  0
 10 11  1  0
 11 12  2  0
 12 13  1  0
 13 14  2  0
 14 15  1  0
 15 16  1  0
 16 17  1  0
 17 18  1  0
 18 19  1  0
 19 20  1  0
 20 21  1  0
 21 22  1  0
 22 23  3  0
 19 24  1  0
 24 25  1  0
 15  4  1  0
 25 16  1  0
 14  6  1  0
 13  9  1  0
  1 26  1  0
  1 27  1  0
  1 28  1  0
  2 29  1  1
  3 30  1  0
  7 31  1  0
 10 32  1  0
 11 33  1  0
 12 34  1  0
 16 35  1  6
 17 36  1  0
 17 37  1  0
 18 38  1  0
 18 39  1  0
 19 40  1  6
 20 41  1  0
 20 42  1  0
 21 43  1  0
 21 44  1  0
 24 45  1  0
 24 46  1  0
 25 47  1  0
 25 48  1  0
M  END
>  <meeko>  (4) 
{"is_sidechain": [false], "free_energy": -8.036, "intermolecular_energy": -10.469, "internal_energy": -0.518}

$$$$
4ivd_ligand
     RDKit          3D

 48 51  0  0  0  0  0  0  0  0999 V2000
    3.4860   59.7700    1.6390 C   0  0  0  0  0  0  0  0  0  0  0  0
    4.0400   58.3570    1.5190 C   0  0  1  0  0  0  0  0  0  0  0  0
    3.1090   57.5580    0.7920 O   0  0  0  0  0  0  0  0  0  0  0  0
    5.3200   58.3350    0.7410 C   0  0  0  0  0  0  0  0  0  0  0  0
    5.7520   59.3820    0.0490 N   0  0  0  0  0  0  0  0  0  0  0  0
    6.9880   59.0330   -0.4190 C   0  0  0  0  0  0  0  0  0  0  0  0
    7.9380   59.7460   -1.1730 C   0  0  0  0  0  0  0  0  0  0  0  0
    9.1590   59.2270   -1.5090 N   0  0  0  0  0  0  0  0  0  0  0  0
    9.3920   57.9890   -1.0410 C   0  0  0  0  0  0  0  0  0  0  0  0
   10.5340   57.2540   -1.1900 N   0  0  0  0  0  0  0  0  0  0  0  0
   10.3990   56.0550   -0.5220 C   0  0  0  0  0  0  0  0  0  0  0  0
    9.1410   56.0080    0.0570 C   0  0  0  0  0  0  0  0  0  0  0  0
    8.5140   57.2260   -0.3040 C   0  0  0  0  0  0  0  0  0  0  0  0
    7.2870   57.7450   -0.0150 C   0  0  0  0  0  0  0  0  0  0  0  0
    6.1960   57.2570    0.6200 N   0  0  0  0  0  0  0  0  0  0  0  0
    5.9390   55.8800    1.0290 C   0  0  2  0  0  0  0  0  0  0  0  0
    6.4750   55.5040    2.4280 C   0  0  0  0  0  0  0  0  0  0  0  0
    7.1770   54.1470    2.4590 C   0  0  0  0  0  0  0  0  0  0  0  0
    6.4030   53.0260    1.7410 C   0  0  1  0  0  0  0  0  0  0  0  0
    5.2790   52.4670    2.6460 C   0  0  0  0  0  0  0  0  0  0  0  0
    4.9120   51.0010    2.3840 C   0  0  0  0  0  0  0  0  0  0  0  0
    3.8630   50.8670    1.3640 C   0  0  0  0  0  0  0  0  0  0  0  0
    3.0300   50.7620    0.5640 N   0  0  0  0  0  0  0  0  0  0  0  0
    5.8690   53.4630    0.3600 C   0  0  0  0  0  0  0  0  0  0  0  0
    6.3130   54.8640   -0.0570 C   0  0  0  0  0  0  0  0  0  0  0  0
    3.3824   60.0342    2.7018 H   0  0  0  0  0  0  0  0  0  0  0  0
    4.1738   60.4762    1.1510 H   0  0  0  0  0  0  0  0  0  0  0  0
    2.5015   59.8205    1.1510 H   0  0  0  0  0  0  0  0  0  0  0  0
    4.2139   57.9787    2.5371 H   0  0  0  0  0  0  0  0  0  0  0  0
    2.4020   58.1750    0.5130 H   0  0  0  0  0  0  0  0  0  0  0  0
    7.6888   60.7641   -1.5067 H   0  0  0  0  0  0  0  0  0  0  0  0
   11.3490   57.5750   -1.6920 H   0  0  0  0  0  0  0  0  0  0  0  0
   11.1634   55.2665   -0.4592 H   0  0  0  0  0  0  0  0  0  0  0  0
    8.7185   55.1965    0.6678 H   0  0  0  0  0  0  0  0  0  0  0  0
    4.8466   55.8264    1.1469 H   0  0  0  0  0  0  0  0  0  0  0  0
    7.1913   56.2755    2.7469 H   0  0  0  0  0  0  0  0  0  0  0  0
    5.6091   55.4396    3.1033 H   0  0  0  0  0  0  0  0  0  0  0  0
    8.1590   54.2542    1.9752 H   0  0  0  0  0  0  0  0  0  0  0  0
    7.2560   53.8531    3.5161 H   0  0  0  0  0  0  0  0  0  0  0  0
    7.1165   52.2120    1.5449 H   0  0  0  0  0  0  0  0  0  0  0  0
    5.6060   52.5562    3.6925 H   0  0  0  0  0  0  0  0  0  0  0  0
    4.3781   53.0568    2.4212 H   0  0  0  0  0  0  0  0  0  0  0  0
    5.8102   50.4664    2.0412 H   0  0  0  0  0  0  0  0  0  0  0  0
    4.5277   50.5753    3.3227 H   0  0  0  0  0  0  0  0  0  0  0  0
    6.2283   52.7466   -0.3934 H   0  0  0  0  0  0  0  0  0  0  0  0
    4.7715   53.4827    0.4322 H   0  0  0  0  0  0  0  0  0  0  0  0
    7.4033   54.8719   -0.2027 H   0  0  0  0  0  0  0  0  0  0  0  0
    5.8082   55.1375   -0.9953 H   0  0  0  0  0  0  0  0  0  0  0  0
  1  2  1  0
  2  3  1  0
  2  4  1  0
  4  5  2  0
  5  6  1  0
  6  7  2  0
  7  8  1  0
  8  9  2  0
  9 10  1  0
 10 11  1  0
 11 12  2  0
 12 13  1  0
 13 14  2  0
 14 15  1  0
 15 16  1  0
 16 17  1  0
 17 18  1  0
 18 19  1  0
 19 20  1  0
 20 21  1  0
 21 22  1  0
 22 23  3  0
 19 24  1  0
 24 25  1  0
 15  4  1  0
 25 16  1  0
 14  6  1  0
 13  9  1  0
  1 26  1  0
  1 27  1  0
  1 28  1  0
  2 29  1  1
  3 30  1  0
  7 31  1  0
 10 32  1  0
 11 33  1  0
 12 34  1  0
 16 35  1  6
 17 36  1  0
 17 37  1  0
 18 38  1  0
 18 39  1  0
 19 40  1  1
 20 41  1  0
 20 42  1  0
 21 43  1  0
 21 44  1  0
 24 45  1  0
 24 46  1  0
 25 47  1  0
 25 48  1  0
M  END
>  <meeko>  (5) 
{"is_sidechain": [false], "free_energy": -7.995, "intermolecular_energy": -10.762, "internal_energy": -0.172}

$$$$
4ivd_ligand
     RDKit          3D

 48 51  0  0  0  0  0  0  0  0999 V2000
    6.4830   55.5950    3.9190 C   0  0  0  0  0  0  0  0  0  0  0  0
    5.7750   55.3750    2.5900 C   0  0  1  0  0  0  0  0  0  0  0  0
    4.3660   55.4210    2.8050 O   0  0  0  0  0  0  0  0  0  0  0  0
    6.0930   56.4670    1.6150 C   0  0  0  0  0  0  0  0  0  0  0  0
    5.3030   57.5190    1.4400 N   0  0  0  0  0  0  0  0  0  0  0  0
    5.9690   58.3440    0.5760 C   0  0  0  0  0  0  0  0  0  0  0  0
    5.6480   59.6130    0.0600 C   0  0  0  0  0  0  0  0  0  0  0  0
    6.4830   60.3070   -0.7720 N   0  0  0  0  0  0  0  0  0  0  0  0
    7.6480   59.6940   -1.0410 C   0  0  0  0  0  0  0  0  0  0  0  0
    8.6760   60.1740   -1.8020 N   0  0  0  0  0  0  0  0  0  0  0  0
    9.7160   59.2680   -1.7940 C   0  0  0  0  0  0  0  0  0  0  0  0
    9.3480   58.1760   -1.0250 C   0  0  0  0  0  0  0  0  0  0  0  0
    8.0320   58.4540   -0.5810 C   0  0  0  0  0  0  0  0  0  0  0  0
    7.1680   57.7600    0.2130 C   0  0  0  0  0  0  0  0  0  0  0  0
    7.2040   56.5280    0.7740 N   0  0  0  0  0  0  0  0  0  0  0  0
    8.1510   55.4500    0.5080 C   0  0  2  0  0  0  0  0  0  0  0  0
    7.5170   54.0510    0.3430 C   0  0  0  0  0  0  0  0  0  0  0  0
    8.2780   52.9550    1.0900 C   0  0  0  0  0  0  0  0  0  0  0  0
    9.8030   53.0030    0.8840 C   0  0  1  0  0  0  0  0  0  0  0  0
   10.1960   52.3570   -0.4660 C   0  0  0  0  0  0  0  0  0  0  0  0
   11.7060   52.2410   -0.7090 C   0  0  0  0  0  0  0  0  0  0  0  0
   12.1150   52.8760   -1.9690 C   0  0  0  0  0  0  0  0  0  0  0  0
   12.4360   53.3710   -2.9680 N   0  0  0  0  0  0  0  0  0  0  0  0
   10.3790   54.4270    1.0340 C   0  0  0  0  0  0  0  0  0  0  0  0
    9.3470   55.4670    1.4660 C   0  0  0  0  0  0  0  0  0  0  0  0
    5.7887   55.3793    4.7445 H   0  0  0  0  0  0  0  0  0  0  0  0
    7.3526   54.9247    3.9866 H   0  0  0  0  0  0  0  0  0  0  0  0
    6.8195   56.6401    3.9866 H   0  0  0  0  0  0  0  0  0  0  0  0
    6.1074   54.4055    2.1905 H   0  0  0  0  0  0  0  0  0  0  0  0
    4.0680   54.4890    2.7620 H   0  0  0  0  0  0  0  0  0  0  0  0
    4.6848   60.0662    0.3374 H   0  0  0  0  0  0  0  0  0  0  0  0
    8.6610   61.0710   -2.2660 H   0  0  0  0  0  0  0  0  0  0  0  0
   10.6782   59.3920   -2.3124 H   0  0  0  0  0  0  0  0  0  0  0  0
    9.9504   57.2821   -0.8056 H   0  0  0  0  0  0  0  0  0  0  0  0
    8.5494   55.6726   -0.4928 H   0  0  0  0  0  0  0  0  0  0  0  0
    6.4869   54.0860    0.7274 H   0  0  0  0  0  0  0  0  0  0  0  0
    7.5491   53.8008   -0.7277 H   0  0  0  0  0  0  0  0  0  0  0  0
    8.0703   53.0603    2.1651 H   0  0  0  0  0  0  0  0  0  0  0  0
    7.9313   51.9928    0.6851 H   0  0  0  0  0  0  0  0  0  0  0  0
   10.2590   52.4081    1.6891 H   0  0  0  0  0  0  0  0  0  0  0  0
    9.7655   51.3453   -0.4993 H   0  0  0  0  0  0  0  0  0  0  0  0
    9.8064   53.0210   -1.2517 H   0  0  0  0  0  0  0  0  0  0  0  0
   12.2371   52.7281    0.1221 H   0  0  0  0  0  0  0  0  0  0  0  0
   11.9570   51.1719   -0.7722 H   0  0  0  0  0  0  0  0  0  0  0  0
   11.1800   54.3995    1.7874 H   0  0  0  0  0  0  0  0  0  0  0  0
   10.7443   54.7310    0.0420 H   0  0  0  0  0  0  0  0  0  0  0  0
    9.0011   55.2355    2.4842 H   0  0  0  0  0  0  0  0  0  0  0  0
    9.8104   56.4644    1.4464 H   0  0  0  0  0  0  0  0  0  0  0  0
  1  2  1  0
  2  3  1  0
  2  4  1  0
  4  5  2  0
  5  6  1  0
  6  7  2  0
  7  8  1  0
  8  9  2  0
  9 10  1  0
 10 11  1  0
 11 12  2  0
 12 13  1  0
 13 14  2  0
 14 15  1  0
 15 16  1  0
 16 17  1  0
 17 18  1  0
 18 19  1  0
 19 20  1  0
 20 21  1  0
 21 22  1  0
 22 23  3  0
 19 24  1  0
 24 25  1  0
 15  4  1  0
 25 16  1  0
 14  6  1  0
 13  9  1  0
  1 26  1  0
  1 27  1  0
  1 28  1  0
  2 29  1  6
  3 30  1  0
  7 31  1  0
 10 32  1  0
 11 33  1  0
 12 34  1  0
 16 35  1  1
 17 36  1  0
 17 37  1  0
 18 38  1  0
 18 39  1  0
 19 40  1  6
 20 41  1  0
 20 42  1  0
 21 43  1  0
 21 44  1  0
 24 45  1  0
 24 46  1  0
 25 47  1  0
 25 48  1  0
M  END
>  <meeko>  (6) 
{"is_sidechain": [false], "free_energy": -7.855, "intermolecular_energy": -9.954, "internal_energy": -0.804}

$$$$
4ivd_ligand
     RDKit          3D

 48 51  0  0  0  0  0  0  0  0999 V2000
    3.5180   59.5010    2.0200 C   0  0  0  0  0  0  0  0  0  0  0  0
    4.2500   58.1750    1.8730 C   0  0  1  0  0  0  0  0  0  0  0  0
    3.3620   57.2200    1.2950 O   0  0  0  0  0  0  0  0  0  0  0  0
    5.4150   58.2940    0.9380 C   0  0  0  0  0  0  0  0  0  0  0  0
    5.5570   59.3150    0.1020 N   0  0  0  0  0  0  0  0  0  0  0  0
    6.7770   59.1420   -0.4900 C   0  0  0  0  0  0  0  0  0  0  0  0
    7.4820   59.9230   -1.4250 C   0  0  0  0  0  0  0  0  0  0  0  0
    8.7340   59.5970   -1.8690 N   0  0  0  0  0  0  0  0  0  0  0  0
    9.2520   58.4820   -1.3250 C   0  0  0  0  0  0  0  0  0  0  0  0
   10.4900   57.9520   -1.5550 N   0  0  0  0  0  0  0  0  0  0  0  0
   10.6640   56.8330   -0.7670 C   0  0  0  0  0  0  0  0  0  0  0  0
    9.5110   56.6280   -0.0260 C   0  0  0  0  0  0  0  0  0  0  0  0
    8.6250   57.6630   -0.4120 C   0  0  0  0  0  0  0  0  0  0  0  0
    7.3620   57.9840   -0.0130 C   0  0  0  0  0  0  0  0  0  0  0  0
    6.4620   57.3840    0.8030 N   0  0  0  0  0  0  0  0  0  0  0  0
    6.5230   56.0390    1.3660 C   0  0  2  0  0  0  0  0  0  0  0  0
    5.6730   54.9830    0.6250 C   0  0  0  0  0  0  0  0  0  0  0  0
    4.8830   54.0770    1.5690 C   0  0  0  0  0  0  0  0  0  0  0  0
    5.7090   53.5310    2.7470 C   0  0  1  0  0  0  0  0  0  0  0  0
    6.5670   52.3220    2.3040 C   0  0  0  0  0  0  0  0  0  0  0  0
    8.0800   52.5130    2.4650 C   0  0  0  0  0  0  0  0  0  0  0  0
    8.7420   52.8000    1.1850 C   0  0  0  0  0  0  0  0  0  0  0  0
    9.2650   53.0200    0.1730 N   0  0  0  0  0  0  0  0  0  0  0  0
    6.5580   54.6220    3.4350 C   0  0  0  0  0  0  0  0  0  0  0  0
    6.3180   56.0270    2.8850 C   0  0  0  0  0  0  0  0  0  0  0  0
    3.3900   59.7328    3.0877 H   0  0  0  0  0  0  0  0  0  0  0  0
    4.1037   60.2984    1.5393 H   0  0  0  0  0  0  0  0  0  0  0  0
    2.5311   59.4303    1.5393 H   0  0  0  0  0  0  0  0  0  0  0  0
    4.5993   57.8738    2.8716 H   0  0  0  0  0  0  0  0  0  0  0  0
    2.7120   57.7470    0.7870 H   0  0  0  0  0  0  0  0  0  0  0  0
    7.0057   60.8345   -1.8153 H   0  0  0  0  0  0  0  0  0  0  0  0
   11.1660   58.3540   -2.1870 H   0  0  0  0  0  0  0  0  0  0  0  0
   11.5680   56.2073   -0.7326 H   0  0  0  0  0  0  0  0  0  0  0  0
    9.3236   55.8297    0.7073 H   0  0  0  0  0  0  0  0  0  0  0  0
    7.5575   55.7108    1.1870 H   0  0  0  0  0  0  0  0  0  0  0  0
    4.9636   55.5048   -0.0342 H   0  0  0  0  0  0  0  0  0  0  0  0
    6.3663   54.3423    0.0604 H   0  0  0  0  0  0  0  0  0  0  0  0
    4.0387   54.6529    1.9757 H   0  0  0  0  0  0  0  0  0  0  0  0
    4.5566   53.2082    0.9785 H   0  0  0  0  0  0  0  0  0  0  0  0
    4.9966   53.1796    3.5079 H   0  0  0  0  0  0  0  0  0  0  0  0
    6.2664   51.4508    2.9045 H   0  0  0  0  0  0  0  0  0  0  0  0
    6.3845   52.1911    1.2272 H   0  0  0  0  0  0  0  0  0  0  0  0
    8.2600   53.3522    3.1530 H   0  0  0  0  0  0  0  0  0  0  0  0
    8.4989   51.5754    2.8593 H   0  0  0  0  0  0  0  0  0  0  0  0
    6.3171   54.6237    4.5083 H   0  0  0  0  0  0  0  0  0  0  0  0
    7.6128   54.3775    3.2411 H   0  0  0  0  0  0  0  0  0  0  0  0
    5.2882   56.3373    3.1158 H   0  0  0  0  0  0  0  0  0  0  0  0
    7.0313   56.7231    3.3505 H   0  0  0  0  0  0  0  0  0  0  0  0
  1  2  1  0
  2  3  1  0
  2  4  1  0
  4  5  2  0
  5  6  1  0
  6  7  2  0
  7  8  1  0
  8  9  2  0
  9 10  1  0
 10 11  1  0
 11 12  2  0
 12 13  1  0
 13 14  2  0
 14 15  1  0
 15 16  1  0
 16 17  1  0
 17 18  1  0
 18 19  1  0
 19 20  1  0
 20 21  1  0
 21 22  1  0
 22 23  3  0
 19 24  1  0
 24 25  1  0
 15  4  1  0
 25 16  1  0
 14  6  1  0
 13  9  1  0
  1 26  1  0
  1 27  1  0
  1 28  1  0
  2 29  1  1
  3 30  1  0
  7 31  1  0
 10 32  1  0
 11 33  1  0
 12 34  1  0
 16 35  1  6
 17 36  1  0
 17 37  1  0
 18 38  1  0
 18 39  1  0
 19 40  1  6
 20 41  1  0
 20 42  1  0
 21 43  1  0
 21 44  1  0
 24 45  1  0
 24 46  1  0
 25 47  1  0
 25 48  1  0
M  END
>  <meeko>  (7) 
{"is_sidechain": [false], "free_energy": -7.676, "intermolecular_energy": -9.629, "internal_energy": -0.902}

$$$$
4ivd_ligand
     RDKit          3D

 48 51  0  0  0  0  0  0  0  0999 V2000
   11.4160   54.1910   -1.3240 C   0  0  0  0  0  0  0  0  0  0  0  0
   10.5820   54.3690   -0.0630 C   0  0  1  0  0  0  0  0  0  0  0  0
   11.4560   54.4520    1.0600 O   0  0  0  0  0  0  0  0  0  0  0  0
    9.8070   55.6510   -0.0960 C   0  0  0  0  0  0  0  0  0  0  0  0
   10.3340   56.7920   -0.5230 N   0  0  0  0  0  0  0  0  0  0  0  0
    9.3090   57.6970   -0.5200 C   0  0  0  0  0  0  0  0  0  0  0  0
    9.2550   59.0480   -0.9080 C   0  0  0  0  0  0  0  0  0  0  0  0
    8.1020   59.7840   -0.8720 N   0  0  0  0  0  0  0  0  0  0  0  0
    7.0150   59.1080   -0.4600 C   0  0  0  0  0  0  0  0  0  0  0  0
    5.7370   59.5810   -0.3680 N   0  0  0  0  0  0  0  0  0  0  0  0
    4.9000   58.5660    0.0470 C   0  0  0  0  0  0  0  0  0  0  0  0
    5.6550   57.4200    0.2420 C   0  0  0  0  0  0  0  0  0  0  0  0
    6.9880   57.7920   -0.0590 C   0  0  0  0  0  0  0  0  0  0  0  0
    8.1560   57.0880   -0.0630 C   0  0  0  0  0  0  0  0  0  0  0  0
    8.4860   55.8290    0.3130 N   0  0  0  0  0  0  0  0  0  0  0  0
    7.6720   54.8760    1.0600 C   0  0  2  0  0  0  0  0  0  0  0  0
    6.5030   54.2520    0.2640 C   0  0  0  0  0  0  0  0  0  0  0  0
    5.1960   54.2030    1.0550 C   0  0  0  0  0  0  0  0  0  0  0  0
    5.3550   53.6730    2.4910 C   0  0  1  0  0  0  0  0  0  0  0  0
    5.4220   52.1280    2.5040 C   0  0  0  0  0  0  0  0  0  0  0  0
    6.8170   51.5460    2.7650 C   0  0  0  0  0  0  0  0  0  0  0  0
    7.5050   51.1750    1.5210 C   0  0  0  0  0  0  0  0  0  0  0  0
    8.0440   50.8770    0.5380 N   0  0  0  0  0  0  0  0  0  0  0  0
    6.5500   54.3100    3.2310 C   0  0  0  0  0  0  0  0  0  0  0  0
    7.2540   55.4090    2.4350 C   0  0  0  0  0  0  0  0  0  0  0  0
   12.4570   53.9688   -1.0468 H   0  0  0  0  0  0  0  0  0  0  0  0
   11.0093   53.3594   -1.9182 H   0  0  0  0  0  0  0  0  0  0  0  0
   11.3843   55.1161   -1.9182 H   0  0  0  0  0  0  0  0  0  0  0  0
    9.8920   53.5149    0.0040 H   0  0  0  0  0  0  0  0  0  0  0  0
   11.2120   53.6980    1.6340 H   0  0  0  0  0  0  0  0  0  0  0  0
   10.1790   59.5335   -1.2551 H   0  0  0  0  0  0  0  0  0  0  0  0
    5.4680   60.5260   -0.6020 H   0  0  0  0  0  0  0  0  0  0  0  0
    3.8138   58.6518    0.1981 H   0  0  0  0  0  0  0  0  0  0  0  0
    5.2951   56.4312    0.5626 H   0  0  0  0  0  0  0  0  0  0  0  0
    8.3435   54.0246    1.2451 H   0  0  0  0  0  0  0  0  0  0  0  0
    6.3398   54.8501   -0.6446 H   0  0  0  0  0  0  0  0  0  0  0  0
    6.7832   53.2143    0.0300 H   0  0  0  0  0  0  0  0  0  0  0  0
    4.7835   55.2215    1.1055 H   0  0  0  0  0  0  0  0  0  0  0  0
    4.5305   53.5031    0.5285 H   0  0  0  0  0  0  0  0  0  0  0  0
    4.4577   53.9768    3.0502 H   0  0  0  0  0  0  0  0  0  0  0  0
    4.7463   51.7629    3.2915 H   0  0  0  0  0  0  0  0  0  0  0  0
    5.1327   51.7974    1.4956 H   0  0  0  0  0  0  0  0  0  0  0  0
    7.4214   52.2980    3.2934 H   0  0  0  0  0  0  0  0  0  0  0  0
    6.6952   50.6344    3.3684 H   0  0  0  0  0  0  0  0  0  0  0  0
    6.1831   54.7446    4.1726 H   0  0  0  0  0  0  0  0  0  0  0  0
    7.2878   53.5109    3.3954 H   0  0  0  0  0  0  0  0  0  0  0  0
    6.5684   56.2590    2.3029 H   0  0  0  0  0  0  0  0  0  0  0  0
    8.1504   55.7338    2.9836 H   0  0  0  0  0  0  0  0  0  0  0  0
  1  2  1  0
  2  3  1  0
  2  4  1  0
  4  5  2  0
  5  6  1  0
  6  7  2  0
  7  8  1  0
  8  9  2  0
  9 10  1  0
 10 11  1  0
 11 12  2  0
 12 13  1  0
 13 14  2  0
 14 15  1  0
 15 16  1  0
 16 17  1  0
 17 18  1  0
 18 19  1  0
 19 20  1  0
 20 21  1  0
 21 22  1  0
 22 23  3  0
 19 24  1  0
 24 25  1  0
 15  4  1  0
 25 16  1  0
 14  6  1  0
 13  9  1  0
  1 26  1  0
  1 27  1  0
  1 28  1  0
  2 29  1  1
  3 30  1  0
  7 31  1  0
 10 32  1  0
 11 33  1  0
 12 34  1  0
 16 35  1  6
 17 36  1  0
 17 37  1  0
 18 38  1  0
 18 39  1  0
 19 40  1  6
 20 41  1  0
 20 42  1  0
 21 43  1  0
 21 44  1  0
 24 45  1  0
 24 46  1  0
 25 47  1  0
 25 48  1  0
M  END
>  <meeko>  (8) 
{"is_sidechain": [false], "free_energy": -7.539, "intermolecular_energy": -9.696, "internal_energy": -0.663}

$$$$
4ivd_ligand
     RDKit          3D

 48 51  0  0  0  0  0  0  0  0999 V2000
   10.3310   57.0070   -1.2910 C   0  0  0  0  0  0  0  0  0  0  0  0
   10.3720   56.4290    0.1160 C   0  0  1  0  0  0  0  0  0  0  0  0
    9.8620   57.3990    1.0290 O   0  0  0  0  0  0  0  0  0  0  0  0
    9.4890   55.2240    0.2380 C   0  0  0  0  0  0  0  0  0  0  0  0
    9.9470   53.9870    0.0990 N   0  0  0  0  0  0  0  0  0  0  0  0
    8.8940   53.1660    0.3930 C   0  0  0  0  0  0  0  0  0  0  0  0
    8.7900   51.7640    0.4540 C   0  0  0  0  0  0  0  0  0  0  0  0
    7.6380   51.1210    0.8190 N   0  0  0  0  0  0  0  0  0  0  0  0
    6.6170   51.9350    1.1380 C   0  0  0  0  0  0  0  0  0  0  0  0
    5.3750   51.5660    1.5730 N   0  0  0  0  0  0  0  0  0  0  0  0
    4.6290   52.6940    1.8430 C   0  0  0  0  0  0  0  0  0  0  0  0
    5.3990   53.8120    1.5640 C   0  0  0  0  0  0  0  0  0  0  0  0
    6.6380   53.3110    1.0970 C   0  0  0  0  0  0  0  0  0  0  0  0
    7.7820   53.9310    0.6920 C   0  0  0  0  0  0  0  0  0  0  0  0
    8.1170   55.2270    0.4880 N   0  0  0  0  0  0  0  0  0  0  0  0
    7.2300   56.3850    0.4530 C   0  0  2  0  0  0  0  0  0  0  0  0
    6.6860   56.8320    1.8290 C   0  0  0  0  0  0  0  0  0  0  0  0
    5.1930   57.1570    1.8080 C   0  0  0  0  0  0  0  0  0  0  0  0
    4.7630   58.0430    0.6250 C   0  0  1  0  0  0  0  0  0  0  0  0
    5.0840   59.5300    0.9050 C   0  0  0  0  0  0  0  0  0  0  0  0
    5.7490   60.2760   -0.2590 C   0  0  0  0  0  0  0  0  0  0  0  0
    7.2000   60.0530   -0.3030 C   0  0  0  0  0  0  0  0  0  0  0  0
    8.3470   59.8820   -0.3330 N   0  0  0  0  0  0  0  0  0  0  0  0
    5.3540   57.5670   -0.7200 C   0  0  0  0  0  0  0  0  0  0  0  0
    6.1420   56.2620   -0.6190 C   0  0  0  0  0  0  0  0  0  0  0  0
   10.2533   58.1028   -1.2351 H   0  0  0  0  0  0  0  0  0  0  0  0
   11.2509   56.7316   -1.8275 H   0  0  0  0  0  0  0  0  0  0  0  0
    9.4592   56.6045   -1.8275 H   0  0  0  0  0  0  0  0  0  0  0  0
   11.4148   56.1549    0.3336 H   0  0  0  0  0  0  0  0  0  0  0  0
    9.9280   58.2550    0.5580 H   0  0  0  0  0  0  0  0  0  0  0  0
    9.6721   51.1589    0.1974 H   0  0  0  0  0  0  0  0  0  0  0  0
    5.0840   50.6070    1.6960 H   0  0  0  0  0  0  0  0  0  0  0  0
    3.5948   52.7046    2.2175 H   0  0  0  0  0  0  0  0  0  0  0  0
    5.1086   54.8665    1.6808 H   0  0  0  0  0  0  0  0  0  0  0  0
    7.8780   57.2194    0.1467 H   0  0  0  0  0  0  0  0  0  0  0  0
    6.8575   56.0218    2.5530 H   0  0  0  0  0  0  0  0  0  0  0  0
    7.2178   57.7537    2.1076 H   0  0  0  0  0  0  0  0  0  0  0  0
    4.6337   56.2114    1.7535 H   0  0  0  0  0  0  0  0  0  0  0  0
    4.9772   57.7237    2.7257 H   0  0  0  0  0  0  0  0  0  0  0  0
    3.6718   57.9457    0.5263 H   0  0  0  0  0  0  0  0  0  0  0  0
    4.1418   60.0436    1.1466 H   0  0  0  0  0  0  0  0  0  0  0  0
    5.8087   59.5393    1.7325 H   0  0  0  0  0  0  0  0  0  0  0  0
    5.3076   59.9248   -1.2034 H   0  0  0  0  0  0  0  0  0  0  0  0
    5.5767   61.3526   -0.1131 H   0  0  0  0  0  0  0  0  0  0  0  0
    4.5266   57.4186   -1.4294 H   0  0  0  0  0  0  0  0  0  0  0  0
    6.0594   58.3427   -1.0528 H   0  0  0  0  0  0  0  0  0  0  0  0
    5.4577   55.4437   -0.3505 H   0  0  0  0  0  0  0  0  0  0  0  0
    6.6152   56.0513   -1.5894 H   0  0  0  0  0  0  0  0  0  0  0  0
  1  2  1  0
  2  3  1  0
  2  4  1  0
  4  5  2  0
  5  6  1  0
  6  7  2  0
  7  8  1  0
  8  9  2  0
  9 10  1  0
 10 11  1  0
 11 12  2  0
 12 13  1  0
 13 14  2  0
 14 15  1  0
 15 16  1  0
 16 17  1  0
 17 18  1  0
 18 19  1  0
 19 20  1  0
 20 21  1  0
 21 22  1  0
 22 23  3  0
 19 24  1  0
 24 25  1  0
 15  4  1  0
 25 16  1  0
 14  6  1  0
 13  9  1  0
  1 26  1  0
  1 27  1  0
  1 28  1  0
  2 29  1  1
  3 30  1  0
  7 31  1  0
 10 32  1  0
 11 33  1  0
 12 34  1  0
 16 35  1  1
 17 36  1  0
 17 37  1  0
 18 38  1  0
 18 39  1  0
 19 40  1  1
 20 41  1  0
 20 42  1  0
 21 43  1  0
 21 44  1  0
 24 45  1  0
 24 46  1  0
 25 47  1  0
 25 48  1  0
M  END
>  <meeko>  (9) 
{"is_sidechain": [false], "free_energy": -7.362, "intermolecular_energy": -9.93, "internal_energy": -0.205}

$$$$
