3nw9_ligand
     RDKit          3D

 62 66  0  0  0  0  0  0  0  0999 V2000
   -8.5470   22.2390    9.6520 C   0  0  0  0  0  0  0  0  0  0  0  0
   -7.3640   22.5870   10.4960 C   0  0  0  0  0  0  0  0  0  0  0  0
   -6.8230   23.8370   10.3720 N   0  0  0  0  0  0  0  0  0  0  0  0
   -5.7470   24.1560   11.1230 C   0  0  0  0  0  0  0  0  0  0  0  0
   -5.1020   23.3830   12.0200 N   0  0  0  0  0  0  0  0  0  0  0  0
   -5.6640   22.1670   12.0960 C   0  0  0  0  0  0  0  0  0  0  0  0
   -6.7640   21.6970   11.3940 C   0  0  0  0  0  0  0  0  0  0  0  0
   -7.0450   20.3970   11.7450 N   0  0  0  0  0  0  0  0  0  0  0  0
   -6.1240   20.0770   12.6310 C   0  0  0  0  0  0  0  0  0  0  0  0
   -5.2810   21.1230   12.8950 N   0  0  0  0  0  0  0  0  0  0  0  0
   -4.1590   21.1530   13.8170 C   0  0  2  0  0  0  0  0  0  0  0  0
   -3.2050   20.1310   13.4290 O   0  0  0  0  0  0  0  0  0  0  0  0
   -3.0710   19.2080   14.5230 C   0  0  2  0  0  0  0  0  0  0  0  0
   -2.9420   17.8290   13.9460 C   0  0  0  0  0  0  0  0  0  0  0  0
   -3.7620   16.8070   14.2440 C   0  0  0  0  0  0  0  0  0  0  0  0
   -3.6410   15.4290   13.6760 C   0  0  0  0  0  0  0  0  0  0  0  0
   -2.3420   14.9220   14.0440 N   0  0  0  0  0  0  0  0  0  0  0  0
   -2.0640   13.5720   14.0380 C   0  0  0  0  0  0  0  0  0  0  0  0
   -2.8690   12.7140   13.6850 O   0  0  0  0  0  0  0  0  0  0  0  0
   -0.7320   13.1400   14.5410 C   0  0  0  0  0  0  0  0  0  0  0  0
   -0.5880   12.0630   15.4330 C   0  0  0  0  0  0  0  0  0  0  0  0
    0.6830   11.6510   15.8870 C   0  0  0  0  0  0  0  0  0  0  0  0
    0.8200   10.5180   16.8160 C   0  0  0  0  0  0  0  0  0  0  0  0
    1.8950    9.6150   16.7040 C   0  0  0  0  0  0  0  0  0  0  0  0
    2.0270    8.5430   17.5890 C   0  0  0  0  0  0  0  0  0  0  0  0
    1.0850    8.3630   18.5930 C   0  0  0  0  0  0  0  0  0  0  0  0
    1.2120    7.3340   19.4420 F   0  0  0  0  0  0  0  0  0  0  0  0
    0.0130    9.2350   18.7280 C   0  0  0  0  0  0  0  0  0  0  0  0
   -0.1180   10.3070   17.8430 C   0  0  0  0  0  0  0  0  0  0  0  0
    1.8140   12.3480   15.4310 C   0  0  0  0  0  0  0  0  0  0  0  0
    1.6680   13.4250   14.5690 C   0  0  0  0  0  0  0  0  0  0  0  0
    2.7830   14.0970   14.1530 O   0  0  0  0  0  0  0  0  0  0  0  0
    0.4110   13.8340   14.1290 C   0  0  0  0  0  0  0  0  0  0  0  0
    0.3860   14.9250   13.2940 O   0  0  0  0  0  0  0  0  0  0  0  0
   -4.3170   19.3870   15.3950 C   0  0  1  0  0  0  0  0  0  0  0  0
   -4.1370   18.9910   16.7500 O   0  0  0  0  0  0  0  0  0  0  0  0
   -4.5560   20.8810   15.2750 C   0  0  1  0  0  0  0  0  0  0  0  0
   -3.6740   21.5680   16.1830 O   0  0  0  0  0  0  0  0  0  0  0  0
   -9.3992   21.9883   10.3007 H   0  0  0  0  0  0  0  0  0  0  0  0
   -8.8098   23.0979    9.0170 H   0  0  0  0  0  0  0  0  0  0  0  0
   -8.3028   21.3746    9.0170 H   0  0  0  0  0  0  0  0  0  0  0  0
   -5.3474   25.1717   10.9861 H   0  0  0  0  0  0  0  0  0  0  0  0
   -6.0420   19.0867   13.1028 H   0  0  0  0  0  0  0  0  0  0  0  0
   -3.7387   22.1682   13.7636 H   0  0  0  0  0  0  0  0  0  0  0  0
   -2.1819   19.3815   15.1470 H   0  0  0  0  0  0  0  0  0  0  0  0
   -2.1245   17.6428   13.2340 H   0  0  0  0  0  0  0  0  0  0  0  0
   -4.5792   16.9973   14.9553 H   0  0  0  0  0  0  0  0  0  0  0  0
   -4.4281   14.7815   14.0899 H   0  0  0  0  0  0  0  0  0  0  0  0
   -3.7538   15.4492   12.5820 H   0  0  0  0  0  0  0  0  0  0  0  0
   -1.7470   15.5510   14.5630 H   0  0  0  0  0  0  0  0  0  0  0  0
   -1.4843   11.5307   15.7842 H   0  0  0  0  0  0  0  0  0  0  0  0
    2.6411    9.7562   15.9082 H   0  0  0  0  0  0  0  0  0  0  0  0
    2.8720    7.8455   17.4914 H   0  0  0  0  0  0  0  0  0  0  0  0
   -0.7279    9.0824   19.5266 H   0  0  0  0  0  0  0  0  0  0  0  0
   -0.9677   10.9972   17.9505 H   0  0  0  0  0  0  0  0  0  0  0  0
    2.8178   12.0391   15.7582 H   0  0  0  0  0  0  0  0  0  0  0  0
    3.5280   13.6360   14.5920 H   0  0  0  0  0  0  0  0  0  0  0  0
    1.3070   15.2710   13.2370 H   0  0  0  0  0  0  0  0  0  0  0  0
   -5.1564   18.7551   15.0694 H   0  0  0  0  0  0  0  0  0  0  0  0
   -4.9610   18.5440   17.0260 H   0  0  0  0  0  0  0  0  0  0  0  0
   -5.5784   21.2093   15.5137 H   0  0  0  0  0  0  0  0  0  0  0  0
   -3.9920   21.3600   17.0820 H   0  0  0  0  0  0  0  0  0  0  0  0
  1  2  1  0
  2  3  2  0
  3  4  1  0
  4  5  2  0
  5  6  1  0
  6  7  2  0
  7  8  1  0
  8  9  2  0
  9 10  1  0
 10 11  1  0
 11 12  1  0
 12 13  1  0
 13 14  1  0
 14 15  2  0
 15 16  1  0
 16 17  1  0
 17 18  1  0
 18 19  2  0
 18 20  1  0
 20 21  2  0
 21 22  1  0
 22 23  1  0
 23 24  2  0
 24 25  1  0
 25 26  2  0
 26 27  1  0
 26 28  1  0
 28 29  2  0
 22 30  2  0
 30 31  1  0
 31 32  1  0
 31 33  2  0
 33 34  1  0
 13 35  1  0
 35 36  1  0
 35 37  1  0
 37 38  1  0
  7  2  1  0
 37 11  1  0
 10  6  1  0
 33 20  1  0
 29 23  1  0
  1 39  1  0
  1 40  1  0
  1 41  1  0
  4 42  1  0
  9 43  1  0
 11 44  1  1
 13 45  1  1
 14 46  1  0
 15 47  1  0
 16 48  1  0
 16 49  1  0
 17 50  1  0
 21 51  1  0
 24 52  1  0
 25 53  1  0
 28 54  1  0
 29 55  1  0
 30 56  1  0
 32 57  1  0
 34 58  1  0
 35 59  1  6
 36 60  1  0
 37 61  1  6
 38 62  1  0
M  END
>  <meeko>  (1) 
{"is_sidechain": [false], "free_energy": -11.028, "intermolecular_energy": -16.185, "internal_energy": -1.191}

$$$$
3nw9_ligand
     RDKit          3D

 62 66  0  0  0  0  0  0  0  0999 V2000
   -8.1820   21.7460    8.9350 C   0  0  0  0  0  0  0  0  0  0  0  0
   -7.3170   22.2870   10.0260 C   0  0  0  0  0  0  0  0  0  0  0  0
   -6.9710   23.6090    9.9840 N   0  0  0  0  0  0  0  0  0  0  0  0
   -6.1790   24.1040   10.9600 C   0  0  0  0  0  0  0  0  0  0  0  0
   -5.6620   23.4510   12.0200 N   0  0  0  0  0  0  0  0  0  0  0  0
   -6.0220   22.1580   12.0090 C   0  0  0  0  0  0  0  0  0  0  0  0
   -6.8240   21.5110   11.0810 C   0  0  0  0  0  0  0  0  0  0  0  0
   -6.9710   20.1830   11.4090 N   0  0  0  0  0  0  0  0  0  0  0  0
   -6.2590   20.0230   12.5060 C   0  0  0  0  0  0  0  0  0  0  0  0
   -5.6870   21.1950   12.9220 N   0  0  0  0  0  0  0  0  0  0  0  0
   -4.8480   21.4120   14.0880 C   0  0  2  0  0  0  0  0  0  0  0  0
   -3.5270   20.8770   13.8220 O   0  0  0  0  0  0  0  0  0  0  0  0
   -3.2580   19.8490   14.7920 C   0  0  2  0  0  0  0  0  0  0  0  0
   -2.5170   18.7450   14.0970 C   0  0  0  0  0  0  0  0  0  0  0  0
   -2.8540   17.4460   14.1730 C   0  0  0  0  0  0  0  0  0  0  0  0
   -2.1220   16.3380   13.4860 C   0  0  0  0  0  0  0  0  0  0  0  0
   -2.9030   15.1370   13.6510 N   0  0  0  0  0  0  0  0  0  0  0  0
   -2.3400   13.9650   14.1080 C   0  0  0  0  0  0  0  0  0  0  0  0
   -1.1640   13.8630   14.4470 O   0  0  0  0  0  0  0  0  0  0  0  0
   -3.2010   12.7520   14.1370 C   0  0  0  0  0  0  0  0  0  0  0  0
   -3.9760   12.3630   13.0290 C   0  0  0  0  0  0  0  0  0  0  0  0
   -4.7730   11.2000   13.0630 C   0  0  0  0  0  0  0  0  0  0  0  0
   -5.5730   10.8010   11.8940 C   0  0  0  0  0  0  0  0  0  0  0  0
   -6.6990   11.5480   11.4970 C   0  0  0  0  0  0  0  0  0  0  0  0
   -7.4550   11.1700   10.3860 C   0  0  0  0  0  0  0  0  0  0  0  0
   -7.0920   10.0420    9.6610 C   0  0  0  0  0  0  0  0  0  0  0  0
   -7.8180    9.6810    8.5950 F   0  0  0  0  0  0  0  0  0  0  0  0
   -5.9880    9.2840   10.0290 C   0  0  0  0  0  0  0  0  0  0  0  0
   -5.2330    9.6620   11.1410 C   0  0  0  0  0  0  0  0  0  0  0  0
   -4.7850   10.4320   14.2380 C   0  0  0  0  0  0  0  0  0  0  0  0
   -4.0380   10.8300   15.3390 C   0  0  0  0  0  0  0  0  0  0  0  0
   -4.0810   10.0730   16.4760 O   0  0  0  0  0  0  0  0  0  0  0  0
   -3.2580   11.9830   15.3040 C   0  0  0  0  0  0  0  0  0  0  0  0
   -2.5780   12.2900   16.4580 O   0  0  0  0  0  0  0  0  0  0  0  0
   -4.6180   19.4130   15.3470 C   0  0  1  0  0  0  0  0  0  0  0  0
   -4.5550   18.8320   16.6440 O   0  0  0  0  0  0  0  0  0  0  0  0
   -5.3740   20.7300   15.3580 C   0  0  1  0  0  0  0  0  0  0  0  0
   -4.9980   21.4720   16.5330 O   0  0  0  0  0  0  0  0  0  0  0  0
   -9.0366   21.2115    9.3756 H   0  0  0  0  0  0  0  0  0  0  0  0
   -8.5495   22.5755    8.3130 H   0  0  0  0  0  0  0  0  0  0  0  0
   -7.5970   21.0526    8.3130 H   0  0  0  0  0  0  0  0  0  0  0  0
   -5.9247   25.1712   10.8800 H   0  0  0  0  0  0  0  0  0  0  0  0
   -6.1385   19.0613   13.0261 H   0  0  0  0  0  0  0  0  0  0  0  0
   -4.8377   22.4974   14.2666 H   0  0  0  0  0  0  0  0  0  0  0  0
   -2.6292   20.1803   15.6315 H   0  0  0  0  0  0  0  0  0  0  0  0
   -1.6428   19.0157   13.4867 H   0  0  0  0  0  0  0  0  0  0  0  0
   -3.7295   17.1795   14.7833 H   0  0  0  0  0  0  0  0  0  0  0  0
   -2.0088   16.5688   12.4165 H   0  0  0  0  0  0  0  0  0  0  0  0
   -1.1180   16.2104   13.9169 H   0  0  0  0  0  0  0  0  0  0  0  0
   -3.7870   15.1090   13.1640 H   0  0  0  0  0  0  0  0  0  0  0  0
   -3.9599   12.9786   12.1175 H   0  0  0  0  0  0  0  0  0  0  0  0
   -6.9867   12.4416   12.0703 H   0  0  0  0  0  0  0  0  0  0  0  0
   -8.3327   11.7616   10.0865 H   0  0  0  0  0  0  0  0  0  0  0  0
   -5.7103    8.3919    9.4484 H   0  0  0  0  0  0  0  0  0  0  0  0
   -4.3595    9.0605   11.4327 H   0  0  0  0  0  0  0  0  0  0  0  0
   -5.3874    9.5129   14.2868 H   0  0  0  0  0  0  0  0  0  0  0  0
   -4.1680   10.7240   17.2030 H   0  0  0  0  0  0  0  0  0  0  0  0
   -2.0640   13.1140   16.2830 H   0  0  0  0  0  0  0  0  0  0  0  0
   -5.0837   18.6154   14.7496 H   0  0  0  0  0  0  0  0  0  0  0  0
   -5.1520   19.3500   17.2160 H   0  0  0  0  0  0  0  0  0  0  0  0
   -6.4700   20.6379   15.3766 H   0  0  0  0  0  0  0  0  0  0  0  0
   -5.4350   21.0310   17.2870 H   0  0  0  0  0  0  0  0  0  0  0  0
  1  2  1  0
  2  3  2  0
  3  4  1  0
  4  5  2  0
  5  6  1  0
  6  7  2  0
  7  8  1  0
  8  9  2  0
  9 10  1  0
 10 11  1  0
 11 12  1  0
 12 13  1  0
 13 14  1  0
 14 15  2  0
 15 16  1  0
 16 17  1  0
 17 18  1  0
 18 19  2  0
 18 20  1  0
 20 21  2  0
 21 22  1  0
 22 23  1  0
 23 24  2  0
 24 25  1  0
 25 26  2  0
 26 27  1  0
 26 28  1  0
 28 29  2  0
 22 30  2  0
 30 31  1  0
 31 32  1  0
 31 33  2  0
 33 34  1  0
 13 35  1  0
 35 36  1  0
 35 37  1  0
 37 38  1  0
  7  2  1  0
 37 11  1  0
 10  6  1  0
 33 20  1  0
 29 23  1  0
  1 39  1  0
  1 40  1  0
  1 41  1  0
  4 42  1  0
  9 43  1  0
 11 44  1  1
 13 45  1  1
 14 46  1  0
 15 47  1  0
 16 48  1  0
 16 49  1  0
 17 50  1  0
 21 51  1  0
 24 52  1  0
 25 53  1  0
 28 54  1  0
 29 55  1  0
 30 56  1  0
 32 57  1  0
 34 58  1  0
 35 59  1  6
 36 60  1  0
 37 61  1  6
 38 62  1  0
M  END
>  <meeko>  (2) 
{"is_sidechain": [false], "free_energy": -10.086, "intermolecular_energy": -14.863, "internal_energy": -1.13}

$$$$
3nw9_ligand
     RDKit          3D

 62 66  0  0  0  0  0  0  0  0999 V2000
    1.2190   13.8870   14.2540 C   0  0  0  0  0  0  0  0  0  0  0  0
   -0.2430   14.1930   14.2730 C   0  0  0  0  0  0  0  0  0  0  0  0
   -0.6630   15.3810   13.7420 N   0  0  0  0  0  0  0  0  0  0  0  0
   -1.9820   15.6710   13.7660 C   0  0  0  0  0  0  0  0  0  0  0  0
   -2.9890   14.9210   14.2570 N   0  0  0  0  0  0  0  0  0  0  0  0
   -2.5220   13.7740   14.7750 C   0  0  0  0  0  0  0  0  0  0  0  0
   -1.2060   13.3410   14.8230 C   0  0  0  0  0  0  0  0  0  0  0  0
   -1.1230   12.1080   15.4290 N   0  0  0  0  0  0  0  0  0  0  0  0
   -2.3630   11.8050   15.7560 C   0  0  0  0  0  0  0  0  0  0  0  0
   -3.2480   12.7700   15.3600 N   0  0  0  0  0  0  0  0  0  0  0  0
   -4.6910   12.7840   15.5350 C   0  0  2  0  0  0  0  0  0  0  0  0
   -5.1460   14.1590   15.5780 O   0  0  0  0  0  0  0  0  0  0  0  0
   -5.7740   14.3820   16.8520 C   0  0  2  0  0  0  0  0  0  0  0  0
   -5.4090   15.7640   17.3080 C   0  0  0  0  0  0  0  0  0  0  0  0
   -6.1140   16.4720   18.2070 C   0  0  0  0  0  0  0  0  0  0  0  0
   -5.7600   17.8500   18.6670 C   0  0  0  0  0  0  0  0  0  0  0  0
   -5.1830   18.5460   17.5430 N   0  0  0  0  0  0  0  0  0  0  0  0
   -5.8330   19.5960   16.9310 C   0  0  0  0  0  0  0  0  0  0  0  0
   -6.9120   20.0420   17.3130 O   0  0  0  0  0  0  0  0  0  0  0  0
   -5.2090   20.1760   15.7120 C   0  0  0  0  0  0  0  0  0  0  0  0
   -5.9630   20.4810   14.5640 C   0  0  0  0  0  0  0  0  0  0  0  0
   -5.3630   21.0490   13.4210 C   0  0  0  0  0  0  0  0  0  0  0  0
   -6.1650   21.3700   12.2300 C   0  0  0  0  0  0  0  0  0  0  0  0
   -6.9290   20.3810   11.5820 C   0  0  0  0  0  0  0  0  0  0  0  0
   -7.6930   20.6880   10.4540 C   0  0  0  0  0  0  0  0  0  0  0  0
   -7.6990   21.9870    9.9630 C   0  0  0  0  0  0  0  0  0  0  0  0
   -8.4320   22.2810    8.8820 F   0  0  0  0  0  0  0  0  0  0  0  0
   -6.9550   22.9850   10.5790 C   0  0  0  0  0  0  0  0  0  0  0  0
   -6.1910   22.6760   11.7070 C   0  0  0  0  0  0  0  0  0  0  0  0
   -3.9820   21.3020   13.4470 C   0  0  0  0  0  0  0  0  0  0  0  0
   -3.2350   20.9780   14.5710 C   0  0  0  0  0  0  0  0  0  0  0  0
   -1.8890   21.2180   14.5640 O   0  0  0  0  0  0  0  0  0  0  0  0
   -3.8300   20.4110   15.6950 C   0  0  0  0  0  0  0  0  0  0  0  0
   -2.9900   20.1120   16.7410 O   0  0  0  0  0  0  0  0  0  0  0  0
   -5.2620   13.2790   17.7840 C   0  0  1  0  0  0  0  0  0  0  0  0
   -6.1300   12.9950   18.8750 O   0  0  0  0  0  0  0  0  0  0  0  0
   -5.1570   12.1040   16.8300 C   0  0  1  0  0  0  0  0  0  0  0  0
   -6.4640   11.5220   16.6620 O   0  0  0  0  0  0  0  0  0  0  0  0
    1.5908   13.8092   15.2863 H   0  0  0  0  0  0  0  0  0  0  0  0
    1.3874   12.9341   13.7308 H   0  0  0  0  0  0  0  0  0  0  0  0
    1.7554   14.6923   13.7308 H   0  0  0  0  0  0  0  0  0  0  0  0
   -2.2703   16.6393   13.3309 H   0  0  0  0  0  0  0  0  0  0  0  0
   -2.6523   10.8849   16.2849 H   0  0  0  0  0  0  0  0  0  0  0  0
   -5.1135   12.2250   14.6871 H   0  0  0  0  0  0  0  0  0  0  0  0
   -6.8725   14.3321   16.8237 H   0  0  0  0  0  0  0  0  0  0  0  0
   -4.5078   16.2269   16.8796 H   0  0  0  0  0  0  0  0  0  0  0  0
   -7.0139   16.0053   18.6340 H   0  0  0  0  0  0  0  0  0  0  0  0
   -6.6634   18.3751   19.0107 H   0  0  0  0  0  0  0  0  0  0  0  0
   -5.0482   17.8086   19.5047 H   0  0  0  0  0  0  0  0  0  0  0  0
   -4.4380   18.0690   17.0570 H   0  0  0  0  0  0  0  0  0  0  0  0
   -7.0430   20.2721   14.5578 H   0  0  0  0  0  0  0  0  0  0  0  0
   -6.9241   19.3516   11.9697 H   0  0  0  0  0  0  0  0  0  0  0  0
   -8.2862   19.9059    9.9576 H   0  0  0  0  0  0  0  0  0  0  0  0
   -6.9672   24.0107   10.1818 H   0  0  0  0  0  0  0  0  0  0  0  0
   -5.6005   23.4660   12.1940 H   0  0  0  0  0  0  0  0  0  0  0  0
   -3.4911   21.7580   12.5746 H   0  0  0  0  0  0  0  0  0  0  0  0
   -1.5500   20.7500   15.3550 H   0  0  0  0  0  0  0  0  0  0  0  0
   -2.3970   19.3840   16.4410 H   0  0  0  0  0  0  0  0  0  0  0  0
   -4.3233   13.5516   18.2885 H   0  0  0  0  0  0  0  0  0  0  0  0
   -6.9020   12.5230   18.5080 H   0  0  0  0  0  0  0  0  0  0  0  0
   -4.4880   11.2953   17.1595 H   0  0  0  0  0  0  0  0  0  0  0  0
   -6.4830   11.1490   15.7600 H   0  0  0  0  0  0  0  0  0  0  0  0
  1  2  1  0
  2  3  2  0
  3  4  1  0
  4  5  2  0
  5  6  1  0
  6  7  2  0
  7  8  1  0
  8  9  2  0
  9 10  1  0
 10 11  1  0
 11 12  1  0
 12 13  1  0
 13 14  1  0
 14 15  2  0
 15 16  1  0
 16 17  1  0
 17 18  1  0
 18 19  2  0
 18 20  1  0
 20 21  2  0
 21 22  1  0
 22 23  1  0
 23 24  2  0
 24 25  1  0
 25 26  2  0
 26 27  1  0
 26 28  1  0
 28 29  2  0
 22 30  2  0
 30 31  1  0
 31 32  1  0
 31 33  2  0
 33 34  1  0
 13 35  1  0
 35 36  1  0
 35 37  1  0
 37 38  1  0
  7  2  1  0
 37 11  1  0
 10  6  1  0
 33 20  1  0
 29 23  1  0
  1 39  1  0
  1 40  1  0
  1 41  1  0
  4 42  1  0
  9 43  1  0
 11 44  1  6
 13 45  1  6
 14 46  1  0
 15 47  1  0
 16 48  1  0
 16 49  1  0
 17 50  1  0
 21 51  1  0
 24 52  1  0
 25 53  1  0
 28 54  1  0
 29 55  1  0
 30 56  1  0
 32 57  1  0
 34 58  1  0
 35 59  1  1
 36 60  1  0
 37 61  1  1
 38 62  1  0
M  END
>  <meeko>  (3) 
{"is_sidechain": [false], "free_energy": -9.04, "intermolecular_energy": -13.179, "internal_energy": -1.28}

$$$$
3nw9_ligand
     RDKit          3D

 62 66  0  0  0  0  0  0  0  0999 V2000
   -5.0480   21.7070   12.7420 C   0  0  0  0  0  0  0  0  0  0  0  0
   -4.5420   20.9150   13.9040 C   0  0  0  0  0  0  0  0  0  0  0  0
   -3.2600   20.4410   13.8570 N   0  0  0  0  0  0  0  0  0  0  0  0
   -2.7990   19.7150   14.8970 C   0  0  0  0  0  0  0  0  0  0  0  0
   -3.4500   19.3780   16.0290 N   0  0  0  0  0  0  0  0  0  0  0  0
   -4.7040   19.8570   16.0200 C   0  0  0  0  0  0  0  0  0  0  0  0
   -5.3140   20.6130   15.0310 C   0  0  0  0  0  0  0  0  0  0  0  0
   -6.6080   20.9200   15.3840 N   0  0  0  0  0  0  0  0  0  0  0  0
   -6.7850   20.3480   16.5580 C   0  0  0  0  0  0  0  0  0  0  0  0
   -5.6540   19.7140   16.9950 N   0  0  0  0  0  0  0  0  0  0  0  0
   -5.4640   18.9860   18.2390 C   0  0  2  0  0  0  0  0  0  0  0  0
   -4.7080   17.7800   17.9660 O   0  0  0  0  0  0  0  0  0  0  0  0
   -5.5170   16.6510   18.3400 C   0  0  2  0  0  0  0  0  0  0  0  0
   -5.2890   15.5680   17.3270 C   0  0  0  0  0  0  0  0  0  0  0  0
   -4.6380   15.7470   16.1650 C   0  0  0  0  0  0  0  0  0  0  0  0
   -4.4070   14.6750   15.1480 C   0  0  0  0  0  0  0  0  0  0  0  0
   -3.0830   14.1470   15.3700 N   0  0  0  0  0  0  0  0  0  0  0  0
   -2.0650   14.3420   14.4620 C   0  0  0  0  0  0  0  0  0  0  0  0
   -2.1880   15.0040   13.4340 O   0  0  0  0  0  0  0  0  0  0  0  0
   -0.7670   13.6640   14.7260 C   0  0  0  0  0  0  0  0  0  0  0  0
   -0.6760   12.5270   15.5480 C   0  0  0  0  0  0  0  0  0  0  0  0
    0.5580   11.8820   15.7750 C   0  0  0  0  0  0  0  0  0  0  0  0
    0.6390   10.6890   16.6320 C   0  0  0  0  0  0  0  0  0  0  0  0
    1.5510    9.6540   16.3490 C   0  0  0  0  0  0  0  0  0  0  0  0
    1.6290    8.5230   17.1650 C   0  0  0  0  0  0  0  0  0  0  0  0
    0.7960    8.4180   18.2720 C   0  0  0  0  0  0  0  0  0  0  0  0
    0.8720    7.3340   19.0550 F   0  0  0  0  0  0  0  0  0  0  0  0
   -0.1150    9.4220   18.5760 C   0  0  0  0  0  0  0  0  0  0  0  0
   -0.1920   10.5510   17.7580 C   0  0  0  0  0  0  0  0  0  0  0  0
    1.7090   12.4060   15.1630 C   0  0  0  0  0  0  0  0  0  0  0  0
    1.6210   13.5430   14.3700 C   0  0  0  0  0  0  0  0  0  0  0  0
    2.7580   14.0430   13.8000 O   0  0  0  0  0  0  0  0  0  0  0  0
    0.4020   14.1810   14.1550 C   0  0  0  0  0  0  0  0  0  0  0  0
    0.4370   15.3090   13.3710 O   0  0  0  0  0  0  0  0  0  0  0  0
   -6.9640   17.1520   18.3800 C   0  0  1  0  0  0  0  0  0  0  0  0
   -7.8190   16.3840   19.2180 O   0  0  0  0  0  0  0  0  0  0  0  0
   -6.7790   18.5630   18.9080 C   0  0  1  0  0  0  0  0  0  0  0  0
   -6.6320   18.5080   20.3400 O   0  0  0  0  0  0  0  0  0  0  0  0
   -5.6063   22.5808   13.1091 H   0  0  0  0  0  0  0  0  0  0  0  0
   -4.1982   22.0451   12.1308 H   0  0  0  0  0  0  0  0  0  0  0  0
   -5.7119   21.0780   12.1308 H   0  0  0  0  0  0  0  0  0  0  0  0
   -1.7638   19.3532   14.8107 H   0  0  0  0  0  0  0  0  0  0  0  0
   -7.7301   20.3769   17.1201 H   0  0  0  0  0  0  0  0  0  0  0  0
   -4.9397   19.6691   18.9235 H   0  0  0  0  0  0  0  0  0  0  0  0
   -5.2676   16.2285   19.3245 H   0  0  0  0  0  0  0  0  0  0  0  0
   -5.6794   14.5640   17.5495 H   0  0  0  0  0  0  0  0  0  0  0  0
   -4.2478   16.7520   15.9467 H   0  0  0  0  0  0  0  0  0  0  0  0
   -5.1547   13.8769   15.2666 H   0  0  0  0  0  0  0  0  0  0  0  0
   -4.4975   15.0803   14.1294 H   0  0  0  0  0  0  0  0  0  0  0  0
   -3.0050   13.4110   16.0560 H   0  0  0  0  0  0  0  0  0  0  0  0
   -1.5857   12.1322   16.0239 H   0  0  0  0  0  0  0  0  0  0  0  0
    2.2112    9.7374   15.4731 H   0  0  0  0  0  0  0  0  0  0  0  0
    2.3451    7.7209   16.9327 H   0  0  0  0  0  0  0  0  0  0  0  0
   -0.7705    9.3282   19.4543 H   0  0  0  0  0  0  0  0  0  0  0  0
   -0.9142   11.3451   17.9982 H   0  0  0  0  0  0  0  0  0  0  0  0
    2.6819   11.9148   15.3122 H   0  0  0  0  0  0  0  0  0  0  0  0
    2.4620   14.8430   13.3190 H   0  0  0  0  0  0  0  0  0  0  0  0
   -0.1330   15.9850   13.8070 H   0  0  0  0  0  0  0  0  0  0  0  0
   -7.4635   17.0848   17.4023 H   0  0  0  0  0  0  0  0  0  0  0  0
   -7.5730   16.5910   20.1400 H   0  0  0  0  0  0  0  0  0  0  0  0
   -7.6112   19.2513   18.6989 H   0  0  0  0  0  0  0  0  0  0  0  0
   -6.5330   17.5640   20.5680 H   0  0  0  0  0  0  0  0  0  0  0  0
  1  2  1  0
  2  3  2  0
  3  4  1  0
  4  5  2  0
  5  6  1  0
  6  7  2  0
  7  8  1  0
  8  9  2  0
  9 10  1  0
 10 11  1  0
 11 12  1  0
 12 13  1  0
 13 14  1  0
 14 15  2  0
 15 16  1  0
 16 17  1  0
 17 18  1  0
 18 19  2  0
 18 20  1  0
 20 21  2  0
 21 22  1  0
 22 23  1  0
 23 24  2  0
 24 25  1  0
 25 26  2  0
 26 27  1  0
 26 28  1  0
 28 29  2  0
 22 30  2  0
 30 31  1  0
 31 32  1  0
 31 33  2  0
 33 34  1  0
 13 35  1  0
 35 36  1  0
 35 37  1  0
 37 38  1  0
  7  2  1  0
 37 11  1  0
 10  6  1  0
 33 20  1  0
 29 23  1  0
  1 39  1  0
  1 40  1  0
  1 41  1  0
  4 42  1  0
  9 43  1  0
 11 44  1  1
 13 45  1  1
 14 46  1  0
 15 47  1  0
 16 48  1  0
 16 49  1  0
 17 50  1  0
 21 51  1  0
 24 52  1  0
 25 53  1  0
 28 54  1  0
 29 55  1  0
 30 56  1  0
 32 57  1  0
 34 58  1  0
 35 59  1  6
 36 60  1  0
 37 61  1  1
 38 62  1  0
M  END
>  <meeko>  (4) 
{"is_sidechain": [false], "free_energy": -8.984, "intermolecular_energy": -13.166, "internal_energy": -1.21}

$$$$
3nw9_ligand
     RDKit          3D

 62 66  0  0  0  0  0  0  0  0999 V2000
   -1.3540   10.5100   16.7610 C   0  0  0  0  0  0  0  0  0  0  0  0
   -1.3680   10.9750   18.1810 C   0  0  0  0  0  0  0  0  0  0  0  0
   -0.6780   10.2460   19.1090 N   0  0  0  0  0  0  0  0  0  0  0  0
   -0.6940   10.6530   20.3970 C   0  0  0  0  0  0  0  0  0  0  0  0
   -1.3210   11.7260   20.9210 N   0  0  0  0  0  0  0  0  0  0  0  0
   -1.9910   12.4000   19.9720 C   0  0  0  0  0  0  0  0  0  0  0  0
   -2.0660   12.1060   18.6190 C   0  0  0  0  0  0  0  0  0  0  0  0
   -2.8470   13.0310   17.9650 N   0  0  0  0  0  0  0  0  0  0  0  0
   -3.2510   13.8610   18.9050 C   0  0  0  0  0  0  0  0  0  0  0  0
   -2.7390   13.5350   20.1320 N   0  0  0  0  0  0  0  0  0  0  0  0
   -2.9510   14.2190   21.3960 C   0  0  2  0  0  0  0  0  0  0  0  0
   -4.3010   14.7450   21.4250 O   0  0  0  0  0  0  0  0  0  0  0  0
   -4.2200   16.1740   21.5610 C   0  0  2  0  0  0  0  0  0  0  0  0
   -5.3030   16.7780   20.7150 C   0  0  0  0  0  0  0  0  0  0  0  0
   -5.0830   17.4280   19.5600 C   0  0  0  0  0  0  0  0  0  0  0  0
   -6.1530   18.0340   18.7100 C   0  0  0  0  0  0  0  0  0  0  0  0
   -5.5130   18.6100   17.5520 N   0  0  0  0  0  0  0  0  0  0  0  0
   -5.8910   19.8360   17.0520 C   0  0  0  0  0  0  0  0  0  0  0  0
   -6.7540   20.5440   17.5670 O   0  0  0  0  0  0  0  0  0  0  0  0
   -5.2480   20.2940   15.7900 C   0  0  0  0  0  0  0  0  0  0  0  0
   -5.9970   20.5680   14.6320 C   0  0  0  0  0  0  0  0  0  0  0  0
   -5.3780   21.0200   13.4480 C   0  0  0  0  0  0  0  0  0  0  0  0
   -6.1750   21.3100   12.2450 C   0  0  0  0  0  0  0  0  0  0  0  0
   -6.9210   20.2990   11.6090 C   0  0  0  0  0  0  0  0  0  0  0  0
   -7.6800   20.5770   10.4690 C   0  0  0  0  0  0  0  0  0  0  0  0
   -7.6980   21.8670    9.9560 C   0  0  0  0  0  0  0  0  0  0  0  0
   -8.4260   22.1330    8.8630 F   0  0  0  0  0  0  0  0  0  0  0  0
   -6.9720   22.8850   10.5600 C   0  0  0  0  0  0  0  0  0  0  0  0
   -6.2130   22.6060   11.6990 C   0  0  0  0  0  0  0  0  0  0  0  0
   -3.9840   21.1870   13.4440 C   0  0  0  0  0  0  0  0  0  0  0  0
   -3.2440   20.8940   14.5810 C   0  0  0  0  0  0  0  0  0  0  0  0
   -1.8860   21.0490   14.5460 O   0  0  0  0  0  0  0  0  0  0  0  0
   -3.8580   20.4410   15.7460 C   0  0  0  0  0  0  0  0  0  0  0  0
   -3.0240   20.1610   16.8020 O   0  0  0  0  0  0  0  0  0  0  0  0
   -2.8090   16.5710   21.1170 C   0  0  1  0  0  0  0  0  0  0  0  0
   -2.3550   17.8040   21.6650 O   0  0  0  0  0  0  0  0  0  0  0  0
   -1.9930   15.3970   21.6240 C   0  0  1  0  0  0  0  0  0  0  0  0
   -1.7330   15.5820   23.0280 O   0  0  0  0  0  0  0  0  0  0  0  0
   -1.3209    9.4108   16.7354 H   0  0  0  0  0  0  0  0  0  0  0  0
   -2.2631   10.8614   16.2511 H   0  0  0  0  0  0  0  0  0  0  0  0
   -0.4677   10.9155   16.2511 H   0  0  0  0  0  0  0  0  0  0  0  0
   -0.1256   10.0329   21.1058 H   0  0  0  0  0  0  0  0  0  0  0  0
   -3.9206   14.7150   18.7251 H   0  0  0  0  0  0  0  0  0  0  0  0
   -2.7688   13.4761   22.1865 H   0  0  0  0  0  0  0  0  0  0  0  0
   -4.3755   16.5342   22.5886 H   0  0  0  0  0  0  0  0  0  0  0  0
   -6.3422   16.6824   21.0627 H   0  0  0  0  0  0  0  0  0  0  0  0
   -4.0424   17.5208   19.2156 H   0  0  0  0  0  0  0  0  0  0  0  0
   -6.8682   17.2589   18.3972 H   0  0  0  0  0  0  0  0  0  0  0  0
   -6.7040   18.8033   19.2708 H   0  0  0  0  0  0  0  0  0  0  0  0
   -4.9880   17.9730   16.9700 H   0  0  0  0  0  0  0  0  0  0  0  0
   -7.0878   20.4270   14.6498 H   0  0  0  0  0  0  0  0  0  0  0  0
   -6.9061   19.2768   12.0150 H   0  0  0  0  0  0  0  0  0  0  0  0
   -8.2593   19.7791    9.9814 H   0  0  0  0  0  0  0  0  0  0  0  0
   -6.9944   23.9033   10.1447 H   0  0  0  0  0  0  0  0  0  0  0  0
   -5.6362   23.4119   12.1763 H   0  0  0  0  0  0  0  0  0  0  0  0
   -3.4773   21.5508   12.5379 H   0  0  0  0  0  0  0  0  0  0  0  0
   -1.7050   21.4460   13.6690 H   0  0  0  0  0  0  0  0  0  0  0  0
   -3.5820   19.7850   17.5230 H   0  0  0  0  0  0  0  0  0  0  0  0
   -2.7398   16.7503   20.0339 H   0  0  0  0  0  0  0  0  0  0  0  0
   -2.8240   17.9260   22.5130 H   0  0  0  0  0  0  0  0  0  0  0  0
   -1.0172   15.2626   21.1343 H   0  0  0  0  0  0  0  0  0  0  0  0
   -1.6810   16.5470   23.1710 H   0  0  0  0  0  0  0  0  0  0  0  0
  1  2  1  0
  2  3  2  0
  3  4  1  0
  4  5  2  0
  5  6  1  0
  6  7  2  0
  7  8  1  0
  8  9  2  0
  9 10  1  0
 10 11  1  0
 11 12  1  0
 12 13  1  0
 13 14  1  0
 14 15  2  0
 15 16  1  0
 16 17  1  0
 17 18  1  0
 18 19  2  0
 18 20  1  0
 20 21  2  0
 21 22  1  0
 22 23  1  0
 23 24  2  0
 24 25  1  0
 25 26  2  0
 26 27  1  0
 26 28  1  0
 28 29  2  0
 22 30  2  0
 30 31  1  0
 31 32  1  0
 31 33  2  0
 33 34  1  0
 13 35  1  0
 35 36  1  0
 35 37  1  0
 37 38  1  0
  7  2  1  0
 37 11  1  0
 10  6  1  0
 33 20  1  0
 29 23  1  0
  1 39  1  0
  1 40  1  0
  1 41  1  0
  4 42  1  0
  9 43  1  0
 11 44  1  1
 13 45  1  1
 14 46  1  0
 15 47  1  0
 16 48  1  0
 16 49  1  0
 17 50  1  0
 21 51  1  0
 24 52  1  0
 25 53  1  0
 28 54  1  0
 29 55  1  0
 30 56  1  0
 32 57  1  0
 34 58  1  0
 35 59  1  6
 36 60  1  0
 37 61  1  6
 38 62  1  0
M  END
>  <meeko>  (5) 
{"is_sidechain": [false], "free_energy": -8.979, "intermolecular_energy": -12.957, "internal_energy": -1.412}

$$$$
3nw9_ligand
     RDKit          3D

 62 66  0  0  0  0  0  0  0  0999 V2000
  -11.4150   15.0290   11.4530 C   0  0  0  0  0  0  0  0  0  0  0  0
  -10.7620   14.7720   12.7730 C   0  0  0  0  0  0  0  0  0  0  0  0
  -11.3070   15.3470   13.8880 N   0  0  0  0  0  0  0  0  0  0  0  0
  -10.7160   15.1290   15.0830 C   0  0  0  0  0  0  0  0  0  0  0  0
   -9.6190   14.3910   15.3460 N   0  0  0  0  0  0  0  0  0  0  0  0
   -9.1190   13.8600   14.2190 C   0  0  0  0  0  0  0  0  0  0  0  0
   -9.6110   13.9930   12.9290 C   0  0  0  0  0  0  0  0  0  0  0  0
   -8.8280   13.2980   12.0370 N   0  0  0  0  0  0  0  0  0  0  0  0
   -7.8690   12.7660   12.7680 C   0  0  0  0  0  0  0  0  0  0  0  0
   -8.0160   13.0580   14.0970 N   0  0  0  0  0  0  0  0  0  0  0  0
   -7.1670   12.6420   15.2000 C   0  0  2  0  0  0  0  0  0  0  0  0
   -6.3640   13.7710   15.6270 O   0  0  0  0  0  0  0  0  0  0  0  0
   -4.9790   13.4250   15.4560 C   0  0  2  0  0  0  0  0  0  0  0  0
   -4.2570   14.6470   14.9730 C   0  0  0  0  0  0  0  0  0  0  0  0
   -3.1060   14.6180   14.2790 C   0  0  0  0  0  0  0  0  0  0  0  0
   -2.3770   15.8300   13.7940 C   0  0  0  0  0  0  0  0  0  0  0  0
   -3.3120   16.9290   13.8020 N   0  0  0  0  0  0  0  0  0  0  0  0
   -2.9480   18.1860   14.2340 C   0  0  0  0  0  0  0  0  0  0  0  0
   -1.8110   18.4760   14.5970 O   0  0  0  0  0  0  0  0  0  0  0  0
   -4.0110   19.2240   14.3090 C   0  0  0  0  0  0  0  0  0  0  0  0
   -4.7110   19.6550   13.1680 C   0  0  0  0  0  0  0  0  0  0  0  0
   -5.7300   20.6260   13.2550 C   0  0  0  0  0  0  0  0  0  0  0  0
   -6.4590   21.0640   12.0540 C   0  0  0  0  0  0  0  0  0  0  0  0
   -7.1720   20.1420   11.2640 C   0  0  0  0  0  0  0  0  0  0  0  0
   -7.8670   20.5590   10.1270 C   0  0  0  0  0  0  0  0  0  0  0  0
   -7.8560   21.9010    9.7700 C   0  0  0  0  0  0  0  0  0  0  0  0
   -8.5230   22.3010    8.6800 F   0  0  0  0  0  0  0  0  0  0  0  0
   -7.1610   22.8340   10.5290 C   0  0  0  0  0  0  0  0  0  0  0  0
   -6.4660   22.4160   11.6660 C   0  0  0  0  0  0  0  0  0  0  0  0
   -6.0320   21.1660   14.5160 C   0  0  0  0  0  0  0  0  0  0  0  0
   -5.3250   20.7560   15.6380 C   0  0  0  0  0  0  0  0  0  0  0  0
   -5.6270   21.3100   16.8500 O   0  0  0  0  0  0  0  0  0  0  0  0
   -4.3140   19.8030   15.5460 C   0  0  0  0  0  0  0  0  0  0  0  0
   -3.6670   19.4900   16.7170 O   0  0  0  0  0  0  0  0  0  0  0  0
   -4.9440   12.2640   14.4580 C   0  0  1  0  0  0  0  0  0  0  0  0
   -3.7850   11.4450   14.5610 O   0  0  0  0  0  0  0  0  0  0  0  0
   -6.2030   11.5040   14.8370 C   0  0  1  0  0  0  0  0  0  0  0  0
   -5.9220   10.6820   15.9850 O   0  0  0  0  0  0  0  0  0  0  0  0
  -12.4273   15.4274   11.6161 H   0  0  0  0  0  0  0  0  0  0  0  0
  -10.8202   15.7601   10.8858 H   0  0  0  0  0  0  0  0  0  0  0  0
  -11.4780   14.0886   10.8858 H   0  0  0  0  0  0  0  0  0  0  0  0
  -11.1889   15.6142   15.9496 H   0  0  0  0  0  0  0  0  0  0  0  0
   -7.0479   12.1593   12.3585 H   0  0  0  0  0  0  0  0  0  0  0  0
   -7.8401   12.2773   15.9899 H   0  0  0  0  0  0  0  0  0  0  0  0
   -4.4816   13.1025   16.3826 H   0  0  0  0  0  0  0  0  0  0  0  0
   -4.6968   15.6292   15.2008 H   0  0  0  0  0  0  0  0  0  0  0  0
   -2.6701   13.6339   14.0521 H   0  0  0  0  0  0  0  0  0  0  0  0
   -1.5308   16.0516   14.4610 H   0  0  0  0  0  0  0  0  0  0  0  0
   -1.9808   15.6650   12.7812 H   0  0  0  0  0  0  0  0  0  0  0  0
   -4.2900   16.6830   13.7490 H   0  0  0  0  0  0  0  0  0  0  0  0
   -4.4584   19.2258   12.1872 H   0  0  0  0  0  0  0  0  0  0  0  0
   -7.1816   19.0789   11.5463 H   0  0  0  0  0  0  0  0  0  0  0  0
   -8.4199   19.8289    9.5177 H   0  0  0  0  0  0  0  0  0  0  0  0
   -7.1581   23.8944   10.2366 H   0  0  0  0  0  0  0  0  0  0  0  0
   -5.9159   23.1550   12.2670 H   0  0  0  0  0  0  0  0  0  0  0  0
   -6.8308   21.9157   14.6147 H   0  0  0  0  0  0  0  0  0  0  0  0
   -5.4870   22.2710   16.7260 H   0  0  0  0  0  0  0  0  0  0  0  0
   -2.7080   19.3960   16.5050 H   0  0  0  0  0  0  0  0  0  0  0  0
   -4.9039   12.6052   13.4130 H   0  0  0  0  0  0  0  0  0  0  0  0
   -4.0250   10.6830   15.1220 H   0  0  0  0  0  0  0  0  0  0  0  0
   -6.5972   10.8365   14.0566 H   0  0  0  0  0  0  0  0  0  0  0  0
   -6.5820    9.9620   15.9750 H   0  0  0  0  0  0  0  0  0  0  0  0
  1  2  1  0
  2  3  2  0
  3  4  1  0
  4  5  2  0
  5  6  1  0
  6  7  2  0
  7  8  1  0
  8  9  2  0
  9 10  1  0
 10 11  1  0
 11 12  1  0
 12 13  1  0
 13 14  1  0
 14 15  2  0
 15 16  1  0
 16 17  1  0
 17 18  1  0
 18 19  2  0
 18 20  1  0
 20 21  2  0
 21 22  1  0
 22 23  1  0
 23 24  2  0
 24 25  1  0
 25 26  2  0
 26 27  1  0
 26 28  1  0
 28 29  2  0
 22 30  2  0
 30 31  1  0
 31 32  1  0
 31 33  2  0
 33 34  1  0
 13 35  1  0
 35 36  1  0
 35 37  1  0
 37 38  1  0
  7  2  1  0
 37 11  1  0
 10  6  1  0
 33 20  1  0
 29 23  1  0
  1 39  1  0
  1 40  1  0
  1 41  1  0
  4 42  1  0
  9 43  1  0
 11 44  1  1
 13 45  1  1
 14 46  1  0
 15 47  1  0
 16 48  1  0
 16 49  1  0
 17 50  1  0
 21 51  1  0
 24 52  1  0
 25 53  1  0
 28 54  1  0
 29 55  1  0
 30 56  1  0
 32 57  1  0
 34 58  1  0
 35 59  1  6
 36 60  1  0
 37 61  1  6
 38 62  1  0
M  END
>  <meeko>  (6) 
{"is_sidechain": [false], "free_energy": -8.831, "intermolecular_energy": -12.594, "internal_energy": -1.557}

$$$$
3nw9_ligand
     RDKit          3D

 62 66  0  0  0  0  0  0  0  0999 V2000
   -3.5390   12.5480   13.1230 C   0  0  0  0  0  0  0  0  0  0  0  0
   -5.0150   12.7320   13.2660 C   0  0  0  0  0  0  0  0  0  0  0  0
   -5.7980   12.5810   12.1550 N   0  0  0  0  0  0  0  0  0  0  0  0
   -7.1310   12.7580   12.2730 C   0  0  0  0  0  0  0  0  0  0  0  0
   -7.8330   13.0730   13.3800 N   0  0  0  0  0  0  0  0  0  0  0  0
   -7.0180   13.2210   14.4370 C   0  0  0  0  0  0  0  0  0  0  0  0
   -5.6400   13.0730   14.4700 C   0  0  0  0  0  0  0  0  0  0  0  0
   -5.1580   13.3020   15.7390 N   0  0  0  0  0  0  0  0  0  0  0  0
   -6.2210   13.5990   16.4580 C   0  0  0  0  0  0  0  0  0  0  0  0
   -7.3730   13.5390   15.7210 N   0  0  0  0  0  0  0  0  0  0  0  0
   -8.7320   13.7910   16.1680 C   0  0  2  0  0  0  0  0  0  0  0  0
   -8.9100   15.2180   16.3520 O   0  0  0  0  0  0  0  0  0  0  0  0
   -9.2460   15.4520   17.7300 C   0  0  2  0  0  0  0  0  0  0  0  0
   -8.5550   16.7120   18.1620 C   0  0  0  0  0  0  0  0  0  0  0  0
   -7.2210   16.8690   18.1920 C   0  0  0  0  0  0  0  0  0  0  0  0
   -6.5230   18.1190   18.6230 C   0  0  0  0  0  0  0  0  0  0  0  0
   -5.8340   18.6480   17.4710 N   0  0  0  0  0  0  0  0  0  0  0  0
   -5.9890   19.9580   17.0730 C   0  0  0  0  0  0  0  0  0  0  0  0
   -6.6770   20.7750   17.6790 O   0  0  0  0  0  0  0  0  0  0  0  0
   -5.3250   20.3780   15.8090 C   0  0  0  0  0  0  0  0  0  0  0  0
   -6.0590   20.6650   14.6440 C   0  0  0  0  0  0  0  0  0  0  0  0
   -5.4190   21.0820   13.4580 C   0  0  0  0  0  0  0  0  0  0  0  0
   -6.1990   21.3860   12.2480 C   0  0  0  0  0  0  0  0  0  0  0  0
   -6.2280   22.6870   11.7120 C   0  0  0  0  0  0  0  0  0  0  0  0
   -6.9650   22.9730   10.5610 C   0  0  0  0  0  0  0  0  0  0  0  0
   -7.6800   21.9600    9.9350 C   0  0  0  0  0  0  0  0  0  0  0  0
   -8.3860   22.2350    8.8310 F   0  0  0  0  0  0  0  0  0  0  0  0
   -7.6720   20.6660   10.4400 C   0  0  0  0  0  0  0  0  0  0  0  0
   -6.9350   20.3820   11.5920 C   0  0  0  0  0  0  0  0  0  0  0  0
   -4.0200   21.2000   13.4590 C   0  0  0  0  0  0  0  0  0  0  0  0
   -3.2950   20.8940   14.6030 C   0  0  0  0  0  0  0  0  0  0  0  0
   -1.9330   21.0000   14.5730 O   0  0  0  0  0  0  0  0  0  0  0  0
   -3.9300   20.4760   15.7700 C   0  0  0  0  0  0  0  0  0  0  0  0
   -3.1120   20.1790   16.8340 O   0  0  0  0  0  0  0  0  0  0  0  0
   -8.7870   14.2120   18.5030 C   0  0  1  0  0  0  0  0  0  0  0  0
   -9.4810   14.0040   19.7280 O   0  0  0  0  0  0  0  0  0  0  0  0
   -9.0750   13.1090   17.5000 C   0  0  1  0  0  0  0  0  0  0  0  0
  -10.4750   12.7780   17.5620 O   0  0  0  0  0  0  0  0  0  0  0  0
   -3.0783   12.4906   14.1202 H   0  0  0  0  0  0  0  0  0  0  0  0
   -3.3372   11.6177   12.5717 H   0  0  0  0  0  0  0  0  0  0  0  0
   -3.1150   13.4002   12.5717 H   0  0  0  0  0  0  0  0  0  0  0  0
   -7.7174   12.6292   11.3513 H   0  0  0  0  0  0  0  0  0  0  0  0
   -6.1870   13.8640   17.5251 H   0  0  0  0  0  0  0  0  0  0  0  0
   -9.3959   13.3780   15.3943 H   0  0  0  0  0  0  0  0  0  0  0  0
  -10.3217   15.5956   17.9096 H   0  0  0  0  0  0  0  0  0  0  0  0
   -9.1806   17.5613   18.4740 H   0  0  0  0  0  0  0  0  0  0  0  0
   -6.5987   16.0182   17.8774 H   0  0  0  0  0  0  0  0  0  0  0  0
   -7.2566   18.8513   18.9913 H   0  0  0  0  0  0  0  0  0  0  0  0
   -5.8133   17.9067   19.4362 H   0  0  0  0  0  0  0  0  0  0  0  0
   -5.4660   17.9690   16.8200 H   0  0  0  0  0  0  0  0  0  0  0  0
   -7.1541   20.5622   14.6580 H   0  0  0  0  0  0  0  0  0  0  0  0
   -5.6620   23.4900   12.2068 H   0  0  0  0  0  0  0  0  0  0  0  0
   -6.9793   23.9943   10.1525 H   0  0  0  0  0  0  0  0  0  0  0  0
   -8.2417   19.8711    9.9365 H   0  0  0  0  0  0  0  0  0  0  0  0
   -6.9299   19.3576   11.9927 H   0  0  0  0  0  0  0  0  0  0  0  0
   -3.4970   21.5357   12.5514 H   0  0  0  0  0  0  0  0  0  0  0  0
   -1.7290   21.3120   13.6680 H   0  0  0  0  0  0  0  0  0  0  0  0
   -3.5470   19.4560   17.3440 H   0  0  0  0  0  0  0  0  0  0  0  0
   -7.7388   14.2795   18.8297 H   0  0  0  0  0  0  0  0  0  0  0  0
   -9.1730   13.1490   20.0860 H   0  0  0  0  0  0  0  0  0  0  0  0
   -8.5192   12.1739   17.6630 H   0  0  0  0  0  0  0  0  0  0  0  0
  -10.9000   13.2490   16.8200 H   0  0  0  0  0  0  0  0  0  0  0  0
  1  2  1  0
  2  3  2  0
  3  4  1  0
  4  5  2  0
  5  6  1  0
  6  7  2  0
  7  8  1  0
  8  9  2  0
  9 10  1  0
 10 11  1  0
 11 12  1  0
 12 13  1  0
 13 14  1  0
 14 15  2  0
 15 16  1  0
 16 17  1  0
 17 18  1  0
 18 19  2  0
 18 20  1  0
 20 21  2  0
 21 22  1  0
 22 23  1  0
 23 24  2  0
 24 25  1  0
 25 26  2  0
 26 27  1  0
 26 28  1  0
 28 29  2  0
 22 30  2  0
 30 31  1  0
 31 32  1  0
 31 33  2  0
 33 34  1  0
 13 35  1  0
 35 36  1  0
 35 37  1  0
 37 38  1  0
  7  2  1  0
 37 11  1  0
 10  6  1  0
 33 20  1  0
 29 23  1  0
  1 39  1  0
  1 40  1  0
  1 41  1  0
  4 42  1  0
  9 43  1  0
 11 44  1  6
 13 45  1  6
 14 46  1  0
 15 47  1  0
 16 48  1  0
 16 49  1  0
 17 50  1  0
 21 51  1  0
 24 52  1  0
 25 53  1  0
 28 54  1  0
 29 55  1  0
 30 56  1  0
 32 57  1  0
 34 58  1  0
 35 59  1  1
 36 60  1  0
 37 61  1  1
 38 62  1  0
M  END
>  <meeko>  (7) 
{"is_sidechain": [false], "free_energy": -8.749, "intermolecular_energy": -12.563, "internal_energy": -1.47}

$$$$
3nw9_ligand
     RDKit          3D

 62 66  0  0  0  0  0  0  0  0999 V2000
   -8.7440   16.8520   18.7160 C   0  0  0  0  0  0  0  0  0  0  0  0
   -7.6210   15.9440   18.3330 C   0  0  0  0  0  0  0  0  0  0  0  0
   -6.4560   16.0170   19.0460 N   0  0  0  0  0  0  0  0  0  0  0  0
   -5.4320   15.2080   18.6980 C   0  0  0  0  0  0  0  0  0  0  0  0
   -5.3940   14.2950   17.7060 N   0  0  0  0  0  0  0  0  0  0  0  0
   -6.5540   14.2720   17.0320 C   0  0  0  0  0  0  0  0  0  0  0  0
   -7.6860   15.0370   17.2690 C   0  0  0  0  0  0  0  0  0  0  0  0
   -8.6790   14.7260   16.3690 N   0  0  0  0  0  0  0  0  0  0  0  0
   -8.1550   13.8030   15.5890 C   0  0  0  0  0  0  0  0  0  0  0  0
   -6.8800   13.4770   15.9660 N   0  0  0  0  0  0  0  0  0  0  0  0
   -5.9920   12.5010   15.3570 C   0  0  2  0  0  0  0  0  0  0  0  0
   -4.6910   13.1080   15.1590 O   0  0  0  0  0  0  0  0  0  0  0  0
   -4.4000   13.0910   13.7510 C   0  0  2  0  0  0  0  0  0  0  0  0
   -3.7030   14.3750   13.4110 C   0  0  0  0  0  0  0  0  0  0  0  0
   -2.6500   14.8640   14.0880 C   0  0  0  0  0  0  0  0  0  0  0  0
   -1.9490   16.1440   13.7580 C   0  0  0  0  0  0  0  0  0  0  0  0
   -2.9360   17.1960   13.7860 N   0  0  0  0  0  0  0  0  0  0  0  0
   -2.6320   18.4590   14.2460 C   0  0  0  0  0  0  0  0  0  0  0  0
   -1.5120   18.7950   14.6200 O   0  0  0  0  0  0  0  0  0  0  0  0
   -3.7440   19.4440   14.3400 C   0  0  0  0  0  0  0  0  0  0  0  0
   -4.4820   19.8410   13.2100 C   0  0  0  0  0  0  0  0  0  0  0  0
   -5.5460   20.7610   13.3160 C   0  0  0  0  0  0  0  0  0  0  0  0
   -6.3160   21.1630   12.1270 C   0  0  0  0  0  0  0  0  0  0  0  0
   -6.3130   22.4970   11.6790 C   0  0  0  0  0  0  0  0  0  0  0  0
   -7.0400   22.8760   10.5480 C   0  0  0  0  0  0  0  0  0  0  0  0
   -7.7770   21.9240    9.8560 C   0  0  0  0  0  0  0  0  0  0  0  0
   -8.4740   22.2880    8.7720 F   0  0  0  0  0  0  0  0  0  0  0  0
   -7.8010   20.6000   10.2740 C   0  0  0  0  0  0  0  0  0  0  0  0
   -7.0730   20.2220   11.4050 C   0  0  0  0  0  0  0  0  0  0  0  0
   -5.8540   21.2850   14.5820 C   0  0  0  0  0  0  0  0  0  0  0  0
   -5.1090   20.9100   15.6910 C   0  0  0  0  0  0  0  0  0  0  0  0
   -5.4190   21.4470   16.9090 O   0  0  0  0  0  0  0  0  0  0  0  0
   -4.0550   20.0070   15.5820 C   0  0  0  0  0  0  0  0  0  0  0  0
   -3.3740   19.7250   16.7420 O   0  0  0  0  0  0  0  0  0  0  0  0
   -5.7430   12.9200   13.0350 C   0  0  1  0  0  0  0  0  0  0  0  0
   -5.6370   12.3530   11.7340 O   0  0  0  0  0  0  0  0  0  0  0  0
   -6.4780   11.9980   13.9910 C   0  0  1  0  0  0  0  0  0  0  0  0
   -6.0450   10.6450   13.7580 O   0  0  0  0  0  0  0  0  0  0  0  0
   -8.8129   16.9077   19.8124 H   0  0  0  0  0  0  0  0  0  0  0  0
   -8.5583   17.8568   18.3088 H   0  0  0  0  0  0  0  0  0  0  0  0
   -9.6877   16.4600   18.3088 H   0  0  0  0  0  0  0  0  0  0  0  0
   -4.5153   15.3059   19.2981 H   0  0  0  0  0  0  0  0  0  0  0  0
   -8.6796   13.3481   14.7359 H   0  0  0  0  0  0  0  0  0  0  0  0
   -5.9582   11.6411   16.0421 H   0  0  0  0  0  0  0  0  0  0  0  0
   -3.7341   12.2717   13.4422 H   0  0  0  0  0  0  0  0  0  0  0  0
   -4.0774   14.9530   12.5532 H   0  0  0  0  0  0  0  0  0  0  0  0
   -2.2776   14.2827   14.9444 H   0  0  0  0  0  0  0  0  0  0  0  0
   -1.1638   16.3452   14.5016 H   0  0  0  0  0  0  0  0  0  0  0  0
   -1.4745   16.0828   12.7675 H   0  0  0  0  0  0  0  0  0  0  0  0
   -3.9010   16.9060   13.7240 H   0  0  0  0  0  0  0  0  0  0  0  0
   -4.2243   19.4259   12.2245 H   0  0  0  0  0  0  0  0  0  0  0  0
   -5.7300   23.2518   12.2271 H   0  0  0  0  0  0  0  0  0  0  0  0
   -7.0287   23.9220   10.2077 H   0  0  0  0  0  0  0  0  0  0  0  0
   -8.3889   19.8543    9.7187 H   0  0  0  0  0  0  0  0  0  0  0  0
   -7.0919   19.1731   11.7359 H   0  0  0  0  0  0  0  0  0  0  0  0
   -6.6874   21.9940   14.6947 H   0  0  0  0  0  0  0  0  0  0  0  0
   -4.8290   22.2250   16.9940 H   0  0  0  0  0  0  0  0  0  0  0  0
   -3.7910   18.9240   17.1380 H   0  0  0  0  0  0  0  0  0  0  0  0
   -6.2442   13.8793   12.8385 H   0  0  0  0  0  0  0  0  0  0  0  0
   -5.3520   11.4260   11.8510 H   0  0  0  0  0  0  0  0  0  0  0  0
   -7.5736   12.0027   13.8931 H   0  0  0  0  0  0  0  0  0  0  0  0
   -5.6790   10.3250   14.6050 H   0  0  0  0  0  0  0  0  0  0  0  0
  1  2  1  0
  2  3  2  0
  3  4  1  0
  4  5  2  0
  5  6  1  0
  6  7  2  0
  7  8  1  0
  8  9  2  0
  9 10  1  0
 10 11  1  0
 11 12  1  0
 12 13  1  0
 13 14  1  0
 14 15  2  0
 15 16  1  0
 16 17  1  0
 17 18  1  0
 18 19  2  0
 18 20  1  0
 20 21  2  0
 21 22  1  0
 22 23  1  0
 23 24  2  0
 24 25  1  0
 25 26  2  0
 26 27  1  0
 26 28  1  0
 28 29  2  0
 22 30  2  0
 30 31  1  0
 31 32  1  0
 31 33  2  0
 33 34  1  0
 13 35  1  0
 35 36  1  0
 35 37  1  0
 37 38  1  0
  7  2  1  0
 37 11  1  0
 10  6  1  0
 33 20  1  0
 29 23  1  0
  1 39  1  0
  1 40  1  0
  1 41  1  0
  4 42  1  0
  9 43  1  0
 11 44  1  1
 13 45  1  1
 14 46  1  0
 15 47  1  0
 16 48  1  0
 16 49  1  0
 17 50  1  0
 21 51  1  0
 24 52  1  0
 25 53  1  0
 28 54  1  0
 29 55  1  0
 30 56  1  0
 32 57  1  0
 34 58  1  0
 35 59  1  6
 36 60  1  0
 37 61  1  1
 38 62  1  0
M  END
>  <meeko>  (8) 
{"is_sidechain": [false], "free_energy": -8.662, "intermolecular_energy": -12.279, "internal_energy": -1.625}

$$$$
3nw9_ligand
     RDKit          3D

 62 66  0  0  0  0  0  0  0  0999 V2000
   -7.0630    9.9930    9.3650 C   0  0  0  0  0  0  0  0  0  0  0  0
   -6.9260    9.8680   10.8470 C   0  0  0  0  0  0  0  0  0  0  0  0
   -7.2100    8.6610   11.4250 N   0  0  0  0  0  0  0  0  0  0  0  0
   -7.1010    8.5420   12.7660 C   0  0  0  0  0  0  0  0  0  0  0  0
   -6.7320    9.4850   13.6560 N   0  0  0  0  0  0  0  0  0  0  0  0
   -6.4760   10.6500   13.0400 C   0  0  0  0  0  0  0  0  0  0  0  0
   -6.5440   10.9230   11.6830 C   0  0  0  0  0  0  0  0  0  0  0  0
   -6.2050   12.2330   11.4330 N   0  0  0  0  0  0  0  0  0  0  0  0
   -5.9520   12.7500   12.6180 C   0  0  0  0  0  0  0  0  0  0  0  0
   -6.0780   11.8260   13.6190 N   0  0  0  0  0  0  0  0  0  0  0  0
   -5.8700   12.0200   15.0440 C   0  0  2  0  0  0  0  0  0  0  0  0
   -5.6290   13.4270   15.2960 O   0  0  0  0  0  0  0  0  0  0  0  0
   -4.3220   13.5590   15.8810 C   0  0  2  0  0  0  0  0  0  0  0  0
   -3.6900   14.7980   15.3190 C   0  0  0  0  0  0  0  0  0  0  0  0
   -2.7880   14.7990   14.3230 C   0  0  0  0  0  0  0  0  0  0  0  0
   -2.1510   16.0280   13.7570 C   0  0  0  0  0  0  0  0  0  0  0  0
   -3.1440   17.0750   13.7700 N   0  0  0  0  0  0  0  0  0  0  0  0
   -2.8470   18.3470   14.2080 C   0  0  0  0  0  0  0  0  0  0  0  0
   -1.7260   18.6960   14.5720 O   0  0  0  0  0  0  0  0  0  0  0  0
   -3.9640   19.3270   14.2900 C   0  0  0  0  0  0  0  0  0  0  0  0
   -4.6770   19.7370   13.1490 C   0  0  0  0  0  0  0  0  0  0  0  0
   -5.7470   20.6510   13.2420 C   0  0  0  0  0  0  0  0  0  0  0  0
   -6.4900   21.0670   12.0420 C   0  0  0  0  0  0  0  0  0  0  0  0
   -6.4670   22.4040   11.6020 C   0  0  0  0  0  0  0  0  0  0  0  0
   -7.1700   22.7960   10.4610 C   0  0  0  0  0  0  0  0  0  0  0  0
   -7.9010   21.8540    9.7490 C   0  0  0  0  0  0  0  0  0  0  0  0
   -8.5740   22.2310    8.6540 F   0  0  0  0  0  0  0  0  0  0  0  0
   -7.9440   20.5280   10.1580 C   0  0  0  0  0  0  0  0  0  0  0  0
   -7.2420   20.1370   11.3000 C   0  0  0  0  0  0  0  0  0  0  0  0
   -6.0860   21.1560   14.5080 C   0  0  0  0  0  0  0  0  0  0  0  0
   -5.3660   20.7680   15.6300 C   0  0  0  0  0  0  0  0  0  0  0  0
   -5.7060   21.2880   16.8470 O   0  0  0  0  0  0  0  0  0  0  0  0
   -4.3060   19.8710   15.5320 C   0  0  0  0  0  0  0  0  0  0  0  0
   -3.6510   19.5760   16.7040 O   0  0  0  0  0  0  0  0  0  0  0  0
   -3.5610   12.2760   15.5320 C   0  0  1  0  0  0  0  0  0  0  0  0
   -2.5000   11.9700   16.4290 O   0  0  0  0  0  0  0  0  0  0  0  0
   -4.6700   11.2410   15.6000 C   0  0  1  0  0  0  0  0  0  0  0  0
   -4.8850   10.8810   16.9770 O   0  0  0  0  0  0  0  0  0  0  0  0
   -7.8568   10.7173    9.1300 H   0  0  0  0  0  0  0  0  0  0  0  0
   -6.1112   10.3404    8.9368 H   0  0  0  0  0  0  0  0  0  0  0  0
   -7.3219    9.0134    8.9368 H   0  0  0  0  0  0  0  0  0  0  0  0
   -7.3432    7.5536   13.1835 H   0  0  0  0  0  0  0  0  0  0  0  0
   -5.6723   13.8010   12.7832 H   0  0  0  0  0  0  0  0  0  0  0  0
   -6.7764   11.6488   15.5446 H   0  0  0  0  0  0  0  0  0  0  0  0
   -4.3319   13.6710   16.9752 H   0  0  0  0  0  0  0  0  0  0  0  0
   -3.9835   15.7668   15.7494 H   0  0  0  0  0  0  0  0  0  0  0  0
   -2.4980   13.8284   13.8942 H   0  0  0  0  0  0  0  0  0  0  0  0
   -1.2877   16.3212   14.3724 H   0  0  0  0  0  0  0  0  0  0  0  0
   -1.7949   15.8438   12.7327 H   0  0  0  0  0  0  0  0  0  0  0  0
   -4.1070   16.7770   13.7180 H   0  0  0  0  0  0  0  0  0  0  0  0
   -4.3943   19.3366   12.1642 H   0  0  0  0  0  0  0  0  0  0  0  0
   -5.8872   23.1503   12.1649 H   0  0  0  0  0  0  0  0  0  0  0  0
   -7.1450   23.8442   10.1283 H   0  0  0  0  0  0  0  0  0  0  0  0
   -8.5269   19.7907    9.5865 H   0  0  0  0  0  0  0  0  0  0  0  0
   -7.2772   19.0866   11.6245 H   0  0  0  0  0  0  0  0  0  0  0  0
   -6.9242   21.8608   14.6109 H   0  0  0  0  0  0  0  0  0  0  0  0
   -4.8790   21.6910   17.1830 H   0  0  0  0  0  0  0  0  0  0  0  0
   -4.1410   18.8360   17.1340 H   0  0  0  0  0  0  0  0  0  0  0  0
   -3.0445   12.3396   14.5629 H   0  0  0  0  0  0  0  0  0  0  0  0
   -2.8950   11.4910   17.1820 H   0  0  0  0  0  0  0  0  0  0  0  0
   -4.4703   10.3074   15.0536 H   0  0  0  0  0  0  0  0  0  0  0  0
   -5.5840   11.4760   17.3100 H   0  0  0  0  0  0  0  0  0  0  0  0
  1  2  1  0
  2  3  2  0
  3  4  1  0
  4  5  2  0
  5  6  1  0
  6  7  2  0
  7  8  1  0
  8  9  2  0
  9 10  1  0
 10 11  1  0
 11 12  1  0
 12 13  1  0
 13 14  1  0
 14 15  2  0
 15 16  1  0
 16 17  1  0
 17 18  1  0
 18 19  2  0
 18 20  1  0
 20 21  2  0
 21 22  1  0
 22 23  1  0
 23 24  2  0
 24 25  1  0
 25 26  2  0
 26 27  1  0
 26 28  1  0
 28 29  2  0
 22 30  2  0
 30 31  1  0
 31 32  1  0
 31 33  2  0
 33 34  1  0
 13 35  1  0
 35 36  1  0
 35 37  1  0
 37 38  1  0
  7  2  1  0
 37 11  1  0
 10  6  1  0
 33 20  1  0
 29 23  1  0
  1 39  1  0
  1 40  1  0
  1 41  1  0
  4 42  1  0
  9 43  1  0
 11 44  1  1
 13 45  1  1
 14 46  1  0
 15 47  1  0
 16 48  1  0
 16 49  1  0
 17 50  1  0
 21 51  1  0
 24 52  1  0
 25 53  1  0
 28 54  1  0
 29 55  1  0
 30 56  1  0
 32 57  1  0
 34 58  1  0
 35 59  1  6
 36 60  1  0
 37 61  1  6
 38 62  1  0
M  END
>  <meeko>  (9) 
{"is_sidechain": [false], "free_energy": -8.652, "intermolecular_energy": -12.341, "internal_energy": -1.548}

$$$$
