1u1b_ligand
     RDKit          3D

 74 78  0  0  0  0  0  0  0  0999 V2000
  -30.3650  -23.9780   16.6370 C   0  0  0  0  0  0  0  0  0  0  0  0
  -29.2690  -24.1000   15.6310 C   0  0  0  0  0  0  0  0  0  0  0  0
  -29.0380  -25.2130   14.9220 C   0  0  0  0  0  0  0  0  0  0  0  0
  -28.0410  -25.3060   13.9650 N   0  0  0  0  0  0  0  0  0  0  0  0
  -27.8220  -26.5620   13.2320 C   0  0  1  0  0  0  0  0  0  0  0  0
  -28.7030  -27.7130   13.7130 C   0  0  0  0  0  0  0  0  0  0  0  0
  -28.8730  -28.5300   12.4490 C   0  0  2  0  0  0  0  0  0  0  0  0
  -27.6720  -29.2870   12.2590 O   0  0  0  0  0  0  0  0  0  0  0  0
  -27.6910  -30.9260   12.3860 P   0  0  2  0  0  5  0  0  0  0  0  0
  -26.2300  -31.3270   12.3840 O   0  0  0  0  0  0  0  0  0  0  0  0
  -28.6120  -31.4100   11.2840 O   0  0  0  0  0  0  0  0  0  0  0  0
  -28.3430  -31.0620   13.8410 O   0  0  0  0  0  0  0  0  0  0  0  0
  -29.6280  -31.8230   14.4310 P   0  0  2  0  0  5  0  0  0  0  0  0
  -29.5640  -33.3260   14.2530 O   0  0  0  0  0  0  0  0  0  0  0  0
  -30.8710  -31.1100   13.9110 O   0  0  0  0  0  0  0  0  0  0  0  0
  -29.5510  -31.4950   16.0320 O   0  0  0  0  0  0  0  0  0  0  0  0
  -30.3170  -32.3580   16.8880 C   0  0  0  0  0  0  0  0  0  0  0  0
  -29.4640  -32.8980   18.0530 C   0  0  1  0  0  0  0  0  0  0  0  0
  -28.5530  -33.9150   17.5400 O   0  0  0  0  0  0  0  0  0  0  0  0
  -27.2980  -33.7860   18.2240 C   0  0  1  0  0  0  0  0  0  0  0  0
  -26.2460  -33.4990   17.2590 N   0  0  0  0  0  0  0  0  0  0  0  0
  -26.3800  -33.0980   15.9510 C   0  0  0  0  0  0  0  0  0  0  0  0
  -25.2080  -32.8770   15.3770 N   0  0  0  0  0  0  0  0  0  0  0  0
  -24.2870  -33.1760   16.3520 C   0  0  0  0  0  0  0  0  0  0  0  0
  -22.8830  -33.1000   16.3670 C   0  0  0  0  0  0  0  0  0  0  0  0
  -22.1420  -32.6370   15.2690 N   0  0  0  0  0  0  0  0  0  0  0  0
  -22.2180  -33.4190   17.5010 N   0  0  0  0  0  0  0  0  0  0  0  0
  -22.9580  -33.8290   18.5590 C   0  0  0  0  0  0  0  0  0  0  0  0
  -24.2910  -33.9760   18.6520 N   0  0  0  0  0  0  0  0  0  0  0  0
  -24.9020  -33.5960   17.5160 C   0  0  0  0  0  0  0  0  0  0  0  0
  -27.4570  -32.7250   19.3080 C   0  0  2  0  0  0  0  0  0  0  0  0
  -27.8420  -33.3690   20.5430 O   0  0  0  0  0  0  0  0  0  0  0  0
  -28.5680  -31.8460   18.7390 C   0  0  2  0  0  0  0  0  0  0  0  0
  -29.2270  -31.0310   19.6990 O   0  0  0  0  0  0  0  0  0  0  0  0
  -28.9590  -29.4100   19.6360 P   0  0  0  0  0  0  0  0  0  0  0  0
  -29.5620  -29.0160   18.2910 O   0  0  0  0  0  0  0  0  0  0  0  0
  -29.7180  -28.8420   20.8260 O   0  0  0  0  0  0  0  0  0  0  0  0
  -27.4500  -29.2480   19.7020 O   0  0  0  0  0  0  0  0  0  0  0  0
  -28.9730  -27.4210   11.3790 C   0  0  1  0  0  0  0  0  0  0  0  0
  -30.4040  -26.8360   11.2180 C   0  0  0  0  0  0  0  0  0  0  0  0
  -30.3870  -25.4090   11.3120 O   0  0  0  0  0  0  0  0  0  0  0  0
  -31.6350  -24.6810   12.0950 P   0  0  0  0  0  0  0  0  0  0  0  0
  -32.6890  -24.4710   11.0130 O   0  0  0  0  0  0  0  0  0  0  0  0
  -32.0510  -25.6710   13.1740 O   0  0  0  0  0  0  0  0  0  0  0  0
  -31.0580  -23.3780   12.6350 O   0  0  0  0  0  0  0  0  0  0  0  0
  -28.0630  -26.3740   11.8290 O   0  0  0  0  0  0  0  0  0  0  0  0
  -27.1930  -24.2460   13.7130 C   0  0  0  0  0  0  0  0  0  0  0  0
  -26.3100  -24.2090   12.8590 O   0  0  0  0  0  0  0  0  0  0  0  0
  -27.3930  -23.1280   14.4820 N   0  0  0  0  0  0  0  0  0  0  0  0
  -28.4010  -22.9340   15.3810 C   0  0  0  0  0  0  0  0  0  0  0  0
  -28.5700  -21.8440   15.9280 O   0  0  0  0  0  0  0  0  0  0  0  0
  -29.9396  -24.0254   17.6503 H   0  0  0  0  0  0  0  0  0  0  0  0
  -30.8822  -23.0167   16.5010 H   0  0  0  0  0  0  0  0  0  0  0  0
  -31.0809  -24.8020   16.5010 H   0  0  0  0  0  0  0  0  0  0  0  0
  -29.6696  -26.0941   15.1086 H   0  0  0  0  0  0  0  0  0  0  0  0
  -26.7735  -26.8334   13.4241 H   0  0  0  0  0  0  0  0  0  0  0  0
  -28.2039  -28.2957   14.5013 H   0  0  0  0  0  0  0  0  0  0  0  0
  -29.6532  -27.3866   14.1609 H   0  0  0  0  0  0  0  0  0  0  0  0
  -29.7224  -29.2289   12.4404 H   0  0  0  0  0  0  0  0  0  0  0  0
  -31.1662  -31.7923   17.2988 H   0  0  0  0  0  0  0  0  0  0  0  0
  -30.6685  -33.2129   16.2917 H   0  0  0  0  0  0  0  0  0  0  0  0
  -30.1898  -33.2708   18.7907 H   0  0  0  0  0  0  0  0  0  0  0  0
  -26.9998  -34.7201   18.7226 H   0  0  0  0  0  0  0  0  0  0  0  0
  -27.3471  -32.9753   15.4415 H   0  0  0  0  0  0  0  0  0  0  0  0
  -21.2220  -32.3560   15.6090 H   0  0  0  0  0  0  0  0  0  0  0  0
  -22.1470  -33.3580   14.5600 H   0  0  0  0  0  0  0  0  0  0  0  0
  -22.3895  -34.0758   19.4678 H   0  0  0  0  0  0  0  0  0  0  0  0
  -26.5497  -32.1484   19.5413 H   0  0  0  0  0  0  0  0  0  0  0  0
  -27.0300  -33.9330   20.7420 H   0  0  0  0  0  0  0  0  0  0  0  0
  -28.2073  -31.0666   18.0516 H   0  0  0  0  0  0  0  0  0  0  0  0
  -28.7181  -27.8345   10.3921 H   0  0  0  0  0  0  0  0  0  0  0  0
  -30.8034  -27.1272   10.2353 H   0  0  0  0  0  0  0  0  0  0  0  0
  -31.0382  -27.2332   12.0243 H   0  0  0  0  0  0  0  0  0  0  0  0
  -26.7870  -22.3550   14.2790 H   0  0  0  0  0  0  0  0  0  0  0  0
  1  2  1  0
  2  3  2  0
  3  4  1  0
  4  5  1  0
  5  6  1  0
  6  7  1  0
  7  8  1  0
  8  9  1  0
  9 10  2  0
  9 11  1  6
  9 12  1  0
 12 13  1  0
 13 14  2  0
 13 15  1  6
 13 16  1  0
 16 17  1  0
 17 18  1  0
 18 19  1  0
 19 20  1  0
 20 21  1  0
 21 22  1  0
 22 23  2  0
 23 24  1  0
 24 25  2  0
 25 26  1  0
 25 27  1  0
 27 28  2  0
 28 29  1  0
 29 30  2  0
 20 31  1  0
 31 32  1  0
 31 33  1  0
 33 34  1  0
 34 35  1  0
 35 36  2  0
 35 37  1  0
 35 38  1  0
  7 39  1  0
 39 40  1  0
 40 41  1  0
 41 42  1  0
 42 43  2  0
 42 44  1  0
 42 45  1  0
 39 46  1  0
  4 47  1  0
 47 48  2  0
 47 49  1  0
 49 50  1  0
 50 51  2  0
 50  2  1  0
 46  5  1  0
 33 18  1  0
 30 21  1  0
 30 24  1  0
  1 52  1  0
  1 53  1  0
  1 54  1  0
  3 55  1  0
  5 56  1  6
  6 57  1  0
  6 58  1  0
  7 59  1  1
 17 60  1  0
 17 61  1  0
 18 62  1  1
 20 63  1  1
 22 64  1  0
 26 65  1  0
 26 66  1  0
 28 67  1  0
 31 68  1  1
 32 69  1  0
 33 70  1  6
 39 71  1  6
 40 72  1  0
 40 73  1  0
 49 74  1  0
M  CHG  6  11  -1  15  -1  37  -1  38  -1  44  -1  45  -1
M  END
>  <meeko>  (1) 
{"is_sidechain": [false], "free_energy": -7.773, "intermolecular_energy": -14.589, "internal_energy": -3.481}

$$$$
1u1b_ligand
     RDKit          3D

 74 78  0  0  0  0  0  0  0  0999 V2000
  -28.0140  -22.5930   14.7860 C   0  0  0  0  0  0  0  0  0  0  0  0
  -28.1050  -24.0020   14.3030 C   0  0  0  0  0  0  0  0  0  0  0  0
  -29.1770  -24.7810   14.4980 C   0  0  0  0  0  0  0  0  0  0  0  0
  -29.2670  -26.0780   14.0170 N   0  0  0  0  0  0  0  0  0  0  0  0
  -30.4620  -26.8930   14.2800 C   0  0  1  0  0  0  0  0  0  0  0  0
  -30.5100  -27.4700   15.6930 C   0  0  0  0  0  0  0  0  0  0  0  0
  -32.0010  -27.5510   15.9500 C   0  0  2  0  0  0  0  0  0  0  0  0
  -32.4950  -28.7070   15.2640 O   0  0  0  0  0  0  0  0  0  0  0  0
  -32.9420  -30.0480   16.1050 P   0  0  2  0  0  5  0  0  0  0  0  0
  -34.3810  -30.2930   15.6990 O   0  0  0  0  0  0  0  0  0  0  0  0
  -32.6020  -29.7530   17.5520 O   0  0  0  0  0  0  0  0  0  0  0  0
  -31.9470  -31.1100   15.4410 O   0  0  0  0  0  0  0  0  0  0  0  0
  -32.0060  -32.6920   15.1720 P   0  0  2  0  0  5  0  0  0  0  0  0
  -31.9720  -33.0470   13.7010 O   0  0  0  0  0  0  0  0  0  0  0  0
  -33.1490  -33.2630   16.0030 O   0  0  0  0  0  0  0  0  0  0  0  0
  -30.6260  -33.2380   15.8610 O   0  0  0  0  0  0  0  0  0  0  0  0
  -29.8690  -32.2690   16.6050 C   0  0  0  0  0  0  0  0  0  0  0  0
  -29.1310  -32.9200   17.7920 C   0  0  1  0  0  0  0  0  0  0  0  0
  -28.2260  -33.9430   17.2820 O   0  0  0  0  0  0  0  0  0  0  0  0
  -27.0230  -33.9140   18.0640 C   0  0  1  0  0  0  0  0  0  0  0  0
  -25.8890  -33.6150   17.2010 N   0  0  0  0  0  0  0  0  0  0  0  0
  -25.9050  -33.2040   15.8900 C   0  0  0  0  0  0  0  0  0  0  0  0
  -24.6870  -32.9740   15.4250 N   0  0  0  0  0  0  0  0  0  0  0  0
  -23.8570  -33.2780   16.4760 C   0  0  0  0  0  0  0  0  0  0  0  0
  -22.4610  -33.1980   16.6190 C   0  0  0  0  0  0  0  0  0  0  0  0
  -21.6250  -32.7240   15.5970 N   0  0  0  0  0  0  0  0  0  0  0  0
  -21.9000  -33.5250   17.8060 N   0  0  0  0  0  0  0  0  0  0  0  0
  -22.7310  -33.9470   18.7890 C   0  0  0  0  0  0  0  0  0  0  0  0
  -24.0660  -34.0980   18.7600 N   0  0  0  0  0  0  0  0  0  0  0  0
  -24.5730  -33.7110   17.5770 C   0  0  0  0  0  0  0  0  0  0  0  0
  -27.2210  -32.9160   19.2010 C   0  0  2  0  0  0  0  0  0  0  0  0
  -27.7260  -33.6180   20.3590 O   0  0  0  0  0  0  0  0  0  0  0  0
  -28.2480  -31.9540   18.6100 C   0  0  2  0  0  0  0  0  0  0  0  0
  -28.9460  -31.1720   19.5700 O   0  0  0  0  0  0  0  0  0  0  0  0
  -28.5120  -29.5940   19.7280 P   0  0  0  0  0  0  0  0  0  0  0  0
  -27.0520  -29.5940   19.2840 O   0  0  0  0  0  0  0  0  0  0  0  0
  -29.4300  -28.8400   18.7770 O   0  0  0  0  0  0  0  0  0  0  0  0
  -28.7060  -29.2680   21.1990 O   0  0  0  0  0  0  0  0  0  0  0  0
  -32.5030  -26.2680   15.2520 C   0  0  1  0  0  0  0  0  0  0  0  0
  -32.3980  -24.9940   16.1350 C   0  0  0  0  0  0  0  0  0  0  0  0
  -32.8230  -25.2630   17.4740 O   0  0  0  0  0  0  0  0  0  0  0  0
  -31.7700  -24.9280   18.6900 P   0  0  0  0  0  0  0  0  0  0  0  0
  -30.4210  -24.7780   17.9920 O   0  0  0  0  0  0  0  0  0  0  0  0
  -32.2870  -23.6390   19.3130 O   0  0  0  0  0  0  0  0  0  0  0  0
  -31.8370  -26.1370   19.6160 O   0  0  0  0  0  0  0  0  0  0  0  0
  -31.6530  -26.1190   14.0740 O   0  0  0  0  0  0  0  0  0  0  0  0
  -28.2200  -26.6560   13.3270 C   0  0  0  0  0  0  0  0  0  0  0  0
  -28.2140  -27.7770   12.8210 O   0  0  0  0  0  0  0  0  0  0  0  0
  -27.1000  -25.8770   13.1800 N   0  0  0  0  0  0  0  0  0  0  0  0
  -26.9690  -24.5710   13.5530 C   0  0  0  0  0  0  0  0  0  0  0  0
  -25.9670  -23.9190   13.2600 O   0  0  0  0  0  0  0  0  0  0  0  0
  -28.0133  -22.5818   15.8859 H   0  0  0  0  0  0  0  0  0  0  0  0
  -27.0845  -22.1372   14.4140 H   0  0  0  0  0  0  0  0  0  0  0  0
  -28.8771  -22.0214   14.4140 H   0  0  0  0  0  0  0  0  0  0  0  0
  -30.0256  -24.3725   15.0664 H   0  0  0  0  0  0  0  0  0  0  0  0
  -30.4052  -27.7332   13.5723 H   0  0  0  0  0  0  0  0  0  0  0  0
  -30.0427  -28.4649   15.7345 H   0  0  0  0  0  0  0  0  0  0  0  0
  -29.9640  -26.8699   16.4358 H   0  0  0  0  0  0  0  0  0  0  0  0
  -32.3022  -27.6248   17.0054 H   0  0  0  0  0  0  0  0  0  0  0  0
  -29.1300  -31.8028   15.9367 H   0  0  0  0  0  0  0  0  0  0  0  0
  -30.5664  -31.5169   17.0024 H   0  0  0  0  0  0  0  0  0  0  0  0
  -29.9255  -33.3054   18.4479 H   0  0  0  0  0  0  0  0  0  0  0  0
  -26.8029  -34.8903   18.5205 H   0  0  0  0  0  0  0  0  0  0  0  0
  -26.8227  -33.0805   15.2962 H   0  0  0  0  0  0  0  0  0  0  0  0
  -21.3320  -33.5250   15.0360 H   0  0  0  0  0  0  0  0  0  0  0  0
  -22.1190  -31.9960   15.0990 H   0  0  0  0  0  0  0  0  0  0  0  0
  -22.2459  -34.2013   19.7430 H   0  0  0  0  0  0  0  0  0  0  0  0
  -26.3117  -32.3969   19.5384 H   0  0  0  0  0  0  0  0  0  0  0  0
  -28.0730  -34.4710   19.9460 H   0  0  0  0  0  0  0  0  0  0  0  0
  -27.8039  -31.1506   18.0039 H   0  0  0  0  0  0  0  0  0  0  0  0
  -33.5730  -26.3683   15.0175 H   0  0  0  0  0  0  0  0  0  0  0  0
  -31.3525  -24.6524   16.1510 H   0  0  0  0  0  0  0  0  0  0  0  0
  -33.0502  -24.2173   15.7092 H   0  0  0  0  0  0  0  0  0  0  0  0
  -26.3520  -26.2960   12.6600 H   0  0  0  0  0  0  0  0  0  0  0  0
  1  2  1  0
  2  3  2  0
  3  4  1  0
  4  5  1  0
  5  6  1  0
  6  7  1  0
  7  8  1  0
  8  9  1  0
  9 10  2  0
  9 11  1  1
  9 12  1  0
 12 13  1  0
 13 14  2  0
 13 15  1  1
 13 16  1  0
 16 17  1  0
 17 18  1  0
 18 19  1  0
 19 20  1  0
 20 21  1  0
 21 22  1  0
 22 23  2  0
 23 24  1  0
 24 25  2  0
 25 26  1  0
 25 27  1  0
 27 28  2  0
 28 29  1  0
 29 30  2  0
 20 31  1  0
 31 32  1  0
 31 33  1  0
 33 34  1  0
 34 35  1  0
 35 36  2  0
 35 37  1  0
 35 38  1  0
  7 39  1  0
 39 40  1  0
 40 41  1  0
 41 42  1  0
 42 43  2  0
 42 44  1  0
 42 45  1  0
 39 46  1  0
  4 47  1  0
 47 48  2  0
 47 49  1  0
 49 50  1  0
 50 51  2  0
 50  2  1  0
 46  5  1  0
 33 18  1  0
 30 21  1  0
 30 24  1  0
  1 52  1  0
  1 53  1  0
  1 54  1  0
  3 55  1  0
  5 56  1  6
  6 57  1  0
  6 58  1  0
  7 59  1  1
 17 60  1  0
 17 61  1  0
 18 62  1  1
 20 63  1  1
 22 64  1  0
 26 65  1  0
 26 66  1  0
 28 67  1  0
 31 68  1  1
 32 69  1  0
 33 70  1  6
 39 71  1  6
 40 72  1  0
 40 73  1  0
 49 74  1  0
M  CHG  6  11  -1  15  -1  37  -1  38  -1  44  -1  45  -1
M  END
>  <meeko>  (2) 
{"is_sidechain": [false], "free_energy": -7.508, "intermolecular_energy": -14.635, "internal_energy": -2.937}

$$$$
1u1b_ligand
     RDKit          3D

 74 78  0  0  0  0  0  0  0  0999 V2000
  -22.4970  -34.1450   14.4400 C   0  0  0  0  0  0  0  0  0  0  0  0
  -22.7050  -33.9840   15.9090 C   0  0  0  0  0  0  0  0  0  0  0  0
  -23.8290  -33.4940   16.4460 C   0  0  0  0  0  0  0  0  0  0  0  0
  -24.0280  -33.3790   17.8140 N   0  0  0  0  0  0  0  0  0  0  0  0
  -25.2770  -32.8150   18.3440 C   0  0  1  0  0  0  0  0  0  0  0  0
  -25.8990  -31.7510   17.4430 C   0  0  0  0  0  0  0  0  0  0  0  0
  -27.3760  -31.9070   17.7420 C   0  0  2  0  0  0  0  0  0  0  0  0
  -27.6340  -31.2600   18.9940 O   0  0  0  0  0  0  0  0  0  0  0  0
  -29.0640  -30.4900   19.2540 P   0  0  2  0  0  5  0  0  0  0  0  0
  -28.8100  -29.6080   20.4590 O   0  0  0  0  0  0  0  0  0  0  0  0
  -30.1100  -31.5840   19.3210 O   0  0  0  0  0  0  0  0  0  0  0  0
  -29.1460  -29.6400   17.9010 O   0  0  0  0  0  0  0  0  0  0  0  0
  -30.3410  -28.9660   17.0660 P   0  0  2  0  0  5  0  0  0  0  0  0
  -30.0230  -27.5610   16.6000 O   0  0  0  0  0  0  0  0  0  0  0  0
  -31.6300  -29.1660   17.8540 O   0  0  0  0  0  0  0  0  0  0  0  0
  -30.4610  -29.9270   15.7470 O   0  0  0  0  0  0  0  0  0  0  0  0
  -29.2360  -30.1780   15.0400 C   0  0  0  0  0  0  0  0  0  0  0  0
  -29.3700  -29.8420   13.5420 C   0  0  1  0  0  0  0  0  0  0  0  0
  -29.8990  -28.4900   13.4060 O   0  0  0  0  0  0  0  0  0  0  0  0
  -29.2530  -27.8600   12.2900 C   0  0  1  0  0  0  0  0  0  0  0  0
  -28.5390  -26.6760   12.7470 N   0  0  0  0  0  0  0  0  0  0  0  0
  -27.1930  -26.4120   12.6630 C   0  0  0  0  0  0  0  0  0  0  0  0
  -26.8910  -25.2120   13.1350 N   0  0  0  0  0  0  0  0  0  0  0  0
  -28.0920  -24.7010   13.5620 C   0  0  0  0  0  0  0  0  0  0  0  0
  -28.4340  -23.4550   14.1180 C   0  0  0  0  0  0  0  0  0  0  0  0
  -27.4910  -22.4360   14.3180 N   0  0  0  0  0  0  0  0  0  0  0  0
  -29.7290  -23.1970   14.4100 N   0  0  0  0  0  0  0  0  0  0  0  0
  -30.6260  -24.1840   14.1750 C   0  0  0  0  0  0  0  0  0  0  0  0
  -30.4160  -25.4180   13.6860 N   0  0  0  0  0  0  0  0  0  0  0  0
  -29.1240  -25.6000   13.3660 C   0  0  0  0  0  0  0  0  0  0  0  0
  -28.3670  -28.8980   11.6080 C   0  0  2  0  0  0  0  0  0  0  0  0
  -29.1230  -29.5420   10.5580 O   0  0  0  0  0  0  0  0  0  0  0  0
  -28.0410  -29.8490   12.7570 C   0  0  2  0  0  0  0  0  0  0  0  0
  -27.5910  -31.1340   12.3510 O   0  0  0  0  0  0  0  0  0  0  0  0
  -26.0130  -31.5090   12.6210 P   0  0  0  0  0  0  0  0  0  0  0  0
  -25.6980  -32.4920   11.4970 O   0  0  0  0  0  0  0  0  0  0  0  0
  -25.2700  -30.1890   12.4930 O   0  0  0  0  0  0  0  0  0  0  0  0
  -25.9790  -32.1320   14.0070 O   0  0  0  0  0  0  0  0  0  0  0  0
  -27.4940  -33.4390   17.9050 C   0  0  1  0  0  0  0  0  0  0  0  0
  -27.6650  -34.1990   16.5610 C   0  0  0  0  0  0  0  0  0  0  0  0
  -26.8910  -35.4010   16.5510 O   0  0  0  0  0  0  0  0  0  0  0  0
  -26.9050  -36.3070   15.1790 P   0  0  0  0  0  0  0  0  0  0  0  0
  -28.3860  -36.5310   14.8890 O   0  0  0  0  0  0  0  0  0  0  0  0
  -26.1980  -35.4510   14.1380 O   0  0  0  0  0  0  0  0  0  0  0  0
  -26.1620  -37.5860   15.5410 O   0  0  0  0  0  0  0  0  0  0  0  0
  -26.2500  -33.8510   18.5470 O   0  0  0  0  0  0  0  0  0  0  0  0
  -23.0410  -33.7390   18.7090 C   0  0  0  0  0  0  0  0  0  0  0  0
  -23.1290  -33.7200   19.9350 O   0  0  0  0  0  0  0  0  0  0  0  0
  -21.8670  -34.1850   18.1550 N   0  0  0  0  0  0  0  0  0  0  0  0
  -21.6290  -34.4010   16.8290 C   0  0  0  0  0  0  0  0  0  0  0  0
  -20.5850  -34.9260   16.4430 O   0  0  0  0  0  0  0  0  0  0  0  0
  -21.6386  -34.8094   14.2619 H   0  0  0  0  0  0  0  0  0  0  0  0
  -23.3993  -34.5824   13.9877 H   0  0  0  0  0  0  0  0  0  0  0  0
  -22.2998  -33.1619   13.9877 H   0  0  0  0  0  0  0  0  0  0  0  0
  -24.6331  -33.1670   15.7704 H   0  0  0  0  0  0  0  0  0  0  0  0
  -25.0009  -32.3353   19.2946 H   0  0  0  0  0  0  0  0  0  0  0  0
  -25.5420  -30.7448   17.7079 H   0  0  0  0  0  0  0  0  0  0  0  0
  -25.6476  -31.8698   16.3787 H   0  0  0  0  0  0  0  0  0  0  0  0
  -28.0642  -31.4885   16.9929 H   0  0  0  0  0  0  0  0  0  0  0  0
  -28.4384  -29.5582   15.4755 H   0  0  0  0  0  0  0  0  0  0  0  0
  -28.9960  -31.2474   15.1339 H   0  0  0  0  0  0  0  0  0  0  0  0
  -30.0216  -30.6266   13.1298 H   0  0  0  0  0  0  0  0  0  0  0  0
  -29.9751  -27.5038   11.5406 H   0  0  0  0  0  0  0  0  0  0  0  0
  -26.4533  -27.1148   12.2520 H   0  0  0  0  0  0  0  0  0  0  0  0
  -26.6930  -22.6240   13.7090 H   0  0  0  0  0  0  0  0  0  0  0  0
  -27.9520  -21.5480   14.1760 H   0  0  0  0  0  0  0  0  0  0  0  0
  -31.6712  -23.9421   14.4180 H   0  0  0  0  0  0  0  0  0  0  0  0
  -27.4605  -28.5028   11.1263 H   0  0  0  0  0  0  0  0  0  0  0  0
  -28.7870  -30.4910   10.6170 H   0  0  0  0  0  0  0  0  0  0  0  0
  -27.1774  -29.5333   13.3608 H   0  0  0  0  0  0  0  0  0  0  0  0
  -28.3945  -33.6808   18.4887 H   0  0  0  0  0  0  0  0  0  0  0  0
  -28.7264  -34.4533   16.4239 H   0  0  0  0  0  0  0  0  0  0  0  0
  -27.3160  -33.5502   15.7442 H   0  0  0  0  0  0  0  0  0  0  0  0
  -21.1620  -34.4640   18.8120 H   0  0  0  0  0  0  0  0  0  0  0  0
  1  2  1  0
  2  3  2  0
  3  4  1  0
  4  5  1  0
  5  6  1  0
  6  7  1  0
  7  8  1  0
  8  9  1  0
  9 10  2  0
  9 11  1  1
  9 12  1  0
 12 13  1  0
 13 14  2  0
 13 15  1  1
 13 16  1  0
 16 17  1  0
 17 18  1  0
 18 19  1  0
 19 20  1  0
 20 21  1  0
 21 22  1  0
 22 23  2  0
 23 24  1  0
 24 25  2  0
 25 26  1  0
 25 27  1  0
 27 28  2  0
 28 29  1  0
 29 30  2  0
 20 31  1  0
 31 32  1  0
 31 33  1  0
 33 34  1  0
 34 35  1  0
 35 36  2  0
 35 37  1  0
 35 38  1  0
  7 39  1  0
 39 40  1  0
 40 41  1  0
 41 42  1  0
 42 43  2  0
 42 44  1  0
 42 45  1  0
 39 46  1  0
  4 47  1  0
 47 48  2  0
 47 49  1  0
 49 50  1  0
 50 51  2  0
 50  2  1  0
 46  5  1  0
 33 18  1  0
 30 21  1  0
 30 24  1  0
  1 52  1  0
  1 53  1  0
  1 54  1  0
  3 55  1  0
  5 56  1  1
  6 57  1  0
  6 58  1  0
  7 59  1  6
 17 60  1  0
 17 61  1  0
 18 62  1  6
 20 63  1  6
 22 64  1  0
 26 65  1  0
 26 66  1  0
 28 67  1  0
 31 68  1  6
 32 69  1  0
 33 70  1  1
 39 71  1  1
 40 72  1  0
 40 73  1  0
 49 74  1  0
M  CHG  6  11  -1  15  -1  37  -1  38  -1  44  -1  45  -1
M  END
>  <meeko>  (3) 
{"is_sidechain": [false], "free_energy": -7.436, "intermolecular_energy": -14.169, "internal_energy": -3.268}

$$$$
1u1b_ligand
     RDKit          3D

 74 78  0  0  0  0  0  0  0  0999 V2000
  -26.7210  -24.3930   13.2800 C   0  0  0  0  0  0  0  0  0  0  0  0
  -27.8490  -25.0340   14.0170 C   0  0  0  0  0  0  0  0  0  0  0  0
  -28.2660  -26.2850   13.7850 C   0  0  0  0  0  0  0  0  0  0  0  0
  -29.2920  -26.8860   14.4980 N   0  0  0  0  0  0  0  0  0  0  0  0
  -29.7200  -28.2570   14.1830 C   0  0  1  0  0  0  0  0  0  0  0  0
  -30.5760  -28.3570   12.9240 C   0  0  0  0  0  0  0  0  0  0  0  0
  -30.2370  -29.7450   12.4200 C   0  0  2  0  0  0  0  0  0  0  0  0
  -30.9690  -30.6850   13.2150 O   0  0  0  0  0  0  0  0  0  0  0  0
  -31.9120  -31.8260   12.4970 P   0  0  2  0  0  5  0  0  0  0  0  0
  -31.1590  -32.2090   11.2400 O   0  0  0  0  0  0  0  0  0  0  0  0
  -33.2920  -31.2090   12.3960 O   0  0  0  0  0  0  0  0  0  0  0  0
  -31.8250  -32.9680   13.6140 O   0  0  0  0  0  0  0  0  0  0  0  0
  -30.6220  -33.7000   14.3850 P   0  0  2  0  0  5  0  0  0  0  0  0
  -29.2570  -33.1730   13.9950 O   0  0  0  0  0  0  0  0  0  0  0  0
  -30.8470  -35.2030   14.2780 O   0  0  0  0  0  0  0  0  0  0  0  0
  -30.8920  -33.3100   15.9510 O   0  0  0  0  0  0  0  0  0  0  0  0
  -30.0080  -32.3290   16.5150 C   0  0  0  0  0  0  0  0  0  0  0  0
  -29.2460  -32.8890   17.7320 C   0  0  1  0  0  0  0  0  0  0  0  0
  -28.2780  -33.8760   17.2710 O   0  0  0  0  0  0  0  0  0  0  0  0
  -27.0870  -33.7480   18.0610 C   0  0  1  0  0  0  0  0  0  0  0  0
  -25.9630  -33.4180   17.1970 N   0  0  0  0  0  0  0  0  0  0  0  0
  -25.9950  -32.8920   15.9270 C   0  0  0  0  0  0  0  0  0  0  0  0
  -24.7800  -32.6690   15.4510 N   0  0  0  0  0  0  0  0  0  0  0  0
  -23.9370  -33.0960   16.4490 C   0  0  0  0  0  0  0  0  0  0  0  0
  -22.5360  -33.0830   16.5590 C   0  0  0  0  0  0  0  0  0  0  0  0
  -21.7070  -32.5530   15.5600 N   0  0  0  0  0  0  0  0  0  0  0  0
  -21.9610  -33.5340   17.6980 N   0  0  0  0  0  0  0  0  0  0  0  0
  -22.7840  -34.0090   18.6620 C   0  0  0  0  0  0  0  0  0  0  0  0
  -24.1240  -34.1060   18.6570 N   0  0  0  0  0  0  0  0  0  0  0  0
  -24.6440  -33.5960   17.5270 C   0  0  0  0  0  0  0  0  0  0  0  0
  -27.3540  -32.7200   19.1570 C   0  0  2  0  0  0  0  0  0  0  0  0
  -27.8310  -33.4050   20.3370 O   0  0  0  0  0  0  0  0  0  0  0  0
  -28.4290  -31.8420   18.5200 C   0  0  2  0  0  0  0  0  0  0  0  0
  -29.1810  -31.0660   19.4420 O   0  0  0  0  0  0  0  0  0  0  0  0
  -28.9290  -29.4400   19.4520 P   0  0  0  0  0  0  0  0  0  0  0  0
  -29.7800  -28.9700   20.6290 O   0  0  0  0  0  0  0  0  0  0  0  0
  -27.4350  -29.2770   19.6860 O   0  0  0  0  0  0  0  0  0  0  0  0
  -29.4240  -28.9480   18.1030 O   0  0  0  0  0  0  0  0  0  0  0  0
  -28.7310  -29.8320   12.7550 C   0  0  1  0  0  0  0  0  0  0  0  0
  -27.8130  -29.1920   11.6760 C   0  0  0  0  0  0  0  0  0  0  0  0
  -26.5100  -28.9290   12.2030 O   0  0  0  0  0  0  0  0  0  0  0  0
  -25.2360  -29.6970   11.5050 P   0  0  0  0  0  0  0  0  0  0  0  0
  -24.8250  -28.7810   10.3560 O   0  0  0  0  0  0  0  0  0  0  0  0
  -24.1920  -29.8060   12.6080 O   0  0  0  0  0  0  0  0  0  0  0  0
  -25.7890  -31.0380   11.0380 O   0  0  0  0  0  0  0  0  0  0  0  0
  -28.5790  -29.1120   14.0160 O   0  0  0  0  0  0  0  0  0  0  0  0
  -29.9750  -26.1970   15.4800 C   0  0  0  0  0  0  0  0  0  0  0  0
  -30.8650  -26.6470   16.1980 O   0  0  0  0  0  0  0  0  0  0  0  0
  -29.5860  -24.8960   15.6760 N   0  0  0  0  0  0  0  0  0  0  0  0
  -28.5360  -24.2660   15.0730 C   0  0  0  0  0  0  0  0  0  0  0  0
  -28.1880  -23.1350   15.4120 O   0  0  0  0  0  0  0  0  0  0  0  0
  -25.9985  -23.9824   14.0006 H   0  0  0  0  0  0  0  0  0  0  0  0
  -26.2228  -25.1429   12.6480 H   0  0  0  0  0  0  0  0  0  0  0  0
  -27.1102  -23.5812   12.6480 H   0  0  0  0  0  0  0  0  0  0  0  0
  -27.7711  -26.8634   12.9910 H   0  0  0  0  0  0  0  0  0  0  0  0
  -30.3361  -28.5755   15.0368 H   0  0  0  0  0  0  0  0  0  0  0  0
  -31.6465  -28.2685   13.1608 H   0  0  0  0  0  0  0  0  0  0  0  0
  -30.3810  -27.5600   12.1914 H   0  0  0  0  0  0  0  0  0  0  0  0
  -30.4667  -29.9399   11.3621 H   0  0  0  0  0  0  0  0  0  0  0  0
  -29.2812  -32.0204   15.7492 H   0  0  0  0  0  0  0  0  0  0  0  0
  -30.6114  -31.4724   16.8498 H   0  0  0  0  0  0  0  0  0  0  0  0
  -30.0242  -33.2944   18.3953 H   0  0  0  0  0  0  0  0  0  0  0  0
  -26.8161  -34.6919   18.5567 H   0  0  0  0  0  0  0  0  0  0  0  0
  -26.9210  -32.6813   15.3719 H   0  0  0  0  0  0  0  0  0  0  0  0
  -21.7340  -33.1880   14.7620 H   0  0  0  0  0  0  0  0  0  0  0  0
  -22.0030  -31.6040   15.3760 H   0  0  0  0  0  0  0  0  0  0  0  0
  -22.2867  -34.3650   19.5763 H   0  0  0  0  0  0  0  0  0  0  0  0
  -26.4795  -32.1371   19.4816 H   0  0  0  0  0  0  0  0  0  0  0  0
  -27.8890  -32.6490   21.0020 H   0  0  0  0  0  0  0  0  0  0  0  0
  -28.0255  -31.0377   17.8873 H   0  0  0  0  0  0  0  0  0  0  0  0
  -28.4237  -30.8869   12.8068 H   0  0  0  0  0  0  0  0  0  0  0  0
  -27.7240  -29.8821   10.8240 H   0  0  0  0  0  0  0  0  0  0  0  0
  -28.2603  -28.2396   11.3551 H   0  0  0  0  0  0  0  0  0  0  0  0
  -30.0720  -24.4080   16.4050 H   0  0  0  0  0  0  0  0  0  0  0  0
  1  2  1  0
  2  3  2  0
  3  4  1  0
  4  5  1  0
  5  6  1  0
  6  7  1  0
  7  8  1  0
  8  9  1  0
  9 10  2  0
  9 11  1  6
  9 12  1  0
 12 13  1  0
 13 14  2  0
 13 15  1  1
 13 16  1  0
 16 17  1  0
 17 18  1  0
 18 19  1  0
 19 20  1  0
 20 21  1  0
 21 22  1  0
 22 23  2  0
 23 24  1  0
 24 25  2  0
 25 26  1  0
 25 27  1  0
 27 28  2  0
 28 29  1  0
 29 30  2  0
 20 31  1  0
 31 32  1  0
 31 33  1  0
 33 34  1  0
 34 35  1  0
 35 36  2  0
 35 37  1  0
 35 38  1  0
  7 39  1  0
 39 40  1  0
 40 41  1  0
 41 42  1  0
 42 43  2  0
 42 44  1  0
 42 45  1  0
 39 46  1  0
  4 47  1  0
 47 48  2  0
 47 49  1  0
 49 50  1  0
 50 51  2  0
 50  2  1  0
 46  5  1  0
 33 18  1  0
 30 21  1  0
 30 24  1  0
  1 52  1  0
  1 53  1  0
  1 54  1  0
  3 55  1  0
  5 56  1  1
  6 57  1  0
  6 58  1  0
  7 59  1  6
 17 60  1  0
 17 61  1  0
 18 62  1  1
 20 63  1  1
 22 64  1  0
 26 65  1  0
 26 66  1  0
 28 67  1  0
 31 68  1  1
 32 69  1  0
 33 70  1  6
 39 71  1  1
 40 72  1  0
 40 73  1  0
 49 74  1  0
M  CHG  6  11  -1  15  -1  37  -1  38  -1  44  -1  45  -1
M  END
>  <meeko>  (4) 
{"is_sidechain": [false], "free_energy": -7.375, "intermolecular_energy": -13.825, "internal_energy": -3.498}

$$$$
1u1b_ligand
     RDKit          3D

 74 78  0  0  0  0  0  0  0  0999 V2000
  -28.2140  -23.6100   15.0190 C   0  0  0  0  0  0  0  0  0  0  0  0
  -28.1160  -24.9240   14.3180 C   0  0  0  0  0  0  0  0  0  0  0  0
  -28.9600  -25.9410   14.5360 C   0  0  0  0  0  0  0  0  0  0  0  0
  -28.8830  -27.1460   13.8560 N   0  0  0  0  0  0  0  0  0  0  0  0
  -29.8260  -28.2340   14.1540 C   0  0  1  0  0  0  0  0  0  0  0  0
  -29.6790  -28.8050   15.5620 C   0  0  0  0  0  0  0  0  0  0  0  0
  -31.0920  -29.2570   15.8690 C   0  0  2  0  0  0  0  0  0  0  0  0
  -31.3050  -30.5000   15.1910 O   0  0  0  0  0  0  0  0  0  0  0  0
  -30.5130  -31.8580   15.6710 P   0  0  2  0  0  5  0  0  0  0  0  0
  -29.4350  -32.0620   14.6260 O   0  0  0  0  0  0  0  0  0  0  0  0
  -31.5870  -32.9090   15.8680 O   0  0  0  0  0  0  0  0  0  0  0  0
  -29.9070  -31.3260   17.0530 O   0  0  0  0  0  0  0  0  0  0  0  0
  -29.7200  -31.9580   18.5170 P   0  0  2  0  0  5  0  0  0  0  0  0
  -31.0330  -32.2780   19.2000 O   0  0  0  0  0  0  0  0  0  0  0  0
  -28.7310  -31.0840   19.2780 O   0  0  0  0  0  0  0  0  0  0  0  0
  -28.9440  -33.3670   18.2170 O   0  0  0  0  0  0  0  0  0  0  0  0
  -27.5180  -33.3480   18.3920 C   0  0  0  0  0  0  0  0  0  0  0  0
  -26.8000  -32.8380   17.1270 C   0  0  1  0  0  0  0  0  0  0  0  0
  -25.5320  -32.2340   17.5140 O   0  0  0  0  0  0  0  0  0  0  0  0
  -24.5510  -32.5600   16.5180 C   0  0  1  0  0  0  0  0  0  0  0  0
  -23.4660  -33.3130   17.1320 N   0  0  0  0  0  0  0  0  0  0  0  0
  -23.4390  -33.9050   18.3710 C   0  0  0  0  0  0  0  0  0  0  0  0
  -22.3050  -34.5530   18.5880 N   0  0  0  0  0  0  0  0  0  0  0  0
  -21.5670  -34.3420   17.4490 C   0  0  0  0  0  0  0  0  0  0  0  0
  -20.2980  -34.8030   17.0570 C   0  0  0  0  0  0  0  0  0  0  0  0
  -19.5270  -35.6590   17.8590 N   0  0  0  0  0  0  0  0  0  0  0  0
  -19.8240  -34.4700   15.8350 N   0  0  0  0  0  0  0  0  0  0  0  0
  -20.6010  -33.6720   15.0650 C   0  0  0  0  0  0  0  0  0  0  0  0
  -21.8050  -33.1420   15.3430 N   0  0  0  0  0  0  0  0  0  0  0  0
  -22.2480  -33.5480   16.5450 C   0  0  0  0  0  0  0  0  0  0  0  0
  -25.2560  -33.2970   15.3830 C   0  0  2  0  0  0  0  0  0  0  0  0
  -25.6680  -32.3370   14.3850 O   0  0  0  0  0  0  0  0  0  0  0  0
  -26.4430  -33.9350   16.1020 C   0  0  2  0  0  0  0  0  0  0  0  0
  -27.5090  -34.3270   15.2480 O   0  0  0  0  0  0  0  0  0  0  0  0
  -27.8530  -35.9320   15.1460 P   0  0  0  0  0  0  0  0  0  0  0  0
  -29.1580  -36.0530   15.9270 O   0  0  0  0  0  0  0  0  0  0  0  0
  -28.0140  -36.2030   13.6580 O   0  0  0  0  0  0  0  0  0  0  0  0
  -26.6780  -36.6380   15.8020 O   0  0  0  0  0  0  0  0  0  0  0  0
  -31.9230  -28.1400   15.2000 C   0  0  1  0  0  0  0  0  0  0  0  0
  -32.1100  -26.8810   16.0900 C   0  0  0  0  0  0  0  0  0  0  0  0
  -32.4720  -27.2460   17.4240 O   0  0  0  0  0  0  0  0  0  0  0  0
  -31.4520  -26.8110   18.6380 P   0  0  0  0  0  0  0  0  0  0  0  0
  -30.4390  -25.8890   17.9680 O   0  0  0  0  0  0  0  0  0  0  0  0
  -32.3370  -26.1120   19.6610 O   0  0  0  0  0  0  0  0  0  0  0  0
  -30.8430  -28.1180   19.1310 O   0  0  0  0  0  0  0  0  0  0  0  0
  -31.1800  -27.7830   13.9950 O   0  0  0  0  0  0  0  0  0  0  0  0
  -27.8910  -27.3780   12.9250 C   0  0  0  0  0  0  0  0  0  0  0  0
  -27.7600  -28.3880   12.2380 O   0  0  0  0  0  0  0  0  0  0  0  0
  -26.9910  -26.3570   12.7470 N   0  0  0  0  0  0  0  0  0  0  0  0
  -27.0500  -25.1180   13.3170 C   0  0  0  0  0  0  0  0  0  0  0  0
  -26.2670  -24.2260   12.9920 O   0  0  0  0  0  0  0  0  0  0  0  0
  -28.2018  -23.7729   16.1068 H   0  0  0  0  0  0  0  0  0  0  0  0
  -27.3605  -22.9775   14.7334 H   0  0  0  0  0  0  0  0  0  0  0  0
  -29.1518  -23.1111   14.7334 H   0  0  0  0  0  0  0  0  0  0  0  0
  -29.7510  -25.8138   15.2898 H   0  0  0  0  0  0  0  0  0  0  0  0
  -29.5847  -29.0335   13.4380 H   0  0  0  0  0  0  0  0  0  0  0  0
  -28.9764  -29.6512   15.5786 H   0  0  0  0  0  0  0  0  0  0  0  0
  -29.2751  -28.0873   16.2912 H   0  0  0  0  0  0  0  0  0  0  0  0
  -31.3279  -29.4042   16.9333 H   0  0  0  0  0  0  0  0  0  0  0  0
  -27.2702  -32.6861   19.2349 H   0  0  0  0  0  0  0  0  0  0  0  0
  -27.1809  -34.3764   18.5891 H   0  0  0  0  0  0  0  0  0  0  0  0
  -27.5081  -32.1397   16.6569 H   0  0  0  0  0  0  0  0  0  0  0  0
  -24.0856  -31.6617   16.0861 H   0  0  0  0  0  0  0  0  0  0  0  0
  -24.2628  -33.8475   19.0977 H   0  0  0  0  0  0  0  0  0  0  0  0
  -18.5500  -35.3810   17.7630 H   0  0  0  0  0  0  0  0  0  0  0  0
  -19.9010  -35.6320   18.7980 H   0  0  0  0  0  0  0  0  0  0  0  0
  -20.1905  -33.4229   14.0753 H   0  0  0  0  0  0  0  0  0  0  0  0
  -24.6448  -34.0400   14.8497 H   0  0  0  0  0  0  0  0  0  0  0  0
  -26.0100  -32.9390   13.6510 H   0  0  0  0  0  0  0  0  0  0  0  0
  -26.2105  -34.9051   16.5656 H   0  0  0  0  0  0  0  0  0  0  0  0
  -32.9415  -28.5049   15.0012 H   0  0  0  0  0  0  0  0  0  0  0  0
  -31.1671  -26.3150   16.1152 H   0  0  0  0  0  0  0  0  0  0  0  0
  -32.9168  -26.2669   15.6634 H   0  0  0  0  0  0  0  0  0  0  0  0
  -26.2850  -26.5240   12.0540 H   0  0  0  0  0  0  0  0  0  0  0  0
  1  2  1  0
  2  3  2  0
  3  4  1  0
  4  5  1  0
  5  6  1  0
  6  7  1  0
  7  8  1  0
  8  9  1  0
  9 10  2  0
  9 11  1  1
  9 12  1  0
 12 13  1  0
 13 14  2  0
 13 15  1  1
 13 16  1  0
 16 17  1  0
 17 18  1  0
 18 19  1  0
 19 20  1  0
 20 21  1  0
 21 22  1  0
 22 23  2  0
 23 24  1  0
 24 25  2  0
 25 26  1  0
 25 27  1  0
 27 28  2  0
 28 29  1  0
 29 30  2  0
 20 31  1  0
 31 32  1  0
 31 33  1  0
 33 34  1  0
 34 35  1  0
 35 36  2  0
 35 37  1  0
 35 38  1  0
  7 39  1  0
 39 40  1  0
 40 41  1  0
 41 42  1  0
 42 43  2  0
 42 44  1  0
 42 45  1  0
 39 46  1  0
  4 47  1  0
 47 48  2  0
 47 49  1  0
 49 50  1  0
 50 51  2  0
 50  2  1  0
 46  5  1  0
 33 18  1  0
 30 21  1  0
 30 24  1  0
  1 52  1  0
  1 53  1  0
  1 54  1  0
  3 55  1  0
  5 56  1  6
  6 57  1  0
  6 58  1  0
  7 59  1  1
 17 60  1  0
 17 61  1  0
 18 62  1  6
 20 63  1  6
 22 64  1  0
 26 65  1  0
 26 66  1  0
 28 67  1  0
 31 68  1  6
 32 69  1  0
 33 70  1  1
 39 71  1  6
 40 72  1  0
 40 73  1  0
 49 74  1  0
M  CHG  6  11  -1  15  -1  37  -1  38  -1  44  -1  45  -1
M  END
>  <meeko>  (5) 
{"is_sidechain": [false], "free_energy": -7.357, "intermolecular_energy": -14.469, "internal_energy": -2.819}

$$$$
1u1b_ligand
     RDKit          3D

 74 78  0  0  0  0  0  0  0  0999 V2000
  -30.5630  -23.6100   17.0250 C   0  0  0  0  0  0  0  0  0  0  0  0
  -29.6710  -24.1140   15.9400 C   0  0  0  0  0  0  0  0  0  0  0  0
  -29.8810  -25.2640   15.2870 C   0  0  0  0  0  0  0  0  0  0  0  0
  -29.0680  -25.7090   14.2560 N   0  0  0  0  0  0  0  0  0  0  0  0
  -29.3380  -26.9910   13.5890 C   0  0  1  0  0  0  0  0  0  0  0  0
  -29.3330  -28.1870   14.5370 C   0  0  0  0  0  0  0  0  0  0  0  0
  -30.3150  -29.1260   13.8670 C   0  0  2  0  0  0  0  0  0  0  0  0
  -29.6350  -29.7560   12.7750 O   0  0  0  0  0  0  0  0  0  0  0  0
  -28.8460  -31.1810   12.9960 P   0  0  2  0  0  5  0  0  0  0  0  0
  -27.4580  -30.7840   13.4550 O   0  0  0  0  0  0  0  0  0  0  0  0
  -29.0260  -31.9510   11.7030 O   0  0  0  0  0  0  0  0  0  0  0  0
  -29.7230  -31.7760   14.1950 O   0  0  0  0  0  0  0  0  0  0  0  0
  -30.7220  -33.0230   14.3480 P   0  0  2  0  0  5  0  0  0  0  0  0
  -30.1870  -34.2940   13.7220 O   0  0  0  0  0  0  0  0  0  0  0  0
  -32.1100  -32.5630   13.9190 O   0  0  0  0  0  0  0  0  0  0  0  0
  -30.7960  -33.2440   15.9680 O   0  0  0  0  0  0  0  0  0  0  0  0
  -30.1980  -32.2120   16.7700 C   0  0  0  0  0  0  0  0  0  0  0  0
  -29.3910  -32.8050   17.9410 C   0  0  1  0  0  0  0  0  0  0  0  0
  -28.4720  -33.8100   17.4210 O   0  0  0  0  0  0  0  0  0  0  0  0
  -27.2400  -33.7200   18.1510 C   0  0  1  0  0  0  0  0  0  0  0  0
  -26.1530  -33.4060   17.2350 N   0  0  0  0  0  0  0  0  0  0  0  0
  -26.2370  -32.9050   15.9580 C   0  0  0  0  0  0  0  0  0  0  0  0
  -25.0430  -32.6920   15.4280 N   0  0  0  0  0  0  0  0  0  0  0  0
  -24.1600  -33.1000   16.3980 C   0  0  0  0  0  0  0  0  0  0  0  0
  -22.7550  -33.0840   16.4500 C   0  0  0  0  0  0  0  0  0  0  0  0
  -21.9680  -32.5730   15.4070 N   0  0  0  0  0  0  0  0  0  0  0  0
  -22.1330  -33.5140   17.5720 N   0  0  0  0  0  0  0  0  0  0  0  0
  -22.9150  -33.9690   18.5790 C   0  0  0  0  0  0  0  0  0  0  0  0
  -24.2540  -34.0670   18.6310 N   0  0  0  0  0  0  0  0  0  0  0  0
  -24.8200  -33.5790   17.5140 C   0  0  0  0  0  0  0  0  0  0  0  0
  -27.4260  -32.6990   19.2700 C   0  0  2  0  0  0  0  0  0  0  0  0
  -27.8590  -33.3860   20.4650 O   0  0  0  0  0  0  0  0  0  0  0  0
  -28.5100  -31.7880   18.6970 C   0  0  2  0  0  0  0  0  0  0  0  0
  -29.1950  -31.0040   19.6650 O   0  0  0  0  0  0  0  0  0  0  0  0
  -28.9750  -29.3750   19.6200 P   0  0  0  0  0  0  0  0  0  0  0  0
  -27.4610  -29.2310   19.7500 O   0  0  0  0  0  0  0  0  0  0  0  0
  -29.5060  -28.9460   18.2610 O   0  0  0  0  0  0  0  0  0  0  0  0
  -29.7460  -28.8320   20.8110 O   0  0  0  0  0  0  0  0  0  0  0  0
  -31.3690  -28.1330   13.3310 C   0  0  1  0  0  0  0  0  0  0  0  0
  -32.4400  -27.7290   14.3830 C   0  0  0  0  0  0  0  0  0  0  0  0
  -32.6270  -28.7680   15.3480 O   0  0  0  0  0  0  0  0  0  0  0  0
  -33.0300  -28.3240   16.8780 P   0  0  0  0  0  0  0  0  0  0  0  0
  -32.7490  -29.5660   17.7180 O   0  0  0  0  0  0  0  0  0  0  0  0
  -32.1200  -27.1470   17.1980 O   0  0  0  0  0  0  0  0  0  0  0  0
  -34.5100  -27.9660   16.8090 O   0  0  0  0  0  0  0  0  0  0  0  0
  -30.6110  -26.9540   12.9260 O   0  0  0  0  0  0  0  0  0  0  0  0
  -27.9550  -24.9910   13.8670 C   0  0  0  0  0  0  0  0  0  0  0  0
  -27.1960  -25.2710   12.9410 O   0  0  0  0  0  0  0  0  0  0  0  0
  -27.7070  -23.8430   14.5770 N   0  0  0  0  0  0  0  0  0  0  0  0
  -28.5040  -23.3030   15.5440 C   0  0  0  0  0  0  0  0  0  0  0  0
  -28.2600  -22.1990   16.0320 O   0  0  0  0  0  0  0  0  0  0  0  0
  -30.1257  -23.8571   18.0036 H   0  0  0  0  0  0  0  0  0  0  0  0
  -30.6686  -22.5187   16.9356 H   0  0  0  0  0  0  0  0  0  0  0  0
  -31.5522  -24.0827   16.9356 H   0  0  0  0  0  0  0  0  0  0  0  0
  -30.7394  -25.8851   15.5827 H   0  0  0  0  0  0  0  0  0  0  0  0
  -28.5168  -27.1249   12.8695 H   0  0  0  0  0  0  0  0  0  0  0  0
  -28.3321  -28.6382   14.6055 H   0  0  0  0  0  0  0  0  0  0  0  0
  -29.6004  -27.9321   15.5731 H   0  0  0  0  0  0  0  0  0  0  0  0
  -30.7372  -29.9151   14.5066 H   0  0  0  0  0  0  0  0  0  0  0  0
  -29.5249  -31.6133   16.1387 H   0  0  0  0  0  0  0  0  0  0  0  0
  -31.0025  -31.5875   17.1858 H   0  0  0  0  0  0  0  0  0  0  0  0
  -30.1448  -33.1993   18.6384 H   0  0  0  0  0  0  0  0  0  0  0  0
  -26.9680  -34.6762   18.6219 H   0  0  0  0  0  0  0  0  0  0  0  0
  -27.1851  -32.7046   15.4375 H   0  0  0  0  0  0  0  0  0  0  0  0
  -22.4880  -32.6920   14.5360 H   0  0  0  0  0  0  0  0  0  0  0  0
  -21.7140  -31.6240   15.6410 H   0  0  0  0  0  0  0  0  0  0  0  0
  -22.3800  -34.3051   19.4795 H   0  0  0  0  0  0  0  0  0  0  0  0
  -26.5224  -32.1409   19.5564 H   0  0  0  0  0  0  0  0  0  0  0  0
  -28.5870  -32.7730   20.8010 H   0  0  0  0  0  0  0  0  0  0  0  0
  -28.1195  -30.9867   18.0524 H   0  0  0  0  0  0  0  0  0  0  0  0
  -31.9333  -28.6002   12.5105 H   0  0  0  0  0  0  0  0  0  0  0  0
  -32.1114  -26.8143   14.8981 H   0  0  0  0  0  0  0  0  0  0  0  0
  -33.3943  -27.5567   13.8637 H   0  0  0  0  0  0  0  0  0  0  0  0
  -26.9090  -23.3160   14.2750 H   0  0  0  0  0  0  0  0  0  0  0  0
  1  2  1  0
  2  3  2  0
  3  4  1  0
  4  5  1  0
  5  6  1  0
  6  7  1  0
  7  8  1  0
  8  9  1  0
  9 10  2  0
  9 11  1  6
  9 12  1  0
 12 13  1  0
 13 14  2  0
 13 15  1  6
 13 16  1  0
 16 17  1  0
 17 18  1  0
 18 19  1  0
 19 20  1  0
 20 21  1  0
 21 22  1  0
 22 23  2  0
 23 24  1  0
 24 25  2  0
 25 26  1  0
 25 27  1  0
 27 28  2  0
 28 29  1  0
 29 30  2  0
 20 31  1  0
 31 32  1  0
 31 33  1  0
 33 34  1  0
 34 35  1  0
 35 36  2  0
 35 37  1  0
 35 38  1  0
  7 39  1  0
 39 40  1  0
 40 41  1  0
 41 42  1  0
 42 43  2  0
 42 44  1  0
 42 45  1  0
 39 46  1  0
  4 47  1  0
 47 48  2  0
 47 49  1  0
 49 50  1  0
 50 51  2  0
 50  2  1  0
 46  5  1  0
 33 18  1  0
 30 21  1  0
 30 24  1  0
  1 52  1  0
  1 53  1  0
  1 54  1  0
  3 55  1  0
  5 56  1  6
  6 57  1  0
  6 58  1  0
  7 59  1  1
 17 60  1  0
 17 61  1  0
 18 62  1  1
 20 63  1  1
 22 64  1  0
 26 65  1  0
 26 66  1  0
 28 67  1  0
 31 68  1  1
 32 69  1  0
 33 70  1  6
 39 71  1  6
 40 72  1  0
 40 73  1  0
 49 74  1  0
M  CHG  6  11  -1  15  -1  37  -1  38  -1  44  -1  45  -1
M  END
>  <meeko>  (6) 
{"is_sidechain": [false], "free_energy": -7.325, "intermolecular_energy": -13.586, "internal_energy": -3.642}

$$$$
1u1b_ligand
     RDKit          3D

 74 78  0  0  0  0  0  0  0  0999 V2000
  -26.9320  -23.9950   13.3760 C   0  0  0  0  0  0  0  0  0  0  0  0
  -28.0480  -24.0720   14.3640 C   0  0  0  0  0  0  0  0  0  0  0  0
  -28.6570  -25.2160   14.7030 C   0  0  0  0  0  0  0  0  0  0  0  0
  -29.6690  -25.2840   15.6470 N   0  0  0  0  0  0  0  0  0  0  0  0
  -30.3130  -26.5670   15.9630 C   0  0  1  0  0  0  0  0  0  0  0  0
  -31.7480  -26.6740   15.4540 C   0  0  0  0  0  0  0  0  0  0  0  0
  -31.8840  -28.1610   15.2010 C   0  0  2  0  0  0  0  0  0  0  0  0
  -32.0910  -28.7980   16.4660 O   0  0  0  0  0  0  0  0  0  0  0  0
  -33.4500  -29.6830   16.7410 P   0  0  2  0  0  5  0  0  0  0  0  0
  -34.2700  -29.5270   15.4760 O   0  0  0  0  0  0  0  0  0  0  0  0
  -33.9980  -29.1890   18.0640 O   0  0  0  0  0  0  0  0  0  0  0  0
  -32.7920  -31.1370   16.8480 O   0  0  0  0  0  0  0  0  0  0  0  0
  -32.6060  -32.3660   15.8320 P   0  0  2  0  0  5  0  0  0  0  0  0
  -32.3430  -31.9270   14.4070 O   0  0  0  0  0  0  0  0  0  0  0  0
  -33.7570  -33.3390   16.0630 O   0  0  0  0  0  0  0  0  0  0  0  0
  -31.2620  -33.1120   16.3920 O   0  0  0  0  0  0  0  0  0  0  0  0
  -30.1760  -32.2500   16.7700 C   0  0  0  0  0  0  0  0  0  0  0  0
  -29.3690  -32.8390   17.9430 C   0  0  1  0  0  0  0  0  0  0  0  0
  -28.4450  -33.8410   17.4260 O   0  0  0  0  0  0  0  0  0  0  0  0
  -27.2160  -33.7460   18.1590 C   0  0  1  0  0  0  0  0  0  0  0  0
  -26.1270  -33.4280   17.2450 N   0  0  0  0  0  0  0  0  0  0  0  0
  -26.2100  -32.9080   15.9760 C   0  0  0  0  0  0  0  0  0  0  0  0
  -25.0150  -32.6970   15.4470 N   0  0  0  0  0  0  0  0  0  0  0  0
  -24.1330  -33.1260   16.4090 C   0  0  0  0  0  0  0  0  0  0  0  0
  -22.7280  -33.1230   16.4590 C   0  0  0  0  0  0  0  0  0  0  0  0
  -21.9390  -32.6040   15.4220 N   0  0  0  0  0  0  0  0  0  0  0  0
  -22.1080  -33.5730   17.5740 N   0  0  0  0  0  0  0  0  0  0  0  0
  -22.8920  -34.0370   18.5760 C   0  0  0  0  0  0  0  0  0  0  0  0
  -24.2320  -34.1240   18.6290 N   0  0  0  0  0  0  0  0  0  0  0  0
  -24.7960  -33.6150   17.5190 C   0  0  0  0  0  0  0  0  0  0  0  0
  -27.4080  -32.7250   19.2770 C   0  0  2  0  0  0  0  0  0  0  0  0
  -27.8420  -33.4130   20.4720 O   0  0  0  0  0  0  0  0  0  0  0  0
  -28.4940  -31.8180   18.7010 C   0  0  2  0  0  0  0  0  0  0  0  0
  -29.1850  -31.0370   19.6670 O   0  0  0  0  0  0  0  0  0  0  0  0
  -28.9730  -29.4070   19.6210 P   0  0  0  0  0  0  0  0  0  0  0  0
  -27.4570  -29.2560   19.7050 O   0  0  0  0  0  0  0  0  0  0  0  0
  -29.5480  -28.9770   18.2800 O   0  0  0  0  0  0  0  0  0  0  0  0
  -29.7100  -28.8710   20.8360 O   0  0  0  0  0  0  0  0  0  0  0  0
  -30.4800  -28.5080   14.6590 C   0  0  1  0  0  0  0  0  0  0  0  0
  -30.3140  -28.2420   13.1370 C   0  0  0  0  0  0  0  0  0  0  0  0
  -29.8910  -29.4250   12.4530 O   0  0  0  0  0  0  0  0  0  0  0  0
  -28.2760  -29.7050   12.3400 P   0  0  0  0  0  0  0  0  0  0  0  0
  -28.0860  -30.2580   10.9300 O   0  0  0  0  0  0  0  0  0  0  0  0
  -27.6260  -28.3460   12.5590 O   0  0  0  0  0  0  0  0  0  0  0  0
  -27.9720  -30.7230   13.4320 O   0  0  0  0  0  0  0  0  0  0  0  0
  -29.5610  -27.6560   15.4080 O   0  0  0  0  0  0  0  0  0  0  0  0
  -30.1370  -24.1460   16.2730 C   0  0  0  0  0  0  0  0  0  0  0  0
  -30.9950  -24.1000   17.1520 O   0  0  0  0  0  0  0  0  0  0  0  0
  -29.5540  -22.9670   15.8800 N   0  0  0  0  0  0  0  0  0  0  0  0
  -28.5010  -22.8320   15.0220 C   0  0  0  0  0  0  0  0  0  0  0  0
  -27.9650  -21.7400   14.8340 O   0  0  0  0  0  0  0  0  0  0  0  0
  -25.9729  -23.9288   13.9106 H   0  0  0  0  0  0  0  0  0  0  0  0
  -26.9385  -24.8957   12.7446 H   0  0  0  0  0  0  0  0  0  0  0  0
  -27.0621  -23.1037   12.7446 H   0  0  0  0  0  0  0  0  0  0  0  0
  -28.3386  -26.1455   14.2085 H   0  0  0  0  0  0  0  0  0  0  0  0
  -30.3388  -26.6186   17.0615 H   0  0  0  0  0  0  0  0  0  0  0  0
  -32.4673  -26.3304   16.2120 H   0  0  0  0  0  0  0  0  0  0  0  0
  -31.9513  -26.0537   14.5686 H   0  0  0  0  0  0  0  0  0  0  0  0
  -32.7028  -28.4602   14.5301 H   0  0  0  0  0  0  0  0  0  0  0  0
  -29.5072  -32.1182   15.9067 H   0  0  0  0  0  0  0  0  0  0  0  0
  -30.5967  -31.2855   17.0906 H   0  0  0  0  0  0  0  0  0  0  0  0
  -30.1229  -33.2358   18.6389 H   0  0  0  0  0  0  0  0  0  0  0  0
  -26.9423  -34.7011   18.6312 H   0  0  0  0  0  0  0  0  0  0  0  0
  -27.1575  -32.6925   15.4605 H   0  0  0  0  0  0  0  0  0  0  0  0
  -22.5180  -32.5560   14.5830 H   0  0  0  0  0  0  0  0  0  0  0  0
  -21.5450  -31.7270   15.7350 H   0  0  0  0  0  0  0  0  0  0  0  0
  -22.3582  -34.3917   19.4700 H   0  0  0  0  0  0  0  0  0  0  0  0
  -26.5068  -32.1639   19.5650 H   0  0  0  0  0  0  0  0  0  0  0  0
  -26.9630  -33.7070   20.8690 H   0  0  0  0  0  0  0  0  0  0  0  0
  -28.1048  -31.0151   18.0576 H   0  0  0  0  0  0  0  0  0  0  0  0
  -30.2902  -29.5840   14.7859 H   0  0  0  0  0  0  0  0  0  0  0  0
  -31.2779  -27.9119   12.7223 H   0  0  0  0  0  0  0  0  0  0  0  0
  -29.5483  -27.4644   12.9986 H   0  0  0  0  0  0  0  0  0  0  0  0
  -29.8840  -22.1470   16.3540 H   0  0  0  0  0  0  0  0  0  0  0  0
  1  2  1  0
  2  3  2  0
  3  4  1  0
  4  5  1  0
  5  6  1  0
  6  7  1  0
  7  8  1  0
  8  9  1  0
  9 10  2  0
  9 11  1  1
  9 12  1  0
 12 13  1  0
 13 14  2  0
 13 15  1  6
 13 16  1  0
 16 17  1  0
 17 18  1  0
 18 19  1  0
 19 20  1  0
 20 21  1  0
 21 22  1  0
 22 23  2  0
 23 24  1  0
 24 25  2  0
 25 26  1  0
 25 27  1  0
 27 28  2  0
 28 29  1  0
 29 30  2  0
 20 31  1  0
 31 32  1  0
 31 33  1  0
 33 34  1  0
 34 35  1  0
 35 36  2  0
 35 37  1  0
 35 38  1  0
  7 39  1  0
 39 40  1  0
 40 41  1  0
 41 42  1  0
 42 43  2  0
 42 44  1  0
 42 45  1  0
 39 46  1  0
  4 47  1  0
 47 48  2  0
 47 49  1  0
 49 50  1  0
 50 51  2  0
 50  2  1  0
 46  5  1  0
 33 18  1  0
 30 21  1  0
 30 24  1  0
  1 52  1  0
  1 53  1  0
  1 54  1  0
  3 55  1  0
  5 56  1  1
  6 57  1  0
  6 58  1  0
  7 59  1  6
 17 60  1  0
 17 61  1  0
 18 62  1  1
 20 63  1  1
 22 64  1  0
 26 65  1  0
 26 66  1  0
 28 67  1  0
 31 68  1  1
 32 69  1  0
 33 70  1  6
 39 71  1  6
 40 72  1  0
 40 73  1  0
 49 74  1  0
M  CHG  6  11  -1  15  -1  37  -1  38  -1  44  -1  45  -1
M  END
>  <meeko>  (7) 
{"is_sidechain": [false], "free_energy": -7.202, "intermolecular_energy": -13.819, "internal_energy": -3.18}

$$$$
1u1b_ligand
     RDKit          3D

 74 78  0  0  0  0  0  0  0  0999 V2000
  -24.8520  -28.7380   11.0980 C   0  0  0  0  0  0  0  0  0  0  0  0
  -25.8620  -29.6230   11.7490 C   0  0  0  0  0  0  0  0  0  0  0  0
  -27.0540  -29.1890   12.1800 C   0  0  0  0  0  0  0  0  0  0  0  0
  -28.0010  -30.0240   12.7520 N   0  0  0  0  0  0  0  0  0  0  0  0
  -29.2850  -29.4860   13.2250 C   0  0  1  0  0  0  0  0  0  0  0  0
  -29.3410  -29.2750   14.7360 C   0  0  0  0  0  0  0  0  0  0  0  0
  -30.3000  -28.1080   14.8570 C   0  0  2  0  0  0  0  0  0  0  0  0
  -31.6270  -28.6210   14.6950 O   0  0  0  0  0  0  0  0  0  0  0  0
  -32.5930  -28.8590   16.0040 P   0  0  2  0  0  5  0  0  0  0  0  0
  -34.0020  -28.8470   15.4470 O   0  0  0  0  0  0  0  0  0  0  0  0
  -32.1700  -27.8160   17.0180 O   0  0  0  0  0  0  0  0  0  0  0  0
  -32.1240  -30.3350   16.4040 O   0  0  0  0  0  0  0  0  0  0  0  0
  -32.6220  -31.8150   16.0290 P   0  0  2  0  0  5  0  0  0  0  0  0
  -32.6800  -32.0630   14.5360 O   0  0  0  0  0  0  0  0  0  0  0  0
  -33.8850  -32.0980   16.8340 O   0  0  0  0  0  0  0  0  0  0  0  0
  -31.4550  -32.7720   16.6610 O   0  0  0  0  0  0  0  0  0  0  0  0
  -30.1530  -32.1770   16.7830 C   0  0  0  0  0  0  0  0  0  0  0  0
  -29.3600  -32.7910   17.9530 C   0  0  1  0  0  0  0  0  0  0  0  0
  -28.4550  -33.8070   17.4290 O   0  0  0  0  0  0  0  0  0  0  0  0
  -27.2250  -33.7420   18.1660 C   0  0  1  0  0  0  0  0  0  0  0  0
  -26.1290  -33.4390   17.2560 N   0  0  0  0  0  0  0  0  0  0  0  0
  -26.2020  -32.9650   15.9670 C   0  0  0  0  0  0  0  0  0  0  0  0
  -25.0030  -32.7540   15.4470 N   0  0  0  0  0  0  0  0  0  0  0  0
  -24.1290  -33.1340   16.4360 C   0  0  0  0  0  0  0  0  0  0  0  0
  -22.7250  -33.1070   16.5050 C   0  0  0  0  0  0  0  0  0  0  0  0
  -21.9290  -32.6120   15.4600 N   0  0  0  0  0  0  0  0  0  0  0  0
  -22.1130  -33.5080   17.6430 N   0  0  0  0  0  0  0  0  0  0  0  0
  -22.9040  -33.9480   18.6500 C   0  0  0  0  0  0  0  0  0  0  0  0
  -24.2430  -34.0550   18.6880 N   0  0  0  0  0  0  0  0  0  0  0  0
  -24.7990  -33.5950   17.5540 C   0  0  0  0  0  0  0  0  0  0  0  0
  -27.3990  -32.7260   19.2910 C   0  0  2  0  0  0  0  0  0  0  0  0
  -27.8480  -33.4140   20.4790 O   0  0  0  0  0  0  0  0  0  0  0  0
  -28.4660  -31.7930   18.7200 C   0  0  2  0  0  0  0  0  0  0  0  0
  -29.1420  -31.0060   19.6910 O   0  0  0  0  0  0  0  0  0  0  0  0
  -28.9130  -29.3780   19.6450 P   0  0  0  0  0  0  0  0  0  0  0  0
  -29.3680  -29.0080   18.2360 O   0  0  0  0  0  0  0  0  0  0  0  0
  -29.8190  -28.8260   20.7350 O   0  0  0  0  0  0  0  0  0  0  0  0
  -27.4270  -29.1740   19.8830 O   0  0  0  0  0  0  0  0  0  0  0  0
  -29.9070  -27.2610   13.6260 C   0  0  1  0  0  0  0  0  0  0  0  0
  -28.6970  -26.3190   13.8760 C   0  0  0  0  0  0  0  0  0  0  0  0
  -28.9020  -25.5200   15.0430 O   0  0  0  0  0  0  0  0  0  0  0  0
  -28.5780  -23.9120   14.9340 P   0  0  0  0  0  0  0  0  0  0  0  0
  -28.5200  -23.4390   16.3830 O   0  0  0  0  0  0  0  0  0  0  0  0
  -27.2440  -23.8290   14.2060 O   0  0  0  0  0  0  0  0  0  0  0  0
  -29.7490  -23.3250   14.1550 O   0  0  0  0  0  0  0  0  0  0  0  0
  -29.5680  -28.2310   12.5890 O   0  0  0  0  0  0  0  0  0  0  0  0
  -27.7450  -31.3670   12.9430 C   0  0  0  0  0  0  0  0  0  0  0  0
  -28.5270  -32.1990   13.3980 O   0  0  0  0  0  0  0  0  0  0  0  0
  -26.5010  -31.7970   12.5560 N   0  0  0  0  0  0  0  0  0  0  0  0
  -25.5520  -31.0560   11.9140 C   0  0  0  0  0  0  0  0  0  0  0  0
  -24.5160  -31.5690   11.4910 O   0  0  0  0  0  0  0  0  0  0  0  0
  -24.2636  -28.2224   11.8713 H   0  0  0  0  0  0  0  0  0  0  0  0
  -24.1821  -29.3451   10.4714 H   0  0  0  0  0  0  0  0  0  0  0  0
  -25.3659  -27.9941   10.4714 H   0  0  0  0  0  0  0  0  0  0  0  0
  -27.2922  -28.1202   12.0750 H   0  0  0  0  0  0  0  0  0  0  0  0
  -30.0357  -30.2454   12.9610 H   0  0  0  0  0  0  0  0  0  0  0  0
  -29.7299  -30.1666   15.2497 H   0  0  0  0  0  0  0  0  0  0  0  0
  -28.3582  -29.0902   15.1943 H   0  0  0  0  0  0  0  0  0  0  0  0
  -30.2621  -27.5520   15.8054 H   0  0  0  0  0  0  0  0  0  0  0  0
  -29.5961  -32.3406   15.8486 H   0  0  0  0  0  0  0  0  0  0  0  0
  -30.2812  -31.1022   16.9788 H   0  0  0  0  0  0  0  0  0  0  0  0
  -30.1224  -33.1783   18.6449 H   0  0  0  0  0  0  0  0  0  0  0  0
  -26.9711  -34.7054   18.6322 H   0  0  0  0  0  0  0  0  0  0  0  0
  -27.1453  -32.7827   15.4313 H   0  0  0  0  0  0  0  0  0  0  0  0
  -22.4930  -31.9510   14.9240 H   0  0  0  0  0  0  0  0  0  0  0  0
  -21.0790  -32.2400   15.8610 H   0  0  0  0  0  0  0  0  0  0  0  0
  -22.3776  -34.2613   19.5636 H   0  0  0  0  0  0  0  0  0  0  0  0
  -26.4876  -32.1847   19.5848 H   0  0  0  0  0  0  0  0  0  0  0  0
  -27.4920  -32.8160   21.2090 H   0  0  0  0  0  0  0  0  0  0  0  0
  -28.0605  -30.9932   18.0828 H   0  0  0  0  0  0  0  0  0  0  0  0
  -30.7388  -26.5945   13.3542 H   0  0  0  0  0  0  0  0  0  0  0  0
  -27.7900  -26.9266   14.0109 H   0  0  0  0  0  0  0  0  0  0  0  0
  -28.5881  -25.6510   13.0089 H   0  0  0  0  0  0  0  0  0  0  0  0
  -26.3290  -32.7780   12.6780 H   0  0  0  0  0  0  0  0  0  0  0  0
  1  2  1  0
  2  3  2  0
  3  4  1  0
  4  5  1  0
  5  6  1  0
  6  7  1  0
  7  8  1  0
  8  9  1  0
  9 10  2  0
  9 11  1  1
  9 12  1  0
 12 13  1  0
 13 14  2  0
 13 15  1  1
 13 16  1  0
 16 17  1  0
 17 18  1  0
 18 19  1  0
 19 20  1  0
 20 21  1  0
 21 22  1  0
 22 23  2  0
 23 24  1  0
 24 25  2  0
 25 26  1  0
 25 27  1  0
 27 28  2  0
 28 29  1  0
 29 30  2  0
 20 31  1  0
 31 32  1  0
 31 33  1  0
 33 34  1  0
 34 35  1  0
 35 36  2  0
 35 37  1  0
 35 38  1  0
  7 39  1  0
 39 40  1  0
 40 41  1  0
 41 42  1  0
 42 43  2  0
 42 44  1  0
 42 45  1  0
 39 46  1  0
  4 47  1  0
 47 48  2  0
 47 49  1  0
 49 50  1  0
 50 51  2  0
 50  2  1  0
 46  5  1  0
 33 18  1  0
 30 21  1  0
 30 24  1  0
  1 52  1  0
  1 53  1  0
  1 54  1  0
  3 55  1  0
  5 56  1  6
  6 57  1  0
  6 58  1  0
  7 59  1  1
 17 60  1  0
 17 61  1  0
 18 62  1  1
 20 63  1  1
 22 64  1  0
 26 65  1  0
 26 66  1  0
 28 67  1  0
 31 68  1  1
 32 69  1  0
 33 70  1  6
 39 71  1  6
 40 72  1  0
 40 73  1  0
 49 74  1  0
M  CHG  6  11  -1  15  -1  37  -1  38  -1  44  -1  45  -1
M  END
>  <meeko>  (8) 
{"is_sidechain": [false], "free_energy": -7.137, "intermolecular_energy": -13.061, "internal_energy": -3.814}

$$$$
1u1b_ligand
     RDKit          3D

 74 78  0  0  0  0  0  0  0  0999 V2000
  -21.9970  -34.0960   14.2390 C   0  0  0  0  0  0  0  0  0  0  0  0
  -22.2240  -33.9540   15.7070 C   0  0  0  0  0  0  0  0  0  0  0  0
  -23.3970  -33.5900   16.2410 C   0  0  0  0  0  0  0  0  0  0  0  0
  -23.6090  -33.4940   17.6070 N   0  0  0  0  0  0  0  0  0  0  0  0
  -24.9150  -33.0700   18.1340 C   0  0  1  0  0  0  0  0  0  0  0  0
  -25.7230  -32.2210   17.1560 C   0  0  0  0  0  0  0  0  0  0  0  0
  -27.1470  -32.5650   17.5410 C   0  0  2  0  0  0  0  0  0  0  0  0
  -27.4650  -31.8300   18.7270 O   0  0  0  0  0  0  0  0  0  0  0  0
  -28.8790  -30.9990   18.8380 P   0  0  2  0  0  5  0  0  0  0  0  0
  -28.9970  -30.2660   17.5180 O   0  0  0  0  0  0  0  0  0  0  0  0
  -28.7930  -30.2170   20.1340 O   0  0  0  0  0  0  0  0  0  0  0  0
  -29.8950  -32.2320   18.9270 O   0  0  0  0  0  0  0  0  0  0  0  0
  -31.3160  -32.5700   18.2610 P   0  0  2  0  0  5  0  0  0  0  0  0
  -31.8010  -31.4920   17.3140 O   0  0  0  0  0  0  0  0  0  0  0  0
  -32.2630  -32.9970   19.3760 O   0  0  0  0  0  0  0  0  0  0  0  0
  -31.0060  -33.9170   17.3860 O   0  0  0  0  0  0  0  0  0  0  0  0
  -31.3630  -33.8590   15.9960 C   0  0  0  0  0  0  0  0  0  0  0  0
  -32.3710  -34.9640   15.6250 C   0  0  1  0  0  0  0  0  0  0  0  0
  -32.4360  -35.9300   16.7160 O   0  0  0  0  0  0  0  0  0  0  0  0
  -33.7970  -36.3620   16.8580 C   0  0  1  0  0  0  0  0  0  0  0  0
  -34.2760  -36.0260   18.1920 N   0  0  0  0  0  0  0  0  0  0  0  0
  -35.1070  -34.9950   18.5600 C   0  0  0  0  0  0  0  0  0  0  0  0
  -35.3790  -35.0150   19.8560 N   0  0  0  0  0  0  0  0  0  0  0  0
  -34.6700  -36.0880   20.3380 C   0  0  0  0  0  0  0  0  0  0  0  0
  -34.5820  -36.6490   21.6250 C   0  0  0  0  0  0  0  0  0  0  0  0
  -35.3040  -36.1460   22.7170 N   0  0  0  0  0  0  0  0  0  0  0  0
  -33.8280  -37.7570   21.8100 N   0  0  0  0  0  0  0  0  0  0  0  0
  -33.1680  -38.2450   20.7320 C   0  0  0  0  0  0  0  0  0  0  0  0
  -33.1460  -37.7790   19.4720 N   0  0  0  0  0  0  0  0  0  0  0  0
  -33.9510  -36.7110   19.3350 C   0  0  0  0  0  0  0  0  0  0  0  0
  -34.6120  -35.7410   15.7280 C   0  0  2  0  0  0  0  0  0  0  0  0
  -34.6420  -36.6580   14.6120 O   0  0  0  0  0  0  0  0  0  0  0  0
  -33.8190  -34.4730   15.4180 C   0  0  2  0  0  0  0  0  0  0  0  0
  -34.0840  -33.9080   14.1420 O   0  0  0  0  0  0  0  0  0  0  0  0
  -34.7840  -32.4210   14.0970 P   0  0  0  0  0  0  0  0  0  0  0  0
  -34.0000  -31.7070   12.9990 O   0  0  0  0  0  0  0  0  0  0  0  0
  -36.2360  -32.6820   13.7270 O   0  0  0  0  0  0  0  0  0  0  0  0
  -34.5720  -31.8340   15.4820 O   0  0  0  0  0  0  0  0  0  0  0  0
  -27.0200  -34.0690   17.8700 C   0  0  1  0  0  0  0  0  0  0  0  0
  -27.1100  -34.9920   16.6230 C   0  0  0  0  0  0  0  0  0  0  0  0
  -28.0550  -34.4840   15.6770 O   0  0  0  0  0  0  0  0  0  0  0  0
  -28.0650  -35.1510   14.1750 P   0  0  0  0  0  0  0  0  0  0  0  0
  -28.6460  -34.0600   13.2810 O   0  0  0  0  0  0  0  0  0  0  0  0
  -26.6080  -35.4760   13.8800 O   0  0  0  0  0  0  0  0  0  0  0  0
  -28.9650  -36.3760   14.2920 O   0  0  0  0  0  0  0  0  0  0  0  0
  -25.7070  -34.2130   18.4910 O   0  0  0  0  0  0  0  0  0  0  0  0
  -22.5900  -33.7390   18.5050 C   0  0  0  0  0  0  0  0  0  0  0  0
  -22.6820  -33.7250   19.7310 O   0  0  0  0  0  0  0  0  0  0  0  0
  -21.3730  -34.0530   17.9550 N   0  0  0  0  0  0  0  0  0  0  0  0
  -21.1100  -34.2450   16.6290 C   0  0  0  0  0  0  0  0  0  0  0  0
  -20.0130  -34.6520   16.2470 O   0  0  0  0  0  0  0  0  0  0  0  0
  -21.0763  -34.6720   14.0644 H   0  0  0  0  0  0  0  0  0  0  0  0
  -22.8500  -34.6218   13.7852 H   0  0  0  0  0  0  0  0  0  0  0  0
  -21.8974  -33.0989   13.7852 H   0  0  0  0  0  0  0  0  0  0  0  0
  -24.2314  -33.3562   15.5634 H   0  0  0  0  0  0  0  0  0  0  0  0
  -24.6886  -32.4503   19.0142 H   0  0  0  0  0  0  0  0  0  0  0  0
  -25.5194  -31.1490   17.2949 H   0  0  0  0  0  0  0  0  0  0  0  0
  -25.4894  -32.4189   16.0995 H   0  0  0  0  0  0  0  0  0  0  0  0
  -27.9146  -32.3416   16.7854 H   0  0  0  0  0  0  0  0  0  0  0  0
  -31.8135  -32.8783   15.7833 H   0  0  0  0  0  0  0  0  0  0  0  0
  -30.4513  -34.0090   15.3991 H   0  0  0  0  0  0  0  0  0  0  0  0
  -32.0051  -35.3790   14.6743 H   0  0  0  0  0  0  0  0  0  0  0  0
  -33.8962  -37.4539   16.7696 H   0  0  0  0  0  0  0  0  0  0  0  0
  -35.4998  -34.2422   17.8607 H   0  0  0  0  0  0  0  0  0  0  0  0
  -35.8210  -36.9200   23.1340 H   0  0  0  0  0  0  0  0  0  0  0  0
  -34.6560  -35.6690   23.3290 H   0  0  0  0  0  0  0  0  0  0  0  0
  -32.5667  -39.1480   20.9136 H   0  0  0  0  0  0  0  0  0  0  0  0
  -35.6639  -35.5254   15.9670 H   0  0  0  0  0  0  0  0  0  0  0  0
  -34.3160  -36.0730   13.8580 H   0  0  0  0  0  0  0  0  0  0  0  0
  -34.0841  -33.6179   16.0572 H   0  0  0  0  0  0  0  0  0  0  0  0
  -27.8538  -34.3775   18.5177 H   0  0  0  0  0  0  0  0  0  0  0  0
  -26.1202  -35.0508   16.1467 H   0  0  0  0  0  0  0  0  0  0  0  0
  -27.4408  -35.9894   16.9481 H   0  0  0  0  0  0  0  0  0  0  0  0
  -20.6420  -34.2490   18.6130 H   0  0  0  0  0  0  0  0  0  0  0  0
  1  2  1  0
  2  3  2  0
  3  4  1  0
  4  5  1  0
  5  6  1  0
  6  7  1  0
  7  8  1  0
  8  9  1  0
  9 10  2  0
  9 11  1  1
  9 12  1  0
 12 13  1  0
 13 14  2  0
 13 15  1  1
 13 16  1  0
 16 17  1  0
 17 18  1  0
 18 19  1  0
 19 20  1  0
 20 21  1  0
 21 22  1  0
 22 23  2  0
 23 24  1  0
 24 25  2  0
 25 26  1  0
 25 27  1  0
 27 28  2  0
 28 29  1  0
 29 30  2  0
 20 31  1  0
 31 32  1  0
 31 33  1  0
 33 34  1  0
 34 35  1  0
 35 36  2  0
 35 37  1  0
 35 38  1  0
  7 39  1  0
 39 40  1  0
 40 41  1  0
 41 42  1  0
 42 43  2  0
 42 44  1  0
 42 45  1  0
 39 46  1  0
  4 47  1  0
 47 48  2  0
 47 49  1  0
 49 50  1  0
 50 51  2  0
 50  2  1  0
 46  5  1  0
 33 18  1  0
 30 21  1  0
 30 24  1  0
  1 52  1  0
  1 53  1  0
  1 54  1  0
  3 55  1  0
  5 56  1  1
  6 57  1  0
  6 58  1  0
  7 59  1  6
 17 60  1  0
 17 61  1  0
 18 62  1  6
 20 63  1  6
 22 64  1  0
 26 65  1  0
 26 66  1  0
 28 67  1  0
 31 68  1  1
 32 69  1  0
 33 70  1  1
 39 71  1  1
 40 72  1  0
 40 73  1  0
 49 74  1  0
M  CHG  6  11  -1  15  -1  37  -1  38  -1  44  -1  45  -1
M  END
>  <meeko>  (9) 
{"is_sidechain": [false], "free_energy": -7.069, "intermolecular_energy": -13.707, "internal_energy": -3.042}

$$$$
