3kwa_ligand
     RDKit          3D

 44 43  0  0  0  0  0  0  0  0999 V2000
   -6.0320    0.3280   17.7020 N   0  0  0  0  0  0  0  0  0  0  0  0
   -6.9260    1.4040   17.2010 C   0  0  0  0  0  0  0  0  0  0  0  0
   -6.1470    2.4260   16.3580 C   0  0  0  0  0  0  0  0  0  0  0  0
   -4.6410    2.1080   16.3320 C   0  0  0  0  0  0  0  0  0  0  0  0
   -4.2600    1.4230   15.0360 N   0  0  0  0  0  0  0  0  0  0  0  0
   -4.7400    2.1410   13.7930 C   0  0  0  0  0  0  0  0  0  0  0  0
   -4.2680    1.3930   12.5330 C   0  0  0  0  0  0  0  0  0  0  0  0
   -4.4310    2.2180   11.2300 C   0  0  0  0  0  0  0  0  0  0  0  0
   -3.4670    3.4160   11.1870 C   0  0  0  0  0  0  0  0  0  0  0  0
   -2.1270    3.0970   11.8050 N   0  0  0  0  0  0  0  0  0  0  0  0
   -1.4280    4.2160   12.5390 C   0  0  0  0  0  0  0  0  0  0  0  0
   -2.4620    5.1950   13.1250 C   0  0  0  0  0  0  0  0  0  0  0  0
   -2.6080    5.0410   14.6470 C   0  0  0  0  0  0  0  0  0  0  0  0
   -1.5190    4.1980   15.2050 N   0  0  0  0  0  0  0  0  0  0  0  0
   -6.4380   -0.2420   18.4600 H   0  0  0  0  0  0  0  0  0  0  0  0
   -5.1100    0.6590   18.0280 H   0  0  0  0  0  0  0  0  0  0  0  0
   -5.8170   -0.3500   16.9490 H   0  0  0  0  0  0  0  0  0  0  0  0
   -7.7156    0.9547   16.5808 H   0  0  0  0  0  0  0  0  0  0  0  0
   -7.3619    1.9257   18.0658 H   0  0  0  0  0  0  0  0  0  0  0  0
   -6.5335    2.4082   15.3283 H   0  0  0  0  0  0  0  0  0  0  0  0
   -6.2813    3.4195   16.8107 H   0  0  0  0  0  0  0  0  0  0  0  0
   -4.0726    3.0451   16.4257 H   0  0  0  0  0  0  0  0  0  0  0  0
   -4.4076    1.4343   17.1696 H   0  0  0  0  0  0  0  0  0  0  0  0
   -3.2340    1.3220   14.9900 H   0  0  0  0  0  0  0  0  0  0  0  0
   -4.6370    0.4620   15.0330 H   0  0  0  0  0  0  0  0  0  0  0  0
   -5.8391    2.1844   13.7997 H   0  0  0  0  0  0  0  0  0  0  0  0
   -4.3247    3.1595   13.7832 H   0  0  0  0  0  0  0  0  0  0  0  0
   -3.2043    1.1406   12.6552 H   0  0  0  0  0  0  0  0  0  0  0  0
   -4.8987    0.4975   12.4315 H   0  0  0  0  0  0  0  0  0  0  0  0
   -4.2269    1.5659   10.3680 H   0  0  0  0  0  0  0  0  0  0  0  0
   -5.4598    2.6061   11.1979 H   0  0  0  0  0  0  0  0  0  0  0  0
   -3.3120    3.7076   10.1377 H   0  0  0  0  0  0  0  0  0  0  0  0
   -3.9195    4.2325   11.7688 H   0  0  0  0  0  0  0  0  0  0  0  0
   -1.5060    2.6700   11.0990 H   0  0  0  0  0  0  0  0  0  0  0  0
   -2.3040    2.3340   12.4800 H   0  0  0  0  0  0  0  0  0  0  0  0
   -0.8242    3.7934   13.3556 H   0  0  0  0  0  0  0  0  0  0  0  0
   -0.7800    4.7577   11.8343 H   0  0  0  0  0  0  0  0  0  0  0  0
   -2.1424    6.2236   12.9019 H   0  0  0  0  0  0  0  0  0  0  0  0
   -3.4369    4.9711   12.6674 H   0  0  0  0  0  0  0  0  0  0  0  0
   -2.5679    6.0359   15.1145 H   0  0  0  0  0  0  0  0  0  0  0  0
   -3.5712    4.5536   14.8586 H   0  0  0  0  0  0  0  0  0  0  0  0
   -1.4620    3.2510   14.7970 H   0  0  0  0  0  0  0  0  0  0  0  0
   -0.5930    4.6220   15.0170 H   0  0  0  0  0  0  0  0  0  0  0  0
   -1.5530    4.0860   16.2310 H   0  0  0  0  0  0  0  0  0  0  0  0
  1  2  1  0
  2  3  1  0
  3  4  1  0
  4  5  1  0
  5  6  1  0
  6  7  1  0
  7  8  1  0
  8  9  1  0
  9 10  1  0
 10 11  1  0
 11 12  1  0
 12 13  1  0
 13 14  1  0
  1 15  1  0
  1 16  1  0
  1 17  1  0
  2 18  1  0
  2 19  1  0
  3 20  1  0
  3 21  1  0
  4 22  1  0
  4 23  1  0
  5 24  1  0
  5 25  1  0
  6 26  1  0
  6 27  1  0
  7 28  1  0
  7 29  1  0
  8 30  1  0
  8 31  1  0
  9 32  1  0
  9 33  1  0
 10 34  1  0
 10 35  1  0
 11 36  1  0
 11 37  1  0
 12 38  1  0
 12 39  1  0
 13 40  1  0
 13 41  1  0
 14 42  1  0
 14 43  1  0
 14 44  1  0
M  CHG  4   1   1   5   1  10   1  14   1
M  END
>  <meeko>  (1) 
{"is_sidechain": [false], "free_energy": -4.618, "intermolecular_energy": -7.857, "internal_energy": -0.613}

$$$$
3kwa_ligand
     RDKit          3D

 44 43  0  0  0  0  0  0  0  0999 V2000
   -1.4740    4.2780   15.1370 N   0  0  0  0  0  0  0  0  0  0  0  0
   -2.5110    5.2190   14.6390 C   0  0  0  0  0  0  0  0  0  0  0  0
   -2.6610    5.1230   13.1120 C   0  0  0  0  0  0  0  0  0  0  0  0
   -1.6000    4.1940   12.4970 C   0  0  0  0  0  0  0  0  0  0  0  0
   -2.2510    2.9840   11.8600 N   0  0  0  0  0  0  0  0  0  0  0  0
   -3.6410    3.2440   11.3170 C   0  0  0  0  0  0  0  0  0  0  0  0
   -4.4950    1.9680   11.4150 C   0  0  0  0  0  0  0  0  0  0  0  0
   -4.3870    1.2580   12.7890 C   0  0  0  0  0  0  0  0  0  0  0  0
   -4.9020    2.1460   13.9350 C   0  0  0  0  0  0  0  0  0  0  0  0
   -4.0560    2.0240   15.1800 N   0  0  0  0  0  0  0  0  0  0  0  0
   -4.7690    2.1310   16.5060 C   0  0  0  0  0  0  0  0  0  0  0  0
   -6.2850    2.2930   16.2830 C   0  0  0  0  0  0  0  0  0  0  0  0
   -7.0980    1.2340   17.0430 C   0  0  0  0  0  0  0  0  0  0  0  0
   -6.2100    0.3500   17.8420 N   0  0  0  0  0  0  0  0  0  0  0  0
   -1.7750    3.2920   15.1690 H   0  0  0  0  0  0  0  0  0  0  0  0
   -1.0990    4.5150   16.0700 H   0  0  0  0  0  0  0  0  0  0  0  0
   -0.6470    4.2810   14.5130 H   0  0  0  0  0  0  0  0  0  0  0  0
   -3.4742    4.9738   15.1103 H   0  0  0  0  0  0  0  0  0  0  0  0
   -2.2037    6.2437   14.8952 H   0  0  0  0  0  0  0  0  0  0  0  0
   -3.6606    4.7295   12.8754 H   0  0  0  0  0  0  0  0  0  0  0  0
   -2.5250    6.1291   12.6886 H   0  0  0  0  0  0  0  0  0  0  0  0
   -1.0373    4.7466   11.7302 H   0  0  0  0  0  0  0  0  0  0  0  0
   -0.9243    3.8525   13.2950 H   0  0  0  0  0  0  0  0  0  0  0  0
   -1.6530    2.6350   11.0940 H   0  0  0  0  0  0  0  0  0  0  0  0
   -2.3000    2.2180   12.5500 H   0  0  0  0  0  0  0  0  0  0  0  0
   -4.1160    4.0453   11.9020 H   0  0  0  0  0  0  0  0  0  0  0  0
   -3.5644    3.5454   10.2619 H   0  0  0  0  0  0  0  0  0  0  0  0
   -5.5474    2.2390   11.2445 H   0  0  0  0  0  0  0  0  0  0  0  0
   -4.1178    1.2661   10.6566 H   0  0  0  0  0  0  0  0  0  0  0  0
   -4.9829    0.3339   12.7597 H   0  0  0  0  0  0  0  0  0  0  0  0
   -3.3256    1.0392   12.9775 H   0  0  0  0  0  0  0  0  0  0  0  0
   -4.8919    3.1943   13.6020 H   0  0  0  0  0  0  0  0  0  0  0  0
   -5.9200    1.8137   14.1864 H   0  0  0  0  0  0  0  0  0  0  0  0
   -3.2610    2.6820   15.1310 H   0  0  0  0  0  0  0  0  0  0  0  0
   -3.6140    1.0910   15.1280 H   0  0  0  0  0  0  0  0  0  0  0  0
   -4.5834    1.2194   17.0930 H   0  0  0  0  0  0  0  0  0  0  0  0
   -4.3898    3.0100   17.0477 H   0  0  0  0  0  0  0  0  0  0  0  0
   -6.5899    3.2910   16.6308 H   0  0  0  0  0  0  0  0  0  0  0  0
   -6.4845    2.1662   15.2087 H   0  0  0  0  0  0  0  0  0  0  0  0
   -7.8039    1.7394   17.7185 H   0  0  0  0  0  0  0  0  0  0  0  0
   -7.6387    0.6165   16.3106 H   0  0  0  0  0  0  0  0  0  0  0  0
   -5.2250    0.3460   17.5330 H   0  0  0  0  0  0  0  0  0  0  0  0
   -6.1750    0.6600   18.8300 H   0  0  0  0  0  0  0  0  0  0  0  0
   -6.5190   -0.6330   17.8860 H   0  0  0  0  0  0  0  0  0  0  0  0
  1  2  1  0
  2  3  1  0
  3  4  1  0
  4  5  1  0
  5  6  1  0
  6  7  1  0
  7  8  1  0
  8  9  1  0
  9 10  1  0
 10 11  1  0
 11 12  1  0
 12 13  1  0
 13 14  1  0
  1 15  1  0
  1 16  1  0
  1 17  1  0
  2 18  1  0
  2 19  1  0
  3 20  1  0
  3 21  1  0
  4 22  1  0
  4 23  1  0
  5 24  1  0
  5 25  1  0
  6 26  1  0
  6 27  1  0
  7 28  1  0
  7 29  1  0
  8 30  1  0
  8 31  1  0
  9 32  1  0
  9 33  1  0
 10 34  1  0
 10 35  1  0
 11 36  1  0
 11 37  1  0
 12 38  1  0
 12 39  1  0
 13 40  1  0
 13 41  1  0
 14 42  1  0
 14 43  1  0
 14 44  1  0
M  CHG  4   1   1   5   1  10   1  14   1
M  END
>  <meeko>  (2) 
{"is_sidechain": [false], "free_energy": -4.479, "intermolecular_energy": -7.526, "internal_energy": -0.709}

$$$$
3kwa_ligand
     RDKit          3D

 44 43  0  0  0  0  0  0  0  0999 V2000
   -6.0040    0.3860   17.6560 N   0  0  0  0  0  0  0  0  0  0  0  0
   -7.0030    1.3330   17.0950 C   0  0  0  0  0  0  0  0  0  0  0  0
   -6.3160    2.5170   16.3970 C   0  0  0  0  0  0  0  0  0  0  0  0
   -4.8190    2.2440   16.1620 C   0  0  0  0  0  0  0  0  0  0  0  0
   -4.2610    3.1870   15.1150 N   0  0  0  0  0  0  0  0  0  0  0  0
   -5.2270    4.2690   14.6810 C   0  0  0  0  0  0  0  0  0  0  0  0
   -4.4540    5.5410   14.2870 C   0  0  0  0  0  0  0  0  0  0  0  0
   -2.9700    5.5230   14.7350 C   0  0  0  0  0  0  0  0  0  0  0  0
   -2.0080    5.5820   13.5370 C   0  0  0  0  0  0  0  0  0  0  0  0
   -1.3330    4.2570   13.2780 N   0  0  0  0  0  0  0  0  0  0  0  0
   -1.5190    3.6480   11.9100 C   0  0  0  0  0  0  0  0  0  0  0  0
   -2.9100    4.0090   11.3530 C   0  0  0  0  0  0  0  0  0  0  0  0
   -3.8960    2.8350   11.4540 C   0  0  0  0  0  0  0  0  0  0  0  0
   -3.2700    1.6680   12.1270 N   0  0  0  0  0  0  0  0  0  0  0  0
   -6.4130   -0.3910   18.1980 H   0  0  0  0  0  0  0  0  0  0  0  0
   -5.2850    0.8290   18.2490 H   0  0  0  0  0  0  0  0  0  0  0  0
   -5.4710   -0.0750   16.8960 H   0  0  0  0  0  0  0  0  0  0  0  0
   -7.6308    0.8013   16.3648 H   0  0  0  0  0  0  0  0  0  0  0  0
   -7.6150    1.7235   17.9214 H   0  0  0  0  0  0  0  0  0  0  0  0
   -6.8039    2.6916   15.4267 H   0  0  0  0  0  0  0  0  0  0  0  0
   -6.4074    3.4000   17.0465 H   0  0  0  0  0  0  0  0  0  0  0  0
   -4.2730    2.3884   17.1059 H   0  0  0  0  0  0  0  0  0  0  0  0
   -4.6994    1.2099   15.8066 H   0  0  0  0  0  0  0  0  0  0  0  0
   -3.4020    3.6300   15.4760 H   0  0  0  0  0  0  0  0  0  0  0  0
   -3.9710    2.6450   14.2860 H   0  0  0  0  0  0  0  0  0  0  0  0
   -5.8073    3.9135   13.8168 H   0  0  0  0  0  0  0  0  0  0  0  0
   -5.9042    4.5031   15.5156 H   0  0  0  0  0  0  0  0  0  0  0  0
   -4.4866    5.6438   13.1923 H   0  0  0  0  0  0  0  0  0  0  0  0
   -4.9374    6.3864   14.7985 H   0  0  0  0  0  0  0  0  0  0  0  0
   -2.7839    6.3918   15.3835 H   0  0  0  0  0  0  0  0  0  0  0  0
   -2.7877    4.5805   15.2721 H   0  0  0  0  0  0  0  0  0  0  0  0
   -2.5767    5.8704   12.6407 H   0  0  0  0  0  0  0  0  0  0  0  0
   -1.2249    6.3184   13.7704 H   0  0  0  0  0  0  0  0  0  0  0  0
   -1.5810    3.5840   14.0220 H   0  0  0  0  0  0  0  0  0  0  0  0
   -0.3220    4.4250   13.4190 H   0  0  0  0  0  0  0  0  0  0  0  0
   -0.7441    4.0344   11.2315 H   0  0  0  0  0  0  0  0  0  0  0  0
   -1.4362    2.5540   11.9892 H   0  0  0  0  0  0  0  0  0  0  0  0
   -3.3111    4.8591   11.9244 H   0  0  0  0  0  0  0  0  0  0  0  0
   -2.7933    4.2625   10.2890 H   0  0  0  0  0  0  0  0  0  0  0  0
   -4.7761    3.1536   12.0319 H   0  0  0  0  0  0  0  0  0  0  0  0
   -4.1892    2.5362   10.4368 H   0  0  0  0  0  0  0  0  0  0  0  0
   -3.0710    1.8120   13.1300 H   0  0  0  0  0  0  0  0  0  0  0  0
   -3.8990    0.8460   12.0980 H   0  0  0  0  0  0  0  0  0  0  0  0
   -2.3950    1.3440   11.6860 H   0  0  0  0  0  0  0  0  0  0  0  0
  1  2  1  0
  2  3  1  0
  3  4  1  0
  4  5  1  0
  5  6  1  0
  6  7  1  0
  7  8  1  0
  8  9  1  0
  9 10  1  0
 10 11  1  0
 11 12  1  0
 12 13  1  0
 13 14  1  0
  1 15  1  0
  1 16  1  0
  1 17  1  0
  2 18  1  0
  2 19  1  0
  3 20  1  0
  3 21  1  0
  4 22  1  0
  4 23  1  0
  5 24  1  0
  5 25  1  0
  6 26  1  0
  6 27  1  0
  7 28  1  0
  7 29  1  0
  8 30  1  0
  8 31  1  0
  9 32  1  0
  9 33  1  0
 10 34  1  0
 10 35  1  0
 11 36  1  0
 11 37  1  0
 12 38  1  0
 12 39  1  0
 13 40  1  0
 13 41  1  0
 14 42  1  0
 14 43  1  0
 14 44  1  0
M  CHG  4   1   1   5   1  10   1  14   1
M  END
>  <meeko>  (3) 
{"is_sidechain": [false], "free_energy": -4.461, "intermolecular_energy": -7.447, "internal_energy": -0.758}

$$$$
3kwa_ligand
     RDKit          3D

 44 43  0  0  0  0  0  0  0  0999 V2000
   -3.2480    1.6550   12.1480 N   0  0  0  0  0  0  0  0  0  0  0  0
   -3.8620    2.8100   11.4410 C   0  0  0  0  0  0  0  0  0  0  0  0
   -2.8920    4.0000   11.3740 C   0  0  0  0  0  0  0  0  0  0  0  0
   -1.4560    3.5810   11.7360 C   0  0  0  0  0  0  0  0  0  0  0  0
   -1.0560    4.1470   13.0830 N   0  0  0  0  0  0  0  0  0  0  0  0
   -1.7290    5.4590   13.4260 C   0  0  0  0  0  0  0  0  0  0  0  0
   -2.5000    5.3280   14.7520 C   0  0  0  0  0  0  0  0  0  0  0  0
   -4.0240    5.5760   14.6050 C   0  0  0  0  0  0  0  0  0  0  0  0
   -4.8250    4.2630   14.6410 C   0  0  0  0  0  0  0  0  0  0  0  0
   -4.0230    3.1180   15.2120 N   0  0  0  0  0  0  0  0  0  0  0  0
   -4.7980    1.9640   15.7980 C   0  0  0  0  0  0  0  0  0  0  0  0
   -6.0810    2.4770   16.4790 C   0  0  0  0  0  0  0  0  0  0  0  0
   -6.3650    1.7500   17.8030 C   0  0  0  0  0  0  0  0  0  0  0  0
   -5.9640    0.3220   17.7240 N   0  0  0  0  0  0  0  0  0  0  0  0
   -3.8130    1.2880   12.9300 H   0  0  0  0  0  0  0  0  0  0  0  0
   -2.3000    1.8370   12.5130 H   0  0  0  0  0  0  0  0  0  0  0  0
   -3.1340    0.8520   11.5050 H   0  0  0  0  0  0  0  0  0  0  0  0
   -4.1268    2.5049   10.4179 H   0  0  0  0  0  0  0  0  0  0  0  0
   -4.7584    3.1222   11.9969 H   0  0  0  0  0  0  0  0  0  0  0  0
   -2.8980    4.4085   10.3527 H   0  0  0  0  0  0  0  0  0  0  0  0
   -3.2237    4.7558   12.1011 H   0  0  0  0  0  0  0  0  0  0  0  0
   -1.3991    2.4831   11.7744 H   0  0  0  0  0  0  0  0  0  0  0  0
   -0.7700    3.9724   10.9704 H   0  0  0  0  0  0  0  0  0  0  0  0
   -1.2690    3.4580   13.8220 H   0  0  0  0  0  0  0  0  0  0  0  0
   -0.0330    4.2800   13.1090 H   0  0  0  0  0  0  0  0  0  0  0  0
   -0.9653    6.2444   13.5254 H   0  0  0  0  0  0  0  0  0  0  0  0
   -2.4345    5.7219   12.6241 H   0  0  0  0  0  0  0  0  0  0  0  0
   -2.3483    4.3117   15.1447 H   0  0  0  0  0  0  0  0  0  0  0  0
   -2.1095    6.0990   15.4325 H   0  0  0  0  0  0  0  0  0  0  0  0
   -4.3606    6.2207   15.4303 H   0  0  0  0  0  0  0  0  0  0  0  0
   -4.1989    6.0554   13.6306 H   0  0  0  0  0  0  0  0  0  0  0  0
   -5.7206    4.4119   15.2620 H   0  0  0  0  0  0  0  0  0  0  0  0
   -5.0924    4.0034   13.6061 H   0  0  0  0  0  0  0  0  0  0  0  0
   -3.3250    3.4770   15.8830 H   0  0  0  0  0  0  0  0  0  0  0  0
   -3.4530    2.7560   14.4280 H   0  0  0  0  0  0  0  0  0  0  0  0
   -5.0683    1.2626   14.9949 H   0  0  0  0  0  0  0  0  0  0  0  0
   -4.1731    1.4547   16.5464 H   0  0  0  0  0  0  0  0  0  0  0  0
   -5.9688    3.5522   16.6821 H   0  0  0  0  0  0  0  0  0  0  0  0
   -6.9245    2.2842   15.7998 H   0  0  0  0  0  0  0  0  0  0  0  0
   -5.7989    2.2383   18.6099 H   0  0  0  0  0  0  0  0  0  0  0  0
   -7.4452    1.7996   18.0048 H   0  0  0  0  0  0  0  0  0  0  0  0
   -5.4220   -0.0130   18.5360 H   0  0  0  0  0  0  0  0  0  0  0  0
   -6.7970   -0.2930   17.6900 H   0  0  0  0  0  0  0  0  0  0  0  0
   -5.4250    0.0800   16.8770 H   0  0  0  0  0  0  0  0  0  0  0  0
  1  2  1  0
  2  3  1  0
  3  4  1  0
  4  5  1  0
  5  6  1  0
  6  7  1  0
  7  8  1  0
  8  9  1  0
  9 10  1  0
 10 11  1  0
 11 12  1  0
 12 13  1  0
 13 14  1  0
  1 15  1  0
  1 16  1  0
  1 17  1  0
  2 18  1  0
  2 19  1  0
  3 20  1  0
  3 21  1  0
  4 22  1  0
  4 23  1  0
  5 24  1  0
  5 25  1  0
  6 26  1  0
  6 27  1  0
  7 28  1  0
  7 29  1  0
  8 30  1  0
  8 31  1  0
  9 32  1  0
  9 33  1  0
 10 34  1  0
 10 35  1  0
 11 36  1  0
 11 37  1  0
 12 38  1  0
 12 39  1  0
 13 40  1  0
 13 41  1  0
 14 42  1  0
 14 43  1  0
 14 44  1  0
M  CHG  4   1   1   5   1  10   1  14   1
M  END
>  <meeko>  (4) 
{"is_sidechain": [false], "free_energy": -4.361, "intermolecular_energy": -7.301, "internal_energy": -0.732}

$$$$
3kwa_ligand
     RDKit          3D

 44 43  0  0  0  0  0  0  0  0999 V2000
   -2.7610    2.3160   12.2380 N   0  0  0  0  0  0  0  0  0  0  0  0
   -2.5000    3.5620   11.4700 C   0  0  0  0  0  0  0  0  0  0  0  0
   -1.0970    4.1150   11.7690 C   0  0  0  0  0  0  0  0  0  0  0  0
   -1.1640    5.5240   12.3850 C   0  0  0  0  0  0  0  0  0  0  0  0
   -2.5990    5.9990   12.4800 N   0  0  0  0  0  0  0  0  0  0  0  0
   -2.8250    7.0820   13.5140 C   0  0  0  0  0  0  0  0  0  0  0  0
   -3.4250    6.4740   14.7950 C   0  0  0  0  0  0  0  0  0  0  0  0
   -4.0490    5.0710   14.5760 C   0  0  0  0  0  0  0  0  0  0  0  0
   -5.5840    5.1070   14.6620 C   0  0  0  0  0  0  0  0  0  0  0  0
   -6.1880    3.7240   14.7160 N   0  0  0  0  0  0  0  0  0  0  0  0
   -5.7060    2.8080   15.8140 C   0  0  0  0  0  0  0  0  0  0  0  0
   -6.7660    2.7130   16.9290 C   0  0  0  0  0  0  0  0  0  0  0  0
   -7.1200    1.2560   17.2680 C   0  0  0  0  0  0  0  0  0  0  0  0
   -5.8930    0.4410   17.4650 N   0  0  0  0  0  0  0  0  0  0  0  0
   -2.3260    1.4710   11.8350 H   0  0  0  0  0  0  0  0  0  0  0  0
   -3.7610    2.1070   12.3810 H   0  0  0  0  0  0  0  0  0  0  0  0
   -2.3660    2.3860   13.1930 H   0  0  0  0  0  0  0  0  0  0  0  0
   -2.5782    3.3439   10.3947 H   0  0  0  0  0  0  0  0  0  0  0  0
   -3.2429    4.3168   11.7673 H   0  0  0  0  0  0  0  0  0  0  0  0
   -0.5901    3.4404   12.4747 H   0  0  0  0  0  0  0  0  0  0  0  0
   -0.5428    4.1794   10.8210 H   0  0  0  0  0  0  0  0  0  0  0  0
   -0.7245    5.4986   13.3931 H   0  0  0  0  0  0  0  0  0  0  0  0
   -0.6035    6.2183   11.7417 H   0  0  0  0  0  0  0  0  0  0  0  0
   -2.9070    6.3470   11.5580 H   0  0  0  0  0  0  0  0  0  0  0  0
   -3.2120    5.1980   12.6960 H   0  0  0  0  0  0  0  0  0  0  0  0
   -1.8647    7.5617   13.7542 H   0  0  0  0  0  0  0  0  0  0  0  0
   -3.5245    7.8273   13.1075 H   0  0  0  0  0  0  0  0  0  0  0  0
   -2.6269    6.3873   15.5470 H   0  0  0  0  0  0  0  0  0  0  0  0
   -4.2346    7.1422   15.1238 H   0  0  0  0  0  0  0  0  0  0  0  0
   -3.7570    4.7031   13.5813 H   0  0  0  0  0  0  0  0  0  0  0  0
   -3.6784    4.4052   15.3693 H   0  0  0  0  0  0  0  0  0  0  0  0
   -5.8746    5.6555   15.5701 H   0  0  0  0  0  0  0  0  0  0  0  0
   -5.9601    5.6031   13.7551 H   0  0  0  0  0  0  0  0  0  0  0  0
   -6.1100    3.2700   13.7910 H   0  0  0  0  0  0  0  0  0  0  0  0
   -7.2050    3.8660   14.8400 H   0  0  0  0  0  0  0  0  0  0  0  0
   -5.5247    1.8059   15.3982 H   0  0  0  0  0  0  0  0  0  0  0  0
   -4.7745    3.2124   16.2368 H   0  0  0  0  0  0  0  0  0  0  0  0
   -6.3746    3.2024   17.8330 H   0  0  0  0  0  0  0  0  0  0  0  0
   -7.6800    3.2089   16.5704 H   0  0  0  0  0  0  0  0  0  0  0  0
   -7.7167    1.2366   18.1919 H   0  0  0  0  0  0  0  0  0  0  0  0
   -7.6921    0.8307   16.4302 H   0  0  0  0  0  0  0  0  0  0  0  0
   -5.4830    0.0730   16.5920 H   0  0  0  0  0  0  0  0  0  0  0  0
   -5.1390    1.0090   17.8920 H   0  0  0  0  0  0  0  0  0  0  0  0
   -6.0150   -0.3590   18.1060 H   0  0  0  0  0  0  0  0  0  0  0  0
  1  2  1  0
  2  3  1  0
  3  4  1  0
  4  5  1  0
  5  6  1  0
  6  7  1  0
  7  8  1  0
  8  9  1  0
  9 10  1  0
 10 11  1  0
 11 12  1  0
 12 13  1  0
 13 14  1  0
  1 15  1  0
  1 16  1  0
  1 17  1  0
  2 18  1  0
  2 19  1  0
  3 20  1  0
  3 21  1  0
  4 22  1  0
  4 23  1  0
  5 24  1  0
  5 25  1  0
  6 26  1  0
  6 27  1  0
  7 28  1  0
  7 29  1  0
  8 30  1  0
  8 31  1  0
  9 32  1  0
  9 33  1  0
 10 34  1  0
 10 35  1  0
 11 36  1  0
 11 37  1  0
 12 38  1  0
 12 39  1  0
 13 40  1  0
 13 41  1  0
 14 42  1  0
 14 43  1  0
 14 44  1  0
M  CHG  4   1   1   5   1  10   1  14   1
M  END
>  <meeko>  (5) 
{"is_sidechain": [false], "free_energy": -3.966, "intermolecular_energy": -6.887, "internal_energy": -0.474}

$$$$
3kwa_ligand
     RDKit          3D

 44 43  0  0  0  0  0  0  0  0999 V2000
   -5.8010    5.8260   13.6870 N   0  0  0  0  0  0  0  0  0  0  0  0
   -4.6850    5.7690   14.6670 C   0  0  0  0  0  0  0  0  0  0  0  0
   -3.3270    5.9770   13.9760 C   0  0  0  0  0  0  0  0  0  0  0  0
   -2.1990    5.2280   14.7070 C   0  0  0  0  0  0  0  0  0  0  0  0
   -1.3740    4.4180   13.7290 N   0  0  0  0  0  0  0  0  0  0  0  0
   -1.8910    4.4500   12.3070 C   0  0  0  0  0  0  0  0  0  0  0  0
   -2.4010    3.0570   11.8960 C   0  0  0  0  0  0  0  0  0  0  0  0
   -3.9430    2.9160   11.9830 C   0  0  0  0  0  0  0  0  0  0  0  0
   -4.3620    1.8350   12.9940 C   0  0  0  0  0  0  0  0  0  0  0  0
   -4.0870    2.2460   14.4210 N   0  0  0  0  0  0  0  0  0  0  0  0
   -4.7660    1.4480   15.5070 C   0  0  0  0  0  0  0  0  0  0  0  0
   -5.7840    2.3290   16.2560 C   0  0  0  0  0  0  0  0  0  0  0  0
   -6.5840    1.5310   17.2980 C   0  0  0  0  0  0  0  0  0  0  0  0
   -5.8720    0.2830   17.6760 N   0  0  0  0  0  0  0  0  0  0  0  0
   -6.6410    5.2980   13.9700 H   0  0  0  0  0  0  0  0  0  0  0  0
   -5.5470    5.5130   12.7370 H   0  0  0  0  0  0  0  0  0  0  0  0
   -6.1300    6.8000   13.5640 H   0  0  0  0  0  0  0  0  0  0  0  0
   -4.8286    6.5573   15.4206 H   0  0  0  0  0  0  0  0  0  0  0  0
   -4.6868    4.7757   15.1396 H   0  0  0  0  0  0  0  0  0  0  0  0
   -3.3915    5.6050   12.9428 H   0  0  0  0  0  0  0  0  0  0  0  0
   -3.0935    7.0518   13.9926 H   0  0  0  0  0  0  0  0  0  0  0  0
   -1.5482    5.9578   15.2109 H   0  0  0  0  0  0  0  0  0  0  0  0
   -2.6471    4.5445   15.4433 H   0  0  0  0  0  0  0  0  0  0  0  0
   -0.3990    4.7570   13.7390 H   0  0  0  0  0  0  0  0  0  0  0  0
   -1.3320    3.4360   14.0470 H   0  0  0  0  0  0  0  0  0  0  0  0
   -2.7157    5.1744   12.2363 H   0  0  0  0  0  0  0  0  0  0  0  0
   -1.0729    4.7460   11.6339 H   0  0  0  0  0  0  0  0  0  0  0  0
   -2.0911    2.8643   10.8583 H   0  0  0  0  0  0  0  0  0  0  0  0
   -1.9680    2.3315   12.6004 H   0  0  0  0  0  0  0  0  0  0  0  0
   -4.3716    3.8800   12.2945 H   0  0  0  0  0  0  0  0  0  0  0  0
   -4.3156    2.6194   10.9914 H   0  0  0  0  0  0  0  0  0  0  0  0
   -5.4397    1.6451   12.8822 H   0  0  0  0  0  0  0  0  0  0  0  0
   -3.7705    0.9316   12.7845 H   0  0  0  0  0  0  0  0  0  0  0  0
   -4.2640    3.2570   14.5360 H   0  0  0  0  0  0  0  0  0  0  0  0
   -3.0650    2.1540   14.5470 H   0  0  0  0  0  0  0  0  0  0  0  0
   -5.2888    0.5917   15.0560 H   0  0  0  0  0  0  0  0  0  0  0  0
   -4.0070    1.0916   16.2189 H   0  0  0  0  0  0  0  0  0  0  0  0
   -5.2432    3.1385   16.7681 H   0  0  0  0  0  0  0  0  0  0  0  0
   -6.4944    2.7282   15.5171 H   0  0  0  0  0  0  0  0  0  0  0  0
   -6.7239    2.1511   18.1957 H   0  0  0  0  0  0  0  0  0  0  0  0
   -7.5563    1.2604   16.8605 H   0  0  0  0  0  0  0  0  0  0  0  0
   -5.8080   -0.4160   16.9180 H   0  0  0  0  0  0  0  0  0  0  0  0
   -4.8890    0.4830   17.9340 H   0  0  0  0  0  0  0  0  0  0  0  0
   -6.2670   -0.1970   18.5000 H   0  0  0  0  0  0  0  0  0  0  0  0
  1  2  1  0
  2  3  1  0
  3  4  1  0
  4  5  1  0
  5  6  1  0
  6  7  1  0
  7  8  1  0
  8  9  1  0
  9 10  1  0
 10 11  1  0
 11 12  1  0
 12 13  1  0
 13 14  1  0
  1 15  1  0
  1 16  1  0
  1 17  1  0
  2 18  1  0
  2 19  1  0
  3 20  1  0
  3 21  1  0
  4 22  1  0
  4 23  1  0
  5 24  1  0
  5 25  1  0
  6 26  1  0
  6 27  1  0
  7 28  1  0
  7 29  1  0
  8 30  1  0
  8 31  1  0
  9 32  1  0
  9 33  1  0
 10 34  1  0
 10 35  1  0
 11 36  1  0
 11 37  1  0
 12 38  1  0
 12 39  1  0
 13 40  1  0
 13 41  1  0
 14 42  1  0
 14 43  1  0
 14 44  1  0
M  CHG  4   1   1   5   1  10   1  14   1
M  END
>  <meeko>  (6) 
{"is_sidechain": [false], "free_energy": -3.866, "intermolecular_energy": -6.482, "internal_energy": -0.71}

$$$$
3kwa_ligand
     RDKit          3D

 44 43  0  0  0  0  0  0  0  0999 V2000
   -6.0730    1.8520   19.2860 N   0  0  0  0  0  0  0  0  0  0  0  0
   -6.5890    2.8870   18.3510 C   0  0  0  0  0  0  0  0  0  0  0  0
   -6.6760    2.3450   16.9150 C   0  0  0  0  0  0  0  0  0  0  0  0
   -6.1530    0.9000   16.8230 C   0  0  0  0  0  0  0  0  0  0  0  0
   -4.8400    0.8540   16.0690 N   0  0  0  0  0  0  0  0  0  0  0  0
   -4.4020    2.1900   15.5060 C   0  0  0  0  0  0  0  0  0  0  0  0
   -4.9220    2.3540   14.0670 C   0  0  0  0  0  0  0  0  0  0  0  0
   -4.2190    1.4200   13.0480 C   0  0  0  0  0  0  0  0  0  0  0  0
   -4.6570    1.7150   11.6030 C   0  0  0  0  0  0  0  0  0  0  0  0
   -3.6580    2.5750   10.8660 N   0  0  0  0  0  0  0  0  0  0  0  0
   -3.8440    4.0700   10.9540 C   0  0  0  0  0  0  0  0  0  0  0  0
   -2.4990    4.7550   11.2640 C   0  0  0  0  0  0  0  0  0  0  0  0
   -1.5070    3.8010   11.9460 C   0  0  0  0  0  0  0  0  0  0  0  0
   -1.3540    4.1300   13.3870 N   0  0  0  0  0  0  0  0  0  0  0  0
   -5.3950    1.2000   18.8630 H   0  0  0  0  0  0  0  0  0  0  0  0
   -6.8080    1.2820   19.7350 H   0  0  0  0  0  0  0  0  0  0  0  0
   -5.5630    2.2910   20.0720 H   0  0  0  0  0  0  0  0  0  0  0  0
   -7.5919    3.1984   18.6784 H   0  0  0  0  0  0  0  0  0  0  0  0
   -5.8957    3.7410   18.3596 H   0  0  0  0  0  0  0  0  0  0  0  0
   -7.7261    2.3662   16.5883 H   0  0  0  0  0  0  0  0  0  0  0  0
   -6.0512    2.9793   16.2690 H   0  0  0  0  0  0  0  0  0  0  0  0
   -6.0005    0.5056   17.8385 H   0  0  0  0  0  0  0  0  0  0  0  0
   -6.8924    0.2894   16.2841 H   0  0  0  0  0  0  0  0  0  0  0  0
   -4.0990    0.4950   16.6920 H   0  0  0  0  0  0  0  0  0  0  0  0
   -4.9110    0.1740   15.2970 H   0  0  0  0  0  0  0  0  0  0  0  0
   -4.8054    2.9988   16.1329 H   0  0  0  0  0  0  0  0  0  0  0  0
   -3.3029    2.2345   15.4987 H   0  0  0  0  0  0  0  0  0  0  0  0
   -5.9993    2.1318   14.0581 H   0  0  0  0  0  0  0  0  0  0  0  0
   -4.7083    3.3886   13.7604 H   0  0  0  0  0  0  0  0  0  0  0  0
   -3.1311    1.5630   13.1261 H   0  0  0  0  0  0  0  0  0  0  0  0
   -4.5005    0.3834   13.2849 H   0  0  0  0  0  0  0  0  0  0  0  0
   -4.7680    0.7618   11.0653 H   0  0  0  0  0  0  0  0  0  0  0  0
   -5.6085    2.2653   11.6453 H   0  0  0  0  0  0  0  0  0  0  0  0
   -3.5850    2.2660    9.8830 H   0  0  0  0  0  0  0  0  0  0  0  0
   -2.7350    2.3430   11.2710 H   0  0  0  0  0  0  0  0  0  0  0  0
   -4.2307    4.4453    9.9950 H   0  0  0  0  0  0  0  0  0  0  0  0
   -4.5571    4.2967   11.7603 H   0  0  0  0  0  0  0  0  0  0  0  0
   -2.0573    5.1115   10.3218 H   0  0  0  0  0  0  0  0  0  0  0  0
   -2.6952    5.5888   11.9541 H   0  0  0  0  0  0  0  0  0  0  0  0
   -1.8767    2.7694   11.8502 H   0  0  0  0  0  0  0  0  0  0  0  0
   -0.5273    3.9072   11.4571 H   0  0  0  0  0  0  0  0  0  0  0  0
   -2.2320    4.4050   13.8550 H   0  0  0  0  0  0  0  0  0  0  0  0
   -1.0170    3.3080   13.9180 H   0  0  0  0  0  0  0  0  0  0  0  0
   -0.6610    4.8700   13.5810 H   0  0  0  0  0  0  0  0  0  0  0  0
  1  2  1  0
  2  3  1  0
  3  4  1  0
  4  5  1  0
  5  6  1  0
  6  7  1  0
  7  8  1  0
  8  9  1  0
  9 10  1  0
 10 11  1  0
 11 12  1  0
 12 13  1  0
 13 14  1  0
  1 15  1  0
  1 16  1  0
  1 17  1  0
  2 18  1  0
  2 19  1  0
  3 20  1  0
  3 21  1  0
  4 22  1  0
  4 23  1  0
  5 24  1  0
  5 25  1  0
  6 26  1  0
  6 27  1  0
  7 28  1  0
  7 29  1  0
  8 30  1  0
  8 31  1  0
  9 32  1  0
  9 33  1  0
 10 34  1  0
 10 35  1  0
 11 36  1  0
 11 37  1  0
 12 38  1  0
 12 39  1  0
 13 40  1  0
 13 41  1  0
 14 42  1  0
 14 43  1  0
 14 44  1  0
M  CHG  4   1   1   5   1  10   1  14   1
M  END
>  <meeko>  (7) 
{"is_sidechain": [false], "free_energy": -3.799, "intermolecular_energy": -6.642, "internal_energy": -0.435}

$$$$
3kwa_ligand
     RDKit          3D

 44 43  0  0  0  0  0  0  0  0999 V2000
   -1.3730    4.3340   13.9210 N   0  0  0  0  0  0  0  0  0  0  0  0
   -2.2220    5.5360   13.7150 C   0  0  0  0  0  0  0  0  0  0  0  0
   -3.3940    5.5650   14.7090 C   0  0  0  0  0  0  0  0  0  0  0  0
   -4.7480    5.6700   13.9850 C   0  0  0  0  0  0  0  0  0  0  0  0
   -5.8770    5.2320   14.8940 N   0  0  0  0  0  0  0  0  0  0  0  0
   -6.2170    3.7600   14.7940 C   0  0  0  0  0  0  0  0  0  0  0  0
   -6.4750    3.1790   16.1960 C   0  0  0  0  0  0  0  0  0  0  0  0
   -5.2650    2.4000   16.7720 C   0  0  0  0  0  0  0  0  0  0  0  0
   -5.1400    0.9970   16.1550 C   0  0  0  0  0  0  0  0  0  0  0  0
   -4.0770    0.9330   15.0850 N   0  0  0  0  0  0  0  0  0  0  0  0
   -4.5410    0.6820   13.6710 C   0  0  0  0  0  0  0  0  0  0  0  0
   -3.9770    1.7610   12.7270 C   0  0  0  0  0  0  0  0  0  0  0  0
   -4.7350    1.8160   11.3920 C   0  0  0  0  0  0  0  0  0  0  0  0
   -4.7180    0.4940   10.7140 N   0  0  0  0  0  0  0  0  0  0  0  0
   -1.7300    3.4800   13.4660 H   0  0  0  0  0  0  0  0  0  0  0  0
   -1.1970    4.1030   14.9120 H   0  0  0  0  0  0  0  0  0  0  0  0
   -0.4320    4.4770   13.5120 H   0  0  0  0  0  0  0  0  0  0  0  0
   -1.6082    6.4376   13.8574 H   0  0  0  0  0  0  0  0  0  0  0  0
   -2.6312    5.5029   12.6945 H   0  0  0  0  0  0  0  0  0  0  0  0
   -3.3789    4.6411   15.3058 H   0  0  0  0  0  0  0  0  0  0  0  0
   -3.2780    6.4498   15.3521 H   0  0  0  0  0  0  0  0  0  0  0  0
   -4.9143    6.7137   13.6800 H   0  0  0  0  0  0  0  0  0  0  0  0
   -4.7291    5.0128   13.1031 H   0  0  0  0  0  0  0  0  0  0  0  0
   -5.6360    5.4540   15.8730 H   0  0  0  0  0  0  0  0  0  0  0  0
   -6.7230    5.7850   14.6820 H   0  0  0  0  0  0  0  0  0  0  0  0
   -7.1195    3.6364   14.1774 H   0  0  0  0  0  0  0  0  0  0  0  0
   -5.3725    3.2264   14.3335 H   0  0  0  0  0  0  0  0  0  0  0  0
   -6.7128    4.0081   16.8786 H   0  0  0  0  0  0  0  0  0  0  0  0
   -7.3066    2.4649   16.1035 H   0  0  0  0  0  0  0  0  0  0  0  0
   -4.3451    2.9648   16.5604 H   0  0  0  0  0  0  0  0  0  0  0  0
   -5.4187    2.2837   17.8550 H   0  0  0  0  0  0  0  0  0  0  0  0
   -4.8838    0.2823   16.9510 H   0  0  0  0  0  0  0  0  0  0  0  0
   -6.1038    0.7489   15.6864 H   0  0  0  0  0  0  0  0  0  0  0  0
   -3.3400    0.2620   15.3600 H   0  0  0  0  0  0  0  0  0  0  0  0
   -3.6010    1.8510   15.1080 H   0  0  0  0  0  0  0  0  0  0  0  0
   -4.1893   -0.3074   13.3433 H   0  0  0  0  0  0  0  0  0  0  0  0
   -5.6400    0.7183   13.6419 H   0  0  0  0  0  0  0  0  0  0  0  0
   -4.0569    2.7408   13.2206 H   0  0  0  0  0  0  0  0  0  0  0  0
   -2.9289    1.5068   12.5106 H   0  0  0  0  0  0  0  0  0  0  0  0
   -5.7780    2.1089   11.5826 H   0  0  0  0  0  0  0  0  0  0  0  0
   -4.2410    2.5506   10.7390 H   0  0  0  0  0  0  0  0  0  0  0  0
   -5.3810    0.4100    9.9270 H   0  0  0  0  0  0  0  0  0  0  0  0
   -3.7880    0.3060   10.2970 H   0  0  0  0  0  0  0  0  0  0  0  0
   -4.8890   -0.3070   11.3430 H   0  0  0  0  0  0  0  0  0  0  0  0
  1  2  1  0
  2  3  1  0
  3  4  1  0
  4  5  1  0
  5  6  1  0
  6  7  1  0
  7  8  1  0
  8  9  1  0
  9 10  1  0
 10 11  1  0
 11 12  1  0
 12 13  1  0
 13 14  1  0
  1 15  1  0
  1 16  1  0
  1 17  1  0
  2 18  1  0
  2 19  1  0
  3 20  1  0
  3 21  1  0
  4 22  1  0
  4 23  1  0
  5 24  1  0
  5 25  1  0
  6 26  1  0
  6 27  1  0
  7 28  1  0
  7 29  1  0
  8 30  1  0
  8 31  1  0
  9 32  1  0
  9 33  1  0
 10 34  1  0
 10 35  1  0
 11 36  1  0
 11 37  1  0
 12 38  1  0
 12 39  1  0
 13 40  1  0
 13 41  1  0
 14 42  1  0
 14 43  1  0
 14 44  1  0
M  CHG  4   1   1   5   1  10   1  14   1
M  END
>  <meeko>  (8) 
{"is_sidechain": [false], "free_energy": -3.755, "intermolecular_energy": -6.437, "internal_energy": -0.565}

$$$$
