4bkt_ligand
     RDKit          3D

 36 37  0  0  0  0  0  0  0  0999 V2000
   -5.5080   35.1410    3.6550 C   0  0  0  0  0  0  0  0  0  0  0  0
   -6.6520   34.8490    2.8270 N   0  0  0  0  0  0  0  0  0  0  0  0
   -6.4930   34.2750    1.5800 C   0  0  0  0  0  0  0  0  0  0  0  0
   -5.4040   33.9120    1.1460 O   0  0  0  0  0  0  0  0  0  0  0  0
   -7.8090   34.1260    0.7880 C   0  0  2  0  0  0  0  0  0  0  0  0
   -8.7690   33.1950    1.5270 C   0  0  0  0  0  0  0  0  0  0  0  0
   -8.3920   31.8150    0.9900 C   0  0  1  0  0  0  0  0  0  0  0  0
   -9.4700   30.9130    1.1710 O   0  0  0  0  0  0  0  0  0  0  0  0
   -8.0880   32.1010   -0.4800 C   0  0  0  0  0  0  0  0  0  0  0  0
   -7.6120   33.4720   -0.5090 N   0  0  0  0  0  0  0  0  0  0  0  0
   -7.1560   34.0320   -1.6800 C   0  0  0  0  0  0  0  0  0  0  0  0
   -6.3330   34.9510   -1.6730 O   0  0  0  0  0  0  0  0  0  0  0  0
   -7.6760   33.4830   -2.9970 C   0  0  0  0  0  0  0  0  0  0  0  0
   -8.6400   34.4380   -3.5840 C   0  0  0  0  0  0  0  0  0  0  0  0
   -8.5910   35.7660   -3.9290 C   0  0  0  0  0  0  0  0  0  0  0  0
   -9.8730   36.0390   -4.4550 C   0  0  0  0  0  0  0  0  0  0  0  0
  -10.3940   37.3140   -4.9930 C   0  0  0  0  0  0  0  0  0  0  0  0
  -10.6510   34.9490   -4.4270 N   0  0  0  0  0  0  0  0  0  0  0  0
   -9.8770   33.9490   -3.8690 O   0  0  0  0  0  0  0  0  0  0  0  0
   -5.7941   35.0680    4.7146 H   0  0  0  0  0  0  0  0  0  0  0  0
   -4.7065   34.4186    3.4410 H   0  0  0  0  0  0  0  0  0  0  0  0
   -5.1508   36.1591    3.4410 H   0  0  0  0  0  0  0  0  0  0  0  0
   -7.5210   35.3250    3.0390 H   0  0  0  0  0  0  0  0  0  0  0  0
   -8.1923   35.1501    0.6683 H   0  0  0  0  0  0  0  0  0  0  0  0
   -8.6154   33.2513    2.6148 H   0  0  0  0  0  0  0  0  0  0  0  0
   -9.8274   33.4480    1.3666 H   0  0  0  0  0  0  0  0  0  0  0  0
   -7.5413   31.3374    1.4981 H   0  0  0  0  0  0  0  0  0  0  0  0
   -9.8760   30.7640    0.3000 H   0  0  0  0  0  0  0  0  0  0  0  0
   -7.3135   31.4155   -0.8544 H   0  0  0  0  0  0  0  0  0  0  0  0
   -8.9723   31.9586   -1.1186 H   0  0  0  0  0  0  0  0  0  0  0  0
   -6.8351   33.3379   -3.6911 H   0  0  0  0  0  0  0  0  0  0  0  0
   -8.1765   32.5196   -2.8200 H   0  0  0  0  0  0  0  0  0  0  0  0
   -7.7447   36.4603   -3.8203 H   0  0  0  0  0  0  0  0  0  0  0  0
  -10.6659   37.9795   -4.1604 H   0  0  0  0  0  0  0  0  0  0  0  0
   -9.6204   37.7952   -5.6094 H   0  0  0  0  0  0  0  0  0  0  0  0
  -11.2832   37.1158   -5.6094 H   0  0  0  0  0  0  0  0  0  0  0  0
  1  2  1  0
  2  3  1  0
  3  4  2  0
  3  5  1  0
  5  6  1  0
  6  7  1  0
  7  8  1  0
  7  9  1  0
  9 10  1  0
 10 11  1  0
 11 12  2  0
 11 13  1  0
 13 14  1  0
 14 15  2  0
 15 16  1  0
 16 17  1  0
 16 18  2  0
 18 19  1  0
 10  5  1  0
 19 14  1  0
  1 20  1  0
  1 21  1  0
  1 22  1  0
  2 23  1  0
  5 24  1  6
  6 25  1  0
  6 26  1  0
  7 27  1  1
  8 28  1  0
  9 29  1  0
  9 30  1  0
 13 31  1  0
 13 32  1  0
 15 33  1  0
 17 34  1  0
 17 35  1  0
 17 36  1  0
M  END
>  <meeko>  (1) 
{"is_sidechain": [false], "free_energy": -6.435, "intermolecular_energy": -8.127, "internal_energy": -0.348}

$$$$
4bkt_ligand
     RDKit          3D

 36 37  0  0  0  0  0  0  0  0999 V2000
   -2.8490   34.6200   -1.1040 C   0  0  0  0  0  0  0  0  0  0  0  0
   -4.2620   34.9030   -1.1650 N   0  0  0  0  0  0  0  0  0  0  0  0
   -5.1040   34.5150   -0.1410 C   0  0  0  0  0  0  0  0  0  0  0  0
   -4.7010   33.9950    0.8950 O   0  0  0  0  0  0  0  0  0  0  0  0
   -6.5950   34.8040   -0.4140 C   0  0  2  0  0  0  0  0  0  0  0  0
   -7.3940   34.7430    0.8870 C   0  0  0  0  0  0  0  0  0  0  0  0
   -7.7870   33.2690    0.9810 C   0  0  1  0  0  0  0  0  0  0  0  0
   -8.9150   33.1210    1.8240 O   0  0  0  0  0  0  0  0  0  0  0  0
   -8.0740   32.9080   -0.4760 C   0  0  0  0  0  0  0  0  0  0  0  0
   -7.2190   33.7810   -1.2590 N   0  0  0  0  0  0  0  0  0  0  0  0
   -7.1560   33.6580   -2.6280 C   0  0  0  0  0  0  0  0  0  0  0  0
   -6.1130   33.8900   -3.2450 O   0  0  0  0  0  0  0  0  0  0  0  0
   -8.4010   33.2120   -3.3740 C   0  0  0  0  0  0  0  0  0  0  0  0
   -9.1260   34.3980   -3.8780 C   0  0  0  0  0  0  0  0  0  0  0  0
   -8.8320   35.7350   -3.9800 C   0  0  0  0  0  0  0  0  0  0  0  0
   -9.9810   36.3020   -4.5740 C   0  0  0  0  0  0  0  0  0  0  0  0
  -10.2300   37.7160   -4.9310 C   0  0  0  0  0  0  0  0  0  0  0  0
  -10.9130   35.3710   -4.8140 N   0  0  0  0  0  0  0  0  0  0  0  0
  -10.3770   34.1790   -4.3640 O   0  0  0  0  0  0  0  0  0  0  0  0
   -2.5328   34.5567   -0.0523 H   0  0  0  0  0  0  0  0  0  0  0  0
   -2.6447   33.6631   -1.6066 H   0  0  0  0  0  0  0  0  0  0  0  0
   -2.2919   35.4244   -1.6066 H   0  0  0  0  0  0  0  0  0  0  0  0
   -4.6610   35.1170   -2.0720 H   0  0  0  0  0  0  0  0  0  0  0  0
   -6.6140   35.7921   -0.8970 H   0  0  0  0  0  0  0  0  0  0  0  0
   -6.7749   35.0425    1.7455 H   0  0  0  0  0  0  0  0  0  0  0  0
   -8.2583   35.4233    0.8969 H   0  0  0  0  0  0  0  0  0  0  0  0
   -7.0221   32.6131    1.4222 H   0  0  0  0  0  0  0  0  0  0  0  0
   -8.6430   33.3730    2.7240 H   0  0  0  0  0  0  0  0  0  0  0  0
   -7.8278   31.8532   -0.6679 H   0  0  0  0  0  0  0  0  0  0  0  0
   -9.1365   33.0366   -0.7302 H   0  0  0  0  0  0  0  0  0  0  0  0
   -8.1115   32.5723   -4.2207 H   0  0  0  0  0  0  0  0  0  0  0  0
   -9.0533   32.6462   -2.6926 H   0  0  0  0  0  0  0  0  0  0  0  0
   -7.9101   36.2485   -3.6694 H   0  0  0  0  0  0  0  0  0  0  0  0
  -10.3351   38.3129   -4.0130 H   0  0  0  0  0  0  0  0  0  0  0  0
   -9.3855   38.0990   -5.5227 H   0  0  0  0  0  0  0  0  0  0  0  0
  -11.1545   37.7874   -5.5227 H   0  0  0  0  0  0  0  0  0  0  0  0
  1  2  1  0
  2  3  1  0
  3  4  2  0
  3  5  1  0
  5  6  1  0
  6  7  1  0
  7  8  1  0
  7  9  1  0
  9 10  1  0
 10 11  1  0
 11 12  2  0
 11 13  1  0
 13 14  1  0
 14 15  2  0
 15 16  1  0
 16 17  1  0
 16 18  2  0
 18 19  1  0
 10  5  1  0
 19 14  1  0
  1 20  1  0
  1 21  1  0
  1 22  1  0
  2 23  1  0
  5 24  1  6
  6 25  1  0
  6 26  1  0
  7 27  1  1
  8 28  1  0
  9 29  1  0
  9 30  1  0
 13 31  1  0
 13 32  1  0
 15 33  1  0
 17 34  1  0
 17 35  1  0
 17 36  1  0
M  END
>  <meeko>  (2) 
{"is_sidechain": [false], "free_energy": -5.568, "intermolecular_energy": -6.859, "internal_energy": -0.522}

$$$$
4bkt_ligand
     RDKit          3D

 36 37  0  0  0  0  0  0  0  0999 V2000
   -5.3650   34.9870    3.6720 C   0  0  0  0  0  0  0  0  0  0  0  0
   -6.5480   34.7350    2.8880 N   0  0  0  0  0  0  0  0  0  0  0  0
   -6.4500   34.2400    1.6010 C   0  0  0  0  0  0  0  0  0  0  0  0
   -5.3820   33.9150    1.0900 O   0  0  0  0  0  0  0  0  0  0  0  0
   -7.8040   34.1270    0.8700 C   0  0  2  0  0  0  0  0  0  0  0  0
   -8.7260   33.1580    1.6090 C   0  0  0  0  0  0  0  0  0  0  0  0
   -8.3770   31.8080    0.9860 C   0  0  1  0  0  0  0  0  0  0  0  0
   -9.4440   30.8950    1.1760 O   0  0  0  0  0  0  0  0  0  0  0  0
   -8.1470   32.1660   -0.4820 C   0  0  0  0  0  0  0  0  0  0  0  0
   -7.6720   33.5390   -0.4660 N   0  0  0  0  0  0  0  0  0  0  0  0
   -7.2760   34.1570   -1.6300 C   0  0  0  0  0  0  0  0  0  0  0  0
   -6.7270   35.2620   -1.6140 O   0  0  0  0  0  0  0  0  0  0  0  0
   -7.5150   33.4420   -2.9480 C   0  0  0  0  0  0  0  0  0  0  0  0
   -6.2180   33.0550   -3.5430 C   0  0  0  0  0  0  0  0  0  0  0  0
   -5.7160   33.0250   -4.8210 C   0  0  0  0  0  0  0  0  0  0  0  0
   -4.3920   32.5570   -4.6650 C   0  0  0  0  0  0  0  0  0  0  0  0
   -3.3680   32.3320   -5.7080 C   0  0  0  0  0  0  0  0  0  0  0  0
   -4.1110   32.3150   -3.3780 N   0  0  0  0  0  0  0  0  0  0  0  0
   -5.2640   32.6170   -2.6790 O   0  0  0  0  0  0  0  0  0  0  0  0
   -5.6158   34.9336    4.7417 H   0  0  0  0  0  0  0  0  0  0  0  0
   -4.6011   34.2314    3.4363 H   0  0  0  0  0  0  0  0  0  0  0  0
   -4.9753   35.9883    3.4363 H   0  0  0  0  0  0  0  0  0  0  0  0
   -7.4080   35.1890    3.1720 H   0  0  0  0  0  0  0  0  0  0  0  0
   -8.1932   35.1547    0.8210 H   0  0  0  0  0  0  0  0  0  0  0  0
   -8.5179   33.1605    2.6891 H   0  0  0  0  0  0  0  0  0  0  0  0
   -9.7911   33.4163    1.5147 H   0  0  0  0  0  0  0  0  0  0  0  0
   -7.5016   31.3087    1.4268 H   0  0  0  0  0  0  0  0  0  0  0  0
   -9.6600   30.5120    0.3080 H   0  0  0  0  0  0  0  0  0  0  0  0
   -7.3925   31.5014   -0.9281 H   0  0  0  0  0  0  0  0  0  0  0  0
   -9.0618   32.0530   -1.0823 H   0  0  0  0  0  0  0  0  0  0  0  0
   -8.1205   32.5408   -2.7713 H   0  0  0  0  0  0  0  0  0  0  0  0
   -8.0479   34.1135   -3.6372 H   0  0  0  0  0  0  0  0  0  0  0  0
   -6.2283   33.3023   -5.7541 H   0  0  0  0  0  0  0  0  0  0  0  0
   -2.3997   32.1192   -5.2314 H   0  0  0  0  0  0  0  0  0  0  0  0
   -3.6641   31.4775   -6.3342 H   0  0  0  0  0  0  0  0  0  0  0  0
   -3.2786   33.2319   -6.3342 H   0  0  0  0  0  0  0  0  0  0  0  0
  1  2  1  0
  2  3  1  0
  3  4  2  0
  3  5  1  0
  5  6  1  0
  6  7  1  0
  7  8  1  0
  7  9  1  0
  9 10  1  0
 10 11  1  0
 11 12  2  0
 11 13  1  0
 13 14  1  0
 14 15  2  0
 15 16  1  0
 16 17  1  0
 16 18  2  0
 18 19  1  0
 10  5  1  0
 19 14  1  0
  1 20  1  0
  1 21  1  0
  1 22  1  0
  2 23  1  0
  5 24  1  6
  6 25  1  0
  6 26  1  0
  7 27  1  1
  8 28  1  0
  9 29  1  0
  9 30  1  0
 13 31  1  0
 13 32  1  0
 15 33  1  0
 17 34  1  0
 17 35  1  0
 17 36  1  0
M  END
>  <meeko>  (3) 
{"is_sidechain": [false], "free_energy": -5.556, "intermolecular_energy": -6.824, "internal_energy": -0.542}

$$$$
4bkt_ligand
     RDKit          3D

 36 37  0  0  0  0  0  0  0  0999 V2000
   -6.7280   36.9380    0.4090 C   0  0  0  0  0  0  0  0  0  0  0  0
   -6.5720   35.9280   -0.6080 N   0  0  0  0  0  0  0  0  0  0  0  0
   -6.9050   36.1920   -1.9230 C   0  0  0  0  0  0  0  0  0  0  0  0
   -7.2660   37.2990   -2.3110 O   0  0  0  0  0  0  0  0  0  0  0  0
   -6.7760   34.9720   -2.8580 C   0  0  2  0  0  0  0  0  0  0  0  0
   -7.4620   35.2530   -4.1940 C   0  0  0  0  0  0  0  0  0  0  0  0
   -8.9000   34.7980   -3.9450 C   0  0  1  0  0  0  0  0  0  0  0  0
   -9.5410   34.5200   -5.1770 O   0  0  0  0  0  0  0  0  0  0  0  0
   -8.7110   33.5580   -3.0730 C   0  0  0  0  0  0  0  0  0  0  0  0
   -7.4770   33.7920   -2.3430 N   0  0  0  0  0  0  0  0  0  0  0  0
   -7.0500   32.9020   -1.3850 C   0  0  0  0  0  0  0  0  0  0  0  0
   -5.8590   32.5960   -1.2810 O   0  0  0  0  0  0  0  0  0  0  0  0
   -8.0770   32.3080   -0.4380 C   0  0  0  0  0  0  0  0  0  0  0  0
   -7.7080   32.6300    0.9570 C   0  0  0  0  0  0  0  0  0  0  0  0
   -8.1300   32.1950    2.1900 C   0  0  0  0  0  0  0  0  0  0  0  0
   -7.3360   32.9180    3.1070 C   0  0  0  0  0  0  0  0  0  0  0  0
   -7.3480   32.8540    4.5840 C   0  0  0  0  0  0  0  0  0  0  0  0
   -6.4900   33.7410    2.4730 N   0  0  0  0  0  0  0  0  0  0  0  0
   -6.7360   33.5660    1.1250 O   0  0  0  0  0  0  0  0  0  0  0  0
   -6.6560   36.4719    1.4028 H   0  0  0  0  0  0  0  0  0  0  0  0
   -5.9359   37.6934    0.3001 H   0  0  0  0  0  0  0  0  0  0  0  0
   -7.7111   37.4192    0.3001 H   0  0  0  0  0  0  0  0  0  0  0  0
   -6.4990   34.9630   -0.3070 H   0  0  0  0  0  0  0  0  0  0  0  0
   -5.6948   34.7903   -2.9469 H   0  0  0  0  0  0  0  0  0  0  0  0
   -7.4234   36.3243   -4.4405 H   0  0  0  0  0  0  0  0  0  0  0  0
   -6.9857   34.7394   -5.0422 H   0  0  0  0  0  0  0  0  0  0  0  0
   -9.5439   35.5456   -3.4588 H   0  0  0  0  0  0  0  0  0  0  0  0
  -10.4430   34.2160   -4.9760 H   0  0  0  0  0  0  0  0  0  0  0  0
   -9.5552   33.4431   -2.3772 H   0  0  0  0  0  0  0  0  0  0  0  0
   -8.6667   32.6364   -3.6719 H   0  0  0  0  0  0  0  0  0  0  0  0
   -9.0682   32.7295   -0.6614 H   0  0  0  0  0  0  0  0  0  0  0  0
   -8.1045   31.2159   -0.5664 H   0  0  0  0  0  0  0  0  0  0  0  0
   -8.9098   31.4518    2.4125 H   0  0  0  0  0  0  0  0  0  0  0  0
   -7.1600   33.8565    4.9960 H   0  0  0  0  0  0  0  0  0  0  0  0
   -8.3292   32.4945    4.9275 H   0  0  0  0  0  0  0  0  0  0  0  0
   -6.5637   32.1634    4.9275 H   0  0  0  0  0  0  0  0  0  0  0  0
  1  2  1  0
  2  3  1  0
  3  4  2  0
  3  5  1  0
  5  6  1  0
  6  7  1  0
  7  8  1  0
  7  9  1  0
  9 10  1  0
 10 11  1  0
 11 12  2  0
 11 13  1  0
 13 14  1  0
 14 15  2  0
 15 16  1  0
 16 17  1  0
 16 18  2  0
 18 19  1  0
 10  5  1  0
 19 14  1  0
  1 20  1  0
  1 21  1  0
  1 22  1  0
  2 23  1  0
  5 24  1  6
  6 25  1  0
  6 26  1  0
  7 27  1  1
  8 28  1  0
  9 29  1  0
  9 30  1  0
 13 31  1  0
 13 32  1  0
 15 33  1  0
 17 34  1  0
 17 35  1  0
 17 36  1  0
M  END
>  <meeko>  (4) 
{"is_sidechain": [false], "free_energy": -5.458, "intermolecular_energy": -6.888, "internal_energy": -0.352}

$$$$
4bkt_ligand
     RDKit          3D

 36 37  0  0  0  0  0  0  0  0999 V2000
   -3.9660   34.5520    1.7690 C   0  0  0  0  0  0  0  0  0  0  0  0
   -5.2200   34.5010    1.0600 N   0  0  0  0  0  0  0  0  0  0  0  0
   -6.3860   34.1480    1.7120 C   0  0  0  0  0  0  0  0  0  0  0  0
   -6.4390   33.9420    2.9210 O   0  0  0  0  0  0  0  0  0  0  0  0
   -7.6140   34.0440    0.7840 C   0  0  2  0  0  0  0  0  0  0  0  0
   -8.7290   33.2530    1.4680 C   0  0  0  0  0  0  0  0  0  0  0  0
   -8.4190   31.8100    1.0740 C   0  0  1  0  0  0  0  0  0  0  0  0
   -9.5860   31.0140    1.1900 O   0  0  0  0  0  0  0  0  0  0  0  0
   -7.9310   31.9540   -0.3660 C   0  0  0  0  0  0  0  0  0  0  0  0
   -7.3350   33.2760   -0.4330 N   0  0  0  0  0  0  0  0  0  0  0  0
   -6.7050   33.7040   -1.5800 C   0  0  0  0  0  0  0  0  0  0  0  0
   -5.5260   33.4200   -1.8070 O   0  0  0  0  0  0  0  0  0  0  0  0
   -7.4980   34.5290   -2.5780 C   0  0  0  0  0  0  0  0  0  0  0  0
   -7.1630   35.9600   -2.4140 C   0  0  0  0  0  0  0  0  0  0  0  0
   -6.2820   36.6580   -1.6240 C   0  0  0  0  0  0  0  0  0  0  0  0
   -6.4750   38.0070   -1.9940 C   0  0  0  0  0  0  0  0  0  0  0  0
   -5.7890   39.2110   -1.4750 C   0  0  0  0  0  0  0  0  0  0  0  0
   -7.4130   38.1210   -2.9430 N   0  0  0  0  0  0  0  0  0  0  0  0
   -7.8510   36.8350   -3.1940 O   0  0  0  0  0  0  0  0  0  0  0  0
   -4.1567   34.5442    2.8523 H   0  0  0  0  0  0  0  0  0  0  0  0
   -3.3557   33.6779    1.4979 H   0  0  0  0  0  0  0  0  0  0  0  0
   -3.4287   35.4727    1.4979 H   0  0  0  0  0  0  0  0  0  0  0  0
   -5.1880   34.4400    0.0480 H   0  0  0  0  0  0  0  0  0  0  0  0
   -7.8882   35.0834    0.5505 H   0  0  0  0  0  0  0  0  0  0  0  0
   -8.6920   33.3812    2.5599 H   0  0  0  0  0  0  0  0  0  0  0  0
   -9.7366   33.5770    1.1684 H   0  0  0  0  0  0  0  0  0  0  0  0
   -7.6747   31.3074    1.7091 H   0  0  0  0  0  0  0  0  0  0  0  0
   -9.4550   30.2210    0.6430 H   0  0  0  0  0  0  0  0  0  0  0  0
   -7.1838   31.1813   -0.5996 H   0  0  0  0  0  0  0  0  0  0  0  0
   -8.7484   31.8332   -1.0922 H   0  0  0  0  0  0  0  0  0  0  0  0
   -7.2466   34.2087   -3.5999 H   0  0  0  0  0  0  0  0  0  0  0  0
   -8.5737   34.3825   -2.4010 H   0  0  0  0  0  0  0  0  0  0  0  0
   -5.5847   36.2571   -0.8737 H   0  0  0  0  0  0  0  0  0  0  0  0
   -5.7991   39.1933   -0.3752 H   0  0  0  0  0  0  0  0  0  0  0  0
   -4.7486   39.2227   -1.8320 H   0  0  0  0  0  0  0  0  0  0  0  0
   -6.3093   40.1120   -1.8320 H   0  0  0  0  0  0  0  0  0  0  0  0
  1  2  1  0
  2  3  1  0
  3  4  2  0
  3  5  1  0
  5  6  1  0
  6  7  1  0
  7  8  1  0
  7  9  1  0
  9 10  1  0
 10 11  1  0
 11 12  2  0
 11 13  1  0
 13 14  1  0
 14 15  2  0
 15 16  1  0
 16 17  1  0
 16 18  2  0
 18 19  1  0
 10  5  1  0
 19 14  1  0
  1 20  1  0
  1 21  1  0
  1 22  1  0
  2 23  1  0
  5 24  1  6
  6 25  1  0
  6 26  1  0
  7 27  1  1
  8 28  1  0
  9 29  1  0
  9 30  1  0
 13 31  1  0
 13 32  1  0
 15 33  1  0
 17 34  1  0
 17 35  1  0
 17 36  1  0
M  END
>  <meeko>  (5) 
{"is_sidechain": [false], "free_energy": -5.245, "intermolecular_energy": -6.393, "internal_energy": -0.58}

$$$$
4bkt_ligand
     RDKit          3D

 36 37  0  0  0  0  0  0  0  0999 V2000
   -8.5600   31.3930    1.0530 C   0  0  0  0  0  0  0  0  0  0  0  0
   -7.4520   32.0070    0.3640 N   0  0  0  0  0  0  0  0  0  0  0  0
   -7.2710   33.3760    0.3990 C   0  0  0  0  0  0  0  0  0  0  0  0
   -7.9730   34.1270    1.0700 O   0  0  0  0  0  0  0  0  0  0  0  0
   -6.1010   33.8750   -0.4750 C   0  0  2  0  0  0  0  0  0  0  0  0
   -5.3170   34.9620    0.2590 C   0  0  0  0  0  0  0  0  0  0  0  0
   -6.0460   36.2430   -0.1420 C   0  0  1  0  0  0  0  0  0  0  0  0
   -5.1920   37.3600    0.0270 O   0  0  0  0  0  0  0  0  0  0  0  0
   -6.4080   35.9780   -1.6030 C   0  0  0  0  0  0  0  0  0  0  0  0
   -6.5580   34.5370   -1.7000 N   0  0  0  0  0  0  0  0  0  0  0  0
   -6.9770   33.9540   -2.8740 C   0  0  0  0  0  0  0  0  0  0  0  0
   -6.1900   33.7380   -3.7990 O   0  0  0  0  0  0  0  0  0  0  0  0
   -8.4380   33.5630   -3.0080 C   0  0  0  0  0  0  0  0  0  0  0  0
   -9.1760   34.6370   -3.7050 C   0  0  0  0  0  0  0  0  0  0  0  0
   -8.8750   35.9220   -4.0840 C   0  0  0  0  0  0  0  0  0  0  0  0
  -10.0460   36.3800   -4.7280 C   0  0  0  0  0  0  0  0  0  0  0  0
  -10.2990   37.6980   -5.3480 C   0  0  0  0  0  0  0  0  0  0  0  0
  -10.9960   35.4360   -4.7370 N   0  0  0  0  0  0  0  0  0  0  0  0
  -10.4500   34.3480   -4.0830 O   0  0  0  0  0  0  0  0  0  0  0  0
   -8.4083   31.4771    2.1392 H   0  0  0  0  0  0  0  0  0  0  0  0
   -9.4938   31.9024    0.7727 H   0  0  0  0  0  0  0  0  0  0  0  0
   -8.6231   30.3312    0.7727 H   0  0  0  0  0  0  0  0  0  0  0  0
   -6.9970   31.4730   -0.3670 H   0  0  0  0  0  0  0  0  0  0  0  0
   -5.5059   32.9777   -0.7002 H   0  0  0  0  0  0  0  0  0  0  0  0
   -5.3552   34.8099    1.3478 H   0  0  0  0  0  0  0  0  0  0  0  0
   -4.2476   34.9735    0.0014 H   0  0  0  0  0  0  0  0  0  0  0  0
   -6.9343   36.4782    0.4626 H   0  0  0  0  0  0  0  0  0  0  0  0
   -4.2910   37.0220    0.1650 H   0  0  0  0  0  0  0  0  0  0  0  0
   -7.3495   36.4828   -1.8653 H   0  0  0  0  0  0  0  0  0  0  0  0
   -5.6416   36.3601   -2.2934 H   0  0  0  0  0  0  0  0  0  0  0  0
   -8.5160   32.6304   -3.5861 H   0  0  0  0  0  0  0  0  0  0  0  0
   -8.8695   33.4128   -2.0074 H   0  0  0  0  0  0  0  0  0  0  0  0
   -7.9352   36.4704   -3.9227 H   0  0  0  0  0  0  0  0  0  0  0  0
  -10.4437   38.4520   -4.5603 H   0  0  0  0  0  0  0  0  0  0  0  0
   -9.4387   37.9806   -5.9725 H   0  0  0  0  0  0  0  0  0  0  0  0
  -11.2028   37.6420   -5.9725 H   0  0  0  0  0  0  0  0  0  0  0  0
  1  2  1  0
  2  3  1  0
  3  4  2  0
  3  5  1  0
  5  6  1  0
  6  7  1  0
  7  8  1  0
  7  9  1  0
  9 10  1  0
 10 11  1  0
 11 12  2  0
 11 13  1  0
 13 14  1  0
 14 15  2  0
 15 16  1  0
 16 17  1  0
 16 18  2  0
 18 19  1  0
 10  5  1  0
 19 14  1  0
  1 20  1  0
  1 21  1  0
  1 22  1  0
  2 23  1  0
  5 24  1  6
  6 25  1  0
  6 26  1  0
  7 27  1  1
  8 28  1  0
  9 29  1  0
  9 30  1  0
 13 31  1  0
 13 32  1  0
 15 33  1  0
 17 34  1  0
 17 35  1  0
 17 36  1  0
M  END
>  <meeko>  (6) 
{"is_sidechain": [false], "free_energy": -5.219, "intermolecular_energy": -6.61, "internal_energy": -0.329}

$$$$
4bkt_ligand
     RDKit          3D

 36 37  0  0  0  0  0  0  0  0999 V2000
   -9.4300   39.7910   -4.3060 C   0  0  0  0  0  0  0  0  0  0  0  0
   -9.4650   38.4530   -4.8410 N   0  0  0  0  0  0  0  0  0  0  0  0
   -8.6690   37.4580   -4.3060 C   0  0  0  0  0  0  0  0  0  0  0  0
   -7.9640   37.6260   -3.3150 O   0  0  0  0  0  0  0  0  0  0  0  0
   -8.7540   36.1150   -5.0620 C   0  0  2  0  0  0  0  0  0  0  0  0
  -10.1970   35.8310   -5.4770 C   0  0  0  0  0  0  0  0  0  0  0  0
  -10.7630   35.0860   -4.2690 C   0  0  1  0  0  0  0  0  0  0  0  0
  -11.8940   34.3260   -4.6550 O   0  0  0  0  0  0  0  0  0  0  0  0
   -9.5820   34.2240   -3.8260 C   0  0  0  0  0  0  0  0  0  0  0  0
   -8.4000   34.9720   -4.2160 N   0  0  0  0  0  0  0  0  0  0  0  0
   -7.1430   34.5210   -3.8810 C   0  0  0  0  0  0  0  0  0  0  0  0
   -6.1510   35.2450   -3.9980 O   0  0  0  0  0  0  0  0  0  0  0  0
   -6.9990   33.1080   -3.3450 C   0  0  0  0  0  0  0  0  0  0  0  0
   -7.1020   33.1250   -1.8700 C   0  0  0  0  0  0  0  0  0  0  0  0
   -8.0300   32.6710   -0.9650 C   0  0  0  0  0  0  0  0  0  0  0  0
   -7.4850   33.0090    0.2940 C   0  0  0  0  0  0  0  0  0  0  0  0
   -8.0480   32.7570    1.6380 C   0  0  0  0  0  0  0  0  0  0  0  0
   -6.3070   33.6310    0.1610 N   0  0  0  0  0  0  0  0  0  0  0  0
   -6.0760   33.7130   -1.1990 O   0  0  0  0  0  0  0  0  0  0  0  0
   -9.4312   39.7466   -3.2069 H   0  0  0  0  0  0  0  0  0  0  0  0
   -8.5182   40.3003   -4.6514 H   0  0  0  0  0  0  0  0  0  0  0  0
  -10.3139   40.3472   -4.6514 H   0  0  0  0  0  0  0  0  0  0  0  0
   -9.8450   38.3260   -5.7720 H   0  0  0  0  0  0  0  0  0  0  0  0
   -8.0625   36.2172   -5.9114 H   0  0  0  0  0  0  0  0  0  0  0  0
  -10.7474   36.7660   -5.6581 H   0  0  0  0  0  0  0  0  0  0  0  0
  -10.2737   35.2590   -6.4134 H   0  0  0  0  0  0  0  0  0  0  0  0
  -11.1259   35.7313   -3.4554 H   0  0  0  0  0  0  0  0  0  0  0  0
  -11.7640   34.0560   -5.5810 H   0  0  0  0  0  0  0  0  0  0  0  0
   -9.6014   34.0730   -2.7366 H   0  0  0  0  0  0  0  0  0  0  0  0
   -9.6068   33.2243   -4.2843 H   0  0  0  0  0  0  0  0  0  0  0  0
   -7.7973   32.4755   -3.7606 H   0  0  0  0  0  0  0  0  0  0  0  0
   -6.0190   32.7037   -3.6385 H   0  0  0  0  0  0  0  0  0  0  0  0
   -8.9817   32.1601   -1.1731 H   0  0  0  0  0  0  0  0  0  0  0  0
   -7.3273   33.0796    2.4038 H   0  0  0  0  0  0  0  0  0  0  0  0
   -8.9847   33.3218    1.7550 H   0  0  0  0  0  0  0  0  0  0  0  0
   -8.2508   31.6822    1.7550 H   0  0  0  0  0  0  0  0  0  0  0  0
  1  2  1  0
  2  3  1  0
  3  4  2  0
  3  5  1  0
  5  6  1  0
  6  7  1  0
  7  8  1  0
  7  9  1  0
  9 10  1  0
 10 11  1  0
 11 12  2  0
 11 13  1  0
 13 14  1  0
 14 15  2  0
 15 16  1  0
 16 17  1  0
 16 18  2  0
 18 19  1  0
 10  5  1  0
 19 14  1  0
  1 20  1  0
  1 21  1  0
  1 22  1  0
  2 23  1  0
  5 24  1  6
  6 25  1  0
  6 26  1  0
  7 27  1  1
  8 28  1  0
  9 29  1  0
  9 30  1  0
 13 31  1  0
 13 32  1  0
 15 33  1  0
 17 34  1  0
 17 35  1  0
 17 36  1  0
M  END
>  <meeko>  (7) 
{"is_sidechain": [false], "free_energy": -5.203, "intermolecular_energy": -6.745, "internal_energy": -0.174}

$$$$
4bkt_ligand
     RDKit          3D

 36 37  0  0  0  0  0  0  0  0999 V2000
   -5.2050   32.1920   -5.2420 C   0  0  0  0  0  0  0  0  0  0  0  0
   -6.1260   32.6870   -4.2490 N   0  0  0  0  0  0  0  0  0  0  0  0
   -7.0330   33.6810   -4.5620 C   0  0  0  0  0  0  0  0  0  0  0  0
   -7.1650   34.1330   -5.6950 O   0  0  0  0  0  0  0  0  0  0  0  0
   -7.8710   34.1640   -3.3590 C   0  0  2  0  0  0  0  0  0  0  0  0
   -8.2380   35.6380   -3.5270 C   0  0  0  0  0  0  0  0  0  0  0  0
   -7.0570   36.3630   -2.8830 C   0  0  1  0  0  0  0  0  0  0  0  0
   -7.4390   37.6730   -2.5050 O   0  0  0  0  0  0  0  0  0  0  0  0
   -6.7250   35.4660   -1.6910 C   0  0  0  0  0  0  0  0  0  0  0  0
   -7.1180   34.1300   -2.1010 N   0  0  0  0  0  0  0  0  0  0  0  0
   -6.8710   33.0460   -1.2900 C   0  0  0  0  0  0  0  0  0  0  0  0
   -5.7670   32.4960   -1.2750 O   0  0  0  0  0  0  0  0  0  0  0  0
   -7.9880   32.5420   -0.3940 C   0  0  0  0  0  0  0  0  0  0  0  0
   -7.6340   32.7830    1.0210 C   0  0  0  0  0  0  0  0  0  0  0  0
   -8.0840   32.2930    2.2230 C   0  0  0  0  0  0  0  0  0  0  0  0
   -7.2880   32.9500    3.1880 C   0  0  0  0  0  0  0  0  0  0  0  0
   -7.3230   32.8090    4.6590 C   0  0  0  0  0  0  0  0  0  0  0  0
   -6.4160   33.7860    2.6100 N   0  0  0  0  0  0  0  0  0  0  0  0
   -6.6450   33.6870    1.2510 O   0  0  0  0  0  0  0  0  0  0  0  0
   -4.3417   31.7280   -4.7425 H   0  0  0  0  0  0  0  0  0  0  0  0
   -5.7105   31.4441   -5.8705 H   0  0  0  0  0  0  0  0  0  0  0  0
   -4.8602   33.0263   -5.8705 H   0  0  0  0  0  0  0  0  0  0  0  0
   -5.9070   32.5140   -3.2750 H   0  0  0  0  0  0  0  0  0  0  0  0
   -8.7422   33.4933   -3.3254 H   0  0  0  0  0  0  0  0  0  0  0  0
   -8.3321   35.9031   -4.5904 H   0  0  0  0  0  0  0  0  0  0  0  0
   -9.2055   35.8979   -3.0728 H   0  0  0  0  0  0  0  0  0  0  0  0
   -6.1878   36.5064   -3.5417 H   0  0  0  0  0  0  0  0  0  0  0  0
   -6.6700   38.0930   -2.0830 H   0  0  0  0  0  0  0  0  0  0  0  0
   -5.6480   35.5008   -1.4698 H   0  0  0  0  0  0  0  0  0  0  0  0
   -7.2463   35.7863   -0.7768 H   0  0  0  0  0  0  0  0  0  0  0  0
   -8.9195   33.0754   -0.6345 H   0  0  0  0  0  0  0  0  0  0  0  0
   -8.1294   31.4634   -0.5572 H   0  0  0  0  0  0  0  0  0  0  0  0
   -8.8827   31.5564    2.3951 H   0  0  0  0  0  0  0  0  0  0  0  0
   -7.0830   33.7757    5.1258 H   0  0  0  0  0  0  0  0  0  0  0  0
   -8.3277   32.4896    4.9729 H   0  0  0  0  0  0  0  0  0  0  0  0
   -6.5843   32.0568    4.9729 H   0  0  0  0  0  0  0  0  0  0  0  0
  1  2  1  0
  2  3  1  0
  3  4  2  0
  3  5  1  0
  5  6  1  0
  6  7  1  0
  7  8  1  0
  7  9  1  0
  9 10  1  0
 10 11  1  0
 11 12  2  0
 11 13  1  0
 13 14  1  0
 14 15  2  0
 15 16  1  0
 16 17  1  0
 16 18  2  0
 18 19  1  0
 10  5  1  0
 19 14  1  0
  1 20  1  0
  1 21  1  0
  1 22  1  0
  2 23  1  0
  5 24  1  1
  6 25  1  0
  6 26  1  0
  7 27  1  6
  8 28  1  0
  9 29  1  0
  9 30  1  0
 13 31  1  0
 13 32  1  0
 15 33  1  0
 17 34  1  0
 17 35  1  0
 17 36  1  0
M  END
>  <meeko>  (8) 
{"is_sidechain": [false], "free_energy": -5.191, "intermolecular_energy": -6.567, "internal_energy": -0.338}

$$$$
4bkt_ligand
     RDKit          3D

 36 37  0  0  0  0  0  0  0  0999 V2000
   -8.6030   31.3740    1.1950 C   0  0  0  0  0  0  0  0  0  0  0  0
   -8.7050   32.3760    0.1620 N   0  0  0  0  0  0  0  0  0  0  0  0
   -7.6360   32.6400   -0.6730 C   0  0  0  0  0  0  0  0  0  0  0  0
   -6.5910   31.9970   -0.6440 O   0  0  0  0  0  0  0  0  0  0  0  0
   -7.8800   33.8090   -1.6500 C   0  0  2  0  0  0  0  0  0  0  0  0
   -8.0150   33.2850   -3.0790 C   0  0  0  0  0  0  0  0  0  0  0  0
   -6.5730   33.2820   -3.5820 C   0  0  1  0  0  0  0  0  0  0  0  0
   -6.5530   33.3070   -4.9980 O   0  0  0  0  0  0  0  0  0  0  0  0
   -5.9950   34.5470   -2.9510 C   0  0  0  0  0  0  0  0  0  0  0  0
   -6.7420   34.7300   -1.7180 N   0  0  0  0  0  0  0  0  0  0  0  0
   -6.4140   35.7390   -0.8420 C   0  0  0  0  0  0  0  0  0  0  0  0
   -7.1540   36.7120   -0.6800 O   0  0  0  0  0  0  0  0  0  0  0  0
   -5.1180   35.6270   -0.0600 C   0  0  0  0  0  0  0  0  0  0  0  0
   -5.4190   35.3240    1.3560 C   0  0  0  0  0  0  0  0  0  0  0  0
   -5.3830   36.0460    2.5230 C   0  0  0  0  0  0  0  0  0  0  0  0
   -5.8140   35.1330    3.5120 C   0  0  0  0  0  0  0  0  0  0  0  0
   -5.9800   35.3600    4.9640 C   0  0  0  0  0  0  0  0  0  0  0  0
   -6.0900   33.9360    2.9790 N   0  0  0  0  0  0  0  0  0  0  0  0
   -5.8290   34.0560    1.6280 O   0  0  0  0  0  0  0  0  0  0  0  0
   -8.6523   31.8581    2.1815 H   0  0  0  0  0  0  0  0  0  0  0  0
   -9.4330   30.6590    1.0955 H   0  0  0  0  0  0  0  0  0  0  0  0
   -7.6459   30.8409    1.0955 H   0  0  0  0  0  0  0  0  0  0  0  0
   -9.4410   33.0670    0.2470 H   0  0  0  0  0  0  0  0  0  0  0  0
   -8.7840   34.3133   -1.2779 H   0  0  0  0  0  0  0  0  0  0  0  0
   -8.4394   32.2702   -3.0895 H   0  0  0  0  0  0  0  0  0  0  0  0
   -8.6896   33.8916   -3.7010 H   0  0  0  0  0  0  0  0  0  0  0  0
   -5.9916   32.3884   -3.3109 H   0  0  0  0  0  0  0  0  0  0  0  0
   -7.2200   33.9530   -5.2890 H   0  0  0  0  0  0  0  0  0  0  0  0
   -4.9236   34.4175   -2.7379 H   0  0  0  0  0  0  0  0  0  0  0  0
   -6.0814   35.4171   -3.6184 H   0  0  0  0  0  0  0  0  0  0  0  0
   -4.5026   34.8201   -0.4845 H   0  0  0  0  0  0  0  0  0  0  0  0
   -4.5699   36.5787   -0.1220 H   0  0  0  0  0  0  0  0  0  0  0  0
   -5.0861   37.0966    2.6578 H   0  0  0  0  0  0  0  0  0  0  0  0
   -5.4201   34.5944    5.5212 H   0  0  0  0  0  0  0  0  0  0  0  0
   -5.5967   36.3574    5.2254 H   0  0  0  0  0  0  0  0  0  0  0  0
   -7.0466   35.2971    5.2254 H   0  0  0  0  0  0  0  0  0  0  0  0
  1  2  1  0
  2  3  1  0
  3  4  2  0
  3  5  1  0
  5  6  1  0
  6  7  1  0
  7  8  1  0
  7  9  1  0
  9 10  1  0
 10 11  1  0
 11 12  2  0
 11 13  1  0
 13 14  1  0
 14 15  2  0
 15 16  1  0
 16 17  1  0
 16 18  2  0
 18 19  1  0
 10  5  1  0
 19 14  1  0
  1 20  1  0
  1 21  1  0
  1 22  1  0
  2 23  1  0
  5 24  1  1
  6 25  1  0
  6 26  1  0
  7 27  1  1
  8 28  1  0
  9 29  1  0
  9 30  1  0
 13 31  1  0
 13 32  1  0
 15 33  1  0
 17 34  1  0
 17 35  1  0
 17 36  1  0
M  END
>  <meeko>  (9) 
{"is_sidechain": [false], "free_energy": -5.148, "intermolecular_energy": -6.315, "internal_energy": -0.534}

$$$$
