2ymd_ligand
     RDKit          3D

 26 27  0  0  0  0  0  0  0  0999 V2000
   11.0980    5.0750    7.5480 N   0  0  0  0  0  0  0  0  0  0  0  0
   10.0470    5.9480    6.9580 C   0  0  0  0  0  0  0  0  0  0  0  0
   10.1760    7.3860    7.4700 C   0  0  0  0  0  0  0  0  0  0  0  0
   11.4850    8.0120    7.1050 C   0  0  0  0  0  0  0  0  0  0  0  0
   12.0850    7.9760    5.8610 C   0  0  0  0  0  0  0  0  0  0  0  0
   13.2590    8.6800    5.9270 N   0  0  0  0  0  0  0  0  0  0  0  0
   13.4180    9.2120    7.1850 C   0  0  0  0  0  0  0  0  0  0  0  0
   14.4390   10.0250    7.6880 C   0  0  0  0  0  0  0  0  0  0  0  0
   14.3640   10.4000    9.0310 C   0  0  0  0  0  0  0  0  0  0  0  0
   13.3200    9.9570    9.8300 C   0  0  0  0  0  0  0  0  0  0  0  0
   13.3250   10.3490   11.1370 O   0  0  0  0  0  0  0  0  0  0  0  0
   12.3010    9.1490    9.3240 C   0  0  0  0  0  0  0  0  0  0  0  0
   12.3430    8.7770    7.9610 C   0  0  0  0  0  0  0  0  0  0  0  0
   11.9190    5.0370    6.9230 H   0  0  0  0  0  0  0  0  0  0  0  0
   11.4280    5.4290    8.4540 H   0  0  0  0  0  0  0  0  0  0  0  0
   10.7680    4.1110    7.6780 H   0  0  0  0  0  0  0  0  0  0  0  0
   10.1505    5.9455    5.8629 H   0  0  0  0  0  0  0  0  0  0  0  0
    9.0616    5.5582    7.2531 H   0  0  0  0  0  0  0  0  0  0  0  0
    9.3643    7.9885    7.0362 H   0  0  0  0  0  0  0  0  0  0  0  0
   10.1164    7.3551    8.5679 H   0  0  0  0  0  0  0  0  0  0  0  0
   11.6880    7.4687    4.9694 H   0  0  0  0  0  0  0  0  0  0  0  0
   13.9240    8.7920    5.1710 H   0  0  0  0  0  0  0  0  0  0  0  0
   15.2706   10.3568    7.0490 H   0  0  0  0  0  0  0  0  0  0  0  0
   15.1394   11.0523    9.4591 H   0  0  0  0  0  0  0  0  0  0  0  0
   14.1210   10.0100   11.5770 H   0  0  0  0  0  0  0  0  0  0  0  0
   11.4810    8.8082    9.9732 H   0  0  0  0  0  0  0  0  0  0  0  0
  1  2  1  0
  2  3  1  0
  3  4  1  0
  4  5  2  0
  5  6  1  0
  6  7  1  0
  7  8  2  0
  8  9  1  0
  9 10  2  0
 10 11  1  0
 10 12  1  0
 12 13  2  0
 13  4  1  0
 13  7  1  0
  1 14  1  0
  1 15  1  0
  1 16  1  0
  2 17  1  0
  2 18  1  0
  3 19  1  0
  3 20  1  0
  5 21  1  0
  6 22  1  0
  8 23  1  0
  9 24  1  0
 11 25  1  0
 12 26  1  0
M  CHG  1   1   1
M  END
>  <meeko>  (1) 
{"is_sidechain": [false], "free_energy": -7.404, "intermolecular_energy": -8.702, "internal_energy": -0.088}

$$$$
2ymd_ligand
     RDKit          3D

 26 27  0  0  0  0  0  0  0  0999 V2000
   14.5400   11.8890    9.8020 N   0  0  0  0  0  0  0  0  0  0  0  0
   13.2210   11.2000    9.7920 C   0  0  0  0  0  0  0  0  0  0  0  0
   13.3920    9.6880    9.6200 C   0  0  0  0  0  0  0  0  0  0  0  0
   13.2260    9.2470    8.2000 C   0  0  0  0  0  0  0  0  0  0  0  0
   13.9670    9.6860    7.1200 C   0  0  0  0  0  0  0  0  0  0  0  0
   13.5250    9.0340    5.9980 N   0  0  0  0  0  0  0  0  0  0  0  0
   12.5320    8.1430    6.3330 C   0  0  0  0  0  0  0  0  0  0  0  0
   11.8260    7.2480    5.5240 C   0  0  0  0  0  0  0  0  0  0  0  0
   10.8350    6.4720    6.1290 C   0  0  0  0  0  0  0  0  0  0  0  0
   10.5570    6.6120    7.4820 C   0  0  0  0  0  0  0  0  0  0  0  0
    9.5620    5.8350    7.9980 O   0  0  0  0  0  0  0  0  0  0  0  0
   11.2660    7.5060    8.2870 C   0  0  0  0  0  0  0  0  0  0  0  0
   12.2900    8.2820    7.7010 C   0  0  0  0  0  0  0  0  0  0  0  0
   14.5010   12.7210   10.4120 H   0  0  0  0  0  0  0  0  0  0  0  0
   15.2870   11.2850   10.1670 H   0  0  0  0  0  0  0  0  0  0  0  0
   14.8130   12.2100    8.8650 H   0  0  0  0  0  0  0  0  0  0  0  0
   12.7049   11.3976   10.7431 H   0  0  0  0  0  0  0  0  0  0  0  0
   12.6318   11.5841    8.9463 H   0  0  0  0  0  0  0  0  0  0  0  0
   14.3994    9.4066    9.9606 H   0  0  0  0  0  0  0  0  0  0  0  0
   12.6094    9.1948   10.2152 H   0  0  0  0  0  0  0  0  0  0  0  0
   14.7746   10.4321    7.1544 H   0  0  0  0  0  0  0  0  0  0  0  0
   13.8650    9.1830    5.0560 H   0  0  0  0  0  0  0  0  0  0  0  0
   12.0432    7.1582    4.4494 H   0  0  0  0  0  0  0  0  0  0  0  0
   10.2700    5.7438    5.5286 H   0  0  0  0  0  0  0  0  0  0  0  0
    9.6870    4.9140    7.7170 H   0  0  0  0  0  0  0  0  0  0  0  0
   11.0313    7.6039    9.3572 H   0  0  0  0  0  0  0  0  0  0  0  0
  1  2  1  0
  2  3  1  0
  3  4  1  0
  4  5  2  0
  5  6  1  0
  6  7  1  0
  7  8  2  0
  8  9  1  0
  9 10  2  0
 10 11  1  0
 10 12  1  0
 12 13  2  0
 13  4  1  0
 13  7  1  0
  1 14  1  0
  1 15  1  0
  1 16  1  0
  2 17  1  0
  2 18  1  0
  3 19  1  0
  3 20  1  0
  5 21  1  0
  6 22  1  0
  8 23  1  0
  9 24  1  0
 11 25  1  0
 12 26  1  0
M  CHG  1   1   1
M  END
>  <meeko>  (2) 
{"is_sidechain": [false], "free_energy": -6.488, "intermolecular_energy": -7.646, "internal_energy": -0.068}

$$$$
2ymd_ligand
     RDKit          3D

 26 27  0  0  0  0  0  0  0  0999 V2000
   11.2860    5.0550    7.4250 N   0  0  0  0  0  0  0  0  0  0  0  0
   10.1230    5.8030    6.8760 C   0  0  0  0  0  0  0  0  0  0  0  0
   10.5360    7.2060    6.4210 C   0  0  0  0  0  0  0  0  0  0  0  0
   11.2620    7.9650    7.4860 C   0  0  0  0  0  0  0  0  0  0  0  0
   10.9180    8.0220    8.8230 C   0  0  0  0  0  0  0  0  0  0  0  0
   11.8390    8.8010    9.4740 N   0  0  0  0  0  0  0  0  0  0  0  0
   12.8050    9.2230    8.5920 C   0  0  0  0  0  0  0  0  0  0  0  0
   13.9470    9.9970    8.8210 C   0  0  0  0  0  0  0  0  0  0  0  0
   14.7500   10.3070    7.7210 C   0  0  0  0  0  0  0  0  0  0  0  0
   14.4030    9.8730    6.4490 C   0  0  0  0  0  0  0  0  0  0  0  0
   15.2260   10.2310    5.4220 O   0  0  0  0  0  0  0  0  0  0  0  0
   13.2640    9.0970    6.2250 C   0  0  0  0  0  0  0  0  0  0  0  0
   12.4510    8.7510    7.3260 C   0  0  0  0  0  0  0  0  0  0  0  0
   11.5240    5.4100    8.3640 H   0  0  0  0  0  0  0  0  0  0  0  0
   11.0850    4.0520    7.5260 H   0  0  0  0  0  0  0  0  0  0  0  0
   12.1220    5.1590    6.8370 H   0  0  0  0  0  0  0  0  0  0  0  0
    9.7147    5.2519    6.0160 H   0  0  0  0  0  0  0  0  0  0  0  0
    9.3650    5.9008    7.6671 H   0  0  0  0  0  0  0  0  0  0  0  0
   11.1936    7.1128    5.5442 H   0  0  0  0  0  0  0  0  0  0  0  0
    9.6179    7.7627    6.1818 H   0  0  0  0  0  0  0  0  0  0  0  0
   10.0521    7.5264    9.2863 H   0  0  0  0  0  0  0  0  0  0  0  0
   11.8180    9.0440   10.4570 H   0  0  0  0  0  0  0  0  0  0  0  0
   14.2036   10.3490    9.8311 H   0  0  0  0  0  0  0  0  0  0  0  0
   15.6653   10.9002    7.8639 H   0  0  0  0  0  0  0  0  0  0  0  0
   14.6950   10.4470    4.6380 H   0  0  0  0  0  0  0  0  0  0  0  0
   13.0051    8.7616    5.2099 H   0  0  0  0  0  0  0  0  0  0  0  0
  1  2  1  0
  2  3  1  0
  3  4  1  0
  4  5  2  0
  5  6  1  0
  6  7  1  0
  7  8  2  0
  8  9  1  0
  9 10  2  0
 10 11  1  0
 10 12  1  0
 12 13  2  0
 13  4  1  0
 13  7  1  0
  1 14  1  0
  1 15  1  0
  1 16  1  0
  2 17  1  0
  2 18  1  0
  3 19  1  0
  3 20  1  0
  5 21  1  0
  6 22  1  0
  8 23  1  0
  9 24  1  0
 11 25  1  0
 12 26  1  0
M  CHG  1   1   1
M  END
>  <meeko>  (3) 
{"is_sidechain": [false], "free_energy": -6.333, "intermolecular_energy": -7.549, "internal_energy": 0.017}

$$$$
2ymd_ligand
     RDKit          3D

 26 27  0  0  0  0  0  0  0  0999 V2000
   14.3050   11.8520    9.8170 N   0  0  0  0  0  0  0  0  0  0  0  0
   15.0970   10.7920    9.1340 C   0  0  0  0  0  0  0  0  0  0  0  0
   14.3430   10.2370    7.9230 C   0  0  0  0  0  0  0  0  0  0  0  0
   13.1770    9.3840    8.3120 C   0  0  0  0  0  0  0  0  0  0  0  0
   12.6310    9.2810    9.5770 C   0  0  0  0  0  0  0  0  0  0  0  0
   11.5680    8.4180    9.5210 N   0  0  0  0  0  0  0  0  0  0  0  0
   11.3820    7.9860    8.2290 C   0  0  0  0  0  0  0  0  0  0  0  0
   10.4030    7.1360    7.7030 C   0  0  0  0  0  0  0  0  0  0  0  0
   10.4700    6.8360    6.3410 C   0  0  0  0  0  0  0  0  0  0  0  0
   11.4900    7.3520    5.5540 C   0  0  0  0  0  0  0  0  0  0  0  0
   11.5010    6.9990    4.2370 O   0  0  0  0  0  0  0  0  0  0  0  0
   12.4630    8.2030    6.0820 C   0  0  0  0  0  0  0  0  0  0  0  0
   12.4010    8.5400    7.4520 C   0  0  0  0  0  0  0  0  0  0  0  0
   14.8520   12.7250    9.8680 H   0  0  0  0  0  0  0  0  0  0  0  0
   13.4390   12.0700    9.3100 H   0  0  0  0  0  0  0  0  0  0  0  0
   14.0600   11.5870   10.7790 H   0  0  0  0  0  0  0  0  0  0  0  0
   16.0535   11.2184    8.7975 H   0  0  0  0  0  0  0  0  0  0  0  0
   15.2696    9.9709    9.8453 H   0  0  0  0  0  0  0  0  0  0  0  0
   13.9765   11.0805    7.3194 H   0  0  0  0  0  0  0  0  0  0  0  0
   15.0428    9.6057    7.3558 H   0  0  0  0  0  0  0  0  0  0  0  0
   12.9889    9.8032   10.4766 H   0  0  0  0  0  0  0  0  0  0  0  0
   11.0000    8.1280   10.3070 H   0  0  0  0  0  0  0  0  0  0  0  0
    9.6089    6.7190    8.3397 H   0  0  0  0  0  0  0  0  0  0  0  0
    9.7078    6.1851    5.8879 H   0  0  0  0  0  0  0  0  0  0  0  0
   11.4170    6.0350    4.1560 H   0  0  0  0  0  0  0  0  0  0  0  0
   13.2633    8.6036    5.4424 H   0  0  0  0  0  0  0  0  0  0  0  0
  1  2  1  0
  2  3  1  0
  3  4  1  0
  4  5  2  0
  5  6  1  0
  6  7  1  0
  7  8  2  0
  8  9  1  0
  9 10  2  0
 10 11  1  0
 10 12  1  0
 12 13  2  0
 13  4  1  0
 13  7  1  0
  1 14  1  0
  1 15  1  0
  1 16  1  0
  2 17  1  0
  2 18  1  0
  3 19  1  0
  3 20  1  0
  5 21  1  0
  6 22  1  0
  8 23  1  0
  9 24  1  0
 11 25  1  0
 12 26  1  0
M  CHG  1   1   1
M  END
>  <meeko>  (4) 
{"is_sidechain": [false], "free_energy": -5.203, "intermolecular_energy": -6.451, "internal_energy": 0.247}

$$$$
2ymd_ligand
     RDKit          3D

 26 27  0  0  0  0  0  0  0  0999 V2000
   14.7910   11.4450    3.6670 N   0  0  0  0  0  0  0  0  0  0  0  0
   14.4290   11.3840    5.1090 C   0  0  0  0  0  0  0  0  0  0  0  0
   14.8130   10.0310    5.7150 C   0  0  0  0  0  0  0  0  0  0  0  0
   14.0800    9.7410    6.9870 C   0  0  0  0  0  0  0  0  0  0  0  0
   14.3720   10.2660    8.2320 C   0  0  0  0  0  0  0  0  0  0  0  0
   13.4630    9.7750    9.1320 N   0  0  0  0  0  0  0  0  0  0  0  0
   12.5530    8.9690    8.4900 C   0  0  0  0  0  0  0  0  0  0  0  0
   11.4400    8.2940    9.0020 C   0  0  0  0  0  0  0  0  0  0  0  0
   10.6970    7.5090    8.1170 C   0  0  0  0  0  0  0  0  0  0  0  0
   11.0740    7.3950    6.7870 C   0  0  0  0  0  0  0  0  0  0  0  0
   10.3110    6.5940    5.9880 O   0  0  0  0  0  0  0  0  0  0  0  0
   12.1850    8.0720    6.2790 C   0  0  0  0  0  0  0  0  0  0  0  0
   12.9370    8.8920    7.1490 C   0  0  0  0  0  0  0  0  0  0  0  0
   15.8000   11.6340    3.5620 H   0  0  0  0  0  0  0  0  0  0  0  0
   14.6010   10.5580    3.1850 H   0  0  0  0  0  0  0  0  0  0  0  0
   14.2870   12.1940    3.1760 H   0  0  0  0  0  0  0  0  0  0  0  0
   14.9601   12.1829    5.6472 H   0  0  0  0  0  0  0  0  0  0  0  0
   13.3407   11.5135    5.2027 H   0  0  0  0  0  0  0  0  0  0  0  0
   14.5809    9.2401    4.9865 H   0  0  0  0  0  0  0  0  0  0  0  0
   15.8872   10.0640    5.9497 H   0  0  0  0  0  0  0  0  0  0  0  0
   15.1942   10.9599    8.4612 H   0  0  0  0  0  0  0  0  0  0  0  0
   13.4560    9.9640   10.1270 H   0  0  0  0  0  0  0  0  0  0  0  0
   11.1601    8.3782   10.0625 H   0  0  0  0  0  0  0  0  0  0  0  0
    9.8048    6.9764    8.4781 H   0  0  0  0  0  0  0  0  0  0  0  0
    9.6280    7.1260    5.5500 H   0  0  0  0  0  0  0  0  0  0  0  0
   12.4690    7.9685    5.2213 H   0  0  0  0  0  0  0  0  0  0  0  0
  1  2  1  0
  2  3  1  0
  3  4  1  0
  4  5  2  0
  5  6  1  0
  6  7  1  0
  7  8  2  0
  8  9  1  0
  9 10  2  0
 10 11  1  0
 10 12  1  0
 12 13  2  0
 13  4  1  0
 13  7  1  0
  1 14  1  0
  1 15  1  0
  1 16  1  0
  2 17  1  0
  2 18  1  0
  3 19  1  0
  3 20  1  0
  5 21  1  0
  6 22  1  0
  8 23  1  0
  9 24  1  0
 11 25  1  0
 12 26  1  0
M  CHG  1   1   1
M  END
>  <meeko>  (5) 
{"is_sidechain": [false], "free_energy": -4.6, "intermolecular_energy": -5.41, "internal_energy": -0.085}

$$$$
