2c3i_ligand
     RDKit          3D

 41 44  0  0  0  0  0  0  0  0999 V2000
   25.7070   55.6450   -3.7820 C   0  0  0  0  0  0  0  0  0  0  0  0
   25.8070   54.1890   -4.1570 C   0  0  0  0  0  0  0  0  0  0  0  0
   25.2780   53.7610   -5.1810 O   0  0  0  0  0  0  0  0  0  0  0  0
   26.5670   53.2630   -3.2650 C   0  0  0  0  0  0  0  0  0  0  0  0
   27.3500   52.2190   -3.7680 C   0  0  0  0  0  0  0  0  0  0  0  0
   28.0370   51.3810   -2.8910 C   0  0  0  0  0  0  0  0  0  0  0  0
   27.9480   51.5790   -1.5120 C   0  0  0  0  0  0  0  0  0  0  0  0
   27.1730   52.6200   -0.9860 C   0  0  0  0  0  0  0  0  0  0  0  0
   27.0530   52.8300    0.4590 C   0  0  0  0  0  0  0  0  0  0  0  0
   27.2490   53.9770    1.2120 C   0  0  0  0  0  0  0  0  0  0  0  0
   27.0390   53.7610    2.5490 N   0  0  0  0  0  0  0  0  0  0  0  0
   26.7280   52.4870    2.6350 C   0  0  0  0  0  0  0  0  0  0  0  0
   26.4120   51.6940    3.7560 C   0  0  0  0  0  0  0  0  0  0  0  0
   26.1510   50.3930    3.5870 C   0  0  0  0  0  0  0  0  0  0  0  0
   26.2130   49.8240    2.2060 C   0  0  0  0  0  0  0  0  0  0  0  0
   25.9780   48.4940    1.9550 N   0  0  0  0  0  0  0  0  0  0  0  0
   26.3610   47.7900    0.7520 C   0  0  0  0  0  0  0  0  0  0  0  0
   26.0400   46.3330    0.8940 C   0  0  0  0  0  0  0  0  0  0  0  0
   25.6520   45.5090   -0.3090 C   0  0  0  0  0  0  0  0  0  0  0  0
   24.6230   45.8400    0.7380 C   0  0  0  0  0  0  0  0  0  0  0  0
   26.4800   50.5430    1.1460 N   0  0  0  0  0  0  0  0  0  0  0  0
   26.7270   51.8640    1.3980 N   0  0  0  0  0  0  0  0  0  0  0  0
   26.4810   53.4550   -1.8760 C   0  0  0  0  0  0  0  0  0  0  0  0
   25.7004   55.7418   -2.6863 H   0  0  0  0  0  0  0  0  0  0  0  0
   26.5699   56.1896   -4.1930 H   0  0  0  0  0  0  0  0  0  0  0  0
   24.7778   56.0665   -4.1930 H   0  0  0  0  0  0  0  0  0  0  0  0
   27.4236   52.0594   -4.8539 H   0  0  0  0  0  0  0  0  0  0  0  0
   28.6522   50.5598   -3.2875 H   0  0  0  0  0  0  0  0  0  0  0  0
   28.4931   50.9094   -0.8305 H   0  0  0  0  0  0  0  0  0  0  0  0
   27.5396   54.9485    0.7857 H   0  0  0  0  0  0  0  0  0  0  0  0
   26.3802   52.1406    4.7607 H   0  0  0  0  0  0  0  0  0  0  0  0
   25.8961   49.7552    4.4462 H   0  0  0  0  0  0  0  0  0  0  0  0
   25.0510   48.2350    2.2820 H   0  0  0  0  0  0  0  0  0  0  0  0
   25.8093   48.2039   -0.1049 H   0  0  0  0  0  0  0  0  0  0  0  0
   27.4422   47.9101    0.5889 H   0  0  0  0  0  0  0  0  0  0  0  0
   26.8107   46.2551    1.6750 H   0  0  0  0  0  0  0  0  0  0  0  0
   25.5965   45.9784   -1.3022 H   0  0  0  0  0  0  0  0  0  0  0  0
   26.0232   44.5809   -0.7681 H   0  0  0  0  0  0  0  0  0  0  0  0
   23.8155   46.5512    0.5097 H   0  0  0  0  0  0  0  0  0  0  0  0
   23.9311   45.2537    1.3605 H   0  0  0  0  0  0  0  0  0  0  0  0
   25.8613   54.2730   -1.4800 H   0  0  0  0  0  0  0  0  0  0  0  0
  1  2  1  0
  2  3  2  0
  2  4  1  0
  4  5  2  0
  5  6  1  0
  6  7  2  0
  7  8  1  0
  8  9  1  0
  9 10  2  0
 10 11  1  0
 11 12  2  0
 12 13  1  0
 13 14  2  0
 14 15  1  0
 15 16  1  0
 16 17  1  0
 17 18  1  0
 18 19  1  0
 19 20  1  0
 15 21  2  0
 21 22  1  0
  8 23  2  0
 23  4  1  0
 22  9  1  0
 22 12  1  0
 20 18  1  0
  1 24  1  0
  1 25  1  0
  1 26  1  0
  5 27  1  0
  6 28  1  0
  7 29  1  0
 10 30  1  0
 13 31  1  0
 14 32  1  0
 16 33  1  0
 17 34  1  0
 17 35  1  0
 18 36  1  0
 19 37  1  0
 19 38  1  0
 20 39  1  0
 20 40  1  0
 23 41  1  0
M  END
>  <meeko>  (1) 
{"is_sidechain": [false], "free_energy": -9.303, "intermolecular_energy": -12.022, "internal_energy": -0.417}

$$$$
2c3i_ligand
     RDKit          3D

 41 44  0  0  0  0  0  0  0  0999 V2000
   27.6360   53.1600    0.6960 C   0  0  0  0  0  0  0  0  0  0  0  0
   26.9940   53.0100    2.0510 C   0  0  0  0  0  0  0  0  0  0  0  0
   26.8380   53.9810    2.7880 O   0  0  0  0  0  0  0  0  0  0  0  0
   26.5410   51.6570    2.4910 C   0  0  0  0  0  0  0  0  0  0  0  0
   26.2790   51.3590    3.8320 C   0  0  0  0  0  0  0  0  0  0  0  0
   25.8600   50.0780    4.1910 C   0  0  0  0  0  0  0  0  0  0  0  0
   25.7020   49.0910    3.2170 C   0  0  0  0  0  0  0  0  0  0  0  0
   25.9550   49.3670    1.8670 C   0  0  0  0  0  0  0  0  0  0  0  0
   25.8120   48.3380    0.8350 C   0  0  0  0  0  0  0  0  0  0  0  0
   25.8390   46.9570    0.9450 C   0  0  0  0  0  0  0  0  0  0  0  0
   25.6720   46.3380   -0.2660 N   0  0  0  0  0  0  0  0  0  0  0  0
   25.5560   47.3210   -1.1300 C   0  0  0  0  0  0  0  0  0  0  0  0
   25.3680   47.2980   -2.5260 C   0  0  0  0  0  0  0  0  0  0  0  0
   25.3040   48.4530   -3.1980 C   0  0  0  0  0  0  0  0  0  0  0  0
   25.4420   49.7330   -2.4380 C   0  0  0  0  0  0  0  0  0  0  0  0
   25.4080   50.9570   -3.0600 N   0  0  0  0  0  0  0  0  0  0  0  0
   26.2860   52.0690   -2.7690 C   0  0  0  0  0  0  0  0  0  0  0  0
   25.5180   53.3530   -2.8410 C   0  0  0  0  0  0  0  0  0  0  0  0
   25.9400   54.4500   -3.7870 C   0  0  0  0  0  0  0  0  0  0  0  0
   26.1100   54.6330   -2.3040 C   0  0  0  0  0  0  0  0  0  0  0  0
   25.5920   49.7830   -1.1390 N   0  0  0  0  0  0  0  0  0  0  0  0
   25.6410   48.5630   -0.5220 N   0  0  0  0  0  0  0  0  0  0  0  0
   26.3810   50.6570    1.5170 C   0  0  0  0  0  0  0  0  0  0  0  0
   28.7003   53.4087    0.8200 H   0  0  0  0  0  0  0  0  0  0  0  0
   27.5425   52.2158    0.1394 H   0  0  0  0  0  0  0  0  0  0  0  0
   27.1338   53.9650    0.1394 H   0  0  0  0  0  0  0  0  0  0  0  0
   26.4032   52.1339    4.6027 H   0  0  0  0  0  0  0  0  0  0  0  0
   25.6533   49.8447    5.2459 H   0  0  0  0  0  0  0  0  0  0  0  0
   25.3746   48.0835    3.5131 H   0  0  0  0  0  0  0  0  0  0  0  0
   25.9784   46.4197    1.8947 H   0  0  0  0  0  0  0  0  0  0  0  0
   25.2748   46.3398   -3.0582 H   0  0  0  0  0  0  0  0  0  0  0  0
   25.1529   48.4607   -4.2875 H   0  0  0  0  0  0  0  0  0  0  0  0
   24.4450   51.2470   -3.2060 H   0  0  0  0  0  0  0  0  0  0  0  0
   26.7042   51.9496   -1.7586 H   0  0  0  0  0  0  0  0  0  0  0  0
   27.1014   52.0912   -3.5069 H   0  0  0  0  0  0  0  0  0  0  0  0
   24.5893   52.7901   -2.6661 H   0  0  0  0  0  0  0  0  0  0  0  0
   26.8229   54.3130   -4.4287 H   0  0  0  0  0  0  0  0  0  0  0  0
   25.4451   55.0181   -4.5884 H   0  0  0  0  0  0  0  0  0  0  0  0
   27.1171   54.6297   -1.8616 H   0  0  0  0  0  0  0  0  0  0  0  0
   25.7908   55.3901   -1.5727 H   0  0  0  0  0  0  0  0  0  0  0  0
   26.5932   50.8894    0.4630 H   0  0  0  0  0  0  0  0  0  0  0  0
  1  2  1  0
  2  3  2  0
  2  4  1  0
  4  5  2  0
  5  6  1  0
  6  7  2  0
  7  8  1  0
  8  9  1  0
  9 10  2  0
 10 11  1  0
 11 12  2  0
 12 13  1  0
 13 14  2  0
 14 15  1  0
 15 16  1  0
 16 17  1  0
 17 18  1  0
 18 19  1  0
 19 20  1  0
 15 21  2  0
 21 22  1  0
  8 23  2  0
 23  4  1  0
 22  9  1  0
 22 12  1  0
 20 18  1  0
  1 24  1  0
  1 25  1  0
  1 26  1  0
  5 27  1  0
  6 28  1  0
  7 29  1  0
 10 30  1  0
 13 31  1  0
 14 32  1  0
 16 33  1  0
 17 34  1  0
 17 35  1  0
 18 36  1  0
 19 37  1  0
 19 38  1  0
 20 39  1  0
 20 40  1  0
 23 41  1  0
M  END
>  <meeko>  (2) 
{"is_sidechain": [false], "free_energy": -9.005, "intermolecular_energy": -11.703, "internal_energy": -0.352}

$$$$
2c3i_ligand
     RDKit          3D

 41 44  0  0  0  0  0  0  0  0999 V2000
   26.1410   46.7360   -3.3190 C   0  0  0  0  0  0  0  0  0  0  0  0
   25.4820   47.7280   -2.3960 C   0  0  0  0  0  0  0  0  0  0  0  0
   24.9320   48.7360   -2.8380 O   0  0  0  0  0  0  0  0  0  0  0  0
   25.4990   47.4700   -0.9250 C   0  0  0  0  0  0  0  0  0  0  0  0
   25.2820   46.1960   -0.3900 C   0  0  0  0  0  0  0  0  0  0  0  0
   25.3060   46.0090    0.9920 C   0  0  0  0  0  0  0  0  0  0  0  0
   25.5470   47.0890    1.8440 C   0  0  0  0  0  0  0  0  0  0  0  0
   25.7720   48.3720    1.3300 C   0  0  0  0  0  0  0  0  0  0  0  0
   26.0070   49.5190    2.2100 C   0  0  0  0  0  0  0  0  0  0  0  0
   25.7830   49.6580    3.5710 C   0  0  0  0  0  0  0  0  0  0  0  0
   26.1320   50.9010    4.0290 N   0  0  0  0  0  0  0  0  0  0  0  0
   26.5590   51.5410    2.9630 C   0  0  0  0  0  0  0  0  0  0  0  0
   27.0440   52.8550    2.8150 C   0  0  0  0  0  0  0  0  0  0  0  0
   27.3990   53.2910    1.6020 C   0  0  0  0  0  0  0  0  0  0  0  0
   27.2600   52.3620    0.4380 C   0  0  0  0  0  0  0  0  0  0  0  0
   27.5840   52.7430   -0.8410 N   0  0  0  0  0  0  0  0  0  0  0  0
   27.1650   52.0650   -2.0480 C   0  0  0  0  0  0  0  0  0  0  0  0
   28.3180   51.3070   -2.6300 C   0  0  0  0  0  0  0  0  0  0  0  0
   28.1140   50.3720   -3.7970 C   0  0  0  0  0  0  0  0  0  0  0  0
   28.4330   49.8150   -2.4360 C   0  0  0  0  0  0  0  0  0  0  0  0
   26.8350   51.1300    0.5520 N   0  0  0  0  0  0  0  0  0  0  0  0
   26.4990   50.7550    1.8240 N   0  0  0  0  0  0  0  0  0  0  0  0
   25.7400   48.5510   -0.0610 C   0  0  0  0  0  0  0  0  0  0  0  0
   26.6529   45.9654   -2.7239 H   0  0  0  0  0  0  0  0  0  0  0  0
   25.3775   46.2622   -3.9535 H   0  0  0  0  0  0  0  0  0  0  0  0
   26.8737   47.2562   -3.9535 H   0  0  0  0  0  0  0  0  0  0  0  0
   25.0927   45.3429   -1.0581 H   0  0  0  0  0  0  0  0  0  0  0  0
   25.1345   45.0071    1.4124 H   0  0  0  0  0  0  0  0  0  0  0  0
   25.5602   46.9298    2.9323 H   0  0  0  0  0  0  0  0  0  0  0  0
   25.3724   48.8620    4.2095 H   0  0  0  0  0  0  0  0  0  0  0  0
   27.1299   53.5166    3.6896 H   0  0  0  0  0  0  0  0  0  0  0  0
   27.7852   54.3115    1.4629 H   0  0  0  0  0  0  0  0  0  0  0  0
   28.5530   53.0470   -0.8800 H   0  0  0  0  0  0  0  0  0  0  0  0
   26.3507   51.3649   -1.8097 H   0  0  0  0  0  0  0  0  0  0  0  0
   26.8129   52.8081   -2.7786 H   0  0  0  0  0  0  0  0  0  0  0  0
   28.9680   52.1714   -2.4292 H   0  0  0  0  0  0  0  0  0  0  0  0
   27.1095   50.2374   -4.2245 H   0  0  0  0  0  0  0  0  0  0  0  0
   28.5545   50.2732   -4.8001 H   0  0  0  0  0  0  0  0  0  0  0  0
   27.6615   49.2733   -1.8691 H   0  0  0  0  0  0  0  0  0  0  0  0
   29.2031   49.1407   -2.0332 H   0  0  0  0  0  0  0  0  0  0  0  0
   25.9063   49.5537   -0.4817 H   0  0  0  0  0  0  0  0  0  0  0  0
  1  2  1  0
  2  3  2  0
  2  4  1  0
  4  5  2  0
  5  6  1  0
  6  7  2  0
  7  8  1  0
  8  9  1  0
  9 10  2  0
 10 11  1  0
 11 12  2  0
 12 13  1  0
 13 14  2  0
 14 15  1  0
 15 16  1  0
 16 17  1  0
 17 18  1  0
 18 19  1  0
 19 20  1  0
 15 21  2  0
 21 22  1  0
  8 23  2  0
 23  4  1  0
 22  9  1  0
 22 12  1  0
 20 18  1  0
  1 24  1  0
  1 25  1  0
  1 26  1  0
  5 27  1  0
  6 28  1  0
  7 29  1  0
 10 30  1  0
 13 31  1  0
 14 32  1  0
 16 33  1  0
 17 34  1  0
 17 35  1  0
 18 36  1  0
 19 37  1  0
 19 38  1  0
 20 39  1  0
 20 40  1  0
 23 41  1  0
M  END
>  <meeko>  (3) 
{"is_sidechain": [false], "free_energy": -8.942, "intermolecular_energy": -11.322, "internal_energy": -0.651}

$$$$
2c3i_ligand
     RDKit          3D

 41 44  0  0  0  0  0  0  0  0999 V2000
   27.4370   53.2140   -0.5150 C   0  0  0  0  0  0  0  0  0  0  0  0
   27.4480   53.4710    0.9690 C   0  0  0  0  0  0  0  0  0  0  0  0
   27.8510   54.5410    1.4240 O   0  0  0  0  0  0  0  0  0  0  0  0
   26.9570   52.4050    1.8910 C   0  0  0  0  0  0  0  0  0  0  0  0
   26.7690   52.6320    3.2590 C   0  0  0  0  0  0  0  0  0  0  0  0
   26.3100   51.6000    4.0780 C   0  0  0  0  0  0  0  0  0  0  0  0
   26.0370   50.3420    3.5380 C   0  0  0  0  0  0  0  0  0  0  0  0
   26.2130   50.0930    2.1710 C   0  0  0  0  0  0  0  0  0  0  0  0
   25.9500   48.7730    1.5930 C   0  0  0  0  0  0  0  0  0  0  0  0
   25.9770   47.5200    2.1840 C   0  0  0  0  0  0  0  0  0  0  0  0
   25.6730   46.5220    1.2950 N   0  0  0  0  0  0  0  0  0  0  0  0
   25.4720   47.1420    0.1540 C   0  0  0  0  0  0  0  0  0  0  0  0
   25.1330   46.6360   -1.1160 C   0  0  0  0  0  0  0  0  0  0  0  0
   25.0060   47.4810   -2.1460 C   0  0  0  0  0  0  0  0  0  0  0  0
   25.2370   48.9390   -1.9090 C   0  0  0  0  0  0  0  0  0  0  0  0
   25.1460   49.8650   -2.9190 N   0  0  0  0  0  0  0  0  0  0  0  0
   26.1120   50.9060   -3.1900 C   0  0  0  0  0  0  0  0  0  0  0  0
   27.4120   50.2920   -3.6130 C   0  0  0  0  0  0  0  0  0  0  0  0
   28.6370   50.4050   -2.7390 C   0  0  0  0  0  0  0  0  0  0  0  0
   28.5700   51.1620   -4.0370 C   0  0  0  0  0  0  0  0  0  0  0  0
   25.5290   49.4370   -0.7340 N   0  0  0  0  0  0  0  0  0  0  0  0
   25.6330   48.5130    0.2690 N   0  0  0  0  0  0  0  0  0  0  0  0
   26.6810   51.1360    1.3570 C   0  0  0  0  0  0  0  0  0  0  0  0
   27.3906   52.1305   -0.6991 H   0  0  0  0  0  0  0  0  0  0  0  0
   26.5588   53.7003   -0.9648 H   0  0  0  0  0  0  0  0  0  0  0  0
   28.3535   53.6235   -0.9648 H   0  0  0  0  0  0  0  0  0  0  0  0
   26.9827   53.6222    3.6878 H   0  0  0  0  0  0  0  0  0  0  0  0
   26.1627   51.7783    5.1534 H   0  0  0  0  0  0  0  0  0  0  0  0
   25.6789   49.5356    4.1948 H   0  0  0  0  0  0  0  0  0  0  0  0
   26.2148   47.3463    3.2438 H   0  0  0  0  0  0  0  0  0  0  0  0
   24.9742   45.5571   -1.2598 H   0  0  0  0  0  0  0  0  0  0  0  0
   24.7372   47.1105   -3.1462 H   0  0  0  0  0  0  0  0  0  0  0  0
   24.1870   50.1880   -3.0110 H   0  0  0  0  0  0  0  0  0  0  0  0
   25.7349   51.5541   -3.9948 H   0  0  0  0  0  0  0  0  0  0  0  0
   26.2702   51.5018   -2.2790 H   0  0  0  0  0  0  0  0  0  0  0  0
   26.8542   49.4603   -4.0680 H   0  0  0  0  0  0  0  0  0  0  0  0
   28.5823   50.9468   -1.7832 H   0  0  0  0  0  0  0  0  0  0  0  0
   29.3422   49.6883   -2.2928 H   0  0  0  0  0  0  0  0  0  0  0  0
   28.4663   52.2571   -4.0300 H   0  0  0  0  0  0  0  0  0  0  0  0
   29.2059   51.2276   -4.9322 H   0  0  0  0  0  0  0  0  0  0  0  0
   26.8342   50.9564    0.2826 H   0  0  0  0  0  0  0  0  0  0  0  0
  1  2  1  0
  2  3  2  0
  2  4  1  0
  4  5  2  0
  5  6  1  0
  6  7  2  0
  7  8  1  0
  8  9  1  0
  9 10  2  0
 10 11  1  0
 11 12  2  0
 12 13  1  0
 13 14  2  0
 14 15  1  0
 15 16  1  0
 16 17  1  0
 17 18  1  0
 18 19  1  0
 19 20  1  0
 15 21  2  0
 21 22  1  0
  8 23  2  0
 23  4  1  0
 22  9  1  0
 22 12  1  0
 20 18  1  0
  1 24  1  0
  1 25  1  0
  1 26  1  0
  5 27  1  0
  6 28  1  0
  7 29  1  0
 10 30  1  0
 13 31  1  0
 14 32  1  0
 16 33  1  0
 17 34  1  0
 17 35  1  0
 18 36  1  0
 19 37  1  0
 19 38  1  0
 20 39  1  0
 20 40  1  0
 23 41  1  0
M  END
>  <meeko>  (4) 
{"is_sidechain": [false], "free_energy": -8.928, "intermolecular_energy": -11.37, "internal_energy": -0.585}

$$$$
2c3i_ligand
     RDKit          3D

 41 44  0  0  0  0  0  0  0  0999 V2000
   27.8800   51.2330   -4.2920 C   0  0  0  0  0  0  0  0  0  0  0  0
   28.3460   50.2440   -3.2560 C   0  0  0  0  0  0  0  0  0  0  0  0
   29.4700   50.3260   -2.7640 O   0  0  0  0  0  0  0  0  0  0  0  0
   27.4200   49.1550   -2.8270 C   0  0  0  0  0  0  0  0  0  0  0  0
   26.8290   48.2760   -3.7410 C   0  0  0  0  0  0  0  0  0  0  0  0
   25.9680   47.2770   -3.2870 C   0  0  0  0  0  0  0  0  0  0  0  0
   25.6930   47.1500   -1.9240 C   0  0  0  0  0  0  0  0  0  0  0  0
   26.2770   48.0150   -0.9910 C   0  0  0  0  0  0  0  0  0  0  0  0
   25.9840   47.9080    0.4400 C   0  0  0  0  0  0  0  0  0  0  0  0
   25.3740   46.8860    1.1510 C   0  0  0  0  0  0  0  0  0  0  0  0
   25.2800   47.1710    2.4880 N   0  0  0  0  0  0  0  0  0  0  0  0
   25.8110   48.3660    2.6130 C   0  0  0  0  0  0  0  0  0  0  0  0
   25.9890   49.1750    3.7520 C   0  0  0  0  0  0  0  0  0  0  0  0
   26.5440   50.3850    3.6170 C   0  0  0  0  0  0  0  0  0  0  0  0
   26.9500   50.8380    2.2510 C   0  0  0  0  0  0  0  0  0  0  0  0
   27.5060   52.0740    2.0290 N   0  0  0  0  0  0  0  0  0  0  0  0
   26.7940   53.2390    1.5540 C   0  0  0  0  0  0  0  0  0  0  0  0
   27.4790   53.7920    0.3420 C   0  0  0  0  0  0  0  0  0  0  0  0
   26.6780   54.3780   -0.7950 C   0  0  0  0  0  0  0  0  0  0  0  0
   27.4000   53.0720   -0.9810 C   0  0  0  0  0  0  0  0  0  0  0  0
   26.8180   50.0960    1.1810 N   0  0  0  0  0  0  0  0  0  0  0  0
   26.2510   48.8710    1.4010 N   0  0  0  0  0  0  0  0  0  0  0  0
   27.1370   49.0210   -1.4580 C   0  0  0  0  0  0  0  0  0  0  0  0
   27.4625   52.1191   -3.7914 H   0  0  0  0  0  0  0  0  0  0  0  0
   28.7311   51.5339   -4.9206 H   0  0  0  0  0  0  0  0  0  0  0  0
   27.1061   50.7683   -4.9206 H   0  0  0  0  0  0  0  0  0  0  0  0
   27.0430   48.3726   -4.8157 H   0  0  0  0  0  0  0  0  0  0  0  0
   25.5035   46.5861   -4.0060 H   0  0  0  0  0  0  0  0  0  0  0  0
   25.0090   46.3606   -1.5791 H   0  0  0  0  0  0  0  0  0  0  0  0
   25.0079   45.9544    0.6948 H   0  0  0  0  0  0  0  0  0  0  0  0
   25.6748   48.8156    4.7430 H   0  0  0  0  0  0  0  0  0  0  0  0
   26.6984   51.0329    4.4925 H   0  0  0  0  0  0  0  0  0  0  0  0
   28.4220   51.9730    1.5990 H   0  0  0  0  0  0  0  0  0  0  0  0
   25.7632   52.9564    1.2940 H   0  0  0  0  0  0  0  0  0  0  0  0
   26.7800   54.0039    2.3444 H   0  0  0  0  0  0  0  0  0  0  0  0
   28.2950   54.1514    0.9862 H   0  0  0  0  0  0  0  0  0  0  0  0
   25.5795   54.3961   -0.7415 H   0  0  0  0  0  0  0  0  0  0  0  0
   26.6685   55.3431   -1.3228 H   0  0  0  0  0  0  0  0  0  0  0  0
   26.8292   52.1353   -1.0638 H   0  0  0  0  0  0  0  0  0  0  0  0
   28.1368   52.6873   -1.7014 H   0  0  0  0  0  0  0  0  0  0  0  0
   27.5969   49.7159   -0.7399 H   0  0  0  0  0  0  0  0  0  0  0  0
  1  2  1  0
  2  3  2  0
  2  4  1  0
  4  5  2  0
  5  6  1  0
  6  7  2  0
  7  8  1  0
  8  9  1  0
  9 10  2  0
 10 11  1  0
 11 12  2  0
 12 13  1  0
 13 14  2  0
 14 15  1  0
 15 16  1  0
 16 17  1  0
 17 18  1  0
 18 19  1  0
 19 20  1  0
 15 21  2  0
 21 22  1  0
  8 23  2  0
 23  4  1  0
 22  9  1  0
 22 12  1  0
 20 18  1  0
  1 24  1  0
  1 25  1  0
  1 26  1  0
  5 27  1  0
  6 28  1  0
  7 29  1  0
 10 30  1  0
 13 31  1  0
 14 32  1  0
 16 33  1  0
 17 34  1  0
 17 35  1  0
 18 36  1  0
 19 37  1  0
 19 38  1  0
 20 39  1  0
 20 40  1  0
 23 41  1  0
M  END
>  <meeko>  (5) 
{"is_sidechain": [false], "free_energy": -8.914, "intermolecular_energy": -11.463, "internal_energy": -0.474}

$$$$
2c3i_ligand
     RDKit          3D

 41 44  0  0  0  0  0  0  0  0999 V2000
   28.6140   51.0440   -2.7750 C   0  0  0  0  0  0  0  0  0  0  0  0
   27.6090   52.0970   -2.3870 C   0  0  0  0  0  0  0  0  0  0  0  0
   27.0050   52.7410   -3.2430 O   0  0  0  0  0  0  0  0  0  0  0  0
   27.3500   52.3510   -0.9380 C   0  0  0  0  0  0  0  0  0  0  0  0
   27.4720   53.6240   -0.3720 C   0  0  0  0  0  0  0  0  0  0  0  0
   27.2210   53.8070    0.9880 C   0  0  0  0  0  0  0  0  0  0  0  0
   26.8470   52.7240    1.7860 C   0  0  0  0  0  0  0  0  0  0  0  0
   26.7140   51.4410    1.2400 C   0  0  0  0  0  0  0  0  0  0  0  0
   26.3420   50.2920    2.0670 C   0  0  0  0  0  0  0  0  0  0  0  0
   26.2820   50.1690    3.4460 C   0  0  0  0  0  0  0  0  0  0  0  0
   25.8890   48.9160    3.8380 N   0  0  0  0  0  0  0  0  0  0  0  0
   25.7190   48.2540    2.7150 C   0  0  0  0  0  0  0  0  0  0  0  0
   25.3220   46.9220    2.4870 C   0  0  0  0  0  0  0  0  0  0  0  0
   25.2440   46.4660    1.2320 C   0  0  0  0  0  0  0  0  0  0  0  0
   25.5900   47.3930    0.1110 C   0  0  0  0  0  0  0  0  0  0  0  0
   25.5540   46.9930   -1.2020 N   0  0  0  0  0  0  0  0  0  0  0  0
   26.2110   47.6660   -2.3010 C   0  0  0  0  0  0  0  0  0  0  0  0
   25.1860   48.2970   -3.1940 C   0  0  0  0  0  0  0  0  0  0  0  0
   25.5940   49.2960   -4.2470 C   0  0  0  0  0  0  0  0  0  0  0  0
   24.8240   49.7530   -3.0380 C   0  0  0  0  0  0  0  0  0  0  0  0
   25.9370   48.6410    0.2940 N   0  0  0  0  0  0  0  0  0  0  0  0
   25.9860   49.0350    1.6030 N   0  0  0  0  0  0  0  0  0  0  0  0
   26.9750   51.2670   -0.1280 C   0  0  0  0  0  0  0  0  0  0  0  0
   29.0430   50.5945   -1.8673 H   0  0  0  0  0  0  0  0  0  0  0  0
   28.1167   50.2642   -3.3705 H   0  0  0  0  0  0  0  0  0  0  0  0
   29.4161   51.5044   -3.3705 H   0  0  0  0  0  0  0  0  0  0  0  0
   27.7654   54.4795   -0.9981 H   0  0  0  0  0  0  0  0  0  0  0  0
   27.3181   54.8081    1.4333 H   0  0  0  0  0  0  0  0  0  0  0  0
   26.6543   52.8804    2.8576 H   0  0  0  0  0  0  0  0  0  0  0  0
   26.5222   50.9833    4.1454 H   0  0  0  0  0  0  0  0  0  0  0  0
   25.0783   46.2628    3.3332 H   0  0  0  0  0  0  0  0  0  0  0  0
   24.9319   45.4309    1.0289 H   0  0  0  0  0  0  0  0  0  0  0  0
   24.6210   46.6690   -1.4430 H   0  0  0  0  0  0  0  0  0  0  0  0
   26.8798   48.4445   -1.9053 H   0  0  0  0  0  0  0  0  0  0  0  0
   26.7954   46.9345   -2.8783 H   0  0  0  0  0  0  0  0  0  0  0  0
   24.6256   47.3505   -3.1947 H   0  0  0  0  0  0  0  0  0  0  0  0
   26.6525   49.5727   -4.3615 H   0  0  0  0  0  0  0  0  0  0  0  0
   25.4541   49.3795   -5.3349 H   0  0  0  0  0  0  0  0  0  0  0  0
   25.3197   50.3635   -2.2688 H   0  0  0  0  0  0  0  0  0  0  0  0
   23.8885   50.3085   -2.8763 H   0  0  0  0  0  0  0  0  0  0  0  0
   26.8843   50.2651   -0.5729 H   0  0  0  0  0  0  0  0  0  0  0  0
  1  2  1  0
  2  3  2  0
  2  4  1  0
  4  5  2  0
  5  6  1  0
  6  7  2  0
  7  8  1  0
  8  9  1  0
  9 10  2  0
 10 11  1  0
 11 12  2  0
 12 13  1  0
 13 14  2  0
 14 15  1  0
 15 16  1  0
 16 17  1  0
 17 18  1  0
 18 19  1  0
 19 20  1  0
 15 21  2  0
 21 22  1  0
  8 23  2  0
 23  4  1  0
 22  9  1  0
 22 12  1  0
 20 18  1  0
  1 24  1  0
  1 25  1  0
  1 26  1  0
  5 27  1  0
  6 28  1  0
  7 29  1  0
 10 30  1  0
 13 31  1  0
 14 32  1  0
 16 33  1  0
 17 34  1  0
 17 35  1  0
 18 36  1  0
 19 37  1  0
 19 38  1  0
 20 39  1  0
 20 40  1  0
 23 41  1  0
M  END
>  <meeko>  (6) 
{"is_sidechain": [false], "free_energy": -8.91, "intermolecular_energy": -11.233, "internal_energy": -0.698}

$$$$
2c3i_ligand
     RDKit          3D

 41 44  0  0  0  0  0  0  0  0999 V2000
   26.7340   53.0260    1.9280 C   0  0  0  0  0  0  0  0  0  0  0  0
   27.4770   53.8370    0.9000 C   0  0  0  0  0  0  0  0  0  0  0  0
   28.4720   54.4910    1.2080 O   0  0  0  0  0  0  0  0  0  0  0  0
   26.9900   53.8370   -0.5120 C   0  0  0  0  0  0  0  0  0  0  0  0
   26.4460   54.9770   -1.1120 C   0  0  0  0  0  0  0  0  0  0  0  0
   26.0030   54.9230   -2.4330 C   0  0  0  0  0  0  0  0  0  0  0  0
   26.1000   53.7350   -3.1600 C   0  0  0  0  0  0  0  0  0  0  0  0
   26.6460   52.5820   -2.5810 C   0  0  0  0  0  0  0  0  0  0  0  0
   26.7380   51.3230   -3.3230 C   0  0  0  0  0  0  0  0  0  0  0  0
   26.9910   51.0970   -4.6670 C   0  0  0  0  0  0  0  0  0  0  0  0
   26.9910   49.7620   -4.9760 N   0  0  0  0  0  0  0  0  0  0  0  0
   26.7250   49.1560   -3.8410 C   0  0  0  0  0  0  0  0  0  0  0  0
   26.5920   47.7870   -3.5410 C   0  0  0  0  0  0  0  0  0  0  0  0
   26.2880   47.4150   -2.2930 C   0  0  0  0  0  0  0  0  0  0  0  0
   26.0930   48.4750   -1.2570 C   0  0  0  0  0  0  0  0  0  0  0  0
   25.7590   48.1730    0.0410 N   0  0  0  0  0  0  0  0  0  0  0  0
   26.5110   48.5680    1.2110 C   0  0  0  0  0  0  0  0  0  0  0  0
   25.6510   49.4070    2.1070 C   0  0  0  0  0  0  0  0  0  0  0  0
   26.0930   49.7360    3.5110 C   0  0  0  0  0  0  0  0  0  0  0  0
   24.9430   48.7910    3.2890 C   0  0  0  0  0  0  0  0  0  0  0  0
   26.2340   49.7520   -1.5030 N   0  0  0  0  0  0  0  0  0  0  0  0
   26.5530   50.0530   -2.7990 N   0  0  0  0  0  0  0  0  0  0  0  0
   27.0830   52.6460   -1.2500 C   0  0  0  0  0  0  0  0  0  0  0  0
   27.0314   53.3506    2.9360 H   0  0  0  0  0  0  0  0  0  0  0  0
   25.6516   53.1741    1.7995 H   0  0  0  0  0  0  0  0  0  0  0  0
   26.9761   51.9607    1.7995 H   0  0  0  0  0  0  0  0  0  0  0  0
   26.3677   55.9149   -0.5427 H   0  0  0  0  0  0  0  0  0  0  0  0
   25.5753   55.8202   -2.9043 H   0  0  0  0  0  0  0  0  0  0  0  0
   25.7434   53.7039   -4.2001 H   0  0  0  0  0  0  0  0  0  0  0  0
   27.1709   51.8967   -5.4005 H   0  0  0  0  0  0  0  0  0  0  0  0
   26.7368   47.0302   -4.3260 H   0  0  0  0  0  0  0  0  0  0  0  0
   26.1836   46.3510   -2.0341 H   0  0  0  0  0  0  0  0  0  0  0  0
   25.4160   47.2190    0.1000 H   0  0  0  0  0  0  0  0  0  0  0  0
   26.8384   47.6699    1.7552 H   0  0  0  0  0  0  0  0  0  0  0  0
   27.3890   49.1523    0.8986 H   0  0  0  0  0  0  0  0  0  0  0  0
   25.3390   49.9952    1.2314 H   0  0  0  0  0  0  0  0  0  0  0  0
   27.0530   49.3543    3.8887 H   0  0  0  0  0  0  0  0  0  0  0  0
   26.2365   50.6645    4.0831 H   0  0  0  0  0  0  0  0  0  0  0  0
   25.0629   47.7189    3.5042 H   0  0  0  0  0  0  0  0  0  0  0  0
   23.8987   48.7432    3.6314 H   0  0  0  0  0  0  0  0  0  0  0  0
   27.5058   51.7479   -0.7760 H   0  0  0  0  0  0  0  0  0  0  0  0
  1  2  1  0
  2  3  2  0
  2  4  1  0
  4  5  2  0
  5  6  1  0
  6  7  2  0
  7  8  1  0
  8  9  1  0
  9 10  2  0
 10 11  1  0
 11 12  2  0
 12 13  1  0
 13 14  2  0
 14 15  1  0
 15 16  1  0
 16 17  1  0
 17 18  1  0
 18 19  1  0
 19 20  1  0
 15 21  2  0
 21 22  1  0
  8 23  2  0
 23  4  1  0
 22  9  1  0
 22 12  1  0
 20 18  1  0
  1 24  1  0
  1 25  1  0
  1 26  1  0
  5 27  1  0
  6 28  1  0
  7 29  1  0
 10 30  1  0
 13 31  1  0
 14 32  1  0
 16 33  1  0
 17 34  1  0
 17 35  1  0
 18 36  1  0
 19 37  1  0
 19 38  1  0
 20 39  1  0
 20 40  1  0
 23 41  1  0
M  END
>  <meeko>  (7) 
{"is_sidechain": [false], "free_energy": -8.833, "intermolecular_energy": -11.327, "internal_energy": -0.505}

$$$$
2c3i_ligand
     RDKit          3D

 41 44  0  0  0  0  0  0  0  0999 V2000
   25.7620   51.8450    4.7180 C   0  0  0  0  0  0  0  0  0  0  0  0
   26.6290   52.7040    3.8340 C   0  0  0  0  0  0  0  0  0  0  0  0
   27.1770   53.7130    4.2740 O   0  0  0  0  0  0  0  0  0  0  0  0
   26.8200   52.3110    2.4070 C   0  0  0  0  0  0  0  0  0  0  0  0
   27.3720   53.1830    1.4620 C   0  0  0  0  0  0  0  0  0  0  0  0
   27.5270   52.7670    0.1400 C   0  0  0  0  0  0  0  0  0  0  0  0
   27.1330   51.4840   -0.2450 C   0  0  0  0  0  0  0  0  0  0  0  0
   26.5830   50.5930    0.6840 C   0  0  0  0  0  0  0  0  0  0  0  0
   26.1470   49.2510    0.2930 C   0  0  0  0  0  0  0  0  0  0  0  0
   26.1650   48.0640    1.0080 C   0  0  0  0  0  0  0  0  0  0  0  0
   25.6690   47.0130    0.2820 N   0  0  0  0  0  0  0  0  0  0  0  0
   25.3550   47.5330   -0.8840 C   0  0  0  0  0  0  0  0  0  0  0  0
   24.8050   46.9370   -2.0360 C   0  0  0  0  0  0  0  0  0  0  0  0
   24.5970   47.6840   -3.1250 C   0  0  0  0  0  0  0  0  0  0  0  0
   24.9640   49.1330   -3.0810 C   0  0  0  0  0  0  0  0  0  0  0  0
   24.7990   49.9600   -4.1650 N   0  0  0  0  0  0  0  0  0  0  0  0
   25.8660   50.6160   -4.8870 C   0  0  0  0  0  0  0  0  0  0  0  0
   25.6830   52.1020   -4.8200 C   0  0  0  0  0  0  0  0  0  0  0  0
   26.7180   52.9760   -4.1560 C   0  0  0  0  0  0  0  0  0  0  0  0
   25.3740   52.7800   -3.5080 C   0  0  0  0  0  0  0  0  0  0  0  0
   25.4520   49.7160   -2.0170 N   0  0  0  0  0  0  0  0  0  0  0  0
   25.6290   48.8900   -0.9410 N   0  0  0  0  0  0  0  0  0  0  0  0
   26.4260   51.0230    2.0100 C   0  0  0  0  0  0  0  0  0  0  0  0
   25.9832   52.0642    5.7730 H   0  0  0  0  0  0  0  0  0  0  0  0
   24.7028   52.0599    4.5131 H   0  0  0  0  0  0  0  0  0  0  0  0
   25.9671   50.7839    4.5131 H   0  0  0  0  0  0  0  0  0  0  0  0
   27.6831   54.1947    1.7614 H   0  0  0  0  0  0  0  0  0  0  0  0
   27.9615   53.4525   -0.6025 H   0  0  0  0  0  0  0  0  0  0  0  0
   27.2564   51.1694   -1.2918 H   0  0  0  0  0  0  0  0  0  0  0  0
   26.5351   47.9756    2.0401 H   0  0  0  0  0  0  0  0  0  0  0  0
   24.5491   45.8672   -2.0394 H   0  0  0  0  0  0  0  0  0  0  0  0
   24.1648   47.2418   -4.0348 H   0  0  0  0  0  0  0  0  0  0  0  0
   23.9920   50.5620   -4.0260 H   0  0  0  0  0  0  0  0  0  0  0  0
   26.8323   50.3460   -4.4361 H   0  0  0  0  0  0  0  0  0  0  0  0
   25.8458   50.2938   -5.9386 H   0  0  0  0  0  0  0  0  0  0  0  0
   25.2096   52.0728   -5.8125 H   0  0  0  0  0  0  0  0  0  0  0  0
   27.6152   52.5229   -3.7090 H   0  0  0  0  0  0  0  0  0  0  0  0
   27.3122   53.8487   -4.4648 H   0  0  0  0  0  0  0  0  0  0  0  0
   25.2892   52.1837   -2.5876 H   0  0  0  0  0  0  0  0  0  0  0  0
   24.5797   53.4501   -3.1474 H   0  0  0  0  0  0  0  0  0  0  0  0
   25.9867   50.3395    2.7515 H   0  0  0  0  0  0  0  0  0  0  0  0
  1  2  1  0
  2  3  2  0
  2  4  1  0
  4  5  2  0
  5  6  1  0
  6  7  2  0
  7  8  1  0
  8  9  1  0
  9 10  2  0
 10 11  1  0
 11 12  2  0
 12 13  1  0
 13 14  2  0
 14 15  1  0
 15 16  1  0
 16 17  1  0
 17 18  1  0
 18 19  1  0
 19 20  1  0
 15 21  2  0
 21 22  1  0
  8 23  2  0
 23  4  1  0
 22  9  1  0
 22 12  1  0
 20 18  1  0
  1 24  1  0
  1 25  1  0
  1 26  1  0
  5 27  1  0
  6 28  1  0
  7 29  1  0
 10 30  1  0
 13 31  1  0
 14 32  1  0
 16 33  1  0
 17 34  1  0
 17 35  1  0
 18 36  1  0
 19 37  1  0
 19 38  1  0
 20 39  1  0
 20 40  1  0
 23 41  1  0
M  END
>  <meeko>  (8) 
{"is_sidechain": [false], "free_energy": -8.739, "intermolecular_energy": -11.212, "internal_energy": -0.499}

$$$$
2c3i_ligand
     RDKit          3D

 41 44  0  0  0  0  0  0  0  0999 V2000
   25.5180   53.8020   -4.6690 C   0  0  0  0  0  0  0  0  0  0  0  0
   25.9380   54.2950   -3.3090 C   0  0  0  0  0  0  0  0  0  0  0  0
   25.9190   55.4940   -3.0360 O   0  0  0  0  0  0  0  0  0  0  0  0
   26.3790   53.3020   -2.2840 C   0  0  0  0  0  0  0  0  0  0  0  0
   27.0710   53.6820   -1.1290 C   0  0  0  0  0  0  0  0  0  0  0  0
   27.4630   52.7140   -0.2040 C   0  0  0  0  0  0  0  0  0  0  0  0
   27.1670   51.3680   -0.4260 C   0  0  0  0  0  0  0  0  0  0  0  0
   26.4710   50.9650   -1.5730 C   0  0  0  0  0  0  0  0  0  0  0  0
   26.1700   49.5550   -1.8300 C   0  0  0  0  0  0  0  0  0  0  0  0
   26.0290   48.8800   -3.0320 C   0  0  0  0  0  0  0  0  0  0  0  0
   25.7400   47.5530   -2.8490 N   0  0  0  0  0  0  0  0  0  0  0  0
   25.6870   47.4000   -1.5440 C   0  0  0  0  0  0  0  0  0  0  0  0
   25.4250   46.2560   -0.7650 C   0  0  0  0  0  0  0  0  0  0  0  0
   25.4010   46.3620    0.5680 C   0  0  0  0  0  0  0  0  0  0  0  0
   25.6480   47.7020    1.1840 C   0  0  0  0  0  0  0  0  0  0  0  0
   25.6200   47.8940    2.5440 N   0  0  0  0  0  0  0  0  0  0  0  0
   25.0640   49.0490    3.2140 C   0  0  0  0  0  0  0  0  0  0  0  0
   26.1550   49.8030    3.9110 C   0  0  0  0  0  0  0  0  0  0  0  0
   26.3440   51.2810    3.6710 C   0  0  0  0  0  0  0  0  0  0  0  0
   27.3560   50.3000    3.1450 C   0  0  0  0  0  0  0  0  0  0  0  0
   25.9180   48.7740    0.4850 N   0  0  0  0  0  0  0  0  0  0  0  0
   25.9330   48.5840   -0.8700 N   0  0  0  0  0  0  0  0  0  0  0  0
   26.0870   51.9460   -2.5000 C   0  0  0  0  0  0  0  0  0  0  0  0
   24.8085   52.9692   -4.5541 H   0  0  0  0  0  0  0  0  0  0  0  0
   25.0357   54.6208   -5.2230 H   0  0  0  0  0  0  0  0  0  0  0  0
   26.4031   53.4559   -5.2230 H   0  0  0  0  0  0  0  0  0  0  0  0
   27.3055   54.7418   -0.9506 H   0  0  0  0  0  0  0  0  0  0  0  0
   28.0075   53.0126    0.7039 H   0  0  0  0  0  0  0  0  0  0  0  0
   27.4844   50.6140    0.3093 H   0  0  0  0  0  0  0  0  0  0  0  0
   26.1366   49.3544   -4.0186 H   0  0  0  0  0  0  0  0  0  0  0  0
   25.2419   45.2850   -1.2483 H   0  0  0  0  0  0  0  0  0  0  0  0
   25.2037   45.4821    1.1979 H   0  0  0  0  0  0  0  0  0  0  0  0
   26.4940   47.5840    2.9590 H   0  0  0  0  0  0  0  0  0  0  0  0
   24.5822   49.7044    2.4735 H   0  0  0  0  0  0  0  0  0  0  0  0
   24.3204   48.7177    3.9538 H   0  0  0  0  0  0  0  0  0  0  0  0
   26.0036   49.1713    4.7987 H   0  0  0  0  0  0  0  0  0  0  0  0
   25.6809   51.8139    2.9737 H   0  0  0  0  0  0  0  0  0  0  0  0
   26.3871   52.1734    4.3126 H   0  0  0  0  0  0  0  0  0  0  0  0
   27.4326   50.1161    2.0632 H   0  0  0  0  0  0  0  0  0  0  0  0
   28.4449   50.1790    3.2431 H   0  0  0  0  0  0  0  0  0  0  0  0
   25.5481   51.6474   -3.4113 H   0  0  0  0  0  0  0  0  0  0  0  0
  1  2  1  0
  2  3  2  0
  2  4  1  0
  4  5  2  0
  5  6  1  0
  6  7  2  0
  7  8  1  0
  8  9  1  0
  9 10  2  0
 10 11  1  0
 11 12  2  0
 12 13  1  0
 13 14  2  0
 14 15  1  0
 15 16  1  0
 16 17  1  0
 17 18  1  0
 18 19  1  0
 19 20  1  0
 15 21  2  0
 21 22  1  0
  8 23  2  0
 23  4  1  0
 22  9  1  0
 22 12  1  0
 20 18  1  0
  1 24  1  0
  1 25  1  0
  1 26  1  0
  5 27  1  0
  6 28  1  0
  7 29  1  0
 10 30  1  0
 13 31  1  0
 14 32  1  0
 16 33  1  0
 17 34  1  0
 17 35  1  0
 18 36  1  0
 19 37  1  0
 19 38  1  0
 20 39  1  0
 20 40  1  0
 23 41  1  0
M  END
>  <meeko>  (9) 
{"is_sidechain": [false], "free_energy": -8.734, "intermolecular_energy": -11.185, "internal_energy": -0.519}

$$$$
