1eby_ligand
     RDKit          3D

 88 93  0  0  0  0  0  0  0  0999 V2000
   10.8430   23.6910    6.2310 O   0  0  0  0  0  0  0  0  0  0  0  0
   11.2370   24.6150    5.5170 C   0  0  0  0  0  0  0  0  0  0  0  0
   10.6430   25.8540    5.5440 N   0  0  0  0  0  0  0  0  0  0  0  0
    9.3910   26.0570    6.2290 C   0  0  1  0  0  0  0  0  0  0  0  0
    9.5420   26.7900    7.5340 C   0  0  0  0  0  0  0  0  0  0  0  0
   10.5060   26.6160    8.5160 C   0  0  0  0  0  0  0  0  0  0  0  0
   10.4180   27.3840    9.6780 C   0  0  0  0  0  0  0  0  0  0  0  0
    9.3700   28.3000    9.8530 C   0  0  0  0  0  0  0  0  0  0  0  0
    8.3940   28.4610    8.8670 C   0  0  0  0  0  0  0  0  0  0  0  0
    8.4960   27.7050    7.7110 C   0  0  0  0  0  0  0  0  0  0  0  0
    7.5550   27.6830    6.5410 C   0  0  0  0  0  0  0  0  0  0  0  0
    8.4110   26.9940    5.4600 C   0  0  1  0  0  0  0  0  0  0  0  0
    9.1290   27.9890    4.7030 O   0  0  0  0  0  0  0  0  0  0  0  0
   12.3780   24.4540    4.4830 C   0  0  2  0  0  0  0  0  0  0  0  0
   11.8860   23.7070    3.3590 O   0  0  0  0  0  0  0  0  0  0  0  0
   11.4360   24.5400    2.2900 C   0  0  0  0  0  0  0  0  0  0  0  0
    9.9300   24.4860    2.2310 C   0  0  0  0  0  0  0  0  0  0  0  0
    9.2330   23.3410    2.6380 C   0  0  0  0  0  0  0  0  0  0  0  0
    7.8370   23.3200    2.6260 C   0  0  0  0  0  0  0  0  0  0  0  0
    7.1250   24.4430    2.2080 C   0  0  0  0  0  0  0  0  0  0  0  0
    7.8060   25.5890    1.8020 C   0  0  0  0  0  0  0  0  0  0  0  0
    9.2010   25.6110    1.8150 C   0  0  0  0  0  0  0  0  0  0  0  0
   13.6040   23.7110    5.0720 C   0  0  2  0  0  0  0  0  0  0  0  0
   14.7410   24.5940    5.0320 O   0  0  0  0  0  0  0  0  0  0  0  0
   13.8730   22.4030    4.2740 C   0  0  1  0  0  0  0  0  0  0  0  0
   15.1060   22.5240    3.5340 O   0  0  0  0  0  0  0  0  0  0  0  0
   13.8840   21.1130    5.1190 C   0  0  1  0  0  0  0  0  0  0  0  0
   15.0200   20.3380    4.7020 O   0  0  0  0  0  0  0  0  0  0  0  0
   14.7280   18.9460    4.5770 C   0  0  0  0  0  0  0  0  0  0  0  0
   15.7520   18.3520    3.6490 C   0  0  0  0  0  0  0  0  0  0  0  0
   15.6780   18.5810    2.2670 C   0  0  0  0  0  0  0  0  0  0  0  0
   16.6430   18.0540    1.4080 C   0  0  0  0  0  0  0  0  0  0  0  0
   17.6970   17.3000    1.9220 C   0  0  0  0  0  0  0  0  0  0  0  0
   17.7870   17.0730    3.2930 C   0  0  0  0  0  0  0  0  0  0  0  0
   16.8200   17.5970    4.1530 C   0  0  0  0  0  0  0  0  0  0  0  0
   13.9740   21.4730    6.6070 C   0  0  0  0  0  0  0  0  0  0  0  0
   12.9890   21.8420    7.2440 O   0  0  0  0  0  0  0  0  0  0  0  0
   15.2470   21.4410    7.1080 N   0  0  0  0  0  0  0  0  0  0  0  0
   15.6180   21.9570    8.4050 C   0  0  1  0  0  0  0  0  0  0  0  0
   16.4050   20.9480    9.1850 C   0  0  0  0  0  0  0  0  0  0  0  0
   15.9330   19.8020    9.8050 C   0  0  0  0  0  0  0  0  0  0  0  0
   16.8480   18.9760   10.4610 C   0  0  0  0  0  0  0  0  0  0  0  0
   18.2130   19.2990   10.4820 C   0  0  0  0  0  0  0  0  0  0  0  0
   18.6810   20.4540    9.8510 C   0  0  0  0  0  0  0  0  0  0  0  0
   17.7660   21.2730    9.2120 C   0  0  0  0  0  0  0  0  0  0  0  0
   18.0410   22.5300    8.4490 C   0  0  0  0  0  0  0  0  0  0  0  0
   16.6320   23.1330    8.2700 C   0  0  1  0  0  0  0  0  0  0  0  0
   16.5520   23.8010    7.0070 O   0  0  0  0  0  0  0  0  0  0  0  0
   10.8510   26.4730    4.7610 H   0  0  0  0  0  0  0  0  0  0  0  0
    9.0211   25.0269    6.3389 H   0  0  0  0  0  0  0  0  0  0  0  0
   11.3210   25.8895    8.3820 H   0  0  0  0  0  0  0  0  0  0  0  0
   11.1783   27.2699   10.4648 H   0  0  0  0  0  0  0  0  0  0  0  0
    9.3164   28.8970   10.7753 H   0  0  0  0  0  0  0  0  0  0  0  0
    7.5649   29.1706    9.0051 H   0  0  0  0  0  0  0  0  0  0  0  0
    6.6495   27.1004    6.7663 H   0  0  0  0  0  0  0  0  0  0  0  0
    7.1843   28.6767    6.2490 H   0  0  0  0  0  0  0  0  0  0  0  0
    7.8011   26.4219    4.7453 H   0  0  0  0  0  0  0  0  0  0  0  0
    9.4890   28.6300    5.3380 H   0  0  0  0  0  0  0  0  0  0  0  0
   12.7026   25.4617    4.1843 H   0  0  0  0  0  0  0  0  0  0  0  0
   11.7620   25.5757    2.4663 H   0  0  0  0  0  0  0  0  0  0  0  0
   11.8597   24.1872    1.3382 H   0  0  0  0  0  0  0  0  0  0  0  0
    9.7896   22.4520    2.9695 H   0  0  0  0  0  0  0  0  0  0  0  0
    7.2984   22.4161    2.9468 H   0  0  0  0  0  0  0  0  0  0  0  0
    6.0252   24.4246    2.1986 H   0  0  0  0  0  0  0  0  0  0  0  0
    7.2444   26.4753    1.4716 H   0  0  0  0  0  0  0  0  0  0  0  0
    9.7345   26.5186    1.4962 H   0  0  0  0  0  0  0  0  0  0  0  0
   13.4096   23.4255    6.1164 H   0  0  0  0  0  0  0  0  0  0  0  0
   14.6650   25.2350    5.7700 H   0  0  0  0  0  0  0  0  0  0  0  0
   13.0166   22.2934    3.5924 H   0  0  0  0  0  0  0  0  0  0  0  0
   15.3160   23.4790    3.5130 H   0  0  0  0  0  0  0  0  0  0  0  0
   12.9621   20.5306    4.9743 H   0  0  0  0  0  0  0  0  0  0  0  0
   14.7866   18.4598    5.5620 H   0  0  0  0  0  0  0  0  0  0  0  0
   13.7127   18.7966    4.1810 H   0  0  0  0  0  0  0  0  0  0  0  0
   14.8523   19.1811    1.8571 H   0  0  0  0  0  0  0  0  0  0  0  0
   16.5721   18.2335    0.3251 H   0  0  0  0  0  0  0  0  0  0  0  0
   18.4575   16.8844    1.2446 H   0  0  0  0  0  0  0  0  0  0  0  0
   18.6204   16.4806    3.6986 H   0  0  0  0  0  0  0  0  0  0  0  0
   16.8969   17.4158    5.2352 H   0  0  0  0  0  0  0  0  0  0  0  0
   15.9860   21.0960    6.4990 H   0  0  0  0  0  0  0  0  0  0  0  0
   14.6697   22.2419    8.8840 H   0  0  0  0  0  0  0  0  0  0  0  0
   14.8628   19.5490    9.7809 H   0  0  0  0  0  0  0  0  0  0  0  0
   16.4955   18.0643   10.9656 H   0  0  0  0  0  0  0  0  0  0  0  0
   18.9216   18.6363   11.0004 H   0  0  0  0  0  0  0  0  0  0  0  0
   19.7515   20.7068    9.8616 H   0  0  0  0  0  0  0  0  0  0  0  0
   18.6924   23.2069    9.0212 H   0  0  0  0  0  0  0  0  0  0  0  0
   18.5661   22.3574    7.4980 H   0  0  0  0  0  0  0  0  0  0  0  0
   16.4006   23.8926    9.0312 H   0  0  0  0  0  0  0  0  0  0  0  0
   17.1840   23.3680    6.3960 H   0  0  0  0  0  0  0  0  0  0  0  0
  1  2  2  0
  2  3  1  0
  3  4  1  0
  4  5  1  0
  5  6  2  0
  6  7  1  0
  7  8  2  0
  8  9  1  0
  9 10  2  0
 10 11  1  0
 11 12  1  0
 12 13  1  0
  2 14  1  0
 14 15  1  0
 15 16  1  0
 16 17  1  0
 17 18  2  0
 18 19  1  0
 19 20  2  0
 20 21  1  0
 21 22  2  0
 14 23  1  0
 23 24  1  0
 23 25  1  0
 25 26  1  0
 25 27  1  0
 27 28  1  0
 28 29  1  0
 29 30  1  0
 30 31  2  0
 31 32  1  0
 32 33  2  0
 33 34  1  0
 34 35  2  0
 27 36  1  0
 36 37  2  0
 36 38  1  0
 38 39  1  0
 39 40  1  0
 40 41  2  0
 41 42  1  0
 42 43  2  0
 43 44  1  0
 44 45  2  0
 45 46  1  0
 46 47  1  0
 47 48  1  0
 12  4  1  0
 22 17  1  0
 35 30  1  0
 47 39  1  0
 10  5  1  0
 45 40  1  0
  3 49  1  0
  4 50  1  1
  6 51  1  0
  7 52  1  0
  8 53  1  0
  9 54  1  0
 11 55  1  0
 11 56  1  0
 12 57  1  6
 13 58  1  0
 14 59  1  6
 16 60  1  0
 16 61  1  0
 18 62  1  0
 19 63  1  0
 20 64  1  0
 21 65  1  0
 22 66  1  0
 23 67  1  1
 24 68  1  0
 25 69  1  6
 26 70  1  0
 27 71  1  1
 29 72  1  0
 29 73  1  0
 31 74  1  0
 32 75  1  0
 33 76  1  0
 34 77  1  0
 35 78  1  0
 38 79  1  0
 39 80  1  1
 41 81  1  0
 42 82  1  0
 43 83  1  0
 44 84  1  0
 46 85  1  0
 46 86  1  0
 47 87  1  1
 48 88  1  0
M  END
>  <meeko>  (1) 
{"is_sidechain": [false], "free_energy": -12.331, "intermolecular_energy": -23.144, "internal_energy": -2.626}

$$$$
1eby_ligand
     RDKit          3D

 88 93  0  0  0  0  0  0  0  0999 V2000
   14.0930   20.8460    5.9780 O   0  0  0  0  0  0  0  0  0  0  0  0
   15.0450   21.6090    5.8120 C   0  0  0  0  0  0  0  0  0  0  0  0
   16.2590   21.1620    5.3500 N   0  0  0  0  0  0  0  0  0  0  0  0
   16.5420   19.7500    5.2660 C   0  0  1  0  0  0  0  0  0  0  0  0
   16.5350   19.2280    3.8550 C   0  0  0  0  0  0  0  0  0  0  0  0
   15.6440   19.5140    2.8320 C   0  0  0  0  0  0  0  0  0  0  0  0
   15.8080   18.8670    1.6060 C   0  0  0  0  0  0  0  0  0  0  0  0
   16.8430   17.9380    1.4200 C   0  0  0  0  0  0  0  0  0  0  0  0
   17.7300   17.6430    2.4580 C   0  0  0  0  0  0  0  0  0  0  0  0
   17.5680   18.3000    3.6670 C   0  0  0  0  0  0  0  0  0  0  0  0
   18.3710   18.1220    4.9240 C   0  0  0  0  0  0  0  0  0  0  0  0
   17.9840   19.3800    5.7260 C   0  0  1  0  0  0  0  0  0  0  0  0
   18.9120   20.4450    5.4340 O   0  0  0  0  0  0  0  0  0  0  0  0
   14.9910   23.1150    6.1700 C   0  0  2  0  0  0  0  0  0  0  0  0
   14.7580   23.2510    7.5810 O   0  0  0  0  0  0  0  0  0  0  0  0
   15.9580   23.4530    8.3270 C   0  0  0  0  0  0  0  0  0  0  0  0
   16.3930   22.1350    8.9190 C   0  0  0  0  0  0  0  0  0  0  0  0
   15.4870   21.3250    9.6160 C   0  0  0  0  0  0  0  0  0  0  0  0
   15.8870   20.0840   10.1170 C   0  0  0  0  0  0  0  0  0  0  0  0
   17.1950   19.6420    9.9240 C   0  0  0  0  0  0  0  0  0  0  0  0
   18.1050   20.4390    9.2320 C   0  0  0  0  0  0  0  0  0  0  0  0
   17.7060   21.6770    8.7300 C   0  0  0  0  0  0  0  0  0  0  0  0
   13.8650   23.8590    5.4090 C   0  0  2  0  0  0  0  0  0  0  0  0
   14.4670   24.7060    4.4100 O   0  0  0  0  0  0  0  0  0  0  0  0
   12.9980   24.6820    6.4030 C   0  0  1  0  0  0  0  0  0  0  0  0
   12.9240   26.0560    5.9690 O   0  0  0  0  0  0  0  0  0  0  0  0
   11.5820   24.1250    6.6500 C   0  0  1  0  0  0  0  0  0  0  0  0
   10.7210   25.2460    6.9130 O   0  0  0  0  0  0  0  0  0  0  0  0
    9.6470   24.9270    7.7970 C   0  0  0  0  0  0  0  0  0  0  0  0
    9.2900   26.1820    8.5450 C   0  0  0  0  0  0  0  0  0  0  0  0
   10.1750   26.7230    9.4890 C   0  0  0  0  0  0  0  0  0  0  0  0
    9.8580   27.9030   10.1630 C   0  0  0  0  0  0  0  0  0  0  0  0
    8.6580   28.5590    9.8950 C   0  0  0  0  0  0  0  0  0  0  0  0
    7.7750   28.0370    8.9520 C   0  0  0  0  0  0  0  0  0  0  0  0
    8.0890   26.8550    8.2800 C   0  0  0  0  0  0  0  0  0  0  0  0
   11.1140   23.3420    5.4180 C   0  0  0  0  0  0  0  0  0  0  0  0
   11.3360   22.1380    5.2940 O   0  0  0  0  0  0  0  0  0  0  0  0
   10.5330   24.1210    4.4550 N   0  0  0  0  0  0  0  0  0  0  0  0
   10.2250   23.6610    3.1210 C   0  0  1  0  0  0  0  0  0  0  0  0
    8.7830   23.8990    2.7860 C   0  0  0  0  0  0  0  0  0  0  0  0
    7.6790   23.2030    3.2540 C   0  0  0  0  0  0  0  0  0  0  0  0
    6.4110   23.6090    2.8350 C   0  0  0  0  0  0  0  0  0  0  0  0
    6.2630   24.7020    1.9680 C   0  0  0  0  0  0  0  0  0  0  0  0
    7.3790   25.4000    1.5040 C   0  0  0  0  0  0  0  0  0  0  0  0
    8.6350   24.9840    1.9160 C   0  0  0  0  0  0  0  0  0  0  0  0
    9.9560   25.5960    1.5770 C   0  0  0  0  0  0  0  0  0  0  0  0
   10.9580   24.5210    2.0480 C   0  0  1  0  0  0  0  0  0  0  0  0
   12.1410   25.1530    2.5490 O   0  0  0  0  0  0  0  0  0  0  0  0
   17.0520   21.7880    5.4800 H   0  0  0  0  0  0  0  0  0  0  0  0
   15.7536   19.3209    5.9018 H   0  0  0  0  0  0  0  0  0  0  0  0
   14.8265   20.2343    2.9830 H   0  0  0  0  0  0  0  0  0  0  0  0
   15.1190   19.0876    0.7774 H   0  0  0  0  0  0  0  0  0  0  0  0
   16.9570   17.4371    0.4473 H   0  0  0  0  0  0  0  0  0  0  0  0
   18.5364   16.9079    2.3191 H   0  0  0  0  0  0  0  0  0  0  0  0
   18.0833   17.2034    5.4564 H   0  0  0  0  0  0  0  0  0  0  0  0
   19.4524   18.0191    4.7510 H   0  0  0  0  0  0  0  0  0  0  0  0
   18.0171   19.2097    6.8122 H   0  0  0  0  0  0  0  0  0  0  0  0
   19.7130   20.2810    5.9600 H   0  0  0  0  0  0  0  0  0  0  0  0
   15.9524   23.5624    5.8774 H   0  0  0  0  0  0  0  0  0  0  0  0
   16.7458   23.8372    7.6623 H   0  0  0  0  0  0  0  0  0  0  0  0
   15.7788   24.1818    9.1312 H   0  0  0  0  0  0  0  0  0  0  0  0
   14.4535   21.6687    9.7698 H   0  0  0  0  0  0  0  0  0  0  0  0
   15.1694   19.4550   10.6642 H   0  0  0  0  0  0  0  0  0  0  0  0
   17.5088   18.6641   10.3179 H   0  0  0  0  0  0  0  0  0  0  0  0
   19.1378   20.0914    9.0819 H   0  0  0  0  0  0  0  0  0  0  0  0
   18.4269   22.3004    8.1808 H   0  0  0  0  0  0  0  0  0  0  0  0
   13.1997   23.1370    4.9129 H   0  0  0  0  0  0  0  0  0  0  0  0
   13.7550   25.0860    3.8530 H   0  0  0  0  0  0  0  0  0  0  0  0
   13.5107   24.6054    7.3732 H   0  0  0  0  0  0  0  0  0  0  0  0
   13.7840   26.4600    6.2010 H   0  0  0  0  0  0  0  0  0  0  0  0
   11.5662   23.4343    7.5059 H   0  0  0  0  0  0  0  0  0  0  0  0
    8.7791   24.5730    7.2213 H   0  0  0  0  0  0  0  0  0  0  0  0
    9.9433   24.1304    8.4954 H   0  0  0  0  0  0  0  0  0  0  0  0
   11.1266   26.2130    9.6998 H   0  0  0  0  0  0  0  0  0  0  0  0
   10.5558   28.3157   10.9064 H   0  0  0  0  0  0  0  0  0  0  0  0
    8.4080   29.4884   10.4277 H   0  0  0  0  0  0  0  0  0  0  0  0
    6.8298   28.5570    8.7371 H   0  0  0  0  0  0  0  0  0  0  0  0
    7.3883   26.4479    7.5361 H   0  0  0  0  0  0  0  0  0  0  0  0
   10.3760   25.1030    4.6730 H   0  0  0  0  0  0  0  0  0  0  0  0
   10.5119   22.5991    3.1090 H   0  0  0  0  0  0  0  0  0  0  0  0
    7.7995   22.3510    3.9393 H   0  0  0  0  0  0  0  0  0  0  0  0
    5.5206   23.0676    3.1874 H   0  0  0  0  0  0  0  0  0  0  0  0
    5.2565   25.0122    1.6505 H   0  0  0  0  0  0  0  0  0  0  0  0
    7.2643   26.2597    0.8275 H   0  0  0  0  0  0  0  0  0  0  0  0
   10.0447   25.7743    0.4952 H   0  0  0  0  0  0  0  0  0  0  0  0
   10.1159   26.5778    2.0466 H   0  0  0  0  0  0  0  0  0  0  0  0
   11.2862   23.8655    1.2279 H   0  0  0  0  0  0  0  0  0  0  0  0
   12.8650   24.9910    1.9090 H   0  0  0  0  0  0  0  0  0  0  0  0
  1  2  2  0
  2  3  1  0
  3  4  1  0
  4  5  1  0
  5  6  2  0
  6  7  1  0
  7  8  2  0
  8  9  1  0
  9 10  2  0
 10 11  1  0
 11 12  1  0
 12 13  1  0
  2 14  1  0
 14 15  1  0
 15 16  1  0
 16 17  1  0
 17 18  2  0
 18 19  1  0
 19 20  2  0
 20 21  1  0
 21 22  2  0
 14 23  1  0
 23 24  1  0
 23 25  1  0
 25 26  1  0
 25 27  1  0
 27 28  1  0
 28 29  1  0
 29 30  1  0
 30 31  2  0
 31 32  1  0
 32 33  2  0
 33 34  1  0
 34 35  2  0
 27 36  1  0
 36 37  2  0
 36 38  1  0
 38 39  1  0
 39 40  1  0
 40 41  2  0
 41 42  1  0
 42 43  2  0
 43 44  1  0
 44 45  2  0
 45 46  1  0
 46 47  1  0
 47 48  1  0
 12  4  1  0
 22 17  1  0
 35 30  1  0
 47 39  1  0
 10  5  1  0
 45 40  1  0
  3 49  1  0
  4 50  1  1
  6 51  1  0
  7 52  1  0
  8 53  1  0
  9 54  1  0
 11 55  1  0
 11 56  1  0
 12 57  1  1
 13 58  1  0
 14 59  1  1
 16 60  1  0
 16 61  1  0
 18 62  1  0
 19 63  1  0
 20 64  1  0
 21 65  1  0
 22 66  1  0
 23 67  1  6
 24 68  1  0
 25 69  1  1
 26 70  1  0
 27 71  1  1
 29 72  1  0
 29 73  1  0
 31 74  1  0
 32 75  1  0
 33 76  1  0
 34 77  1  0
 35 78  1  0
 38 79  1  0
 39 80  1  1
 41 81  1  0
 42 82  1  0
 43 83  1  0
 44 84  1  0
 46 85  1  0
 46 86  1  0
 47 87  1  6
 48 88  1  0
M  END
>  <meeko>  (2) 
{"is_sidechain": [false], "free_energy": -12.028, "intermolecular_energy": -22.281, "internal_energy": -2.921}

$$$$
1eby_ligand
     RDKit          3D

 88 93  0  0  0  0  0  0  0  0999 V2000
   14.1540   20.1420    5.3550 O   0  0  0  0  0  0  0  0  0  0  0  0
   15.0300   21.0070    5.3090 C   0  0  0  0  0  0  0  0  0  0  0  0
   16.3560   20.6880    5.1400 N   0  0  0  0  0  0  0  0  0  0  0  0
   16.8040   19.3210    5.2470 C   0  0  1  0  0  0  0  0  0  0  0  0
   16.9460   18.6390    3.9130 C   0  0  0  0  0  0  0  0  0  0  0  0
   16.0930   18.6910    2.8210 C   0  0  0  0  0  0  0  0  0  0  0  0
   16.4070   17.9290    1.6950 C   0  0  0  0  0  0  0  0  0  0  0  0
   17.5520   17.1180    1.6760 C   0  0  0  0  0  0  0  0  0  0  0  0
   18.4010   17.0590    2.7840 C   0  0  0  0  0  0  0  0  0  0  0  0
   18.0890   17.8290    3.8920 C   0  0  0  0  0  0  0  0  0  0  0  0
   18.8270   17.9000    5.1980 C   0  0  0  0  0  0  0  0  0  0  0  0
   18.2480   19.1880    5.8180 C   0  0  1  0  0  0  0  0  0  0  0  0
   19.0630   20.3160    5.4400 O   0  0  0  0  0  0  0  0  0  0  0  0
   14.7360   22.5150    5.5060 C   0  0  2  0  0  0  0  0  0  0  0  0
   14.5500   22.7750    6.9070 O   0  0  0  0  0  0  0  0  0  0  0  0
   15.7380   23.2330    7.5520 C   0  0  0  0  0  0  0  0  0  0  0  0
   16.2690   22.1330    8.4360 C   0  0  0  0  0  0  0  0  0  0  0  0
   15.4060   21.3730    9.2370 C   0  0  0  0  0  0  0  0  0  0  0  0
   15.9020   20.3240   10.0140 C   0  0  0  0  0  0  0  0  0  0  0  0
   17.2630   20.0250    9.9980 C   0  0  0  0  0  0  0  0  0  0  0  0
   18.1320   20.7740    9.2060 C   0  0  0  0  0  0  0  0  0  0  0  0
   17.6380   21.8200    8.4280 C   0  0  0  0  0  0  0  0  0  0  0  0
   13.4650   22.9700    4.7460 C   0  0  2  0  0  0  0  0  0  0  0  0
   13.6690   22.7520    3.3360 O   0  0  0  0  0  0  0  0  0  0  0  0
   13.1630   24.4650    5.0510 C   0  0  1  0  0  0  0  0  0  0  0  0
   14.1860   25.3010    4.4710 O   0  0  0  0  0  0  0  0  0  0  0  0
   11.7660   24.9500    4.6130 C   0  0  1  0  0  0  0  0  0  0  0  0
   11.3380   24.1020    3.5330 O   0  0  0  0  0  0  0  0  0  0  0  0
   10.8610   24.8360    2.4060 C   0  0  0  0  0  0  0  0  0  0  0  0
    9.3650   24.6870    2.3700 C   0  0  0  0  0  0  0  0  0  0  0  0
    8.5780   25.5920    1.6440 C   0  0  0  0  0  0  0  0  0  0  0  0
    7.1920   25.4390    1.5870 C   0  0  0  0  0  0  0  0  0  0  0  0
    6.5800   24.3740    2.2480 C   0  0  0  0  0  0  0  0  0  0  0  0
    7.3520   23.4640    2.9640 C   0  0  0  0  0  0  0  0  0  0  0  0
    8.7380   23.6180    3.0250 C   0  0  0  0  0  0  0  0  0  0  0  0
   10.7980   24.8710    5.7980 C   0  0  0  0  0  0  0  0  0  0  0  0
   10.7890   23.9070    6.5620 O   0  0  0  0  0  0  0  0  0  0  0  0
    9.9040   25.9050    5.8540 N   0  0  0  0  0  0  0  0  0  0  0  0
    8.7570   25.9360    6.7300 C   0  0  1  0  0  0  0  0  0  0  0  0
    9.0870   26.5970    8.0330 C   0  0  0  0  0  0  0  0  0  0  0  0
    9.8400   26.0810    9.0780 C   0  0  0  0  0  0  0  0  0  0  0  0
   10.0530   26.8810   10.2010 C   0  0  0  0  0  0  0  0  0  0  0  0
    9.5250   28.1790   10.2640 C   0  0  0  0  0  0  0  0  0  0  0  0
    8.7720   28.6930    9.2070 C   0  0  0  0  0  0  0  0  0  0  0  0
    8.5560   27.8890    8.0990 C   0  0  0  0  0  0  0  0  0  0  0  0
    7.8150   28.2380    6.8480 C   0  0  0  0  0  0  0  0  0  0  0  0
    7.6420   26.8660    6.1620 C   0  0  1  0  0  0  0  0  0  0  0  0
    7.7150   27.0260    4.7420 O   0  0  0  0  0  0  0  0  0  0  0  0
   17.0300   21.4180    5.3650 H   0  0  0  0  0  0  0  0  0  0  0  0
   16.0322   18.8765    5.8926 H   0  0  0  0  0  0  0  0  0  0  0  0
   15.1897   19.3184    2.8419 H   0  0  0  0  0  0  0  0  0  0  0  0
   15.7503   17.9644    0.8133 H   0  0  0  0  0  0  0  0  0  0  0  0
   17.7833   16.5230    0.7802 H   0  0  0  0  0  0  0  0  0  0  0  0
   19.2944   16.4173    2.7765 H   0  0  0  0  0  0  0  0  0  0  0  0
   18.6145   17.0225    5.8263 H   0  0  0  0  0  0  0  0  0  0  0  0
   19.9217   17.9102    5.0910 H   0  0  0  0  0  0  0  0  0  0  0  0
   18.2330   19.1534    6.9174 H   0  0  0  0  0  0  0  0  0  0  0  0
   19.6920   20.4720    6.1650 H   0  0  0  0  0  0  0  0  0  0  0  0
   15.5919   23.0768    5.1038 H   0  0  0  0  0  0  0  0  0  0  0  0
   16.4919   23.4945    6.7948 H   0  0  0  0  0  0  0  0  0  0  0  0
   15.5134   24.1228    8.1585 H   0  0  0  0  0  0  0  0  0  0  0  0
   14.3307   21.6043    9.2538 H   0  0  0  0  0  0  0  0  0  0  0  0
   15.2172   19.7327   10.6397 H   0  0  0  0  0  0  0  0  0  0  0  0
   17.6516   19.1979   10.6103 H   0  0  0  0  0  0  0  0  0  0  0  0
   19.2067   20.5398    9.1950 H   0  0  0  0  0  0  0  0  0  0  0  0
   18.3271   22.4058    7.8019 H   0  0  0  0  0  0  0  0  0  0  0  0
   12.5944   22.3846    5.0767 H   0  0  0  0  0  0  0  0  0  0  0  0
   13.3640   23.5460    2.8500 H   0  0  0  0  0  0  0  0  0  0  0  0
   13.1663   24.5487    6.1478 H   0  0  0  0  0  0  0  0  0  0  0  0
   14.8180   24.6940    4.0370 H   0  0  0  0  0  0  0  0  0  0  0  0
   11.7918   25.9971    4.2771 H   0  0  0  0  0  0  0  0  0  0  0  0
   11.1304   25.8976    2.5078 H   0  0  0  0  0  0  0  0  0  0  0  0
   11.3108   24.4554    1.4771 H   0  0  0  0  0  0  0  0  0  0  0  0
    9.0567   26.4293    1.1151 H   0  0  0  0  0  0  0  0  0  0  0  0
    6.5821   26.1583    1.0208 H   0  0  0  0  0  0  0  0  0  0  0  0
    5.4875   24.2535    2.2033 H   0  0  0  0  0  0  0  0  0  0  0  0
    6.8694   22.6224    3.4825 H   0  0  0  0  0  0  0  0  0  0  0  0
    9.3430   22.8948    3.5915 H   0  0  0  0  0  0  0  0  0  0  0  0
   10.0180   26.6650    5.1850 H   0  0  0  0  0  0  0  0  0  0  0  0
    8.4473   24.8857    6.8346 H   0  0  0  0  0  0  0  0  0  0  0  0
   10.2590   25.0655    9.0224 H   0  0  0  0  0  0  0  0  0  0  0  0
   10.6405   26.4902   11.0449 H   0  0  0  0  0  0  0  0  0  0  0  0
    9.7061   28.7979   11.1551 H   0  0  0  0  0  0  0  0  0  0  0  0
    8.3599   29.7119    9.2524 H   0  0  0  0  0  0  0  0  0  0  0  0
    6.8399   28.6921    7.0782 H   0  0  0  0  0  0  0  0  0  0  0  0
    8.3383   28.9760    6.2222 H   0  0  0  0  0  0  0  0  0  0  0  0
    6.6603   26.4143    6.3673 H   0  0  0  0  0  0  0  0  0  0  0  0
    6.8440   26.7850    4.3650 H   0  0  0  0  0  0  0  0  0  0  0  0
  1  2  2  0
  2  3  1  0
  3  4  1  0
  4  5  1  0
  5  6  2  0
  6  7  1  0
  7  8  2  0
  8  9  1  0
  9 10  2  0
 10 11  1  0
 11 12  1  0
 12 13  1  0
  2 14  1  0
 14 15  1  0
 15 16  1  0
 16 17  1  0
 17 18  2  0
 18 19  1  0
 19 20  2  0
 20 21  1  0
 21 22  2  0
 14 23  1  0
 23 24  1  0
 23 25  1  0
 25 26  1  0
 25 27  1  0
 27 28  1  0
 28 29  1  0
 29 30  1  0
 30 31  2  0
 31 32  1  0
 32 33  2  0
 33 34  1  0
 34 35  2  0
 27 36  1  0
 36 37  2  0
 36 38  1  0
 38 39  1  0
 39 40  1  0
 40 41  2  0
 41 42  1  0
 42 43  2  0
 43 44  1  0
 44 45  2  0
 45 46  1  0
 46 47  1  0
 47 48  1  0
 12  4  1  0
 22 17  1  0
 35 30  1  0
 47 39  1  0
 10  5  1  0
 45 40  1  0
  3 49  1  0
  4 50  1  1
  6 51  1  0
  7 52  1  0
  8 53  1  0
  9 54  1  0
 11 55  1  0
 11 56  1  0
 12 57  1  1
 13 58  1  0
 14 59  1  6
 16 60  1  0
 16 61  1  0
 18 62  1  0
 19 63  1  0
 20 64  1  0
 21 65  1  0
 22 66  1  0
 23 67  1  1
 24 68  1  0
 25 69  1  1
 26 70  1  0
 27 71  1  6
 29 72  1  0
 29 73  1  0
 31 74  1  0
 32 75  1  0
 33 76  1  0
 34 77  1  0
 35 78  1  0
 38 79  1  0
 39 80  1  1
 41 81  1  0
 42 82  1  0
 43 83  1  0
 44 84  1  0
 46 85  1  0
 46 86  1  0
 47 87  1  6
 48 88  1  0
M  END
>  <meeko>  (3) 
{"is_sidechain": [false], "free_energy": -11.841, "intermolecular_energy": -21.854, "internal_energy": -2.996}

$$$$
1eby_ligand
     RDKit          3D

 88 93  0  0  0  0  0  0  0  0999 V2000
   10.0810   23.8990    6.7130 O   0  0  0  0  0  0  0  0  0  0  0  0
   10.6090   24.7490    5.9950 C   0  0  0  0  0  0  0  0  0  0  0  0
   10.0370   25.9830    5.7930 N   0  0  0  0  0  0  0  0  0  0  0  0
    8.6860   26.2480    6.2210 C   0  0  1  0  0  0  0  0  0  0  0  0
    8.6140   27.0430    7.4960 C   0  0  0  0  0  0  0  0  0  0  0  0
    9.3720   26.8990    8.6480 C   0  0  0  0  0  0  0  0  0  0  0  0
    9.0930   27.7270    9.7360 C   0  0  0  0  0  0  0  0  0  0  0  0
    8.0590   28.6730    9.6680 C   0  0  0  0  0  0  0  0  0  0  0  0
    7.2900   28.8060    8.5100 C   0  0  0  0  0  0  0  0  0  0  0  0
    7.5820   27.9890    7.4300 C   0  0  0  0  0  0  0  0  0  0  0  0
    6.8760   27.9280    6.1060 C   0  0  0  0  0  0  0  0  0  0  0  0
    7.8970   27.1660    5.2390 C   0  0  1  0  0  0  0  0  0  0  0  0
    8.7740   28.1050    4.5850 O   0  0  0  0  0  0  0  0  0  0  0  0
   11.9130   24.4900    5.2010 C   0  0  2  0  0  0  0  0  0  0  0  0
   11.7010   23.3910    4.3010 O   0  0  0  0  0  0  0  0  0  0  0  0
   11.5730   23.8020    2.9400 C   0  0  0  0  0  0  0  0  0  0  0  0
   10.1180   24.0730    2.6470 C   0  0  0  0  0  0  0  0  0  0  0  0
    9.1370   23.1100    2.9200 C   0  0  0  0  0  0  0  0  0  0  0  0
    7.7880   23.3900    2.6920 C   0  0  0  0  0  0  0  0  0  0  0  0
    7.4080   24.6340    2.1900 C   0  0  0  0  0  0  0  0  0  0  0  0
    8.3740   25.5990    1.9140 C   0  0  0  0  0  0  0  0  0  0  0  0
    9.7220   25.3220    2.1440 C   0  0  0  0  0  0  0  0  0  0  0  0
   13.1060   24.1470    6.1290 C   0  0  2  0  0  0  0  0  0  0  0  0
   13.3920   25.2930    6.9550 O   0  0  0  0  0  0  0  0  0  0  0  0
   14.3440   23.7360    5.2820 C   0  0  1  0  0  0  0  0  0  0  0  0
   14.9640   24.9090    4.7160 O   0  0  0  0  0  0  0  0  0  0  0  0
   15.3920   22.8860    6.0280 C   0  0  1  0  0  0  0  0  0  0  0  0
   15.2170   23.1310    7.4340 O   0  0  0  0  0  0  0  0  0  0  0  0
   16.4530   23.3020    8.1270 C   0  0  0  0  0  0  0  0  0  0  0  0
   16.7180   22.0370    8.8970 C   0  0  0  0  0  0  0  0  0  0  0  0
   15.6620   21.3330    9.4930 C   0  0  0  0  0  0  0  0  0  0  0  0
   15.9040   20.1440   10.1830 C   0  0  0  0  0  0  0  0  0  0  0  0
   17.2010   19.6430   10.2770 C   0  0  0  0  0  0  0  0  0  0  0  0
   18.2560   20.3280    9.6800 C   0  0  0  0  0  0  0  0  0  0  0  0
   18.0170   21.5190    8.9930 C   0  0  0  0  0  0  0  0  0  0  0  0
   15.1880   21.4050    5.6930 C   0  0  0  0  0  0  0  0  0  0  0  0
   14.0970   20.8540    5.8320 O   0  0  0  0  0  0  0  0  0  0  0  0
   16.3370   20.7550    5.3320 N   0  0  0  0  0  0  0  0  0  0  0  0
   16.4460   19.3220    5.1950 C   0  0  1  0  0  0  0  0  0  0  0  0
   16.2160   18.8940    3.7770 C   0  0  0  0  0  0  0  0  0  0  0  0
   15.0100   18.8410    3.0950 C   0  0  0  0  0  0  0  0  0  0  0  0
   15.0200   18.4370    1.7590 C   0  0  0  0  0  0  0  0  0  0  0  0
   16.2250   18.1010    1.1240 C   0  0  0  0  0  0  0  0  0  0  0  0
   17.4350   18.1600    1.8170 C   0  0  0  0  0  0  0  0  0  0  0  0
   17.4160   18.5520    3.1460 C   0  0  0  0  0  0  0  0  0  0  0  0
   18.5830   18.7180    4.0660 C   0  0  0  0  0  0  0  0  0  0  0  0
   17.9080   18.8440    5.4490 C   0  0  1  0  0  0  0  0  0  0  0  0
   18.6580   19.7460    6.2690 O   0  0  0  0  0  0  0  0  0  0  0  0
   10.3900   26.5220    5.0040 H   0  0  0  0  0  0  0  0  0  0  0  0
    8.2698   25.2334    6.3072 H   0  0  0  0  0  0  0  0  0  0  0  0
   10.1750   26.1492    8.7030 H   0  0  0  0  0  0  0  0  0  0  0  0
    9.6895   27.6372   10.6559 H   0  0  0  0  0  0  0  0  0  0  0  0
    7.8520   29.3165   10.5358 H   0  0  0  0  0  0  0  0  0  0  0  0
    6.4732   29.5408    8.4567 H   0  0  0  0  0  0  0  0  0  0  0  0
    5.9266   27.3779    6.1833 H   0  0  0  0  0  0  0  0  0  0  0  0
    6.5976   28.9133    5.7039 H   0  0  0  0  0  0  0  0  0  0  0  0
    7.4142   26.5712    4.4496 H   0  0  0  0  0  0  0  0  0  0  0  0
    8.7470   28.9300    5.0980 H   0  0  0  0  0  0  0  0  0  0  0  0
   12.1606   25.4123    4.6551 H   0  0  0  0  0  0  0  0  0  0  0  0
   12.1600   24.7173    2.7738 H   0  0  0  0  0  0  0  0  0  0  0  0
   11.9463   23.0098    2.2744 H   0  0  0  0  0  0  0  0  0  0  0  0
    9.4316   22.1271    3.3165 H   0  0  0  0  0  0  0  0  0  0  0  0
    7.0245   22.6284    2.9087 H   0  0  0  0  0  0  0  0  0  0  0  0
    6.3450   24.8535    2.0118 H   0  0  0  0  0  0  0  0  0  0  0  0
    8.0741   26.5792    1.5148 H   0  0  0  0  0  0  0  0  0  0  0  0
   10.4807   26.0890    1.9293 H   0  0  0  0  0  0  0  0  0  0  0  0
   12.8513   23.2943    6.7755 H   0  0  0  0  0  0  0  0  0  0  0  0
   13.4890   24.9920    7.8830 H   0  0  0  0  0  0  0  0  0  0  0  0
   13.9534   23.0805    4.4897 H   0  0  0  0  0  0  0  0  0  0  0  0
   14.2320   25.4920    4.4330 H   0  0  0  0  0  0  0  0  0  0  0  0
   16.4153   23.1543    5.7265 H   0  0  0  0  0  0  0  0  0  0  0  0
   17.2655   23.4809    7.4074 H   0  0  0  0  0  0  0  0  0  0  0  0
   16.4002   24.1655    8.8064 H   0  0  0  0  0  0  0  0  0  0  0  0
   14.6354   21.7205    9.4163 H   0  0  0  0  0  0  0  0  0  0  0  0
   15.0702   19.6020   10.6530 H   0  0  0  0  0  0  0  0  0  0  0  0
   17.3912   18.7069   10.8225 H   0  0  0  0  0  0  0  0  0  0  0  0
   19.2791   19.9299    9.7499 H   0  0  0  0  0  0  0  0  0  0  0  0
   18.8545   22.0555    8.5232 H   0  0  0  0  0  0  0  0  0  0  0  0
   17.1820   21.3140    5.2230 H   0  0  0  0  0  0  0  0  0  0  0  0
   15.7146   18.9088    5.9051 H   0  0  0  0  0  0  0  0  0  0  0  0
   14.0680   19.1108    3.5948 H   0  0  0  0  0  0  0  0  0  0  0  0
   14.0748   18.3816    1.1991 H   0  0  0  0  0  0  0  0  0  0  0  0
   16.2161   17.7880    0.0695 H   0  0  0  0  0  0  0  0  0  0  0  0
   18.3816   17.9014    1.3199 H   0  0  0  0  0  0  0  0  0  0  0  0
   19.2470   17.8419    4.0268 H   0  0  0  0  0  0  0  0  0  0  0  0
   19.2215   19.5768    3.8115 H   0  0  0  0  0  0  0  0  0  0  0  0
   17.8819   17.8878    5.9921 H   0  0  0  0  0  0  0  0  0  0  0  0
   18.8340   19.3030    7.1240 H   0  0  0  0  0  0  0  0  0  0  0  0
  1  2  2  0
  2  3  1  0
  3  4  1  0
  4  5  1  0
  5  6  2  0
  6  7  1  0
  7  8  2  0
  8  9  1  0
  9 10  2  0
 10 11  1  0
 11 12  1  0
 12 13  1  0
  2 14  1  0
 14 15  1  0
 15 16  1  0
 16 17  1  0
 17 18  2  0
 18 19  1  0
 19 20  2  0
 20 21  1  0
 21 22  2  0
 14 23  1  0
 23 24  1  0
 23 25  1  0
 25 26  1  0
 25 27  1  0
 27 28  1  0
 28 29  1  0
 29 30  1  0
 30 31  2  0
 31 32  1  0
 32 33  2  0
 33 34  1  0
 34 35  2  0
 27 36  1  0
 36 37  2  0
 36 38  1  0
 38 39  1  0
 39 40  1  0
 40 41  2  0
 41 42  1  0
 42 43  2  0
 43 44  1  0
 44 45  2  0
 45 46  1  0
 46 47  1  0
 47 48  1  0
 12  4  1  0
 22 17  1  0
 35 30  1  0
 47 39  1  0
 10  5  1  0
 45 40  1  0
  3 49  1  0
  4 50  1  1
  6 51  1  0
  7 52  1  0
  8 53  1  0
  9 54  1  0
 11 55  1  0
 11 56  1  0
 12 57  1  6
 13 58  1  0
 14 59  1  6
 16 60  1  0
 16 61  1  0
 18 62  1  0
 19 63  1  0
 20 64  1  0
 21 65  1  0
 22 66  1  0
 23 67  1  1
 24 68  1  0
 25 69  1  6
 26 70  1  0
 27 71  1  6
 29 72  1  0
 29 73  1  0
 31 74  1  0
 32 75  1  0
 33 76  1  0
 34 77  1  0
 35 78  1  0
 38 79  1  0
 39 80  1  1
 41 81  1  0
 42 82  1  0
 43 83  1  0
 44 84  1  0
 46 85  1  0
 46 86  1  0
 47 87  1  1
 48 88  1  0
M  END
>  <meeko>  (4) 
{"is_sidechain": [false], "free_energy": -11.555, "intermolecular_energy": -21.295, "internal_energy": -3.018}

$$$$
1eby_ligand
     RDKit          3D

 88 93  0  0  0  0  0  0  0  0999 V2000
   10.4320   22.8440    3.7030 O   0  0  0  0  0  0  0  0  0  0  0  0
   10.5000   23.9900    4.1500 C   0  0  0  0  0  0  0  0  0  0  0  0
    9.8080   25.0310    3.5800 N   0  0  0  0  0  0  0  0  0  0  0  0
    9.1630   24.8750    2.3000 C   0  0  1  0  0  0  0  0  0  0  0  0
    7.6950   24.5680    2.4100 C   0  0  0  0  0  0  0  0  0  0  0  0
    7.0570   23.6980    3.2820 C   0  0  0  0  0  0  0  0  0  0  0  0
    5.6760   23.5350    3.1680 C   0  0  0  0  0  0  0  0  0  0  0  0
    4.9530   24.2260    2.1830 C   0  0  0  0  0  0  0  0  0  0  0  0
    5.6020   25.0900    1.2990 C   0  0  0  0  0  0  0  0  0  0  0  0
    6.9710   25.2560    1.4270 C   0  0  0  0  0  0  0  0  0  0  0  0
    7.8790   26.0980    0.5770 C   0  0  0  0  0  0  0  0  0  0  0  0
    9.1430   26.1850    1.4550 C   0  0  1  0  0  0  0  0  0  0  0  0
    9.0650   27.3490    2.3020 O   0  0  0  0  0  0  0  0  0  0  0  0
   11.4160   24.3790    5.3370 C   0  0  2  0  0  0  0  0  0  0  0  0
   10.7990   25.4490    6.0700 O   0  0  0  0  0  0  0  0  0  0  0  0
    9.9480   24.9870    7.1200 C   0  0  0  0  0  0  0  0  0  0  0  0
    9.8150   26.0760    8.1550 C   0  0  0  0  0  0  0  0  0  0  0  0
   10.9170   26.4810    8.9200 C   0  0  0  0  0  0  0  0  0  0  0  0
   10.7950   27.5230    9.8400 C   0  0  0  0  0  0  0  0  0  0  0  0
    9.5710   28.1710   10.0050 C   0  0  0  0  0  0  0  0  0  0  0  0
    8.4680   27.7770    9.2500 C   0  0  0  0  0  0  0  0  0  0  0  0
    8.5890   26.7370    8.3290 C   0  0  0  0  0  0  0  0  0  0  0  0
   12.8170   24.8440    4.8690 C   0  0  2  0  0  0  0  0  0  0  0  0
   12.7190   25.3060    3.5070 O   0  0  0  0  0  0  0  0  0  0  0  0
   13.8410   23.6800    5.0000 C   0  0  1  0  0  0  0  0  0  0  0  0
   15.1510   24.2090    5.2960 O   0  0  0  0  0  0  0  0  0  0  0  0
   13.4620   22.5910    6.0240 C   0  0  1  0  0  0  0  0  0  0  0  0
   13.9760   21.3420    5.5290 O   0  0  0  0  0  0  0  0  0  0  0  0
   13.9340   21.2490    4.1050 C   0  0  0  0  0  0  0  0  0  0  0  0
   14.6850   20.0060    3.7120 C   0  0  0  0  0  0  0  0  0  0  0  0
   15.0760   19.8030    2.3800 C   0  0  0  0  0  0  0  0  0  0  0  0
   15.7970   18.6640    2.0200 C   0  0  0  0  0  0  0  0  0  0  0  0
   16.1420   17.7220    2.9870 C   0  0  0  0  0  0  0  0  0  0  0  0
   15.7680   17.9170    4.3140 C   0  0  0  0  0  0  0  0  0  0  0  0
   15.0440   19.0540    4.6760 C   0  0  0  0  0  0  0  0  0  0  0  0
   14.0650   22.9360    7.3900 C   0  0  0  0  0  0  0  0  0  0  0  0
   13.8230   24.0020    7.9530 O   0  0  0  0  0  0  0  0  0  0  0  0
   14.9540   22.0060    7.8550 N   0  0  0  0  0  0  0  0  0  0  0  0
   15.8180   22.2110    8.9930 C   0  0  1  0  0  0  0  0  0  0  0  0
   16.4040   20.9160    9.4690 C   0  0  0  0  0  0  0  0  0  0  0  0
   15.7650   19.9040   10.1690 C   0  0  0  0  0  0  0  0  0  0  0  0
   16.4930   18.7580   10.4940 C   0  0  0  0  0  0  0  0  0  0  0  0
   17.8370   18.6350   10.1110 C   0  0  0  0  0  0  0  0  0  0  0  0
   18.4730   19.6570    9.4040 C   0  0  0  0  0  0  0  0  0  0  0  0
   17.7460   20.7950    9.0940 C   0  0  0  0  0  0  0  0  0  0  0  0
   18.2060   21.9910    8.3220 C   0  0  0  0  0  0  0  0  0  0  0  0
   17.0890   23.0200    8.5940 C   0  0  1  0  0  0  0  0  0  0  0  0
   16.8940   23.8350    7.4330 O   0  0  0  0  0  0  0  0  0  0  0  0
   10.1090   25.9700    3.8380 H   0  0  0  0  0  0  0  0  0  0  0  0
    9.7521   24.0655    1.8444 H   0  0  0  0  0  0  0  0  0  0  0  0
    7.6270   23.1490    4.0461 H   0  0  0  0  0  0  0  0  0  0  0  0
    5.1487   22.8585    3.8567 H   0  0  0  0  0  0  0  0  0  0  0  0
    3.8647   24.0854    2.1069 H   0  0  0  0  0  0  0  0  0  0  0  0
    5.0398   25.6258    0.5200 H   0  0  0  0  0  0  0  0  0  0  0  0
    8.0928   25.6101   -0.3854 H   0  0  0  0  0  0  0  0  0  0  0  0
    7.4557   27.0769    0.3078 H   0  0  0  0  0  0  0  0  0  0  0  0
   10.0618   26.2803    0.8577 H   0  0  0  0  0  0  0  0  0  0  0  0
    9.4000   28.1030    1.7870 H   0  0  0  0  0  0  0  0  0  0  0  0
   11.5468   23.4854    5.9651 H   0  0  0  0  0  0  0  0  0  0  0  0
    8.9564   24.7427    6.7113 H   0  0  0  0  0  0  0  0  0  0  0  0
   10.3791   24.0857    7.5802 H   0  0  0  0  0  0  0  0  0  0  0  0
   11.8850   25.9739    8.7944 H   0  0  0  0  0  0  0  0  0  0  0  0
   11.6656   27.8339   10.4361 H   0  0  0  0  0  0  0  0  0  0  0  0
    9.4764   28.9924   10.7305 H   0  0  0  0  0  0  0  0  0  0  0  0
    7.5018   28.2864    9.3806 H   0  0  0  0  0  0  0  0  0  0  0  0
    7.7159   26.4319    7.7335 H   0  0  0  0  0  0  0  0  0  0  0  0
   13.1737   25.6696    5.5023 H   0  0  0  0  0  0  0  0  0  0  0  0
   12.2240   24.6390    2.9860 H   0  0  0  0  0  0  0  0  0  0  0  0
   13.8365   23.1722    4.0242 H   0  0  0  0  0  0  0  0  0  0  0  0
   15.1640   25.1170    4.9330 H   0  0  0  0  0  0  0  0  0  0  0  0
   12.3716   22.5221    6.1518 H   0  0  0  0  0  0  0  0  0  0  0  0
   12.8906   21.1814    3.7634 H   0  0  0  0  0  0  0  0  0  0  0  0
   14.3883   22.1387    3.6445 H   0  0  0  0  0  0  0  0  0  0  0  0
   14.8123   20.5471    1.6140 H   0  0  0  0  0  0  0  0  0  0  0  0
   16.0933   18.5096    0.9720 H   0  0  0  0  0  0  0  0  0  0  0  0
   16.7099   16.8241    2.7020 H   0  0  0  0  0  0  0  0  0  0  0  0
   16.0433   17.1745    5.0775 H   0  0  0  0  0  0  0  0  0  0  0  0
   14.7529   19.2041    5.7261 H   0  0  0  0  0  0  0  0  0  0  0  0
   15.0610   21.1450    7.3190 H   0  0  0  0  0  0  0  0  0  0  0  0
   15.1903   22.7137    9.7435 H   0  0  0  0  0  0  0  0  0  0  0  0
   14.7091   20.0018   10.4614 H   0  0  0  0  0  0  0  0  0  0  0  0
   16.0089   17.9449   11.0549 H   0  0  0  0  0  0  0  0  0  0  0  0
   18.3956   17.7236   10.3705 H   0  0  0  0  0  0  0  0  0  0  0  0
   19.5259   19.5611    9.1004 H   0  0  0  0  0  0  0  0  0  0  0  0
   19.1769   22.3524    8.6917 H   0  0  0  0  0  0  0  0  0  0  0  0
   18.3608   21.7871    7.2522 H   0  0  0  0  0  0  0  0  0  0  0  0
   17.3437   23.7100    9.4119 H   0  0  0  0  0  0  0  0  0  0  0  0
   16.1760   23.4340    6.9000 H   0  0  0  0  0  0  0  0  0  0  0  0
  1  2  2  0
  2  3  1  0
  3  4  1  0
  4  5  1  0
  5  6  2  0
  6  7  1  0
  7  8  2  0
  8  9  1  0
  9 10  2  0
 10 11  1  0
 11 12  1  0
 12 13  1  0
  2 14  1  0
 14 15  1  0
 15 16  1  0
 16 17  1  0
 17 18  2  0
 18 19  1  0
 19 20  2  0
 20 21  1  0
 21 22  2  0
 14 23  1  0
 23 24  1  0
 23 25  1  0
 25 26  1  0
 25 27  1  0
 27 28  1  0
 28 29  1  0
 29 30  1  0
 30 31  2  0
 31 32  1  0
 32 33  2  0
 33 34  1  0
 34 35  2  0
 27 36  1  0
 36 37  2  0
 36 38  1  0
 38 39  1  0
 39 40  1  0
 40 41  2  0
 41 42  1  0
 42 43  2  0
 43 44  1  0
 44 45  2  0
 45 46  1  0
 46 47  1  0
 47 48  1  0
 12  4  1  0
 22 17  1  0
 35 30  1  0
 47 39  1  0
 10  5  1  0
 45 40  1  0
  3 49  1  0
  4 50  1  6
  6 51  1  0
  7 52  1  0
  8 53  1  0
  9 54  1  0
 11 55  1  0
 11 56  1  0
 12 57  1  6
 13 58  1  0
 14 59  1  1
 16 60  1  0
 16 61  1  0
 18 62  1  0
 19 63  1  0
 20 64  1  0
 21 65  1  0
 22 66  1  0
 23 67  1  1
 24 68  1  0
 25 69  1  6
 26 70  1  0
 27 71  1  1
 29 72  1  0
 29 73  1  0
 31 74  1  0
 32 75  1  0
 33 76  1  0
 34 77  1  0
 35 78  1  0
 38 79  1  0
 39 80  1  1
 41 81  1  0
 42 82  1  0
 43 83  1  0
 44 84  1  0
 46 85  1  0
 46 86  1  0
 47 87  1  1
 48 88  1  0
M  END
>  <meeko>  (5) 
{"is_sidechain": [false], "free_energy": -11.163, "intermolecular_energy": -20.336, "internal_energy": -3.242}

$$$$
1eby_ligand
     RDKit          3D

 88 93  0  0  0  0  0  0  0  0999 V2000
   15.2860   22.6830    3.6410 O   0  0  0  0  0  0  0  0  0  0  0  0
   15.4190   22.4000    4.8320 C   0  0  0  0  0  0  0  0  0  0  0  0
   16.0570   21.2520    5.2360 N   0  0  0  0  0  0  0  0  0  0  0  0
   16.3890   20.2190    4.2860 C   0  0  1  0  0  0  0  0  0  0  0  0
   17.2150   19.1110    4.8800 C   0  0  0  0  0  0  0  0  0  0  0  0
   18.2910   19.2070    5.7500 C   0  0  0  0  0  0  0  0  0  0  0  0
   18.9420   18.0340    6.1340 C   0  0  0  0  0  0  0  0  0  0  0  0
   18.5260   16.7890    5.6380 C   0  0  0  0  0  0  0  0  0  0  0  0
   17.4510   16.6990    4.7510 C   0  0  0  0  0  0  0  0  0  0  0  0
   16.8010   17.8670    4.3860 C   0  0  0  0  0  0  0  0  0  0  0  0
   15.6540   18.0190    3.4280 C   0  0  0  0  0  0  0  0  0  0  0  0
   15.1460   19.4340    3.7680 C   0  0  1  0  0  0  0  0  0  0  0  0
   14.1240   19.3510    4.7820 O   0  0  0  0  0  0  0  0  0  0  0  0
   14.8250   23.2590    5.9750 C   0  0  2  0  0  0  0  0  0  0  0  0
   14.4240   22.3940    7.0500 O   0  0  0  0  0  0  0  0  0  0  0  0
   14.9380   22.8040    8.3170 C   0  0  0  0  0  0  0  0  0  0  0  0
   16.0800   21.8950    8.6980 C   0  0  0  0  0  0  0  0  0  0  0  0
   15.8390   20.6260    9.2400 C   0  0  0  0  0  0  0  0  0  0  0  0
   16.9020   19.7730    9.5430 C   0  0  0  0  0  0  0  0  0  0  0  0
   18.2150   20.1800    9.3060 C   0  0  0  0  0  0  0  0  0  0  0  0
   18.4660   21.4400    8.7670 C   0  0  0  0  0  0  0  0  0  0  0  0
   17.4050   22.2930    8.4620 C   0  0  0  0  0  0  0  0  0  0  0  0
   13.5930   24.0780    5.5140 C   0  0  2  0  0  0  0  0  0  0  0  0
   14.0500   25.1880    4.7170 O   0  0  0  0  0  0  0  0  0  0  0  0
   12.7790   24.5630    6.7470 C   0  0  1  0  0  0  0  0  0  0  0  0
   12.8320   26.0020    6.8370 O   0  0  0  0  0  0  0  0  0  0  0  0
   11.3140   24.0810    6.7920 C   0  0  1  0  0  0  0  0  0  0  0  0
   10.4840   25.2490    6.9100 O   0  0  0  0  0  0  0  0  0  0  0  0
    9.3550   25.0440    7.7590 C   0  0  0  0  0  0  0  0  0  0  0  0
    9.2010   26.2750    8.6100 C   0  0  0  0  0  0  0  0  0  0  0  0
   10.2220   26.6640    9.4890 C   0  0  0  0  0  0  0  0  0  0  0  0
   10.0930   27.8210   10.2580 C   0  0  0  0  0  0  0  0  0  0  0  0
    8.9450   28.6060   10.1500 C   0  0  0  0  0  0  0  0  0  0  0  0
    7.9290   28.2350    9.2740 C   0  0  0  0  0  0  0  0  0  0  0  0
    8.0550   27.0760    8.5070 C   0  0  0  0  0  0  0  0  0  0  0  0
   10.9910   23.2970    5.5160 C   0  0  0  0  0  0  0  0  0  0  0  0
   11.4420   22.1700    5.3170 O   0  0  0  0  0  0  0  0  0  0  0  0
   10.2540   24.0020    4.6030 N   0  0  0  0  0  0  0  0  0  0  0  0
   10.0220   23.5710    3.2450 C   0  0  1  0  0  0  0  0  0  0  0  0
    8.6300   23.9060    2.8010 C   0  0  0  0  0  0  0  0  0  0  0  0
    7.4490   23.2820    3.1740 C   0  0  0  0  0  0  0  0  0  0  0  0
    6.2470   23.7730    2.6620 C   0  0  0  0  0  0  0  0  0  0  0  0
    6.2390   24.8770    1.7970 C   0  0  0  0  0  0  0  0  0  0  0  0
    7.4320   25.5030    1.4290 C   0  0  0  0  0  0  0  0  0  0  0  0
    8.6210   25.0030    1.9330 C   0  0  0  0  0  0  0  0  0  0  0  0
   10.0030   25.5280    1.7050 C   0  0  0  0  0  0  0  0  0  0  0  0
   10.8920   24.3870    2.2410 C   0  0  1  0  0  0  0  0  0  0  0  0
   12.0710   24.9360    2.8390 O   0  0  0  0  0  0  0  0  0  0  0  0
   15.9050   20.9650    6.2020 H   0  0  0  0  0  0  0  0  0  0  0  0
   16.9093   20.7886    3.5018 H   0  0  0  0  0  0  0  0  0  0  0  0
   18.6234   20.1849    6.1284 H   0  0  0  0  0  0  0  0  0  0  0  0
   19.7900   18.0858    6.8327 H   0  0  0  0  0  0  0  0  0  0  0  0
   19.0518   15.8749    5.9509 H   0  0  0  0  0  0  0  0  0  0  0  0
   17.1286   15.7258    4.3523 H   0  0  0  0  0  0  0  0  0  0  0  0
   15.9932   17.9552    2.3835 H   0  0  0  0  0  0  0  0  0  0  0  0
   14.8876   17.2355    3.5221 H   0  0  0  0  0  0  0  0  0  0  0  0
   14.6994   19.9378    2.8981 H   0  0  0  0  0  0  0  0  0  0  0  0
   14.2990   20.0580    5.4270 H   0  0  0  0  0  0  0  0  0  0  0  0
   15.6026   23.9665    6.2989 H   0  0  0  0  0  0  0  0  0  0  0  0
   15.2978   23.8414    8.2514 H   0  0  0  0  0  0  0  0  0  0  0  0
   14.1454   22.7457    9.0775 H   0  0  0  0  0  0  0  0  0  0  0  0
   14.8056   20.2994    9.4281 H   0  0  0  0  0  0  0  0  0  0  0  0
   16.7038   18.7785    9.9693 H   0  0  0  0  0  0  0  0  0  0  0  0
   19.0515   19.5067    9.5445 H   0  0  0  0  0  0  0  0  0  0  0  0
   19.5013   21.7624    8.5818 H   0  0  0  0  0  0  0  0  0  0  0  0
   17.6085   23.2853    8.0332 H   0  0  0  0  0  0  0  0  0  0  0  0
   12.9257   23.4504    4.9050 H   0  0  0  0  0  0  0  0  0  0  0  0
   14.7400   24.8670    4.0990 H   0  0  0  0  0  0  0  0  0  0  0  0
   13.2631   24.0991    7.6191 H   0  0  0  0  0  0  0  0  0  0  0  0
   11.9030   26.3070    6.8480 H   0  0  0  0  0  0  0  0  0  0  0  0
   11.1374   23.4101    7.6456 H   0  0  0  0  0  0  0  0  0  0  0  0
    8.4507   24.8917    7.1515 H   0  0  0  0  0  0  0  0  0  0  0  0
    9.4994   24.1532    8.3880 H   0  0  0  0  0  0  0  0  0  0  0  0
   11.1321   26.0519    9.5729 H   0  0  0  0  0  0  0  0  0  0  0  0
   10.8967   28.1142   10.9495 H   0  0  0  0  0  0  0  0  0  0  0  0
    8.8427   29.5178   10.7568 H   0  0  0  0  0  0  0  0  0  0  0  0
    7.0255   28.8562    9.1861 H   0  0  0  0  0  0  0  0  0  0  0  0
    7.2487   26.7886    7.8161 H   0  0  0  0  0  0  0  0  0  0  0  0
    9.9110   24.9200    4.8820 H   0  0  0  0  0  0  0  0  0  0  0  0
   10.2385   22.4925    3.2444 H   0  0  0  0  0  0  0  0  0  0  0  0
    7.4593   22.4202    3.8575 H   0  0  0  0  0  0  0  0  0  0  0  0
    5.2983   23.2902    2.9391 H   0  0  0  0  0  0  0  0  0  0  0  0
    5.2831   25.2538    1.4043 H   0  0  0  0  0  0  0  0  0  0  0  0
    7.4273   26.3723    0.7550 H   0  0  0  0  0  0  0  0  0  0  0  0
   10.1882   25.7061    0.6354 H   0  0  0  0  0  0  0  0  0  0  0  0
   10.1895   26.4943    2.1965 H   0  0  0  0  0  0  0  0  0  0  0  0
   11.2396   23.7158    1.4418 H   0  0  0  0  0  0  0  0  0  0  0  0
   12.8110   24.3160    2.6760 H   0  0  0  0  0  0  0  0  0  0  0  0
  1  2  2  0
  2  3  1  0
  3  4  1  0
  4  5  1  0
  5  6  2  0
  6  7  1  0
  7  8  2  0
  8  9  1  0
  9 10  2  0
 10 11  1  0
 11 12  1  0
 12 13  1  0
  2 14  1  0
 14 15  1  0
 15 16  1  0
 16 17  1  0
 17 18  2  0
 18 19  1  0
 19 20  2  0
 20 21  1  0
 21 22  2  0
 14 23  1  0
 23 24  1  0
 23 25  1  0
 25 26  1  0
 25 27  1  0
 27 28  1  0
 28 29  1  0
 29 30  1  0
 30 31  2  0
 31 32  1  0
 32 33  2  0
 33 34  1  0
 34 35  2  0
 27 36  1  0
 36 37  2  0
 36 38  1  0
 38 39  1  0
 39 40  1  0
 40 41  2  0
 41 42  1  0
 42 43  2  0
 43 44  1  0
 44 45  2  0
 45 46  1  0
 46 47  1  0
 47 48  1  0
 12  4  1  0
 22 17  1  0
 35 30  1  0
 47 39  1  0
 10  5  1  0
 45 40  1  0
  3 49  1  0
  4 50  1  6
  6 51  1  0
  7 52  1  0
  8 53  1  0
  9 54  1  0
 11 55  1  0
 11 56  1  0
 12 57  1  6
 13 58  1  0
 14 59  1  1
 16 60  1  0
 16 61  1  0
 18 62  1  0
 19 63  1  0
 20 64  1  0
 21 65  1  0
 22 66  1  0
 23 67  1  6
 24 68  1  0
 25 69  1  1
 26 70  1  0
 27 71  1  1
 29 72  1  0
 29 73  1  0
 31 74  1  0
 32 75  1  0
 33 76  1  0
 34 77  1  0
 35 78  1  0
 38 79  1  0
 39 80  1  1
 41 81  1  0
 42 82  1  0
 43 83  1  0
 44 84  1  0
 46 85  1  0
 46 86  1  0
 47 87  1  6
 48 88  1  0
M  END
>  <meeko>  (6) 
{"is_sidechain": [false], "free_energy": -10.963, "intermolecular_energy": -20.526, "internal_energy": -2.676}

$$$$
1eby_ligand
     RDKit          3D

 88 93  0  0  0  0  0  0  0  0999 V2000
   10.6690   22.9310    4.0600 O   0  0  0  0  0  0  0  0  0  0  0  0
   10.3990   23.9770    4.6510 C   0  0  0  0  0  0  0  0  0  0  0  0
    9.5470   24.9130    4.1150 N   0  0  0  0  0  0  0  0  0  0  0  0
    9.1200   24.8190    2.7410 C   0  0  1  0  0  0  0  0  0  0  0  0
    7.6500   24.5320    2.5950 C   0  0  0  0  0  0  0  0  0  0  0  0
    6.8690   23.6390    3.3130 C   0  0  0  0  0  0  0  0  0  0  0  0
    5.5240   23.5030    2.9670 C   0  0  0  0  0  0  0  0  0  0  0  0
    4.9800   24.2450    1.9070 C   0  0  0  0  0  0  0  0  0  0  0  0
    5.7740   25.1340    1.1790 C   0  0  0  0  0  0  0  0  0  0  0  0
    7.1050   25.2720    1.5380 C   0  0  0  0  0  0  0  0  0  0  0  0
    8.1480   26.1320    0.8840 C   0  0  0  0  0  0  0  0  0  0  0  0
    9.2510   26.1620    1.9610 C   0  0  1  0  0  0  0  0  0  0  0  0
    9.0460   27.2920    2.8330 O   0  0  0  0  0  0  0  0  0  0  0  0
   11.0400   24.3700    6.0050 C   0  0  2  0  0  0  0  0  0  0  0  0
   10.3300   25.4950    6.5480 O   0  0  0  0  0  0  0  0  0  0  0  0
   11.0020   26.0970    7.6540 C   0  0  0  0  0  0  0  0  0  0  0  0
   10.0480   27.0310    8.3560 C   0  0  0  0  0  0  0  0  0  0  0  0
    8.8560   27.4380    7.7420 C   0  0  0  0  0  0  0  0  0  0  0  0
    7.9560   28.2630    8.4200 C   0  0  0  0  0  0  0  0  0  0  0  0
    8.2400   28.6890    9.7170 C   0  0  0  0  0  0  0  0  0  0  0  0
    9.4230   28.2920   10.3380 C   0  0  0  0  0  0  0  0  0  0  0  0
   10.3210   27.4660    9.6630 C   0  0  0  0  0  0  0  0  0  0  0  0
   12.5340   24.7540    5.8580 C   0  0  2  0  0  0  0  0  0  0  0  0
   12.8110   24.9990    4.4650 O   0  0  0  0  0  0  0  0  0  0  0  0
   13.4370   23.6220    6.4250 C   0  0  1  0  0  0  0  0  0  0  0  0
   12.6430   22.4470    6.6930 O   0  0  0  0  0  0  0  0  0  0  0  0
   14.6520   23.2550    5.5490 C   0  0  1  0  0  0  0  0  0  0  0  0
   15.8070   23.2420    6.4040 O   0  0  0  0  0  0  0  0  0  0  0  0
   15.4810   23.4140    7.7830 C   0  0  0  0  0  0  0  0  0  0  0  0
   16.1880   22.3310    8.5520 C   0  0  0  0  0  0  0  0  0  0  0  0
   15.4540   21.3630    9.2540 C   0  0  0  0  0  0  0  0  0  0  0  0
   16.1080   20.3420    9.9440 C   0  0  0  0  0  0  0  0  0  0  0  0
   17.5000   20.2720    9.9330 C   0  0  0  0  0  0  0  0  0  0  0  0
   18.2390   21.2220    9.2310 C   0  0  0  0  0  0  0  0  0  0  0  0
   17.5860   22.2460    8.5430 C   0  0  0  0  0  0  0  0  0  0  0  0
   14.4250   21.8840    4.9020 C   0  0  0  0  0  0  0  0  0  0  0  0
   13.3740   21.6070    4.3250 O   0  0  0  0  0  0  0  0  0  0  0  0
   15.4420   20.9950    5.1160 N   0  0  0  0  0  0  0  0  0  0  0  0
   15.3630   19.5860    4.8110 C   0  0  1  0  0  0  0  0  0  0  0  0
   15.5920   19.3330    3.3520 C   0  0  0  0  0  0  0  0  0  0  0  0
   14.7210   19.5840    2.3020 C   0  0  0  0  0  0  0  0  0  0  0  0
   15.1460   19.2990    1.0040 C   0  0  0  0  0  0  0  0  0  0  0  0
   16.4290   18.7800    0.7710 C   0  0  0  0  0  0  0  0  0  0  0  0
   17.3010   18.5340    1.8320 C   0  0  0  0  0  0  0  0  0  0  0  0
   16.8680   18.8090    3.1190 C   0  0  0  0  0  0  0  0  0  0  0  0
   17.6360   18.6580    4.3940 C   0  0  0  0  0  0  0  0  0  0  0  0
   16.5380   18.8020    5.4690 C   0  0  1  0  0  0  0  0  0  0  0  0
   17.0770   19.4620    6.6200 O   0  0  0  0  0  0  0  0  0  0  0  0
    9.5740   25.8420    4.5320 H   0  0  0  0  0  0  0  0  0  0  0  0
    9.7685   24.0189    2.3547 H   0  0  0  0  0  0  0  0  0  0  0  0
    7.3000   23.0511    4.1368 H   0  0  0  0  0  0  0  0  0  0  0  0
    4.8841   22.8078    3.5302 H   0  0  0  0  0  0  0  0  0  0  0  0
    3.9179   24.1252    1.6471 H   0  0  0  0  0  0  0  0  0  0  0  0
    5.3532   25.7101    0.3417 H   0  0  0  0  0  0  0  0  0  0  0  0
    8.5123   25.6796   -0.0501 H   0  0  0  0  0  0  0  0  0  0  0  0
    7.7846   27.1278    0.5900 H   0  0  0  0  0  0  0  0  0  0  0  0
   10.2563   26.2661    1.5268 H   0  0  0  0  0  0  0  0  0  0  0  0
    8.1130   27.2810    3.1050 H   0  0  0  0  0  0  0  0  0  0  0  0
   10.9769   23.4960    6.6700 H   0  0  0  0  0  0  0  0  0  0  0  0
   11.3354   25.3159    8.3531 H   0  0  0  0  0  0  0  0  0  0  0  0
   11.8781   26.6583    7.2971 H   0  0  0  0  0  0  0  0  0  0  0  0
    8.6275   27.1053    6.7187 H   0  0  0  0  0  0  0  0  0  0  0  0
    7.0223   28.5770    7.9305 H   0  0  0  0  0  0  0  0  0  0  0  0
    7.5302   29.3385   10.2502 H   0  0  0  0  0  0  0  0  0  0  0  0
    9.6481   28.6302   11.3602 H   0  0  0  0  0  0  0  0  0  0  0  0
   11.2515   27.1523   10.1587 H   0  0  0  0  0  0  0  0  0  0  0  0
   12.7507   25.6668    6.4324 H   0  0  0  0  0  0  0  0  0  0  0  0
   13.5940   25.5850    4.4010 H   0  0  0  0  0  0  0  0  0  0  0  0
   13.8640   24.0256    7.3549 H   0  0  0  0  0  0  0  0  0  0  0  0
   12.1800   22.6200    7.5370 H   0  0  0  0  0  0  0  0  0  0  0  0
   14.7968   23.9836    4.7377 H   0  0  0  0  0  0  0  0  0  0  0  0
   15.8189   24.4021    8.1286 H   0  0  0  0  0  0  0  0  0  0  0  0
   14.3934   23.3512    7.9353 H   0  0  0  0  0  0  0  0  0  0  0  0
   14.3550   21.4095    9.2604 H   0  0  0  0  0  0  0  0  0  0  0  0
   15.5245   19.5914   10.4973 H   0  0  0  0  0  0  0  0  0  0  0  0
   18.0149   19.4672   10.4782 H   0  0  0  0  0  0  0  0  0  0  0  0
   19.3375   21.1650    9.2190 H   0  0  0  0  0  0  0  0  0  0  0  0
   18.1743   22.9924    7.9891 H   0  0  0  0  0  0  0  0  0  0  0  0
   16.2790   21.3380    5.5860 H   0  0  0  0  0  0  0  0  0  0  0  0
   14.3692   19.2719    5.1626 H   0  0  0  0  0  0  0  0  0  0  0  0
   13.7190   19.9979    2.4883 H   0  0  0  0  0  0  0  0  0  0  0  0
   14.4698   19.4826    0.1561 H   0  0  0  0  0  0  0  0  0  0  0  0
   16.7504   18.5649   -0.2588 H   0  0  0  0  0  0  0  0  0  0  0  0
   18.3085   18.1312    1.6510 H   0  0  0  0  0  0  0  0  0  0  0  0
   18.1205   17.6721    4.4511 H   0  0  0  0  0  0  0  0  0  0  0  0
   18.4517   19.3881    4.5019 H   0  0  0  0  0  0  0  0  0  0  0  0
   16.1650   17.8289    5.8211 H   0  0  0  0  0  0  0  0  0  0  0  0
   16.3970   20.0780    6.9610 H   0  0  0  0  0  0  0  0  0  0  0  0
  1  2  2  0
  2  3  1  0
  3  4  1  0
  4  5  1  0
  5  6  2  0
  6  7  1  0
  7  8  2  0
  8  9  1  0
  9 10  2  0
 10 11  1  0
 11 12  1  0
 12 13  1  0
  2 14  1  0
 14 15  1  0
 15 16  1  0
 16 17  1  0
 17 18  2  0
 18 19  1  0
 19 20  2  0
 20 21  1  0
 21 22  2  0
 14 23  1  0
 23 24  1  0
 23 25  1  0
 25 26  1  0
 25 27  1  0
 27 28  1  0
 28 29  1  0
 29 30  1  0
 30 31  2  0
 31 32  1  0
 32 33  2  0
 33 34  1  0
 34 35  2  0
 27 36  1  0
 36 37  2  0
 36 38  1  0
 38 39  1  0
 39 40  1  0
 40 41  2  0
 41 42  1  0
 42 43  2  0
 43 44  1  0
 44 45  2  0
 45 46  1  0
 46 47  1  0
 47 48  1  0
 12  4  1  0
 22 17  1  0
 35 30  1  0
 47 39  1  0
 10  5  1  0
 45 40  1  0
  3 49  1  0
  4 50  1  6
  6 51  1  0
  7 52  1  0
  8 53  1  0
  9 54  1  0
 11 55  1  0
 11 56  1  0
 12 57  1  6
 13 58  1  0
 14 59  1  1
 16 60  1  0
 16 61  1  0
 18 62  1  0
 19 63  1  0
 20 64  1  0
 21 65  1  0
 22 66  1  0
 23 67  1  1
 24 68  1  0
 25 69  1  1
 26 70  1  0
 27 71  1  6
 29 72  1  0
 29 73  1  0
 31 74  1  0
 32 75  1  0
 33 76  1  0
 34 77  1  0
 35 78  1  0
 38 79  1  0
 39 80  1  1
 41 81  1  0
 42 82  1  0
 43 83  1  0
 44 84  1  0
 46 85  1  0
 46 86  1  0
 47 87  1  1
 48 88  1  0
M  END
>  <meeko>  (7) 
{"is_sidechain": [false], "free_energy": -10.364, "intermolecular_energy": -19.339, "internal_energy": -2.74}

$$$$
1eby_ligand
     RDKit          3D

 88 93  0  0  0  0  0  0  0  0999 V2000
   11.6990   22.0490    5.6060 O   0  0  0  0  0  0  0  0  0  0  0  0
   12.0470   23.2310    5.5920 C   0  0  0  0  0  0  0  0  0  0  0  0
   11.4390   24.1560    4.7780 N   0  0  0  0  0  0  0  0  0  0  0  0
   10.5310   23.7390    3.7380 C   0  0  1  0  0  0  0  0  0  0  0  0
    9.3400   24.6470    3.5920 C   0  0  0  0  0  0  0  0  0  0  0  0
    8.5640   25.2190    4.5880 C   0  0  0  0  0  0  0  0  0  0  0  0
    7.4670   25.9960    4.2130 C   0  0  0  0  0  0  0  0  0  0  0  0
    7.1510   26.1800    2.8580 C   0  0  0  0  0  0  0  0  0  0  0  0
    7.9280   25.5900    1.8590 C   0  0  0  0  0  0  0  0  0  0  0  0
    9.0230   24.8320    2.2400 C   0  0  0  0  0  0  0  0  0  0  0  0
    9.9740   24.0800    1.3530 C   0  0  0  0  0  0  0  0  0  0  0  0
   11.1520   23.8120    2.3100 C   0  0  1  0  0  0  0  0  0  0  0  0
   12.1090   24.8860    2.2140 O   0  0  0  0  0  0  0  0  0  0  0  0
   13.2360   23.7690    6.4260 C   0  0  2  0  0  0  0  0  0  0  0  0
   12.9800   25.1390    6.7740 O   0  0  0  0  0  0  0  0  0  0  0  0
   12.8150   25.3360    8.1780 C   0  0  0  0  0  0  0  0  0  0  0  0
   11.5650   26.1460    8.4140 C   0  0  0  0  0  0  0  0  0  0  0  0
   11.3900   26.8710    9.6000 C   0  0  0  0  0  0  0  0  0  0  0  0
   10.2520   27.6570    9.7880 C   0  0  0  0  0  0  0  0  0  0  0  0
    9.2780   27.7260    8.7920 C   0  0  0  0  0  0  0  0  0  0  0  0
    9.4410   27.0100    7.6080 C   0  0  0  0  0  0  0  0  0  0  0  0
   10.5790   26.2260    7.4190 C   0  0  0  0  0  0  0  0  0  0  0  0
   14.5760   23.6980    5.6510 C   0  0  2  0  0  0  0  0  0  0  0  0
   14.2970   23.3680    4.2770 O   0  0  0  0  0  0  0  0  0  0  0  0
   15.5190   22.6480    6.3060 C   0  0  1  0  0  0  0  0  0  0  0  0
   16.3810   23.2930    7.2660 O   0  0  0  0  0  0  0  0  0  0  0  0
   14.8060   21.4440    6.9540 C   0  0  1  0  0  0  0  0  0  0  0  0
   15.1690   20.2750    6.2000 O   0  0  0  0  0  0  0  0  0  0  0  0
   14.2620   19.9980    5.1320 C   0  0  0  0  0  0  0  0  0  0  0  0
   15.0550   19.3730    4.0170 C   0  0  0  0  0  0  0  0  0  0  0  0
   15.9580   18.3340    4.2840 C   0  0  0  0  0  0  0  0  0  0  0  0
   16.6730   17.7330    3.2460 C   0  0  0  0  0  0  0  0  0  0  0  0
   16.4870   18.1590    1.9320 C   0  0  0  0  0  0  0  0  0  0  0  0
   15.5850   19.1840    1.6550 C   0  0  0  0  0  0  0  0  0  0  0  0
   14.8720   19.7880    2.6910 C   0  0  0  0  0  0  0  0  0  0  0  0
   15.2390   21.3160    8.4190 C   0  0  0  0  0  0  0  0  0  0  0  0
   14.9210   22.1520    9.2630 O   0  0  0  0  0  0  0  0  0  0  0  0
   16.0770   20.2620    8.6580 N   0  0  0  0  0  0  0  0  0  0  0  0
   16.7990   20.0670    9.8940 C   0  0  1  0  0  0  0  0  0  0  0  0
   16.8070   18.6230   10.2950 C   0  0  0  0  0  0  0  0  0  0  0  0
   15.7580   17.8840   10.8200 C   0  0  0  0  0  0  0  0  0  0  0  0
   15.9720   16.5330   11.1010 C   0  0  0  0  0  0  0  0  0  0  0  0
   17.2180   15.9400   10.8470 C   0  0  0  0  0  0  0  0  0  0  0  0
   18.2680   16.6900   10.3140 C   0  0  0  0  0  0  0  0  0  0  0  0
   18.0510   18.0320   10.0480 C   0  0  0  0  0  0  0  0  0  0  0  0
   19.0110   19.0120    9.4510 C   0  0  0  0  0  0  0  0  0  0  0  0
   18.3170   20.3660    9.7100 C   0  0  1  0  0  0  0  0  0  0  0  0
   18.5850   21.2580    8.6230 O   0  0  0  0  0  0  0  0  0  0  0  0
   11.9390   25.0320    4.6360 H   0  0  0  0  0  0  0  0  0  0  0  0
   10.2739   22.7176    4.0554 H   0  0  0  0  0  0  0  0  0  0  0  0
    8.8072   25.0641    5.6495 H   0  0  0  0  0  0  0  0  0  0  0  0
    6.8442   26.4687    4.9867 H   0  0  0  0  0  0  0  0  0  0  0  0
    6.2825   26.7952    2.5802 H   0  0  0  0  0  0  0  0  0  0  0  0
    7.6769   25.7238    0.7964 H   0  0  0  0  0  0  0  0  0  0  0  0
    9.5285   23.1408    0.9932 H   0  0  0  0  0  0  0  0  0  0  0  0
   10.2566   24.6243    0.4398 H   0  0  0  0  0  0  0  0  0  0  0  0
   11.6846   22.8810    2.0660 H   0  0  0  0  0  0  0  0  0  0  0  0
   11.7300   25.5580    1.6210 H   0  0  0  0  0  0  0  0  0  0  0  0
   13.3274   23.1381    7.3224 H   0  0  0  0  0  0  0  0  0  0  0  0
   12.7235   24.3612    8.6794 H   0  0  0  0  0  0  0  0  0  0  0  0
   13.6870   25.8693    8.5846 H   0  0  0  0  0  0  0  0  0  0  0  0
   12.1550   26.8204   10.3888 H   0  0  0  0  0  0  0  0  0  0  0  0
   10.1232   28.2226   10.7226 H   0  0  0  0  0  0  0  0  0  0  0  0
    8.3814   28.3456    8.9413 H   0  0  0  0  0  0  0  0  0  0  0  0
    8.6726   27.0630    6.8227 H   0  0  0  0  0  0  0  0  0  0  0  0
   10.7046   25.6652    6.4811 H   0  0  0  0  0  0  0  0  0  0  0  0
   15.0886   24.6705    5.6882 H   0  0  0  0  0  0  0  0  0  0  0  0
   14.3730   24.1840    3.7390 H   0  0  0  0  0  0  0  0  0  0  0  0
   16.1054   22.2230    5.4781 H   0  0  0  0  0  0  0  0  0  0  0  0
   16.9010   23.9510    6.7640 H   0  0  0  0  0  0  0  0  0  0  0  0
   13.7134   21.5709    6.9420 H   0  0  0  0  0  0  0  0  0  0  0  0
   13.4810   19.3026    5.4732 H   0  0  0  0  0  0  0  0  0  0  0  0
   13.7728   20.9217    4.7894 H   0  0  0  0  0  0  0  0  0  0  0  0
   16.1042   17.9899    5.3185 H   0  0  0  0  0  0  0  0  0  0  0  0
   17.3837   16.9226    3.4655 H   0  0  0  0  0  0  0  0  0  0  0  0
   17.0517   17.6865    1.1147 H   0  0  0  0  0  0  0  0  0  0  0  0
   15.4347   19.5177    0.6177 H   0  0  0  0  0  0  0  0  0  0  0  0
   14.1607   20.5962    2.4653 H   0  0  0  0  0  0  0  0  0  0  0  0
   16.2550   19.6150    7.8910 H   0  0  0  0  0  0  0  0  0  0  0  0
   16.3034   20.7246   10.6233 H   0  0  0  0  0  0  0  0  0  0  0  0
   14.7804   18.3508   11.0107 H   0  0  0  0  0  0  0  0  0  0  0  0
   15.1567   15.9285   11.5251 H   0  0  0  0  0  0  0  0  0  0  0  0
   17.3690   14.8735   11.0701 H   0  0  0  0  0  0  0  0  0  0  0  0
   19.2444   16.2263   10.1101 H   0  0  0  0  0  0  0  0  0  0  0  0
   19.9890   18.9651    9.9522 H   0  0  0  0  0  0  0  0  0  0  0  0
   19.2213   18.8252    8.3876 H   0  0  0  0  0  0  0  0  0  0  0  0
   18.6943   20.8649   10.6149 H   0  0  0  0  0  0  0  0  0  0  0  0
   17.8680   21.1560    7.9640 H   0  0  0  0  0  0  0  0  0  0  0  0
  1  2  2  0
  2  3  1  0
  3  4  1  0
  4  5  1  0
  5  6  2  0
  6  7  1  0
  7  8  2  0
  8  9  1  0
  9 10  2  0
 10 11  1  0
 11 12  1  0
 12 13  1  0
  2 14  1  0
 14 15  1  0
 15 16  1  0
 16 17  1  0
 17 18  2  0
 18 19  1  0
 19 20  2  0
 20 21  1  0
 21 22  2  0
 14 23  1  0
 23 24  1  0
 23 25  1  0
 25 26  1  0
 25 27  1  0
 27 28  1  0
 28 29  1  0
 29 30  1  0
 30 31  2  0
 31 32  1  0
 32 33  2  0
 33 34  1  0
 34 35  2  0
 27 36  1  0
 36 37  2  0
 36 38  1  0
 38 39  1  0
 39 40  1  0
 40 41  2  0
 41 42  1  0
 42 43  2  0
 43 44  1  0
 44 45  2  0
 45 46  1  0
 46 47  1  0
 47 48  1  0
 12  4  1  0
 22 17  1  0
 35 30  1  0
 47 39  1  0
 10  5  1  0
 45 40  1  0
  3 49  1  0
  4 50  1  1
  6 51  1  0
  7 52  1  0
  8 53  1  0
  9 54  1  0
 11 55  1  0
 11 56  1  0
 12 57  1  6
 13 58  1  0
 14 59  1  1
 16 60  1  0
 16 61  1  0
 18 62  1  0
 19 63  1  0
 20 64  1  0
 21 65  1  0
 22 66  1  0
 23 67  1  6
 24 68  1  0
 25 69  1  6
 26 70  1  0
 27 71  1  1
 29 72  1  0
 29 73  1  0
 31 74  1  0
 32 75  1  0
 33 76  1  0
 34 77  1  0
 35 78  1  0
 38 79  1  0
 39 80  1  1
 41 81  1  0
 42 82  1  0
 43 83  1  0
 44 84  1  0
 46 85  1  0
 46 86  1  0
 47 87  1  1
 48 88  1  0
M  END
>  <meeko>  (8) 
{"is_sidechain": [false], "free_energy": -10.204, "intermolecular_energy": -17.922, "internal_energy": -3.856}

$$$$
1eby_ligand
     RDKit          3D

 88 93  0  0  0  0  0  0  0  0999 V2000
   15.4500   22.3670    3.7950 O   0  0  0  0  0  0  0  0  0  0  0  0
   15.4820   22.0160    4.9760 C   0  0  0  0  0  0  0  0  0  0  0  0
   16.1670   20.8940    5.3780 N   0  0  0  0  0  0  0  0  0  0  0  0
   16.6750   19.9540    4.4100 C   0  0  1  0  0  0  0  0  0  0  0  0
   17.4490   18.8230    5.0320 C   0  0  0  0  0  0  0  0  0  0  0  0
   18.3790   18.8750    6.0590 C   0  0  0  0  0  0  0  0  0  0  0  0
   19.0130   17.6930    6.4420 C   0  0  0  0  0  0  0  0  0  0  0  0
   18.7250   16.4830    5.7930 C   0  0  0  0  0  0  0  0  0  0  0  0
   17.7970   16.4380    4.7500 C   0  0  0  0  0  0  0  0  0  0  0  0
   17.1620   17.6140    4.3850 C   0  0  0  0  0  0  0  0  0  0  0  0
   16.1640   17.8140    3.2810 C   0  0  0  0  0  0  0  0  0  0  0  0
   15.5550   19.1810    3.6510 C   0  0  1  0  0  0  0  0  0  0  0  0
   14.3980   18.9850    4.4900 O   0  0  0  0  0  0  0  0  0  0  0  0
   14.7070   22.7510    6.0970 C   0  0  2  0  0  0  0  0  0  0  0  0
   15.5060   22.7550    7.2910 O   0  0  0  0  0  0  0  0  0  0  0  0
   14.9950   21.8900    8.3060 C   0  0  0  0  0  0  0  0  0  0  0  0
   16.1460   21.1550    8.9460 C   0  0  0  0  0  0  0  0  0  0  0  0
   15.9200   20.0610    9.7920 C   0  0  0  0  0  0  0  0  0  0  0  0
   16.9940   19.3570   10.3400 C   0  0  0  0  0  0  0  0  0  0  0  0
   18.3020   19.7390   10.0470 C   0  0  0  0  0  0  0  0  0  0  0  0
   18.5400   20.8250    9.2070 C   0  0  0  0  0  0  0  0  0  0  0  0
   17.4680   21.5280    8.6570 C   0  0  0  0  0  0  0  0  0  0  0  0
   13.3500   22.0750    6.4120 C   0  0  2  0  0  0  0  0  0  0  0  0
   13.0370   21.1520    5.3510 O   0  0  0  0  0  0  0  0  0  0  0  0
   12.2380   23.1510    6.5730 C   0  0  1  0  0  0  0  0  0  0  0  0
   12.6310   24.1170    7.5710 O   0  0  0  0  0  0  0  0  0  0  0  0
   11.8300   23.8670    5.2700 C   0  0  1  0  0  0  0  0  0  0  0  0
   10.6640   23.1970    4.7620 O   0  0  0  0  0  0  0  0  0  0  0  0
   10.6500   23.1100    3.3370 C   0  0  0  0  0  0  0  0  0  0  0  0
    9.4680   23.9020    2.8480 C   0  0  0  0  0  0  0  0  0  0  0  0
    9.6550   25.1450    2.2260 C   0  0  0  0  0  0  0  0  0  0  0  0
    8.5620   25.8680    1.7460 C   0  0  0  0  0  0  0  0  0  0  0  0
    7.2730   25.3530    1.8750 C   0  0  0  0  0  0  0  0  0  0  0  0
    7.0770   24.1150    2.4820 C   0  0  0  0  0  0  0  0  0  0  0  0
    8.1680   23.3920    2.9650 C   0  0  0  0  0  0  0  0  0  0  0  0
   11.5380   25.3440    5.5630 C   0  0  0  0  0  0  0  0  0  0  0  0
   12.4350   26.1850    5.6030 O   0  0  0  0  0  0  0  0  0  0  0  0
   10.2290   25.6000    5.8670 N   0  0  0  0  0  0  0  0  0  0  0  0
    9.7540   26.8550    6.4000 C   0  0  1  0  0  0  0  0  0  0  0  0
    8.2660   26.9710    6.2670 C   0  0  0  0  0  0  0  0  0  0  0  0
    7.5350   27.2130    5.1130 C   0  0  0  0  0  0  0  0  0  0  0  0
    6.1430   27.2550    5.2050 C   0  0  0  0  0  0  0  0  0  0  0  0
    5.5030   27.0490    6.4360 C   0  0  0  0  0  0  0  0  0  0  0  0
    6.2450   26.8020    7.5920 C   0  0  0  0  0  0  0  0  0  0  0  0
    7.6270   26.7720    7.4950 C   0  0  0  0  0  0  0  0  0  0  0  0
    8.6130   26.4960    8.5840 C   0  0  0  0  0  0  0  0  0  0  0  0
    9.9520   26.9200    7.9440 C   0  0  1  0  0  0  0  0  0  0  0  0
   11.0000   26.0650    8.4110 O   0  0  0  0  0  0  0  0  0  0  0  0
   15.9400   20.5320    6.3030 H   0  0  0  0  0  0  0  0  0  0  0  0
   17.2809   20.6021    3.7597 H   0  0  0  0  0  0  0  0  0  0  0  0
   18.6115   19.8262    6.5601 H   0  0  0  0  0  0  0  0  0  0  0  0
   19.7465   17.7098    7.2615 H   0  0  0  0  0  0  0  0  0  0  0  0
   19.2349   15.5608    6.1086 H   0  0  0  0  0  0  0  0  0  0  0  0
   17.5761   15.4932    4.2318 H   0  0  0  0  0  0  0  0  0  0  0  0
   16.6558   17.8475    2.2976 H   0  0  0  0  0  0  0  0  0  0  0  0
   15.4240   17.0044    3.1971 H   0  0  0  0  0  0  0  0  0  0  0  0
   15.2221   19.7432    2.7661 H   0  0  0  0  0  0  0  0  0  0  0  0
   14.7200   18.8510    5.3980 H   0  0  0  0  0  0  0  0  0  0  0  0
   14.5040   23.7740    5.7473 H   0  0  0  0  0  0  0  0  0  0  0  0
   14.4677   22.4844    9.0667 H   0  0  0  0  0  0  0  0  0  0  0  0
   14.2926   21.1689    7.8625 H   0  0  0  0  0  0  0  0  0  0  0  0
   14.8897   19.7549   10.0259 H   0  0  0  0  0  0  0  0  0  0  0  0
   16.8076   18.4999   11.0038 H   0  0  0  0  0  0  0  0  0  0  0  0
   19.1469   19.1828   10.4791 H   0  0  0  0  0  0  0  0  0  0  0  0
   19.5724   21.1277    8.9778 H   0  0  0  0  0  0  0  0  0  0  0  0
   17.6603   22.3821    7.9910 H   0  0  0  0  0  0  0  0  0  0  0  0
   13.4132   21.5219    7.3608 H   0  0  0  0  0  0  0  0  0  0  0  0
   13.1660   20.2390    5.6830 H   0  0  0  0  0  0  0  0  0  0  0  0
   11.3402   22.6017    6.8927 H   0  0  0  0  0  0  0  0  0  0  0  0
   13.3320   24.6610    7.1600 H   0  0  0  0  0  0  0  0  0  0  0  0
   12.6364   23.8315    4.5227 H   0  0  0  0  0  0  0  0  0  0  0  0
   11.5798   23.5300    2.9258 H   0  0  0  0  0  0  0  0  0  0  0  0
   10.5749   22.0614    3.0132 H   0  0  0  0  0  0  0  0  0  0  0  0
   10.6705   25.5530    2.1157 H   0  0  0  0  0  0  0  0  0  0  0  0
    8.7178   26.8451    1.2654 H   0  0  0  0  0  0  0  0  0  0  0  0
    6.4117   25.9238    1.4978 H   0  0  0  0  0  0  0  0  0  0  0  0
    6.0604   23.7066    2.5808 H   0  0  0  0  0  0  0  0  0  0  0  0
    8.0065   22.4138    3.4415 H   0  0  0  0  0  0  0  0  0  0  0  0
    9.5640   24.8330    5.7780 H   0  0  0  0  0  0  0  0  0  0  0  0
   10.3084   27.6294    5.8496 H   0  0  0  0  0  0  0  0  0  0  0  0
    8.0405   27.3681    4.1484 H   0  0  0  0  0  0  0  0  0  0  0  0
    5.5427   27.4513    4.3044 H   0  0  0  0  0  0  0  0  0  0  0  0
    4.4049   27.0825    6.4909 H   0  0  0  0  0  0  0  0  0  0  0  0
    5.7446   26.6351    8.5573 H   0  0  0  0  0  0  0  0  0  0  0  0
    8.3936   27.0962    9.4794 H   0  0  0  0  0  0  0  0  0  0  0  0
    8.6043   25.4507    8.9265 H   0  0  0  0  0  0  0  0  0  0  0  0
   10.2454   27.9426    8.2237 H   0  0  0  0  0  0  0  0  0  0  0  0
   10.9050   25.1980    7.9660 H   0  0  0  0  0  0  0  0  0  0  0  0
  1  2  2  0
  2  3  1  0
  3  4  1  0
  4  5  1  0
  5  6  2  0
  6  7  1  0
  7  8  2  0
  8  9  1  0
  9 10  2  0
 10 11  1  0
 11 12  1  0
 12 13  1  0
  2 14  1  0
 14 15  1  0
 15 16  1  0
 16 17  1  0
 17 18  2  0
 18 19  1  0
 19 20  2  0
 20 21  1  0
 21 22  2  0
 14 23  1  0
 23 24  1  0
 23 25  1  0
 25 26  1  0
 25 27  1  0
 27 28  1  0
 28 29  1  0
 29 30  1  0
 30 31  2  0
 31 32  1  0
 32 33  2  0
 33 34  1  0
 34 35  2  0
 27 36  1  0
 36 37  2  0
 36 38  1  0
 38 39  1  0
 39 40  1  0
 40 41  2  0
 41 42  1  0
 42 43  2  0
 43 44  1  0
 44 45  2  0
 45 46  1  0
 46 47  1  0
 47 48  1  0
 12  4  1  0
 22 17  1  0
 35 30  1  0
 47 39  1  0
 10  5  1  0
 45 40  1  0
  3 49  1  0
  4 50  1  6
  6 51  1  0
  7 52  1  0
  8 53  1  0
  9 54  1  0
 11 55  1  0
 11 56  1  0
 12 57  1  6
 13 58  1  0
 14 59  1  6
 16 60  1  0
 16 61  1  0
 18 62  1  0
 19 63  1  0
 20 64  1  0
 21 65  1  0
 22 66  1  0
 23 67  1  1
 24 68  1  0
 25 69  1  1
 26 70  1  0
 27 71  1  6
 29 72  1  0
 29 73  1  0
 31 74  1  0
 32 75  1  0
 33 76  1  0
 34 77  1  0
 35 78  1  0
 38 79  1  0
 39 80  1  6
 41 81  1  0
 42 82  1  0
 43 83  1  0
 44 84  1  0
 46 85  1  0
 46 86  1  0
 47 87  1  6
 48 88  1  0
M  END
>  <meeko>  (9) 
{"is_sidechain": [false], "free_energy": -10.05, "intermolecular_energy": -16.733, "internal_energy": -4.757}

$$$$
