1c5z_ligand
     RDKit          3D

 18 18  0  0  0  0  0  0  0  0999 V2000
    8.3990   -0.3430   26.8230 N   0  0  0  0  0  0  0  0  0  0  0  0
    8.4250   -0.1980   25.5160 C   0  0  0  0  0  0  0  0  0  0  0  0
    8.0580   -1.1700   24.7100 N   0  0  0  0  0  0  0  0  0  0  0  0
    8.8750    1.0770   24.9450 C   0  0  0  0  0  0  0  0  0  0  0  0
    9.2620    1.1590   23.5980 C   0  0  0  0  0  0  0  0  0  0  0  0
    9.6890    2.3730   23.0570 C   0  0  0  0  0  0  0  0  0  0  0  0
    9.7330    3.5140   23.8530 C   0  0  0  0  0  0  0  0  0  0  0  0
    9.3530    3.4470   25.1920 C   0  0  0  0  0  0  0  0  0  0  0  0
    8.9230    2.2360   25.7360 C   0  0  0  0  0  0  0  0  0  0  0  0
    8.6600    0.4360   27.4200 H   0  0  0  0  0  0  0  0  0  0  0  0
    8.0990   -1.1960   27.2730 H   0  0  0  0  0  0  0  0  0  0  0  0
    8.1120   -1.0370   23.7040 H   0  0  0  0  0  0  0  0  0  0  0  0
    7.7410   -2.0690   25.0450 H   0  0  0  0  0  0  0  0  0  0  0  0
    9.2285    0.2604   22.9644 H   0  0  0  0  0  0  0  0  0  0  0  0
    9.9910    2.4279   22.0007 H   0  0  0  0  0  0  0  0  0  0  0  0
   10.0682    4.4700   23.4244 H   0  0  0  0  0  0  0  0  0  0  0  0
    9.3920    4.3490   25.8204 H   0  0  0  0  0  0  0  0  0  0  0  0
    8.6194    2.1891   26.7922 H   0  0  0  0  0  0  0  0  0  0  0  0
  1  2  1  0
  2  3  2  0
  2  4  1  0
  4  5  2  0
  5  6  1  0
  6  7  2  0
  7  8  1  0
  8  9  2  0
  9  4  1  0
  1 10  1  0
  1 11  1  0
  3 12  1  0
  3 13  1  0
  5 14  1  0
  6 15  1  0
  7 16  1  0
  8 17  1  0
  9 18  1  0
M  CHG  1   3   1
M  END
>  <meeko>  (1) 
{"is_sidechain": [false], "free_energy": -5.858, "intermolecular_energy": -6.2, "internal_energy": -0.035}

$$$$
1c5z_ligand
     RDKit          3D

 18 18  0  0  0  0  0  0  0  0999 V2000
    8.4170   -0.3240   26.8190 N   0  0  0  0  0  0  0  0  0  0  0  0
    8.4420   -0.1820   25.5110 C   0  0  0  0  0  0  0  0  0  0  0  0
    8.0830   -1.1580   24.7070 N   0  0  0  0  0  0  0  0  0  0  0  0
    8.8830    1.0950   24.9380 C   0  0  0  0  0  0  0  0  0  0  0  0
    8.9100    2.2590   25.7230 C   0  0  0  0  0  0  0  0  0  0  0  0
    9.3310    3.4730   25.1760 C   0  0  0  0  0  0  0  0  0  0  0  0
    9.7280    3.5360   23.8430 C   0  0  0  0  0  0  0  0  0  0  0  0
    9.7060    2.3890   23.0530 C   0  0  0  0  0  0  0  0  0  0  0  0
    9.2880    1.1730   23.5960 C   0  0  0  0  0  0  0  0  0  0  0  0
    8.6720    0.4570   27.4150 H   0  0  0  0  0  0  0  0  0  0  0  0
    8.1240   -1.1790   27.2700 H   0  0  0  0  0  0  0  0  0  0  0  0
    8.1360   -1.0260   23.7010 H   0  0  0  0  0  0  0  0  0  0  0  0
    7.7730   -2.0590   25.0440 H   0  0  0  0  0  0  0  0  0  0  0  0
    8.5972    2.2142   26.7766 H   0  0  0  0  0  0  0  0  0  0  0  0
    9.3490    4.3797   25.7985 H   0  0  0  0  0  0  0  0  0  0  0  0
   10.0594    4.4928   23.4132 H   0  0  0  0  0  0  0  0  0  0  0  0
   10.0185    2.4416   21.9996 H   0  0  0  0  0  0  0  0  0  0  0  0
    9.2758    0.2698   22.9683 H   0  0  0  0  0  0  0  0  0  0  0  0
  1  2  1  0
  2  3  2  0
  2  4  1  0
  4  5  2  0
  5  6  1  0
  6  7  2  0
  7  8  1  0
  8  9  2  0
  9  4  1  0
  1 10  1  0
  1 11  1  0
  3 12  1  0
  3 13  1  0
  5 14  1  0
  6 15  1  0
  7 16  1  0
  8 17  1  0
  9 18  1  0
M  CHG  1   3   1
M  END
>  <meeko>  (2) 
{"is_sidechain": [false], "free_energy": -5.854, "intermolecular_energy": -6.196, "internal_energy": -0.035}

$$$$
1c5z_ligand
     RDKit          3D

 18 18  0  0  0  0  0  0  0  0999 V2000
    8.4500   -0.8580   23.2690 N   0  0  0  0  0  0  0  0  0  0  0  0
    8.5580   -0.3990   24.4970 C   0  0  0  0  0  0  0  0  0  0  0  0
    8.3950   -1.1830   25.5410 N   0  0  0  0  0  0  0  0  0  0  0  0
    8.8640    1.0210   24.7070 C   0  0  0  0  0  0  0  0  0  0  0  0
    8.6810    1.6130   25.9670 C   0  0  0  0  0  0  0  0  0  0  0  0
    8.9740    2.9630   26.1640 C   0  0  0  0  0  0  0  0  0  0  0  0
    9.4520    3.7350   25.1080 C   0  0  0  0  0  0  0  0  0  0  0  0
    9.6370    3.1610   23.8520 C   0  0  0  0  0  0  0  0  0  0  0  0
    9.3480    1.8110   23.6510 C   0  0  0  0  0  0  0  0  0  0  0  0
    8.6100   -0.2350   22.4840 H   0  0  0  0  0  0  0  0  0  0  0  0
    8.2410   -1.8250   23.0640 H   0  0  0  0  0  0  0  0  0  0  0  0
    8.4600   -0.7940   26.4770 H   0  0  0  0  0  0  0  0  0  0  0  0
    8.1810   -2.1660   25.4580 H   0  0  0  0  0  0  0  0  0  0  0  0
    8.3039    1.0082   26.8049 H   0  0  0  0  0  0  0  0  0  0  0  0
    8.8272    3.4180   27.1547 H   0  0  0  0  0  0  0  0  0  0  0  0
    9.6837    4.7987   25.2657 H   0  0  0  0  0  0  0  0  0  0  0  0
   10.0113    3.7729   23.0180 H   0  0  0  0  0  0  0  0  0  0  0  0
    9.5002    1.3619   22.6584 H   0  0  0  0  0  0  0  0  0  0  0  0
  1  2  1  0
  2  3  2  0
  2  4  1  0
  4  5  2  0
  5  6  1  0
  6  7  2  0
  7  8  1  0
  8  9  2  0
  9  4  1  0
  1 10  1  0
  1 11  1  0
  3 12  1  0
  3 13  1  0
  5 14  1  0
  6 15  1  0
  7 16  1  0
  8 17  1  0
  9 18  1  0
M  CHG  1   3   1
M  END
>  <meeko>  (3) 
{"is_sidechain": [false], "free_energy": -5.812, "intermolecular_energy": -6.152, "internal_energy": -0.035}

$$$$
1c5z_ligand
     RDKit          3D

 18 18  0  0  0  0  0  0  0  0999 V2000
   10.3980    5.0780   23.4530 N   0  0  0  0  0  0  0  0  0  0  0  0
    9.2080    4.5180   23.4530 C   0  0  0  0  0  0  0  0  0  0  0  0
    8.1500    5.1530   22.9960 N   0  0  0  0  0  0  0  0  0  0  0  0
    9.0560    3.1560   23.9780 C   0  0  0  0  0  0  0  0  0  0  0  0
    9.4930    2.0510   23.2310 C   0  0  0  0  0  0  0  0  0  0  0  0
    9.3490    0.7560   23.7320 C   0  0  0  0  0  0  0  0  0  0  0  0
    8.7670    0.5520   24.9810 C   0  0  0  0  0  0  0  0  0  0  0  0
    8.3290    1.6400   25.7320 C   0  0  0  0  0  0  0  0  0  0  0  0
    8.4730    2.9370   25.2360 C   0  0  0  0  0  0  0  0  0  0  0  0
   11.2000    4.5520   23.7850 H   0  0  0  0  0  0  0  0  0  0  0  0
   10.5630    6.0120   23.1050 H   0  0  0  0  0  0  0  0  0  0  0  0
    7.2400    4.7040   23.0320 H   0  0  0  0  0  0  0  0  0  0  0  0
    8.1940    6.0920   22.6250 H   0  0  0  0  0  0  0  0  0  0  0  0
    9.9523    2.2065   22.2436 H   0  0  0  0  0  0  0  0  0  0  0  0
    9.6954   -0.1040   23.1400 H   0  0  0  0  0  0  0  0  0  0  0  0
    8.6533   -0.4690   25.3743 H   0  0  0  0  0  0  0  0  0  0  0  0
    7.8688    1.4771   26.7177 H   0  0  0  0  0  0  0  0  0  0  0  0
    8.1275    3.7927   25.8347 H   0  0  0  0  0  0  0  0  0  0  0  0
  1  2  1  0
  2  3  2  0
  2  4  1  0
  4  5  2  0
  5  6  1  0
  6  7  2  0
  7  8  1  0
  8  9  2  0
  9  4  1  0
  1 10  1  0
  1 11  1  0
  3 12  1  0
  3 13  1  0
  5 14  1  0
  6 15  1  0
  7 16  1  0
  8 17  1  0
  9 18  1  0
M  CHG  1   3   1
M  END
>  <meeko>  (4) 
{"is_sidechain": [false], "free_energy": -4.98, "intermolecular_energy": -5.284, "internal_energy": -0.021}

$$$$
1c5z_ligand
     RDKit          3D

 18 18  0  0  0  0  0  0  0  0999 V2000
    8.0870    5.0490   25.9120 N   0  0  0  0  0  0  0  0  0  0  0  0
    8.1490    3.8120   26.3550 C   0  0  0  0  0  0  0  0  0  0  0  0
    7.8660    3.5160   27.6050 N   0  0  0  0  0  0  0  0  0  0  0  0
    8.5430    2.7400   25.4350 C   0  0  0  0  0  0  0  0  0  0  0  0
    8.3740    1.3930   25.7930 C   0  0  0  0  0  0  0  0  0  0  0  0
    8.7490    0.3740   24.9150 C   0  0  0  0  0  0  0  0  0  0  0  0
    9.2960    0.6900   23.6740 C   0  0  0  0  0  0  0  0  0  0  0  0
    9.4710    2.0220   23.3060 C   0  0  0  0  0  0  0  0  0  0  0  0
    9.0950    3.0440   24.1800 C   0  0  0  0  0  0  0  0  0  0  0  0
    8.2820    5.2430   24.9350 H   0  0  0  0  0  0  0  0  0  0  0  0
    7.8220    5.8280   26.4990 H   0  0  0  0  0  0  0  0  0  0  0  0
    7.9460    2.5550   27.9240 H   0  0  0  0  0  0  0  0  0  0  0  0
    7.5910    4.2120   28.2840 H   0  0  0  0  0  0  0  0  0  0  0  0
    7.9429    1.1384   26.7725 H   0  0  0  0  0  0  0  0  0  0  0  0
    8.6123   -0.6786   25.2037 H   0  0  0  0  0  0  0  0  0  0  0  0
    9.5904   -0.1137   22.9831 H   0  0  0  0  0  0  0  0  0  0  0  0
    9.9057    2.2689   22.3262 H   0  0  0  0  0  0  0  0  0  0  0  0
    9.2321    4.0944   23.8835 H   0  0  0  0  0  0  0  0  0  0  0  0
  1  2  1  0
  2  3  2  0
  2  4  1  0
  4  5  2  0
  5  6  1  0
  6  7  2  0
  7  8  1  0
  8  9  2  0
  9  4  1  0
  1 10  1  0
  1 11  1  0
  3 12  1  0
  3 13  1  0
  5 14  1  0
  6 15  1  0
  7 16  1  0
  8 17  1  0
  9 18  1  0
M  CHG  1   3   1
M  END
>  <meeko>  (5) 
{"is_sidechain": [false], "free_energy": -4.771, "intermolecular_energy": -5.05, "internal_energy": -0.036}

$$$$
1c5z_ligand
     RDKit          3D

 18 18  0  0  0  0  0  0  0  0999 V2000
    8.0760    5.1170   26.0590 N   0  0  0  0  0  0  0  0  0  0  0  0
    8.1800    3.8700   26.4640 C   0  0  0  0  0  0  0  0  0  0  0  0
    7.8030    3.5060   27.6710 N   0  0  0  0  0  0  0  0  0  0  0  0
    8.7300    2.8630   25.5500 C   0  0  0  0  0  0  0  0  0  0  0  0
    9.5120    3.2480   24.4500 C   0  0  0  0  0  0  0  0  0  0  0  0
   10.0360    2.2890   23.5820 C   0  0  0  0  0  0  0  0  0  0  0  0
    9.7840    0.9370   23.8030 C   0  0  0  0  0  0  0  0  0  0  0  0
    9.0090    0.5400   24.8900 C   0  0  0  0  0  0  0  0  0  0  0  0
    8.4850    1.4960   25.7620 C   0  0  0  0  0  0  0  0  0  0  0  0
    8.3480    5.3620   25.1120 H   0  0  0  0  0  0  0  0  0  0  0  0
    7.7050    5.8530   26.6440 H   0  0  0  0  0  0  0  0  0  0  0  0
    7.9180    2.5400   27.9640 H   0  0  0  0  0  0  0  0  0  0  0  0
    7.4190    4.1550   28.3430 H   0  0  0  0  0  0  0  0  0  0  0  0
    9.7135    4.3144   24.2705 H   0  0  0  0  0  0  0  0  0  0  0  0
   10.6482    2.6009   22.7230 H   0  0  0  0  0  0  0  0  0  0  0  0
   10.1976    0.1820   23.1182 H   0  0  0  0  0  0  0  0  0  0  0  0
    8.8096   -0.5281   25.0616 H   0  0  0  0  0  0  0  0  0  0  0  0
    7.8762    1.1768   26.6208 H   0  0  0  0  0  0  0  0  0  0  0  0
  1  2  1  0
  2  3  2  0
  2  4  1  0
  4  5  2  0
  5  6  1  0
  6  7  2  0
  7  8  1  0
  8  9  2  0
  9  4  1  0
  1 10  1  0
  1 11  1  0
  3 12  1  0
  3 13  1  0
  5 14  1  0
  6 15  1  0
  7 16  1  0
  8 17  1  0
  9 18  1  0
M  CHG  1   3   1
M  END
>  <meeko>  (6) 
{"is_sidechain": [false], "free_energy": -4.669, "intermolecular_energy": -4.942, "internal_energy": -0.034}

$$$$
1c5z_ligand
     RDKit          3D

 18 18  0  0  0  0  0  0  0  0999 V2000
    9.6300    0.6910   23.9080 N   0  0  0  0  0  0  0  0  0  0  0  0
    9.4510    1.9540   23.5890 C   0  0  0  0  0  0  0  0  0  0  0  0
    9.7220    2.4030   22.3820 N   0  0  0  0  0  0  0  0  0  0  0  0
    8.9400    2.8840   24.6020 C   0  0  0  0  0  0  0  0  0  0  0  0
    8.4310    4.1380   24.2290 C   0  0  0  0  0  0  0  0  0  0  0  0
    7.9440    5.0210   25.1940 C   0  0  0  0  0  0  0  0  0  0  0  0
    7.9610    4.6610   26.5400 C   0  0  0  0  0  0  0  0  0  0  0  0
    8.4640    3.4200   26.9240 C   0  0  0  0  0  0  0  0  0  0  0  0
    8.9490    2.5340   25.9620 C   0  0  0  0  0  0  0  0  0  0  0  0
    9.3850    0.3680   24.8390 H   0  0  0  0  0  0  0  0  0  0  0  0
    9.9800    0.0060   23.2530 H   0  0  0  0  0  0  0  0  0  0  0  0
    9.5960    3.3880   22.1720 H   0  0  0  0  0  0  0  0  0  0  0  0
   10.0770    1.8100   21.6450 H   0  0  0  0  0  0  0  0  0  0  0  0
    8.4159    4.4270   23.1678 H   0  0  0  0  0  0  0  0  0  0  0  0
    7.5467    6.0013   24.8919 H   0  0  0  0  0  0  0  0  0  0  0  0
    7.5769    5.3573   27.3000 H   0  0  0  0  0  0  0  0  0  0  0  0
    8.4787    3.1384   27.9872 H   0  0  0  0  0  0  0  0  0  0  0  0
    9.3414    1.5539   26.2709 H   0  0  0  0  0  0  0  0  0  0  0  0
  1  2  1  0
  2  3  2  0
  2  4  1  0
  4  5  2  0
  5  6  1  0
  6  7  2  0
  7  8  1  0
  8  9  2  0
  9  4  1  0
  1 10  1  0
  1 11  1  0
  3 12  1  0
  3 13  1  0
  5 14  1  0
  6 15  1  0
  7 16  1  0
  8 17  1  0
  9 18  1  0
M  CHG  1   3   1
M  END
>  <meeko>  (7) 
{"is_sidechain": [false], "free_energy": -4.565, "intermolecular_energy": -4.832, "internal_energy": -0.035}

$$$$
1c5z_ligand
     RDKit          3D

 18 18  0  0  0  0  0  0  0  0999 V2000
   12.1060   13.9510   20.3260 N   0  0  0  0  0  0  0  0  0  0  0  0
   12.7220   13.6560   19.2020 C   0  0  0  0  0  0  0  0  0  0  0  0
   12.0590   13.2520   18.1410 N   0  0  0  0  0  0  0  0  0  0  0  0
   14.1830   13.7790   19.1320 C   0  0  0  0  0  0  0  0  0  0  0  0
   15.0040   13.0470   20.0050 C   0  0  0  0  0  0  0  0  0  0  0  0
   16.3930   13.1650   19.9360 C   0  0  0  0  0  0  0  0  0  0  0  0
   16.9750   14.0130   18.9970 C   0  0  0  0  0  0  0  0  0  0  0  0
   16.1730   14.7460   18.1270 C   0  0  0  0  0  0  0  0  0  0  0  0
   14.7830   14.6300   18.1900 C   0  0  0  0  0  0  0  0  0  0  0  0
   12.6420   14.2890   21.1200 H   0  0  0  0  0  0  0  0  0  0  0  0
   11.1030   13.8850   20.4340 H   0  0  0  0  0  0  0  0  0  0  0  0
   12.5650   13.0080   17.2950 H   0  0  0  0  0  0  0  0  0  0  0  0
   11.0550   13.1470   18.1310 H   0  0  0  0  0  0  0  0  0  0  0  0
   14.5492   12.3759   20.7485 H   0  0  0  0  0  0  0  0  0  0  0  0
   17.0285   12.5878   20.6238 H   0  0  0  0  0  0  0  0  0  0  0  0
   18.0699   14.1036   18.9428 H   0  0  0  0  0  0  0  0  0  0  0  0
   16.6350   15.4178   17.3886 H   0  0  0  0  0  0  0  0  0  0  0  0
   14.1542   15.2088   17.4975 H   0  0  0  0  0  0  0  0  0  0  0  0
  1  2  1  0
  2  3  2  0
  2  4  1  0
  4  5  2  0
  5  6  1  0
  6  7  2  0
  7  8  1  0
  8  9  2  0
  9  4  1  0
  1 10  1  0
  1 11  1  0
  3 12  1  0
  3 13  1  0
  5 14  1  0
  6 15  1  0
  7 16  1  0
  8 17  1  0
  9 18  1  0
M  CHG  1   3   1
M  END
>  <meeko>  (8) 
{"is_sidechain": [false], "free_energy": -4.347, "intermolecular_energy": -4.611, "internal_energy": -0.025}

$$$$
1c5z_ligand
     RDKit          3D

 18 18  0  0  0  0  0  0  0  0999 V2000
    9.3070    1.4150   24.0090 N   0  0  0  0  0  0  0  0  0  0  0  0
    9.8800    2.5590   23.7070 C   0  0  0  0  0  0  0  0  0  0  0  0
   10.9950    2.6070   23.0100 N   0  0  0  0  0  0  0  0  0  0  0  0
    9.2620    3.8110   24.1600 C   0  0  0  0  0  0  0  0  0  0  0  0
    8.0400    3.7950   24.8520 C   0  0  0  0  0  0  0  0  0  0  0  0
    7.4550    4.9870   25.2830 C   0  0  0  0  0  0  0  0  0  0  0  0
    8.0820    6.2040   25.0280 C   0  0  0  0  0  0  0  0  0  0  0  0
    9.2940    6.2340   24.3410 C   0  0  0  0  0  0  0  0  0  0  0  0
    9.8840    5.0450   23.9110 C   0  0  0  0  0  0  0  0  0  0  0  0
    8.4310    1.4110   24.5220 H   0  0  0  0  0  0  0  0  0  0  0  0
    9.6860    0.5220   23.7250 H   0  0  0  0  0  0  0  0  0  0  0  0
   11.4260    3.5050   22.8140 H   0  0  0  0  0  0  0  0  0  0  0  0
   11.4650    1.7790   22.6740 H   0  0  0  0  0  0  0  0  0  0  0  0
    7.5403    2.8365   25.0558 H   0  0  0  0  0  0  0  0  0  0  0  0
    6.4978    4.9649   25.8246 H   0  0  0  0  0  0  0  0  0  0  0  0
    7.6202    7.1423   25.3691 H   0  0  0  0  0  0  0  0  0  0  0  0
    9.7863    7.1964   24.1374 H   0  0  0  0  0  0  0  0  0  0  0  0
   10.8431    5.0745   23.3732 H   0  0  0  0  0  0  0  0  0  0  0  0
  1  2  1  0
  2  3  2  0
  2  4  1  0
  4  5  2  0
  5  6  1  0
  6  7  2  0
  7  8  1  0
  8  9  2  0
  9  4  1  0
  1 10  1  0
  1 11  1  0
  3 12  1  0
  3 13  1  0
  5 14  1  0
  6 15  1  0
  7 16  1  0
  8 17  1  0
  9 18  1  0
M  CHG  1   3   1
M  END
>  <meeko>  (9) 
{"is_sidechain": [false], "free_energy": -4.254, "intermolecular_energy": -4.502, "internal_energy": -0.036}

$$$$
