4k18_ligand
     RDKit          3D

 43 46  0  0  0  0  0  0  0  0999 V2000
  -15.3280  -34.5960    8.3150 N   0  0  0  0  0  0  0  0  0  0  0  0
  -15.5850  -34.1620    7.2700 C   0  0  0  0  0  0  0  0  0  0  0  0
  -15.9030  -33.6240    5.9800 C   0  0  0  0  0  0  0  0  0  0  0  0
  -15.0770  -33.8960    4.8840 C   0  0  0  0  0  0  0  0  0  0  0  0
  -15.3860  -33.3730    3.6260 C   0  0  0  0  0  0  0  0  0  0  0  0
  -16.5230  -32.5700    3.4490 C   0  0  0  0  0  0  0  0  0  0  0  0
  -16.8680  -32.0210    2.0810 C   0  0  0  0  0  0  0  0  0  0  0  0
  -17.3190  -33.0930    1.1060 C   0  0  0  0  0  0  0  0  0  0  0  0
  -16.7560  -33.2070   -0.1150 C   0  0  0  0  0  0  0  0  0  0  0  0
  -17.2170  -34.2630   -1.0600 C   0  0  0  0  0  0  0  0  0  0  0  0
  -16.7470  -34.4200   -2.1780 O   0  0  0  0  0  0  0  0  0  0  0  0
  -18.2450  -35.0750   -0.5520 N   0  0  0  0  0  0  0  0  0  0  0  0
  -18.8080  -36.1040   -1.2400 N   0  0  0  0  0  0  0  0  0  0  0  0
  -19.7140  -36.5950   -0.3880 C   0  0  0  0  0  0  0  0  0  0  0  0
  -19.7650  -35.9090    0.8510 C   0  0  0  0  0  0  0  0  0  0  0  0
  -20.5860  -36.1030    2.0420 C   0  0  0  0  0  0  0  0  0  0  0  0
  -20.7230  -35.1900    2.8510 O   0  0  0  0  0  0  0  0  0  0  0  0
  -21.1550  -37.3610    2.1480 N   0  0  0  0  0  0  0  0  0  0  0  0
  -21.9910  -37.8440    3.1780 C   0  0  0  0  0  0  0  0  0  0  0  0
  -21.8200  -37.5500    4.5350 C   0  0  0  0  0  0  0  0  0  0  0  0
  -22.6990  -38.0720    5.4900 C   0  0  0  0  0  0  0  0  0  0  0  0
  -23.7480  -38.8870    5.0880 C   0  0  0  0  0  0  0  0  0  0  0  0
  -24.5890  -39.3850    6.0040 F   0  0  0  0  0  0  0  0  0  0  0  0
  -23.9380  -39.1920    3.7480 C   0  0  0  0  0  0  0  0  0  0  0  0
  -23.0600  -38.6700    2.7940 C   0  0  0  0  0  0  0  0  0  0  0  0
  -18.8050  -34.9320    0.7020 C   0  0  0  0  0  0  0  0  0  0  0  0
  -18.3450  -33.9410    1.5010 N   0  0  0  0  0  0  0  0  0  0  0  0
  -17.3460  -32.3030    4.5520 C   0  0  0  0  0  0  0  0  0  0  0  0
  -17.0370  -32.8270    5.8110 C   0  0  0  0  0  0  0  0  0  0  0  0
  -14.1824  -34.5230    5.0131 H   0  0  0  0  0  0  0  0  0  0  0  0
  -14.7333  -33.5922    2.7681 H   0  0  0  0  0  0  0  0  0  0  0  0
  -17.6787  -31.2860    2.1929 H   0  0  0  0  0  0  0  0  0  0  0  0
  -15.9544  -31.5668    1.6698 H   0  0  0  0  0  0  0  0  0  0  0  0
  -15.9530  -32.5173   -0.4142 H   0  0  0  0  0  0  0  0  0  0  0  0
  -20.3603  -37.4525   -0.6268 H   0  0  0  0  0  0  0  0  0  0  0  0
  -20.9550  -38.0250    1.4150 H   0  0  0  0  0  0  0  0  0  0  0  0
  -20.9886  -36.9039    4.8533 H   0  0  0  0  0  0  0  0  0  0  0  0
  -22.5593  -37.8374    6.5556 H   0  0  0  0  0  0  0  0  0  0  0  0
  -24.7723  -39.8389    3.4391 H   0  0  0  0  0  0  0  0  0  0  0  0
  -23.2079  -38.9088    1.7305 H   0  0  0  0  0  0  0  0  0  0  0  0
  -18.7030  -33.8400    2.4550 H   0  0  0  0  0  0  0  0  0  0  0  0
  -18.2415  -31.6767    4.4261 H   0  0  0  0  0  0  0  0  0  0  0  0
  -17.6888  -32.6109    6.6703 H   0  0  0  0  0  0  0  0  0  0  0  0
  1  2  3  0
  2  3  1  0
  3  4  2  0
  4  5  1  0
  5  6  2  0
  6  7  1  0
  7  8  1  0
  8  9  2  0
  9 10  1  0
 10 11  2  0
 10 12  1  0
 12 13  1  0
 13 14  2  0
 14 15  1  0
 15 16  1  0
 16 17  2  0
 16 18  1  0
 18 19  1  0
 19 20  2  0
 20 21  1  0
 21 22  2  0
 22 23  1  0
 22 24  1  0
 24 25  2  0
 15 26  2  0
 26 27  1  0
  6 28  1  0
 28 29  2  0
 29  3  1  0
 27  8  1  0
 26 12  1  0
 25 19  1  0
  4 30  1  0
  5 31  1  0
  7 32  1  0
  7 33  1  0
  9 34  1  0
 14 35  1  0
 18 36  1  0
 20 37  1  0
 21 38  1  0
 24 39  1  0
 25 40  1  0
 27 41  1  0
 28 42  1  0
 29 43  1  0
M  END
>  <meeko>  (1) 
{"is_sidechain": [false], "free_energy": -11.085, "intermolecular_energy": -13.678, "internal_energy": -0.891}

$$$$
4k18_ligand
     RDKit          3D

 43 46  0  0  0  0  0  0  0  0999 V2000
  -19.9610  -39.9180    6.4530 N   0  0  0  0  0  0  0  0  0  0  0  0
  -19.7650  -38.8080    6.1780 C   0  0  0  0  0  0  0  0  0  0  0  0
  -19.5220  -37.4370    5.8380 C   0  0  0  0  0  0  0  0  0  0  0  0
  -20.5840  -36.5280    5.7850 C   0  0  0  0  0  0  0  0  0  0  0  0
  -20.3490  -35.1910    5.4550 C   0  0  0  0  0  0  0  0  0  0  0  0
  -19.0480  -34.7480    5.1700 C   0  0  0  0  0  0  0  0  0  0  0  0
  -18.7920  -33.2950    4.8310 C   0  0  0  0  0  0  0  0  0  0  0  0
  -18.1160  -33.1070    3.4860 C   0  0  0  0  0  0  0  0  0  0  0  0
  -17.2070  -32.1280    3.2930 C   0  0  0  0  0  0  0  0  0  0  0  0
  -16.5580  -31.9570    1.9620 C   0  0  0  0  0  0  0  0  0  0  0  0
  -15.7270  -31.0920    1.7240 O   0  0  0  0  0  0  0  0  0  0  0  0
  -16.9810  -32.8850    0.9960 N   0  0  0  0  0  0  0  0  0  0  0  0
  -16.5130  -32.9170   -0.2800 N   0  0  0  0  0  0  0  0  0  0  0  0
  -17.1670  -33.9460   -0.8300 C   0  0  0  0  0  0  0  0  0  0  0  0
  -18.0630  -34.5940    0.0560 C   0  0  0  0  0  0  0  0  0  0  0  0
  -18.9570  -35.7340   -0.1190 C   0  0  0  0  0  0  0  0  0  0  0  0
  -19.0650  -36.2670   -1.2190 O   0  0  0  0  0  0  0  0  0  0  0  0
  -19.6290  -36.1190    1.0290 N   0  0  0  0  0  0  0  0  0  0  0  0
  -20.5520  -37.1780    1.1720 C   0  0  0  0  0  0  0  0  0  0  0  0
  -21.1060  -37.8900    0.1040 C   0  0  0  0  0  0  0  0  0  0  0  0
  -22.0150  -38.9270    0.3380 C   0  0  0  0  0  0  0  0  0  0  0  0
  -22.3690  -39.2520    1.6410 C   0  0  0  0  0  0  0  0  0  0  0  0
  -23.2390  -40.2460    1.8630 F   0  0  0  0  0  0  0  0  0  0  0  0
  -21.8310  -38.5590    2.7160 C   0  0  0  0  0  0  0  0  0  0  0  0
  -20.9240  -37.5230    2.4820 C   0  0  0  0  0  0  0  0  0  0  0  0
  -17.9160  -33.8750    1.2230 C   0  0  0  0  0  0  0  0  0  0  0  0
  -18.4750  -33.9610    2.4530 N   0  0  0  0  0  0  0  0  0  0  0  0
  -17.9890  -35.6640    5.2240 C   0  0  0  0  0  0  0  0  0  0  0  0
  -18.2250  -37.0010    5.5570 C   0  0  0  0  0  0  0  0  0  0  0  0
  -21.6073  -36.8670    6.0038 H   0  0  0  0  0  0  0  0  0  0  0  0
  -21.1886  -34.4812    5.4183 H   0  0  0  0  0  0  0  0  0  0  0  0
  -19.7554  -32.7643    4.8157 H   0  0  0  0  0  0  0  0  0  0  0  0
  -18.1127  -32.8944    5.5979 H   0  0  0  0  0  0  0  0  0  0  0  0
  -16.9441  -31.4536    4.1213 H   0  0  0  0  0  0  0  0  0  0  0  0
  -17.0225  -34.2603   -1.8742 H   0  0  0  0  0  0  0  0  0  0  0  0
  -19.4540  -35.5880    1.8690 H   0  0  0  0  0  0  0  0  0  0  0  0
  -20.8250  -37.6328   -0.9279 H   0  0  0  0  0  0  0  0  0  0  0  0
  -22.4478  -39.4830   -0.5067 H   0  0  0  0  0  0  0  0  0  0  0  0
  -22.1167  -38.8236    3.7448 H   0  0  0  0  0  0  0  0  0  0  0  0
  -20.4965  -36.9715    3.3323 H   0  0  0  0  0  0  0  0  0  0  0  0
  -19.1330  -34.7160    2.6680 H   0  0  0  0  0  0  0  0  0  0  0  0
  -16.9650  -35.3287    5.0028 H   0  0  0  0  0  0  0  0  0  0  0  0
  -17.3867  -37.7120    5.5979 H   0  0  0  0  0  0  0  0  0  0  0  0
  1  2  3  0
  2  3  1  0
  3  4  2  0
  4  5  1  0
  5  6  2  0
  6  7  1  0
  7  8  1  0
  8  9  2  0
  9 10  1  0
 10 11  2  0
 10 12  1  0
 12 13  1  0
 13 14  2  0
 14 15  1  0
 15 16  1  0
 16 17  2  0
 16 18  1  0
 18 19  1  0
 19 20  2  0
 20 21  1  0
 21 22  2  0
 22 23  1  0
 22 24  1  0
 24 25  2  0
 15 26  2  0
 26 27  1  0
  6 28  1  0
 28 29  2  0
 29  3  1  0
 27  8  1  0
 26 12  1  0
 25 19  1  0
  4 30  1  0
  5 31  1  0
  7 32  1  0
  7 33  1  0
  9 34  1  0
 14 35  1  0
 18 36  1  0
 20 37  1  0
 21 38  1  0
 24 39  1  0
 25 40  1  0
 27 41  1  0
 28 42  1  0
 29 43  1  0
M  END
>  <meeko>  (2) 
{"is_sidechain": [false], "free_energy": -10.71, "intermolecular_energy": -13.55, "internal_energy": -0.555}

$$$$
4k18_ligand
     RDKit          3D

 43 46  0  0  0  0  0  0  0  0999 V2000
  -22.7310  -39.8460    1.0970 N   0  0  0  0  0  0  0  0  0  0  0  0
  -22.0420  -38.9530    0.8250 C   0  0  0  0  0  0  0  0  0  0  0  0
  -21.1930  -37.8480    0.4880 C   0  0  0  0  0  0  0  0  0  0  0  0
  -21.2840  -36.6500    1.2030 C   0  0  0  0  0  0  0  0  0  0  0  0
  -20.4560  -35.5720    0.8760 C   0  0  0  0  0  0  0  0  0  0  0  0
  -19.5290  -35.6810   -0.1710 C   0  0  0  0  0  0  0  0  0  0  0  0
  -18.6180  -34.5200   -0.5110 C   0  0  0  0  0  0  0  0  0  0  0  0
  -18.0410  -33.8370    0.7150 C   0  0  0  0  0  0  0  0  0  0  0  0
  -17.1490  -32.8320    0.5990 C   0  0  0  0  0  0  0  0  0  0  0  0
  -16.5910  -32.1780    1.8160 C   0  0  0  0  0  0  0  0  0  0  0  0
  -15.7810  -31.2610    1.7780 O   0  0  0  0  0  0  0  0  0  0  0  0
  -17.0800  -32.7030    3.0230 N   0  0  0  0  0  0  0  0  0  0  0  0
  -16.7130  -32.2500    4.2510 N   0  0  0  0  0  0  0  0  0  0  0  0
  -17.4190  -33.0120    5.0930 C   0  0  0  0  0  0  0  0  0  0  0  0
  -18.2450  -33.9650    4.4470 C   0  0  0  0  0  0  0  0  0  0  0  0
  -19.1610  -34.9750    4.9650 C   0  0  0  0  0  0  0  0  0  0  0  0
  -20.1210  -34.6410    5.6530 O   0  0  0  0  0  0  0  0  0  0  0  0
  -18.8390  -36.2760    4.6150 N   0  0  0  0  0  0  0  0  0  0  0  0
  -19.5300  -37.4580    4.9620 C   0  0  0  0  0  0  0  0  0  0  0  0
  -20.4950  -38.0710    4.1560 C   0  0  0  0  0  0  0  0  0  0  0  0
  -21.1310  -39.2430    4.5800 C   0  0  0  0  0  0  0  0  0  0  0  0
  -20.8020  -39.8010    5.8080 C   0  0  0  0  0  0  0  0  0  0  0  0
  -21.4110  -40.9230    6.2110 F   0  0  0  0  0  0  0  0  0  0  0  0
  -19.8480  -39.2090    6.6230 C   0  0  0  0  0  0  0  0  0  0  0  0
  -19.2130  -38.0390    6.2000 C   0  0  0  0  0  0  0  0  0  0  0  0
  -17.9920  -33.7350    3.1110 C   0  0  0  0  0  0  0  0  0  0  0  0
  -18.4460  -34.2920    1.9640 N   0  0  0  0  0  0  0  0  0  0  0  0
  -19.4430  -36.8860   -0.8830 C   0  0  0  0  0  0  0  0  0  0  0  0
  -20.2710  -37.9630   -0.5550 C   0  0  0  0  0  0  0  0  0  0  0  0
  -22.0089  -36.5554    2.0249 H   0  0  0  0  0  0  0  0  0  0  0  0
  -20.5320  -34.6326    1.4433 H   0  0  0  0  0  0  0  0  0  0  0  0
  -17.7870  -34.8956   -1.1261 H   0  0  0  0  0  0  0  0  0  0  0  0
  -19.2233  -33.7744   -1.0473 H   0  0  0  0  0  0  0  0  0  0  0  0
  -16.8320  -32.4936   -0.3985 H   0  0  0  0  0  0  0  0  0  0  0  0
  -17.3636  -32.9085    6.1867 H   0  0  0  0  0  0  0  0  0  0  0  0
  -18.0150  -36.4150    4.0500 H   0  0  0  0  0  0  0  0  0  0  0  0
  -20.7555  -37.6290    3.1830 H   0  0  0  0  0  0  0  0  0  0  0  0
  -21.8893  -39.7208    3.9423 H   0  0  0  0  0  0  0  0  0  0  0  0
  -19.5937  -39.6575    7.5947 H   0  0  0  0  0  0  0  0  0  0  0  0
  -18.4561  -37.5676    6.8441 H   0  0  0  0  0  0  0  0  0  0  0  0
  -19.1610  -35.0240    1.9930 H   0  0  0  0  0  0  0  0  0  0  0  0
  -18.7189  -36.9842   -1.7052 H   0  0  0  0  0  0  0  0  0  0  0  0
  -20.1964  -38.9040   -1.1198 H   0  0  0  0  0  0  0  0  0  0  0  0
  1  2  3  0
  2  3  1  0
  3  4  2  0
  4  5  1  0
  5  6  2  0
  6  7  1  0
  7  8  1  0
  8  9  2  0
  9 10  1  0
 10 11  2  0
 10 12  1  0
 12 13  1  0
 13 14  2  0
 14 15  1  0
 15 16  1  0
 16 17  2  0
 16 18  1  0
 18 19  1  0
 19 20  2  0
 20 21  1  0
 21 22  2  0
 22 23  1  0
 22 24  1  0
 24 25  2  0
 15 26  2  0
 26 27  1  0
  6 28  1  0
 28 29  2  0
 29  3  1  0
 27  8  1  0
 26 12  1  0
 25 19  1  0
  4 30  1  0
  5 31  1  0
  7 32  1  0
  7 33  1  0
  9 34  1  0
 14 35  1  0
 18 36  1  0
 20 37  1  0
 21 38  1  0
 24 39  1  0
 25 40  1  0
 27 41  1  0
 28 42  1  0
 29 43  1  0
M  END
>  <meeko>  (3) 
{"is_sidechain": [false], "free_energy": -10.331, "intermolecular_energy": -13.176, "internal_energy": -0.462}

$$$$
4k18_ligand
     RDKit          3D

 43 46  0  0  0  0  0  0  0  0999 V2000
  -16.9090  -34.3190   -1.6450 N   0  0  0  0  0  0  0  0  0  0  0  0
  -17.7630  -34.9050   -1.1210 C   0  0  0  0  0  0  0  0  0  0  0  0
  -18.8180  -35.6280   -0.4740 C   0  0  0  0  0  0  0  0  0  0  0  0
  -19.1530  -36.9160   -0.9050 C   0  0  0  0  0  0  0  0  0  0  0  0
  -20.1800  -37.6220   -0.2750 C   0  0  0  0  0  0  0  0  0  0  0  0
  -20.8870  -37.0480    0.7920 C   0  0  0  0  0  0  0  0  0  0  0  0
  -21.9870  -37.8220    1.4870 C   0  0  0  0  0  0  0  0  0  0  0  0
  -21.7640  -37.9630    2.9810 C   0  0  0  0  0  0  0  0  0  0  0  0
  -22.5370  -38.7780    3.7280 C   0  0  0  0  0  0  0  0  0  0  0  0
  -22.3050  -38.8980    5.1950 C   0  0  0  0  0  0  0  0  0  0  0  0
  -22.9690  -39.6200    5.9270 O   0  0  0  0  0  0  0  0  0  0  0  0
  -21.2450  -38.1090    5.6730 N   0  0  0  0  0  0  0  0  0  0  0  0
  -20.8540  -38.0730    6.9740 N   0  0  0  0  0  0  0  0  0  0  0  0
  -19.8250  -37.2190    6.9710 C   0  0  0  0  0  0  0  0  0  0  0  0
  -19.5280  -36.6850    5.6920 C   0  0  0  0  0  0  0  0  0  0  0  0
  -18.5130  -35.7410    5.2390 C   0  0  0  0  0  0  0  0  0  0  0  0
  -17.3330  -35.9190    5.5290 O   0  0  0  0  0  0  0  0  0  0  0  0
  -19.0030  -34.6840    4.4910 N   0  0  0  0  0  0  0  0  0  0  0  0
  -18.2720  -33.6200    3.9190 C   0  0  0  0  0  0  0  0  0  0  0  0
  -18.3350  -32.2940    4.3590 C   0  0  0  0  0  0  0  0  0  0  0  0
  -17.5730  -31.3020    3.7330 C   0  0  0  0  0  0  0  0  0  0  0  0
  -16.7480  -31.6360    2.6670 C   0  0  0  0  0  0  0  0  0  0  0  0
  -16.0190  -30.6850    2.0700 F   0  0  0  0  0  0  0  0  0  0  0  0
  -16.6690  -32.9450    2.2140 C   0  0  0  0  0  0  0  0  0  0  0  0
  -17.4300  -33.9360    2.8400 C   0  0  0  0  0  0  0  0  0  0  0  0
  -20.4720  -37.2820    4.8840 C   0  0  0  0  0  0  0  0  0  0  0  0
  -20.7500  -37.2120    3.5610 N   0  0  0  0  0  0  0  0  0  0  0  0
  -20.5460  -35.7570    1.2190 C   0  0  0  0  0  0  0  0  0  0  0  0
  -19.5170  -35.0510    0.5890 C   0  0  0  0  0  0  0  0  0  0  0  0
  -18.6060  -37.3739   -1.7424 H   0  0  0  0  0  0  0  0  0  0  0  0
  -20.4364  -38.6353   -0.6178 H   0  0  0  0  0  0  0  0  0  0  0  0
  -22.9404  -37.2984    1.3234 H   0  0  0  0  0  0  0  0  0  0  0  0
  -21.9947  -38.8356    1.0598 H   0  0  0  0  0  0  0  0  0  0  0  0
  -23.3423  -39.3567    3.2520 H   0  0  0  0  0  0  0  0  0  0  0  0
  -19.2609  -36.9552    7.8777 H   0  0  0  0  0  0  0  0  0  0  0  0
  -19.9990  -34.6510    4.3310 H   0  0  0  0  0  0  0  0  0  0  0  0
  -18.9884  -32.0293    5.2034 H   0  0  0  0  0  0  0  0  0  0  0  0
  -17.6271  -30.2609    4.0839 H   0  0  0  0  0  0  0  0  0  0  0  0
  -16.0128  -33.2007    1.3690 H   0  0  0  0  0  0  0  0  0  0  0  0
  -17.3689  -34.9749    2.4838 H   0  0  0  0  0  0  0  0  0  0  0  0
  -20.1630  -36.6470    2.9400 H   0  0  0  0  0  0  0  0  0  0  0  0
  -21.0919  -35.2964    2.0556 H   0  0  0  0  0  0  0  0  0  0  0  0
  -19.2570  -34.0384    0.9312 H   0  0  0  0  0  0  0  0  0  0  0  0
  1  2  3  0
  2  3  1  0
  3  4  2  0
  4  5  1  0
  5  6  2  0
  6  7  1  0
  7  8  1  0
  8  9  2  0
  9 10  1  0
 10 11  2  0
 10 12  1  0
 12 13  1  0
 13 14  2  0
 14 15  1  0
 15 16  1  0
 16 17  2  0
 16 18  1  0
 18 19  1  0
 19 20  2  0
 20 21  1  0
 21 22  2  0
 22 23  1  0
 22 24  1  0
 24 25  2  0
 15 26  2  0
 26 27  1  0
  6 28  1  0
 28 29  2  0
 29  3  1  0
 27  8  1  0
 26 12  1  0
 25 19  1  0
  4 30  1  0
  5 31  1  0
  7 32  1  0
  7 33  1  0
  9 34  1  0
 14 35  1  0
 18 36  1  0
 20 37  1  0
 21 38  1  0
 24 39  1  0
 25 40  1  0
 27 41  1  0
 28 42  1  0
 29 43  1  0
M  END
>  <meeko>  (4) 
{"is_sidechain": [false], "free_energy": -9.957, "intermolecular_energy": -12.655, "internal_energy": -0.521}

$$$$
4k18_ligand
     RDKit          3D

 43 46  0  0  0  0  0  0  0  0999 V2000
  -17.1260  -33.6480    8.3360 N   0  0  0  0  0  0  0  0  0  0  0  0
  -17.0010  -33.3820    7.2130 C   0  0  0  0  0  0  0  0  0  0  0  0
  -16.8470  -33.0540    5.8260 C   0  0  0  0  0  0  0  0  0  0  0  0
  -17.7950  -32.2500    5.1860 C   0  0  0  0  0  0  0  0  0  0  0  0
  -17.6450  -31.9280    3.8340 C   0  0  0  0  0  0  0  0  0  0  0  0
  -16.5460  -32.4100    3.1070 C   0  0  0  0  0  0  0  0  0  0  0  0
  -16.3750  -32.0440    1.6480 C   0  0  0  0  0  0  0  0  0  0  0  0
  -16.9500  -33.0820    0.7020 C   0  0  0  0  0  0  0  0  0  0  0  0
  -16.5830  -33.1220   -0.5960 C   0  0  0  0  0  0  0  0  0  0  0  0
  -17.1630  -34.1460   -1.5090 C   0  0  0  0  0  0  0  0  0  0  0  0
  -16.8720  -34.2360   -2.6940 O   0  0  0  0  0  0  0  0  0  0  0  0
  -18.0800  -35.0120   -0.8900 N   0  0  0  0  0  0  0  0  0  0  0  0
  -18.7200  -36.0240   -1.5330 N   0  0  0  0  0  0  0  0  0  0  0  0
  -19.4690  -36.5820   -0.5760 C   0  0  0  0  0  0  0  0  0  0  0  0
  -19.3400  -35.9570    0.6900 C   0  0  0  0  0  0  0  0  0  0  0  0
  -19.9580  -36.2320    1.9820 C   0  0  0  0  0  0  0  0  0  0  0  0
  -21.0880  -36.7070    2.0360 O   0  0  0  0  0  0  0  0  0  0  0  0
  -19.1690  -35.9120    3.0750 N   0  0  0  0  0  0  0  0  0  0  0  0
  -19.4890  -36.0630    4.4420 C   0  0  0  0  0  0  0  0  0  0  0  0
  -20.5700  -35.4360    5.0720 C   0  0  0  0  0  0  0  0  0  0  0  0
  -20.8130  -35.6430    6.4340 C   0  0  0  0  0  0  0  0  0  0  0  0
  -19.9780  -36.4770    7.1650 C   0  0  0  0  0  0  0  0  0  0  0  0
  -20.2140  -36.6750    8.4680 F   0  0  0  0  0  0  0  0  0  0  0  0
  -18.9010  -37.1100    6.5610 C   0  0  0  0  0  0  0  0  0  0  0  0
  -18.6580  -36.9030    5.2000 C   0  0  0  0  0  0  0  0  0  0  0  0
  -18.4380  -34.9450    0.4420 C   0  0  0  0  0  0  0  0  0  0  0  0
  -17.8810  -33.9790    1.2090 N   0  0  0  0  0  0  0  0  0  0  0  0
  -15.6000  -33.2150    3.7560 C   0  0  0  0  0  0  0  0  0  0  0  0
  -15.7500  -33.5350    5.1080 C   0  0  0  0  0  0  0  0  0  0  0  0
  -18.6610  -31.8699    5.7477 H   0  0  0  0  0  0  0  0  0  0  0  0
  -18.3931  -31.2929    3.3370 H   0  0  0  0  0  0  0  0  0  0  0  0
  -16.8825  -31.0852    1.4659 H   0  0  0  0  0  0  0  0  0  0  0  0
  -15.2947  -31.9827    1.4499 H   0  0  0  0  0  0  0  0  0  0  0  0
  -15.8525  -32.3954   -0.9813 H   0  0  0  0  0  0  0  0  0  0  0  0
  -20.1251  -37.4467   -0.7547 H   0  0  0  0  0  0  0  0  0  0  0  0
  -18.2580  -35.5180    2.8920 H   0  0  0  0  0  0  0  0  0  0  0  0
  -21.2327  -34.7763    4.4926 H   0  0  0  0  0  0  0  0  0  0  0  0
  -21.6633  -35.1464    6.9243 H   0  0  0  0  0  0  0  0  0  0  0  0
  -18.2442  -37.7689    7.1480 H   0  0  0  0  0  0  0  0  0  0  0  0
  -17.8059  -37.4041    4.7175 H   0  0  0  0  0  0  0  0  0  0  0  0
  -18.0860  -33.9340    2.2110 H   0  0  0  0  0  0  0  0  0  0  0  0
  -14.7332  -33.5977    3.1972 H   0  0  0  0  0  0  0  0  0  0  0  0
  -15.0019  -34.1676    5.6081 H   0  0  0  0  0  0  0  0  0  0  0  0
  1  2  3  0
  2  3  1  0
  3  4  2  0
  4  5  1  0
  5  6  2  0
  6  7  1  0
  7  8  1  0
  8  9  2  0
  9 10  1  0
 10 11  2  0
 10 12  1  0
 12 13  1  0
 13 14  2  0
 14 15  1  0
 15 16  1  0
 16 17  2  0
 16 18  1  0
 18 19  1  0
 19 20  2  0
 20 21  1  0
 21 22  2  0
 22 23  1  0
 22 24  1  0
 24 25  2  0
 15 26  2  0
 26 27  1  0
  6 28  1  0
 28 29  2  0
 29  3  1  0
 27  8  1  0
 26 12  1  0
 25 19  1  0
  4 30  1  0
  5 31  1  0
  7 32  1  0
  7 33  1  0
  9 34  1  0
 14 35  1  0
 18 36  1  0
 20 37  1  0
 21 38  1  0
 24 39  1  0
 25 40  1  0
 27 41  1  0
 28 42  1  0
 29 43  1  0
M  END
>  <meeko>  (5) 
{"is_sidechain": [false], "free_energy": -9.882, "intermolecular_energy": -12.106, "internal_energy": -0.978}

$$$$
4k18_ligand
     RDKit          3D

 43 46  0  0  0  0  0  0  0  0999 V2000
  -17.1450  -29.8490    2.0770 N   0  0  0  0  0  0  0  0  0  0  0  0
  -17.1870  -30.7920    2.7530 C   0  0  0  0  0  0  0  0  0  0  0  0
  -17.2370  -31.9550    3.5890 C   0  0  0  0  0  0  0  0  0  0  0  0
  -18.3760  -32.2170    4.3580 C   0  0  0  0  0  0  0  0  0  0  0  0
  -18.4270  -33.3520    5.1720 C   0  0  0  0  0  0  0  0  0  0  0  0
  -17.3390  -34.2360    5.2290 C   0  0  0  0  0  0  0  0  0  0  0  0
  -17.4040  -35.4750    6.0960 C   0  0  0  0  0  0  0  0  0  0  0  0
  -18.4730  -36.4560    5.6540 C   0  0  0  0  0  0  0  0  0  0  0  0
  -18.9700  -37.3770    6.5050 C   0  0  0  0  0  0  0  0  0  0  0  0
  -20.0160  -38.3350    6.0490 C   0  0  0  0  0  0  0  0  0  0  0  0
  -20.5080  -39.1920    6.7720 O   0  0  0  0  0  0  0  0  0  0  0  0
  -20.3990  -38.1690    4.7080 N   0  0  0  0  0  0  0  0  0  0  0  0
  -21.3420  -38.9270    4.0890 N   0  0  0  0  0  0  0  0  0  0  0  0
  -21.3910  -38.4230    2.8510 C   0  0  0  0  0  0  0  0  0  0  0  0
  -20.4940  -37.3460    2.6370 C   0  0  0  0  0  0  0  0  0  0  0  0
  -20.2230  -36.5200    1.4650 C   0  0  0  0  0  0  0  0  0  0  0  0
  -21.1270  -36.2470    0.6810 O   0  0  0  0  0  0  0  0  0  0  0  0
  -18.9060  -36.1070    1.3470 N   0  0  0  0  0  0  0  0  0  0  0  0
  -18.3430  -35.3050    0.3300 C   0  0  0  0  0  0  0  0  0  0  0  0
  -18.1590  -35.7240   -0.9920 C   0  0  0  0  0  0  0  0  0  0  0  0
  -17.5930  -34.8610   -1.9360 C   0  0  0  0  0  0  0  0  0  0  0  0
  -17.2110  -33.5810   -1.5590 C   0  0  0  0  0  0  0  0  0  0  0  0
  -16.6700  -32.7560   -2.4650 F   0  0  0  0  0  0  0  0  0  0  0  0
  -17.3850  -33.1440   -0.2540 C   0  0  0  0  0  0  0  0  0  0  0  0
  -17.9510  -34.0050    0.6900 C   0  0  0  0  0  0  0  0  0  0  0  0
  -19.8700  -37.2180    3.8590 C   0  0  0  0  0  0  0  0  0  0  0  0
  -18.9120  -36.3900    4.3380 N   0  0  0  0  0  0  0  0  0  0  0  0
  -16.2010  -33.9660    4.4550 C   0  0  0  0  0  0  0  0  0  0  0  0
  -16.1510  -32.8320    3.6390 C   0  0  0  0  0  0  0  0  0  0  0  0
  -19.2330  -31.5284    4.3219 H   0  0  0  0  0  0  0  0  0  0  0  0
  -19.3265  -33.5536    5.7722 H   0  0  0  0  0  0  0  0  0  0  0  0
  -16.4278  -35.9805    6.0577 H   0  0  0  0  0  0  0  0  0  0  0  0
  -17.6597  -35.1489    7.1149 H   0  0  0  0  0  0  0  0  0  0  0  0
  -18.6013  -37.4210    7.5404 H   0  0  0  0  0  0  0  0  0  0  0  0
  -22.0646  -38.8083    2.0714 H   0  0  0  0  0  0  0  0  0  0  0  0
  -18.2580  -36.4090    2.0590 H   0  0  0  0  0  0  0  0  0  0  0  0
  -18.4613  -36.7385   -1.2909 H   0  0  0  0  0  0  0  0  0  0  0  0
  -17.4510  -35.1957   -2.9742 H   0  0  0  0  0  0  0  0  0  0  0  0
  -17.0798  -32.1276    0.0355 H   0  0  0  0  0  0  0  0  0  0  0  0
  -18.0910  -33.6613    1.7255 H   0  0  0  0  0  0  0  0  0  0  0  0
  -18.5360  -35.6410    3.7490 H   0  0  0  0  0  0  0  0  0  0  0  0
  -15.3415  -34.6516    4.4903 H   0  0  0  0  0  0  0  0  0  0  0  0
  -15.2543  -32.6299    3.0348 H   0  0  0  0  0  0  0  0  0  0  0  0
  1  2  3  0
  2  3  1  0
  3  4  2  0
  4  5  1  0
  5  6  2  0
  6  7  1  0
  7  8  1  0
  8  9  2  0
  9 10  1  0
 10 11  2  0
 10 12  1  0
 12 13  1  0
 13 14  2  0
 14 15  1  0
 15 16  1  0
 16 17  2  0
 16 18  1  0
 18 19  1  0
 19 20  2  0
 20 21  1  0
 21 22  2  0
 22 23  1  0
 22 24  1  0
 24 25  2  0
 15 26  2  0
 26 27  1  0
  6 28  1  0
 28 29  2  0
 29  3  1  0
 27  8  1  0
 26 12  1  0
 25 19  1  0
  4 30  1  0
  5 31  1  0
  7 32  1  0
  7 33  1  0
  9 34  1  0
 14 35  1  0
 18 36  1  0
 20 37  1  0
 21 38  1  0
 24 39  1  0
 25 40  1  0
 27 41  1  0
 28 42  1  0
 29 43  1  0
M  END
>  <meeko>  (6) 
{"is_sidechain": [false], "free_energy": -9.818, "intermolecular_energy": -11.906, "internal_energy": -1.099}

$$$$
4k18_ligand
     RDKit          3D

 43 46  0  0  0  0  0  0  0  0999 V2000
  -20.6250  -37.2060   -1.5310 N   0  0  0  0  0  0  0  0  0  0  0  0
  -19.9790  -36.4910   -0.8840 C   0  0  0  0  0  0  0  0  0  0  0  0
  -19.1820  -35.6070   -0.0850 C   0  0  0  0  0  0  0  0  0  0  0  0
  -19.5600  -35.3170    1.2300 C   0  0  0  0  0  0  0  0  0  0  0  0
  -18.7830  -34.4560    2.0100 C   0  0  0  0  0  0  0  0  0  0  0  0
  -17.6210  -33.8730    1.4820 C   0  0  0  0  0  0  0  0  0  0  0  0
  -16.7700  -32.9560    2.3350 C   0  0  0  0  0  0  0  0  0  0  0  0
  -16.4180  -33.5550    3.6840 C   0  0  0  0  0  0  0  0  0  0  0  0
  -15.1900  -33.3940    4.2190 C   0  0  0  0  0  0  0  0  0  0  0  0
  -14.8620  -33.9950    5.5430 C   0  0  0  0  0  0  0  0  0  0  0  0
  -13.7690  -33.8840    6.0820 O   0  0  0  0  0  0  0  0  0  0  0  0
  -15.9250  -34.7010    6.1290 N   0  0  0  0  0  0  0  0  0  0  0  0
  -15.8490  -35.3200    7.3380 N   0  0  0  0  0  0  0  0  0  0  0  0
  -17.0690  -35.8430    7.5020 C   0  0  0  0  0  0  0  0  0  0  0  0
  -17.9520  -35.5870    6.4230 C   0  0  0  0  0  0  0  0  0  0  0  0
  -19.3420  -35.9600    6.1890 C   0  0  0  0  0  0  0  0  0  0  0  0
  -20.2450  -35.3650    6.7690 O   0  0  0  0  0  0  0  0  0  0  0  0
  -19.5140  -37.0010    5.2910 N   0  0  0  0  0  0  0  0  0  0  0  0
  -20.7310  -37.5790    4.8660 C   0  0  0  0  0  0  0  0  0  0  0  0
  -21.8010  -37.8770    5.7150 C   0  0  0  0  0  0  0  0  0  0  0  0
  -22.9710  -38.4500    5.2070 C   0  0  0  0  0  0  0  0  0  0  0  0
  -23.0710  -38.7230    3.8500 C   0  0  0  0  0  0  0  0  0  0  0  0
  -24.1930  -39.2710    3.3650 F   0  0  0  0  0  0  0  0  0  0  0  0
  -22.0230  -38.4350    2.9880 C   0  0  0  0  0  0  0  0  0  0  0  0
  -20.8530  -37.8630    3.4960 C   0  0  0  0  0  0  0  0  0  0  0  0
  -17.1720  -34.8510    5.5560 C   0  0  0  0  0  0  0  0  0  0  0  0
  -17.3930  -34.2900    4.3440 N   0  0  0  0  0  0  0  0  0  0  0  0
  -17.2490  -34.1680    0.1630 C   0  0  0  0  0  0  0  0  0  0  0  0
  -18.0260  -35.0310   -0.6160 C   0  0  0  0  0  0  0  0  0  0  0  0
  -20.4708  -35.7675    1.6513 H   0  0  0  0  0  0  0  0  0  0  0  0
  -19.0843  -34.2340    3.0444 H   0  0  0  0  0  0  0  0  0  0  0  0
  -15.8371  -32.7400    1.7936 H   0  0  0  0  0  0  0  0  0  0  0  0
  -17.3569  -32.0450    2.5236 H   0  0  0  0  0  0  0  0  0  0  0  0
  -14.4274  -32.8166    3.6757 H   0  0  0  0  0  0  0  0  0  0  0  0
  -17.3605  -36.4190    8.3926 H   0  0  0  0  0  0  0  0  0  0  0  0
  -18.6840  -37.4090    4.8890 H   0  0  0  0  0  0  0  0  0  0  0  0
  -21.7219  -37.6592    6.7903 H   0  0  0  0  0  0  0  0  0  0  0  0
  -23.8089  -38.6835    5.8804 H   0  0  0  0  0  0  0  0  0  0  0  0
  -22.1119  -38.6549    1.9139 H   0  0  0  0  0  0  0  0  0  0  0  0
  -20.0196  -37.6330    2.8159 H   0  0  0  0  0  0  0  0  0  0  0  0
  -18.3220  -34.3400    3.9150 H   0  0  0  0  0  0  0  0  0  0  0  0
  -16.3399  -33.7176   -0.2620 H   0  0  0  0  0  0  0  0  0  0  0  0
  -17.7258  -35.2568   -1.6499 H   0  0  0  0  0  0  0  0  0  0  0  0
  1  2  3  0
  2  3  1  0
  3  4  2  0
  4  5  1  0
  5  6  2  0
  6  7  1  0
  7  8  1  0
  8  9  2  0
  9 10  1  0
 10 11  2  0
 10 12  1  0
 12 13  1  0
 13 14  2  0
 14 15  1  0
 15 16  1  0
 16 17  2  0
 16 18  1  0
 18 19  1  0
 19 20  2  0
 20 21  1  0
 21 22  2  0
 22 23  1  0
 22 24  1  0
 24 25  2  0
 15 26  2  0
 26 27  1  0
  6 28  1  0
 28 29  2  0
 29  3  1  0
 27  8  1  0
 26 12  1  0
 25 19  1  0
  4 30  1  0
  5 31  1  0
  7 32  1  0
  7 33  1  0
  9 34  1  0
 14 35  1  0
 18 36  1  0
 20 37  1  0
 21 38  1  0
 24 39  1  0
 25 40  1  0
 27 41  1  0
 28 42  1  0
 29 43  1  0
M  END
>  <meeko>  (7) 
{"is_sidechain": [false], "free_energy": -9.783, "intermolecular_energy": -12.618, "internal_energy": -0.343}

$$$$
4k18_ligand
     RDKit          3D

 43 46  0  0  0  0  0  0  0  0999 V2000
  -15.8480  -31.3010    1.6580 N   0  0  0  0  0  0  0  0  0  0  0  0
  -16.5130  -32.1790    1.2920 C   0  0  0  0  0  0  0  0  0  0  0  0
  -17.3320  -33.2640    0.8400 C   0  0  0  0  0  0  0  0  0  0  0  0
  -18.4110  -33.6990    1.6160 C   0  0  0  0  0  0  0  0  0  0  0  0
  -19.2120  -34.7570    1.1770 C   0  0  0  0  0  0  0  0  0  0  0  0
  -18.9410  -35.3930   -0.0440 C   0  0  0  0  0  0  0  0  0  0  0  0
  -19.8210  -36.5260   -0.5290 C   0  0  0  0  0  0  0  0  0  0  0  0
  -20.5280  -37.2550    0.5990 C   0  0  0  0  0  0  0  0  0  0  0  0
  -21.3710  -38.2780    0.3470 C   0  0  0  0  0  0  0  0  0  0  0  0
  -22.0590  -38.9780    1.4680 C   0  0  0  0  0  0  0  0  0  0  0  0
  -22.8330  -39.9120    1.3070 O   0  0  0  0  0  0  0  0  0  0  0  0
  -21.7390  -38.4740    2.7400 N   0  0  0  0  0  0  0  0  0  0  0  0
  -22.2450  -38.9690    3.9000 N   0  0  0  0  0  0  0  0  0  0  0  0
  -21.6710  -38.2130    4.8430 C   0  0  0  0  0  0  0  0  0  0  0  0
  -20.7970  -37.2220    4.3280 C   0  0  0  0  0  0  0  0  0  0  0  0
  -19.9810  -36.2050    4.9810 C   0  0  0  0  0  0  0  0  0  0  0  0
  -20.5140  -35.2290    5.5010 O   0  0  0  0  0  0  0  0  0  0  0  0
  -18.6190  -36.4520    4.9470 N   0  0  0  0  0  0  0  0  0  0  0  0
  -17.5850  -35.6580    5.4910 C   0  0  0  0  0  0  0  0  0  0  0  0
  -17.0900  -34.4940    4.8930 C   0  0  0  0  0  0  0  0  0  0  0  0
  -16.0620  -33.7670    5.5030 C   0  0  0  0  0  0  0  0  0  0  0  0
  -15.5310  -34.2020    6.7090 C   0  0  0  0  0  0  0  0  0  0  0  0
  -14.5480  -33.5040    7.2910 F   0  0  0  0  0  0  0  0  0  0  0  0
  -16.0080  -35.3540    7.3200 C   0  0  0  0  0  0  0  0  0  0  0  0
  -17.0340  -36.0800    6.7110 C   0  0  0  0  0  0  0  0  0  0  0  0
  -20.8740  -37.4220    2.9660 C   0  0  0  0  0  0  0  0  0  0  0  0
  -20.2960  -36.8250    1.8980 N   0  0  0  0  0  0  0  0  0  0  0  0
  -17.8580  -34.9520   -0.8170 C   0  0  0  0  0  0  0  0  0  0  0  0
  -17.0580  -33.8930   -0.3770 C   0  0  0  0  0  0  0  0  0  0  0  0
  -18.6301  -33.2069    2.5751 H   0  0  0  0  0  0  0  0  0  0  0  0
  -20.0597  -35.0930    1.7923 H   0  0  0  0  0  0  0  0  0  0  0  0
  -20.5804  -36.1130   -1.2092 H   0  0  0  0  0  0  0  0  0  0  0  0
  -19.1694  -37.2549   -1.0332 H   0  0  0  0  0  0  0  0  0  0  0  0
  -21.5511  -38.5965   -0.6904 H   0  0  0  0  0  0  0  0  0  0  0  0
  -21.8596  -38.3477    5.9183 H   0  0  0  0  0  0  0  0  0  0  0  0
  -18.3100  -37.2910    4.4800 H   0  0  0  0  0  0  0  0  0  0  0  0
  -17.5116  -34.1484    3.9376 H   0  0  0  0  0  0  0  0  0  0  0  0
  -15.6758  -32.8531    5.0279 H   0  0  0  0  0  0  0  0  0  0  0  0
  -15.5813  -35.6921    8.2759 H   0  0  0  0  0  0  0  0  0  0  0  0
  -17.4145  -36.9927    7.1928 H   0  0  0  0  0  0  0  0  0  0  0  0
  -19.6100  -36.0760    2.0350 H   0  0  0  0  0  0  0  0  0  0  0  0
  -17.6360  -35.4424   -1.7763 H   0  0  0  0  0  0  0  0  0  0  0  0
  -16.2104  -33.5542   -0.9909 H   0  0  0  0  0  0  0  0  0  0  0  0
  1  2  3  0
  2  3  1  0
  3  4  2  0
  4  5  1  0
  5  6  2  0
  6  7  1  0
  7  8  1  0
  8  9  2  0
  9 10  1  0
 10 11  2  0
 10 12  1  0
 12 13  1  0
 13 14  2  0
 14 15  1  0
 15 16  1  0
 16 17  2  0
 16 18  1  0
 18 19  1  0
 19 20  2  0
 20 21  1  0
 21 22  2  0
 22 23  1  0
 22 24  1  0
 24 25  2  0
 15 26  2  0
 26 27  1  0
  6 28  1  0
 28 29  2  0
 29  3  1  0
 27  8  1  0
 26 12  1  0
 25 19  1  0
  4 30  1  0
  5 31  1  0
  7 32  1  0
  7 33  1  0
  9 34  1  0
 14 35  1  0
 18 36  1  0
 20 37  1  0
 21 38  1  0
 24 39  1  0
 25 40  1  0
 27 41  1  0
 28 42  1  0
 29 43  1  0
M  END
>  <meeko>  (8) 
{"is_sidechain": [false], "free_energy": -9.587, "intermolecular_energy": -12.615, "internal_energy": -0.105}

$$$$
4k18_ligand
     RDKit          3D

 43 46  0  0  0  0  0  0  0  0999 V2000
  -15.8350  -35.1460    7.3610 N   0  0  0  0  0  0  0  0  0  0  0  0
  -16.8630  -35.5080    6.9620 C   0  0  0  0  0  0  0  0  0  0  0  0
  -18.1320  -35.9570    6.4710 C   0  0  0  0  0  0  0  0  0  0  0  0
  -19.2410  -35.1060    6.5130 C   0  0  0  0  0  0  0  0  0  0  0  0
  -20.4790  -35.5420    6.0330 C   0  0  0  0  0  0  0  0  0  0  0  0
  -20.6230  -36.8350    5.5080 C   0  0  0  0  0  0  0  0  0  0  0  0
  -21.9600  -37.2980    4.9700 C   0  0  0  0  0  0  0  0  0  0  0  0
  -21.8830  -37.8110    3.5450 C   0  0  0  0  0  0  0  0  0  0  0  0
  -22.4230  -38.9990    3.2000 C   0  0  0  0  0  0  0  0  0  0  0  0
  -22.3320  -39.4870    1.7950 C   0  0  0  0  0  0  0  0  0  0  0  0
  -22.8030  -40.5520    1.4190 O   0  0  0  0  0  0  0  0  0  0  0  0
  -21.6590  -38.6110    0.9280 N   0  0  0  0  0  0  0  0  0  0  0  0
  -21.4690  -38.8530   -0.3960 N   0  0  0  0  0  0  0  0  0  0  0  0
  -20.8080  -37.7720   -0.8230 C   0  0  0  0  0  0  0  0  0  0  0  0
  -20.5520  -36.8180    0.1940 C   0  0  0  0  0  0  0  0  0  0  0  0
  -19.8760  -35.5260    0.1740 C   0  0  0  0  0  0  0  0  0  0  0  0
  -20.2530  -34.6460   -0.5950 O   0  0  0  0  0  0  0  0  0  0  0  0
  -18.8240  -35.4140    1.0680 N   0  0  0  0  0  0  0  0  0  0  0  0
  -17.9880  -34.2950    1.2780 C   0  0  0  0  0  0  0  0  0  0  0  0
  -17.1990  -33.7040    0.2860 C   0  0  0  0  0  0  0  0  0  0  0  0
  -16.3990  -32.5960    0.5840 C   0  0  0  0  0  0  0  0  0  0  0  0
  -16.3890  -32.0780    1.8720 C   0  0  0  0  0  0  0  0  0  0  0  0
  -15.6230  -31.0160    2.1540 F   0  0  0  0  0  0  0  0  0  0  0  0
  -17.1650  -32.6480    2.8710 C   0  0  0  0  0  0  0  0  0  0  0  0
  -17.9640  -33.7550    2.5740 C   0  0  0  0  0  0  0  0  0  0  0  0
  -21.1130  -37.4020    1.3100 C   0  0  0  0  0  0  0  0  0  0  0  0
  -21.2220  -37.0290    2.6070 N   0  0  0  0  0  0  0  0  0  0  0  0
  -19.5070  -37.6820    5.4690 C   0  0  0  0  0  0  0  0  0  0  0  0
  -18.2680  -37.2450    5.9480 C   0  0  0  0  0  0  0  0  0  0  0  0
  -19.1386  -34.0911    6.9248 H   0  0  0  0  0  0  0  0  0  0  0  0
  -21.3466  -34.8666    6.0671 H   0  0  0  0  0  0  0  0  0  0  0  0
  -22.3349  -38.1074    5.6136 H   0  0  0  0  0  0  0  0  0  0  0  0
  -22.6322  -36.4273    4.9691 H   0  0  0  0  0  0  0  0  0  0  0  0
  -22.9327  -39.6098    3.9597 H   0  0  0  0  0  0  0  0  0  0  0  0
  -20.4918  -37.6354   -1.8677 H   0  0  0  0  0  0  0  0  0  0  0  0
  -18.6120  -36.2170    1.6400 H   0  0  0  0  0  0  0  0  0  0  0  0
  -17.2076  -34.1131   -0.7351 H   0  0  0  0  0  0  0  0  0  0  0  0
  -15.7794  -32.1363   -0.2001 H   0  0  0  0  0  0  0  0  0  0  0  0
  -17.1513  -32.2315    3.8890 H   0  0  0  0  0  0  0  0  0  0  0  0
  -18.5809  -34.2084    3.3639 H   0  0  0  0  0  0  0  0  0  0  0  0
  -20.8720  -36.1160    2.9120 H   0  0  0  0  0  0  0  0  0  0  0  0
  -19.6064  -38.6977    5.0587 H   0  0  0  0  0  0  0  0  0  0  0  0
  -17.3981  -37.9174    5.9128 H   0  0  0  0  0  0  0  0  0  0  0  0
  1  2  3  0
  2  3  1  0
  3  4  2  0
  4  5  1  0
  5  6  2  0
  6  7  1  0
  7  8  1  0
  8  9  2  0
  9 10  1  0
 10 11  2  0
 10 12  1  0
 12 13  1  0
 13 14  2  0
 14 15  1  0
 15 16  1  0
 16 17  2  0
 16 18  1  0
 18 19  1  0
 19 20  2  0
 20 21  1  0
 21 22  2  0
 22 23  1  0
 22 24  1  0
 24 25  2  0
 15 26  2  0
 26 27  1  0
  6 28  1  0
 28 29  2  0
 29  3  1  0
 27  8  1  0
 26 12  1  0
 25 19  1  0
  4 30  1  0
  5 31  1  0
  7 32  1  0
  7 33  1  0
  9 34  1  0
 14 35  1  0
 18 36  1  0
 20 37  1  0
 21 38  1  0
 24 39  1  0
 25 40  1  0
 27 41  1  0
 28 42  1  0
 29 43  1  0
M  END
>  <meeko>  (9) 
{"is_sidechain": [false], "free_energy": -9.528, "intermolecular_energy": -11.596, "internal_energy": -1.051}

$$$$
