1p1n_ligand
     RDKit          3D

 29 29  0  0  0  0  0  0  0  0999 V2000
   18.7680    3.3170   15.3300 C   0  0  0  0  0  0  0  0  0  0  0  0
   17.5150    3.7660   15.1430 C   0  0  0  0  0  0  0  0  0  0  0  0
   17.2470    4.8500   14.1280 C   0  0  0  0  0  0  0  0  0  0  0  0
   16.2880    3.2780   15.8960 C   0  0  1  0  0  0  0  0  0  0  0  0
   14.9840    4.0950   15.8190 C   0  0  0  0  0  0  0  0  0  0  0  0
   13.8850    3.1070   15.9360 N   0  0  0  0  0  0  0  0  0  0  0  0
   14.5030    1.7580   16.2920 C   0  0  2  0  0  0  0  0  0  0  0  0
   14.5460    1.5570   17.8450 C   0  0  0  0  0  0  0  0  0  0  0  0
   15.0220    0.4180   18.1600 O   0  0  0  0  0  0  0  0  0  0  0  0
   14.0910    2.4830   18.5600 O   0  0  0  0  0  0  0  0  0  0  0  0
   15.8550    1.8270   15.5820 C   0  0  1  0  0  0  0  0  0  0  0  0
   15.7780    1.4630   14.0790 C   0  0  0  0  0  0  0  0  0  0  0  0
   16.2810    0.1010   13.5870 C   0  0  0  0  0  0  0  0  0  0  0  0
   16.7450    0.0720   12.4200 O   0  0  0  0  0  0  0  0  0  0  0  0
   16.1330   -0.8560   14.4080 O   0  0  0  0  0  0  0  0  0  0  0  0
   18.9645    2.5268   16.0696 H   0  0  0  0  0  0  0  0  0  0  0  0
   19.5970    3.7397   14.7434 H   0  0  0  0  0  0  0  0  0  0  0  0
   17.0145    5.7906   14.6488 H   0  0  0  0  0  0  0  0  0  0  0  0
   18.1375    4.9904   13.4977 H   0  0  0  0  0  0  0  0  0  0  0  0
   16.3937    4.5592   13.4977 H   0  0  0  0  0  0  0  0  0  0  0  0
   16.7171    3.3949   16.9021 H   0  0  0  0  0  0  0  0  0  0  0  0
   14.9368    4.8209   16.6441 H   0  0  0  0  0  0  0  0  0  0  0  0
   14.9178    4.6673   14.8819 H   0  0  0  0  0  0  0  0  0  0  0  0
   13.2090    3.3020   16.6900 H   0  0  0  0  0  0  0  0  0  0  0  0
   13.4300    2.9710   14.9970 H   0  0  0  0  0  0  0  0  0  0  0  0
   13.9411    0.8701   15.9665 H   0  0  0  0  0  0  0  0  0  0  0  0
   16.5922    1.0855   15.9237 H   0  0  0  0  0  0  0  0  0  0  0  0
   14.7187    1.5318   13.7908 H   0  0  0  0  0  0  0  0  0  0  0  0
   16.4796    2.1713   13.6141 H   0  0  0  0  0  0  0  0  0  0  0  0
  1  2  2  0
  2  3  1  0
  2  4  1  0
  4  5  1  0
  5  6  1  0
  6  7  1  0
  7  8  1  0
  8  9  2  0
  8 10  1  0
  7 11  1  0
 11 12  1  0
 12 13  1  0
 13 14  2  0
 13 15  1  0
 11  4  1  0
  1 16  1  0
  1 17  1  0
  3 18  1  0
  3 19  1  0
  3 20  1  0
  4 21  1  1
  5 22  1  0
  5 23  1  0
  6 24  1  0
  6 25  1  0
  7 26  1  6
 11 27  1  1
 12 28  1  0
 12 29  1  0
M  CHG  3   6   1  10  -1  15  -1
M  END
>  <meeko>  (1) 
{"is_sidechain": [false], "free_energy": -8.212, "intermolecular_energy": -10.133, "internal_energy": -0.362}

$$$$
1p1n_ligand
     RDKit          3D

 29 29  0  0  0  0  0  0  0  0999 V2000
   16.3540    0.7580   11.3890 C   0  0  0  0  0  0  0  0  0  0  0  0
   15.8310    1.8050   12.0500 C   0  0  0  0  0  0  0  0  0  0  0  0
   15.4710    3.0650   11.3040 C   0  0  0  0  0  0  0  0  0  0  0  0
   15.5670    1.8520   13.5470 C   0  0  1  0  0  0  0  0  0  0  0  0
   15.7010    0.5590   14.3740 C   0  0  0  0  0  0  0  0  0  0  0  0
   16.1430    0.9910   15.7220 N   0  0  0  0  0  0  0  0  0  0  0  0
   16.0690    2.5150   15.7740 C   0  0  2  0  0  0  0  0  0  0  0  0
   14.6810    2.9870   16.3260 C   0  0  0  0  0  0  0  0  0  0  0  0
   14.3240    4.0990   15.8170 O   0  0  0  0  0  0  0  0  0  0  0  0
   14.1290    2.2660   17.1930 O   0  0  0  0  0  0  0  0  0  0  0  0
   16.3890    2.9010   14.3300 C   0  0  1  0  0  0  0  0  0  0  0  0
   17.9070    2.9250   14.0240 C   0  0  0  0  0  0  0  0  0  0  0  0
   18.5170    4.0890   13.2330 C   0  0  0  0  0  0  0  0  0  0  0  0
   18.5390    5.2010   13.8160 O   0  0  0  0  0  0  0  0  0  0  0  0
   18.8940    3.8000   12.0550 O   0  0  0  0  0  0  0  0  0  0  0  0
   16.6164   -0.1609   11.9337 H   0  0  0  0  0  0  0  0  0  0  0  0
   16.5196    0.8201   10.3033 H   0  0  0  0  0  0  0  0  0  0  0  0
   15.2425    3.8647   12.0239 H   0  0  0  0  0  0  0  0  0  0  0  0
   16.3175    3.3715   10.6720 H   0  0  0  0  0  0  0  0  0  0  0  0
   14.5903    2.8780   10.6720 H   0  0  0  0  0  0  0  0  0  0  0  0
   14.5006    2.1097   13.4676 H   0  0  0  0  0  0  0  0  0  0  0  0
   14.7328    0.0405   14.4353 H   0  0  0  0  0  0  0  0  0  0  0  0
   16.4141   -0.1435   13.9179 H   0  0  0  0  0  0  0  0  0  0  0  0
   15.5460    0.6660   16.4970 H   0  0  0  0  0  0  0  0  0  0  0  0
   17.1590    0.7530   15.8540 H   0  0  0  0  0  0  0  0  0  0  0  0
   16.7655    3.0077   16.4684 H   0  0  0  0  0  0  0  0  0  0  0  0
   16.1197    3.9325   14.0590 H   0  0  0  0  0  0  0  0  0  0  0  0
   18.4258    2.8950   14.9935 H   0  0  0  0  0  0  0  0  0  0  0  0
   18.0399    2.0667   13.3489 H   0  0  0  0  0  0  0  0  0  0  0  0
  1  2  2  0
  2  3  1  0
  2  4  1  0
  4  5  1  0
  5  6  1  0
  6  7  1  0
  7  8  1  0
  8  9  2  0
  8 10  1  0
  7 11  1  0
 11 12  1  0
 12 13  1  0
 13 14  2  0
 13 15  1  0
 11  4  1  0
  1 16  1  0
  1 17  1  0
  3 18  1  0
  3 19  1  0
  3 20  1  0
  4 21  1  6
  5 22  1  0
  5 23  1  0
  6 24  1  0
  6 25  1  0
  7 26  1  1
 11 27  1  6
 12 28  1  0
 12 29  1  0
M  CHG  3   6   1  10  -1  15  -1
M  END
>  <meeko>  (2) 
{"is_sidechain": [false], "free_energy": -7.107, "intermolecular_energy": -8.61, "internal_energy": -0.52}

$$$$
1p1n_ligand
     RDKit          3D

 29 29  0  0  0  0  0  0  0  0999 V2000
   15.9360    1.6470   18.0050 C   0  0  0  0  0  0  0  0  0  0  0  0
   15.7580    2.4230   16.9230 C   0  0  0  0  0  0  0  0  0  0  0  0
   14.3630    2.7490   16.4500 C   0  0  0  0  0  0  0  0  0  0  0  0
   16.8740    3.0210   16.0810 C   0  0  1  0  0  0  0  0  0  0  0  0
   18.3200    2.9820   16.6110 C   0  0  0  0  0  0  0  0  0  0  0  0
   19.1850    2.8890   15.4100 N   0  0  0  0  0  0  0  0  0  0  0  0
   18.3020    3.0850   14.1800 C   0  0  2  0  0  0  0  0  0  0  0  0
   18.2630    4.5930   13.7580 C   0  0  0  0  0  0  0  0  0  0  0  0
   17.0720    4.9970   13.5570 O   0  0  0  0  0  0  0  0  0  0  0  0
   19.3620    5.1870   13.6350 O   0  0  0  0  0  0  0  0  0  0  0  0
   16.9760    2.4770   14.6370 C   0  0  1  0  0  0  0  0  0  0  0  0
   16.9280    0.9350   14.4990 C   0  0  0  0  0  0  0  0  0  0  0  0
   15.7290    0.2570   13.8270 C   0  0  0  0  0  0  0  0  0  0  0  0
   15.0870   -0.5580   14.5360 O   0  0  0  0  0  0  0  0  0  0  0  0
   15.5450    0.5680   12.6100 O   0  0  0  0  0  0  0  0  0  0  0  0
   16.9531    1.4092   18.3500 H   0  0  0  0  0  0  0  0  0  0  0  0
   15.0647    1.2494   18.5460 H   0  0  0  0  0  0  0  0  0  0  0  0
   13.7073    2.9022   17.3198 H   0  0  0  0  0  0  0  0  0  0  0  0
   14.3866    3.6658   15.8426 H   0  0  0  0  0  0  0  0  0  0  0  0
   13.9779    1.9167   15.8426 H   0  0  0  0  0  0  0  0  0  0  0  0
   16.5098    4.0578   16.1294 H   0  0  0  0  0  0  0  0  0  0  0  0
   18.5461    3.8980   17.1765 H   0  0  0  0  0  0  0  0  0  0  0  0
   18.4797    2.1340   17.2931 H   0  0  0  0  0  0  0  0  0  0  0  0
   19.9080    3.6190   15.3430 H   0  0  0  0  0  0  0  0  0  0  0  0
   19.5710    1.9140   15.3280 H   0  0  0  0  0  0  0  0  0  0  0  0
   18.6497    2.6015   13.2551 H   0  0  0  0  0  0  0  0  0  0  0  0
   16.1074    2.7544   14.0218 H   0  0  0  0  0  0  0  0  0  0  0  0
   17.8198    0.6407   13.9262 H   0  0  0  0  0  0  0  0  0  0  0  0
   16.8568    0.5926   15.5419 H   0  0  0  0  0  0  0  0  0  0  0  0
  1  2  2  0
  2  3  1  0
  2  4  1  0
  4  5  1  0
  5  6  1  0
  6  7  1  0
  7  8  1  0
  8  9  2  0
  8 10  1  0
  7 11  1  0
 11 12  1  0
 12 13  1  0
 13 14  2  0
 13 15  1  0
 11  4  1  0
  1 16  1  0
  1 17  1  0
  3 18  1  0
  3 19  1  0
  3 20  1  0
  4 21  1  6
  5 22  1  0
  5 23  1  0
  6 24  1  0
  6 25  1  0
  7 26  1  6
 11 27  1  6
 12 28  1  0
 12 29  1  0
M  CHG  3   6   1  10  -1  15  -1
M  END
>  <meeko>  (3) 
{"is_sidechain": [false], "free_energy": -6.881, "intermolecular_energy": -8.466, "internal_energy": -0.386}

$$$$
1p1n_ligand
     RDKit          3D

 29 29  0  0  0  0  0  0  0  0999 V2000
   19.7820    3.0780   16.4750 C   0  0  0  0  0  0  0  0  0  0  0  0
   18.8130    2.2890   16.9710 C   0  0  0  0  0  0  0  0  0  0  0  0
   18.8450    1.8770   18.4220 C   0  0  0  0  0  0  0  0  0  0  0  0
   17.6420    1.7360   16.1750 C   0  0  1  0  0  0  0  0  0  0  0  0
   16.2060    2.0960   16.6020 C   0  0  0  0  0  0  0  0  0  0  0  0
   15.4080    2.1110   15.3520 N   0  0  0  0  0  0  0  0  0  0  0  0
   16.2860    1.5630   14.2300 C   0  0  2  0  0  0  0  0  0  0  0  0
   16.0870    0.0170   14.0710 C   0  0  0  0  0  0  0  0  0  0  0  0
   16.9630   -0.4940   13.3000 O   0  0  0  0  0  0  0  0  0  0  0  0
   15.1110   -0.5030   14.6640 O   0  0  0  0  0  0  0  0  0  0  0  0
   17.6790    2.0250   14.6570 C   0  0  1  0  0  0  0  0  0  0  0  0
   17.9870    3.4910   14.2630 C   0  0  0  0  0  0  0  0  0  0  0  0
   17.9170    3.9270   12.7950 C   0  0  0  0  0  0  0  0  0  0  0  0
   18.9870    3.8440   12.1430 O   0  0  0  0  0  0  0  0  0  0  0  0
   16.7870    4.3640   12.4170 O   0  0  0  0  0  0  0  0  0  0  0  0
   19.7589    3.3785   15.4171 H   0  0  0  0  0  0  0  0  0  0  0  0
   20.5979    3.4230   17.1271 H   0  0  0  0  0  0  0  0  0  0  0  0
   18.7755    2.7713   19.0587 H   0  0  0  0  0  0  0  0  0  0  0  0
   17.9959    1.2101   18.6326 H   0  0  0  0  0  0  0  0  0  0  0  0
   19.7868    1.3492   18.6326 H   0  0  0  0  0  0  0  0  0  0  0  0
   17.8275    0.6796   16.4191 H   0  0  0  0  0  0  0  0  0  0  0  0
   15.8126    1.3416   17.2992 H   0  0  0  0  0  0  0  0  0  0  0  0
   16.1673    3.0655   17.1203 H   0  0  0  0  0  0  0  0  0  0  0  0
   14.5760    1.5030   15.3650 H   0  0  0  0  0  0  0  0  0  0  0  0
   15.1920    3.1050   15.0820 H   0  0  0  0  0  0  0  0  0  0  0  0
   16.0539    1.9240   13.2172 H   0  0  0  0  0  0  0  0  0  0  0  0
   18.5091    1.5097   14.1517 H   0  0  0  0  0  0  0  0  0  0  0  0
   17.2758    4.1230   14.8150 H   0  0  0  0  0  0  0  0  0  0  0  0
   19.0550    3.5958   14.5044 H   0  0  0  0  0  0  0  0  0  0  0  0
  1  2  2  0
  2  3  1  0
  2  4  1  0
  4  5  1  0
  5  6  1  0
  6  7  1  0
  7  8  1  0
  8  9  2  0
  8 10  1  0
  7 11  1  0
 11 12  1  0
 12 13  1  0
 13 14  2  0
 13 15  1  0
 11  4  1  0
  1 16  1  0
  1 17  1  0
  3 18  1  0
  3 19  1  0
  3 20  1  0
  4 21  1  6
  5 22  1  0
  5 23  1  0
  6 24  1  0
  6 25  1  0
  7 26  1  6
 11 27  1  6
 12 28  1  0
 12 29  1  0
M  CHG  3   6   1  10  -1  15  -1
M  END
>  <meeko>  (4) 
{"is_sidechain": [false], "free_energy": -6.809, "intermolecular_energy": -9.117, "internal_energy": 0.354}

$$$$
1p1n_ligand
     RDKit          3D

 29 29  0  0  0  0  0  0  0  0999 V2000
   17.8460    1.9090   17.6400 C   0  0  0  0  0  0  0  0  0  0  0  0
   16.6100    1.9940   17.1200 C   0  0  0  0  0  0  0  0  0  0  0  0
   15.4270    2.2420   18.0220 C   0  0  0  0  0  0  0  0  0  0  0  0
   16.2680    1.8460   15.6460 C   0  0  1  0  0  0  0  0  0  0  0  0
   15.0730    2.6290   15.0690 C   0  0  0  0  0  0  0  0  0  0  0  0
   15.4240    2.9110   13.6560 N   0  0  0  0  0  0  0  0  0  0  0  0
   16.6970    2.1350   13.3250 C   0  0  2  0  0  0  0  0  0  0  0  0
   16.3510    0.7310   12.7220 C   0  0  0  0  0  0  0  0  0  0  0  0
   15.4010    0.8010   11.8770 O   0  0  0  0  0  0  0  0  0  0  0  0
   16.9960   -0.2570   13.1530 O   0  0  0  0  0  0  0  0  0  0  0  0
   17.4300    2.1330   14.6660 C   0  0  1  0  0  0  0  0  0  0  0  0
   18.2230    3.4360   14.9340 C   0  0  0  0  0  0  0  0  0  0  0  0
   18.3060    4.5240   13.8570 C   0  0  0  0  0  0  0  0  0  0  0  0
   19.3480    4.5280   13.1560 O   0  0  0  0  0  0  0  0  0  0  0  0
   17.3230    5.3270   13.8250 O   0  0  0  0  0  0  0  0  0  0  0  0
   18.7084    1.7281   16.9816 H   0  0  0  0  0  0  0  0  0  0  0  0
   17.9955    2.0203   18.7241 H   0  0  0  0  0  0  0  0  0  0  0  0
   15.7465    2.1750   19.0725 H   0  0  0  0  0  0  0  0  0  0  0  0
   15.0201    3.2450   17.8257 H   0  0  0  0  0  0  0  0  0  0  0  0
   14.6516    1.4869   17.8257 H   0  0  0  0  0  0  0  0  0  0  0  0
   15.9980    0.7809   15.6978 H   0  0  0  0  0  0  0  0  0  0  0  0
   14.1558    2.0242   15.1232 H   0  0  0  0  0  0  0  0  0  0  0  0
   14.8828    3.5541   15.6329 H   0  0  0  0  0  0  0  0  0  0  0  0
   14.7270    2.5930   12.9660 H   0  0  0  0  0  0  0  0  0  0  0  0
   15.6780    3.9270   13.5510 H   0  0  0  0  0  0  0  0  0  0  0  0
   17.3340    2.5665   12.5389 H   0  0  0  0  0  0  0  0  0  0  0  0
   18.2397    1.3927   14.7459 H   0  0  0  0  0  0  0  0  0  0  0  0
   17.7728    3.9035   15.8222 H   0  0  0  0  0  0  0  0  0  0  0  0
   19.2621    3.0845   15.0156 H   0  0  0  0  0  0  0  0  0  0  0  0
  1  2  2  0
  2  3  1  0
  2  4  1  0
  4  5  1  0
  5  6  1  0
  6  7  1  0
  7  8  1  0
  8  9  2  0
  8 10  1  0
  7 11  1  0
 11 12  1  0
 12 13  1  0
 13 14  2  0
 13 15  1  0
 11  4  1  0
  1 16  1  0
  1 17  1  0
  3 18  1  0
  3 19  1  0
  3 20  1  0
  4 21  1  1
  5 22  1  0
  5 23  1  0
  6 24  1  0
  6 25  1  0
  7 26  1  6
 11 27  1  6
 12 28  1  0
 12 29  1  0
M  CHG  3   6   1  10  -1  15  -1
M  END
>  <meeko>  (5) 
{"is_sidechain": [false], "free_energy": -6.712, "intermolecular_energy": -8.567, "internal_energy": -0.076}

$$$$
1p1n_ligand
     RDKit          3D

 29 29  0  0  0  0  0  0  0  0999 V2000
   16.6740    0.0880   14.3490 C   0  0  0  0  0  0  0  0  0  0  0  0
   16.5380    1.0600   13.4310 C   0  0  0  0  0  0  0  0  0  0  0  0
   15.7070    0.8190   12.1960 C   0  0  0  0  0  0  0  0  0  0  0  0
   17.1790    2.4360   13.5110 C   0  0  1  0  0  0  0  0  0  0  0  0
   16.8730    3.4730   12.4140 C   0  0  0  0  0  0  0  0  0  0  0  0
   16.9450    4.7950   13.0800 N   0  0  0  0  0  0  0  0  0  0  0  0
   17.4920    4.5810   14.4890 C   0  0  2  0  0  0  0  0  0  0  0  0
   19.0510    4.7370   14.5110 C   0  0  0  0  0  0  0  0  0  0  0  0
   19.4670    5.4520   13.5430 O   0  0  0  0  0  0  0  0  0  0  0  0
   19.6790    4.1340   15.4160 O   0  0  0  0  0  0  0  0  0  0  0  0
   16.9460    3.1960   14.8380 C   0  0  1  0  0  0  0  0  0  0  0  0
   15.4840    3.2240   15.3450 C   0  0  0  0  0  0  0  0  0  0  0  0
   15.1240    2.6010   16.6990 C   0  0  0  0  0  0  0  0  0  0  0  0
   13.9000    2.4180   16.9150 O   0  0  0  0  0  0  0  0  0  0  0  0
   16.1090    2.3790   17.4680 O   0  0  0  0  0  0  0  0  0  0  0  0
   17.2801    0.2634   15.2500 H   0  0  0  0  0  0  0  0  0  0  0  0
   16.1792   -0.8830   14.1994 H   0  0  0  0  0  0  0  0  0  0  0  0
   14.6892    0.5238   12.4908 H   0  0  0  0  0  0  0  0  0  0  0  0
   15.6627    1.7413   11.5982 H   0  0  0  0  0  0  0  0  0  0  0  0
   16.1630    0.0161   11.5982 H   0  0  0  0  0  0  0  0  0  0  0  0
   18.2148    2.0875   13.3860 H   0  0  0  0  0  0  0  0  0  0  0  0
   17.6180    3.4090   11.6072 H   0  0  0  0  0  0  0  0  0  0  0  0
   15.8870    3.3018   11.9574 H   0  0  0  0  0  0  0  0  0  0  0  0
   17.5920    5.4660   12.6390 H   0  0  0  0  0  0  0  0  0  0  0  0
   15.9750    5.1800   13.2090 H   0  0  0  0  0  0  0  0  0  0  0  0
   17.1822    5.3191   15.2434 H   0  0  0  0  0  0  0  0  0  0  0  0
   17.4383    2.7087   15.6925 H   0  0  0  0  0  0  0  0  0  0  0  0
   15.1865    4.2819   15.3944 H   0  0  0  0  0  0  0  0  0  0  0  0
   14.9573    2.5800   14.6254 H   0  0  0  0  0  0  0  0  0  0  0  0
  1  2  2  0
  2  3  1  0
  2  4  1  0
  4  5  1  0
  5  6  1  0
  6  7  1  0
  7  8  1  0
  8  9  2  0
  8 10  1  0
  7 11  1  0
 11 12  1  0
 12 13  1  0
 13 14  2  0
 13 15  1  0
 11  4  1  0
  1 16  1  0
  1 17  1  0
  3 18  1  0
  3 19  1  0
  3 20  1  0
  4 21  1  1
  5 22  1  0
  5 23  1  0
  6 24  1  0
  6 25  1  0
  7 26  1  1
 11 27  1  1
 12 28  1  0
 12 29  1  0
M  CHG  3   6   1  10  -1  15  -1
M  END
>  <meeko>  (6) 
{"is_sidechain": [false], "free_energy": -6.593, "intermolecular_energy": -8.078, "internal_energy": -0.419}

$$$$
1p1n_ligand
     RDKit          3D

 29 29  0  0  0  0  0  0  0  0999 V2000
   18.8790    2.3040   16.9520 C   0  0  0  0  0  0  0  0  0  0  0  0
   18.7450    2.9400   15.7760 C   0  0  0  0  0  0  0  0  0  0  0  0
   19.6440    4.1050   15.4420 C   0  0  0  0  0  0  0  0  0  0  0  0
   17.7240    2.5940   14.7040 C   0  0  1  0  0  0  0  0  0  0  0  0
   17.3040    1.1250   14.5130 C   0  0  0  0  0  0  0  0  0  0  0  0
   15.8960    1.1680   14.0490 N   0  0  0  0  0  0  0  0  0  0  0  0
   15.5420    2.6250   13.7590 C   0  0  2  0  0  0  0  0  0  0  0  0
   15.8120    2.9750   12.2560 C   0  0  0  0  0  0  0  0  0  0  0  0
   15.4330    2.0390   11.4790 O   0  0  0  0  0  0  0  0  0  0  0  0
   16.3780    4.0670   12.0100 O   0  0  0  0  0  0  0  0  0  0  0  0
   16.3900    3.3710   14.7890 C   0  0  1  0  0  0  0  0  0  0  0  0
   15.7380    3.4300   16.1930 C   0  0  0  0  0  0  0  0  0  0  0  0
   14.7760    2.3240   16.6440 C   0  0  0  0  0  0  0  0  0  0  0  0
   15.3080    1.2530   17.0290 O   0  0  0  0  0  0  0  0  0  0  0  0
   13.5430    2.6060   16.5370 O   0  0  0  0  0  0  0  0  0  0  0  0
   18.2238    1.4547   17.1958 H   0  0  0  0  0  0  0  0  0  0  0  0
   19.6439    2.6326   17.6710 H   0  0  0  0  0  0  0  0  0  0  0  0
   20.0027    4.5698   16.3722 H   0  0  0  0  0  0  0  0  0  0  0  0
   20.5034    3.7485   14.8552 H   0  0  0  0  0  0  0  0  0  0  0  0
   19.0813    4.8459   14.8552 H   0  0  0  0  0  0  0  0  0  0  0  0
   18.3476    2.8949   13.8492 H   0  0  0  0  0  0  0  0  0  0  0  0
   17.9414    0.6385   13.7600 H   0  0  0  0  0  0  0  0  0  0  0  0
   17.4075    0.5485   15.4441 H   0  0  0  0  0  0  0  0  0  0  0  0
   15.7170    0.6660   13.1660 H   0  0  0  0  0  0  0  0  0  0  0  0
   15.2570    0.8720   14.8300 H   0  0  0  0  0  0  0  0  0  0  0  0
   14.4806    2.8935   13.8649 H   0  0  0  0  0  0  0  0  0  0  0  0
   16.5173    4.4451   14.5888 H   0  0  0  0  0  0  0  0  0  0  0  0
   16.5603    3.4515   16.9233 H   0  0  0  0  0  0  0  0  0  0  0  0
   15.0895    4.3164   16.1311 H   0  0  0  0  0  0  0  0  0  0  0  0
  1  2  2  0
  2  3  1  0
  2  4  1  0
  4  5  1  0
  5  6  1  0
  6  7  1  0
  7  8  1  0
  8  9  2  0
  8 10  1  0
  7 11  1  0
 11 12  1  0
 12 13  1  0
 13 14  2  0
 13 15  1  0
 11  4  1  0
  1 16  1  0
  1 17  1  0
  3 18  1  0
  3 19  1  0
  3 20  1  0
  4 21  1  6
  5 22  1  0
  5 23  1  0
  6 24  1  0
  6 25  1  0
  7 26  1  1
 11 27  1  6
 12 28  1  0
 12 29  1  0
M  CHG  3   6   1  10  -1  15  -1
M  END
>  <meeko>  (7) 
{"is_sidechain": [false], "free_energy": -6.497, "intermolecular_energy": -8.268, "internal_energy": -0.109}

$$$$
1p1n_ligand
     RDKit          3D

 29 29  0  0  0  0  0  0  0  0999 V2000
   14.4050    2.9030   17.2320 C   0  0  0  0  0  0  0  0  0  0  0  0
   14.8710    3.1730   16.0000 C   0  0  0  0  0  0  0  0  0  0  0  0
   14.7270    4.5600   15.4270 C   0  0  0  0  0  0  0  0  0  0  0  0
   15.5480    2.1690   15.0810 C   0  0  1  0  0  0  0  0  0  0  0  0
   15.8380    2.5630   13.6200 C   0  0  0  0  0  0  0  0  0  0  0  0
   17.0670    1.8250   13.2430 N   0  0  0  0  0  0  0  0  0  0  0  0
   17.3900    0.8450   14.3680 C   0  0  2  0  0  0  0  0  0  0  0  0
   16.7380   -0.5520   14.0930 C   0  0  0  0  0  0  0  0  0  0  0  0
   17.5360   -1.3320   13.4770 O   0  0  0  0  0  0  0  0  0  0  0  0
   15.5490   -0.7170   14.4600 O   0  0  0  0  0  0  0  0  0  0  0  0
   16.8870    1.5950   15.6010 C   0  0  1  0  0  0  0  0  0  0  0  0
   17.8960    2.6390   16.1390 C   0  0  0  0  0  0  0  0  0  0  0  0
   18.7220    2.3380   17.3960 C   0  0  0  0  0  0  0  0  0  0  0  0
   19.9290    2.6860   17.3600 O   0  0  0  0  0  0  0  0  0  0  0  0
   18.0960    1.7300   18.3180 O   0  0  0  0  0  0  0  0  0  0  0  0
   14.5100    1.8910   17.6502 H   0  0  0  0  0  0  0  0  0  0  0  0
   13.9188    3.6941   17.8217 H   0  0  0  0  0  0  0  0  0  0  0  0
   14.6513    5.2894   16.2469 H   0  0  0  0  0  0  0  0  0  0  0  0
   15.6057    4.7941   14.8080 H   0  0  0  0  0  0  0  0  0  0  0  0
   13.8190    4.6086   14.8080 H   0  0  0  0  0  0  0  0  0  0  0  0
   14.7287    1.4351   15.0912 H   0  0  0  0  0  0  0  0  0  0  0  0
   15.0001    2.2704   12.9701 H   0  0  0  0  0  0  0  0  0  0  0  0
   15.9668    3.6499   13.5101 H   0  0  0  0  0  0  0  0  0  0  0  0
   16.9790    1.2440   12.3960 H   0  0  0  0  0  0  0  0  0  0  0  0
   17.8820    2.4910   13.2050 H   0  0  0  0  0  0  0  0  0  0  0  0
   18.4507    0.5783   14.4853 H   0  0  0  0  0  0  0  0  0  0  0  0
   16.7573    0.9703   16.4970 H   0  0  0  0  0  0  0  0  0  0  0  0
   18.6133    2.8331   15.3279 H   0  0  0  0  0  0  0  0  0  0  0  0
   17.2502    3.4707   16.4570 H   0  0  0  0  0  0  0  0  0  0  0  0
  1  2  2  0
  2  3  1  0
  2  4  1  0
  4  5  1  0
  5  6  1  0
  6  7  1  0
  7  8  1  0
  8  9  2  0
  8 10  1  0
  7 11  1  0
 11 12  1  0
 12 13  1  0
 13 14  2  0
 13 15  1  0
 11  4  1  0
  1 16  1  0
  1 17  1  0
  3 18  1  0
  3 19  1  0
  3 20  1  0
  4 21  1  6
  5 22  1  0
  5 23  1  0
  6 24  1  0
  6 25  1  0
  7 26  1  1
 11 27  1  1
 12 28  1  0
 12 29  1  0
M  CHG  3   6   1  10  -1  15  -1
M  END
>  <meeko>  (8) 
{"is_sidechain": [false], "free_energy": -6.423, "intermolecular_energy": -8.269, "internal_energy": -0.017}

$$$$
1p1n_ligand
     RDKit          3D

 29 29  0  0  0  0  0  0  0  0999 V2000
   16.5910    0.1940   12.5060 C   0  0  0  0  0  0  0  0  0  0  0  0
   16.3720    1.4810   12.8250 C   0  0  0  0  0  0  0  0  0  0  0  0
   15.4810    2.3320   11.9540 C   0  0  0  0  0  0  0  0  0  0  0  0
   16.9700    2.2010   14.0230 C   0  0  1  0  0  0  0  0  0  0  0  0
   16.5600    3.6590   14.3060 C   0  0  0  0  0  0  0  0  0  0  0  0
   16.6310    3.8160   15.7780 N   0  0  0  0  0  0  0  0  0  0  0  0
   17.2750    2.5570   16.3540 C   0  0  2  0  0  0  0  0  0  0  0  0
   18.8260    2.7350   16.4860 C   0  0  0  0  0  0  0  0  0  0  0  0
   19.3070    2.0040   17.4110 O   0  0  0  0  0  0  0  0  0  0  0  0
   19.3780    3.5670   15.7260 O   0  0  0  0  0  0  0  0  0  0  0  0
   16.7990    1.4790   15.3790 C   0  0  1  0  0  0  0  0  0  0  0  0
   15.3720    0.9620   15.6860 C   0  0  0  0  0  0  0  0  0  0  0  0
   14.6870    1.3240   17.0100 C   0  0  0  0  0  0  0  0  0  0  0  0
   14.8730    0.5270   17.9630 O   0  0  0  0  0  0  0  0  0  0  0  0
   13.9740    2.3740   16.9770 O   0  0  0  0  0  0  0  0  0  0  0  0
   17.2404   -0.4271   13.1404 H   0  0  0  0  0  0  0  0  0  0  0  0
   16.1208   -0.2384   11.6104 H   0  0  0  0  0  0  0  0  0  0  0  0
   14.8316    2.9523   12.5892 H   0  0  0  0  0  0  0  0  0  0  0  0
   16.1013    2.9816   11.3189 H   0  0  0  0  0  0  0  0  0  0  0  0
   14.8606    1.6826   11.3189 H   0  0  0  0  0  0  0  0  0  0  0  0
   18.0068    2.1935   13.6556 H   0  0  0  0  0  0  0  0  0  0  0  0
   17.2535    4.3554   13.8119 H   0  0  0  0  0  0  0  0  0  0  0  0
   15.5532    3.8799   13.9218 H   0  0  0  0  0  0  0  0  0  0  0  0
   17.2260    4.5940   16.1010 H   0  0  0  0  0  0  0  0  0  0  0  0
   15.6590    3.8440   16.1790 H   0  0  0  0  0  0  0  0  0  0  0  0
   16.9904    2.2986   17.3846 H   0  0  0  0  0  0  0  0  0  0  0  0
   17.3618    0.5351   15.4258 H   0  0  0  0  0  0  0  0  0  0  0  0
   14.7209    1.3336   14.8810 H   0  0  0  0  0  0  0  0  0  0  0  0
   15.5121   -0.1261   15.7663 H   0  0  0  0  0  0  0  0  0  0  0  0
  1  2  2  0
  2  3  1  0
  2  4  1  0
  4  5  1  0
  5  6  1  0
  6  7  1  0
  7  8  1  0
  8  9  2  0
  8 10  1  0
  7 11  1  0
 11 12  1  0
 12 13  1  0
 13 14  2  0
 13 15  1  0
 11  4  1  0
  1 16  1  0
  1 17  1  0
  3 18  1  0
  3 19  1  0
  3 20  1  0
  4 21  1  6
  5 22  1  0
  5 23  1  0
  6 24  1  0
  6 25  1  0
  7 26  1  1
 11 27  1  6
 12 28  1  0
 12 29  1  0
M  CHG  3   6   1  10  -1  15  -1
M  END
>  <meeko>  (9) 
{"is_sidechain": [false], "free_energy": -6.215, "intermolecular_energy": -7.847, "internal_energy": -0.183}

$$$$
