1h23_ligand
     RDKit          3D

 84 87  0  0  0  0  0  0  0  0999 V2000
    0.5430   68.6310   59.9520 O   0  0  0  0  0  0  0  0  0  0  0  0
    1.1350   68.5640   61.0180 C   0  0  0  0  0  0  0  0  0  0  0  0
    0.4090   68.3500   62.2920 C   0  0  0  0  0  0  0  0  0  0  0  0
    1.0940   68.2520   63.4410 C   0  0  0  0  0  0  0  0  0  0  0  0
    2.5510   68.3310   63.4660 C   0  0  0  0  0  0  0  0  0  0  0  0
    3.2020   68.5860   62.3100 C   0  0  0  0  0  0  0  0  0  0  0  0
    2.4980   68.6870   61.1330 N   0  0  0  0  0  0  0  0  0  0  0  0
    4.6910   68.7990   62.2190 C   0  0  0  0  0  0  0  0  0  0  0  0
    5.3190   69.0760   63.5850 C   0  0  0  0  0  0  0  0  0  0  0  0
    4.8110   68.0770   64.6190 C   0  0  0  0  0  0  0  0  0  0  0  0
    3.2800   68.1660   64.7850 C   0  0  2  0  0  0  0  0  0  0  0  0
    2.8480   66.9200   65.5390 N   0  0  0  0  0  0  0  0  0  0  0  0
    3.0840   65.6100   64.8560 C   0  0  0  0  0  0  0  0  0  0  0  0
    3.8800   64.6740   65.7630 C   0  0  0  0  0  0  0  0  0  0  0  0
    3.7920   65.0610   67.2440 C   0  0  0  0  0  0  0  0  0  0  0  0
    5.1080   65.5900   67.8270 C   0  0  0  0  0  0  0  0  0  0  0  0
    5.3310   65.0500   69.2450 C   0  0  0  0  0  0  0  0  0  0  0  0
    4.2760   64.0260   69.6790 C   0  0  0  0  0  0  0  0  0  0  0  0
    4.8020   63.0100   70.6990 C   0  0  0  0  0  0  0  0  0  0  0  0
    3.7340   62.0050   71.1560 C   0  0  0  0  0  0  0  0  0  0  0  0
    2.4660   62.6250   71.7570 C   0  0  0  0  0  0  0  0  0  0  0  0
    1.1530   61.9840   71.2880 C   0  0  0  0  0  0  0  0  0  0  0  0
    0.1560   62.9770   70.6900 C   0  0  0  0  0  0  0  0  0  0  0  0
    0.4940   64.4390   70.9860 C   0  0  0  0  0  0  0  0  0  0  0  0
    1.0070   65.1490   69.7730 N   0  0  0  0  0  0  0  0  0  0  0  0
    0.8810   66.6620   69.7520 C   0  0  1  0  0  0  0  0  0  0  0  0
    2.3140   67.2130   69.5960 C   0  0  0  0  0  0  0  0  0  0  0  0
    2.3100   68.6960   69.2460 C   0  0  0  0  0  0  0  0  0  0  0  0
    1.5940   68.9270   67.9180 C   0  0  0  0  0  0  0  0  0  0  0  0
    0.2950   68.1690   67.8280 C   0  0  0  0  0  0  0  0  0  0  0  0
   -0.5660   68.5660   66.8280 N   0  0  0  0  0  0  0  0  0  0  0  0
   -1.8050   68.0260   66.5990 C   0  0  0  0  0  0  0  0  0  0  0  0
   -2.5340   68.3830   65.6850 O   0  0  0  0  0  0  0  0  0  0  0  0
   -2.2200   66.9700   67.5480 C   0  0  0  0  0  0  0  0  0  0  0  0
   -1.3840   66.5820   68.5220 C   0  0  0  0  0  0  0  0  0  0  0  0
   -0.0550   67.1680   68.6650 C   0  0  0  0  0  0  0  0  0  0  0  0
   -0.6882   68.2718   62.2954 H   0  0  0  0  0  0  0  0  0  0  0  0
    0.5461   68.1091   64.3841 H   0  0  0  0  0  0  0  0  0  0  0  0
    2.9780   68.8670   60.2550 H   0  0  0  0  0  0  0  0  0  0  0  0
    5.1527   67.8959   61.7933 H   0  0  0  0  0  0  0  0  0  0  0  0
    4.8682   69.6776   61.5813 H   0  0  0  0  0  0  0  0  0  0  0  0
    6.4127   68.9894   63.5048 H   0  0  0  0  0  0  0  0  0  0  0  0
    5.0413   70.0912   63.9049 H   0  0  0  0  0  0  0  0  0  0  0  0
    5.0770   67.0601   64.2947 H   0  0  0  0  0  0  0  0  0  0  0  0
    5.2778   68.3136   65.5865 H   0  0  0  0  0  0  0  0  0  0  0  0
    3.0127   69.0705   65.3510 H   0  0  0  0  0  0  0  0  0  0  0  0
    1.8560   66.9880   65.8020 H   0  0  0  0  0  0  0  0  0  0  0  0
    3.3420   66.9190   66.4420 H   0  0  0  0  0  0  0  0  0  0  0  0
    2.1157   65.1462   64.6165 H   0  0  0  0  0  0  0  0  0  0  0  0
    3.6566   65.7860   63.9334 H   0  0  0  0  0  0  0  0  0  0  0  0
    3.4891   63.6528   65.6432 H   0  0  0  0  0  0  0  0  0  0  0  0
    4.9365   64.7454   65.4653 H   0  0  0  0  0  0  0  0  0  0  0  0
    3.0259   65.8428   67.3528 H   0  0  0  0  0  0  0  0  0  0  0  0
    3.5421   64.1449   67.7992 H   0  0  0  0  0  0  0  0  0  0  0  0
    5.9415   65.2706   67.1842 H   0  0  0  0  0  0  0  0  0  0  0  0
    5.0580   66.6880   67.8715 H   0  0  0  0  0  0  0  0  0  0  0  0
    6.3199   64.5697   69.2838 H   0  0  0  0  0  0  0  0  0  0  0  0
    5.2568   65.9047   69.9335 H   0  0  0  0  0  0  0  0  0  0  0  0
    3.4294   64.5658   70.1284 H   0  0  0  0  0  0  0  0  0  0  0  0
    3.9790   63.4634   68.7816 H   0  0  0  0  0  0  0  0  0  0  0  0
    5.6333   62.4534   70.2416 H   0  0  0  0  0  0  0  0  0  0  0  0
    5.1225   63.5739   71.5874 H   0  0  0  0  0  0  0  0  0  0  0  0
    3.4379   61.4035   70.2839 H   0  0  0  0  0  0  0  0  0  0  0  0
    4.1958   61.4151   71.9615 H   0  0  0  0  0  0  0  0  0  0  0  0
    2.5228   62.5277   72.8512 H   0  0  0  0  0  0  0  0  0  0  0  0
    2.4401   63.6703   71.4156 H   0  0  0  0  0  0  0  0  0  0  0  0
    1.3901   61.2290   70.5239 H   0  0  0  0  0  0  0  0  0  0  0  0
    0.6748   61.5494   72.1782 H   0  0  0  0  0  0  0  0  0  0  0  0
    0.1392   62.8382   69.5989 H   0  0  0  0  0  0  0  0  0  0  0  0
   -0.8203   62.7719   71.1535 H   0  0  0  0  0  0  0  0  0  0  0  0
   -0.4140   64.9495   71.3396 H   0  0  0  0  0  0  0  0  0  0  0  0
    1.2832   64.4584   71.7520 H   0  0  0  0  0  0  0  0  0  0  0  0
    0.5030   64.8000   68.9430 H   0  0  0  0  0  0  0  0  0  0  0  0
    1.9820   64.8730   69.6070 H   0  0  0  0  0  0  0  0  0  0  0  0
    0.4201   67.0189   70.6848 H   0  0  0  0  0  0  0  0  0  0  0  0
    2.8560   67.0711   70.5427 H   0  0  0  0  0  0  0  0  0  0  0  0
    2.8049   66.6675   68.7766 H   0  0  0  0  0  0  0  0  0  0  0  0
    1.7914   69.2543   70.0393 H   0  0  0  0  0  0  0  0  0  0  0  0
    3.3495   69.0444   69.1564 H   0  0  0  0  0  0  0  0  0  0  0  0
    1.3844   70.0016   67.8116 H   0  0  0  0  0  0  0  0  0  0  0  0
    2.2513   68.5638   67.1142 H   0  0  0  0  0  0  0  0  0  0  0  0
   -0.3090   69.3120   66.1880 H   0  0  0  0  0  0  0  0  0  0  0  0
   -3.2121   66.5041   67.4549 H   0  0  0  0  0  0  0  0  0  0  0  0
   -1.7073   65.8042   69.2295 H   0  0  0  0  0  0  0  0  0  0  0  0
  1  2  2  0
  2  3  1  0
  3  4  2  0
  4  5  1  0
  5  6  2  0
  6  7  1  0
  6  8  1  0
  8  9  1  0
  9 10  1  0
 10 11  1  0
 11 12  1  0
 12 13  1  0
 13 14  1  0
 14 15  1  0
 15 16  1  0
 16 17  1  0
 17 18  1  0
 18 19  1  0
 19 20  1  0
 20 21  1  0
 21 22  1  0
 22 23  1  0
 23 24  1  0
 24 25  1  0
 25 26  1  0
 26 27  1  0
 27 28  1  0
 28 29  1  0
 29 30  1  0
 30 31  1  0
 31 32  1  0
 32 33  2  0
 32 34  1  0
 34 35  2  0
 35 36  1  0
  7  2  1  0
 36 26  1  0
 11  5  1  0
 36 30  2  0
  3 37  1  0
  4 38  1  0
  7 39  1  0
  8 40  1  0
  8 41  1  0
  9 42  1  0
  9 43  1  0
 10 44  1  0
 10 45  1  0
 11 46  1  1
 12 47  1  0
 12 48  1  0
 13 49  1  0
 13 50  1  0
 14 51  1  0
 14 52  1  0
 15 53  1  0
 15 54  1  0
 16 55  1  0
 16 56  1  0
 17 57  1  0
 17 58  1  0
 18 59  1  0
 18 60  1  0
 19 61  1  0
 19 62  1  0
 20 63  1  0
 20 64  1  0
 21 65  1  0
 21 66  1  0
 22 67  1  0
 22 68  1  0
 23 69  1  0
 23 70  1  0
 24 71  1  0
 24 72  1  0
 25 73  1  0
 25 74  1  0
 26 75  1  1
 27 76  1  0
 27 77  1  0
 28 78  1  0
 28 79  1  0
 29 80  1  0
 29 81  1  0
 31 82  1  0
 34 83  1  0
 35 84  1  0
M  CHG  2  12   1  25   1
M  END
>  <meeko>  (1) 
{"is_sidechain": [false], "free_energy": -11.432, "intermolecular_energy": -21.456, "internal_energy": -2.6}

$$$$
1h23_ligand
     RDKit          3D

 84 87  0  0  0  0  0  0  0  0999 V2000
   -2.6260   68.2880   65.7230 O   0  0  0  0  0  0  0  0  0  0  0  0
   -1.8670   67.9590   66.6220 C   0  0  0  0  0  0  0  0  0  0  0  0
   -2.2200   66.8800   67.5740 C   0  0  0  0  0  0  0  0  0  0  0  0
   -1.3500   66.5250   68.5310 C   0  0  0  0  0  0  0  0  0  0  0  0
   -0.0450   67.1670   68.6460 C   0  0  0  0  0  0  0  0  0  0  0  0
    0.2460   68.1910   67.8140 C   0  0  0  0  0  0  0  0  0  0  0  0
   -0.6480   68.5530   66.8330 N   0  0  0  0  0  0  0  0  0  0  0  0
    1.5100   69.0050   67.9010 C   0  0  0  0  0  0  0  0  0  0  0  0
    2.2310   68.8120   69.2340 C   0  0  0  0  0  0  0  0  0  0  0  0
    2.3210   67.3310   69.5840 C   0  0  0  0  0  0  0  0  0  0  0  0
    0.9220   66.6950   69.7150 C   0  0  2  0  0  0  0  0  0  0  0  0
    1.1200   65.1900   69.7000 N   0  0  0  0  0  0  0  0  0  0  0  0
    0.8680   64.4690   70.9870 C   0  0  0  0  0  0  0  0  0  0  0  0
    0.2730   63.0890   70.7150 C   0  0  0  0  0  0  0  0  0  0  0  0
    1.0370   61.9610   71.4170 C   0  0  0  0  0  0  0  0  0  0  0  0
    2.1010   62.4530   72.4050 C   0  0  0  0  0  0  0  0  0  0  0  0
    3.2560   61.4500   72.5070 C   0  0  0  0  0  0  0  0  0  0  0  0
    4.1460   61.4190   71.2580 C   0  0  0  0  0  0  0  0  0  0  0  0
    4.9230   62.7230   71.0360 C   0  0  0  0  0  0  0  0  0  0  0  0
    4.2650   63.6480   70.0020 C   0  0  0  0  0  0  0  0  0  0  0  0
    4.9640   64.9970   69.7920 C   0  0  0  0  0  0  0  0  0  0  0  0
    5.3770   65.2870   68.3420 C   0  0  0  0  0  0  0  0  0  0  0  0
    4.5540   66.3870   67.6710 C   0  0  0  0  0  0  0  0  0  0  0  0
    4.5000   66.2690   66.1470 C   0  0  0  0  0  0  0  0  0  0  0  0
    3.3530   67.0390   65.5690 N   0  0  0  0  0  0  0  0  0  0  0  0
    3.6920   68.2630   64.7380 C   0  0  1  0  0  0  0  0  0  0  0  0
    5.1980   68.1650   64.4160 C   0  0  0  0  0  0  0  0  0  0  0  0
    5.6060   69.1540   63.3320 C   0  0  0  0  0  0  0  0  0  0  0  0
    4.8510   68.8670   62.0360 C   0  0  0  0  0  0  0  0  0  0  0  0
    3.3810   68.6300   62.2710 C   0  0  0  0  0  0  0  0  0  0  0  0
    2.5760   68.6910   61.1550 N   0  0  0  0  0  0  0  0  0  0  0  0
    1.2140   68.5350   61.1600 C   0  0  0  0  0  0  0  0  0  0  0  0
    0.5310   68.5670   60.1470 O   0  0  0  0  0  0  0  0  0  0  0  0
    0.6060   68.3290   62.4930 C   0  0  0  0  0  0  0  0  0  0  0  0
    1.3880   68.2700   63.5810 C   0  0  0  0  0  0  0  0  0  0  0  0
    2.8390   68.3890   63.4850 C   0  0  0  0  0  0  0  0  0  0  0  0
   -3.1924   66.3717   67.4961 H   0  0  0  0  0  0  0  0  0  0  0  0
   -1.6260   65.7338   69.2436 H   0  0  0  0  0  0  0  0  0  0  0  0
   -0.4360   69.3150   66.1930 H   0  0  0  0  0  0  0  0  0  0  0  0
    2.1839   68.7007   67.0866 H   0  0  0  0  0  0  0  0  0  0  0  0
    1.2341   70.0665   67.8173 H   0  0  0  0  0  0  0  0  0  0  0  0
    3.2464   69.2286   69.1598 H   0  0  0  0  0  0  0  0  0  0  0  0
    1.6649   69.3296   70.0224 H   0  0  0  0  0  0  0  0  0  0  0  0
    2.8778   66.8096   68.7915 H   0  0  0  0  0  0  0  0  0  0  0  0
    2.8354   67.2357   70.5517 H   0  0  0  0  0  0  0  0  0  0  0  0
    0.4506   67.0107   70.6574 H   0  0  0  0  0  0  0  0  0  0  0  0
    2.0640   64.9570   69.3640 H   0  0  0  0  0  0  0  0  0  0  0  0
    0.4990   64.8040   68.9750 H   0  0  0  0  0  0  0  0  0  0  0  0
    1.8176   64.3539   71.5302 H   0  0  0  0  0  0  0  0  0  0  0  0
    0.1566   65.0523   71.5900 H   0  0  0  0  0  0  0  0  0  0  0  0
   -0.7687   63.0801   71.0682 H   0  0  0  0  0  0  0  0  0  0  0  0
    0.3396   62.9085   69.6320 H   0  0  0  0  0  0  0  0  0  0  0  0
    0.3128   61.3424   71.9674 H   0  0  0  0  0  0  0  0  0  0  0  0
    1.5648   61.3970   70.6338 H   0  0  0  0  0  0  0  0  0  0  0  0
    2.4935   63.4208   72.0596 H   0  0  0  0  0  0  0  0  0  0  0  0
    1.6380   62.5590   73.3972 H   0  0  0  0  0  0  0  0  0  0  0  0
    3.8785   61.7214   73.3724 H   0  0  0  0  0  0  0  0  0  0  0  0
    2.8102   60.4501   72.6138 H   0  0  0  0  0  0  0  0  0  0  0  0
    4.8679   60.5958   71.3637 H   0  0  0  0  0  0  0  0  0  0  0  0
    3.4852   61.2808   70.3896 H   0  0  0  0  0  0  0  0  0  0  0  0
    4.9879   63.2593   71.9942 H   0  0  0  0  0  0  0  0  0  0  0  0
    5.9157   62.4511   70.6480 H   0  0  0  0  0  0  0  0  0  0  0  0
    4.2468   63.1206   69.0369 H   0  0  0  0  0  0  0  0  0  0  0  0
    3.2645   63.8813   70.3951 H   0  0  0  0  0  0  0  0  0  0  0  0
    4.2782   65.7927   70.1186 H   0  0  0  0  0  0  0  0  0  0  0  0
    5.8940   64.9595   70.3782 H   0  0  0  0  0  0  0  0  0  0  0  0
    6.4334   65.5935   68.3376 H   0  0  0  0  0  0  0  0  0  0  0  0
    5.2024   64.3639   67.7698 H   0  0  0  0  0  0  0  0  0  0  0  0
    3.5262   66.3385   68.0600 H   0  0  0  0  0  0  0  0  0  0  0  0
    5.0449   67.3437   67.9030 H   0  0  0  0  0  0  0  0  0  0  0  0
    5.4385   66.6591   65.7264 H   0  0  0  0  0  0  0  0  0  0  0  0
    4.3625   65.2080   65.8913 H   0  0  0  0  0  0  0  0  0  0  0  0
    2.7470   67.3630   66.3370 H   0  0  0  0  0  0  0  0  0  0  0  0
    2.7550   66.4000   65.0300 H   0  0  0  0  0  0  0  0  0  0  0  0
    3.4686   69.1800   65.3030 H   0  0  0  0  0  0  0  0  0  0  0  0
    5.7728   68.3792   65.3291 H   0  0  0  0  0  0  0  0  0  0  0  0
    5.4057   67.1487   64.0498 H   0  0  0  0  0  0  0  0  0  0  0  0
    5.3739   70.1755   63.6677 H   0  0  0  0  0  0  0  0  0  0  0  0
    6.6853   69.0527   63.1454 H   0  0  0  0  0  0  0  0  0  0  0  0
    4.9671   69.7277   61.3609 H   0  0  0  0  0  0  0  0  0  0  0  0
    5.2734   67.9516   61.5960 H   0  0  0  0  0  0  0  0  0  0  0  0
    2.9750   68.8630   60.2360 H   0  0  0  0  0  0  0  0  0  0  0  0
   -0.4846   68.2245   62.5915 H   0  0  0  0  0  0  0  0  0  0  0  0
    0.9247   68.1286   64.5686 H   0  0  0  0  0  0  0  0  0  0  0  0
  1  2  2  0
  2  3  1  0
  3  4  2  0
  4  5  1  0
  5  6  2  0
  6  7  1  0
  6  8  1  0
  8  9  1  0
  9 10  1  0
 10 11  1  0
 11 12  1  0
 12 13  1  0
 13 14  1  0
 14 15  1  0
 15 16  1  0
 16 17  1  0
 17 18  1  0
 18 19  1  0
 19 20  1  0
 20 21  1  0
 21 22  1  0
 22 23  1  0
 23 24  1  0
 24 25  1  0
 25 26  1  0
 26 27  1  0
 27 28  1  0
 28 29  1  0
 29 30  1  0
 30 31  1  0
 31 32  1  0
 32 33  2  0
 32 34  1  0
 34 35  2  0
 35 36  1  0
  7  2  1  0
 36 26  1  0
 11  5  1  0
 36 30  2  0
  3 37  1  0
  4 38  1  0
  7 39  1  0
  8 40  1  0
  8 41  1  0
  9 42  1  0
  9 43  1  0
 10 44  1  0
 10 45  1  0
 11 46  1  1
 12 47  1  0
 12 48  1  0
 13 49  1  0
 13 50  1  0
 14 51  1  0
 14 52  1  0
 15 53  1  0
 15 54  1  0
 16 55  1  0
 16 56  1  0
 17 57  1  0
 17 58  1  0
 18 59  1  0
 18 60  1  0
 19 61  1  0
 19 62  1  0
 20 63  1  0
 20 64  1  0
 21 65  1  0
 21 66  1  0
 22 67  1  0
 22 68  1  0
 23 69  1  0
 23 70  1  0
 24 71  1  0
 24 72  1  0
 25 73  1  0
 25 74  1  0
 26 75  1  1
 27 76  1  0
 27 77  1  0
 28 78  1  0
 28 79  1  0
 29 80  1  0
 29 81  1  0
 31 82  1  0
 34 83  1  0
 35 84  1  0
M  CHG  2  12   1  25   1
M  END
>  <meeko>  (2) 
{"is_sidechain": [false], "free_energy": -11.002, "intermolecular_energy": -21.314, "internal_energy": -1.935}

$$$$
1h23_ligand
     RDKit          3D

 84 87  0  0  0  0  0  0  0  0999 V2000
    5.5690   60.0990   70.7340 O   0  0  0  0  0  0  0  0  0  0  0  0
    4.6600   59.8990   71.5250 C   0  0  0  0  0  0  0  0  0  0  0  0
    4.3780   60.8430   72.6320 C   0  0  0  0  0  0  0  0  0  0  0  0
    3.3530   60.6090   73.4640 C   0  0  0  0  0  0  0  0  0  0  0  0
    2.4890   59.4450   73.2930 C   0  0  0  0  0  0  0  0  0  0  0  0
    2.7870   58.5570   72.3200 C   0  0  0  0  0  0  0  0  0  0  0  0
    3.8400   58.8000   71.4680 N   0  0  0  0  0  0  0  0  0  0  0  0
    2.0410   57.2650   72.1100 C   0  0  0  0  0  0  0  0  0  0  0  0
    1.1850   56.8890   73.3190 C   0  0  0  0  0  0  0  0  0  0  0  0
    0.3870   58.0950   73.8040 C   0  0  0  0  0  0  0  0  0  0  0  0
    1.3140   59.2510   74.2320 C   0  0  2  0  0  0  0  0  0  0  0  0
    0.4440   60.4910   74.3440 N   0  0  0  0  0  0  0  0  0  0  0  0
   -0.8770   60.4480   73.6420 C   0  0  0  0  0  0  0  0  0  0  0  0
   -0.9550   61.5510   72.5890 C   0  0  0  0  0  0  0  0  0  0  0  0
    0.3240   62.3940   72.5110 C   0  0  0  0  0  0  0  0  0  0  0  0
    1.0790   62.2550   71.1840 C   0  0  0  0  0  0  0  0  0  0  0  0
    2.0720   63.4090   70.9990 C   0  0  0  0  0  0  0  0  0  0  0  0
    3.1180   63.1420   69.9110 C   0  0  0  0  0  0  0  0  0  0  0  0
    4.5310   63.5870   70.3080 C   0  0  0  0  0  0  0  0  0  0  0  0
    4.8180   65.0570   69.9680 C   0  0  0  0  0  0  0  0  0  0  0  0
    5.4660   65.2980   68.5980 C   0  0  0  0  0  0  0  0  0  0  0  0
    4.5640   66.0050   67.5770 C   0  0  0  0  0  0  0  0  0  0  0  0
    3.4010   66.7730   68.2030 C   0  0  0  0  0  0  0  0  0  0  0  0
    2.5530   67.5390   67.1870 C   0  0  0  0  0  0  0  0  0  0  0  0
    2.9410   67.2110   65.7790 N   0  0  0  0  0  0  0  0  0  0  0  0
    3.3940   68.3630   64.9000 C   0  0  1  0  0  0  0  0  0  0  0  0
    4.9120   68.1790   64.6930 C   0  0  0  0  0  0  0  0  0  0  0  0
    5.4400   69.0770   63.5810 C   0  0  0  0  0  0  0  0  0  0  0  0
    4.7630   68.7380   62.2560 C   0  0  0  0  0  0  0  0  0  0  0  0
    3.2710   68.5820   62.3980 C   0  0  0  0  0  0  0  0  0  0  0  0
    2.5480   68.6050   61.2270 N   0  0  0  0  0  0  0  0  0  0  0  0
    1.1830   68.5090   61.1440 C   0  0  0  0  0  0  0  0  0  0  0  0
    0.5740   68.5050   60.0840 O   0  0  0  0  0  0  0  0  0  0  0  0
    0.4760   68.4170   62.4400 C   0  0  0  0  0  0  0  0  0  0  0  0
    1.1770   68.3950   63.5830 C   0  0  0  0  0  0  0  0  0  0  0  0
    2.6360   68.4440   63.5830 C   0  0  0  0  0  0  0  0  0  0  0  0
    5.0083   61.7338   72.7708 H   0  0  0  0  0  0  0  0  0  0  0  0
    3.1594   61.3076   74.2913 H   0  0  0  0  0  0  0  0  0  0  0  0
    4.0670   58.1450   70.7250 H   0  0  0  0  0  0  0  0  0  0  0  0
    1.3866   57.3725   71.2324 H   0  0  0  0  0  0  0  0  0  0  0  0
    2.7833   56.4671   71.9608 H   0  0  0  0  0  0  0  0  0  0  0  0
    0.4897   56.0855   73.0345 H   0  0  0  0  0  0  0  0  0  0  0  0
    1.8452   56.5493   74.1307 H   0  0  0  0  0  0  0  0  0  0  0  0
   -0.2655   58.4428   72.9896 H   0  0  0  0  0  0  0  0  0  0  0  0
   -0.2069   57.7874   74.6773 H   0  0  0  0  0  0  0  0  0  0  0  0
    1.7834   59.0218   75.2001 H   0  0  0  0  0  0  0  0  0  0  0  0
    0.9640   61.3220   74.0300 H   0  0  0  0  0  0  0  0  0  0  0  0
    0.2840   60.6660   75.3460 H   0  0  0  0  0  0  0  0  0  0  0  0
   -0.9959   59.4702   73.1524 H   0  0  0  0  0  0  0  0  0  0  0  0
   -1.6787   60.6007   74.3795 H   0  0  0  0  0  0  0  0  0  0  0  0
   -1.1298   61.0870   71.6071 H   0  0  0  0  0  0  0  0  0  0  0  0
   -1.7765   62.2238   72.8762 H   0  0  0  0  0  0  0  0  0  0  0  0
    0.0509   63.4511   72.6451 H   0  0  0  0  0  0  0  0  0  0  0  0
    0.9964   62.0283   73.3010 H   0  0  0  0  0  0  0  0  0  0  0  0
    1.6286   61.3021   71.1799 H   0  0  0  0  0  0  0  0  0  0  0  0
    0.3510   62.2807   70.3598 H   0  0  0  0  0  0  0  0  0  0  0  0
    1.5087   64.3138   70.7269 H   0  0  0  0  0  0  0  0  0  0  0  0
    2.6138   63.5273   71.9490 H   0  0  0  0  0  0  0  0  0  0  0  0
    3.1374   62.0621   69.7024 H   0  0  0  0  0  0  0  0  0  0  0  0
    2.8271   63.7288   69.0273 H   0  0  0  0  0  0  0  0  0  0  0  0
    4.6495   63.4491   71.3929 H   0  0  0  0  0  0  0  0  0  0  0  0
    5.2412   62.9732   69.7345 H   0  0  0  0  0  0  0  0  0  0  0  0
    3.8642   65.6044   69.9940 H   0  0  0  0  0  0  0  0  0  0  0  0
    5.5464   65.4057   70.7149 H   0  0  0  0  0  0  0  0  0  0  0  0
    6.3638   65.9157   68.7476 H   0  0  0  0  0  0  0  0  0  0  0  0
    5.6884   64.3048   68.1806 H   0  0  0  0  0  0  0  0  0  0  0  0
    5.1793   66.7149   67.0048 H   0  0  0  0  0  0  0  0  0  0  0  0
    4.1237   65.2205   66.9440 H   0  0  0  0  0  0  0  0  0  0  0  0
    2.7522   66.0551   68.7261 H   0  0  0  0  0  0  0  0  0  0  0  0
    3.8373   67.5180   68.8846 H   0  0  0  0  0  0  0  0  0  0  0  0
    1.4954   67.2756   67.3354 H   0  0  0  0  0  0  0  0  0  0  0  0
    2.7186   68.6149   67.3454 H   0  0  0  0  0  0  0  0  0  0  0  0
    2.1370   66.7770   65.3030 H   0  0  0  0  0  0  0  0  0  0  0  0
    3.6550   66.4720   65.7880 H   0  0  0  0  0  0  0  0  0  0  0  0
    3.1759   69.3235   65.3898 H   0  0  0  0  0  0  0  0  0  0  0  0
    5.4326   68.4273   65.6297 H   0  0  0  0  0  0  0  0  0  0  0  0
    5.0956   67.1330   64.4065 H   0  0  0  0  0  0  0  0  0  0  0  0
    5.2340   70.1273   63.8349 H   0  0  0  0  0  0  0  0  0  0  0  0
    6.5236   68.9181   63.4786 H   0  0  0  0  0  0  0  0  0  0  0  0
    4.9672   69.5458   61.5379 H   0  0  0  0  0  0  0  0  0  0  0  0
    5.1695   67.7772   61.9072 H   0  0  0  0  0  0  0  0  0  0  0  0
    3.0170   68.6990   60.3300 H   0  0  0  0  0  0  0  0  0  0  0  0
   -0.6225   68.3667   62.4662 H   0  0  0  0  0  0  0  0  0  0  0  0
    0.6408   68.3388   64.5418 H   0  0  0  0  0  0  0  0  0  0  0  0
  1  2  2  0
  2  3  1  0
  3  4  2  0
  4  5  1  0
  5  6  2  0
  6  7  1  0
  6  8  1  0
  8  9  1  0
  9 10  1  0
 10 11  1  0
 11 12  1  0
 12 13  1  0
 13 14  1  0
 14 15  1  0
 15 16  1  0
 16 17  1  0
 17 18  1  0
 18 19  1  0
 19 20  1  0
 20 21  1  0
 21 22  1  0
 22 23  1  0
 23 24  1  0
 24 25  1  0
 25 26  1  0
 26 27  1  0
 27 28  1  0
 28 29  1  0
 29 30  1  0
 30 31  1  0
 31 32  1  0
 32 33  2  0
 32 34  1  0
 34 35  2  0
 35 36  1  0
  7  2  1  0
 36 26  1  0
 11  5  1  0
 36 30  2  0
  3 37  1  0
  4 38  1  0
  7 39  1  0
  8 40  1  0
  8 41  1  0
  9 42  1  0
  9 43  1  0
 10 44  1  0
 10 45  1  0
 11 46  1  1
 12 47  1  0
 12 48  1  0
 13 49  1  0
 13 50  1  0
 14 51  1  0
 14 52  1  0
 15 53  1  0
 15 54  1  0
 16 55  1  0
 16 56  1  0
 17 57  1  0
 17 58  1  0
 18 59  1  0
 18 60  1  0
 19 61  1  0
 19 62  1  0
 20 63  1  0
 20 64  1  0
 21 65  1  0
 21 66  1  0
 22 67  1  0
 22 68  1  0
 23 69  1  0
 23 70  1  0
 24 71  1  0
 24 72  1  0
 25 73  1  0
 25 74  1  0
 26 75  1  1
 27 76  1  0
 27 77  1  0
 28 78  1  0
 28 79  1  0
 29 80  1  0
 29 81  1  0
 31 82  1  0
 34 83  1  0
 35 84  1  0
M  CHG  2  12   1  25   1
M  END
>  <meeko>  (3) 
{"is_sidechain": [false], "free_energy": -10.581, "intermolecular_energy": -20.163, "internal_energy": -2.296}

$$$$
1h23_ligand
     RDKit          3D

 84 87  0  0  0  0  0  0  0  0999 V2000
    2.9160   70.6780   69.4200 O   0  0  0  0  0  0  0  0  0  0  0  0
    2.1900   69.7480   69.1020 C   0  0  0  0  0  0  0  0  0  0  0  0
    2.5820   68.3420   69.3560 C   0  0  0  0  0  0  0  0  0  0  0  0
    1.7480   67.3470   69.0210 C   0  0  0  0  0  0  0  0  0  0  0  0
    0.4440   67.6180   68.4240 C   0  0  0  0  0  0  0  0  0  0  0  0
    0.1180   68.8980   68.1400 C   0  0  0  0  0  0  0  0  0  0  0  0
    0.9760   69.9170   68.4850 N   0  0  0  0  0  0  0  0  0  0  0  0
   -1.1460   69.3000   67.4280 C   0  0  0  0  0  0  0  0  0  0  0  0
   -1.8200   68.1170   66.7330 C   0  0  0  0  0  0  0  0  0  0  0  0
   -1.8890   66.9160   67.6700 C   0  0  0  0  0  0  0  0  0  0  0  0
   -0.4820   66.4600   68.1080 C   0  0  2  0  0  0  0  0  0  0  0  0
   -0.6730   65.5250   69.2900 N   0  0  0  0  0  0  0  0  0  0  0  0
    0.1520   65.8080   70.5060 C   0  0  0  0  0  0  0  0  0  0  0  0
    0.2120   64.5750   71.4060 C   0  0  0  0  0  0  0  0  0  0  0  0
    0.3450   63.2670   70.6170 C   0  0  0  0  0  0  0  0  0  0  0  0
    0.9810   62.1230   71.4150 C   0  0  0  0  0  0  0  0  0  0  0  0
    2.0200   61.3800   70.5660 C   0  0  0  0  0  0  0  0  0  0  0  0
    2.5660   62.2160   69.4040 C   0  0  0  0  0  0  0  0  0  0  0  0
    3.8820   62.9310   69.7380 C   0  0  0  0  0  0  0  0  0  0  0  0
    3.7760   64.4610   69.6510 C   0  0  0  0  0  0  0  0  0  0  0  0
    5.0400   65.1770   69.1580 C   0  0  0  0  0  0  0  0  0  0  0  0
    4.9660   65.6860   67.7110 C   0  0  0  0  0  0  0  0  0  0  0  0
    3.9110   64.9830   66.8580 C   0  0  0  0  0  0  0  0  0  0  0  0
    3.5500   65.7410   65.5800 C   0  0  0  0  0  0  0  0  0  0  0  0
    2.8990   67.0560   65.8780 N   0  0  0  0  0  0  0  0  0  0  0  0
    3.3490   68.2510   65.0570 C   0  0  1  0  0  0  0  0  0  0  0  0
    4.8720   68.0940   64.8630 C   0  0  0  0  0  0  0  0  0  0  0  0
    5.4040   69.0470   63.8000 C   0  0  0  0  0  0  0  0  0  0  0  0
    4.7490   68.7590   62.4510 C   0  0  0  0  0  0  0  0  0  0  0  0
    3.2570   68.5780   62.5660 C   0  0  0  0  0  0  0  0  0  0  0  0
    2.5490   68.6440   61.3870 N   0  0  0  0  0  0  0  0  0  0  0  0
    1.1870   68.5360   61.2810 C   0  0  0  0  0  0  0  0  0  0  0  0
    0.5920   68.5710   60.2140 O   0  0  0  0  0  0  0  0  0  0  0  0
    0.4640   68.3780   62.5620 C   0  0  0  0  0  0  0  0  0  0  0  0
    1.1510   68.3140   63.7120 C   0  0  0  0  0  0  0  0  0  0  0  0
    2.6080   68.3800   63.7350 C   0  0  0  0  0  0  0  0  0  0  0  0
    3.5542   68.1151   69.8180 H   0  0  0  0  0  0  0  0  0  0  0  0
    2.0528   66.3053   69.1997 H   0  0  0  0  0  0  0  0  0  0  0  0
    0.7370   70.8850   68.2860 H   0  0  0  0  0  0  0  0  0  0  0  0
   -1.8461   69.7249   68.1624 H   0  0  0  0  0  0  0  0  0  0  0  0
   -0.8785   70.0367   66.6562 H   0  0  0  0  0  0  0  0  0  0  0  0
   -2.8397   68.4042   66.4368 H   0  0  0  0  0  0  0  0  0  0  0  0
   -1.2306   67.8427   65.8457 H   0  0  0  0  0  0  0  0  0  0  0  0
   -2.4695   67.1919   68.5627 H   0  0  0  0  0  0  0  0  0  0  0  0
   -2.3694   66.0854   67.1321 H   0  0  0  0  0  0  0  0  0  0  0  0
    0.0207   65.9373   67.2809 H   0  0  0  0  0  0  0  0  0  0  0  0
   -0.5220   64.5490   69.0010 H   0  0  0  0  0  0  0  0  0  0  0  0
   -1.6690   65.5540   69.5490 H   0  0  0  0  0  0  0  0  0  0  0  0
    1.1717   66.0814   70.1969 H   0  0  0  0  0  0  0  0  0  0  0  0
   -0.3077   66.6364   71.0649 H   0  0  0  0  0  0  0  0  0  0  0  0
    1.0795   64.6709   72.0755 H   0  0  0  0  0  0  0  0  0  0  0  0
   -0.7337   64.5284   71.9659 H   0  0  0  0  0  0  0  0  0  0  0  0
   -0.6593   62.9508   70.2985 H   0  0  0  0  0  0  0  0  0  0  0  0
    1.0119   63.4730   69.7668 H   0  0  0  0  0  0  0  0  0  0  0  0
    1.4732   62.5360   72.3078 H   0  0  0  0  0  0  0  0  0  0  0  0
    0.1917   61.4146   71.7067 H   0  0  0  0  0  0  0  0  0  0  0  0
    2.8607   61.0941   71.2151 H   0  0  0  0  0  0  0  0  0  0  0  0
    1.5165   60.5053   70.1285 H   0  0  0  0  0  0  0  0  0  0  0  0
    2.7382   61.5503   68.5454 H   0  0  0  0  0  0  0  0  0  0  0  0
    1.8197   62.9930   69.1821 H   0  0  0  0  0  0  0  0  0  0  0  0
    4.1784   62.6583   70.7616 H   0  0  0  0  0  0  0  0  0  0  0  0
    4.6267   62.6112   68.9943 H   0  0  0  0  0  0  0  0  0  0  0  0
    2.9551   64.7064   68.9612 H   0  0  0  0  0  0  0  0  0  0  0  0
    3.6070   64.8139   70.6790 H   0  0  0  0  0  0  0  0  0  0  0  0
    5.2238   66.0394   69.8156 H   0  0  0  0  0  0  0  0  0  0  0  0
    5.8492   64.4324   69.1844 H   0  0  0  0  0  0  0  0  0  0  0  0
    4.7324   66.7607   67.7339 H   0  0  0  0  0  0  0  0  0  0  0  0
    5.9415   65.4743   67.2489 H   0  0  0  0  0  0  0  0  0  0  0  0
    4.2957   63.9915   66.5770 H   0  0  0  0  0  0  0  0  0  0  0  0
    2.9956   64.9210   67.4648 H   0  0  0  0  0  0  0  0  0  0  0  0
    4.4682   65.9213   65.0017 H   0  0  0  0  0  0  0  0  0  0  0  0
    2.8368   65.1282   65.0092 H   0  0  0  0  0  0  0  0  0  0  0  0
    3.0690   67.2970   66.8660 H   0  0  0  0  0  0  0  0  0  0  0  0
    1.8790   66.9500   65.8180 H   0  0  0  0  0  0  0  0  0  0  0  0
    3.1126   69.1865   65.5852 H   0  0  0  0  0  0  0  0  0  0  0  0
    5.3769   68.3058   65.8170 H   0  0  0  0  0  0  0  0  0  0  0  0
    5.0720   67.0641   64.5324 H   0  0  0  0  0  0  0  0  0  0  0  0
    5.1813   70.0824   64.0973 H   0  0  0  0  0  0  0  0  0  0  0  0
    6.4909   68.9061   63.7062 H   0  0  0  0  0  0  0  0  0  0  0  0
    4.9519   69.6007   61.7725 H   0  0  0  0  0  0  0  0  0  0  0  0
    5.1729   67.8203   62.0649 H   0  0  0  0  0  0  0  0  0  0  0  0
    3.0290   68.7840   60.5020 H   0  0  0  0  0  0  0  0  0  0  0  0
   -0.6341   68.3132   62.5712 H   0  0  0  0  0  0  0  0  0  0  0  0
    0.6030   68.2093   64.6600 H   0  0  0  0  0  0  0  0  0  0  0  0
  1  2  2  0
  2  3  1  0
  3  4  2  0
  4  5  1  0
  5  6  2  0
  6  7  1  0
  6  8  1  0
  8  9  1  0
  9 10  1  0
 10 11  1  0
 11 12  1  0
 12 13  1  0
 13 14  1  0
 14 15  1  0
 15 16  1  0
 16 17  1  0
 17 18  1  0
 18 19  1  0
 19 20  1  0
 20 21  1  0
 21 22  1  0
 22 23  1  0
 23 24  1  0
 24 25  1  0
 25 26  1  0
 26 27  1  0
 27 28  1  0
 28 29  1  0
 29 30  1  0
 30 31  1  0
 31 32  1  0
 32 33  2  0
 32 34  1  0
 34 35  2  0
 35 36  1  0
  7  2  1  0
 36 26  1  0
 11  5  1  0
 36 30  2  0
  3 37  1  0
  4 38  1  0
  7 39  1  0
  8 40  1  0
  8 41  1  0
  9 42  1  0
  9 43  1  0
 10 44  1  0
 10 45  1  0
 11 46  1  6
 12 47  1  0
 12 48  1  0
 13 49  1  0
 13 50  1  0
 14 51  1  0
 14 52  1  0
 15 53  1  0
 15 54  1  0
 16 55  1  0
 16 56  1  0
 17 57  1  0
 17 58  1  0
 18 59  1  0
 18 60  1  0
 19 61  1  0
 19 62  1  0
 20 63  1  0
 20 64  1  0
 21 65  1  0
 21 66  1  0
 22 67  1  0
 22 68  1  0
 23 69  1  0
 23 70  1  0
 24 71  1  0
 24 72  1  0
 25 73  1  0
 25 74  1  0
 26 75  1  1
 27 76  1  0
 27 77  1  0
 28 78  1  0
 28 79  1  0
 29 80  1  0
 29 81  1  0
 31 82  1  0
 34 83  1  0
 35 84  1  0
M  CHG  2  12   1  25   1
M  END
>  <meeko>  (4) 
{"is_sidechain": [false], "free_energy": -10.572, "intermolecular_energy": -20.447, "internal_energy": -1.996}

$$$$
1h23_ligand
     RDKit          3D

 84 87  0  0  0  0  0  0  0  0999 V2000
    5.6780   60.1920   70.6810 O   0  0  0  0  0  0  0  0  0  0  0  0
    4.7660   59.9680   71.4620 C   0  0  0  0  0  0  0  0  0  0  0  0
    4.4460   60.9040   72.5650 C   0  0  0  0  0  0  0  0  0  0  0  0
    3.4190   60.6420   73.3860 C   0  0  0  0  0  0  0  0  0  0  0  0
    2.5880   59.4560   73.2060 C   0  0  0  0  0  0  0  0  0  0  0  0
    2.9220   58.5760   72.2370 C   0  0  0  0  0  0  0  0  0  0  0  0
    3.9760   58.8470   71.3960 N   0  0  0  0  0  0  0  0  0  0  0  0
    2.2140   57.2640   72.0200 C   0  0  0  0  0  0  0  0  0  0  0  0
    1.3550   56.8650   73.2190 C   0  0  0  0  0  0  0  0  0  0  0  0
    0.5190   58.0480   73.6950 C   0  0  0  0  0  0  0  0  0  0  0  0
    1.4090   59.2300   74.1320 C   0  0  2  0  0  0  0  0  0  0  0  0
    0.5050   60.4460   74.2340 N   0  0  0  0  0  0  0  0  0  0  0  0
   -0.8370   60.3380   73.5800 C   0  0  0  0  0  0  0  0  0  0  0  0
   -1.0950   61.5560   72.6960 C   0  0  0  0  0  0  0  0  0  0  0  0
    0.1390   61.9840   71.8930 C   0  0  0  0  0  0  0  0  0  0  0  0
    0.1430   63.4670   71.5030 C   0  0  0  0  0  0  0  0  0  0  0  0
    1.3630   63.7990   70.6360 C   0  0  0  0  0  0  0  0  0  0  0  0
    1.9890   62.5680   69.9710 C   0  0  0  0  0  0  0  0  0  0  0  0
    3.4330   62.7970   69.5090 C   0  0  0  0  0  0  0  0  0  0  0  0
    4.1910   63.8090   70.3800 C   0  0  0  0  0  0  0  0  0  0  0  0
    5.2680   64.6240   69.6510 C   0  0  0  0  0  0  0  0  0  0  0  0
    4.7320   65.5840   68.5810 C   0  0  0  0  0  0  0  0  0  0  0  0
    3.4750   66.3440   69.0020 C   0  0  0  0  0  0  0  0  0  0  0  0
    2.9460   67.2980   67.9300 C   0  0  0  0  0  0  0  0  0  0  0  0
    3.9460   67.5170   66.8370 N   0  0  0  0  0  0  0  0  0  0  0  0
    3.4470   67.3910   65.4090 C   0  0  1  0  0  0  0  0  0  0  0  0
    4.0530   68.5800   64.6330 C   0  0  0  0  0  0  0  0  0  0  0  0
    3.8950   68.4070   63.1280 C   0  0  0  0  0  0  0  0  0  0  0  0
    4.6200   67.1490   62.6570 C   0  0  0  0  0  0  0  0  0  0  0  0
    4.3440   65.9630   63.5440 C   0  0  0  0  0  0  0  0  0  0  0  0
    4.6780   64.7320   63.0260 N   0  0  0  0  0  0  0  0  0  0  0  0
    4.4810   63.5330   63.6590 C   0  0  0  0  0  0  0  0  0  0  0  0
    4.8140   62.4580   63.1810 O   0  0  0  0  0  0  0  0  0  0  0  0
    3.8170   63.6170   64.9790 C   0  0  0  0  0  0  0  0  0  0  0  0
    3.4910   64.8140   65.4870 C   0  0  0  0  0  0  0  0  0  0  0  0
    3.7880   66.0520   64.7730 C   0  0  0  0  0  0  0  0  0  0  0  0
    5.0498   61.8120   72.7100 H   0  0  0  0  0  0  0  0  0  0  0  0
    3.1984   61.3347   74.2116 H   0  0  0  0  0  0  0  0  0  0  0  0
    4.2300   58.1980   70.6560 H   0  0  0  0  0  0  0  0  0  0  0  0
    1.5669   57.3531   71.1349 H   0  0  0  0  0  0  0  0  0  0  0  0
    2.9797   56.4867   71.8803 H   0  0  0  0  0  0  0  0  0  0  0  0
    0.6852   56.0428   72.9267 H   0  0  0  0  0  0  0  0  0  0  0  0
    2.0152   56.5437   74.0381 H   0  0  0  0  0  0  0  0  0  0  0  0
   -0.1346   58.3772   72.8738 H   0  0  0  0  0  0  0  0  0  0  0  0
   -0.0749   57.7241   74.5624 H   0  0  0  0  0  0  0  0  0  0  0  0
    1.8734   59.0138   75.1054 H   0  0  0  0  0  0  0  0  0  0  0  0
    0.9870   61.2810   73.8760 H   0  0  0  0  0  0  0  0  0  0  0  0
    0.3720   60.6490   75.2350 H   0  0  0  0  0  0  0  0  0  0  0  0
   -0.8676   59.4283   72.9624 H   0  0  0  0  0  0  0  0  0  0  0  0
   -1.6121   60.2906   74.3591 H   0  0  0  0  0  0  0  0  0  0  0  0
   -1.9047   61.3133   71.9921 H   0  0  0  0  0  0  0  0  0  0  0  0
   -1.3640   62.3925   73.3577 H   0  0  0  0  0  0  0  0  0  0  0  0
    1.0340   61.7832   72.5001 H   0  0  0  0  0  0  0  0  0  0  0  0
    0.1260   61.4076   70.9562 H   0  0  0  0  0  0  0  0  0  0  0  0
   -0.7732   63.6937   70.9381 H   0  0  0  0  0  0  0  0  0  0  0  0
    0.1872   64.0725   72.4203 H   0  0  0  0  0  0  0  0  0  0  0  0
    1.0507   64.5002   69.8481 H   0  0  0  0  0  0  0  0  0  0  0  0
    2.1253   64.2330   71.2998 H   0  0  0  0  0  0  0  0  0  0  0  0
    1.9809   61.7387   70.6937 H   0  0  0  0  0  0  0  0  0  0  0  0
    1.3920   62.3426   69.0750 H   0  0  0  0  0  0  0  0  0  0  0  0
    3.9678   61.8364   69.5427 H   0  0  0  0  0  0  0  0  0  0  0  0
    3.3898   63.2090   68.4900 H   0  0  0  0  0  0  0  0  0  0  0  0
    3.4574   64.5133   70.7993 H   0  0  0  0  0  0  0  0  0  0  0  0
    4.7202   63.2184   71.1423 H   0  0  0  0  0  0  0  0  0  0  0  0
    5.8146   65.2163   70.3996 H   0  0  0  0  0  0  0  0  0  0  0  0
    5.9043   63.8971   69.1250 H   0  0  0  0  0  0  0  0  0  0  0  0
    5.5183   66.3174   68.3491 H   0  0  0  0  0  0  0  0  0  0  0  0
    4.4563   64.9696   67.7113 H   0  0  0  0  0  0  0  0  0  0  0  0
    2.6878   65.6117   69.2344 H   0  0  0  0  0  0  0  0  0  0  0  0
    3.7470   66.9581   69.8732 H   0  0  0  0  0  0  0  0  0  0  0  0
    2.0304   66.8715   67.4945 H   0  0  0  0  0  0  0  0  0  0  0  0
    2.7427   68.2684   68.4065 H   0  0  0  0  0  0  0  0  0  0  0  0
    4.7110   66.8340   66.9420 H   0  0  0  0  0  0  0  0  0  0  0  0
    4.4020   68.4270   66.9740 H   0  0  0  0  0  0  0  0  0  0  0  0
    2.3477   67.4225   65.3858 H   0  0  0  0  0  0  0  0  0  0  0  0
    3.5430   69.5046   64.9414 H   0  0  0  0  0  0  0  0  0  0  0  0
    5.1277   68.6285   64.8626 H   0  0  0  0  0  0  0  0  0  0  0  0
    2.8259   68.3220   62.8834 H   0  0  0  0  0  0  0  0  0  0  0  0
    4.3310   69.2805   62.6211 H   0  0  0  0  0  0  0  0  0  0  0  0
    4.2883   66.9113   61.6355 H   0  0  0  0  0  0  0  0  0  0  0  0
    5.7008   67.3508   62.6923 H   0  0  0  0  0  0  0  0  0  0  0  0
    5.1060   64.6550   62.1070 H   0  0  0  0  0  0  0  0  0  0  0  0
    3.5915   62.6993   65.5420 H   0  0  0  0  0  0  0  0  0  0  0  0
    2.9883   64.8644   66.4641 H   0  0  0  0  0  0  0  0  0  0  0  0
  1  2  2  0
  2  3  1  0
  3  4  2  0
  4  5  1  0
  5  6  2  0
  6  7  1  0
  6  8  1  0
  8  9  1  0
  9 10  1  0
 10 11  1  0
 11 12  1  0
 12 13  1  0
 13 14  1  0
 14 15  1  0
 15 16  1  0
 16 17  1  0
 17 18  1  0
 18 19  1  0
 19 20  1  0
 20 21  1  0
 21 22  1  0
 22 23  1  0
 23 24  1  0
 24 25  1  0
 25 26  1  0
 26 27  1  0
 27 28  1  0
 28 29  1  0
 29 30  1  0
 30 31  1  0
 31 32  1  0
 32 33  2  0
 32 34  1  0
 34 35  2  0
 35 36  1  0
  7  2  1  0
 36 26  1  0
 11  5  1  0
 36 30  2  0
  3 37  1  0
  4 38  1  0
  7 39  1  0
  8 40  1  0
  8 41  1  0
  9 42  1  0
  9 43  1  0
 10 44  1  0
 10 45  1  0
 11 46  1  1
 12 47  1  0
 12 48  1  0
 13 49  1  0
 13 50  1  0
 14 51  1  0
 14 52  1  0
 15 53  1  0
 15 54  1  0
 16 55  1  0
 16 56  1  0
 17 57  1  0
 17 58  1  0
 18 59  1  0
 18 60  1  0
 19 61  1  0
 19 62  1  0
 20 63  1  0
 20 64  1  0
 21 65  1  0
 21 66  1  0
 22 67  1  0
 22 68  1  0
 23 69  1  0
 23 70  1  0
 24 71  1  0
 24 72  1  0
 25 73  1  0
 25 74  1  0
 26 75  1  1
 27 76  1  0
 27 77  1  0
 28 78  1  0
 28 79  1  0
 29 80  1  0
 29 81  1  0
 31 82  1  0
 34 83  1  0
 35 84  1  0
M  CHG  2  12   1  25   1
M  END
>  <meeko>  (5) 
{"is_sidechain": [false], "free_energy": -10.531, "intermolecular_energy": -19.709, "internal_energy": -2.657}

$$$$
1h23_ligand
     RDKit          3D

 84 87  0  0  0  0  0  0  0  0999 V2000
    3.3610   63.7050   68.1000 O   0  0  0  0  0  0  0  0  0  0  0  0
    3.5800   62.9370   69.0250 C   0  0  0  0  0  0  0  0  0  0  0  0
    4.2410   63.3960   70.2690 C   0  0  0  0  0  0  0  0  0  0  0  0
    4.4390   62.5330   71.2760 C   0  0  0  0  0  0  0  0  0  0  0  0
    3.9990   61.1440   71.1830 C   0  0  0  0  0  0  0  0  0  0  0  0
    3.4520   60.7180   70.0240 C   0  0  0  0  0  0  0  0  0  0  0  0
    3.2500   61.6050   68.9920 N   0  0  0  0  0  0  0  0  0  0  0  0
    3.0580   59.2870   69.7620 C   0  0  0  0  0  0  0  0  0  0  0  0
    3.6810   58.3230   70.7710 C   0  0  0  0  0  0  0  0  0  0  0  0
    3.5140   58.8530   72.1910 C   0  0  0  0  0  0  0  0  0  0  0  0
    4.2040   60.2210   72.3680 C   0  0  2  0  0  0  0  0  0  0  0  0
    3.6810   60.8110   73.6660 N   0  0  0  0  0  0  0  0  0  0  0  0
    2.6120   60.0360   74.3700 C   0  0  0  0  0  0  0  0  0  0  0  0
    1.3640   60.8970   74.5520 C   0  0  0  0  0  0  0  0  0  0  0  0
    0.2310   60.5160   73.5920 C   0  0  0  0  0  0  0  0  0  0  0  0
    0.4080   61.0670   72.1720 C   0  0  0  0  0  0  0  0  0  0  0  0
   -0.3140   62.4110   72.0160 C   0  0  0  0  0  0  0  0  0  0  0  0
    0.0240   63.1330   70.7070 C   0  0  0  0  0  0  0  0  0  0  0  0
    0.9970   64.3040   70.8960 C   0  0  0  0  0  0  0  0  0  0  0  0
    0.3540   65.6720   70.6230 C   0  0  0  0  0  0  0  0  0  0  0  0
    0.9680   66.4660   69.4630 C   0  0  0  0  0  0  0  0  0  0  0  0
    2.4460   66.8370   69.6510 C   0  0  0  0  0  0  0  0  0  0  0  0
    3.1850   67.1230   68.3440 C   0  0  0  0  0  0  0  0  0  0  0  0
    2.2640   67.5480   67.1990 C   0  0  0  0  0  0  0  0  0  0  0  0
    2.8440   67.2080   65.8620 N   0  0  0  0  0  0  0  0  0  0  0  0
    3.3160   68.3650   64.9990 C   0  0  1  0  0  0  0  0  0  0  0  0
    4.8400   68.1860   64.8320 C   0  0  0  0  0  0  0  0  0  0  0  0
    5.3950   69.0890   63.7380 C   0  0  0  0  0  0  0  0  0  0  0  0
    4.7540   68.7530   62.3940 C   0  0  0  0  0  0  0  0  0  0  0  0
    3.2600   68.5920   62.4960 C   0  0  0  0  0  0  0  0  0  0  0  0
    2.5680   68.6160   61.3050 N   0  0  0  0  0  0  0  0  0  0  0  0
    1.2060   68.5160   61.1860 C   0  0  0  0  0  0  0  0  0  0  0  0
    0.6250   68.5140   60.1110 O   0  0  0  0  0  0  0  0  0  0  0  0
    0.4650   68.4180   62.4630 C   0  0  0  0  0  0  0  0  0  0  0  0
    1.1360   68.3940   63.6240 C   0  0  0  0  0  0  0  0  0  0  0  0
    2.5940   68.4470   63.6630 C   0  0  0  0  0  0  0  0  0  0  0  0
    4.5684   64.4416   70.3662 H   0  0  0  0  0  0  0  0  0  0  0  0
    4.9431   62.8785   72.1906 H   0  0  0  0  0  0  0  0  0  0  0  0
    2.8290   61.2990   68.1190 H   0  0  0  0  0  0  0  0  0  0  0  0
    1.9628   59.2043   69.8226 H   0  0  0  0  0  0  0  0  0  0  0  0
    3.4253   59.0132   68.7619 H   0  0  0  0  0  0  0  0  0  0  0  0
    3.1858   57.3442   70.6896 H   0  0  0  0  0  0  0  0  0  0  0  0
    4.7546   58.2248   70.5524 H   0  0  0  0  0  0  0  0  0  0  0  0
    2.4412   58.9630   72.4077 H   0  0  0  0  0  0  0  0  0  0  0  0
    3.9819   58.1380   72.8837 H   0  0  0  0  0  0  0  0  0  0  0  0
    5.2952   60.0911   72.4171 H   0  0  0  0  0  0  0  0  0  0  0  0
    3.3520   61.7740   73.5130 H   0  0  0  0  0  0  0  0  0  0  0  0
    4.4840   60.9230   74.3000 H   0  0  0  0  0  0  0  0  0  0  0  0
    2.3559   59.1476   73.7740 H   0  0  0  0  0  0  0  0  0  0  0  0
    2.9839   59.7322   75.3597 H   0  0  0  0  0  0  0  0  0  0  0  0
    1.0037   60.7789   75.5846 H   0  0  0  0  0  0  0  0  0  0  0  0
    1.6461   61.9375   74.3332 H   0  0  0  0  0  0  0  0  0  0  0  0
    0.1806   59.4187   73.5339 H   0  0  0  0  0  0  0  0  0  0  0  0
   -0.6913   60.9605   73.9943 H   0  0  0  0  0  0  0  0  0  0  0  0
    1.4802   61.2080   71.9708 H   0  0  0  0  0  0  0  0  0  0  0  0
   -0.0240   60.3496   71.4588 H   0  0  0  0  0  0  0  0  0  0  0  0
   -1.3986   62.2300   72.0448 H   0  0  0  0  0  0  0  0  0  0  0  0
    0.0205   63.0579   72.8404 H   0  0  0  0  0  0  0  0  0  0  0  0
    0.4791   62.4085   70.0157 H   0  0  0  0  0  0  0  0  0  0  0  0
   -0.9145   63.5486   70.3114 H   0  0  0  0  0  0  0  0  0  0  0  0
    1.3639   64.2904   71.9329 H   0  0  0  0  0  0  0  0  0  0  0  0
    1.8120   64.1738   70.1688 H   0  0  0  0  0  0  0  0  0  0  0  0
   -0.7100   65.5082   70.3969 H   0  0  0  0  0  0  0  0  0  0  0  0
    0.5252   66.2741   71.5275 H   0  0  0  0  0  0  0  0  0  0  0  0
    0.8803   65.8604   68.5489 H   0  0  0  0  0  0  0  0  0  0  0  0
    0.4140   67.4147   69.4083 H   0  0  0  0  0  0  0  0  0  0  0  0
    2.4996   67.7359   70.2828 H   0  0  0  0  0  0  0  0  0  0  0  0
    2.9371   65.9668   70.1111 H   0  0  0  0  0  0  0  0  0  0  0  0
    3.9105   67.9300   68.5243 H   0  0  0  0  0  0  0  0  0  0  0  0
    3.6699   66.1849   68.0361 H   0  0  0  0  0  0  0  0  0  0  0  0
    1.2983   67.0330   67.3093 H   0  0  0  0  0  0  0  0  0  0  0  0
    2.1387   68.6397   67.2490 H   0  0  0  0  0  0  0  0  0  0  0  0
    2.1380   66.6990   65.3100 H   0  0  0  0  0  0  0  0  0  0  0  0
    3.6030   66.5270   65.9860 H   0  0  0  0  0  0  0  0  0  0  0  0
    3.0813   69.3232   65.4856 H   0  0  0  0  0  0  0  0  0  0  0  0
    5.3346   68.4325   65.7831 H   0  0  0  0  0  0  0  0  0  0  0  0
    5.0341   67.1415   64.5469 H   0  0  0  0  0  0  0  0  0  0  0  0
    5.1797   70.1379   63.9900 H   0  0  0  0  0  0  0  0  0  0  0  0
    6.4814   68.9331   63.6639 H   0  0  0  0  0  0  0  0  0  0  0  0
    4.9745   69.5642   61.6846 H   0  0  0  0  0  0  0  0  0  0  0  0
    5.1726   67.7948   62.0524 H   0  0  0  0  0  0  0  0  0  0  0  0
    3.0600   68.7150   60.4220 H   0  0  0  0  0  0  0  0  0  0  0  0
   -0.6337   68.3650   62.4601 H   0  0  0  0  0  0  0  0  0  0  0  0
    0.5748   68.3330   64.5681 H   0  0  0  0  0  0  0  0  0  0  0  0
  1  2  2  0
  2  3  1  0
  3  4  2  0
  4  5  1  0
  5  6  2  0
  6  7  1  0
  6  8  1  0
  8  9  1  0
  9 10  1  0
 10 11  1  0
 11 12  1  0
 12 13  1  0
 13 14  1  0
 14 15  1  0
 15 16  1  0
 16 17  1  0
 17 18  1  0
 18 19  1  0
 19 20  1  0
 20 21  1  0
 21 22  1  0
 22 23  1  0
 23 24  1  0
 24 25  1  0
 25 26  1  0
 26 27  1  0
 27 28  1  0
 28 29  1  0
 29 30  1  0
 30 31  1  0
 31 32  1  0
 32 33  2  0
 32 34  1  0
 34 35  2  0
 35 36  1  0
  7  2  1  0
 36 26  1  0
 11  5  1  0
 36 30  2  0
  3 37  1  0
  4 38  1  0
  7 39  1  0
  8 40  1  0
  8 41  1  0
  9 42  1  0
  9 43  1  0
 10 44  1  0
 10 45  1  0
 11 46  1  1
 12 47  1  0
 12 48  1  0
 13 49  1  0
 13 50  1  0
 14 51  1  0
 14 52  1  0
 15 53  1  0
 15 54  1  0
 16 55  1  0
 16 56  1  0
 17 57  1  0
 17 58  1  0
 18 59  1  0
 18 60  1  0
 19 61  1  0
 19 62  1  0
 20 63  1  0
 20 64  1  0
 21 65  1  0
 21 66  1  0
 22 67  1  0
 22 68  1  0
 23 69  1  0
 23 70  1  0
 24 71  1  0
 24 72  1  0
 25 73  1  0
 25 74  1  0
 26 75  1  1
 27 76  1  0
 27 77  1  0
 28 78  1  0
 28 79  1  0
 29 80  1  0
 29 81  1  0
 31 82  1  0
 34 83  1  0
 35 84  1  0
M  CHG  2  12   1  25   1
M  END
>  <meeko>  (6) 
{"is_sidechain": [false], "free_energy": -10.435, "intermolecular_energy": -19.824, "internal_energy": -2.361}

$$$$
1h23_ligand
     RDKit          3D

 84 87  0  0  0  0  0  0  0  0999 V2000
    4.0520   57.0950   70.3980 O   0  0  0  0  0  0  0  0  0  0  0  0
    3.4960   57.8810   71.1500 C   0  0  0  0  0  0  0  0  0  0  0  0
    4.0050   59.2600   71.3380 C   0  0  0  0  0  0  0  0  0  0  0  0
    3.3530   60.1070   72.1490 C   0  0  0  0  0  0  0  0  0  0  0  0
    2.1330   59.7050   72.8420 C   0  0  0  0  0  0  0  0  0  0  0  0
    1.7090   58.4290   72.7150 C   0  0  0  0  0  0  0  0  0  0  0  0
    2.3800   57.5630   71.8820 N   0  0  0  0  0  0  0  0  0  0  0  0
    0.5310   57.8610   73.4620 C   0  0  0  0  0  0  0  0  0  0  0  0
    0.1140   58.7430   74.6390 C   0  0  0  0  0  0  0  0  0  0  0  0
    0.0420   60.2050   74.2130 C   0  0  0  0  0  0  0  0  0  0  0  0
    1.4080   60.7150   73.7100 C   0  0  2  0  0  0  0  0  0  0  0  0
    1.1480   62.0260   72.9880 N   0  0  0  0  0  0  0  0  0  0  0  0
    0.0900   62.0080   71.9300 C   0  0  0  0  0  0  0  0  0  0  0  0
    0.5570   62.7810   70.6990 C   0  0  0  0  0  0  0  0  0  0  0  0
    1.9250   63.4450   70.8950 C   0  0  0  0  0  0  0  0  0  0  0  0
    2.9620   63.0570   69.8340 C   0  0  0  0  0  0  0  0  0  0  0  0
    4.3850   63.2100   70.3830 C   0  0  0  0  0  0  0  0  0  0  0  0
    5.0190   64.5680   70.0580 C   0  0  0  0  0  0  0  0  0  0  0  0
    4.8160   64.9980   68.6000 C   0  0  0  0  0  0  0  0  0  0  0  0
    4.1420   66.3710   68.4640 C   0  0  0  0  0  0  0  0  0  0  0  0
    3.1670   66.7360   69.5910 C   0  0  0  0  0  0  0  0  0  0  0  0
    2.1090   67.7820   69.2110 C   0  0  0  0  0  0  0  0  0  0  0  0
    0.8960   67.2020   68.4840 C   0  0  0  0  0  0  0  0  0  0  0  0
    0.6470   67.8260   67.1110 C   0  0  0  0  0  0  0  0  0  0  0  0
    1.6250   67.3330   66.0900 N   0  0  0  0  0  0  0  0  0  0  0  0
    2.3740   68.3810   65.2880 C   0  0  1  0  0  0  0  0  0  0  0  0
    3.8750   68.0550   65.4440 C   0  0  0  0  0  0  0  0  0  0  0  0
    4.7250   68.8290   64.4450 C   0  0  0  0  0  0  0  0  0  0  0  0
    4.3340   68.4620   63.0150 C   0  0  0  0  0  0  0  0  0  0  0  0
    2.8400   68.4430   62.8180 C   0  0  0  0  0  0  0  0  0  0  0  0
    2.4050   68.4490   61.5110 N   0  0  0  0  0  0  0  0  0  0  0  0
    1.0910   68.4640   61.1200 C   0  0  0  0  0  0  0  0  0  0  0  0
    0.7390   68.4420   59.9500 O   0  0  0  0  0  0  0  0  0  0  0  0
    0.1050   68.5190   62.2220 C   0  0  0  0  0  0  0  0  0  0  0  0
    0.5260   68.5130   63.4950 C   0  0  0  0  0  0  0  0  0  0  0  0
    1.9440   68.4380   63.8300 C   0  0  0  0  0  0  0  0  0  0  0  0
    4.9148   59.5883   70.8141 H   0  0  0  0  0  0  0  0  0  0  0  0
    3.7456   61.1242   72.2944 H   0  0  0  0  0  0  0  0  0  0  0  0
    2.0640   56.6030   71.7690 H   0  0  0  0  0  0  0  0  0  0  0  0
   -0.3182   57.7708   72.7686 H   0  0  0  0  0  0  0  0  0  0  0  0
    0.8263   56.8802   73.8629 H   0  0  0  0  0  0  0  0  0  0  0  0
   -0.8746   58.4220   74.9992 H   0  0  0  0  0  0  0  0  0  0  0  0
    0.8611   58.6428   75.4402 H   0  0  0  0  0  0  0  0  0  0  0  0
   -0.6970   60.3058   73.4044 H   0  0  0  0  0  0  0  0  0  0  0  0
   -0.2500   60.8053   75.0873 H   0  0  0  0  0  0  0  0  0  0  0  0
    2.0891   60.8724   74.5593 H   0  0  0  0  0  0  0  0  0  0  0  0
    2.0210   62.3900   72.5840 H   0  0  0  0  0  0  0  0  0  0  0  0
    0.8960   62.7250   73.7000 H   0  0  0  0  0  0  0  0  0  0  0  0
   -0.1210   60.9665   71.6458 H   0  0  0  0  0  0  0  0  0  0  0  0
   -0.8197   62.4827   72.3262 H   0  0  0  0  0  0  0  0  0  0  0  0
    0.6236   62.0835   69.8510 H   0  0  0  0  0  0  0  0  0  0  0  0
   -0.1749   63.5811   70.5144 H   0  0  0  0  0  0  0  0  0  0  0  0
    1.7882   64.5360   70.8628 H   0  0  0  0  0  0  0  0  0  0  0  0
    2.3133   63.0963   71.8633 H   0  0  0  0  0  0  0  0  0  0  0  0
    2.8004   62.0101   69.5375 H   0  0  0  0  0  0  0  0  0  0  0  0
    2.8451   63.7229   68.9663 H   0  0  0  0  0  0  0  0  0  0  0  0
    4.3516   63.0932   71.4763 H   0  0  0  0  0  0  0  0  0  0  0  0
    5.0040   62.4385   69.9018 H   0  0  0  0  0  0  0  0  0  0  0  0
    4.5691   65.3291   70.7125 H   0  0  0  0  0  0  0  0  0  0  0  0
    6.1024   64.4696   70.2212 H   0  0  0  0  0  0  0  0  0  0  0  0
    5.7988   65.0404   68.1077 H   0  0  0  0  0  0  0  0  0  0  0  0
    4.1508   64.2586   68.1301 H   0  0  0  0  0  0  0  0  0  0  0  0
    4.9317   67.1362   68.4364 H   0  0  0  0  0  0  0  0  0  0  0  0
    3.5409   66.3255   67.5439 H   0  0  0  0  0  0  0  0  0  0  0  0
    2.6456   65.8191   69.9032 H   0  0  0  0  0  0  0  0  0  0  0  0
    3.7726   67.1840   70.3926 H   0  0  0  0  0  0  0  0  0  0  0  0
    1.7592   68.2710   70.1322 H   0  0  0  0  0  0  0  0  0  0  0  0
    2.5911   68.4850   68.5158 H   0  0  0  0  0  0  0  0  0  0  0  0
    1.0545   66.1216   68.3510 H   0  0  0  0  0  0  0  0  0  0  0  0
    0.0139   67.4234   69.1028 H   0  0  0  0  0  0  0  0  0  0  0  0
   -0.3708   67.5687   66.7824 H   0  0  0  0  0  0  0  0  0  0  0  0
    0.7694   68.9152   67.2034 H   0  0  0  0  0  0  0  0  0  0  0  0
    1.1270   66.7420   65.4080 H   0  0  0  0  0  0  0  0  0  0  0  0
    2.2890   66.6910   66.5400 H   0  0  0  0  0  0  0  0  0  0  0  0
    2.1460   69.3868   65.6707 H   0  0  0  0  0  0  0  0  0  0  0  0
    4.1933   68.3191   66.4633 H   0  0  0  0  0  0  0  0  0  0  0  0
    4.0147   66.9806   65.2540 H   0  0  0  0  0  0  0  0  0  0  0  0
    4.5710   69.9075   64.5972 H   0  0  0  0  0  0  0  0  0  0  0  0
    5.7829   68.5719   64.6024 H   0  0  0  0  0  0  0  0  0  0  0  0
    4.7721   69.2007   62.3277 H   0  0  0  0  0  0  0  0  0  0  0  0
    4.7134   67.4497   62.8115 H   0  0  0  0  0  0  0  0  0  0  0  0
    3.0710   68.4430   60.7430 H   0  0  0  0  0  0  0  0  0  0  0  0
   -0.9708   68.5647   61.9974 H   0  0  0  0  0  0  0  0  0  0  0  0
   -0.2153   68.5659   64.3060 H   0  0  0  0  0  0  0  0  0  0  0  0
  1  2  2  0
  2  3  1  0
  3  4  2  0
  4  5  1  0
  5  6  2  0
  6  7  1  0
  6  8  1  0
  8  9  1  0
  9 10  1  0
 10 11  1  0
 11 12  1  0
 12 13  1  0
 13 14  1  0
 14 15  1  0
 15 16  1  0
 16 17  1  0
 17 18  1  0
 18 19  1  0
 19 20  1  0
 20 21  1  0
 21 22  1  0
 22 23  1  0
 23 24  1  0
 24 25  1  0
 25 26  1  0
 26 27  1  0
 27 28  1  0
 28 29  1  0
 29 30  1  0
 30 31  1  0
 31 32  1  0
 32 33  2  0
 32 34  1  0
 34 35  2  0
 35 36  1  0
  7  2  1  0
 36 26  1  0
 11  5  1  0
 36 30  2  0
  3 37  1  0
  4 38  1  0
  7 39  1  0
  8 40  1  0
  8 41  1  0
  9 42  1  0
  9 43  1  0
 10 44  1  0
 10 45  1  0
 11 46  1  1
 12 47  1  0
 12 48  1  0
 13 49  1  0
 13 50  1  0
 14 51  1  0
 14 52  1  0
 15 53  1  0
 15 54  1  0
 16 55  1  0
 16 56  1  0
 17 57  1  0
 17 58  1  0
 18 59  1  0
 18 60  1  0
 19 61  1  0
 19 62  1  0
 20 63  1  0
 20 64  1  0
 21 65  1  0
 21 66  1  0
 22 67  1  0
 22 68  1  0
 23 69  1  0
 23 70  1  0
 24 71  1  0
 24 72  1  0
 25 73  1  0
 25 74  1  0
 26 75  1  1
 27 76  1  0
 27 77  1  0
 28 78  1  0
 28 79  1  0
 29 80  1  0
 29 81  1  0
 31 82  1  0
 34 83  1  0
 35 84  1  0
M  CHG  2  12   1  25   1
M  END
>  <meeko>  (7) 
{"is_sidechain": [false], "free_energy": -10.339, "intermolecular_energy": -19.671, "internal_energy": -2.334}

$$$$
1h23_ligand
     RDKit          3D

 84 87  0  0  0  0  0  0  0  0999 V2000
    0.4300   68.5820   60.0100 O   0  0  0  0  0  0  0  0  0  0  0  0
    0.9760   68.5340   61.1020 C   0  0  0  0  0  0  0  0  0  0  0  0
    0.1920   68.3810   62.3500 C   0  0  0  0  0  0  0  0  0  0  0  0
    0.8260   68.3020   63.5290 C   0  0  0  0  0  0  0  0  0  0  0  0
    2.2820   68.3440   63.6130 C   0  0  0  0  0  0  0  0  0  0  0  0
    2.9870   68.5440   62.4780 C   0  0  0  0  0  0  0  0  0  0  0  0
    2.3350   68.6250   61.2690 N   0  0  0  0  0  0  0  0  0  0  0  0
    4.4840   68.7160   62.4430 C   0  0  0  0  0  0  0  0  0  0  0  0
    5.0620   69.0200   63.8250 C   0  0  0  0  0  0  0  0  0  0  0  0
    4.4850   68.0690   64.8670 C   0  0  0  0  0  0  0  0  0  0  0  0
    2.9520   68.2020   64.9660 C   0  0  2  0  0  0  0  0  0  0  0  0
    2.4550   66.9930   65.7400 N   0  0  0  0  0  0  0  0  0  0  0  0
    2.1600   67.2040   67.1910 C   0  0  0  0  0  0  0  0  0  0  0  0
    3.4130   66.9580   68.0290 C   0  0  0  0  0  0  0  0  0  0  0  0
    4.0870   65.6180   67.7140 C   0  0  0  0  0  0  0  0  0  0  0  0
    5.3360   65.3380   68.5580 C   0  0  0  0  0  0  0  0  0  0  0  0
    4.9490   64.9300   69.9850 C   0  0  0  0  0  0  0  0  0  0  0  0
    4.3620   63.5160   70.0740 C   0  0  0  0  0  0  0  0  0  0  0  0
    3.0990   63.4390   70.9400 C   0  0  0  0  0  0  0  0  0  0  0  0
    1.8020   63.5850   70.1310 C   0  0  0  0  0  0  0  0  0  0  0  0
    0.5160   63.2170   70.8810 C   0  0  0  0  0  0  0  0  0  0  0  0
    0.6010   61.9240   71.7040 C   0  0  0  0  0  0  0  0  0  0  0  0
   -0.5560   61.7360   72.6850 C   0  0  0  0  0  0  0  0  0  0  0  0
   -0.6260   60.3320   73.2890 C   0  0  0  0  0  0  0  0  0  0  0  0
    0.4000   60.1350   74.3610 N   0  0  0  0  0  0  0  0  0  0  0  0
    1.3330   58.9470   74.2140 C   0  0  1  0  0  0  0  0  0  0  0  0
    0.4700   57.7810   73.6870 C   0  0  0  0  0  0  0  0  0  0  0  0
    1.3300   56.6230   73.1970 C   0  0  0  0  0  0  0  0  0  0  0  0
    2.2250   57.0740   72.0450 C   0  0  0  0  0  0  0  0  0  0  0  0
    2.8970   58.3930   72.3250 C   0  0  0  0  0  0  0  0  0  0  0  0
    3.9580   58.7140   71.5080 N   0  0  0  0  0  0  0  0  0  0  0  0
    4.7180   59.8500   71.6170 C   0  0  0  0  0  0  0  0  0  0  0  0
    5.6370   60.1180   70.8570 O   0  0  0  0  0  0  0  0  0  0  0  0
    4.3580   60.7460   72.7380 C   0  0  0  0  0  0  0  0  0  0  0  0
    3.3260   60.4360   73.5350 C   0  0  0  0  0  0  0  0  0  0  0  0
    2.5280   59.2330   73.3170 C   0  0  0  0  0  0  0  0  0  0  0  0
   -0.9062   68.3324   62.3095 H   0  0  0  0  0  0  0  0  0  0  0  0
    0.2360   68.2035   64.4521 H   0  0  0  0  0  0  0  0  0  0  0  0
    2.8560   68.7650   60.4070 H   0  0  0  0  0  0  0  0  0  0  0  0
    4.9386   67.7884   62.0650 H   0  0  0  0  0  0  0  0  0  0  0  0
    4.7110   69.5690   61.7866 H   0  0  0  0  0  0  0  0  0  0  0  0
    6.1553   68.9024   63.7938 H   0  0  0  0  0  0  0  0  0  0  0  0
    4.7988   70.0517   64.1011 H   0  0  0  0  0  0  0  0  0  0  0  0
    4.7367   67.0357   64.5862 H   0  0  0  0  0  0  0  0  0  0  0  0
    4.9176   68.3253   65.8453 H   0  0  0  0  0  0  0  0  0  0  0  0
    2.6867   69.1307   65.4924 H   0  0  0  0  0  0  0  0  0  0  0  0
    3.1140   66.2100   65.6410 H   0  0  0  0  0  0  0  0  0  0  0  0
    1.6010   66.6570   65.2710 H   0  0  0  0  0  0  0  0  0  0  0  0
    1.8180   68.2381   67.3449 H   0  0  0  0  0  0  0  0  0  0  0  0
    1.3770   66.4972   67.5030 H   0  0  0  0  0  0  0  0  0  0  0  0
    4.1315   67.7673   67.8321 H   0  0  0  0  0  0  0  0  0  0  0  0
    3.1047   66.9326   69.0846 H   0  0  0  0  0  0  0  0  0  0  0  0
    3.3592   64.8132   67.8946 H   0  0  0  0  0  0  0  0  0  0  0  0
    4.4140   65.6636   66.6647 H   0  0  0  0  0  0  0  0  0  0  0  0
    5.9101   64.5230   68.0931 H   0  0  0  0  0  0  0  0  0  0  0  0
    5.9421   66.2547   68.6056 H   0  0  0  0  0  0  0  0  0  0  0  0
    5.8482   64.9751   70.6169 H   0  0  0  0  0  0  0  0  0  0  0  0
    4.1691   65.6282   70.3231 H   0  0  0  0  0  0  0  0  0  0  0  0
    4.1103   63.1775   69.0581 H   0  0  0  0  0  0  0  0  0  0  0  0
    5.1217   62.8762   70.5468 H   0  0  0  0  0  0  0  0  0  0  0  0
    3.0845   62.4653   71.4515 H   0  0  0  0  0  0  0  0  0  0  0  0
    3.1377   64.2779   71.6505 H   0  0  0  0  0  0  0  0  0  0  0  0
    1.7190   64.6334   69.8085 H   0  0  0  0  0  0  0  0  0  0  0  0
    1.8821   62.8720   69.2972 H   0  0  0  0  0  0  0  0  0  0  0  0
    0.2699   64.0428   71.5647 H   0  0  0  0  0  0  0  0  0  0  0  0
   -0.2533   63.0467   70.1135 H   0  0  0  0  0  0  0  0  0  0  0  0
    0.6078   61.0712   71.0092 H   0  0  0  0  0  0  0  0  0  0  0  0
    1.5207   61.9878   72.3041 H   0  0  0  0  0  0  0  0  0  0  0  0
   -0.4388   62.4612   73.5038 H   0  0  0  0  0  0  0  0  0  0  0  0
   -1.4866   61.8901   72.1191 H   0  0  0  0  0  0  0  0  0  0  0  0
   -1.6260   60.1801   73.7213 H   0  0  0  0  0  0  0  0  0  0  0  0
   -0.4264   59.6053   72.4877 H   0  0  0  0  0  0  0  0  0  0  0  0
   -0.0790   60.0230   75.2670 H   0  0  0  0  0  0  0  0  0  0  0  0
    0.9440   61.0000   74.4720 H   0  0  0  0  0  0  0  0  0  0  0  0
    1.7851   58.6964   75.1850 H   0  0  0  0  0  0  0  0  0  0  0  0
   -0.1810   57.4236   74.4985 H   0  0  0  0  0  0  0  0  0  0  0  0
   -0.1255   58.1499   72.8389 H   0  0  0  0  0  0  0  0  0  0  0  0
    1.9587   56.2630   74.0247 H   0  0  0  0  0  0  0  0  0  0  0  0
    0.6724   55.8156   72.8426 H   0  0  0  0  0  0  0  0  0  0  0  0
    2.9995   56.3107   71.8791 H   0  0  0  0  0  0  0  0  0  0  0  0
    1.5899   57.2021   71.1560 H   0  0  0  0  0  0  0  0  0  0  0  0
    4.2380   58.0930   70.7540 H   0  0  0  0  0  0  0  0  0  0  0  0
    4.9361   61.6646   72.9169 H   0  0  0  0  0  0  0  0  0  0  0  0
    3.0745   61.1033   74.3726 H   0  0  0  0  0  0  0  0  0  0  0  0
  1  2  2  0
  2  3  1  0
  3  4  2  0
  4  5  1  0
  5  6  2  0
  6  7  1  0
  6  8  1  0
  8  9  1  0
  9 10  1  0
 10 11  1  0
 11 12  1  0
 12 13  1  0
 13 14  1  0
 14 15  1  0
 15 16  1  0
 16 17  1  0
 17 18  1  0
 18 19  1  0
 19 20  1  0
 20 21  1  0
 21 22  1  0
 22 23  1  0
 23 24  1  0
 24 25  1  0
 25 26  1  0
 26 27  1  0
 27 28  1  0
 28 29  1  0
 29 30  1  0
 30 31  1  0
 31 32  1  0
 32 33  2  0
 32 34  1  0
 34 35  2  0
 35 36  1  0
  7  2  1  0
 36 26  1  0
 11  5  1  0
 36 30  2  0
  3 37  1  0
  4 38  1  0
  7 39  1  0
  8 40  1  0
  8 41  1  0
  9 42  1  0
  9 43  1  0
 10 44  1  0
 10 45  1  0
 11 46  1  1
 12 47  1  0
 12 48  1  0
 13 49  1  0
 13 50  1  0
 14 51  1  0
 14 52  1  0
 15 53  1  0
 15 54  1  0
 16 55  1  0
 16 56  1  0
 17 57  1  0
 17 58  1  0
 18 59  1  0
 18 60  1  0
 19 61  1  0
 19 62  1  0
 20 63  1  0
 20 64  1  0
 21 65  1  0
 21 66  1  0
 22 67  1  0
 22 68  1  0
 23 69  1  0
 23 70  1  0
 24 71  1  0
 24 72  1  0
 25 73  1  0
 25 74  1  0
 26 75  1  1
 27 76  1  0
 27 77  1  0
 28 78  1  0
 28 79  1  0
 29 80  1  0
 29 81  1  0
 31 82  1  0
 34 83  1  0
 35 84  1  0
M  CHG  2  12   1  25   1
M  END
>  <meeko>  (8) 
{"is_sidechain": [false], "free_energy": -10.261, "intermolecular_energy": -19.836, "internal_energy": -2.023}

$$$$
1h23_ligand
     RDKit          3D

 84 87  0  0  0  0  0  0  0  0999 V2000
    4.9010   62.4930   63.4760 O   0  0  0  0  0  0  0  0  0  0  0  0
    4.4880   63.5930   63.8110 C   0  0  0  0  0  0  0  0  0  0  0  0
    3.5420   63.7520   64.9400 C   0  0  0  0  0  0  0  0  0  0  0  0
    3.1330   64.9770   65.3000 C   0  0  0  0  0  0  0  0  0  0  0  0
    3.6150   66.1700   64.6120 C   0  0  0  0  0  0  0  0  0  0  0  0
    4.4300   66.0150   63.5460 C   0  0  0  0  0  0  0  0  0  0  0  0
    4.8480   64.7570   63.1790 N   0  0  0  0  0  0  0  0  0  0  0  0
    4.9080   67.1560   62.6860 C   0  0  0  0  0  0  0  0  0  0  0  0
    4.0880   68.4270   62.9050 C   0  0  0  0  0  0  0  0  0  0  0  0
    3.9030   68.6950   64.3950 C   0  0  0  0  0  0  0  0  0  0  0  0
    3.1590   67.5360   65.0890 C   0  0  2  0  0  0  0  0  0  0  0  0
    3.3470   67.7260   66.5840 N   0  0  0  0  0  0  0  0  0  0  0  0
    2.1130   67.6620   67.4270 C   0  0  0  0  0  0  0  0  0  0  0  0
    2.4200   68.1140   68.8530 C   0  0  0  0  0  0  0  0  0  0  0  0
    2.6260   66.9410   69.8190 C   0  0  0  0  0  0  0  0  0  0  0  0
    3.1640   65.6710   69.1480 C   0  0  0  0  0  0  0  0  0  0  0  0
    4.3600   65.1100   69.9260 C   0  0  0  0  0  0  0  0  0  0  0  0
    4.3180   63.5860   70.0890 C   0  0  0  0  0  0  0  0  0  0  0  0
    3.4020   62.8940   69.0720 C   0  0  0  0  0  0  0  0  0  0  0  0
    2.2850   62.0700   69.7300 C   0  0  0  0  0  0  0  0  0  0  0  0
    1.5500   62.7650   70.8830 C   0  0  0  0  0  0  0  0  0  0  0  0
    0.0840   62.3450   71.0560 C   0  0  0  0  0  0  0  0  0  0  0  0
   -0.3800   62.2980   72.5120 C   0  0  0  0  0  0  0  0  0  0  0  0
   -0.4540   60.8830   73.0870 C   0  0  0  0  0  0  0  0  0  0  0  0
    0.5400   60.6770   74.1880 N   0  0  0  0  0  0  0  0  0  0  0  0
    1.4030   59.4300   74.1160 C   0  0  1  0  0  0  0  0  0  0  0  0
    0.4710   58.2850   73.6640 C   0  0  0  0  0  0  0  0  0  0  0  0
    1.2620   57.0510   73.2470 C   0  0  0  0  0  0  0  0  0  0  0  0
    2.1760   57.3770   72.0680 C   0  0  0  0  0  0  0  0  0  0  0  0
    2.9240   58.6700   72.2640 C   0  0  0  0  0  0  0  0  0  0  0  0
    3.9970   58.8780   71.4270 N   0  0  0  0  0  0  0  0  0  0  0  0
    4.8220   59.9720   71.4630 C   0  0  0  0  0  0  0  0  0  0  0  0
    5.7510   60.1390   70.6870 O   0  0  0  0  0  0  0  0  0  0  0  0
    4.5190   60.9560   72.5260 C   0  0  0  0  0  0  0  0  0  0  0  0
    3.4740   60.7570   73.3420 C   0  0  0  0  0  0  0  0  0  0  0  0
    2.6080   59.5910   73.2010 C   0  0  0  0  0  0  0  0  0  0  0  0
    3.1761   62.8672   65.4815 H   0  0  0  0  0  0  0  0  0  0  0  0
    2.4199   65.0848   66.1306 H   0  0  0  0  0  0  0  0  0  0  0  0
    5.4700   64.6280   62.3850 H   0  0  0  0  0  0  0  0  0  0  0  0
    5.9598   67.3667   62.9295 H   0  0  0  0  0  0  0  0  0  0  0  0
    4.7928   66.8570   61.6337 H   0  0  0  0  0  0  0  0  0  0  0  0
    4.6117   69.2788   62.4465 H   0  0  0  0  0  0  0  0  0  0  0  0
    3.0987   68.2955   62.4423 H   0  0  0  0  0  0  0  0  0  0  0  0
    4.8916   68.8158   64.8620 H   0  0  0  0  0  0  0  0  0  0  0  0
    3.3018   69.6091   64.5095 H   0  0  0  0  0  0  0  0  0  0  0  0
    2.0903   67.5641   64.8298 H   0  0  0  0  0  0  0  0  0  0  0  0
    3.8380   68.6100   66.7720 H   0  0  0  0  0  0  0  0  0  0  0  0
    4.0080   67.0040   66.9050 H   0  0  0  0  0  0  0  0  0  0  0  0
    1.3444   68.3201   66.9955 H   0  0  0  0  0  0  0  0  0  0  0  0
    1.7504   66.6238   67.4515 H   0  0  0  0  0  0  0  0  0  0  0  0
    3.3364   68.7223   68.8389 H   0  0  0  0  0  0  0  0  0  0  0  0
    1.5531   68.6886   69.2112 H   0  0  0  0  0  0  0  0  0  0  0  0
    3.3411   67.2525   70.5947 H   0  0  0  0  0  0  0  0  0  0  0  0
    1.6379   66.6900   70.2321 H   0  0  0  0  0  0  0  0  0  0  0  0
    2.3666   64.9139   69.1170 H   0  0  0  0  0  0  0  0  0  0  0  0
    3.4926   65.9225   68.1288 H   0  0  0  0  0  0  0  0  0  0  0  0
    5.2821   65.3783   69.3895 H   0  0  0  0  0  0  0  0  0  0  0  0
    4.3251   65.5462   70.9352 H   0  0  0  0  0  0  0  0  0  0  0  0
    5.3379   63.1930   69.9649 H   0  0  0  0  0  0  0  0  0  0  0  0
    3.9127   63.3756   71.0897 H   0  0  0  0  0  0  0  0  0  0  0  0
    2.9408   63.6637   68.4357 H   0  0  0  0  0  0  0  0  0  0  0  0
    4.0243   62.1977   68.4907 H   0  0  0  0  0  0  0  0  0  0  0  0
    1.5444   61.8219   68.9554 H   0  0  0  0  0  0  0  0  0  0  0  0
    2.7755   61.1888   70.1692 H   0  0  0  0  0  0  0  0  0  0  0  0
    2.0842   62.5363   71.8170 H   0  0  0  0  0  0  0  0  0  0  0  0
    1.5389   63.8382   70.6418 H   0  0  0  0  0  0  0  0  0  0  0  0
   -0.5483   63.0638   70.5142 H   0  0  0  0  0  0  0  0  0  0  0  0
   -0.0037   61.3225   70.6601 H   0  0  0  0  0  0  0  0  0  0  0  0
    0.3247   62.8839   73.1204 H   0  0  0  0  0  0  0  0  0  0  0  0
   -1.3996   62.7100   72.5385 H   0  0  0  0  0  0  0  0  0  0  0  0
   -1.4655   60.7126   73.4841 H   0  0  0  0  0  0  0  0  0  0  0  0
   -0.2214   60.1733   72.2794 H   0  0  0  0  0  0  0  0  0  0  0  0
    0.0380   60.6360   75.0880 H   0  0  0  0  0  0  0  0  0  0  0  0
    1.1320   61.5130   74.2700 H   0  0  0  0  0  0  0  0  0  0  0  0
    1.8448   59.2143   75.1000 H   0  0  0  0  0  0  0  0  0  0  0  0
   -0.1958   58.0173   74.4969 H   0  0  0  0  0  0  0  0  0  0  0  0
   -0.1069   58.6336   72.7954 H   0  0  0  0  0  0  0  0  0  0  0  0
    1.8730   56.7086   74.0952 H   0  0  0  0  0  0  0  0  0  0  0  0
    0.5580   56.2616   72.9447 H   0  0  0  0  0  0  0  0  0  0  0  0
    2.9046   56.5615   71.9493 H   0  0  0  0  0  0  0  0  0  0  0  0
    1.5451   57.4858   71.1735 H   0  0  0  0  0  0  0  0  0  0  0  0
    4.2380   58.1950   70.7130 H   0  0  0  0  0  0  0  0  0  0  0  0
    5.1500   61.8490   72.6464 H   0  0  0  0  0  0  0  0  0  0  0  0
    3.2647   61.4892   74.1357 H   0  0  0  0  0  0  0  0  0  0  0  0
  1  2  2  0
  2  3  1  0
  3  4  2  0
  4  5  1  0
  5  6  2  0
  6  7  1  0
  6  8  1  0
  8  9  1  0
  9 10  1  0
 10 11  1  0
 11 12  1  0
 12 13  1  0
 13 14  1  0
 14 15  1  0
 15 16  1  0
 16 17  1  0
 17 18  1  0
 18 19  1  0
 19 20  1  0
 20 21  1  0
 21 22  1  0
 22 23  1  0
 23 24  1  0
 24 25  1  0
 25 26  1  0
 26 27  1  0
 27 28  1  0
 28 29  1  0
 29 30  1  0
 30 31  1  0
 31 32  1  0
 32 33  2  0
 32 34  1  0
 34 35  2  0
 35 36  1  0
  7  2  1  0
 36 26  1  0
 11  5  1  0
 36 30  2  0
  3 37  1  0
  4 38  1  0
  7 39  1  0
  8 40  1  0
  8 41  1  0
  9 42  1  0
  9 43  1  0
 10 44  1  0
 10 45  1  0
 11 46  1  1
 12 47  1  0
 12 48  1  0
 13 49  1  0
 13 50  1  0
 14 51  1  0
 14 52  1  0
 15 53  1  0
 15 54  1  0
 16 55  1  0
 16 56  1  0
 17 57  1  0
 17 58  1  0
 18 59  1  0
 18 60  1  0
 19 61  1  0
 19 62  1  0
 20 63  1  0
 20 64  1  0
 21 65  1  0
 21 66  1  0
 22 67  1  0
 22 68  1  0
 23 69  1  0
 23 70  1  0
 24 71  1  0
 24 72  1  0
 25 73  1  0
 25 74  1  0
 26 75  1  1
 27 76  1  0
 27 77  1  0
 28 78  1  0
 28 79  1  0
 29 80  1  0
 29 81  1  0
 31 82  1  0
 34 83  1  0
 35 84  1  0
M  CHG  2  12   1  25   1
M  END
>  <meeko>  (9) 
{"is_sidechain": [false], "free_energy": -10.241, "intermolecular_energy": -19.304, "internal_energy": -2.516}

$$$$
