3u5j_ligand
     RDKit          3D

 35 38  0  0  0  0  0  0  0  0999 V2000
   30.7360   18.7120    1.7160 C   0  0  0  0  0  0  0  0  0  0  0  0
   31.4980   17.8570    0.7770 C   0  0  0  0  0  0  0  0  0  0  0  0
   32.7880   17.9850    0.5420 N   0  0  0  0  0  0  0  0  0  0  0  0
   33.1260   17.1400   -0.4770 N   0  0  0  0  0  0  0  0  0  0  0  0
   32.0380   16.5030   -0.8510 C   0  0  0  0  0  0  0  0  0  0  0  0
   30.9760   16.8850   -0.0620 N   0  0  0  0  0  0  0  0  0  0  0  0
   29.6810   16.3040   -0.0910 C   0  0  0  0  0  0  0  0  0  0  0  0
   28.9720   16.1460    1.1120 C   0  0  0  0  0  0  0  0  0  0  0  0
   27.7380   15.4920    1.1280 C   0  0  0  0  0  0  0  0  0  0  0  0
   27.2100   14.9790   -0.0530 C   0  0  0  0  0  0  0  0  0  0  0  0
   25.7000   14.1580   -0.0270 Cl  0  0  0  0  0  0  0  0  0  0  0  0
   27.8970   15.1280   -1.2540 C   0  0  0  0  0  0  0  0  0  0  0  0
   29.1270   15.8090   -1.2890 C   0  0  0  0  0  0  0  0  0  0  0  0
   29.7430   16.0320   -2.6390 C   0  0  0  0  0  0  0  0  0  0  0  0
   28.8580   16.5010   -3.7560 C   0  0  0  0  0  0  0  0  0  0  0  0
   27.6650   17.1890   -3.5000 C   0  0  0  0  0  0  0  0  0  0  0  0
   26.8640   17.6130   -4.5630 C   0  0  0  0  0  0  0  0  0  0  0  0
   27.2550   17.3620   -5.8780 C   0  0  0  0  0  0  0  0  0  0  0  0
   28.4520   16.6960   -6.1360 C   0  0  0  0  0  0  0  0  0  0  0  0
   29.2570   16.2690   -5.0790 C   0  0  0  0  0  0  0  0  0  0  0  0
   30.9890   15.8540   -2.9210 N   0  0  0  0  0  0  0  0  0  0  0  0
   31.9270   15.4490   -1.8840 C   0  0  0  0  0  0  0  0  0  0  0  0
   30.9848   18.4328    2.7505 H   0  0  0  0  0  0  0  0  0  0  0  0
   30.9991   19.7667    1.5475 H   0  0  0  0  0  0  0  0  0  0  0  0
   29.6581   18.5716    1.5475 H   0  0  0  0  0  0  0  0  0  0  0  0
   29.3924   16.5407    2.0488 H   0  0  0  0  0  0  0  0  0  0  0  0
   27.1845   15.3826    2.0723 H   0  0  0  0  0  0  0  0  0  0  0  0
   27.4758   14.7110   -2.1807 H   0  0  0  0  0  0  0  0  0  0  0  0
   27.3594   17.3951   -2.4636 H   0  0  0  0  0  0  0  0  0  0  0  0
   25.9229   18.1460   -4.3625 H   0  0  0  0  0  0  0  0  0  0  0  0
   26.6180   17.6900   -6.7126 H   0  0  0  0  0  0  0  0  0  0  0  0
   28.7625   16.5067   -7.1741 H   0  0  0  0  0  0  0  0  0  0  0  0
   30.2049   15.7502   -5.2845 H   0  0  0  0  0  0  0  0  0  0  0  0
   31.5716   14.5189   -1.4165 H   0  0  0  0  0  0  0  0  0  0  0  0
   32.9156   15.2886   -2.3389 H   0  0  0  0  0  0  0  0  0  0  0  0
  1  2  1  0
  2  3  2  0
  3  4  1  0
  4  5  2  0
  5  6  1  0
  6  7  1  0
  7  8  2  0
  8  9  1  0
  9 10  2  0
 10 11  1  0
 10 12  1  0
 12 13  2  0
 13 14  1  0
 14 15  1  0
 15 16  2  0
 16 17  1  0
 17 18  2  0
 18 19  1  0
 19 20  2  0
 14 21  2  0
 21 22  1  0
  6  2  1  0
 13  7  1  0
 20 15  1  0
 22  5  1  0
  1 23  1  0
  1 24  1  0
  1 25  1  0
  8 26  1  0
  9 27  1  0
 12 28  1  0
 16 29  1  0
 17 30  1  0
 18 31  1  0
 19 32  1  0
 20 33  1  0
 22 34  1  0
 22 35  1  0
M  END
>  <meeko>  (1) 
{"is_sidechain": [false], "free_energy": -8.76, "intermolecular_energy": -9.272, "internal_energy": -0.11}

$$$$
3u5j_ligand
     RDKit          3D

 35 38  0  0  0  0  0  0  0  0999 V2000
   32.1440   13.3730   -4.7310 C   0  0  0  0  0  0  0  0  0  0  0  0
   32.4650   14.2910   -3.6140 C   0  0  0  0  0  0  0  0  0  0  0  0
   33.5870   14.2530   -2.9250 N   0  0  0  0  0  0  0  0  0  0  0  0
   33.4850   15.1340   -1.8860 N   0  0  0  0  0  0  0  0  0  0  0  0
   32.3010   15.7030   -1.9540 C   0  0  0  0  0  0  0  0  0  0  0  0
   31.6200   15.2390   -3.0580 N   0  0  0  0  0  0  0  0  0  0  0  0
   30.3720   15.7320   -3.5190 C   0  0  0  0  0  0  0  0  0  0  0  0
   30.1390   15.8240   -4.9030 C   0  0  0  0  0  0  0  0  0  0  0  0
   28.9590   16.3940   -5.3860 C   0  0  0  0  0  0  0  0  0  0  0  0
   28.0110   16.8890   -4.4960 C   0  0  0  0  0  0  0  0  0  0  0  0
   26.5690   17.6060   -5.0960 Cl  0  0  0  0  0  0  0  0  0  0  0  0
   28.2240   16.8040   -3.1230 C   0  0  0  0  0  0  0  0  0  0  0  0
   29.3950   16.2070   -2.6210 C   0  0  0  0  0  0  0  0  0  0  0  0
   29.4920   16.0470   -1.1330 C   0  0  0  0  0  0  0  0  0  0  0  0
   28.2910   15.5380   -0.3920 C   0  0  0  0  0  0  0  0  0  0  0  0
   27.2540   14.8700   -1.0570 C   0  0  0  0  0  0  0  0  0  0  0  0
   26.1500   14.4070   -0.3380 C   0  0  0  0  0  0  0  0  0  0  0  0
   26.0820   14.5980    1.0420 C   0  0  0  0  0  0  0  0  0  0  0  0
   27.1220   15.2440    1.7100 C   0  0  0  0  0  0  0  0  0  0  0  0
   28.2280   15.7090    0.9970 C   0  0  0  0  0  0  0  0  0  0  0  0
   30.5390   16.3120   -0.4280 N   0  0  0  0  0  0  0  0  0  0  0  0
   31.7640   16.7630   -1.0720 C   0  0  0  0  0  0  0  0  0  0  0  0
   31.8064   12.4074   -4.3265 H   0  0  0  0  0  0  0  0  0  0  0  0
   31.3458   13.8114   -5.3480 H   0  0  0  0  0  0  0  0  0  0  0  0
   33.0414   13.2184   -5.3480 H   0  0  0  0  0  0  0  0  0  0  0  0
   30.8914   15.4444   -5.6099 H   0  0  0  0  0  0  0  0  0  0  0  0
   28.7792   16.4516   -6.4697 H   0  0  0  0  0  0  0  0  0  0  0  0
   27.4729   17.2057   -2.4269 H   0  0  0  0  0  0  0  0  0  0  0  0
   27.3096   14.7106   -2.1440 H   0  0  0  0  0  0  0  0  0  0  0  0
   25.3319   13.8904   -0.8613 H   0  0  0  0  0  0  0  0  0  0  0  0
   25.2073   14.2388    1.6040 H   0  0  0  0  0  0  0  0  0  0  0  0
   27.0705   15.3871    2.7994 H   0  0  0  0  0  0  0  0  0  0  0  0
   29.0515   16.2105    1.5265 H   0  0  0  0  0  0  0  0  0  0  0  0
   31.5497   17.6599   -1.6716 H   0  0  0  0  0  0  0  0  0  0  0  0
   32.5100   16.9964   -0.2981 H   0  0  0  0  0  0  0  0  0  0  0  0
  1  2  1  0
  2  3  2  0
  3  4  1  0
  4  5  2  0
  5  6  1  0
  6  7  1  0
  7  8  2  0
  8  9  1  0
  9 10  2  0
 10 11  1  0
 10 12  1  0
 12 13  2  0
 13 14  1  0
 14 15  1  0
 15 16  2  0
 16 17  1  0
 17 18  2  0
 18 19  1  0
 19 20  2  0
 14 21  2  0
 21 22  1  0
  6  2  1  0
 13  7  1  0
 20 15  1  0
 22  5  1  0
  1 23  1  0
  1 24  1  0
  1 25  1  0
  8 26  1  0
  9 27  1  0
 12 28  1  0
 16 29  1  0
 17 30  1  0
 18 31  1  0
 19 32  1  0
 20 33  1  0
 22 34  1  0
 22 35  1  0
M  END
>  <meeko>  (2) 
{"is_sidechain": [false], "free_energy": -8.271, "intermolecular_energy": -8.835, "internal_energy": -0.029}

$$$$
3u5j_ligand
     RDKit          3D

 35 38  0  0  0  0  0  0  0  0999 V2000
   28.7770   17.3730   -5.6880 C   0  0  0  0  0  0  0  0  0  0  0  0
   28.2550   16.8620   -4.3990 C   0  0  0  0  0  0  0  0  0  0  0  0
   27.0330   17.0830   -3.9580 N   0  0  0  0  0  0  0  0  0  0  0  0
   26.9410   16.5960   -2.6840 N   0  0  0  0  0  0  0  0  0  0  0  0
   28.1070   16.0800   -2.3640 C   0  0  0  0  0  0  0  0  0  0  0  0
   28.9740   16.1800   -3.4300 N   0  0  0  0  0  0  0  0  0  0  0  0
   30.2710   15.6090   -3.4900 C   0  0  0  0  0  0  0  0  0  0  0  0
   30.7330   15.0760   -4.7060 C   0  0  0  0  0  0  0  0  0  0  0  0
   31.9650   14.4220   -4.7720 C   0  0  0  0  0  0  0  0  0  0  0  0
   32.7390   14.2820   -3.6250 C   0  0  0  0  0  0  0  0  0  0  0  0
   34.2470   13.4600   -3.7070 Cl  0  0  0  0  0  0  0  0  0  0  0  0
   32.3000   14.8060   -2.4130 C   0  0  0  0  0  0  0  0  0  0  0  0
   31.0740   15.4910   -2.3360 C   0  0  0  0  0  0  0  0  0  0  0  0
   30.7310   16.1280   -1.0220 C   0  0  0  0  0  0  0  0  0  0  0  0
   31.8010   16.8960   -0.3030 C   0  0  0  0  0  0  0  0  0  0  0  0
   33.1410   16.4900   -0.3450 C   0  0  0  0  0  0  0  0  0  0  0  0
   34.1130   17.2270    0.3350 C   0  0  0  0  0  0  0  0  0  0  0  0
   33.7540   18.3730    1.0460 C   0  0  0  0  0  0  0  0  0  0  0  0
   32.4240   18.7900    1.0720 C   0  0  0  0  0  0  0  0  0  0  0  0
   31.4480   18.0580    0.3950 C   0  0  0  0  0  0  0  0  0  0  0  0
   29.5750   16.0710   -0.4530 N   0  0  0  0  0  0  0  0  0  0  0  0
   28.4670   15.3890   -1.1050 C   0  0  0  0  0  0  0  0  0  0  0  0
   29.5509   18.1306   -5.4957 H   0  0  0  0  0  0  0  0  0  0  0  0
   29.2121   16.5421   -6.2627 H   0  0  0  0  0  0  0  0  0  0  0  0
   27.9555   17.8257   -6.2627 H   0  0  0  0  0  0  0  0  0  0  0  0
   30.1188   15.1750   -5.6132 H   0  0  0  0  0  0  0  0  0  0  0  0
   32.3230   14.0179   -5.7304 H   0  0  0  0  0  0  0  0  0  0  0  0
   32.9156   14.6838   -1.5096 H   0  0  0  0  0  0  0  0  0  0  0  0
   33.4272   15.5923   -0.9126 H   0  0  0  0  0  0  0  0  0  0  0  0
   35.1641   16.9035    0.3101 H   0  0  0  0  0  0  0  0  0  0  0  0
   34.5209   18.9475    1.5862 H   0  0  0  0  0  0  0  0  0  0  0  0
   32.1436   19.6974    1.6270 H   0  0  0  0  0  0  0  0  0  0  0  0
   30.4006   18.3937    0.4094 H   0  0  0  0  0  0  0  0  0  0  0  0
   28.7609   14.3533   -1.3308 H   0  0  0  0  0  0  0  0  0  0  0  0
   27.5970   15.3959   -0.4319 H   0  0  0  0  0  0  0  0  0  0  0  0
  1  2  1  0
  2  3  2  0
  3  4  1  0
  4  5  2  0
  5  6  1  0
  6  7  1  0
  7  8  2  0
  8  9  1  0
  9 10  2  0
 10 11  1  0
 10 12  1  0
 12 13  2  0
 13 14  1  0
 14 15  1  0
 15 16  2  0
 16 17  1  0
 17 18  2  0
 18 19  1  0
 19 20  2  0
 14 21  2  0
 21 22  1  0
  6  2  1  0
 13  7  1  0
 20 15  1  0
 22  5  1  0
  1 23  1  0
  1 24  1  0
  1 25  1  0
  8 26  1  0
  9 27  1  0
 12 28  1  0
 16 29  1  0
 17 30  1  0
 18 31  1  0
 19 32  1  0
 20 33  1  0
 22 34  1  0
 22 35  1  0
M  END
>  <meeko>  (3) 
{"is_sidechain": [false], "free_energy": -7.041, "intermolecular_energy": -7.856, "internal_energy": 0.294}

$$$$
3u5j_ligand
     RDKit          3D

 35 38  0  0  0  0  0  0  0  0999 V2000
   27.9670   14.6850    3.3720 C   0  0  0  0  0  0  0  0  0  0  0  0
   27.2500   14.9390    2.1010 C   0  0  0  0  0  0  0  0  0  0  0  0
   25.9930   14.6100    1.8830 N   0  0  0  0  0  0  0  0  0  0  0  0
   25.7050   14.8540    0.5700 N   0  0  0  0  0  0  0  0  0  0  0  0
   26.7900   15.3330    0.0010 C   0  0  0  0  0  0  0  0  0  0  0  0
   27.7970   15.4510    0.9340 N   0  0  0  0  0  0  0  0  0  0  0  0
   29.0600   16.0560    0.7070 C   0  0  0  0  0  0  0  0  0  0  0  0
   29.6530   16.8130    1.7320 C   0  0  0  0  0  0  0  0  0  0  0  0
   30.8480   17.4990    1.5060 C   0  0  0  0  0  0  0  0  0  0  0  0
   31.4520   17.4470    0.2540 C   0  0  0  0  0  0  0  0  0  0  0  0
   32.9140   18.3080   -0.0260 Cl  0  0  0  0  0  0  0  0  0  0  0  0
   30.8810   16.7000   -0.7720 C   0  0  0  0  0  0  0  0  0  0  0  0
   29.6920   15.9820   -0.5510 C   0  0  0  0  0  0  0  0  0  0  0  0
   29.2070   15.1080   -1.6700 C   0  0  0  0  0  0  0  0  0  0  0  0
   30.2070   14.2490   -2.3860 C   0  0  0  0  0  0  0  0  0  0  0  0
   30.0150   12.8680   -2.5230 C   0  0  0  0  0  0  0  0  0  0  0  0
   30.9650   12.0960   -3.1960 C   0  0  0  0  0  0  0  0  0  0  0  0
   32.0970   12.6990   -3.7430 C   0  0  0  0  0  0  0  0  0  0  0  0
   32.2810   14.0760   -3.6270 C   0  0  0  0  0  0  0  0  0  0  0  0
   31.3360   14.8530   -2.9550 C   0  0  0  0  0  0  0  0  0  0  0  0
   27.9840   15.0300   -2.0700 N   0  0  0  0  0  0  0  0  0  0  0  0
   26.9400   15.7920   -1.3980 C   0  0  0  0  0  0  0  0  0  0  0  0
   27.3057   14.9193    4.2192 H   0  0  0  0  0  0  0  0  0  0  0  0
   28.2640   13.6270    3.4203 H   0  0  0  0  0  0  0  0  0  0  0  0
   28.8638   15.3201    3.4203 H   0  0  0  0  0  0  0  0  0  0  0  0
   29.1720   16.8655    2.7199 H   0  0  0  0  0  0  0  0  0  0  0  0
   31.3113   18.0799    2.3171 H   0  0  0  0  0  0  0  0  0  0  0  0
   31.3620   16.6710   -1.7608 H   0  0  0  0  0  0  0  0  0  0  0  0
   29.1174   12.3922   -2.1012 H   0  0  0  0  0  0  0  0  0  0  0  0
   30.8197   11.0101   -3.2946 H   0  0  0  0  0  0  0  0  0  0  0  0
   32.8461   12.0872   -4.2669 H   0  0  0  0  0  0  0  0  0  0  0  0
   33.1714   14.5505   -4.0653 H   0  0  0  0  0  0  0  0  0  0  0  0
   31.4778   15.9407   -2.8720 H   0  0  0  0  0  0  0  0  0  0  0  0
   27.2086   16.8587   -1.4033 H   0  0  0  0  0  0  0  0  0  0  0  0
   25.9883   15.6409   -1.9286 H   0  0  0  0  0  0  0  0  0  0  0  0
  1  2  1  0
  2  3  2  0
  3  4  1  0
  4  5  2  0
  5  6  1  0
  6  7  1  0
  7  8  2  0
  8  9  1  0
  9 10  2  0
 10 11  1  0
 10 12  1  0
 12 13  2  0
 13 14  1  0
 14 15  1  0
 15 16  2  0
 16 17  1  0
 17 18  2  0
 18 19  1  0
 19 20  2  0
 14 21  2  0
 21 22  1  0
  6  2  1  0
 13  7  1  0
 20 15  1  0
 22  5  1  0
  1 23  1  0
  1 24  1  0
  1 25  1  0
  8 26  1  0
  9 27  1  0
 12 28  1  0
 16 29  1  0
 17 30  1  0
 18 31  1  0
 19 32  1  0
 20 33  1  0
 22 34  1  0
 22 35  1  0
M  END
>  <meeko>  (4) 
{"is_sidechain": [false], "free_energy": -6.979, "intermolecular_energy": -7.664, "internal_energy": 0.167}

$$$$
3u5j_ligand
     RDKit          3D

 35 38  0  0  0  0  0  0  0  0999 V2000
   26.3560   11.9990   -4.0550 C   0  0  0  0  0  0  0  0  0  0  0  0
   26.5610   13.4370   -4.3440 C   0  0  0  0  0  0  0  0  0  0  0  0
   26.6860   13.9370   -5.5570 N   0  0  0  0  0  0  0  0  0  0  0  0
   27.0070   15.2600   -5.4460 N   0  0  0  0  0  0  0  0  0  0  0  0
   27.0710   15.5550   -4.1660 C   0  0  0  0  0  0  0  0  0  0  0  0
   26.7550   14.4460   -3.4120 N   0  0  0  0  0  0  0  0  0  0  0  0
   26.5910   14.4310   -2.0030 C   0  0  0  0  0  0  0  0  0  0  0  0
   25.5940   13.6180   -1.4360 C   0  0  0  0  0  0  0  0  0  0  0  0
   25.3450   13.6550   -0.0620 C   0  0  0  0  0  0  0  0  0  0  0  0
   26.0790   14.5110    0.7530 C   0  0  0  0  0  0  0  0  0  0  0  0
   25.7580   14.5660    2.4410 Cl  0  0  0  0  0  0  0  0  0  0  0  0
   27.0730   15.3200    0.2100 C   0  0  0  0  0  0  0  0  0  0  0  0
   27.3530   15.2730   -1.1680 C   0  0  0  0  0  0  0  0  0  0  0  0
   28.5170   16.0850   -1.6530 C   0  0  0  0  0  0  0  0  0  0  0  0
   29.7920   16.0450   -0.8630 C   0  0  0  0  0  0  0  0  0  0  0  0
   30.7070   14.9950   -1.0100 C   0  0  0  0  0  0  0  0  0  0  0  0
   31.8850   14.9880   -0.2600 C   0  0  0  0  0  0  0  0  0  0  0  0
   32.1570   16.0300    0.6260 C   0  0  0  0  0  0  0  0  0  0  0  0
   31.2590   17.0860    0.7600 C   0  0  0  0  0  0  0  0  0  0  0  0
   30.0790   17.0990    0.0140 C   0  0  0  0  0  0  0  0  0  0  0  0
   28.5130   16.8230   -2.7110 N   0  0  0  0  0  0  0  0  0  0  0  0
   27.3340   16.8810   -3.5640 C   0  0  0  0  0  0  0  0  0  0  0  0
   26.3338   11.8433   -2.9663 H   0  0  0  0  0  0  0  0  0  0  0  0
   25.4018   11.6696   -4.4920 H   0  0  0  0  0  0  0  0  0  0  0  0
   27.1801   11.4160   -4.4920 H   0  0  0  0  0  0  0  0  0  0  0  0
   25.0054   12.9475   -2.0794 H   0  0  0  0  0  0  0  0  0  0  0  0
   24.5698   13.0084    0.3750 H   0  0  0  0  0  0  0  0  0  0  0  0
   27.6424   15.9994    0.8614 H   0  0  0  0  0  0  0  0  0  0  0  0
   30.4981   14.1770   -1.7152 H   0  0  0  0  0  0  0  0  0  0  0  0
   32.5998   14.1589   -0.3683 H   0  0  0  0  0  0  0  0  0  0  0  0
   33.0826   16.0178    1.2202 H   0  0  0  0  0  0  0  0  0  0  0  0
   31.4796   17.9104    1.4541 H   0  0  0  0  0  0  0  0  0  0  0  0
   29.3741   17.9374    0.1149 H   0  0  0  0  0  0  0  0  0  0  0  0
   26.4650   17.1852   -2.9621 H   0  0  0  0  0  0  0  0  0  0  0  0
   27.5091   17.6110   -4.3680 H   0  0  0  0  0  0  0  0  0  0  0  0
  1  2  1  0
  2  3  2  0
  3  4  1  0
  4  5  2  0
  5  6  1  0
  6  7  1  0
  7  8  2  0
  8  9  1  0
  9 10  2  0
 10 11  1  0
 10 12  1  0
 12 13  2  0
 13 14  1  0
 14 15  1  0
 15 16  2  0
 16 17  1  0
 17 18  2  0
 18 19  1  0
 19 20  2  0
 14 21  2  0
 21 22  1  0
  6  2  1  0
 13  7  1  0
 20 15  1  0
 22  5  1  0
  1 23  1  0
  1 24  1  0
  1 25  1  0
  8 26  1  0
  9 27  1  0
 12 28  1  0
 16 29  1  0
 17 30  1  0
 18 31  1  0
 19 32  1  0
 20 33  1  0
 22 34  1  0
 22 35  1  0
M  END
>  <meeko>  (5) 
{"is_sidechain": [false], "free_energy": -6.905, "intermolecular_energy": -6.987, "internal_energy": -0.431}

$$$$
3u5j_ligand
     RDKit          3D

 35 38  0  0  0  0  0  0  0  0999 V2000
   28.7910   10.9980   -4.1690 C   0  0  0  0  0  0  0  0  0  0  0  0
   30.0890   11.6250   -4.5080 C   0  0  0  0  0  0  0  0  0  0  0  0
   31.1770   10.9480   -4.8160 N   0  0  0  0  0  0  0  0  0  0  0  0
   32.2150   11.8300   -4.9260 N   0  0  0  0  0  0  0  0  0  0  0  0
   31.7480   13.0360   -4.6860 C   0  0  0  0  0  0  0  0  0  0  0  0
   30.3910   12.9770   -4.4550 N   0  0  0  0  0  0  0  0  0  0  0  0
   29.5360   14.0970   -4.2970 C   0  0  0  0  0  0  0  0  0  0  0  0
   28.2360   14.0500   -4.8300 C   0  0  0  0  0  0  0  0  0  0  0  0
   27.4050   15.1710   -4.7750 C   0  0  0  0  0  0  0  0  0  0  0  0
   27.8690   16.3500   -4.2000 C   0  0  0  0  0  0  0  0  0  0  0  0
   26.8500   17.7340   -4.1500 Cl  0  0  0  0  0  0  0  0  0  0  0  0
   29.1520   16.4150   -3.6640 C   0  0  0  0  0  0  0  0  0  0  0  0
   29.9890   15.2850   -3.6880 C   0  0  0  0  0  0  0  0  0  0  0  0
   31.3080   15.4020   -2.9840 C   0  0  0  0  0  0  0  0  0  0  0  0
   31.3370   16.0400   -1.6270 C   0  0  0  0  0  0  0  0  0  0  0  0
   30.2560   15.9190   -0.7430 C   0  0  0  0  0  0  0  0  0  0  0  0
   30.3140   16.5250    0.5150 C   0  0  0  0  0  0  0  0  0  0  0  0
   31.4500   17.2390    0.8960 C   0  0  0  0  0  0  0  0  0  0  0  0
   32.5350   17.3430    0.0270 C   0  0  0  0  0  0  0  0  0  0  0  0
   32.4830   16.7410   -1.2310 C   0  0  0  0  0  0  0  0  0  0  0  0
   32.4360   14.9900   -3.4550 N   0  0  0  0  0  0  0  0  0  0  0  0
   32.4930   14.3140   -4.7430 C   0  0  0  0  0  0  0  0  0  0  0  0
   28.6834   10.9460   -3.0755 H   0  0  0  0  0  0  0  0  0  0  0  0
   27.9721   11.5998   -4.5898 H   0  0  0  0  0  0  0  0  0  0  0  0
   28.7534    9.9824   -4.5898 H   0  0  0  0  0  0  0  0  0  0  0  0
   27.8702   13.1223   -5.2943 H   0  0  0  0  0  0  0  0  0  0  0  0
   26.3856   15.1220   -5.1854 H   0  0  0  0  0  0  0  0  0  0  0  0
   29.5128   17.3543   -3.2197 H   0  0  0  0  0  0  0  0  0  0  0  0
   29.3635   15.3481   -1.0389 H   0  0  0  0  0  0  0  0  0  0  0  0
   29.4623   16.4387    1.2058 H   0  0  0  0  0  0  0  0  0  0  0  0
   31.4898   17.7209    1.8840 H   0  0  0  0  0  0  0  0  0  0  0  0
   33.4328   17.9000    0.3331 H   0  0  0  0  0  0  0  0  0  0  0  0
   33.3432   16.8172   -1.9124 H   0  0  0  0  0  0  0  0  0  0  0  0
   32.0458   14.9607   -5.5123 H   0  0  0  0  0  0  0  0  0  0  0  0
   33.5440   14.1047   -4.9910 H   0  0  0  0  0  0  0  0  0  0  0  0
  1  2  1  0
  2  3  2  0
  3  4  1  0
  4  5  2  0
  5  6  1  0
  6  7  1  0
  7  8  2  0
  8  9  1  0
  9 10  2  0
 10 11  1  0
 10 12  1  0
 12 13  2  0
 13 14  1  0
 14 15  1  0
 15 16  2  0
 16 17  1  0
 17 18  2  0
 18 19  1  0
 19 20  2  0
 14 21  2  0
 21 22  1  0
  6  2  1  0
 13  7  1  0
 20 15  1  0
 22  5  1  0
  1 23  1  0
  1 24  1  0
  1 25  1  0
  8 26  1  0
  9 27  1  0
 12 28  1  0
 16 29  1  0
 17 30  1  0
 18 31  1  0
 19 32  1  0
 20 33  1  0
 22 34  1  0
 22 35  1  0
M  END
>  <meeko>  (6) 
{"is_sidechain": [false], "free_energy": -6.857, "intermolecular_energy": -7.148, "internal_energy": -0.22}

$$$$
3u5j_ligand
     RDKit          3D

 35 38  0  0  0  0  0  0  0  0999 V2000
   34.4380   13.5220   -5.0720 C   0  0  0  0  0  0  0  0  0  0  0  0
   33.1960   12.7750   -4.7690 C   0  0  0  0  0  0  0  0  0  0  0  0
   32.8730   11.6230   -5.3210 N   0  0  0  0  0  0  0  0  0  0  0  0
   31.6050   11.2980   -4.9280 N   0  0  0  0  0  0  0  0  0  0  0  0
   31.1690   12.2540   -4.1380 C   0  0  0  0  0  0  0  0  0  0  0  0
   32.1520   13.2040   -3.9630 N   0  0  0  0  0  0  0  0  0  0  0  0
   32.0820   14.3040   -3.0700 C   0  0  0  0  0  0  0  0  0  0  0  0
   33.2410   14.7090   -2.3860 C   0  0  0  0  0  0  0  0  0  0  0  0
   33.1820   15.7240   -1.4290 C   0  0  0  0  0  0  0  0  0  0  0  0
   31.9660   16.3340   -1.1380 C   0  0  0  0  0  0  0  0  0  0  0  0
   31.8940   17.5710    0.0530 Cl  0  0  0  0  0  0  0  0  0  0  0  0
   30.8080   15.9480   -1.8080 C   0  0  0  0  0  0  0  0  0  0  0  0
   30.8570   14.9460   -2.7930 C   0  0  0  0  0  0  0  0  0  0  0  0
   29.5920   14.6730   -3.5500 C   0  0  0  0  0  0  0  0  0  0  0  0
   28.7890   15.8430   -4.0400 C   0  0  0  0  0  0  0  0  0  0  0  0
   27.7630   16.3980   -3.2630 C   0  0  0  0  0  0  0  0  0  0  0  0
   27.0350   17.4870   -3.7470 C   0  0  0  0  0  0  0  0  0  0  0  0
   27.3360   18.0310   -4.9960 C   0  0  0  0  0  0  0  0  0  0  0  0
   28.3700   17.4950   -5.7620 C   0  0  0  0  0  0  0  0  0  0  0  0
   29.1010   16.4050   -5.2840 C   0  0  0  0  0  0  0  0  0  0  0  0
   29.1310   13.5000   -3.8230 N   0  0  0  0  0  0  0  0  0  0  0  0
   29.8710   12.3100   -3.4290 C   0  0  0  0  0  0  0  0  0  0  0  0
   34.9274   13.8164   -4.1319 H   0  0  0  0  0  0  0  0  0  0  0  0
   35.1175   12.8826   -5.6546 H   0  0  0  0  0  0  0  0  0  0  0  0
   34.1917   14.4220   -5.6546 H   0  0  0  0  0  0  0  0  0  0  0  0
   34.2026   14.2223   -2.6064 H   0  0  0  0  0  0  0  0  0  0  0  0
   34.0961   16.0410   -0.9056 H   0  0  0  0  0  0  0  0  0  0  0  0
   29.8494   16.4298   -1.5652 H   0  0  0  0  0  0  0  0  0  0  0  0
   27.5316   15.9765   -2.2737 H   0  0  0  0  0  0  0  0  0  0  0  0
   26.2227   17.9167   -3.1424 H   0  0  0  0  0  0  0  0  0  0  0  0
   26.7562   18.8846   -5.3771 H   0  0  0  0  0  0  0  0  0  0  0  0
   28.6103   17.9305   -6.7431 H   0  0  0  0  0  0  0  0  0  0  0  0
   29.9223   15.9878   -5.8852 H   0  0  0  0  0  0  0  0  0  0  0  0
   30.0510   12.3372   -2.3442 H   0  0  0  0  0  0  0  0  0  0  0  0
   29.2815   11.4190   -3.6910 H   0  0  0  0  0  0  0  0  0  0  0  0
  1  2  1  0
  2  3  2  0
  3  4  1  0
  4  5  2  0
  5  6  1  0
  6  7  1  0
  7  8  2  0
  8  9  1  0
  9 10  2  0
 10 11  1  0
 10 12  1  0
 12 13  2  0
 13 14  1  0
 14 15  1  0
 15 16  2  0
 16 17  1  0
 17 18  2  0
 18 19  1  0
 19 20  2  0
 14 21  2  0
 21 22  1  0
  6  2  1  0
 13  7  1  0
 20 15  1  0
 22  5  1  0
  1 23  1  0
  1 24  1  0
  1 25  1  0
  8 26  1  0
  9 27  1  0
 12 28  1  0
 16 29  1  0
 17 30  1  0
 18 31  1  0
 19 32  1  0
 20 33  1  0
 22 34  1  0
 22 35  1  0
M  END
>  <meeko>  (7) 
{"is_sidechain": [false], "free_energy": -6.817, "intermolecular_energy": -6.953, "internal_energy": -0.373}

$$$$
3u5j_ligand
     RDKit          3D

 35 38  0  0  0  0  0  0  0  0999 V2000
   26.8150   14.4550   -2.6400 C   0  0  0  0  0  0  0  0  0  0  0  0
   27.2640   15.2310   -3.8200 C   0  0  0  0  0  0  0  0  0  0  0  0
   26.4980   15.5120   -4.8540 N   0  0  0  0  0  0  0  0  0  0  0  0
   27.2700   16.1060   -5.8130 N   0  0  0  0  0  0  0  0  0  0  0  0
   28.4990   16.1830   -5.3510 C   0  0  0  0  0  0  0  0  0  0  0  0
   28.5520   15.6810   -4.0690 N   0  0  0  0  0  0  0  0  0  0  0  0
   29.6830   15.7280   -3.2150 C   0  0  0  0  0  0  0  0  0  0  0  0
   29.4970   15.9480   -1.8390 C   0  0  0  0  0  0  0  0  0  0  0  0
   30.5950   16.0950   -0.9900 C   0  0  0  0  0  0  0  0  0  0  0  0
   31.8850   16.0390   -1.5070 C   0  0  0  0  0  0  0  0  0  0  0  0
   33.2350   16.2390   -0.4600 Cl  0  0  0  0  0  0  0  0  0  0  0  0
   32.0890   15.8190   -2.8660 C   0  0  0  0  0  0  0  0  0  0  0  0
   30.9930   15.6410   -3.7290 C   0  0  0  0  0  0  0  0  0  0  0  0
   31.3000   15.2900   -5.1550 C   0  0  0  0  0  0  0  0  0  0  0  0
   32.3460   14.2480   -5.4220 C   0  0  0  0  0  0  0  0  0  0  0  0
   32.1710   12.9190   -5.0110 C   0  0  0  0  0  0  0  0  0  0  0  0
   33.1630   11.9720   -5.2750 C   0  0  0  0  0  0  0  0  0  0  0  0
   34.3220   12.3440   -5.9580 C   0  0  0  0  0  0  0  0  0  0  0  0
   34.4890   13.6590   -6.3870 C   0  0  0  0  0  0  0  0  0  0  0  0
   33.5010   14.6110   -6.1250 C   0  0  0  0  0  0  0  0  0  0  0  0
   30.7290   15.8160   -6.1850 N   0  0  0  0  0  0  0  0  0  0  0  0
   29.6690   16.7990   -6.0160 C   0  0  0  0  0  0  0  0  0  0  0  0
   27.1175   14.9778   -1.7206 H   0  0  0  0  0  0  0  0  0  0  0  0
   25.7197   14.3554   -2.6617 H   0  0  0  0  0  0  0  0  0  0  0  0
   27.2745   13.4558   -2.6617 H   0  0  0  0  0  0  0  0  0  0  0  0
   28.4781   16.0047   -1.4283 H   0  0  0  0  0  0  0  0  0  0  0  0
   30.4402   16.2550    0.0872 H   0  0  0  0  0  0  0  0  0  0  0  0
   33.1127   15.7842   -3.2671 H   0  0  0  0  0  0  0  0  0  0  0  0
   31.2536   12.6226   -4.4813 H   0  0  0  0  0  0  0  0  0  0  0  0
   33.0307   10.9313   -4.9441 H   0  0  0  0  0  0  0  0  0  0  0  0
   35.1049   11.5976   -6.1579 H   0  0  0  0  0  0  0  0  0  0  0  0
   35.3996   13.9477   -6.9324 H   0  0  0  0  0  0  0  0  0  0  0  0
   33.6306   15.6470   -6.4714 H   0  0  0  0  0  0  0  0  0  0  0  0
   30.0404   17.6310   -5.3997 H   0  0  0  0  0  0  0  0  0  0  0  0
   29.3640   17.1703   -7.0055 H   0  0  0  0  0  0  0  0  0  0  0  0
  1  2  1  0
  2  3  2  0
  3  4  1  0
  4  5  2  0
  5  6  1  0
  6  7  1  0
  7  8  2  0
  8  9  1  0
  9 10  2  0
 10 11  1  0
 10 12  1  0
 12 13  2  0
 13 14  1  0
 14 15  1  0
 15 16  2  0
 16 17  1  0
 17 18  2  0
 18 19  1  0
 19 20  2  0
 14 21  2  0
 21 22  1  0
  6  2  1  0
 13  7  1  0
 20 15  1  0
 22  5  1  0
  1 23  1  0
  1 24  1  0
  1 25  1  0
  8 26  1  0
  9 27  1  0
 12 28  1  0
 16 29  1  0
 17 30  1  0
 18 31  1  0
 19 32  1  0
 20 33  1  0
 22 34  1  0
 22 35  1  0
M  END
>  <meeko>  (8) 
{"is_sidechain": [false], "free_energy": -6.429, "intermolecular_energy": -6.416, "internal_energy": -0.498}

$$$$
3u5j_ligand
     RDKit          3D

 35 38  0  0  0  0  0  0  0  0999 V2000
   27.9470   11.3230   -4.8620 C   0  0  0  0  0  0  0  0  0  0  0  0
   28.4980   12.6020   -5.3660 C   0  0  0  0  0  0  0  0  0  0  0  0
   29.0410   12.7540   -6.5570 N   0  0  0  0  0  0  0  0  0  0  0  0
   29.5720   14.0110   -6.6300 N   0  0  0  0  0  0  0  0  0  0  0  0
   29.3440   14.6130   -5.4830 C   0  0  0  0  0  0  0  0  0  0  0  0
   28.6270   13.7830   -4.6500 N   0  0  0  0  0  0  0  0  0  0  0  0
   28.0890   14.1490   -3.3900 C   0  0  0  0  0  0  0  0  0  0  0  0
   26.8370   13.6400   -3.0030 C   0  0  0  0  0  0  0  0  0  0  0  0
   26.2400   14.0580   -1.8120 C   0  0  0  0  0  0  0  0  0  0  0  0
   26.8780   14.9950   -1.0060 C   0  0  0  0  0  0  0  0  0  0  0  0
   26.1310   15.5210    0.4500 Cl  0  0  0  0  0  0  0  0  0  0  0  0
   28.1200   15.5080   -1.3720 C   0  0  0  0  0  0  0  0  0  0  0  0
   28.7470   15.0750   -2.5540 C   0  0  0  0  0  0  0  0  0  0  0  0
   30.1330   15.5840   -2.8150 C   0  0  0  0  0  0  0  0  0  0  0  0
   31.1140   15.5900   -1.6790 C   0  0  0  0  0  0  0  0  0  0  0  0
   30.7480   15.1540   -0.3990 C   0  0  0  0  0  0  0  0  0  0  0  0
   31.6850   15.1700    0.6370 C   0  0  0  0  0  0  0  0  0  0  0  0
   32.9870   15.6080    0.3960 C   0  0  0  0  0  0  0  0  0  0  0  0
   33.3600   16.0230   -0.8820 C   0  0  0  0  0  0  0  0  0  0  0  0
   32.4280   16.0100   -1.9210 C   0  0  0  0  0  0  0  0  0  0  0  0
   30.5590   16.0220   -3.9510 N   0  0  0  0  0  0  0  0  0  0  0  0
   29.6890   16.0060   -5.1180 C   0  0  0  0  0  0  0  0  0  0  0  0
   27.9502   11.3305   -3.7620 H   0  0  0  0  0  0  0  0  0  0  0  0
   26.9159   11.1996   -5.2248 H   0  0  0  0  0  0  0  0  0  0  0  0
   28.5656   10.4889   -5.2248 H   0  0  0  0  0  0  0  0  0  0  0  0
   26.3240   12.9071   -3.6431 H   0  0  0  0  0  0  0  0  0  0  0  0
   25.2653   13.6463   -1.5112 H   0  0  0  0  0  0  0  0  0  0  0  0
   28.6130   16.2557   -0.7333 H   0  0  0  0  0  0  0  0  0  0  0  0
   29.7240   14.7995   -0.2099 H   0  0  0  0  0  0  0  0  0  0  0  0
   31.3954   14.8366    1.6445 H   0  0  0  0  0  0  0  0  0  0  0  0
   33.7208   15.6261    1.2153 H   0  0  0  0  0  0  0  0  0  0  0  0
   34.3895   16.3609   -1.0715 H   0  0  0  0  0  0  0  0  0  0  0  0
   32.7257   16.3298   -2.9305 H   0  0  0  0  0  0  0  0  0  0  0  0
   28.7666   16.5605   -4.8906 H   0  0  0  0  0  0  0  0  0  0  0  0
   30.2139   16.4774   -5.9620 H   0  0  0  0  0  0  0  0  0  0  0  0
  1  2  1  0
  2  3  2  0
  3  4  1  0
  4  5  2  0
  5  6  1  0
  6  7  1  0
  7  8  2  0
  8  9  1  0
  9 10  2  0
 10 11  1  0
 10 12  1  0
 12 13  2  0
 13 14  1  0
 14 15  1  0
 15 16  2  0
 16 17  1  0
 17 18  2  0
 18 19  1  0
 19 20  2  0
 14 21  2  0
 21 22  1  0
  6  2  1  0
 13  7  1  0
 20 15  1  0
 22  5  1  0
  1 23  1  0
  1 24  1  0
  1 25  1  0
  8 26  1  0
  9 27  1  0
 12 28  1  0
 16 29  1  0
 17 30  1  0
 18 31  1  0
 19 32  1  0
 20 33  1  0
 22 34  1  0
 22 35  1  0
M  END
>  <meeko>  (9) 
{"is_sidechain": [false], "free_energy": -6.283, "intermolecular_energy": -6.973, "internal_energy": 0.212}

$$$$
