3d4z_ligand
     RDKit          3D

 27 28  0  0  0  0  0  0  0  0999 V2000
   41.3590   81.2360  -24.7640 O   0  0  0  0  0  0  0  0  0  0  0  0
   41.6460   81.8330  -26.0290 C   0  0  0  0  0  0  0  0  0  0  0  0
   41.4020   80.8340  -27.1850 C   0  0  2  0  0  0  0  0  0  0  0  0
   42.5760   79.8100  -27.2330 C   0  0  1  0  0  0  0  0  0  0  0  0
   42.4920   78.9140  -26.1210 O   0  0  0  0  0  0  0  0  0  0  0  0
   42.5580   78.9890  -28.5350 C   0  0  2  0  0  0  0  0  0  0  0  0
   43.6360   78.0420  -28.5330 O   0  0  0  0  0  0  0  0  0  0  0  0
   42.7310   79.9170  -29.7410 C   0  0  1  0  0  0  0  0  0  0  0  0
   42.5410   79.2060  -30.9640 O   0  0  0  0  0  0  0  0  0  0  0  0
   41.7810   81.0750  -29.6430 C   0  0  0  0  0  0  0  0  0  0  0  0
   41.3130   81.8410  -30.6340 N   0  0  0  0  0  0  0  0  0  0  0  0
   40.4110   82.7560  -30.1550 C   0  0  0  0  0  0  0  0  0  0  0  0
   40.3220   82.5380  -28.8080 C   0  0  0  0  0  0  0  0  0  0  0  0
   41.2060   81.5050  -28.5060 N   0  0  0  0  0  0  0  0  0  0  0  0
   42.1900   81.2280  -24.2530 H   0  0  0  0  0  0  0  0  0  0  0  0
   40.9959   82.7093  -26.1684 H   0  0  0  0  0  0  0  0  0  0  0  0
   42.7048   82.1308  -26.0424 H   0  0  0  0  0  0  0  0  0  0  0  0
   40.4591   80.3049  -26.9824 H   0  0  0  0  0  0  0  0  0  0  0  0
   43.5142   80.3826  -27.1901 H   0  0  0  0  0  0  0  0  0  0  0  0
   43.3870   78.8300  -25.7380 H   0  0  0  0  0  0  0  0  0  0  0  0
   41.5947   78.4619  -28.6007 H   0  0  0  0  0  0  0  0  0  0  0  0
   43.3030   77.2180  -28.1230 H   0  0  0  0  0  0  0  0  0  0  0  0
   43.7598   80.3063  -29.7362 H   0  0  0  0  0  0  0  0  0  0  0  0
   43.3260   79.4020  -31.5160 H   0  0  0  0  0  0  0  0  0  0  0  0
   41.5650   81.6860  -31.6090 H   0  0  0  0  0  0  0  0  0  0  0  0
   39.8675   83.5141  -30.7380 H   0  0  0  0  0  0  0  0  0  0  0  0
   39.6758   83.0757  -28.0986 H   0  0  0  0  0  0  0  0  0  0  0  0
  1  2  1  0
  2  3  1  0
  3  4  1  0
  4  5  1  0
  4  6  1  0
  6  7  1  0
  6  8  1  0
  8  9  1  0
  8 10  1  0
 10 11  2  0
 11 12  1  0
 12 13  2  0
 13 14  1  0
 14  3  1  0
 14 10  1  0
  1 15  1  0
  2 16  1  0
  2 17  1  0
  3 18  1  1
  4 19  1  1
  5 20  1  0
  6 21  1  6
  7 22  1  0
  8 23  1  6
  9 24  1  0
 11 25  1  0
 12 26  1  0
 13 27  1  0
M  CHG  1  11   1
M  END
>  <meeko>  (1) 
{"is_sidechain": [false], "free_energy": -6.345, "intermolecular_energy": -7.457, "internal_energy": -0.255}

$$$$
3d4z_ligand
     RDKit          3D

 27 28  0  0  0  0  0  0  0  0999 V2000
   44.6670   83.9100  -26.2020 O   0  0  0  0  0  0  0  0  0  0  0  0
   44.3570   82.7420  -26.9620 C   0  0  0  0  0  0  0  0  0  0  0  0
   42.9960   82.8900  -27.6820 C   0  0  2  0  0  0  0  0  0  0  0  0
   41.8730   82.2910  -26.7830 C   0  0  1  0  0  0  0  0  0  0  0  0
   41.6410   83.1410  -25.6560 O   0  0  0  0  0  0  0  0  0  0  0  0
   40.5550   82.1250  -27.5590 C   0  0  2  0  0  0  0  0  0  0  0  0
   39.5400   81.5960  -26.6950 O   0  0  0  0  0  0  0  0  0  0  0  0
   40.7540   81.1510  -28.7240 C   0  0  1  0  0  0  0  0  0  0  0  0
   39.5980   81.1150  -29.5630 O   0  0  0  0  0  0  0  0  0  0  0  0
   41.9740   81.5300  -29.5120 C   0  0  0  0  0  0  0  0  0  0  0  0
   42.2540   81.2370  -30.7870 N   0  0  0  0  0  0  0  0  0  0  0  0
   43.4370   81.8180  -31.1680 C   0  0  0  0  0  0  0  0  0  0  0  0
   43.9010   82.4980  -30.0770 C   0  0  0  0  0  0  0  0  0  0  0  0
   42.9890   82.2800  -29.0470 N   0  0  0  0  0  0  0  0  0  0  0  0
   45.1180   83.6140  -25.3880 H   0  0  0  0  0  0  0  0  0  0  0  0
   45.1450   82.5825  -27.7128 H   0  0  0  0  0  0  0  0  0  0  0  0
   44.2972   81.8846  -26.2755 H   0  0  0  0  0  0  0  0  0  0  0  0
   42.8094   83.9627  -27.8383 H   0  0  0  0  0  0  0  0  0  0  0  0
   42.2126   81.2995  -26.4488 H   0  0  0  0  0  0  0  0  0  0  0  0
   42.4760   83.6090  -25.4590 H   0  0  0  0  0  0  0  0  0  0  0  0
   40.2486   83.1106  -27.9394 H   0  0  0  0  0  0  0  0  0  0  0  0
   39.9830   81.0290  -26.0320 H   0  0  0  0  0  0  0  0  0  0  0  0
   40.9016   80.1414  -28.3129 H   0  0  0  0  0  0  0  0  0  0  0  0
   38.8270   81.1130  -28.9600 H   0  0  0  0  0  0  0  0  0  0  0  0
   41.6140   80.7110  -31.3790 H   0  0  0  0  0  0  0  0  0  0  0  0
   43.9168   81.7500  -32.1555 H   0  0  0  0  0  0  0  0  0  0  0  0
   44.8189   83.1018  -30.0227 H   0  0  0  0  0  0  0  0  0  0  0  0
  1  2  1  0
  2  3  1  0
  3  4  1  0
  4  5  1  0
  4  6  1  0
  6  7  1  0
  6  8  1  0
  8  9  1  0
  8 10  1  0
 10 11  2  0
 11 12  1  0
 12 13  2  0
 13 14  1  0
 14  3  1  0
 14 10  1  0
  1 15  1  0
  2 16  1  0
  2 17  1  0
  3 18  1  6
  4 19  1  1
  5 20  1  0
  6 21  1  6
  7 22  1  0
  8 23  1  1
  9 24  1  0
 11 25  1  0
 12 26  1  0
 13 27  1  0
M  CHG  1  11   1
M  END
>  <meeko>  (2) 
{"is_sidechain": [false], "free_energy": -6.22, "intermolecular_energy": -7.352, "internal_energy": -0.214}

$$$$
3d4z_ligand
     RDKit          3D

 27 28  0  0  0  0  0  0  0  0999 V2000
   41.4440   78.6920  -28.9310 O   0  0  0  0  0  0  0  0  0  0  0  0
   40.6050   79.7040  -28.3730 C   0  0  0  0  0  0  0  0  0  0  0  0
   41.2420   81.1050  -28.5280 C   0  0  2  0  0  0  0  0  0  0  0  0
   42.4850   81.0010  -29.4610 C   0  0  1  0  0  0  0  0  0  0  0  0
   42.0690   80.7770  -30.8110 O   0  0  0  0  0  0  0  0  0  0  0  0
   43.3390   82.2810  -29.4110 C   0  0  2  0  0  0  0  0  0  0  0  0
   44.4580   82.1590  -30.3000 O   0  0  0  0  0  0  0  0  0  0  0  0
   43.8690   82.5000  -27.9910 C   0  0  1  0  0  0  0  0  0  0  0  0
   44.5150   83.7690  -27.8770 O   0  0  0  0  0  0  0  0  0  0  0  0
   42.7510   82.3780  -26.9970 C   0  0  0  0  0  0  0  0  0  0  0  0
   42.6840   82.8980  -25.7670 N   0  0  0  0  0  0  0  0  0  0  0  0
   41.4700   82.6230  -25.1900 C   0  0  0  0  0  0  0  0  0  0  0  0
   40.7620   81.9020  -26.1120 C   0  0  0  0  0  0  0  0  0  0  0  0
   41.5900   81.7360  -27.2190 N   0  0  0  0  0  0  0  0  0  0  0  0
   42.3480   78.8510  -28.5990 H   0  0  0  0  0  0  0  0  0  0  0  0
   39.6345   79.6916  -28.8907 H   0  0  0  0  0  0  0  0  0  0  0  0
   40.4744   79.4968  -27.3006 H   0  0  0  0  0  0  0  0  0  0  0  0
   40.4938   81.7700  -28.9840 H   0  0  0  0  0  0  0  0  0  0  0  0
   43.0933   80.1564  -29.1052 H   0  0  0  0  0  0  0  0  0  0  0  0
   41.0920   80.7870  -30.8270 H   0  0  0  0  0  0  0  0  0  0  0  0
   42.7105   83.1316  -29.7134 H   0  0  0  0  0  0  0  0  0  0  0  0
   44.1380   82.3470  -31.2050 H   0  0  0  0  0  0  0  0  0  0  0  0
   44.6166   81.7228  -27.7742 H   0  0  0  0  0  0  0  0  0  0  0  0
   44.6600   84.0820  -28.7940 H   0  0  0  0  0  0  0  0  0  0  0  0
   43.4280   83.4730  -25.3760 H   0  0  0  0  0  0  0  0  0  0  0  0
   41.1333   82.9225  -24.1865 H   0  0  0  0  0  0  0  0  0  0  0  0
   39.7346   81.5253  -26.0002 H   0  0  0  0  0  0  0  0  0  0  0  0
  1  2  1  0
  2  3  1  0
  3  4  1  0
  4  5  1  0
  4  6  1  0
  6  7  1  0
  6  8  1  0
  8  9  1  0
  8 10  1  0
 10 11  2  0
 11 12  1  0
 12 13  2  0
 13 14  1  0
 14  3  1  0
 14 10  1  0
  1 15  1  0
  2 16  1  0
  2 17  1  0
  3 18  1  6
  4 19  1  1
  5 20  1  0
  6 21  1  6
  7 22  1  0
  8 23  1  1
  9 24  1  0
 11 25  1  0
 12 26  1  0
 13 27  1  0
M  CHG  1  11   1
M  END
>  <meeko>  (3) 
{"is_sidechain": [false], "free_energy": -6.209, "intermolecular_energy": -7.288, "internal_energy": -0.264}

$$$$
3d4z_ligand
     RDKit          3D

 27 28  0  0  0  0  0  0  0  0999 V2000
   39.6990   80.4680  -27.2670 O   0  0  0  0  0  0  0  0  0  0  0  0
   40.6670   79.7810  -28.0600 C   0  0  0  0  0  0  0  0  0  0  0  0
   42.0870   80.3440  -27.8190 C   0  0  2  0  0  0  0  0  0  0  0  0
   42.0840   81.2010  -26.5170 C   0  0  1  0  0  0  0  0  0  0  0  0
   41.9650   80.3530  -25.3710 O   0  0  0  0  0  0  0  0  0  0  0  0
   43.3700   82.0360  -26.3860 C   0  0  2  0  0  0  0  0  0  0  0  0
   43.3420   82.7910  -25.1660 O   0  0  0  0  0  0  0  0  0  0  0  0
   43.4790   83.0150  -27.5580 C   0  0  1  0  0  0  0  0  0  0  0  0
   44.7460   83.6750  -27.5550 O   0  0  0  0  0  0  0  0  0  0  0  0
   43.2550   82.2940  -28.8550 C   0  0  0  0  0  0  0  0  0  0  0  0
   43.6700   82.6500  -30.0770 N   0  0  0  0  0  0  0  0  0  0  0  0
   43.3260   81.6970  -31.0020 C   0  0  0  0  0  0  0  0  0  0  0  0
   42.6730   80.7130  -30.3140 C   0  0  0  0  0  0  0  0  0  0  0  0
   42.6140   81.1190  -28.9830 N   0  0  0  0  0  0  0  0  0  0  0  0
   40.0490   81.3630  -27.0950 H   0  0  0  0  0  0  0  0  0  0  0  0
   40.6546   78.7132  -27.7963 H   0  0  0  0  0  0  0  0  0  0  0  0
   40.4117   79.9209  -29.1208 H   0  0  0  0  0  0  0  0  0  0  0  0
   42.7730   79.4926  -27.6988 H   0  0  0  0  0  0  0  0  0  0  0  0
   41.2243   81.8847  -26.5750 H   0  0  0  0  0  0  0  0  0  0  0  0
   41.6450   80.8990  -24.6270 H   0  0  0  0  0  0  0  0  0  0  0  0
   44.2312   81.3517  -26.3855 H   0  0  0  0  0  0  0  0  0  0  0  0
   42.6870   83.5090  -25.2780 H   0  0  0  0  0  0  0  0  0  0  0  0
   42.7003   83.7837  -27.4451 H   0  0  0  0  0  0  0  0  0  0  0  0
   45.4100   82.9870  -27.7650 H   0  0  0  0  0  0  0  0  0  0  0  0
   44.2240   83.4880  -30.2420 H   0  0  0  0  0  0  0  0  0  0  0  0
   43.5342   81.7202  -32.0819 H   0  0  0  0  0  0  0  0  0  0  0  0
   42.2707   79.7784  -30.7319 H   0  0  0  0  0  0  0  0  0  0  0  0
  1  2  1  0
  2  3  1  0
  3  4  1  0
  4  5  1  0
  4  6  1  0
  6  7  1  0
  6  8  1  0
  8  9  1  0
  8 10  1  0
 10 11  2  0
 11 12  1  0
 12 13  2  0
 13 14  1  0
 14  3  1  0
 14 10  1  0
  1 15  1  0
  2 16  1  0
  2 17  1  0
  3 18  1  1
  4 19  1  6
  5 20  1  0
  6 21  1  1
  7 22  1  0
  8 23  1  1
  9 24  1  0
 11 25  1  0
 12 26  1  0
 13 27  1  0
M  CHG  1  11   1
M  END
>  <meeko>  (4) 
{"is_sidechain": [false], "free_energy": -6.184, "intermolecular_energy": -7.254, "internal_energy": -0.27}

$$$$
3d4z_ligand
     RDKit          3D

 27 28  0  0  0  0  0  0  0  0999 V2000
   44.0210   77.5450  -27.4050 O   0  0  0  0  0  0  0  0  0  0  0  0
   43.1860   78.6700  -27.1320 C   0  0  0  0  0  0  0  0  0  0  0  0
   44.0270   79.9530  -26.9350 C   0  0  2  0  0  0  0  0  0  0  0  0
   44.8220   79.8440  -25.5990 C   0  0  1  0  0  0  0  0  0  0  0  0
   45.8760   78.8870  -25.7330 O   0  0  0  0  0  0  0  0  0  0  0  0
   45.4300   81.1980  -25.1910 C   0  0  2  0  0  0  0  0  0  0  0  0
   46.1740   81.0530  -23.9730 O   0  0  0  0  0  0  0  0  0  0  0  0
   44.3160   82.2220  -24.9580 C   0  0  1  0  0  0  0  0  0  0  0  0
   44.8570   83.5280  -24.7510 O   0  0  0  0  0  0  0  0  0  0  0  0
   43.3600   82.2180  -26.1160 C   0  0  0  0  0  0  0  0  0  0  0  0
   42.5420   83.1990  -26.5110 N   0  0  0  0  0  0  0  0  0  0  0  0
   41.8720   82.8410  -27.6530 C   0  0  0  0  0  0  0  0  0  0  0  0
   42.3020   81.5830  -27.9710 C   0  0  0  0  0  0  0  0  0  0  0  0
   43.2060   81.2020  -26.9840 N   0  0  0  0  0  0  0  0  0  0  0  0
   44.4980   77.3310  -26.5800 H   0  0  0  0  0  0  0  0  0  0  0  0
   42.4963   78.8186  -27.9759 H   0  0  0  0  0  0  0  0  0  0  0  0
   42.6267   78.4732  -26.2055 H   0  0  0  0  0  0  0  0  0  0  0  0
   44.7306   80.0306  -27.7769 H   0  0  0  0  0  0  0  0  0  0  0  0
   44.1148   79.5253  -24.8191 H   0  0  0  0  0  0  0  0  0  0  0  0
   45.8680   78.5610  -26.6540 H   0  0  0  0  0  0  0  0  0  0  0  0
   46.0931   81.5403  -25.9992 H   0  0  0  0  0  0  0  0  0  0  0  0
   45.6640   81.4900  -23.2610 H   0  0  0  0  0  0  0  0  0  0  0  0
   43.7670   81.9384  -24.0480 H   0  0  0  0  0  0  0  0  0  0  0  0
   45.1690   83.8340  -25.6280 H   0  0  0  0  0  0  0  0  0  0  0  0
   42.5050   84.1010  -26.0390 H   0  0  0  0  0  0  0  0  0  0  0  0
   41.1358   83.4454  -28.2031 H   0  0  0  0  0  0  0  0  0  0  0  0
   41.9924   80.9857  -28.8413 H   0  0  0  0  0  0  0  0  0  0  0  0
  1  2  1  0
  2  3  1  0
  3  4  1  0
  4  5  1  0
  4  6  1  0
  6  7  1  0
  6  8  1  0
  8  9  1  0
  8 10  1  0
 10 11  2  0
 11 12  1  0
 12 13  2  0
 13 14  1  0
 14  3  1  0
 14 10  1  0
  1 15  1  0
  2 16  1  0
  2 17  1  0
  3 18  1  6
  4 19  1  1
  5 20  1  0
  6 21  1  6
  7 22  1  0
  8 23  1  1
  9 24  1  0
 11 25  1  0
 12 26  1  0
 13 27  1  0
M  CHG  1  11   1
M  END
>  <meeko>  (5) 
{"is_sidechain": [false], "free_energy": -6.162, "intermolecular_energy": -7.25, "internal_energy": -0.247}

$$$$
3d4z_ligand
     RDKit          3D

 27 28  0  0  0  0  0  0  0  0999 V2000
   44.8950   83.8170  -27.5160 O   0  0  0  0  0  0  0  0  0  0  0  0
   44.0450   83.0900  -26.6290 C   0  0  0  0  0  0  0  0  0  0  0  0
   43.0200   82.2380  -27.4130 C   0  0  2  0  0  0  0  0  0  0  0  0
   43.1360   82.5650  -28.9320 C   0  0  1  0  0  0  0  0  0  0  0  0
   44.3500   82.0220  -29.4590 O   0  0  0  0  0  0  0  0  0  0  0  0
   41.9500   81.9920  -29.7270 C   0  0  2  0  0  0  0  0  0  0  0  0
   42.1040   82.2900  -31.1220 O   0  0  0  0  0  0  0  0  0  0  0  0
   40.6420   82.6210  -29.2390 C   0  0  1  0  0  0  0  0  0  0  0  0
   39.5130   81.9800  -29.8360 O   0  0  0  0  0  0  0  0  0  0  0  0
   40.5640   82.5550  -27.7420 C   0  0  0  0  0  0  0  0  0  0  0  0
   39.4690   82.5850  -26.9730 N   0  0  0  0  0  0  0  0  0  0  0  0
   39.8020   82.4340  -25.6510 C   0  0  0  0  0  0  0  0  0  0  0  0
   41.1620   82.3030  -25.6100 C   0  0  0  0  0  0  0  0  0  0  0  0
   41.6190   82.4110  -26.9210 N   0  0  0  0  0  0  0  0  0  0  0  0
   44.8380   83.3850  -28.3900 H   0  0  0  0  0  0  0  0  0  0  0  0
   44.6611   82.4262  -26.0046 H   0  0  0  0  0  0  0  0  0  0  0  0
   43.4957   83.8093  -26.0038 H   0  0  0  0  0  0  0  0  0  0  0  0
   43.2617   81.1781  -27.2452 H   0  0  0  0  0  0  0  0  0  0  0  0
   43.1322   83.6602  -29.0342 H   0  0  0  0  0  0  0  0  0  0  0  0
   44.1700   81.7180  -30.3700 H   0  0  0  0  0  0  0  0  0  0  0  0
   41.9236   80.9027  -29.5766 H   0  0  0  0  0  0  0  0  0  0  0  0
   41.5160   83.0440  -31.3290 H   0  0  0  0  0  0  0  0  0  0  0  0
   40.6278   83.6776  -29.5445 H   0  0  0  0  0  0  0  0  0  0  0  0
   39.1610   81.3660  -29.1590 H   0  0  0  0  0  0  0  0  0  0  0  0
   38.5300   82.6430  -27.3630 H   0  0  0  0  0  0  0  0  0  0  0  0
   39.1120   82.4209  -24.7944 H   0  0  0  0  0  0  0  0  0  0  0  0
   41.7779   82.1428  -24.7127 H   0  0  0  0  0  0  0  0  0  0  0  0
  1  2  1  0
  2  3  1  0
  3  4  1  0
  4  5  1  0
  4  6  1  0
  6  7  1  0
  6  8  1  0
  8  9  1  0
  8 10  1  0
 10 11  2  0
 11 12  1  0
 12 13  2  0
 13 14  1  0
 14  3  1  0
 14 10  1  0
  1 15  1  0
  2 16  1  0
  2 17  1  0
  3 18  1  6
  4 19  1  1
  5 20  1  0
  6 21  1  6
  7 22  1  0
  8 23  1  1
  9 24  1  0
 11 25  1  0
 12 26  1  0
 13 27  1  0
M  CHG  1  11   1
M  END
>  <meeko>  (6) 
{"is_sidechain": [false], "free_energy": -6.159, "intermolecular_energy": -7.275, "internal_energy": -0.219}

$$$$
3d4z_ligand
     RDKit          3D

 27 28  0  0  0  0  0  0  0  0999 V2000
   43.8360   78.8280  -27.6490 O   0  0  0  0  0  0  0  0  0  0  0  0
   43.5900   80.1310  -27.1190 C   0  0  0  0  0  0  0  0  0  0  0  0
   42.1210   80.5580  -27.3460 C   0  0  2  0  0  0  0  0  0  0  0  0
   41.9430   81.0120  -28.8260 C   0  0  1  0  0  0  0  0  0  0  0  0
   42.0010   79.8800  -29.6980 O   0  0  0  0  0  0  0  0  0  0  0  0
   40.6010   81.7350  -29.0390 C   0  0  2  0  0  0  0  0  0  0  0  0
   40.4620   82.1150  -30.4150 O   0  0  0  0  0  0  0  0  0  0  0  0
   40.5470   83.0010  -28.1790 C   0  0  1  0  0  0  0  0  0  0  0  0
   39.2480   83.5930  -28.2230 O   0  0  0  0  0  0  0  0  0  0  0  0
   40.9430   82.6830  -26.7670 C   0  0  0  0  0  0  0  0  0  0  0  0
   40.6290   83.3560  -25.6530 N   0  0  0  0  0  0  0  0  0  0  0  0
   41.1210   82.7140  -24.5450 C   0  0  0  0  0  0  0  0  0  0  0  0
   41.7630   81.5970  -25.0020 C   0  0  0  0  0  0  0  0  0  0  0  0
   41.6650   81.6130  -26.3910 N   0  0  0  0  0  0  0  0  0  0  0  0
   42.9960   78.5080  -28.0310 H   0  0  0  0  0  0  0  0  0  0  0  0
   43.7992   80.1246  -26.0391 H   0  0  0  0  0  0  0  0  0  0  0  0
   44.2452   80.8473  -27.6363 H   0  0  0  0  0  0  0  0  0  0  0  0
   41.4799   79.6863  -27.1479 H   0  0  0  0  0  0  0  0  0  0  0  0
   42.7606   81.7111  -29.0559 H   0  0  0  0  0  0  0  0  0  0  0  0
   42.6620   80.0700  -30.3910 H   0  0  0  0  0  0  0  0  0  0  0  0
   39.7878   81.0513  -28.7538 H   0  0  0  0  0  0  0  0  0  0  0  0
   39.5680   81.8460  -30.7070 H   0  0  0  0  0  0  0  0  0  0  0  0
   41.2613   83.7313  -28.5870 H   0  0  0  0  0  0  0  0  0  0  0  0
   38.9760   83.7170  -27.2900 H   0  0  0  0  0  0  0  0  0  0  0  0
   40.0430   84.1890  -25.6660 H   0  0  0  0  0  0  0  0  0  0  0  0
   41.0192   83.0342  -23.4976 H   0  0  0  0  0  0  0  0  0  0  0  0
   42.2618   80.8316  -24.3894 H   0  0  0  0  0  0  0  0  0  0  0  0
  1  2  1  0
  2  3  1  0
  3  4  1  0
  4  5  1  0
  4  6  1  0
  6  7  1  0
  6  8  1  0
  8  9  1  0
  8 10  1  0
 10 11  2  0
 11 12  1  0
 12 13  2  0
 13 14  1  0
 14  3  1  0
 14 10  1  0
  1 15  1  0
  2 16  1  0
  2 17  1  0
  3 18  1  6
  4 19  1  6
  5 20  1  0
  6 21  1  1
  7 22  1  0
  8 23  1  6
  9 24  1  0
 11 25  1  0
 12 26  1  0
 13 27  1  0
M  CHG  1  11   1
M  END
>  <meeko>  (7) 
{"is_sidechain": [false], "free_energy": -6.054, "intermolecular_energy": -7.116, "internal_energy": -0.256}

$$$$
3d4z_ligand
     RDKit          3D

 27 28  0  0  0  0  0  0  0  0999 V2000
   39.1710   82.4520  -25.3170 O   0  0  0  0  0  0  0  0  0  0  0  0
   40.5650   82.7490  -25.2300 C   0  0  0  0  0  0  0  0  0  0  0  0
   41.2390   82.6750  -26.6200 C   0  0  2  0  0  0  0  0  0  0  0  0
   40.1400   82.5260  -27.7150 C   0  0  1  0  0  0  0  0  0  0  0  0
   39.4240   83.7560  -27.8620 O   0  0  0  0  0  0  0  0  0  0  0  0
   40.7450   82.1390  -29.0760 C   0  0  2  0  0  0  0  0  0  0  0  0
   39.7080   82.0360  -30.0620 O   0  0  0  0  0  0  0  0  0  0  0  0
   41.4470   80.7820  -28.9680 C   0  0  1  0  0  0  0  0  0  0  0  0
   42.1660   80.4830  -30.1660 O   0  0  0  0  0  0  0  0  0  0  0  0
   42.3610   80.7670  -27.7780 C   0  0  0  0  0  0  0  0  0  0  0  0
   43.4320   79.9910  -27.5730 N   0  0  0  0  0  0  0  0  0  0  0  0
   44.0500   80.3200  -26.3940 C   0  0  0  0  0  0  0  0  0  0  0  0
   43.3240   81.3450  -25.8530 C   0  0  0  0  0  0  0  0  0  0  0  0
   42.2590   81.5870  -26.7180 N   0  0  0  0  0  0  0  0  0  0  0  0
   38.8710   82.2080  -24.4210 H   0  0  0  0  0  0  0  0  0  0  0  0
   40.6913   83.7632  -24.8232 H   0  0  0  0  0  0  0  0  0  0  0  0
   41.0396   82.0061  -24.5721 H   0  0  0  0  0  0  0  0  0  0  0  0
   41.7929   83.6122  -26.7778 H   0  0  0  0  0  0  0  0  0  0  0  0
   39.4594   81.7248  -27.3911 H   0  0  0  0  0  0  0  0  0  0  0  0
   40.0170   84.4810  -27.5860 H   0  0  0  0  0  0  0  0  0  0  0  0
   41.4673   82.9148  -29.3700 H   0  0  0  0  0  0  0  0  0  0  0  0
   38.9730   81.5260  -29.6660 H   0  0  0  0  0  0  0  0  0  0  0  0
   40.6826   80.0027  -28.8325 H   0  0  0  0  0  0  0  0  0  0  0  0
   43.1140   80.5890  -29.9460 H   0  0  0  0  0  0  0  0  0  0  0  0
   43.7510   79.3100  -28.2590 H   0  0  0  0  0  0  0  0  0  0  0  0
   44.9502   79.8527  -25.9682 H   0  0  0  0  0  0  0  0  0  0  0  0
   43.5397   81.8766  -24.9145 H   0  0  0  0  0  0  0  0  0  0  0  0
  1  2  1  0
  2  3  1  0
  3  4  1  0
  4  5  1  0
  4  6  1  0
  6  7  1  0
  6  8  1  0
  8  9  1  0
  8 10  1  0
 10 11  2  0
 11 12  1  0
 12 13  2  0
 13 14  1  0
 14  3  1  0
 14 10  1  0
  1 15  1  0
  2 16  1  0
  2 17  1  0
  3 18  1  6
  4 19  1  1
  5 20  1  0
  6 21  1  6
  7 22  1  0
  8 23  1  1
  9 24  1  0
 11 25  1  0
 12 26  1  0
 13 27  1  0
M  CHG  1  11   1
M  END
>  <meeko>  (8) 
{"is_sidechain": [false], "free_energy": -6.007, "intermolecular_energy": -7.052, "internal_energy": -0.263}

$$$$
3d4z_ligand
     RDKit          3D

 27 28  0  0  0  0  0  0  0  0999 V2000
   39.8640   82.4050  -30.7470 O   0  0  0  0  0  0  0  0  0  0  0  0
   41.0630   82.1100  -30.0310 C   0  0  0  0  0  0  0  0  0  0  0  0
   40.7490   81.5800  -28.6120 C   0  0  2  0  0  0  0  0  0  0  0  0
   40.6290   82.7850  -27.6310 C   0  0  1  0  0  0  0  0  0  0  0  0
   39.4240   83.5100  -27.8870 O   0  0  0  0  0  0  0  0  0  0  0  0
   40.6270   82.3210  -26.1630 C   0  0  2  0  0  0  0  0  0  0  0  0
   40.4910   83.4520  -25.2910 O   0  0  0  0  0  0  0  0  0  0  0  0
   41.9450   81.6130  -25.8370 C   0  0  1  0  0  0  0  0  0  0  0  0
   41.8980   81.0200  -24.5380 O   0  0  0  0  0  0  0  0  0  0  0  0
   42.2530   80.5840  -26.8840 C   0  0  0  0  0  0  0  0  0  0  0  0
   43.0270   79.4990  -26.7700 N   0  0  0  0  0  0  0  0  0  0  0  0
   43.0070   78.7650  -27.9280 C   0  0  0  0  0  0  0  0  0  0  0  0
   42.1810   79.4310  -28.7900 C   0  0  0  0  0  0  0  0  0  0  0  0
   41.7450   80.5760  -28.1300 N   0  0  0  0  0  0  0  0  0  0  0  0
   39.3460   81.5790  -30.7980 H   0  0  0  0  0  0  0  0  0  0  0  0
   41.6316   81.3464  -30.5819 H   0  0  0  0  0  0  0  0  0  0  0  0
   41.6496   83.0357  -29.9360 H   0  0  0  0  0  0  0  0  0  0  0  0
   39.7899   81.0429  -28.6541 H   0  0  0  0  0  0  0  0  0  0  0  0
   41.5034   83.4316  -27.7962 H   0  0  0  0  0  0  0  0  0  0  0  0
   38.6720   82.9070  -27.7210 H   0  0  0  0  0  0  0  0  0  0  0  0
   39.7830   81.6308  -26.0170 H   0  0  0  0  0  0  0  0  0  0  0  0
   41.3250   83.5390  -24.7880 H   0  0  0  0  0  0  0  0  0  0  0  0
   42.7513   82.3612  -25.8350 H   0  0  0  0  0  0  0  0  0  0  0  0
   42.6580   81.3900  -24.0440 H   0  0  0  0  0  0  0  0  0  0  0  0
   43.4940   79.2520  -25.8990 H   0  0  0  0  0  0  0  0  0  0  0  0
   43.5477   77.8274  -28.1242 H   0  0  0  0  0  0  0  0  0  0  0  0
   41.9122   79.1210  -29.8106 H   0  0  0  0  0  0  0  0  0  0  0  0
  1  2  1  0
  2  3  1  0
  3  4  1  0
  4  5  1  0
  4  6  1  0
  6  7  1  0
  6  8  1  0
  8  9  1  0
  8 10  1  0
 10 11  2  0
 11 12  1  0
 12 13  2  0
 13 14  1  0
 14  3  1  0
 14 10  1  0
  1 15  1  0
  2 16  1  0
  2 17  1  0
  3 18  1  6
  4 19  1  1
  5 20  1  0
  6 21  1  6
  7 22  1  0
  8 23  1  1
  9 24  1  0
 11 25  1  0
 12 26  1  0
 13 27  1  0
M  CHG  1  11   1
M  END
>  <meeko>  (9) 
{"is_sidechain": [false], "free_energy": -5.972, "intermolecular_energy": -7.039, "internal_energy": -0.236}

$$$$
