3uex_ligand
     RDKit          3D

 55 54  0  0  0  0  0  0  0  0999 V2000
   -4.4330   15.1870   14.6780 C   0  0  0  0  0  0  0  0  0  0  0  0
   -5.2000   16.1060   13.7410 C   0  0  0  0  0  0  0  0  0  0  0  0
   -5.2800   17.5290   14.2990 C   0  0  0  0  0  0  0  0  0  0  0  0
   -4.1300   17.8650   15.2520 C   0  0  0  0  0  0  0  0  0  0  0  0
   -4.5240   18.6660   16.5010 C   0  0  0  0  0  0  0  0  0  0  0  0
   -4.0740   18.0670   17.8360 C   0  0  0  0  0  0  0  0  0  0  0  0
   -3.9310   16.5400   17.8440 C   0  0  0  0  0  0  0  0  0  0  0  0
   -2.5520   16.0720   18.3190 C   0  0  0  0  0  0  0  0  0  0  0  0
   -2.5690   14.6720   18.9430 C   0  0  0  0  0  0  0  0  0  0  0  0
   -3.3750   13.6120   18.1850 C   0  0  0  0  0  0  0  0  0  0  0  0
   -3.5890   12.2870   18.9260 C   0  0  0  0  0  0  0  0  0  0  0  0
   -2.6210   12.0860   20.0940 C   0  0  0  0  0  0  0  0  0  0  0  0
   -1.2820   11.4690   19.6750 C   0  0  0  0  0  0  0  0  0  0  0  0
   -1.4320   10.1030   18.9980 C   0  0  0  0  0  0  0  0  0  0  0  0
   -1.6140    8.9490   19.9900 C   0  0  0  0  0  0  0  0  0  0  0  0
   -2.7000    7.9270   19.6400 C   0  0  0  0  0  0  0  0  0  0  0  0
   -4.0710    8.5520   19.3990 C   0  0  0  0  0  0  0  0  0  0  0  0
   -5.1810    7.5620   19.0290 C   0  0  0  0  0  0  0  0  0  0  0  0
   -6.2730    7.7610   19.6380 O   0  0  0  0  0  0  0  0  0  0  0  0
   -4.8930    6.6810   18.1740 O   0  0  0  0  0  0  0  0  0  0  0  0
   -4.6576   15.4561   15.7207 H   0  0  0  0  0  0  0  0  0  0  0  0
   -4.7327   14.1444   14.4957 H   0  0  0  0  0  0  0  0  0  0  0  0
   -3.3536   15.2954   14.4957 H   0  0  0  0  0  0  0  0  0  0  0  0
   -4.6896   16.1314   12.7669 H   0  0  0  0  0  0  0  0  0  0  0  0
   -6.2234   15.7171   13.6344 H   0  0  0  0  0  0  0  0  0  0  0  0
   -5.2558   18.2370   13.4575 H   0  0  0  0  0  0  0  0  0  0  0  0
   -6.2151   17.6044   14.8734 H   0  0  0  0  0  0  0  0  0  0  0  0
   -3.6768   16.9193   15.5841 H   0  0  0  0  0  0  0  0  0  0  0  0
   -3.4425   18.5082   14.6832 H   0  0  0  0  0  0  0  0  0  0  0  0
   -4.0822   19.6696   16.4135 H   0  0  0  0  0  0  0  0  0  0  0  0
   -5.6237   18.6668   16.5253 H   0  0  0  0  0  0  0  0  0  0  0  0
   -3.0976   18.5028   18.0941 H   0  0  0  0  0  0  0  0  0  0  0  0
   -4.8640   18.3063   18.5631 H   0  0  0  0  0  0  0  0  0  0  0  0
   -4.6945   16.1197   18.5151 H   0  0  0  0  0  0  0  0  0  0  0  0
   -4.0588   16.1915   16.8085 H   0  0  0  0  0  0  0  0  0  0  0  0
   -1.8704   16.0613   17.4557 H   0  0  0  0  0  0  0  0  0  0  0  0
   -2.2210   16.7728   19.0996 H   0  0  0  0  0  0  0  0  0  0  0  0
   -1.5289   14.3203   19.0105 H   0  0  0  0  0  0  0  0  0  0  0  0
   -3.0679   14.7858   19.9167 H   0  0  0  0  0  0  0  0  0  0  0  0
   -4.3641   14.0368   17.9587 H   0  0  0  0  0  0  0  0  0  0  0  0
   -2.7821   13.3649   17.2920 H   0  0  0  0  0  0  0  0  0  0  0  0
   -4.6171   12.2671   19.3167 H   0  0  0  0  0  0  0  0  0  0  0  0
   -3.4047   11.4763   18.2057 H   0  0  0  0  0  0  0  0  0  0  0  0
   -2.4246   13.0645   20.5565 H   0  0  0  0  0  0  0  0  0  0  0  0
   -3.0976   11.3837   20.7938 H   0  0  0  0  0  0  0  0  0  0  0  0
   -0.7858   12.1547   18.9724 H   0  0  0  0  0  0  0  0  0  0  0  0
   -0.6917   11.3168   20.5906 H   0  0  0  0  0  0  0  0  0  0  0  0
   -2.3104   10.1361   18.3366 H   0  0  0  0  0  0  0  0  0  0  0  0
   -0.5014    9.9112   18.4438 H   0  0  0  0  0  0  0  0  0  0  0  0
   -0.6567    8.4118   20.0606 H   0  0  0  0  0  0  0  0  0  0  0  0
   -1.9389    9.4160   20.9315 H   0  0  0  0  0  0  0  0  0  0  0  0
   -2.3952    7.3943   18.7272 H   0  0  0  0  0  0  0  0  0  0  0  0
   -2.7996    7.2531   20.5037 H   0  0  0  0  0  0  0  0  0  0  0  0
   -4.3734    9.0750   20.3182 H   0  0  0  0  0  0  0  0  0  0  0  0
   -3.9551    9.2200   18.5328 H   0  0  0  0  0  0  0  0  0  0  0  0
  1  2  1  0
  2  3  1  0
  3  4  1  0
  4  5  1  0
  5  6  1  0
  6  7  1  0
  7  8  1  0
  8  9  1  0
  9 10  1  0
 10 11  1  0
 11 12  1  0
 12 13  1  0
 13 14  1  0
 14 15  1  0
 15 16  1  0
 16 17  1  0
 17 18  1  0
 18 19  2  0
 18 20  1  0
  1 21  1  0
  1 22  1  0
  1 23  1  0
  2 24  1  0
  2 25  1  0
  3 26  1  0
  3 27  1  0
  4 28  1  0
  4 29  1  0
  5 30  1  0
  5 31  1  0
  6 32  1  0
  6 33  1  0
  7 34  1  0
  7 35  1  0
  8 36  1  0
  8 37  1  0
  9 38  1  0
  9 39  1  0
 10 40  1  0
 10 41  1  0
 11 42  1  0
 11 43  1  0
 12 44  1  0
 12 45  1  0
 13 46  1  0
 13 47  1  0
 14 48  1  0
 14 49  1  0
 15 50  1  0
 15 51  1  0
 16 52  1  0
 16 53  1  0
 17 54  1  0
 17 55  1  0
M  CHG  1  20  -1
M  END
>  <meeko>  (1) 
{"is_sidechain": [false], "free_energy": -7.181, "intermolecular_energy": -13.897, "internal_energy": -1.288}

$$$$
3uex_ligand
     RDKit          3D

 55 54  0  0  0  0  0  0  0  0999 V2000
   -5.0920   15.9500   14.0280 C   0  0  0  0  0  0  0  0  0  0  0  0
   -5.2050   17.4610   14.1620 C   0  0  0  0  0  0  0  0  0  0  0  0
   -4.1010   18.0230   15.0600 C   0  0  0  0  0  0  0  0  0  0  0  0
   -4.6400   18.6900   16.3280 C   0  0  0  0  0  0  0  0  0  0  0  0
   -4.5170   17.8590   17.6120 C   0  0  0  0  0  0  0  0  0  0  0  0
   -3.6960   16.5720   17.4860 C   0  0  0  0  0  0  0  0  0  0  0  0
   -2.6600   16.3550   18.5960 C   0  0  0  0  0  0  0  0  0  0  0  0
   -2.2960   14.8790   18.7940 C   0  0  0  0  0  0  0  0  0  0  0  0
   -3.4130   13.9190   18.3700 C   0  0  0  0  0  0  0  0  0  0  0  0
   -3.4170   12.5520   19.0610 C   0  0  0  0  0  0  0  0  0  0  0  0
   -2.5630   12.4470   20.3290 C   0  0  0  0  0  0  0  0  0  0  0  0
   -1.2890   11.6220   20.1320 C   0  0  0  0  0  0  0  0  0  0  0  0
   -1.1640   11.0240   18.7260 C   0  0  0  0  0  0  0  0  0  0  0  0
   -1.4530    9.5200   18.6810 C   0  0  0  0  0  0  0  0  0  0  0  0
   -1.4000    8.8490   20.0580 C   0  0  0  0  0  0  0  0  0  0  0  0
   -1.8080    7.3730   20.1020 C   0  0  0  0  0  0  0  0  0  0  0  0
   -0.6490    6.4280   20.4000 C   0  0  0  0  0  0  0  0  0  0  0  0
   -1.0540    4.9910   20.7470 C   0  0  0  0  0  0  0  0  0  0  0  0
   -1.6190    4.8730   21.8740 O   0  0  0  0  0  0  0  0  0  0  0  0
   -0.7930    4.1060   19.8890 O   0  0  0  0  0  0  0  0  0  0  0  0
   -5.0579   15.4947   15.0288 H   0  0  0  0  0  0  0  0  0  0  0  0
   -5.9638   15.5643   13.4792 H   0  0  0  0  0  0  0  0  0  0  0  0
   -4.1725   15.6983   13.4792 H   0  0  0  0  0  0  0  0  0  0  0  0
   -5.1220   17.9165   13.1642 H   0  0  0  0  0  0  0  0  0  0  0  0
   -6.1777   17.6976   14.6178 H   0  0  0  0  0  0  0  0  0  0  0  0
   -3.4352   17.1983   15.3542 H   0  0  0  0  0  0  0  0  0  0  0  0
   -3.5703   18.7950   14.4834 H   0  0  0  0  0  0  0  0  0  0  0  0
   -4.0883   19.6298   16.4778 H   0  0  0  0  0  0  0  0  0  0  0  0
   -5.7179   18.8320   16.1610 H   0  0  0  0  0  0  0  0  0  0  0  0
   -4.0445   18.4891   18.3800 H   0  0  0  0  0  0  0  0  0  0  0  0
   -5.5391   17.5425   17.8671 H   0  0  0  0  0  0  0  0  0  0  0  0
   -4.3921   15.7203   17.4971 H   0  0  0  0  0  0  0  0  0  0  0  0
   -3.1287   16.6589   16.5476 H   0  0  0  0  0  0  0  0  0  0  0  0
   -1.7463   16.9098   18.3363 H   0  0  0  0  0  0  0  0  0  0  0  0
   -3.1043   16.7138   19.5361 H   0  0  0  0  0  0  0  0  0  0  0  0
   -1.3991   14.6571   18.1970 H   0  0  0  0  0  0  0  0  0  0  0  0
   -2.1249   14.7262   19.8698 H   0  0  0  0  0  0  0  0  0  0  0  0
   -4.3757   14.4070   18.5823 H   0  0  0  0  0  0  0  0  0  0  0  0
   -3.2404   13.7133   17.3033 H   0  0  0  0  0  0  0  0  0  0  0  0
   -4.4559   12.3133   19.3323 H   0  0  0  0  0  0  0  0  0  0  0  0
   -2.9722   11.8500   18.3404 H   0  0  0  0  0  0  0  0  0  0  0  0
   -2.2772   13.4618   20.6429 H   0  0  0  0  0  0  0  0  0  0  0  0
   -3.1697   11.9343   21.0899 H   0  0  0  0  0  0  0  0  0  0  0  0
   -0.4206   12.2724   20.3130 H   0  0  0  0  0  0  0  0  0  0  0  0
   -1.3328   10.7815   20.8403 H   0  0  0  0  0  0  0  0  0  0  0  0
   -1.8768   11.5368   18.0635 H   0  0  0  0  0  0  0  0  0  0  0  0
   -0.1224   11.1662   18.4021 H   0  0  0  0  0  0  0  0  0  0  0  0
   -2.4576    9.3704   18.2585 H   0  0  0  0  0  0  0  0  0  0  0  0
   -0.6693    9.0569   18.0635 H   0  0  0  0  0  0  0  0  0  0  0  0
   -0.3673    8.9239   20.4294 H   0  0  0  0  0  0  0  0  0  0  0  0
   -2.1399    9.3797   20.6752 H   0  0  0  0  0  0  0  0  0  0  0  0
   -2.5703    7.2461   20.8848 H   0  0  0  0  0  0  0  0  0  0  0  0
   -2.1873    7.1132   19.1027 H   0  0  0  0  0  0  0  0  0  0  0  0
   -0.0001    6.3942   19.5124 H   0  0  0  0  0  0  0  0  0  0  0  0
   -0.1487    6.8294   21.2936 H   0  0  0  0  0  0  0  0  0  0  0  0
  1  2  1  0
  2  3  1  0
  3  4  1  0
  4  5  1  0
  5  6  1  0
  6  7  1  0
  7  8  1  0
  8  9  1  0
  9 10  1  0
 10 11  1  0
 11 12  1  0
 12 13  1  0
 13 14  1  0
 14 15  1  0
 15 16  1  0
 16 17  1  0
 17 18  1  0
 18 19  2  0
 18 20  1  0
  1 21  1  0
  1 22  1  0
  1 23  1  0
  2 24  1  0
  2 25  1  0
  3 26  1  0
  3 27  1  0
  4 28  1  0
  4 29  1  0
  5 30  1  0
  5 31  1  0
  6 32  1  0
  6 33  1  0
  7 34  1  0
  7 35  1  0
  8 36  1  0
  8 37  1  0
  9 38  1  0
  9 39  1  0
 10 40  1  0
 10 41  1  0
 11 42  1  0
 11 43  1  0
 12 44  1  0
 12 45  1  0
 13 46  1  0
 13 47  1  0
 14 48  1  0
 14 49  1  0
 15 50  1  0
 15 51  1  0
 16 52  1  0
 16 53  1  0
 17 54  1  0
 17 55  1  0
M  CHG  1  20  -1
M  END
>  <meeko>  (2) 
{"is_sidechain": [false], "free_energy": -7.16, "intermolecular_energy": -14.055, "internal_energy": -1.09}

$$$$
3uex_ligand
     RDKit          3D

 55 54  0  0  0  0  0  0  0  0999 V2000
   -4.8160   15.7520   14.1070 C   0  0  0  0  0  0  0  0  0  0  0  0
   -5.4090   17.0820   14.5460 C   0  0  0  0  0  0  0  0  0  0  0  0
   -4.3150   18.0800   14.9300 C   0  0  0  0  0  0  0  0  0  0  0  0
   -4.4370   18.5780   16.3730 C   0  0  0  0  0  0  0  0  0  0  0  0
   -4.7240   17.4950   17.4210 C   0  0  0  0  0  0  0  0  0  0  0  0
   -3.5030   16.9900   18.1960 C   0  0  0  0  0  0  0  0  0  0  0  0
   -2.9880   15.6110   17.7640 C   0  0  0  0  0  0  0  0  0  0  0  0
   -4.0660   14.5240   17.8260 C   0  0  0  0  0  0  0  0  0  0  0  0
   -3.5850   13.2320   18.4950 C   0  0  0  0  0  0  0  0  0  0  0  0
   -2.3000   13.3450   19.3220 C   0  0  0  0  0  0  0  0  0  0  0  0
   -1.7050   12.0190   19.8060 C   0  0  0  0  0  0  0  0  0  0  0  0
   -1.4070   11.0400   18.6680 C   0  0  0  0  0  0  0  0  0  0  0  0
   -2.2270    9.7470   18.7470 C   0  0  0  0  0  0  0  0  0  0  0  0
   -1.9010    8.9000   19.9810 C   0  0  0  0  0  0  0  0  0  0  0  0
   -3.0770    8.0390   20.4560 C   0  0  0  0  0  0  0  0  0  0  0  0
   -3.9280    7.3980   19.3550 C   0  0  0  0  0  0  0  0  0  0  0  0
   -5.2720    8.0880   19.1430 C   0  0  0  0  0  0  0  0  0  0  0  0
   -6.5000    7.1890   19.3240 C   0  0  0  0  0  0  0  0  0  0  0  0
   -7.4270    7.7150   20.0070 O   0  0  0  0  0  0  0  0  0  0  0  0
   -6.4550    6.0520   18.7810 O   0  0  0  0  0  0  0  0  0  0  0  0
   -4.5511   15.1580   14.9941 H   0  0  0  0  0  0  0  0  0  0  0  0
   -5.5543   15.2023   13.5047 H   0  0  0  0  0  0  0  0  0  0  0  0
   -3.9137   15.9338   13.5047 H   0  0  0  0  0  0  0  0  0  0  0  0
   -6.0012   17.5005   13.7189 H   0  0  0  0  0  0  0  0  0  0  0  0
   -6.0420   16.9051   15.4280 H   0  0  0  0  0  0  0  0  0  0  0  0
   -3.3370   17.5911   14.8097 H   0  0  0  0  0  0  0  0  0  0  0  0
   -4.4218   18.9541   14.2708 H   0  0  0  0  0  0  0  0  0  0  0  0
   -3.4909   19.0696   16.6434 H   0  0  0  0  0  0  0  0  0  0  0  0
   -5.3059   19.2524   16.3884 H   0  0  0  0  0  0  0  0  0  0  0  0
   -5.4402   17.9069   18.1472 H   0  0  0  0  0  0  0  0  0  0  0  0
   -5.1085   16.6283   16.8634 H   0  0  0  0  0  0  0  0  0  0  0  0
   -2.6882   17.7166   18.0609 H   0  0  0  0  0  0  0  0  0  0  0  0
   -3.8242   16.8850   19.2428 H   0  0  0  0  0  0  0  0  0  0  0  0
   -2.6207   15.6821   16.7296 H   0  0  0  0  0  0  0  0  0  0  0  0
   -2.1896   15.3234   18.4639 H   0  0  0  0  0  0  0  0  0  0  0  0
   -4.9229   14.9139   18.3950 H   0  0  0  0  0  0  0  0  0  0  0  0
   -4.3366   14.2735   16.7897 H   0  0  0  0  0  0  0  0  0  0  0  0
   -4.3854   12.8798   19.1623 H   0  0  0  0  0  0  0  0  0  0  0  0
   -3.3498   12.5405   17.6725 H   0  0  0  0  0  0  0  0  0  0  0  0
   -1.5431   13.8498   18.7038 H   0  0  0  0  0  0  0  0  0  0  0  0
   -2.5751   13.9006   20.2307 H   0  0  0  0  0  0  0  0  0  0  0  0
   -0.7666   12.2310   20.3393 H   0  0  0  0  0  0  0  0  0  0  0  0
   -2.4530   11.5441   20.4579 H   0  0  0  0  0  0  0  0  0  0  0  0
   -1.6310   11.5372   17.7127 H   0  0  0  0  0  0  0  0  0  0  0  0
   -0.3470   10.7580   18.7513 H   0  0  0  0  0  0  0  0  0  0  0  0
   -3.2944   10.0112   18.7764 H   0  0  0  0  0  0  0  0  0  0  0  0
   -1.9745    9.1452   17.8615 H   0  0  0  0  0  0  0  0  0  0  0  0
   -1.0592    8.2358   19.7356 H   0  0  0  0  0  0  0  0  0  0  0  0
   -1.6571    9.5957   20.7974 H   0  0  0  0  0  0  0  0  0  0  0  0
   -2.6710    7.2302   21.0813 H   0  0  0  0  0  0  0  0  0  0  0  0
   -3.7507    8.7256   20.9896 H   0  0  0  0  0  0  0  0  0  0  0  0
   -3.3638    7.4380   18.4116 H   0  0  0  0  0  0  0  0  0  0  0  0
   -4.1412    6.3662   19.6712 H   0  0  0  0  0  0  0  0  0  0  0  0
   -5.3471    8.9164   19.8628 H   0  0  0  0  0  0  0  0  0  0  0  0
   -5.2853    8.4171   18.0935 H   0  0  0  0  0  0  0  0  0  0  0  0
  1  2  1  0
  2  3  1  0
  3  4  1  0
  4  5  1  0
  5  6  1  0
  6  7  1  0
  7  8  1  0
  8  9  1  0
  9 10  1  0
 10 11  1  0
 11 12  1  0
 12 13  1  0
 13 14  1  0
 14 15  1  0
 15 16  1  0
 16 17  1  0
 17 18  1  0
 18 19  2  0
 18 20  1  0
  1 21  1  0
  1 22  1  0
  1 23  1  0
  2 24  1  0
  2 25  1  0
  3 26  1  0
  3 27  1  0
  4 28  1  0
  4 29  1  0
  5 30  1  0
  5 31  1  0
  6 32  1  0
  6 33  1  0
  7 34  1  0
  7 35  1  0
  8 36  1  0
  8 37  1  0
  9 38  1  0
  9 39  1  0
 10 40  1  0
 10 41  1  0
 11 42  1  0
 11 43  1  0
 12 44  1  0
 12 45  1  0
 13 46  1  0
 13 47  1  0
 14 48  1  0
 14 49  1  0
 15 50  1  0
 15 51  1  0
 16 52  1  0
 16 53  1  0
 17 54  1  0
 17 55  1  0
M  CHG  1  20  -1
M  END
>  <meeko>  (3) 
{"is_sidechain": [false], "free_energy": -7.008, "intermolecular_energy": -13.676, "internal_energy": -1.175}

$$$$
3uex_ligand
     RDKit          3D

 55 54  0  0  0  0  0  0  0  0999 V2000
   -6.5560    8.1500   18.8880 C   0  0  0  0  0  0  0  0  0  0  0  0
   -5.5970    6.9770   18.7540 C   0  0  0  0  0  0  0  0  0  0  0  0
   -4.1420    7.4470   18.7310 C   0  0  0  0  0  0  0  0  0  0  0  0
   -3.6590    7.9710   20.0870 C   0  0  0  0  0  0  0  0  0  0  0  0
   -2.4150    8.8690   20.0400 C   0  0  0  0  0  0  0  0  0  0  0  0
   -1.9380    9.2580   18.6380 C   0  0  0  0  0  0  0  0  0  0  0  0
   -1.5360   10.7300   18.4770 C   0  0  0  0  0  0  0  0  0  0  0  0
   -1.4020   11.4620   19.8160 C   0  0  0  0  0  0  0  0  0  0  0  0
   -2.4740   12.5360   20.0290 C   0  0  0  0  0  0  0  0  0  0  0  0
   -2.4440   13.7150   19.0510 C   0  0  0  0  0  0  0  0  0  0  0  0
   -3.6870   13.8780   18.1700 C   0  0  0  0  0  0  0  0  0  0  0  0
   -4.0580   15.3410   17.9150 C   0  0  0  0  0  0  0  0  0  0  0  0
   -2.9580   16.3270   18.3220 C   0  0  0  0  0  0  0  0  0  0  0  0
   -3.3980   17.7910   18.2390 C   0  0  0  0  0  0  0  0  0  0  0  0
   -4.6910   17.9940   17.4430 C   0  0  0  0  0  0  0  0  0  0  0  0
   -4.5480   18.7180   16.1010 C   0  0  0  0  0  0  0  0  0  0  0  0
   -4.0790   17.8140   14.9660 C   0  0  0  0  0  0  0  0  0  0  0  0
   -5.1020   16.7730   14.4980 C   0  0  0  0  0  0  0  0  0  0  0  0
   -4.6000   15.6450   14.2200 O   0  0  0  0  0  0  0  0  0  0  0  0
   -6.3070   17.1450   14.4490 O   0  0  0  0  0  0  0  0  0  0  0  0
   -6.7293    8.3620   19.9534 H   0  0  0  0  0  0  0  0  0  0  0  0
   -6.1208    9.0366   18.4038 H   0  0  0  0  0  0  0  0  0  0  0  0
   -7.5114    7.8997   18.4038 H   0  0  0  0  0  0  0  0  0  0  0  0
   -5.7405    6.2979   19.6074 H   0  0  0  0  0  0  0  0  0  0  0  0
   -5.8099    6.4618   17.8057 H   0  0  0  0  0  0  0  0  0  0  0  0
   -3.5051    6.6002   18.4357 H   0  0  0  0  0  0  0  0  0  0  0  0
   -4.0773    8.2798   18.0153 H   0  0  0  0  0  0  0  0  0  0  0  0
   -4.4783    8.5494   20.5388 H   0  0  0  0  0  0  0  0  0  0  0  0
   -3.3708    7.0838   20.6699 H   0  0  0  0  0  0  0  0  0  0  0  0
   -2.6434    9.7941   20.5895 H   0  0  0  0  0  0  0  0  0  0  0  0
   -1.5993    8.2802   20.4850 H   0  0  0  0  0  0  0  0  0  0  0  0
   -1.0652    8.6364   18.3894 H   0  0  0  0  0  0  0  0  0  0  0  0
   -2.7935    9.0968   17.9656 H   0  0  0  0  0  0  0  0  0  0  0  0
   -0.5690   10.7745   17.9545 H   0  0  0  0  0  0  0  0  0  0  0  0
   -2.3332   11.2291   17.9067 H   0  0  0  0  0  0  0  0  0  0  0  0
   -1.4816   10.7234   20.6273 H   0  0  0  0  0  0  0  0  0  0  0  0
   -0.4268   11.9708   19.8132 H   0  0  0  0  0  0  0  0  0  0  0  0
   -3.4579   12.0518   19.9430 H   0  0  0  0  0  0  0  0  0  0  0  0
   -2.2708   12.9667   21.0206 H   0  0  0  0  0  0  0  0  0  0  0  0
   -2.3217   14.6377   19.6373 H   0  0  0  0  0  0  0  0  0  0  0  0
   -1.6116   13.5118   18.3612 H   0  0  0  0  0  0  0  0  0  0  0  0
   -3.4955   13.3921   17.2019 H   0  0  0  0  0  0  0  0  0  0  0  0
   -4.5296   13.4157   18.7050 H   0  0  0  0  0  0  0  0  0  0  0  0
   -4.2599   15.4675   16.8411 H   0  0  0  0  0  0  0  0  0  0  0  0
   -4.9401   15.5650   18.5329 H   0  0  0  0  0  0  0  0  0  0  0  0
   -2.6602   16.1099   19.3584 H   0  0  0  0  0  0  0  0  0  0  0  0
   -2.1247   16.1961   17.6160 H   0  0  0  0  0  0  0  0  0  0  0  0
   -3.5553   18.1662   19.2610 H   0  0  0  0  0  0  0  0  0  0  0  0
   -2.6031   18.3394   17.7122 H   0  0  0  0  0  0  0  0  0  0  0  0
   -5.1236   17.0021   17.2456 H   0  0  0  0  0  0  0  0  0  0  0  0
   -5.3223   18.6455   18.0650 H   0  0  0  0  0  0  0  0  0  0  0  0
   -5.5264   19.1400   15.8277 H   0  0  0  0  0  0  0  0  0  0  0  0
   -3.7796   19.4939   16.2336 H   0  0  0  0  0  0  0  0  0  0  0  0
   -3.8237   18.4511   14.1064 H   0  0  0  0  0  0  0  0  0  0  0  0
   -3.2233   17.2464   15.3605 H   0  0  0  0  0  0  0  0  0  0  0  0
  1  2  1  0
  2  3  1  0
  3  4  1  0
  4  5  1  0
  5  6  1  0
  6  7  1  0
  7  8  1  0
  8  9  1  0
  9 10  1  0
 10 11  1  0
 11 12  1  0
 12 13  1  0
 13 14  1  0
 14 15  1  0
 15 16  1  0
 16 17  1  0
 17 18  1  0
 18 19  2  0
 18 20  1  0
  1 21  1  0
  1 22  1  0
  1 23  1  0
  2 24  1  0
  2 25  1  0
  3 26  1  0
  3 27  1  0
  4 28  1  0
  4 29  1  0
  5 30  1  0
  5 31  1  0
  6 32  1  0
  6 33  1  0
  7 34  1  0
  7 35  1  0
  8 36  1  0
  8 37  1  0
  9 38  1  0
  9 39  1  0
 10 40  1  0
 10 41  1  0
 11 42  1  0
 11 43  1  0
 12 44  1  0
 12 45  1  0
 13 46  1  0
 13 47  1  0
 14 48  1  0
 14 49  1  0
 15 50  1  0
 15 51  1  0
 16 52  1  0
 16 53  1  0
 17 54  1  0
 17 55  1  0
M  CHG  1  20  -1
M  END
>  <meeko>  (4) 
{"is_sidechain": [false], "free_energy": -6.76, "intermolecular_energy": -13.158, "internal_energy": -1.212}

$$$$
3uex_ligand
     RDKit          3D

 55 54  0  0  0  0  0  0  0  0999 V2000
   -4.8630   15.6490   14.1370 C   0  0  0  0  0  0  0  0  0  0  0  0
   -5.3200   17.0750   14.4000 C   0  0  0  0  0  0  0  0  0  0  0  0
   -4.2680   17.8620   15.1850 C   0  0  0  0  0  0  0  0  0  0  0  0
   -4.6420   18.0620   16.6560 C   0  0  0  0  0  0  0  0  0  0  0  0
   -4.4500   16.8350   17.5570 C   0  0  0  0  0  0  0  0  0  0  0  0
   -3.0710   16.7070   18.2100 C   0  0  0  0  0  0  0  0  0  0  0  0
   -2.6100   15.2680   18.4740 C   0  0  0  0  0  0  0  0  0  0  0  0
   -3.6080   14.2200   17.9690 C   0  0  0  0  0  0  0  0  0  0  0  0
   -3.7250   13.0020   18.8920 C   0  0  0  0  0  0  0  0  0  0  0  0
   -3.1510   11.6910   18.3460 C   0  0  0  0  0  0  0  0  0  0  0  0
   -1.8410   11.2230   18.9870 C   0  0  0  0  0  0  0  0  0  0  0  0
   -1.5560    9.7360   18.7600 C   0  0  0  0  0  0  0  0  0  0  0  0
   -1.6700    8.8930   20.0360 C   0  0  0  0  0  0  0  0  0  0  0  0
   -3.1120    8.5170   20.3860 C   0  0  0  0  0  0  0  0  0  0  0  0
   -3.2320    7.1710   21.1080 C   0  0  0  0  0  0  0  0  0  0  0  0
   -3.5060    5.9530   20.2200 C   0  0  0  0  0  0  0  0  0  0  0  0
   -2.2410    5.2300   19.7680 C   0  0  0  0  0  0  0  0  0  0  0  0
   -1.2610    4.8720   20.8910 C   0  0  0  0  0  0  0  0  0  0  0  0
   -1.6770    3.9630   21.6680 O   0  0  0  0  0  0  0  0  0  0  0  0
   -0.1700    5.5040   20.9130 O   0  0  0  0  0  0  0  0  0  0  0  0
   -4.6980   15.1343   15.0950 H   0  0  0  0  0  0  0  0  0  0  0  0
   -5.6355   15.1164   13.5628 H   0  0  0  0  0  0  0  0  0  0  0  0
   -3.9249   15.6646   13.5628 H   0  0  0  0  0  0  0  0  0  0  0  0
   -5.4983   17.5771   13.4376 H   0  0  0  0  0  0  0  0  0  0  0  0
   -6.2427   17.0385   14.9977 H   0  0  0  0  0  0  0  0  0  0  0  0
   -3.3144   17.3158   15.1373 H   0  0  0  0  0  0  0  0  0  0  0  0
   -4.1946   18.8592   14.7266 H   0  0  0  0  0  0  0  0  0  0  0  0
   -4.0212   18.8772   17.0561 H   0  0  0  0  0  0  0  0  0  0  0  0
   -5.7200   18.2805   16.6674 H   0  0  0  0  0  0  0  0  0  0  0  0
   -5.2017   16.8821   18.3587 H   0  0  0  0  0  0  0  0  0  0  0  0
   -4.5564   15.9585   16.9009 H   0  0  0  0  0  0  0  0  0  0  0  0
   -2.3342   17.1854   17.5480 H   0  0  0  0  0  0  0  0  0  0  0  0
   -3.1512   17.1898   19.1951 H   0  0  0  0  0  0  0  0  0  0  0  0
   -1.6472   15.1091   17.9663 H   0  0  0  0  0  0  0  0  0  0  0  0
   -2.5236   15.1436   19.5635 H   0  0  0  0  0  0  0  0  0  0  0  0
   -4.5982   14.6919   17.8860 H   0  0  0  0  0  0  0  0  0  0  0  0
   -3.2389   13.8592   16.9976 H   0  0  0  0  0  0  0  0  0  0  0  0
   -3.1975   13.2368   19.8283 H   0  0  0  0  0  0  0  0  0  0  0  0
   -4.8036   12.8256   19.0166 H   0  0  0  0  0  0  0  0  0  0  0  0
   -3.9029   10.9029   18.4991 H   0  0  0  0  0  0  0  0  0  0  0  0
   -2.9162   11.8832   17.2887 H   0  0  0  0  0  0  0  0  0  0  0  0
   -1.0136   11.8071   18.5578 H   0  0  0  0  0  0  0  0  0  0  0  0
   -1.9352   11.3758   20.0722 H   0  0  0  0  0  0  0  0  0  0  0  0
   -2.2758    9.3515   18.0224 H   0  0  0  0  0  0  0  0  0  0  0  0
   -0.5170    9.6542   18.4082 H   0  0  0  0  0  0  0  0  0  0  0  0
   -1.0920    7.9676   19.8960 H   0  0  0  0  0  0  0  0  0  0  0  0
   -1.2817    9.5026   20.8652 H   0  0  0  0  0  0  0  0  0  0  0  0
   -3.5283    9.3000   21.0368 H   0  0  0  0  0  0  0  0  0  0  0  0
   -3.6632    8.4273   19.4383 H   0  0  0  0  0  0  0  0  0  0  0  0
   -2.2880    6.9913   21.6434 H   0  0  0  0  0  0  0  0  0  0  0  0
   -4.1111    7.2637   21.7626 H   0  0  0  0  0  0  0  0  0  0  0  0
   -4.1289    5.2438   20.7849 H   0  0  0  0  0  0  0  0  0  0  0  0
   -4.0086    6.3212   19.3134 H   0  0  0  0  0  0  0  0  0  0  0  0
   -2.5416    4.2976   19.2677 H   0  0  0  0  0  0  0  0  0  0  0  0
   -1.7078    5.9291   19.1070 H   0  0  0  0  0  0  0  0  0  0  0  0
  1  2  1  0
  2  3  1  0
  3  4  1  0
  4  5  1  0
  5  6  1  0
  6  7  1  0
  7  8  1  0
  8  9  1  0
  9 10  1  0
 10 11  1  0
 11 12  1  0
 12 13  1  0
 13 14  1  0
 14 15  1  0
 15 16  1  0
 16 17  1  0
 17 18  1  0
 18 19  2  0
 18 20  1  0
  1 21  1  0
  1 22  1  0
  1 23  1  0
  2 24  1  0
  2 25  1  0
  3 26  1  0
  3 27  1  0
  4 28  1  0
  4 29  1  0
  5 30  1  0
  5 31  1  0
  6 32  1  0
  6 33  1  0
  7 34  1  0
  7 35  1  0
  8 36  1  0
  8 37  1  0
  9 38  1  0
  9 39  1  0
 10 40  1  0
 10 41  1  0
 11 42  1  0
 11 43  1  0
 12 44  1  0
 12 45  1  0
 13 46  1  0
 13 47  1  0
 14 48  1  0
 14 49  1  0
 15 50  1  0
 15 51  1  0
 16 52  1  0
 16 53  1  0
 17 54  1  0
 17 55  1  0
M  CHG  1  20  -1
M  END
>  <meeko>  (5) 
{"is_sidechain": [false], "free_energy": -6.661, "intermolecular_energy": -13.141, "internal_energy": -1.039}

$$$$
3uex_ligand
     RDKit          3D

 55 54  0  0  0  0  0  0  0  0999 V2000
   -0.2500    4.7020   19.7090 C   0  0  0  0  0  0  0  0  0  0  0  0
   -0.6770    5.9490   20.4680 C   0  0  0  0  0  0  0  0  0  0  0  0
   -2.1880    5.9660   20.7070 C   0  0  0  0  0  0  0  0  0  0  0  0
   -2.7750    7.3790   20.7380 C   0  0  0  0  0  0  0  0  0  0  0  0
   -3.3340    7.8890   19.4020 C   0  0  0  0  0  0  0  0  0  0  0  0
   -2.7820    9.2370   18.9290 C   0  0  0  0  0  0  0  0  0  0  0  0
   -1.5400    9.7280   19.6840 C   0  0  0  0  0  0  0  0  0  0  0  0
   -1.1750   11.1780   19.3520 C   0  0  0  0  0  0  0  0  0  0  0  0
   -2.0140   12.2050   20.1210 C   0  0  0  0  0  0  0  0  0  0  0  0
   -2.4020   13.4680   19.3460 C   0  0  0  0  0  0  0  0  0  0  0  0
   -3.7020   13.3770   18.5400 C   0  0  0  0  0  0  0  0  0  0  0  0
   -4.0530   14.6790   17.8140 C   0  0  0  0  0  0  0  0  0  0  0  0
   -2.9220   15.7120   17.8370 C   0  0  0  0  0  0  0  0  0  0  0  0
   -3.3940   17.1170   18.2250 C   0  0  0  0  0  0  0  0  0  0  0  0
   -4.6240   17.5840   17.4390 C   0  0  0  0  0  0  0  0  0  0  0  0
   -4.3860   18.7060   16.4250 C   0  0  0  0  0  0  0  0  0  0  0  0
   -4.2440   18.2120   14.9890 C   0  0  0  0  0  0  0  0  0  0  0  0
   -5.0660   16.9650   14.6460 C   0  0  0  0  0  0  0  0  0  0  0  0
   -4.3790   15.9060   14.5460 O   0  0  0  0  0  0  0  0  0  0  0  0
   -6.3090   17.1250   14.5090 O   0  0  0  0  0  0  0  0  0  0  0  0
    0.0206    3.9118   20.4248 H   0  0  0  0  0  0  0  0  0  0  0  0
   -1.0806    4.3552   19.0767 H   0  0  0  0  0  0  0  0  0  0  0  0
    0.6188    4.9372   19.0767 H   0  0  0  0  0  0  0  0  0  0  0  0
   -0.1606    5.9715   21.4390 H   0  0  0  0  0  0  0  0  0  0  0  0
   -0.4116    6.8297   19.8647 H   0  0  0  0  0  0  0  0  0  0  0  0
   -2.6766    5.4016   19.8991 H   0  0  0  0  0  0  0  0  0  0  0  0
   -2.3692    5.5138   21.6933 H   0  0  0  0  0  0  0  0  0  0  0  0
   -3.5919    7.3911   21.4745 H   0  0  0  0  0  0  0  0  0  0  0  0
   -1.9403    8.0486   20.9929 H   0  0  0  0  0  0  0  0  0  0  0  0
   -3.1051    7.1393   18.6303 H   0  0  0  0  0  0  0  0  0  0  0  0
   -4.4110    8.0433   19.5640 H   0  0  0  0  0  0  0  0  0  0  0  0
   -2.5203    9.1444   17.8646 H   0  0  0  0  0  0  0  0  0  0  0  0
   -3.5721    9.9779   19.1207 H   0  0  0  0  0  0  0  0  0  0  0  0
   -1.7336    9.6534   20.7642 H   0  0  0  0  0  0  0  0  0  0  0  0
   -0.6945    9.0958   19.3750 H   0  0  0  0  0  0  0  0  0  0  0  0
   -0.1151   11.3369   19.5999 H   0  0  0  0  0  0  0  0  0  0  0  0
   -1.3769   11.3281   18.2812 H   0  0  0  0  0  0  0  0  0  0  0  0
   -2.9416   11.7090   20.4430 H   0  0  0  0  0  0  0  0  0  0  0  0
   -1.3773   12.5484   20.9497 H   0  0  0  0  0  0  0  0  0  0  0  0
   -2.5092   14.2895   20.0696 H   0  0  0  0  0  0  0  0  0  0  0  0
   -1.6013   13.6265   18.6086 H   0  0  0  0  0  0  0  0  0  0  0  0
   -3.5947   12.5775   17.7922 H   0  0  0  0  0  0  0  0  0  0  0  0
   -4.5146   13.1699   19.2518 H   0  0  0  0  0  0  0  0  0  0  0  0
   -4.2872   14.4416   16.7658 H   0  0  0  0  0  0  0  0  0  0  0  0
   -4.9100   15.1239   18.3409 H   0  0  0  0  0  0  0  0  0  0  0  0
   -2.1645   15.3846   18.5644 H   0  0  0  0  0  0  0  0  0  0  0  0
   -2.5161   15.7743   16.8165 H   0  0  0  0  0  0  0  0  0  0  0  0
   -3.6438   17.1176   19.2963 H   0  0  0  0  0  0  0  0  0  0  0  0
   -2.5745   17.8118   17.9890 H   0  0  0  0  0  0  0  0  0  0  0  0
   -5.0241   16.7166   16.8935 H   0  0  0  0  0  0  0  0  0  0  0  0
   -5.3133   18.0019   18.1875 H   0  0  0  0  0  0  0  0  0  0  0  0
   -5.2365   19.4021   16.4707 H   0  0  0  0  0  0  0  0  0  0  0  0
   -3.4352   19.1885   16.6954 H   0  0  0  0  0  0  0  0  0  0  0  0
   -4.5594   19.0235   14.3167 H   0  0  0  0  0  0  0  0  0  0  0  0
   -3.1888   17.9265   14.8663 H   0  0  0  0  0  0  0  0  0  0  0  0
  1  2  1  0
  2  3  1  0
  3  4  1  0
  4  5  1  0
  5  6  1  0
  6  7  1  0
  7  8  1  0
  8  9  1  0
  9 10  1  0
 10 11  1  0
 11 12  1  0
 12 13  1  0
 13 14  1  0
 14 15  1  0
 15 16  1  0
 16 17  1  0
 17 18  1  0
 18 19  2  0
 18 20  1  0
  1 21  1  0
  1 22  1  0
  1 23  1  0
  2 24  1  0
  2 25  1  0
  3 26  1  0
  3 27  1  0
  4 28  1  0
  4 29  1  0
  5 30  1  0
  5 31  1  0
  6 32  1  0
  6 33  1  0
  7 34  1  0
  7 35  1  0
  8 36  1  0
  8 37  1  0
  9 38  1  0
  9 39  1  0
 10 40  1  0
 10 41  1  0
 11 42  1  0
 11 43  1  0
 12 44  1  0
 12 45  1  0
 13 46  1  0
 13 47  1  0
 14 48  1  0
 14 49  1  0
 15 50  1  0
 15 51  1  0
 16 52  1  0
 16 53  1  0
 17 54  1  0
 17 55  1  0
M  CHG  1  20  -1
M  END
>  <meeko>  (6) 
{"is_sidechain": [false], "free_energy": -6.59, "intermolecular_energy": -12.889, "internal_energy": -1.153}

$$$$
3uex_ligand
     RDKit          3D

 55 54  0  0  0  0  0  0  0  0999 V2000
   -5.1410   17.4630   14.5790 C   0  0  0  0  0  0  0  0  0  0  0  0
   -4.4390   18.2790   15.6530 C   0  0  0  0  0  0  0  0  0  0  0  0
   -4.8700   17.8420   17.0540 C   0  0  0  0  0  0  0  0  0  0  0  0
   -3.6870   17.5340   17.9780 C   0  0  0  0  0  0  0  0  0  0  0  0
   -3.0650   16.1410   17.8080 C   0  0  0  0  0  0  0  0  0  0  0  0
   -4.0220   15.0480   17.3230 C   0  0  0  0  0  0  0  0  0  0  0  0
   -4.0590   13.7880   18.1970 C   0  0  0  0  0  0  0  0  0  0  0  0
   -2.7480   13.5460   18.9520 C   0  0  0  0  0  0  0  0  0  0  0  0
   -2.5920   12.1050   19.4490 C   0  0  0  0  0  0  0  0  0  0  0  0
   -2.4760   11.0320   18.3620 C   0  0  0  0  0  0  0  0  0  0  0  0
   -1.4040    9.9620   18.5980 C   0  0  0  0  0  0  0  0  0  0  0  0
   -1.4360    9.3790   20.0130 C   0  0  0  0  0  0  0  0  0  0  0  0
   -1.9890    7.9510   20.0700 C   0  0  0  0  0  0  0  0  0  0  0  0
   -3.3540    7.8580   20.7590 C   0  0  0  0  0  0  0  0  0  0  0  0
   -4.5330    7.9350   19.7840 C   0  0  0  0  0  0  0  0  0  0  0  0
   -4.5400    6.9020   18.6530 C   0  0  0  0  0  0  0  0  0  0  0  0
   -5.9400    6.5070   18.1950 C   0  0  0  0  0  0  0  0  0  0  0  0
   -6.4540    5.1730   18.7490 C   0  0  0  0  0  0  0  0  0  0  0  0
   -6.7880    4.3400   17.8570 O   0  0  0  0  0  0  0  0  0  0  0  0
   -6.4800    5.0530   20.0040 O   0  0  0  0  0  0  0  0  0  0  0  0
   -5.7880   16.7109   15.0542 H   0  0  0  0  0  0  0  0  0  0  0  0
   -5.7523   18.1296   13.9529 H   0  0  0  0  0  0  0  0  0  0  0  0
   -4.3906   16.9581   13.9529 H   0  0  0  0  0  0  0  0  0  0  0  0
   -3.3521   18.1423   15.5536 H   0  0  0  0  0  0  0  0  0  0  0  0
   -4.7123   19.3362   15.5198 H   0  0  0  0  0  0  0  0  0  0  0  0
   -5.4655   18.6495   17.5049 H   0  0  0  0  0  0  0  0  0  0  0  0
   -5.4507   16.9142   16.9441 H   0  0  0  0  0  0  0  0  0  0  0  0
   -2.9031   18.2815   17.7865 H   0  0  0  0  0  0  0  0  0  0  0  0
   -4.0861   17.5651   19.0026 H   0  0  0  0  0  0  0  0  0  0  0  0
   -2.2454   16.2222   17.0789 H   0  0  0  0  0  0  0  0  0  0  0  0
   -2.7360   15.8320   18.8111 H   0  0  0  0  0  0  0  0  0  0  0  0
   -5.0366   15.4717   17.2910 H   0  0  0  0  0  0  0  0  0  0  0  0
   -3.6522   14.7291   16.3373 H   0  0  0  0  0  0  0  0  0  0  0  0
   -4.8719   13.8937   18.9305 H   0  0  0  0  0  0  0  0  0  0  0  0
   -4.2184   12.9284   17.5294 H   0  0  0  0  0  0  0  0  0  0  0  0
   -1.9095   13.7756   18.2781 H   0  0  0  0  0  0  0  0  0  0  0  0
   -2.7575   14.1972   19.8385 H   0  0  0  0  0  0  0  0  0  0  0  0
   -1.6835   12.0581   20.0674 H   0  0  0  0  0  0  0  0  0  0  0  0
   -3.5187   11.8764   19.9957 H   0  0  0  0  0  0  0  0  0  0  0  0
   -3.4487   10.5245   18.2825 H   0  0  0  0  0  0  0  0  0  0  0  0
   -2.1745   11.5627   17.4469 H   0  0  0  0  0  0  0  0  0  0  0  0
   -1.5618    9.1444   17.8792 H   0  0  0  0  0  0  0  0  0  0  0  0
   -0.4247   10.4452   18.4653 H   0  0  0  0  0  0  0  0  0  0  0  0
   -0.4104    9.3720   20.4106 H   0  0  0  0  0  0  0  0  0  0  0  0
   -2.1088   10.0121   20.6101 H   0  0  0  0  0  0  0  0  0  0  0  0
   -2.0905    7.5744   19.0415 H   0  0  0  0  0  0  0  0  0  0  0  0
   -1.2828    7.3511   20.6627 H   0  0  0  0  0  0  0  0  0  0  0  0
   -3.4085    6.9003   21.2974 H   0  0  0  0  0  0  0  0  0  0  0  0
   -3.4356    8.7206   21.4367 H   0  0  0  0  0  0  0  0  0  0  0  0
   -5.4583    7.8044   20.3644 H   0  0  0  0  0  0  0  0  0  0  0  0
   -4.4447    8.9138   19.2899 H   0  0  0  0  0  0  0  0  0  0  0  0
   -3.9991    7.3241   17.7932 H   0  0  0  0  0  0  0  0  0  0  0  0
   -4.0601    5.9927   19.0439 H   0  0  0  0  0  0  0  0  0  0  0  0
   -6.6371    7.2977   18.5095 H   0  0  0  0  0  0  0  0  0  0  0  0
   -5.8813    6.3829   17.1036 H   0  0  0  0  0  0  0  0  0  0  0  0
  1  2  1  0
  2  3  1  0
  3  4  1  0
  4  5  1  0
  5  6  1  0
  6  7  1  0
  7  8  1  0
  8  9  1  0
  9 10  1  0
 10 11  1  0
 11 12  1  0
 12 13  1  0
 13 14  1  0
 14 15  1  0
 15 16  1  0
 16 17  1  0
 17 18  1  0
 18 19  2  0
 18 20  1  0
  1 21  1  0
  1 22  1  0
  1 23  1  0
  2 24  1  0
  2 25  1  0
  3 26  1  0
  3 27  1  0
  4 28  1  0
  4 29  1  0
  5 30  1  0
  5 31  1  0
  6 32  1  0
  6 33  1  0
  7 34  1  0
  7 35  1  0
  8 36  1  0
  8 37  1  0
  9 38  1  0
  9 39  1  0
 10 40  1  0
 10 41  1  0
 11 42  1  0
 11 43  1  0
 12 44  1  0
 12 45  1  0
 13 46  1  0
 13 47  1  0
 14 48  1  0
 14 49  1  0
 15 50  1  0
 15 51  1  0
 16 52  1  0
 16 53  1  0
 17 54  1  0
 17 55  1  0
M  CHG  1  20  -1
M  END
>  <meeko>  (7) 
{"is_sidechain": [false], "free_energy": -6.513, "intermolecular_energy": -12.722, "internal_energy": -1.171}

$$$$
3uex_ligand
     RDKit          3D

 55 54  0  0  0  0  0  0  0  0999 V2000
   -4.4130   18.4370   16.4710 C   0  0  0  0  0  0  0  0  0  0  0  0
   -4.0340   17.9340   17.8550 C   0  0  0  0  0  0  0  0  0  0  0  0
   -4.0110   16.4050   17.9040 C   0  0  0  0  0  0  0  0  0  0  0  0
   -2.6880   15.8400   18.4280 C   0  0  0  0  0  0  0  0  0  0  0  0
   -2.6470   14.3160   18.6050 C   0  0  0  0  0  0  0  0  0  0  0  0
   -3.9360   13.5760   18.2360 C   0  0  0  0  0  0  0  0  0  0  0  0
   -3.9700   12.0970   18.6420 C   0  0  0  0  0  0  0  0  0  0  0  0
   -2.6620   11.6230   19.2820 C   0  0  0  0  0  0  0  0  0  0  0  0
   -1.7910   10.7920   18.3340 C   0  0  0  0  0  0  0  0  0  0  0  0
   -1.2890    9.4540   18.8870 C   0  0  0  0  0  0  0  0  0  0  0  0
   -1.9370    8.9930   20.1970 C   0  0  0  0  0  0  0  0  0  0  0  0
   -2.7250    7.6880   20.0520 C   0  0  0  0  0  0  0  0  0  0  0  0
   -3.8490    7.7690   19.0130 C   0  0  0  0  0  0  0  0  0  0  0  0
   -5.2010    7.2840   19.5450 C   0  0  0  0  0  0  0  0  0  0  0  0
   -6.2180    6.9840   18.4380 C   0  0  0  0  0  0  0  0  0  0  0  0
   -6.2310    5.5480   17.9080 C   0  0  0  0  0  0  0  0  0  0  0  0
   -6.1280    4.4910   19.0030 C   0  0  0  0  0  0  0  0  0  0  0  0
   -7.4680    3.9650   19.5280 C   0  0  0  0  0  0  0  0  0  0  0  0
   -7.9420    4.6350   20.4920 O   0  0  0  0  0  0  0  0  0  0  0  0
   -7.9430    2.9490   18.9520 O   0  0  0  0  0  0  0  0  0  0  0  0
   -5.0724   19.3122   16.5668 H   0  0  0  0  0  0  0  0  0  0  0  0
   -3.5031   18.7218   15.9225 H   0  0  0  0  0  0  0  0  0  0  0  0
   -4.9377   17.6409   15.9225 H   0  0  0  0  0  0  0  0  0  0  0  0
   -3.0354   18.3158   18.1139 H   0  0  0  0  0  0  0  0  0  0  0  0
   -4.7862   18.2930   18.5728 H   0  0  0  0  0  0  0  0  0  0  0  0
   -4.8228   16.0637   18.5632 H   0  0  0  0  0  0  0  0  0  0  0  0
   -4.1369   16.0422   16.8732 H   0  0  0  0  0  0  0  0  0  0  0  0
   -1.8948   16.1208   17.7195 H   0  0  0  0  0  0  0  0  0  0  0  0
   -2.5538   16.2656   19.4334 H   0  0  0  0  0  0  0  0  0  0  0  0
   -1.8373   13.9228   17.9728 H   0  0  0  0  0  0  0  0  0  0  0  0
   -2.4942   14.1402   19.6801 H   0  0  0  0  0  0  0  0  0  0  0  0
   -4.7762   14.0856   18.7305 H   0  0  0  0  0  0  0  0  0  0  0  0
   -4.0001   13.5963   17.1381 H   0  0  0  0  0  0  0  0  0  0  0  0
   -4.7870   11.9501   19.3638 H   0  0  0  0  0  0  0  0  0  0  0  0
   -4.1212   11.5072   17.7258 H   0  0  0  0  0  0  0  0  0  0  0  0
   -2.0883   12.5062   19.5996 H   0  0  0  0  0  0  0  0  0  0  0  0
   -2.9296   10.9762   20.1305 H   0  0  0  0  0  0  0  0  0  0  0  0
   -2.3816   10.5828   17.4299 H   0  0  0  0  0  0  0  0  0  0  0  0
   -0.8898   11.3957   18.1513 H   0  0  0  0  0  0  0  0  0  0  0  0
   -1.4770    8.6818   18.1265 H   0  0  0  0  0  0  0  0  0  0  0  0
   -0.2235    9.6040   19.1153 H   0  0  0  0  0  0  0  0  0  0  0  0
   -1.1448    8.8421   20.9451 H   0  0  0  0  0  0  0  0  0  0  0  0
   -2.6494    9.7735   20.5024 H   0  0  0  0  0  0  0  0  0  0  0  0
   -2.0285    6.8915   19.7511 H   0  0  0  0  0  0  0  0  0  0  0  0
   -3.1956    7.4825   21.0248 H   0  0  0  0  0  0  0  0  0  0  0  0
   -3.9547    8.8163   18.6937 H   0  0  0  0  0  0  0  0  0  0  0  0
   -3.5705    7.1079   18.1791 H   0  0  0  0  0  0  0  0  0  0  0  0
   -5.0375    6.3649   20.1268 H   0  0  0  0  0  0  0  0  0  0  0  0
   -5.6188    8.0956   20.1589 H   0  0  0  0  0  0  0  0  0  0  0  0
   -7.2204    7.2057   18.8331 H   0  0  0  0  0  0  0  0  0  0  0  0
   -5.9206    7.6116   17.5850 H   0  0  0  0  0  0  0  0  0  0  0  0
   -7.1705    5.3888   17.3585 H   0  0  0  0  0  0  0  0  0  0  0  0
   -5.3455    5.4337   17.2655 H   0  0  0  0  0  0  0  0  0  0  0  0
   -5.5613    3.6382   18.6010 H   0  0  0  0  0  0  0  0  0  0  0  0
   -5.6363    4.9812   19.8562 H   0  0  0  0  0  0  0  0  0  0  0  0
  1  2  1  0
  2  3  1  0
  3  4  1  0
  4  5  1  0
  5  6  1  0
  6  7  1  0
  7  8  1  0
  8  9  1  0
  9 10  1  0
 10 11  1  0
 11 12  1  0
 12 13  1  0
 13 14  1  0
 14 15  1  0
 15 16  1  0
 16 17  1  0
 17 18  1  0
 18 19  2  0
 18 20  1  0
  1 21  1  0
  1 22  1  0
  1 23  1  0
  2 24  1  0
  2 25  1  0
  3 26  1  0
  3 27  1  0
  4 28  1  0
  4 29  1  0
  5 30  1  0
  5 31  1  0
  6 32  1  0
  6 33  1  0
  7 34  1  0
  7 35  1  0
  8 36  1  0
  8 37  1  0
  9 38  1  0
  9 39  1  0
 10 40  1  0
 10 41  1  0
 11 42  1  0
 11 43  1  0
 12 44  1  0
 12 45  1  0
 13 46  1  0
 13 47  1  0
 14 48  1  0
 14 49  1  0
 15 50  1  0
 15 51  1  0
 16 52  1  0
 16 53  1  0
 17 54  1  0
 17 55  1  0
M  CHG  1  20  -1
M  END
>  <meeko>  (8) 
{"is_sidechain": [false], "free_energy": -6.091, "intermolecular_energy": -12.038, "internal_energy": -1.037}

$$$$
3uex_ligand
     RDKit          3D

 55 54  0  0  0  0  0  0  0  0999 V2000
   -7.2530    4.1950   19.9870 C   0  0  0  0  0  0  0  0  0  0  0  0
   -6.5870    5.0520   18.9210 C   0  0  0  0  0  0  0  0  0  0  0  0
   -5.0730    5.1250   19.1320 C   0  0  0  0  0  0  0  0  0  0  0  0
   -4.4370    6.3630   18.4930 C   0  0  0  0  0  0  0  0  0  0  0  0
   -5.0620    7.7050   18.8960 C   0  0  0  0  0  0  0  0  0  0  0  0
   -4.0860    8.7450   19.4530 C   0  0  0  0  0  0  0  0  0  0  0  0
   -3.0230    8.1880   20.4080 C   0  0  0  0  0  0  0  0  0  0  0  0
   -1.6040    8.6490   20.0570 C   0  0  0  0  0  0  0  0  0  0  0  0
   -1.5080    9.3190   18.6820 C   0  0  0  0  0  0  0  0  0  0  0  0
   -1.1210   10.8010   18.6850 C   0  0  0  0  0  0  0  0  0  0  0  0
   -1.3720   11.5490   20.0000 C   0  0  0  0  0  0  0  0  0  0  0  0
   -2.5470   12.5260   19.9230 C   0  0  0  0  0  0  0  0  0  0  0  0
   -3.4070   12.3460   18.6660 C   0  0  0  0  0  0  0  0  0  0  0  0
   -4.0270   13.6540   18.1650 C   0  0  0  0  0  0  0  0  0  0  0  0
   -3.0310   14.8180   18.1130 C   0  0  0  0  0  0  0  0  0  0  0  0
   -3.6070   16.1760   17.7020 C   0  0  0  0  0  0  0  0  0  0  0  0
   -3.5760   16.4230   16.1970 C   0  0  0  0  0  0  0  0  0  0  0  0
   -4.2350   17.7280   15.7390 C   0  0  0  0  0  0  0  0  0  0  0  0
   -4.4570   17.7840   14.4940 O   0  0  0  0  0  0  0  0  0  0  0  0
   -4.4840   18.5820   16.6330 O   0  0  0  0  0  0  0  0  0  0  0  0
   -6.9676    4.5623   20.9838 H   0  0  0  0  0  0  0  0  0  0  0  0
   -8.3457    4.2527   19.8740 H   0  0  0  0  0  0  0  0  0  0  0  0
   -6.9273    3.1504   19.8740 H   0  0  0  0  0  0  0  0  0  0  0  0
   -6.7903    4.6157   17.9319 H   0  0  0  0  0  0  0  0  0  0  0  0
   -6.9965    6.0707   18.9887 H   0  0  0  0  0  0  0  0  0  0  0  0
   -4.8707    5.1458   20.2130 H   0  0  0  0  0  0  0  0  0  0  0  0
   -4.6311    4.2418   18.6475 H   0  0  0  0  0  0  0  0  0  0  0  0
   -3.3746    6.3841   18.7775 H   0  0  0  0  0  0  0  0  0  0  0  0
   -4.6022    6.2643   17.4100 H   0  0  0  0  0  0  0  0  0  0  0  0
   -5.5444    8.1352   18.0060 H   0  0  0  0  0  0  0  0  0  0  0  0
   -5.7622    7.4790   19.7137 H   0  0  0  0  0  0  0  0  0  0  0  0
   -3.5691    9.2171   18.6045 H   0  0  0  0  0  0  0  0  0  0  0  0
   -4.6905    9.4502   20.0423 H   0  0  0  0  0  0  0  0  0  0  0  0
   -3.2583    8.5233   21.4289 H   0  0  0  0  0  0  0  0  0  0  0  0
   -3.0442    7.0916   20.3216 H   0  0  0  0  0  0  0  0  0  0  0  0
   -1.2716    9.3683   20.8200 H   0  0  0  0  0  0  0  0  0  0  0  0
   -0.9675    7.7523   20.0281 H   0  0  0  0  0  0  0  0  0  0  0  0
   -0.7540    8.7751   18.0941 H   0  0  0  0  0  0  0  0  0  0  0  0
   -2.5227    9.2774   18.2593 H   0  0  0  0  0  0  0  0  0  0  0  0
   -0.0475   10.8708   18.4556 H   0  0  0  0  0  0  0  0  0  0  0  0
   -1.7681   11.2823   17.9369 H   0  0  0  0  0  0  0  0  0  0  0  0
   -1.5825   10.8105   20.7876 H   0  0  0  0  0  0  0  0  0  0  0  0
   -0.4697   12.1394   20.2175 H   0  0  0  0  0  0  0  0  0  0  0  0
   -3.1847   12.3748   20.8064 H   0  0  0  0  0  0  0  0  0  0  0  0
   -2.1239   13.5406   19.8846 H   0  0  0  0  0  0  0  0  0  0  0  0
   -2.7753   11.9303   17.8671 H   0  0  0  0  0  0  0  0  0  0  0  0
   -4.2355   11.6727   18.9312 H   0  0  0  0  0  0  0  0  0  0  0  0
   -4.4220   13.4873   17.1520 H   0  0  0  0  0  0  0  0  0  0  0  0
   -4.8168   13.9335   18.8779 H   0  0  0  0  0  0  0  0  0  0  0  0
   -2.5900   14.9286   19.1146 H   0  0  0  0  0  0  0  0  0  0  0  0
   -2.3062   14.5535   17.3289 H   0  0  0  0  0  0  0  0  0  0  0  0
   -4.6521   16.2274   18.0413 H   0  0  0  0  0  0  0  0  0  0  0  0
   -2.9770   16.9478   18.1683 H   0  0  0  0  0  0  0  0  0  0  0  0
   -2.5239   16.4417   15.8763 H   0  0  0  0  0  0  0  0  0  0  0  0
   -4.1586   15.6090   15.7409 H   0  0  0  0  0  0  0  0  0  0  0  0
  1  2  1  0
  2  3  1  0
  3  4  1  0
  4  5  1  0
  5  6  1  0
  6  7  1  0
  7  8  1  0
  8  9  1  0
  9 10  1  0
 10 11  1  0
 11 12  1  0
 12 13  1  0
 13 14  1  0
 14 15  1  0
 15 16  1  0
 16 17  1  0
 17 18  1  0
 18 19  2  0
 18 20  1  0
  1 21  1  0
  1 22  1  0
  1 23  1  0
  2 24  1  0
  2 25  1  0
  3 26  1  0
  3 27  1  0
  4 28  1  0
  4 29  1  0
  5 30  1  0
  5 31  1  0
  6 32  1  0
  6 33  1  0
  7 34  1  0
  7 35  1  0
  8 36  1  0
  8 37  1  0
  9 38  1  0
  9 39  1  0
 10 40  1  0
 10 41  1  0
 11 42  1  0
 11 43  1  0
 12 44  1  0
 12 45  1  0
 13 46  1  0
 13 47  1  0
 14 48  1  0
 14 49  1  0
 15 50  1  0
 15 51  1  0
 16 52  1  0
 16 53  1  0
 17 54  1  0
 17 55  1  0
M  CHG  1  20  -1
M  END
>  <meeko>  (9) 
{"is_sidechain": [false], "free_energy": -6.002, "intermolecular_energy": -11.523, "internal_energy": -1.38}

$$$$
