1o3f_ligand
     RDKit          3D

 43 46  0  0  0  0  0  0  0  0999 V2000
   44.0590   -5.1140   25.2020 N   0  0  0  0  0  0  0  0  0  0  0  0
   44.3190   -3.8250   25.2340 C   0  0  0  0  0  0  0  0  0  0  0  0
   44.6830   -3.1690   24.1530 N   0  0  0  0  0  0  0  0  0  0  0  0
   44.1980   -3.1020   26.5040 C   0  0  0  0  0  0  0  0  0  0  0  0
   44.3390   -1.7080   26.5420 C   0  0  0  0  0  0  0  0  0  0  0  0
   44.2310   -0.9950   27.7410 C   0  0  0  0  0  0  0  0  0  0  0  0
   43.9730   -1.7270   28.9040 C   0  0  0  0  0  0  0  0  0  0  0  0
   43.8190   -1.3070   30.2020 N   0  0  0  0  0  0  0  0  0  0  0  0
   43.5700   -2.3630   31.0540 C   0  0  0  0  0  0  0  0  0  0  0  0
   43.3630   -2.1790   32.5050 C   0  0  0  0  0  0  0  0  0  0  0  0
   42.4880   -3.0390   33.1880 C   0  0  0  0  0  0  0  0  0  0  0  0
   42.2600   -2.9050   34.5590 C   0  0  0  0  0  0  0  0  0  0  0  0
   42.9060   -1.9040   35.2790 C   0  0  0  0  0  0  0  0  0  0  0  0
   43.7890   -1.0190   34.6440 C   0  0  0  0  0  0  0  0  0  0  0  0
   44.4480    0.0210   35.4420 C   0  0  0  0  0  0  0  0  0  0  0  0
   43.8720    1.2940   35.5730 C   0  0  0  0  0  0  0  0  0  0  0  0
   44.4890    2.2770   36.3490 C   0  0  0  0  0  0  0  0  0  0  0  0
   45.6890    2.0000   37.0010 C   0  0  0  0  0  0  0  0  0  0  0  0
   46.2740    0.7410   36.8770 C   0  0  0  0  0  0  0  0  0  0  0  0
   45.6580   -0.2420   36.1010 C   0  0  0  0  0  0  0  0  0  0  0  0
   44.0090   -1.1680   33.2550 C   0  0  0  0  0  0  0  0  0  0  0  0
   44.8750   -0.3100   32.6020 O   0  0  0  0  0  0  0  0  0  0  0  0
   43.5710   -3.4960   30.2540 C   0  0  0  0  0  0  0  0  0  0  0  0
   43.8250   -3.1100   28.9090 C   0  0  0  0  0  0  0  0  0  0  0  0
   43.9390   -3.8100   27.6930 C   0  0  0  0  0  0  0  0  0  0  0  0
   43.8070   -5.5950   26.0600 H   0  0  0  0  0  0  0  0  0  0  0  0
   44.1240   -5.6650   24.3570 H   0  0  0  0  0  0  0  0  0  0  0  0
   44.7790   -3.6130   23.2500 H   0  0  0  0  0  0  0  0  0  0  0  0
   44.8510   -2.1690   24.2070 H   0  0  0  0  0  0  0  0  0  0  0  0
   44.5391   -1.1622   25.6081 H   0  0  0  0  0  0  0  0  0  0  0  0
   44.3446    0.0988   27.7676 H   0  0  0  0  0  0  0  0  0  0  0  0
   43.8740   -0.3470   30.5250 H   0  0  0  0  0  0  0  0  0  0  0  0
   41.9714   -3.8348   32.6314 H   0  0  0  0  0  0  0  0  0  0  0  0
   41.5691   -3.5912   35.0707 H   0  0  0  0  0  0  0  0  0  0  0  0
   42.7216   -1.8061   36.3590 H   0  0  0  0  0  0  0  0  0  0  0  0
   42.9257    1.5194   35.0595 H   0  0  0  0  0  0  0  0  0  0  0  0
   44.0276    3.2708   36.4458 H   0  0  0  0  0  0  0  0  0  0  0  0
   46.1743    2.7745   37.6131 H   0  0  0  0  0  0  0  0  0  0  0  0
   47.2216    0.5220   37.3910 H   0  0  0  0  0  0  0  0  0  0  0  0
   46.1260   -1.2328   36.0052 H   0  0  0  0  0  0  0  0  0  0  0  0
   44.3440    0.3620   32.1370 H   0  0  0  0  0  0  0  0  0  0  0  0
   43.4027   -4.5255   30.6030 H   0  0  0  0  0  0  0  0  0  0  0  0
   43.8263   -4.9040   27.6719 H   0  0  0  0  0  0  0  0  0  0  0  0
  1  2  1  0
  2  3  2  0
  2  4  1  0
  4  5  2  0
  5  6  1  0
  6  7  2  0
  7  8  1  0
  8  9  1  0
  9 10  1  0
 10 11  2  0
 11 12  1  0
 12 13  2  0
 13 14  1  0
 14 15  1  0
 15 16  2  0
 16 17  1  0
 17 18  2  0
 18 19  1  0
 19 20  2  0
 14 21  2  0
 21 22  1  0
  9 23  2  0
 23 24  1  0
 24 25  2  0
 25  4  1  0
 24  7  1  0
 21 10  1  0
 20 15  1  0
  1 26  1  0
  1 27  1  0
  3 28  1  0
  3 29  1  0
  5 30  1  0
  6 31  1  0
  8 32  1  0
 11 33  1  0
 12 34  1  0
 13 35  1  0
 16 36  1  0
 17 37  1  0
 18 38  1  0
 19 39  1  0
 20 40  1  0
 22 41  1  0
 23 42  1  0
 25 43  1  0
M  CHG  1   3   1
M  END
>  <meeko>  (1) 
{"is_sidechain": [false], "free_energy": -9.06, "intermolecular_energy": -10.913, "internal_energy": -0.912}

$$$$
1o3f_ligand
     RDKit          3D

 43 46  0  0  0  0  0  0  0  0999 V2000
   44.6610   -3.1530   24.1700 N   0  0  0  0  0  0  0  0  0  0  0  0
   44.3290   -3.8160   25.2570 C   0  0  0  0  0  0  0  0  0  0  0  0
   44.0480   -5.1010   25.2210 N   0  0  0  0  0  0  0  0  0  0  0  0
   44.2740   -3.1060   26.5390 C   0  0  0  0  0  0  0  0  0  0  0  0
   44.6740   -1.7650   26.6250 C   0  0  0  0  0  0  0  0  0  0  0  0
   44.6340   -1.0670   27.8370 C   0  0  0  0  0  0  0  0  0  0  0  0
   44.1750   -1.7570   28.9620 C   0  0  0  0  0  0  0  0  0  0  0  0
   44.0280   -1.3390   30.2620 N   0  0  0  0  0  0  0  0  0  0  0  0
   43.5350   -2.3430   31.0680 C   0  0  0  0  0  0  0  0  0  0  0  0
   43.2830   -2.1500   32.5110 C   0  0  0  0  0  0  0  0  0  0  0  0
   43.0490   -3.2720   33.3230 C   0  0  0  0  0  0  0  0  0  0  0  0
   42.8050   -3.1400   34.6920 C   0  0  0  0  0  0  0  0  0  0  0  0
   42.7910   -1.8780   35.2800 C   0  0  0  0  0  0  0  0  0  0  0  0
   43.0180   -0.7260   34.5120 C   0  0  0  0  0  0  0  0  0  0  0  0
   42.9930    0.5840   35.1730 C   0  0  0  0  0  0  0  0  0  0  0  0
   41.7750    1.2080   35.4780 C   0  0  0  0  0  0  0  0  0  0  0  0
   41.7520    2.4460   36.1250 C   0  0  0  0  0  0  0  0  0  0  0  0
   42.9460    3.0730   36.4730 C   0  0  0  0  0  0  0  0  0  0  0  0
   44.1650    2.4660   36.1740 C   0  0  0  0  0  0  0  0  0  0  0  0
   44.1880    1.2290   35.5270 C   0  0  0  0  0  0  0  0  0  0  0  0
   43.2630   -0.8770   33.1270 C   0  0  0  0  0  0  0  0  0  0  0  0
   43.4900    0.2410   32.3460 O   0  0  0  0  0  0  0  0  0  0  0  0
   43.3670   -3.4410   30.2380 C   0  0  0  0  0  0  0  0  0  0  0  0
   43.7670   -3.0860   28.9200 C   0  0  0  0  0  0  0  0  0  0  0  0
   43.8170   -3.7720   27.6920 C   0  0  0  0  0  0  0  0  0  0  0  0
   44.8460   -2.1560   24.2290 H   0  0  0  0  0  0  0  0  0  0  0  0
   44.7190   -3.5880   23.2600 H   0  0  0  0  0  0  0  0  0  0  0  0
   44.0730   -5.6430   24.3690 H   0  0  0  0  0  0  0  0  0  0  0  0
   43.8190   -5.5880   26.0830 H   0  0  0  0  0  0  0  0  0  0  0  0
   45.0272   -1.2501   25.7194 H   0  0  0  0  0  0  0  0  0  0  0  0
   44.9516   -0.0158   27.9017 H   0  0  0  0  0  0  0  0  0  0  0  0
   44.2450   -0.4130   30.6150 H   0  0  0  0  0  0  0  0  0  0  0  0
   43.0581   -4.2751   32.8716 H   0  0  0  0  0  0  0  0  0  0  0  0
   42.6237   -4.0343   35.3064 H   0  0  0  0  0  0  0  0  0  0  0  0
   42.5998   -1.7831   36.3591 H   0  0  0  0  0  0  0  0  0  0  0  0
   40.8286    0.7182   35.2053 H   0  0  0  0  0  0  0  0  0  0  0  0
   40.7904    2.9258   36.3597 H   0  0  0  0  0  0  0  0  0  0  0  0
   42.9272    4.0471   36.9837 H   0  0  0  0  0  0  0  0  0  0  0  0
   45.1082    2.9614   36.4477 H   0  0  0  0  0  0  0  0  0  0  0  0
   45.1526    0.7552   35.2924 H   0  0  0  0  0  0  0  0  0  0  0  0
   43.0010    0.1320   31.5100 H   0  0  0  0  0  0  0  0  0  0  0  0
   42.9866   -4.4255   30.5481 H   0  0  0  0  0  0  0  0  0  0  0  0
   43.5004   -4.8238   27.6335 H   0  0  0  0  0  0  0  0  0  0  0  0
  1  2  1  0
  2  3  2  0
  2  4  1  0
  4  5  2  0
  5  6  1  0
  6  7  2  0
  7  8  1  0
  8  9  1  0
  9 10  1  0
 10 11  2  0
 11 12  1  0
 12 13  2  0
 13 14  1  0
 14 15  1  0
 15 16  2  0
 16 17  1  0
 17 18  2  0
 18 19  1  0
 19 20  2  0
 14 21  2  0
 21 22  1  0
  9 23  2  0
 23 24  1  0
 24 25  2  0
 25  4  1  0
 24  7  1  0
 21 10  1  0
 20 15  1  0
  1 26  1  0
  1 27  1  0
  3 28  1  0
  3 29  1  0
  5 30  1  0
  6 31  1  0
  8 32  1  0
 11 33  1  0
 12 34  1  0
 13 35  1  0
 16 36  1  0
 17 37  1  0
 18 38  1  0
 19 39  1  0
 20 40  1  0
 22 41  1  0
 23 42  1  0
 25 43  1  0
M  CHG  1   3   1
M  END
>  <meeko>  (2) 
{"is_sidechain": [false], "free_energy": -8.744, "intermolecular_energy": -10.73, "internal_energy": -0.715}

$$$$
1o3f_ligand
     RDKit          3D

 43 46  0  0  0  0  0  0  0  0999 V2000
   44.3590   -2.9660   24.2260 N   0  0  0  0  0  0  0  0  0  0  0  0
   44.2530   -3.6960   25.3150 C   0  0  0  0  0  0  0  0  0  0  0  0
   44.2130   -5.0100   25.2620 N   0  0  0  0  0  0  0  0  0  0  0  0
   44.1800   -3.0300   26.6200 C   0  0  0  0  0  0  0  0  0  0  0  0
   44.7900   -1.7810   26.8120 C   0  0  0  0  0  0  0  0  0  0  0  0
   44.7370   -1.1260   28.0480 C   0  0  0  0  0  0  0  0  0  0  0  0
   44.0510   -1.7640   29.0850 C   0  0  0  0  0  0  0  0  0  0  0  0
   43.8380   -1.3690   30.3840 N   0  0  0  0  0  0  0  0  0  0  0  0
   43.0990   -2.2990   31.0850 C   0  0  0  0  0  0  0  0  0  0  0  0
   42.7290   -2.1120   32.5030 C   0  0  0  0  0  0  0  0  0  0  0  0
   43.1110   -3.0810   33.4450 C   0  0  0  0  0  0  0  0  0  0  0  0
   42.7850   -2.9490   34.7960 C   0  0  0  0  0  0  0  0  0  0  0  0
   42.0660   -1.8400   35.2360 C   0  0  0  0  0  0  0  0  0  0  0  0
   41.6610   -0.8450   34.3340 C   0  0  0  0  0  0  0  0  0  0  0  0
   40.9060    0.3070   34.8410 C   0  0  0  0  0  0  0  0  0  0  0  0
   41.5440    1.3080   35.5880 C   0  0  0  0  0  0  0  0  0  0  0  0
   40.8290    2.4140   36.0520 C   0  0  0  0  0  0  0  0  0  0  0  0
   39.4680    2.5300   35.7760 C   0  0  0  0  0  0  0  0  0  0  0  0
   38.8200    1.5420   35.0370 C   0  0  0  0  0  0  0  0  0  0  0  0
   39.5340    0.4370   34.5730 C   0  0  0  0  0  0  0  0  0  0  0  0
   41.9990   -0.9930   32.9690 C   0  0  0  0  0  0  0  0  0  0  0  0
   41.6130   -0.0280   32.0580 O   0  0  0  0  0  0  0  0  0  0  0  0
   42.8390   -3.3230   30.1870 C   0  0  0  0  0  0  0  0  0  0  0  0
   43.4320   -3.0000   28.9350 C   0  0  0  0  0  0  0  0  0  0  0  0
   43.4970   -3.6440   27.6860 C   0  0  0  0  0  0  0  0  0  0  0  0
   44.3600   -1.9530   24.3010 H   0  0  0  0  0  0  0  0  0  0  0  0
   44.4150   -3.3680   23.3010 H   0  0  0  0  0  0  0  0  0  0  0  0
   44.2630   -5.5250   24.3940 H   0  0  0  0  0  0  0  0  0  0  0  0
   44.1560   -5.5450   26.1240 H   0  0  0  0  0  0  0  0  0  0  0  0
   45.3210   -1.3066   25.9736 H   0  0  0  0  0  0  0  0  0  0  0  0
   45.2166   -0.1474   28.1972 H   0  0  0  0  0  0  0  0  0  0  0  0
   44.1680   -0.5060   30.8020 H   0  0  0  0  0  0  0  0  0  0  0  0
   43.6788   -3.9621   33.1115 H   0  0  0  0  0  0  0  0  0  0  0  0
   43.0964   -3.7219   35.5141 H   0  0  0  0  0  0  0  0  0  0  0  0
   41.8131   -1.7435   36.3022 H   0  0  0  0  0  0  0  0  0  0  0  0
   42.6178    1.2210   35.8104 H   0  0  0  0  0  0  0  0  0  0  0  0
   41.3402    3.1939   36.6355 H   0  0  0  0  0  0  0  0  0  0  0  0
   38.9051    3.4015   36.1415 H   0  0  0  0  0  0  0  0  0  0  0  0
   37.7456    1.6335   34.8196 H   0  0  0  0  0  0  0  0  0  0  0  0
   39.0168   -0.3403   33.9913 H   0  0  0  0  0  0  0  0  0  0  0  0
   42.3310    0.0820   31.4080 H   0  0  0  0  0  0  0  0  0  0  0  0
   42.2672   -4.2366   30.4070 H   0  0  0  0  0  0  0  0  0  0  0  0
   43.0161   -4.6230   27.5434 H   0  0  0  0  0  0  0  0  0  0  0  0
  1  2  1  0
  2  3  2  0
  2  4  1  0
  4  5  2  0
  5  6  1  0
  6  7  2  0
  7  8  1  0
  8  9  1  0
  9 10  1  0
 10 11  2  0
 11 12  1  0
 12 13  2  0
 13 14  1  0
 14 15  1  0
 15 16  2  0
 16 17  1  0
 17 18  2  0
 18 19  1  0
 19 20  2  0
 14 21  2  0
 21 22  1  0
  9 23  2  0
 23 24  1  0
 24 25  2  0
 25  4  1  0
 24  7  1  0
 21 10  1  0
 20 15  1  0
  1 26  1  0
  1 27  1  0
  3 28  1  0
  3 29  1  0
  5 30  1  0
  6 31  1  0
  8 32  1  0
 11 33  1  0
 12 34  1  0
 13 35  1  0
 16 36  1  0
 17 37  1  0
 18 38  1  0
 19 39  1  0
 20 40  1  0
 22 41  1  0
 23 42  1  0
 25 43  1  0
M  CHG  1   3   1
M  END
>  <meeko>  (3) 
{"is_sidechain": [false], "free_energy": -8.22, "intermolecular_energy": -9.955, "internal_energy": -0.859}

$$$$
1o3f_ligand
     RDKit          3D

 43 46  0  0  0  0  0  0  0  0999 V2000
   44.4410   -4.5530   25.3570 N   0  0  0  0  0  0  0  0  0  0  0  0
   44.2520   -3.3720   25.9050 C   0  0  0  0  0  0  0  0  0  0  0  0
   44.3240   -2.2650   25.1980 N   0  0  0  0  0  0  0  0  0  0  0  0
   43.9530   -3.2880   27.3390 C   0  0  0  0  0  0  0  0  0  0  0  0
   44.1160   -4.4100   28.1640 C   0  0  0  0  0  0  0  0  0  0  0  0
   43.8340   -4.3560   29.5340 C   0  0  0  0  0  0  0  0  0  0  0  0
   43.3850   -3.1370   30.0510 C   0  0  0  0  0  0  0  0  0  0  0  0
   43.0360   -2.7920   31.3340 N   0  0  0  0  0  0  0  0  0  0  0  0
   42.6470   -1.4710   31.4170 C   0  0  0  0  0  0  0  0  0  0  0  0
   42.2250   -0.8480   32.6880 C   0  0  0  0  0  0  0  0  0  0  0  0
   40.9460   -1.1250   33.1970 C   0  0  0  0  0  0  0  0  0  0  0  0
   40.5020   -0.5590   34.3950 C   0  0  0  0  0  0  0  0  0  0  0  0
   41.3320    0.2990   35.1110 C   0  0  0  0  0  0  0  0  0  0  0  0
   42.6180    0.6080   34.6450 C   0  0  0  0  0  0  0  0  0  0  0  0
   43.4590    1.5170   35.4320 C   0  0  0  0  0  0  0  0  0  0  0  0
   43.2360    2.9010   35.4040 C   0  0  0  0  0  0  0  0  0  0  0  0
   44.0240    3.7640   36.1700 C   0  0  0  0  0  0  0  0  0  0  0  0
   45.0430    3.2520   36.9700 C   0  0  0  0  0  0  0  0  0  0  0  0
   45.2780    1.8790   37.0060 C   0  0  0  0  0  0  0  0  0  0  0  0
   44.4910    1.0170   36.2400 C   0  0  0  0  0  0  0  0  0  0  0  0
   43.0530    0.0270   33.4310 C   0  0  0  0  0  0  0  0  0  0  0  0
   44.3160    0.3130   32.9480 O   0  0  0  0  0  0  0  0  0  0  0  0
   42.7540   -0.9680   30.1300 C   0  0  0  0  0  0  0  0  0  0  0  0
   43.2120   -2.0020   29.2670 C   0  0  0  0  0  0  0  0  0  0  0  0
   43.4990   -2.0750   27.8920 C   0  0  0  0  0  0  0  0  0  0  0  0
   44.4060   -5.3850   25.9380 H   0  0  0  0  0  0  0  0  0  0  0  0
   44.6480   -4.6740   24.3760 H   0  0  0  0  0  0  0  0  0  0  0  0
   44.5230   -2.2610   24.2070 H   0  0  0  0  0  0  0  0  0  0  0  0
   44.1470   -1.3710   25.6470 H   0  0  0  0  0  0  0  0  0  0  0  0
   44.4733   -5.3532   27.7250 H   0  0  0  0  0  0  0  0  0  0  0  0
   43.9607   -5.2382   30.1787 H   0  0  0  0  0  0  0  0  0  0  0  0
   43.0540   -3.4070   32.1390 H   0  0  0  0  0  0  0  0  0  0  0  0
   40.2799   -1.8014   32.6413 H   0  0  0  0  0  0  0  0  0  0  0  0
   39.4954   -0.7917   34.7727 H   0  0  0  0  0  0  0  0  0  0  0  0
   40.9749    0.7398   36.0534 H   0  0  0  0  0  0  0  0  0  0  0  0
   42.4335    3.3111   34.7733 H   0  0  0  0  0  0  0  0  0  0  0  0
   43.8396    4.8481   36.1413 H   0  0  0  0  0  0  0  0  0  0  0  0
   45.6624    3.9318   37.5735 H   0  0  0  0  0  0  0  0  0  0  0  0
   46.0829    1.4746   37.6374 H   0  0  0  0  0  0  0  0  0  0  0  0
   44.6822   -0.0658   36.2704 H   0  0  0  0  0  0  0  0  0  0  0  0
   44.3910    1.2800   32.8480 H   0  0  0  0  0  0  0  0  0  0  0  0
   42.5224    0.0633   29.8253 H   0  0  0  0  0  0  0  0  0  0  0  0
   43.3696   -1.1896   27.2522 H   0  0  0  0  0  0  0  0  0  0  0  0
  1  2  1  0
  2  3  2  0
  2  4  1  0
  4  5  2  0
  5  6  1  0
  6  7  2  0
  7  8  1  0
  8  9  1  0
  9 10  1  0
 10 11  2  0
 11 12  1  0
 12 13  2  0
 13 14  1  0
 14 15  1  0
 15 16  2  0
 16 17  1  0
 17 18  2  0
 18 19  1  0
 19 20  2  0
 14 21  2  0
 21 22  1  0
  9 23  2  0
 23 24  1  0
 24 25  2  0
 25  4  1  0
 24  7  1  0
 21 10  1  0
 20 15  1  0
  1 26  1  0
  1 27  1  0
  3 28  1  0
  3 29  1  0
  5 30  1  0
  6 31  1  0
  8 32  1  0
 11 33  1  0
 12 34  1  0
 13 35  1  0
 16 36  1  0
 17 37  1  0
 18 38  1  0
 19 39  1  0
 20 40  1  0
 22 41  1  0
 23 42  1  0
 25 43  1  0
M  CHG  1   3   1
M  END
>  <meeko>  (4) 
{"is_sidechain": [false], "free_energy": -7.592, "intermolecular_energy": -9.366, "internal_energy": -0.691}

$$$$
1o3f_ligand
     RDKit          3D

 43 46  0  0  0  0  0  0  0  0999 V2000
   45.7020    2.1650   38.4130 N   0  0  0  0  0  0  0  0  0  0  0  0
   46.0610    1.1930   37.6040 C   0  0  0  0  0  0  0  0  0  0  0  0
   47.0440    0.3720   37.9070 N   0  0  0  0  0  0  0  0  0  0  0  0
   45.3460    1.0170   36.3350 C   0  0  0  0  0  0  0  0  0  0  0  0
   44.8720    2.1320   35.6280 C   0  0  0  0  0  0  0  0  0  0  0  0
   44.1860    1.9910   34.4180 C   0  0  0  0  0  0  0  0  0  0  0  0
   43.9910    0.6930   33.9360 C   0  0  0  0  0  0  0  0  0  0  0  0
   43.3630    0.2540   32.7960 N   0  0  0  0  0  0  0  0  0  0  0  0
   43.3960   -1.1210   32.6930 C   0  0  0  0  0  0  0  0  0  0  0  0
   42.7920   -1.8460   31.5560 C   0  0  0  0  0  0  0  0  0  0  0  0
   41.5570   -2.4910   31.7310 C   0  0  0  0  0  0  0  0  0  0  0  0
   40.9470   -3.1890   30.6870 C   0  0  0  0  0  0  0  0  0  0  0  0
   41.5620   -3.2560   29.4400 C   0  0  0  0  0  0  0  0  0  0  0  0
   42.7960   -2.6290   29.2140 C   0  0  0  0  0  0  0  0  0  0  0  0
   43.4090   -2.7260   27.8840 C   0  0  0  0  0  0  0  0  0  0  0  0
   43.5340   -3.9680   27.2430 C   0  0  0  0  0  0  0  0  0  0  0  0
   44.0980   -4.0570   25.9680 C   0  0  0  0  0  0  0  0  0  0  0  0
   44.5450   -2.9060   25.3220 C   0  0  0  0  0  0  0  0  0  0  0  0
   44.4290   -1.6660   25.9470 C   0  0  0  0  0  0  0  0  0  0  0  0
   43.8660   -1.5770   27.2210 C   0  0  0  0  0  0  0  0  0  0  0  0
   43.4010   -1.9270   30.2820 C   0  0  0  0  0  0  0  0  0  0  0  0
   44.6170   -1.2990   30.0870 O   0  0  0  0  0  0  0  0  0  0  0  0
   44.0720   -1.5630   33.8190 C   0  0  0  0  0  0  0  0  0  0  0  0
   44.4460   -0.4380   34.6040 C   0  0  0  0  0  0  0  0  0  0  0  0
   45.1330   -0.2760   35.8220 C   0  0  0  0  0  0  0  0  0  0  0  0
   44.9570    2.7970   38.1360 H   0  0  0  0  0  0  0  0  0  0  0  0
   46.1550    2.3340   39.3010 H   0  0  0  0  0  0  0  0  0  0  0  0
   47.5690    0.4420   38.7670 H   0  0  0  0  0  0  0  0  0  0  0  0
   47.2790   -0.3840   37.2700 H   0  0  0  0  0  0  0  0  0  0  0  0
   45.0439    3.1395   36.0346 H   0  0  0  0  0  0  0  0  0  0  0  0
   43.8141    2.8671   33.8666 H   0  0  0  0  0  0  0  0  0  0  0  0
   42.9230    0.8430   32.0970 H   0  0  0  0  0  0  0  0  0  0  0  0
   41.0598   -2.4454   32.7111 H   0  0  0  0  0  0  0  0  0  0  0  0
   39.9795   -3.6864   30.8500 H   0  0  0  0  0  0  0  0  0  0  0  0
   41.0745   -3.8071   28.6223 H   0  0  0  0  0  0  0  0  0  0  0  0
   43.1846   -4.8800   27.7492 H   0  0  0  0  0  0  0  0  0  0  0  0
   44.1892   -5.0356   25.4740 H   0  0  0  0  0  0  0  0  0  0  0  0
   44.9896   -2.9763   24.3183 H   0  0  0  0  0  0  0  0  0  0  0  0
   44.7811   -0.7575   25.4364 H   0  0  0  0  0  0  0  0  0  0  0  0
   43.7797   -0.5957   27.7105 H   0  0  0  0  0  0  0  0  0  0  0  0
   44.5560   -0.3980   30.4550 H   0  0  0  0  0  0  0  0  0  0  0  0
   44.2848   -2.6137   34.0655 H   0  0  0  0  0  0  0  0  0  0  0  0
   45.5015   -1.1557   36.3700 H   0  0  0  0  0  0  0  0  0  0  0  0
  1  2  1  0
  2  3  2  0
  2  4  1  0
  4  5  2  0
  5  6  1  0
  6  7  2  0
  7  8  1  0
  8  9  1  0
  9 10  1  0
 10 11  2  0
 11 12  1  0
 12 13  2  0
 13 14  1  0
 14 15  1  0
 15 16  2  0
 16 17  1  0
 17 18  2  0
 18 19  1  0
 19 20  2  0
 14 21  2  0
 21 22  1  0
  9 23  2  0
 23 24  1  0
 24 25  2  0
 25  4  1  0
 24  7  1  0
 21 10  1  0
 20 15  1  0
  1 26  1  0
  1 27  1  0
  3 28  1  0
  3 29  1  0
  5 30  1  0
  6 31  1  0
  8 32  1  0
 11 33  1  0
 12 34  1  0
 13 35  1  0
 16 36  1  0
 17 37  1  0
 18 38  1  0
 19 39  1  0
 20 40  1  0
 22 41  1  0
 23 42  1  0
 25 43  1  0
M  CHG  1   3   1
M  END
>  <meeko>  (5) 
{"is_sidechain": [false], "free_energy": -7.569, "intermolecular_energy": -9.534, "internal_energy": -0.495}

$$$$
1o3f_ligand
     RDKit          3D

 43 46  0  0  0  0  0  0  0  0999 V2000
   44.6340   -3.1370   24.2200 N   0  0  0  0  0  0  0  0  0  0  0  0
   44.3330   -3.8050   25.3120 C   0  0  0  0  0  0  0  0  0  0  0  0
   44.1720   -5.1100   25.2980 N   0  0  0  0  0  0  0  0  0  0  0  0
   44.1760   -3.0770   26.5760 C   0  0  0  0  0  0  0  0  0  0  0  0
   44.6700   -1.7710   26.7080 C   0  0  0  0  0  0  0  0  0  0  0  0
   44.5360   -1.0570   27.9040 C   0  0  0  0  0  0  0  0  0  0  0  0
   43.8860   -1.6950   28.9640 C   0  0  0  0  0  0  0  0  0  0  0  0
   43.6130   -1.2500   30.2350 N   0  0  0  0  0  0  0  0  0  0  0  0
   42.9430   -2.2020   30.9750 C   0  0  0  0  0  0  0  0  0  0  0  0
   42.5300   -1.9720   32.3750 C   0  0  0  0  0  0  0  0  0  0  0  0
   43.3390   -2.4520   33.4170 C   0  0  0  0  0  0  0  0  0  0  0  0
   42.9900   -2.2590   34.7560 C   0  0  0  0  0  0  0  0  0  0  0  0
   41.8190   -1.5790   35.0810 C   0  0  0  0  0  0  0  0  0  0  0  0
   40.9770   -1.0810   34.0760 C   0  0  0  0  0  0  0  0  0  0  0  0
   39.7530   -0.3700   34.4640 C   0  0  0  0  0  0  0  0  0  0  0  0
   38.6270   -1.0770   34.9130 C   0  0  0  0  0  0  0  0  0  0  0  0
   37.4700   -0.3990   35.3010 C   0  0  0  0  0  0  0  0  0  0  0  0
   37.4240    0.9920   35.2430 C   0  0  0  0  0  0  0  0  0  0  0  0
   38.5340    1.7080   34.7970 C   0  0  0  0  0  0  0  0  0  0  0  0
   39.6910    1.0300   34.4090 C   0  0  0  0  0  0  0  0  0  0  0  0
   41.3440   -1.2840   32.7260 C   0  0  0  0  0  0  0  0  0  0  0  0
   40.5330   -0.8030   31.7150 O   0  0  0  0  0  0  0  0  0  0  0  0
   42.7930   -3.2930   30.1330 C   0  0  0  0  0  0  0  0  0  0  0  0
   43.3810   -2.9870   28.8740 C   0  0  0  0  0  0  0  0  0  0  0  0
   43.5270   -3.6910   27.6640 C   0  0  0  0  0  0  0  0  0  0  0  0
   44.7250   -2.1260   24.2610 H   0  0  0  0  0  0  0  0  0  0  0  0
   44.7570   -3.5830   23.3210 H   0  0  0  0  0  0  0  0  0  0  0  0
   44.2710   -5.6650   24.4590 H   0  0  0  0  0  0  0  0  0  0  0  0
   43.9640   -5.5990   26.1640 H   0  0  0  0  0  0  0  0  0  0  0  0
   45.1739   -1.2975   25.8525 H   0  0  0  0  0  0  0  0  0  0  0  0
   44.9269   -0.0338   28.0058 H   0  0  0  0  0  0  0  0  0  0  0  0
   43.8580   -0.3410   30.6100 H   0  0  0  0  0  0  0  0  0  0  0  0
   44.2666   -2.9911   33.1743 H   0  0  0  0  0  0  0  0  0  0  0  0
   43.6410   -2.6446   35.5545 H   0  0  0  0  0  0  0  0  0  0  0  0
   41.5515   -1.4308   36.1376 H   0  0  0  0  0  0  0  0  0  0  0  0
   38.6563   -2.1756   34.9597 H   0  0  0  0  0  0  0  0  0  0  0  0
   36.5940   -0.9637   35.6528 H   0  0  0  0  0  0  0  0  0  0  0  0
   36.5120    1.5254   35.5491 H   0  0  0  0  0  0  0  0  0  0  0  0
   38.4982    2.8064   34.7509 H   0  0  0  0  0  0  0  0  0  0  0  0
   40.5633    1.5999   34.0564 H   0  0  0  0  0  0  0  0  0  0  0  0
   39.9090   -1.5090   31.4640 H   0  0  0  0  0  0  0  0  0  0  0  0
   42.2999   -4.2406   30.3954 H   0  0  0  0  0  0  0  0  0  0  0  0
   43.1363   -4.7149   27.5690 H   0  0  0  0  0  0  0  0  0  0  0  0
  1  2  1  0
  2  3  2  0
  2  4  1  0
  4  5  2  0
  5  6  1  0
  6  7  2  0
  7  8  1  0
  8  9  1  0
  9 10  1  0
 10 11  2  0
 11 12  1  0
 12 13  2  0
 13 14  1  0
 14 15  1  0
 15 16  2  0
 16 17  1  0
 17 18  2  0
 18 19  1  0
 19 20  2  0
 14 21  2  0
 21 22  1  0
  9 23  2  0
 23 24  1  0
 24 25  2  0
 25  4  1  0
 24  7  1  0
 21 10  1  0
 20 15  1  0
  1 26  1  0
  1 27  1  0
  3 28  1  0
  3 29  1  0
  5 30  1  0
  6 31  1  0
  8 32  1  0
 11 33  1  0
 12 34  1  0
 13 35  1  0
 16 36  1  0
 17 37  1  0
 18 38  1  0
 19 39  1  0
 20 40  1  0
 22 41  1  0
 23 42  1  0
 25 43  1  0
M  CHG  1   3   1
M  END
>  <meeko>  (6) 
{"is_sidechain": [false], "free_energy": -7.488, "intermolecular_energy": -9.179, "internal_energy": -0.753}

$$$$
1o3f_ligand
     RDKit          3D

 43 46  0  0  0  0  0  0  0  0999 V2000
   36.4740    2.9750   36.0650 N   0  0  0  0  0  0  0  0  0  0  0  0
   37.7170    3.0600   35.6450 C   0  0  0  0  0  0  0  0  0  0  0  0
   38.5460    3.9630   36.1250 N   0  0  0  0  0  0  0  0  0  0  0  0
   38.1920    2.1260   34.6180 C   0  0  0  0  0  0  0  0  0  0  0  0
   37.4600    1.9400   33.4370 C   0  0  0  0  0  0  0  0  0  0  0  0
   37.8900    1.0520   32.4440 C   0  0  0  0  0  0  0  0  0  0  0  0
   39.0810    0.3570   32.6740 C   0  0  0  0  0  0  0  0  0  0  0  0
   39.7370   -0.5630   31.8930 N   0  0  0  0  0  0  0  0  0  0  0  0
   40.8940   -1.0090   32.4960 C   0  0  0  0  0  0  0  0  0  0  0  0
   41.7860   -2.0020   31.8620 C   0  0  0  0  0  0  0  0  0  0  0  0
   42.1900   -3.1290   32.5970 C   0  0  0  0  0  0  0  0  0  0  0  0
   43.0320   -4.0950   32.0410 C   0  0  0  0  0  0  0  0  0  0  0  0
   43.4890   -3.9540   30.7340 C   0  0  0  0  0  0  0  0  0  0  0  0
   43.1150   -2.8460   29.9590 C   0  0  0  0  0  0  0  0  0  0  0  0
   43.6210   -2.7370   28.5860 C   0  0  0  0  0  0  0  0  0  0  0  0
   44.3000   -1.5840   28.1630 C   0  0  0  0  0  0  0  0  0  0  0  0
   44.7990   -1.4890   26.8620 C   0  0  0  0  0  0  0  0  0  0  0  0
   44.6230   -2.5440   25.9700 C   0  0  0  0  0  0  0  0  0  0  0  0
   43.9490   -3.6950   26.3740 C   0  0  0  0  0  0  0  0  0  0  0  0
   43.4490   -3.7890   27.6740 C   0  0  0  0  0  0  0  0  0  0  0  0
   42.2620   -1.8770   30.5360 C   0  0  0  0  0  0  0  0  0  0  0  0
   41.8770   -0.7750   29.7950 O   0  0  0  0  0  0  0  0  0  0  0  0
   40.9660   -0.3410   33.7080 C   0  0  0  0  0  0  0  0  0  0  0  0
   39.8360    0.5140   33.8310 C   0  0  0  0  0  0  0  0  0  0  0  0
   39.3870    1.4100   34.8190 C   0  0  0  0  0  0  0  0  0  0  0  0
   35.8530    2.2840   35.6540 H   0  0  0  0  0  0  0  0  0  0  0  0
   36.0910    3.5890   36.7700 H   0  0  0  0  0  0  0  0  0  0  0  0
   38.2770    4.6300   36.8340 H   0  0  0  0  0  0  0  0  0  0  0  0
   39.5070    3.9850   35.7960 H   0  0  0  0  0  0  0  0  0  0  0  0
   36.5276    2.5041   33.2874 H   0  0  0  0  0  0  0  0  0  0  0  0
   37.3132    0.9067   31.5187 H   0  0  0  0  0  0  0  0  0  0  0  0
   39.4330   -0.8920   30.9840 H   0  0  0  0  0  0  0  0  0  0  0  0
   41.8362   -3.2532   33.6311 H   0  0  0  0  0  0  0  0  0  0  0  0
   43.3344   -4.9686   32.6372 H   0  0  0  0  0  0  0  0  0  0  0  0
   44.1509   -4.7200   30.3038 H   0  0  0  0  0  0  0  0  0  0  0  0
   44.4406   -0.7470   28.8628 H   0  0  0  0  0  0  0  0  0  0  0  0
   45.3310   -0.5810   26.5419 H   0  0  0  0  0  0  0  0  0  0  0  0
   45.0164   -2.4687   24.9455 H   0  0  0  0  0  0  0  0  0  0  0  0
   43.8112   -4.5284   25.6694 H   0  0  0  0  0  0  0  0  0  0  0  0
   42.9143   -4.6980   27.9867 H   0  0  0  0  0  0  0  0  0  0  0  0
   41.8240   -1.0410   28.8590 H   0  0  0  0  0  0  0  0  0  0  0  0
   41.7668   -0.4537   34.4537 H   0  0  0  0  0  0  0  0  0  0  0  0
   39.9668    1.5500   35.7433 H   0  0  0  0  0  0  0  0  0  0  0  0
  1  2  1  0
  2  3  2  0
  2  4  1  0
  4  5  2  0
  5  6  1  0
  6  7  2  0
  7  8  1  0
  8  9  1  0
  9 10  1  0
 10 11  2  0
 11 12  1  0
 12 13  2  0
 13 14  1  0
 14 15  1  0
 15 16  2  0
 16 17  1  0
 17 18  2  0
 18 19  1  0
 19 20  2  0
 14 21  2  0
 21 22  1  0
  9 23  2  0
 23 24  1  0
 24 25  2  0
 25  4  1  0
 24  7  1  0
 21 10  1  0
 20 15  1  0
  1 26  1  0
  1 27  1  0
  3 28  1  0
  3 29  1  0
  5 30  1  0
  6 31  1  0
  8 32  1  0
 11 33  1  0
 12 34  1  0
 13 35  1  0
 16 36  1  0
 17 37  1  0
 18 38  1  0
 19 39  1  0
 20 40  1  0
 22 41  1  0
 23 42  1  0
 25 43  1  0
M  CHG  1   3   1
M  END
>  <meeko>  (7) 
{"is_sidechain": [false], "free_energy": -7.099, "intermolecular_energy": -8.814, "internal_energy": -0.649}

$$$$
1o3f_ligand
     RDKit          3D

 43 46  0  0  0  0  0  0  0  0999 V2000
   42.7570    3.0780   37.7000 N   0  0  0  0  0  0  0  0  0  0  0  0
   42.0160    2.7550   36.6620 C   0  0  0  0  0  0  0  0  0  0  0  0
   40.7550    3.1210   36.5760 N   0  0  0  0  0  0  0  0  0  0  0  0
   42.6110    1.9720   35.5740 C   0  0  0  0  0  0  0  0  0  0  0  0
   43.8030    2.3940   34.9670 C   0  0  0  0  0  0  0  0  0  0  0  0
   44.3880    1.6660   33.9250 C   0  0  0  0  0  0  0  0  0  0  0  0
   43.7410    0.4970   33.5130 C   0  0  0  0  0  0  0  0  0  0  0  0
   44.0760   -0.4050   32.5330 N   0  0  0  0  0  0  0  0  0  0  0  0
   43.1590   -1.4320   32.4520 C   0  0  0  0  0  0  0  0  0  0  0  0
   43.2900   -2.5360   31.4790 C   0  0  0  0  0  0  0  0  0  0  0  0
   43.1830   -3.8630   31.9260 C   0  0  0  0  0  0  0  0  0  0  0  0
   43.2990   -4.9390   31.0440 C   0  0  0  0  0  0  0  0  0  0  0  0
   43.5260   -4.7100   29.6900 C   0  0  0  0  0  0  0  0  0  0  0  0
   43.6410   -3.4040   29.1920 C   0  0  0  0  0  0  0  0  0  0  0  0
   43.8800   -3.2090   27.7580 C   0  0  0  0  0  0  0  0  0  0  0  0
   44.2380   -1.9480   27.2570 C   0  0  0  0  0  0  0  0  0  0  0  0
   44.4850   -1.7670   25.8950 C   0  0  0  0  0  0  0  0  0  0  0  0
   44.3760   -2.8440   25.0180 C   0  0  0  0  0  0  0  0  0  0  0  0
   44.0190   -4.1020   25.5000 C   0  0  0  0  0  0  0  0  0  0  0  0
   43.7710   -4.2830   26.8620 C   0  0  0  0  0  0  0  0  0  0  0  0
   43.5210   -2.3250   30.0990 C   0  0  0  0  0  0  0  0  0  0  0  0
   43.6300   -1.0260   29.6360 O   0  0  0  0  0  0  0  0  0  0  0  0
   42.2070   -1.1620   33.4230 C   0  0  0  0  0  0  0  0  0  0  0  0
   42.5600    0.0440   34.0900 C   0  0  0  0  0  0  0  0  0  0  0  0
   41.9850    0.7900   35.1350 C   0  0  0  0  0  0  0  0  0  0  0  0
   43.7190    2.7570   37.7470 H   0  0  0  0  0  0  0  0  0  0  0  0
   42.4040    3.6170   38.4790 H   0  0  0  0  0  0  0  0  0  0  0  0
   40.2920    3.6640   37.2910 H   0  0  0  0  0  0  0  0  0  0  0  0
   40.2180    2.8760   35.7490 H   0  0  0  0  0  0  0  0  0  0  0  0
   44.2882    3.3169   35.3176 H   0  0  0  0  0  0  0  0  0  0  0  0
   45.3212    2.0006   33.4483 H   0  0  0  0  0  0  0  0  0  0  0  0
   44.8880   -0.3490   31.9290 H   0  0  0  0  0  0  0  0  0  0  0  0
   43.0040   -4.0588   32.9935 H   0  0  0  0  0  0  0  0  0  0  0  0
   43.2109   -5.9691   31.4196 H   0  0  0  0  0  0  0  0  0  0  0  0
   43.6163   -5.5637   29.0022 H   0  0  0  0  0  0  0  0  0  0  0  0
   44.3249   -1.0936   27.9444 H   0  0  0  0  0  0  0  0  0  0  0  0
   44.7657   -0.7739   25.5142 H   0  0  0  0  0  0  0  0  0  0  0  0
   44.5717   -2.7014   23.9450 H   0  0  0  0  0  0  0  0  0  0  0  0
   43.9326   -4.9522   24.8074 H   0  0  0  0  0  0  0  0  0  0  0  0
   43.4873   -5.2777   27.2363 H   0  0  0  0  0  0  0  0  0  0  0  0
   44.2730   -0.5570   30.1980 H   0  0  0  0  0  0  0  0  0  0  0  0
   41.3232   -1.7793   33.6419 H   0  0  0  0  0  0  0  0  0  0  0  0
   41.0508    0.4513   35.6068 H   0  0  0  0  0  0  0  0  0  0  0  0
  1  2  1  0
  2  3  2  0
  2  4  1  0
  4  5  2  0
  5  6  1  0
  6  7  2  0
  7  8  1  0
  8  9  1  0
  9 10  1  0
 10 11  2  0
 11 12  1  0
 12 13  2  0
 13 14  1  0
 14 15  1  0
 15 16  2  0
 16 17  1  0
 17 18  2  0
 18 19  1  0
 19 20  2  0
 14 21  2  0
 21 22  1  0
  9 23  2  0
 23 24  1  0
 24 25  2  0
 25  4  1  0
 24  7  1  0
 21 10  1  0
 20 15  1  0
  1 26  1  0
  1 27  1  0
  3 28  1  0
  3 29  1  0
  5 30  1  0
  6 31  1  0
  8 32  1  0
 11 33  1  0
 12 34  1  0
 13 35  1  0
 16 36  1  0
 17 37  1  0
 18 38  1  0
 19 39  1  0
 20 40  1  0
 22 41  1  0
 23 42  1  0
 25 43  1  0
M  CHG  1   3   1
M  END
>  <meeko>  (8) 
{"is_sidechain": [false], "free_energy": -6.979, "intermolecular_energy": -9.182, "internal_energy": -0.137}

$$$$
1o3f_ligand
     RDKit          3D

 43 46  0  0  0  0  0  0  0  0999 V2000
   44.2390   -2.9870   24.1530 N   0  0  0  0  0  0  0  0  0  0  0  0
   44.1930   -3.6990   25.2580 C   0  0  0  0  0  0  0  0  0  0  0  0
   44.1630   -5.0140   25.2280 N   0  0  0  0  0  0  0  0  0  0  0  0
   44.1780   -3.0110   26.5530 C   0  0  0  0  0  0  0  0  0  0  0  0
   44.5230   -1.6540   26.6390 C   0  0  0  0  0  0  0  0  0  0  0  0
   44.5190   -0.9760   27.8630 C   0  0  0  0  0  0  0  0  0  0  0  0
   44.1550   -1.7030   29.0000 C   0  0  0  0  0  0  0  0  0  0  0  0
   44.0620   -1.3100   30.3130 N   0  0  0  0  0  0  0  0  0  0  0  0
   43.6590   -2.3470   31.1280 C   0  0  0  0  0  0  0  0  0  0  0  0
   43.4790   -2.1860   32.5850 C   0  0  0  0  0  0  0  0  0  0  0  0
   43.9870   -1.0400   33.2180 C   0  0  0  0  0  0  0  0  0  0  0  0
   43.8410   -0.8440   34.5930 C   0  0  0  0  0  0  0  0  0  0  0  0
   43.1830   -1.7950   35.3680 C   0  0  0  0  0  0  0  0  0  0  0  0
   42.6580   -2.9580   34.7840 C   0  0  0  0  0  0  0  0  0  0  0  0
   41.9710   -3.9330   35.6380 C   0  0  0  0  0  0  0  0  0  0  0  0
   42.6810   -4.9860   36.2340 C   0  0  0  0  0  0  0  0  0  0  0  0
   42.0310   -5.9030   37.0640 C   0  0  0  0  0  0  0  0  0  0  0  0
   40.6640   -5.7770   37.3050 C   0  0  0  0  0  0  0  0  0  0  0  0
   39.9450   -4.7370   36.7170 C   0  0  0  0  0  0  0  0  0  0  0  0
   40.5950   -3.8220   35.8880 C   0  0  0  0  0  0  0  0  0  0  0  0
   42.8130   -3.1410   33.3900 C   0  0  0  0  0  0  0  0  0  0  0  0
   42.3060   -4.2770   32.7880 O   0  0  0  0  0  0  0  0  0  0  0  0
   43.4940   -3.4390   30.2890 C   0  0  0  0  0  0  0  0  0  0  0  0
   43.8040   -3.0480   28.9570 C   0  0  0  0  0  0  0  0  0  0  0  0
   43.8160   -3.7140   27.7180 C   0  0  0  0  0  0  0  0  0  0  0  0
   44.2350   -1.9730   24.2110 H   0  0  0  0  0  0  0  0  0  0  0  0
   44.2540   -3.4040   23.2320 H   0  0  0  0  0  0  0  0  0  0  0  0
   44.1750   -5.5430   24.3670 H   0  0  0  0  0  0  0  0  0  0  0  0
   44.1530   -5.5340   26.1010 H   0  0  0  0  0  0  0  0  0  0  0  0
   44.8028   -1.1110   25.7242 H   0  0  0  0  0  0  0  0  0  0  0  0
   44.7917    0.0877   27.9279 H   0  0  0  0  0  0  0  0  0  0  0  0
   44.2570   -0.3810   30.6680 H   0  0  0  0  0  0  0  0  0  0  0  0
   44.5108   -0.2810   32.6184 H   0  0  0  0  0  0  0  0  0  0  0  0
   44.2466    0.0633   35.0644 H   0  0  0  0  0  0  0  0  0  0  0  0
   43.0734   -1.6330   36.4505 H   0  0  0  0  0  0  0  0  0  0  0  0
   43.7598   -5.0907   36.0461 H   0  0  0  0  0  0  0  0  0  0  0  0
   42.5979   -6.7241   37.5271 H   0  0  0  0  0  0  0  0  0  0  0  0
   40.1522   -6.4982   37.9592 H   0  0  0  0  0  0  0  0  0  0  0  0
   38.8660   -4.6380   36.9066 H   0  0  0  0  0  0  0  0  0  0  0  0
   40.0223   -3.0047   35.4254 H   0  0  0  0  0  0  0  0  0  0  0  0
   43.0280   -4.7060   32.2910 H   0  0  0  0  0  0  0  0  0  0  0  0
   43.1752   -4.4440   30.6027 H   0  0  0  0  0  0  0  0  0  0  0  0
   43.5440   -4.7783   27.6596 H   0  0  0  0  0  0  0  0  0  0  0  0
  1  2  1  0
  2  3  2  0
  2  4  1  0
  4  5  2  0
  5  6  1  0
  6  7  2  0
  7  8  1  0
  8  9  1  0
  9 10  1  0
 10 11  2  0
 11 12  1  0
 12 13  2  0
 13 14  1  0
 14 15  1  0
 15 16  2  0
 16 17  1  0
 17 18  2  0
 18 19  1  0
 19 20  2  0
 14 21  2  0
 21 22  1  0
  9 23  2  0
 23 24  1  0
 24 25  2  0
 25  4  1  0
 24  7  1  0
 21 10  1  0
 20 15  1  0
  1 26  1  0
  1 27  1  0
  3 28  1  0
  3 29  1  0
  5 30  1  0
  6 31  1  0
  8 32  1  0
 11 33  1  0
 12 34  1  0
 13 35  1  0
 16 36  1  0
 17 37  1  0
 18 38  1  0
 19 39  1  0
 20 40  1  0
 22 41  1  0
 23 42  1  0
 25 43  1  0
M  CHG  1   3   1
M  END
>  <meeko>  (9) 
{"is_sidechain": [false], "free_energy": -6.869, "intermolecular_energy": -8.895, "internal_energy": -0.291}

$$$$
