3ui7_ligand
     RDKit          3D

 47 50  0  0  0  0  0  0  0  0999 V2000
    3.3540   14.2060   39.9520 C   0  0  0  0  0  0  0  0  0  0  0  0
    4.3540   13.3540   40.5040 O   0  0  0  0  0  0  0  0  0  0  0  0
    4.4230   13.2870   41.8670 C   0  0  0  0  0  0  0  0  0  0  0  0
    3.8110   14.1430   42.7650 C   0  0  0  0  0  0  0  0  0  0  0  0
    3.9760   13.9540   44.1490 C   0  0  0  0  0  0  0  0  0  0  0  0
    3.3050   14.9250   45.0940 C   0  0  0  0  0  0  0  0  0  0  0  0
    4.7420   12.8990   44.6580 C   0  0  0  0  0  0  0  0  0  0  0  0
    4.8300   12.8190   45.9940 N   0  0  0  0  0  0  0  0  0  0  0  0
    5.5990   11.8220   46.4630 C   0  0  0  0  0  0  0  0  0  0  0  0
    5.8500   11.5650   47.7420 N   0  0  0  0  0  0  0  0  0  0  0  0
    6.6770   10.5160   47.7080 N   0  0  0  0  0  0  0  0  0  0  0  0
    6.9440   10.0420   46.4410 C   0  0  0  0  0  0  0  0  0  0  0  0
    7.8750    8.8990   46.2760 C   0  0  0  0  0  0  0  0  0  0  0  0
    6.2320   10.8780   45.5990 C   0  0  0  0  0  0  0  0  0  0  0  0
    6.1360   10.8540   44.1970 C   0  0  0  0  0  0  0  0  0  0  0  0
    6.6660    9.7970   43.2780 C   0  0  0  0  0  0  0  0  0  0  0  0
    7.8480   10.2640   42.4440 N   0  0  0  0  0  0  0  0  0  0  0  0
    9.1430   10.3620   43.2480 C   0  0  0  0  0  0  0  0  0  0  0  0
   10.0410    9.1560   42.9630 C   0  0  0  0  0  0  0  0  0  0  0  0
   10.4250    9.0590   41.5870 O   0  0  0  0  0  0  0  0  0  0  0  0
    9.4700    9.5860   40.6580 C   0  0  0  0  0  0  0  0  0  0  0  0
    8.0290    9.4560   41.1550 C   0  0  0  0  0  0  0  0  0  0  0  0
    5.3660   11.9790   43.7320 C   0  0  0  0  0  0  0  0  0  0  0  0
    5.1920   12.2280   42.3530 C   0  0  0  0  0  0  0  0  0  0  0  0
    2.7909   14.6858   40.7661 H   0  0  0  0  0  0  0  0  0  0  0  0
    3.8321   14.9786   39.3319 H   0  0  0  0  0  0  0  0  0  0  0  0
    2.6671   13.6113   39.3319 H   0  0  0  0  0  0  0  0  0  0  0  0
    3.1930   14.9745   42.3953 H   0  0  0  0  0  0  0  0  0  0  0  0
    3.5108   14.6272   46.1327 H   0  0  0  0  0  0  0  0  0  0  0  0
    3.6969   15.9377   44.9184 H   0  0  0  0  0  0  0  0  0  0  0  0
    2.2191   14.9165   44.9184 H   0  0  0  0  0  0  0  0  0  0  0  0
    7.0330   10.1690   48.5950 H   0  0  0  0  0  0  0  0  0  0  0  0
    8.1780    8.5270   47.2659 H   0  0  0  0  0  0  0  0  0  0  0  0
    7.3723    8.0940   45.7199 H   0  0  0  0  0  0  0  0  0  0  0  0
    8.7651    9.2284   45.7199 H   0  0  0  0  0  0  0  0  0  0  0  0
    6.9843    8.9354   43.8833 H   0  0  0  0  0  0  0  0  0  0  0  0
    5.8569    9.5363   42.5798 H   0  0  0  0  0  0  0  0  0  0  0  0
    7.6330   11.2220   42.1410 H   0  0  0  0  0  0  0  0  0  0  0  0
    9.6744   11.2836   42.9682 H   0  0  0  0  0  0  0  0  0  0  0  0
    8.8969   10.3779   44.3200 H   0  0  0  0  0  0  0  0  0  0  0  0
   10.9504    9.2432   43.5757 H   0  0  0  0  0  0  0  0  0  0  0  0
    9.4660    8.2512   43.2094 H   0  0  0  0  0  0  0  0  0  0  0  0
    9.6905   10.6509   40.4927 H   0  0  0  0  0  0  0  0  0  0  0  0
    9.5546    9.0040   39.7284 H   0  0  0  0  0  0  0  0  0  0  0  0
    7.3418    9.8377   40.3855 H   0  0  0  0  0  0  0  0  0  0  0  0
    7.8093    8.3973   41.3570 H   0  0  0  0  0  0  0  0  0  0  0  0
    5.6832   11.5591   41.6310 H   0  0  0  0  0  0  0  0  0  0  0  0
  1  2  1  0
  2  3  1  0
  3  4  1  0
  4  5  2  0
  5  6  1  0
  5  7  1  0
  7  8  2  0
  8  9  1  0
  9 10  2  0
 10 11  1  0
 11 12  1  0
 12 13  1  0
 12 14  2  0
 14 15  1  0
 15 16  1  0
 16 17  1  0
 17 18  1  0
 18 19  1  0
 19 20  1  0
 20 21  1  0
 21 22  1  0
 15 23  2  0
 23 24  1  0
 24  3  2  0
 23  7  1  0
 14  9  1  0
 22 17  1  0
  1 25  1  0
  1 26  1  0
  1 27  1  0
  4 28  1  0
  6 29  1  0
  6 30  1  0
  6 31  1  0
 11 32  1  0
 13 33  1  0
 13 34  1  0
 13 35  1  0
 16 36  1  0
 16 37  1  0
 17 38  1  0
 18 39  1  0
 18 40  1  0
 19 41  1  0
 19 42  1  0
 21 43  1  0
 21 44  1  0
 22 45  1  0
 22 46  1  0
 24 47  1  0
M  CHG  1  17   1
M  END
>  <meeko>  (1) 
{"is_sidechain": [false], "free_energy": -9.012, "intermolecular_energy": -10.592, "internal_energy": -0.449}

$$$$
3ui7_ligand
     RDKit          3D

 47 50  0  0  0  0  0  0  0  0999 V2000
    6.0390    9.8010   40.4150 C   0  0  0  0  0  0  0  0  0  0  0  0
    5.5620   10.9970   39.8040 O   0  0  0  0  0  0  0  0  0  0  0  0
    5.0330   11.9450   40.6350 C   0  0  0  0  0  0  0  0  0  0  0  0
    4.3960   13.1120   40.2520 C   0  0  0  0  0  0  0  0  0  0  0  0
    3.9040   14.0020   41.2240 C   0  0  0  0  0  0  0  0  0  0  0  0
    3.2320   15.2750   40.7600 C   0  0  0  0  0  0  0  0  0  0  0  0
    4.0270   13.7340   42.5920 C   0  0  0  0  0  0  0  0  0  0  0  0
    3.5230   14.6560   43.4260 N   0  0  0  0  0  0  0  0  0  0  0  0
    3.6830   14.3990   44.7350 C   0  0  0  0  0  0  0  0  0  0  0  0
    3.2870   15.1760   45.7370 N   0  0  0  0  0  0  0  0  0  0  0  0
    3.6900   14.5260   46.8330 N   0  0  0  0  0  0  0  0  0  0  0  0
    4.3020   13.3150   46.5840 C   0  0  0  0  0  0  0  0  0  0  0  0
    4.8200   12.5180   47.7230 C   0  0  0  0  0  0  0  0  0  0  0  0
    4.2970   13.1990   45.2060 C   0  0  0  0  0  0  0  0  0  0  0  0
    4.7910   12.1570   44.4000 C   0  0  0  0  0  0  0  0  0  0  0  0
    5.3050   10.8300   44.8640 C   0  0  0  0  0  0  0  0  0  0  0  0
    6.7870   10.8450   45.2010 N   0  0  0  0  0  0  0  0  0  0  0  0
    7.5110    9.5740   44.7580 C   0  0  0  0  0  0  0  0  0  0  0  0
    8.2980    9.8300   43.4710 C   0  0  0  0  0  0  0  0  0  0  0  0
    9.3030   10.8390   43.6210 O   0  0  0  0  0  0  0  0  0  0  0  0
    9.0010   11.8490   44.5910 C   0  0  0  0  0  0  0  0  0  0  0  0
    7.5000   12.1130   44.7190 C   0  0  0  0  0  0  0  0  0  0  0  0
    4.6670   12.5050   43.0080 C   0  0  0  0  0  0  0  0  0  0  0  0
    5.1670   11.6580   41.9940 C   0  0  0  0  0  0  0  0  0  0  0  0
    5.9970    9.9063   41.5091 H   0  0  0  0  0  0  0  0  0  0  0  0
    5.4098    8.9541   40.1037 H   0  0  0  0  0  0  0  0  0  0  0  0
    7.0783    9.6195   40.1037 H   0  0  0  0  0  0  0  0  0  0  0  0
    4.2739   13.3447   39.1838 H   0  0  0  0  0  0  0  0  0  0  0  0
    2.9205   15.8650   41.6346 H   0  0  0  0  0  0  0  0  0  0  0  0
    3.9376   15.8622   40.1540 H   0  0  0  0  0  0  0  0  0  0  0  0
    2.3491   15.0237   40.1540 H   0  0  0  0  0  0  0  0  0  0  0  0
    3.5210   14.9700   47.7320 H   0  0  0  0  0  0  0  0  0  0  0  0
    4.5141   12.9886   48.6690 H   0  0  0  0  0  0  0  0  0  0  0  0
    4.4119   11.4978   47.6723 H   0  0  0  0  0  0  0  0  0  0  0  0
    5.9181   12.4766   47.6723 H   0  0  0  0  0  0  0  0  0  0  0  0
    4.7452   10.5336   45.7633 H   0  0  0  0  0  0  0  0  0  0  0  0
    5.1657   10.1187   44.0366 H   0  0  0  0  0  0  0  0  0  0  0  0
    6.8550   10.8630   46.2260 H   0  0  0  0  0  0  0  0  0  0  0  0
    8.2051    9.2572   45.5504 H   0  0  0  0  0  0  0  0  0  0  0  0
    6.7667    8.7861   44.5706 H   0  0  0  0  0  0  0  0  0  0  0  0
    8.7855    8.8923   43.1659 H   0  0  0  0  0  0  0  0  0  0  0  0
    7.5839   10.1868   42.7142 H   0  0  0  0  0  0  0  0  0  0  0  0
    9.3861   11.5243   45.5689 H   0  0  0  0  0  0  0  0  0  0  0  0
    9.4759   12.7834   44.2572 H   0  0  0  0  0  0  0  0  0  0  0  0
    7.3326   12.9235   45.4437 H   0  0  0  0  0  0  0  0  0  0  0  0
    7.0982   12.4036   43.7371 H   0  0  0  0  0  0  0  0  0  0  0  0
    5.6840   10.7327   42.2883 H   0  0  0  0  0  0  0  0  0  0  0  0
  1  2  1  0
  2  3  1  0
  3  4  1  0
  4  5  2  0
  5  6  1  0
  5  7  1  0
  7  8  2  0
  8  9  1  0
  9 10  2  0
 10 11  1  0
 11 12  1  0
 12 13  1  0
 12 14  2  0
 14 15  1  0
 15 16  1  0
 16 17  1  0
 17 18  1  0
 18 19  1  0
 19 20  1  0
 20 21  1  0
 21 22  1  0
 15 23  2  0
 23 24  1  0
 24  3  2  0
 23  7  1  0
 14  9  1  0
 22 17  1  0
  1 25  1  0
  1 26  1  0
  1 27  1  0
  4 28  1  0
  6 29  1  0
  6 30  1  0
  6 31  1  0
 11 32  1  0
 13 33  1  0
 13 34  1  0
 13 35  1  0
 16 36  1  0
 16 37  1  0
 17 38  1  0
 18 39  1  0
 18 40  1  0
 19 41  1  0
 19 42  1  0
 21 43  1  0
 21 44  1  0
 22 45  1  0
 22 46  1  0
 24 47  1  0
M  CHG  1  17   1
M  END
>  <meeko>  (2) 
{"is_sidechain": [false], "free_energy": -8.771, "intermolecular_energy": -10.335, "internal_energy": -0.423}

$$$$
3ui7_ligand
     RDKit          3D

 47 50  0  0  0  0  0  0  0  0999 V2000
    4.3630   14.6470   42.1130 C   0  0  0  0  0  0  0  0  0  0  0  0
    4.0050   13.3290   42.5210 O   0  0  0  0  0  0  0  0  0  0  0  0
    4.5300   12.8850   43.7020 C   0  0  0  0  0  0  0  0  0  0  0  0
    4.3200   13.4330   44.9540 C   0  0  0  0  0  0  0  0  0  0  0  0
    4.9330   12.8690   46.0870 C   0  0  0  0  0  0  0  0  0  0  0  0
    4.6910   13.5130   47.4330 C   0  0  0  0  0  0  0  0  0  0  0  0
    5.7550   11.7410   45.9890 C   0  0  0  0  0  0  0  0  0  0  0  0
    6.2890   11.2930   47.1360 N   0  0  0  0  0  0  0  0  0  0  0  0
    7.1040   10.2310   47.0170 C   0  0  0  0  0  0  0  0  0  0  0  0
    7.7580    9.6350   48.0070 N   0  0  0  0  0  0  0  0  0  0  0  0
    8.4520    8.6660   47.4030 N   0  0  0  0  0  0  0  0  0  0  0  0
    8.2390    8.5760   46.0430 C   0  0  0  0  0  0  0  0  0  0  0  0
    8.9810    7.5580   45.2600 C   0  0  0  0  0  0  0  0  0  0  0  0
    7.3400    9.5900   45.7640 C   0  0  0  0  0  0  0  0  0  0  0  0
    6.7710    9.9570   44.5320 C   0  0  0  0  0  0  0  0  0  0  0  0
    6.8850    9.2190   43.2340 C   0  0  0  0  0  0  0  0  0  0  0  0
    7.7810    9.9160   42.2230 N   0  0  0  0  0  0  0  0  0  0  0  0
    9.1280   10.3320   42.8090 C   0  0  0  0  0  0  0  0  0  0  0  0
   10.2230    9.3550   42.3770 C   0  0  0  0  0  0  0  0  0  0  0  0
   10.3970    9.3030   40.9560 O   0  0  0  0  0  0  0  0  0  0  0  0
    9.2120    9.5700   40.1960 C   0  0  0  0  0  0  0  0  0  0  0  0
    7.9370    9.1300   40.9170 C   0  0  0  0  0  0  0  0  0  0  0  0
    5.9640   11.1400   44.6900 C   0  0  0  0  0  0  0  0  0  0  0  0
    5.3470   11.7600   43.5810 C   0  0  0  0  0  0  0  0  0  0  0  0
    4.5329   15.2725   43.0017 H   0  0  0  0  0  0  0  0  0  0  0  0
    5.2829   14.6074   41.5112 H   0  0  0  0  0  0  0  0  0  0  0  0
    3.5494   15.0782   41.5112 H   0  0  0  0  0  0  0  0  0  0  0  0
    3.6706   14.3140   45.0642 H   0  0  0  0  0  0  0  0  0  0  0  0
    4.9571   12.8048   48.2315 H   0  0  0  0  0  0  0  0  0  0  0  0
    5.3106   14.4174   47.5235 H   0  0  0  0  0  0  0  0  0  0  0  0
    3.6291   13.7855   47.5235 H   0  0  0  0  0  0  0  0  0  0  0  0
    9.0660    8.0980   47.9810 H   0  0  0  0  0  0  0  0  0  0  0  0
    9.4869    6.8639   45.9472 H   0  0  0  0  0  0  0  0  0  0  0  0
    8.2774    6.9985   44.6260 H   0  0  0  0  0  0  0  0  0  0  0  0
    9.7290    8.0566   44.6260 H   0  0  0  0  0  0  0  0  0  0  0  0
    7.2977    8.2195   43.4357 H   0  0  0  0  0  0  0  0  0  0  0  0
    5.8767    9.1705   42.7970 H   0  0  0  0  0  0  0  0  0  0  0  0
    7.3050   10.7900   41.9640 H   0  0  0  0  0  0  0  0  0  0  0  0
    9.3819   11.3413   42.4528 H   0  0  0  0  0  0  0  0  0  0  0  0
    9.0567   10.3249   43.9067 H   0  0  0  0  0  0  0  0  0  0  0  0
   11.1728    9.6677   42.8354 H   0  0  0  0  0  0  0  0  0  0  0  0
    9.9184    8.3513   42.7085 H   0  0  0  0  0  0  0  0  0  0  0  0
    9.1528   10.6516   40.0048 H   0  0  0  0  0  0  0  0  0  0  0  0
    9.2803    8.9948   39.2608 H   0  0  0  0  0  0  0  0  0  0  0  0
    7.0677    9.3203   40.2703 H   0  0  0  0  0  0  0  0  0  0  0  0
    8.0014    8.0559   41.1453 H   0  0  0  0  0  0  0  0  0  0  0  0
    5.5177   11.3383   42.5795 H   0  0  0  0  0  0  0  0  0  0  0  0
  1  2  1  0
  2  3  1  0
  3  4  1  0
  4  5  2  0
  5  6  1  0
  5  7  1  0
  7  8  2  0
  8  9  1  0
  9 10  2  0
 10 11  1  0
 11 12  1  0
 12 13  1  0
 12 14  2  0
 14 15  1  0
 15 16  1  0
 16 17  1  0
 17 18  1  0
 18 19  1  0
 19 20  1  0
 20 21  1  0
 21 22  1  0
 15 23  2  0
 23 24  1  0
 24  3  2  0
 23  7  1  0
 14  9  1  0
 22 17  1  0
  1 25  1  0
  1 26  1  0
  1 27  1  0
  4 28  1  0
  6 29  1  0
  6 30  1  0
  6 31  1  0
 11 32  1  0
 13 33  1  0
 13 34  1  0
 13 35  1  0
 16 36  1  0
 16 37  1  0
 17 38  1  0
 18 39  1  0
 18 40  1  0
 19 41  1  0
 19 42  1  0
 21 43  1  0
 21 44  1  0
 22 45  1  0
 22 46  1  0
 24 47  1  0
M  CHG  1  17   1
M  END
>  <meeko>  (3) 
{"is_sidechain": [false], "free_energy": -8.405, "intermolecular_energy": -9.867, "internal_energy": -0.462}

$$$$
3ui7_ligand
     RDKit          3D

 47 50  0  0  0  0  0  0  0  0999 V2000
    7.0370    9.9400   47.2910 C   0  0  0  0  0  0  0  0  0  0  0  0
    6.2760   11.0930   47.6430 O   0  0  0  0  0  0  0  0  0  0  0  0
    5.7390   11.8140   46.6130 C   0  0  0  0  0  0  0  0  0  0  0  0
    5.0980   13.0350   46.7110 C   0  0  0  0  0  0  0  0  0  0  0  0
    4.5880   13.6620   45.5590 C   0  0  0  0  0  0  0  0  0  0  0  0
    3.8770   14.9880   45.7150 C   0  0  0  0  0  0  0  0  0  0  0  0
    4.7230   13.0860   44.2910 C   0  0  0  0  0  0  0  0  0  0  0  0
    4.1950   13.7730   43.2670 N   0  0  0  0  0  0  0  0  0  0  0  0
    4.3030   13.1870   42.0630 C   0  0  0  0  0  0  0  0  0  0  0  0
    3.8370   13.6680   40.9160 N   0  0  0  0  0  0  0  0  0  0  0  0
    4.1520   12.7320   40.0160 N   0  0  0  0  0  0  0  0  0  0  0  0
    4.8560   11.6620   40.5300 C   0  0  0  0  0  0  0  0  0  0  0  0
    5.2330   10.5450   39.6320 C   0  0  0  0  0  0  0  0  0  0  0  0
    4.9830   11.9450   41.8790 C   0  0  0  0  0  0  0  0  0  0  0  0
    5.6160   11.1970   42.8870 C   0  0  0  0  0  0  0  0  0  0  0  0
    6.4570    9.9720   42.7020 C   0  0  0  0  0  0  0  0  0  0  0  0
    7.9050   10.2840   42.3580 N   0  0  0  0  0  0  0  0  0  0  0  0
    8.8460   10.1320   43.5520 C   0  0  0  0  0  0  0  0  0  0  0  0
    9.6170    8.8130   43.4590 C   0  0  0  0  0  0  0  0  0  0  0  0
   10.4320    8.7250   42.2850 O   0  0  0  0  0  0  0  0  0  0  0  0
    9.9340    9.4450   41.1510 C   0  0  0  0  0  0  0  0  0  0  0  0
    8.4070    9.5230   41.1260 C   0  0  0  0  0  0  0  0  0  0  0  0
    5.4150   11.8220   44.1690 C   0  0  0  0  0  0  0  0  0  0  0  0
    5.8840   11.2210   45.3580 C   0  0  0  0  0  0  0  0  0  0  0  0
    7.3738    9.4297   48.2055 H   0  0  0  0  0  0  0  0  0  0  0  0
    6.4126    9.2556   46.6980 H   0  0  0  0  0  0  0  0  0  0  0  0
    7.9118   10.2451   46.6980 H   0  0  0  0  0  0  0  0  0  0  0  0
    4.9862   13.5181   47.6929 H   0  0  0  0  0  0  0  0  0  0  0  0
    3.7552   15.2152   46.7844 H   0  0  0  0  0  0  0  0  0  0  0  0
    4.4709   15.7810   45.2370 H   0  0  0  0  0  0  0  0  0  0  0  0
    2.8878   14.9321   45.2370 H   0  0  0  0  0  0  0  0  0  0  0  0
    3.8490   12.8800   39.0570 H   0  0  0  0  0  0  0  0  0  0  0  0
    5.5272    9.6732   40.2348 H   0  0  0  0  0  0  0  0  0  0  0  0
    4.3748   10.2791   38.9973 H   0  0  0  0  0  0  0  0  0  0  0  0
    6.0768   10.8536   38.9973 H   0  0  0  0  0  0  0  0  0  0  0  0
    6.4372    9.3905   43.6355 H   0  0  0  0  0  0  0  0  0  0  0  0
    6.0342    9.4108   41.8556 H   0  0  0  0  0  0  0  0  0  0  0  0
    7.9370   11.2790   42.1010 H   0  0  0  0  0  0  0  0  0  0  0  0
    9.5595   10.9691   43.5600 H   0  0  0  0  0  0  0  0  0  0  0  0
    8.2514   10.1333   44.4774 H   0  0  0  0  0  0  0  0  0  0  0  0
   10.2647    8.7221   44.3434 H   0  0  0  0  0  0  0  0  0  0  0  0
    8.8767    8.0010   43.4082 H   0  0  0  0  0  0  0  0  0  0  0  0
   10.3383   10.4677   41.1781 H   0  0  0  0  0  0  0  0  0  0  0  0
   10.2541    8.9050   40.2477 H   0  0  0  0  0  0  0  0  0  0  0  0
    8.0832   10.0484   40.2154 H   0  0  0  0  0  0  0  0  0  0  0  0
    7.9915    8.5045   41.1344 H   0  0  0  0  0  0  0  0  0  0  0  0
    6.3849   10.2439   45.2920 H   0  0  0  0  0  0  0  0  0  0  0  0
  1  2  1  0
  2  3  1  0
  3  4  1  0
  4  5  2  0
  5  6  1  0
  5  7  1  0
  7  8  2  0
  8  9  1  0
  9 10  2  0
 10 11  1  0
 11 12  1  0
 12 13  1  0
 12 14  2  0
 14 15  1  0
 15 16  1  0
 16 17  1  0
 17 18  1  0
 18 19  1  0
 19 20  1  0
 20 21  1  0
 21 22  1  0
 15 23  2  0
 23 24  1  0
 24  3  2  0
 23  7  1  0
 14  9  1  0
 22 17  1  0
  1 25  1  0
  1 26  1  0
  1 27  1  0
  4 28  1  0
  6 29  1  0
  6 30  1  0
  6 31  1  0
 11 32  1  0
 13 33  1  0
 13 34  1  0
 13 35  1  0
 16 36  1  0
 16 37  1  0
 17 38  1  0
 18 39  1  0
 18 40  1  0
 19 41  1  0
 19 42  1  0
 21 43  1  0
 21 44  1  0
 22 45  1  0
 22 46  1  0
 24 47  1  0
M  CHG  1  17   1
M  END
>  <meeko>  (4) 
{"is_sidechain": [false], "free_energy": -8.246, "intermolecular_energy": -9.528, "internal_energy": -0.614}

$$$$
3ui7_ligand
     RDKit          3D

 47 50  0  0  0  0  0  0  0  0999 V2000
    3.7770   14.4490   42.0000 C   0  0  0  0  0  0  0  0  0  0  0  0
    3.5280   14.8140   43.3560 O   0  0  0  0  0  0  0  0  0  0  0  0
    4.0620   14.0040   44.3190 C   0  0  0  0  0  0  0  0  0  0  0  0
    3.7180   13.9830   45.6590 C   0  0  0  0  0  0  0  0  0  0  0  0
    4.3580   13.0940   46.5410 C   0  0  0  0  0  0  0  0  0  0  0  0
    3.9640   13.1190   48.0010 C   0  0  0  0  0  0  0  0  0  0  0  0
    5.3430   12.2040   46.0970 C   0  0  0  0  0  0  0  0  0  0  0  0
    5.8860   11.4060   47.0290 N   0  0  0  0  0  0  0  0  0  0  0  0
    6.8540   10.5840   46.5900 C   0  0  0  0  0  0  0  0  0  0  0  0
    7.5470    9.7270   47.3330 N   0  0  0  0  0  0  0  0  0  0  0  0
    8.4030    9.1680   46.4730 N   0  0  0  0  0  0  0  0  0  0  0  0
    8.2650    9.5980   45.1700 C   0  0  0  0  0  0  0  0  0  0  0  0
    9.1830    9.0700   44.1320 C   0  0  0  0  0  0  0  0  0  0  0  0
    7.2380   10.5240   45.2160 C   0  0  0  0  0  0  0  0  0  0  0  0
    6.6740   11.2780   44.1720 C   0  0  0  0  0  0  0  0  0  0  0  0
    6.9530   11.1330   42.7080 C   0  0  0  0  0  0  0  0  0  0  0  0
    6.1180   10.0510   42.0420 N   0  0  0  0  0  0  0  0  0  0  0  0
    4.9440   10.6120   41.2430 C   0  0  0  0  0  0  0  0  0  0  0  0
    5.2650   10.6050   39.7460 C   0  0  0  0  0  0  0  0  0  0  0  0
    5.5130    9.2910   39.2350 O   0  0  0  0  0  0  0  0  0  0  0  0
    6.0750    8.3730   40.1810 C   0  0  0  0  0  0  0  0  0  0  0  0
    6.9580    9.0660   41.2210 C   0  0  0  0  0  0  0  0  0  0  0  0
    5.6950   12.1960   44.6940 C   0  0  0  0  0  0  0  0  0  0  0  0
    5.0410   13.1250   43.8550 C   0  0  0  0  0  0  0  0  0  0  0  0
    4.3967   13.5406   41.9727 H   0  0  0  0  0  0  0  0  0  0  0  0
    2.8212   14.2563   41.4907 H   0  0  0  0  0  0  0  0  0  0  0  0
    4.3051   15.2686   41.4907 H   0  0  0  0  0  0  0  0  0  0  0  0
    2.9409   14.6643   46.0359 H   0  0  0  0  0  0  0  0  0  0  0  0
    4.8676   13.0617   48.6257 H   0  0  0  0  0  0  0  0  0  0  0  0
    3.4258   14.0531   48.2196 H   0  0  0  0  0  0  0  0  0  0  0  0
    3.3120   12.2604   48.2196 H   0  0  0  0  0  0  0  0  0  0  0  0
    9.0680    8.4940   46.8440 H   0  0  0  0  0  0  0  0  0  0  0  0
   10.0393    8.5775   44.6160 H   0  0  0  0  0  0  0  0  0  0  0  0
    8.6476    8.3419   43.5050 H   0  0  0  0  0  0  0  0  0  0  0  0
    9.5431    9.8990   43.5050 H   0  0  0  0  0  0  0  0  0  0  0  0
    6.7389   12.0927   42.2148 H   0  0  0  0  0  0  0  0  0  0  0  0
    8.0084   10.8408   42.6044 H   0  0  0  0  0  0  0  0  0  0  0  0
    5.7020    9.4950   42.7990 H   0  0  0  0  0  0  0  0  0  0  0  0
    4.0529    9.9934   41.4255 H   0  0  0  0  0  0  0  0  0  0  0  0
    4.7573   11.6477   41.5629 H   0  0  0  0  0  0  0  0  0  0  0  0
    4.4123   11.0378   39.2023 H   0  0  0  0  0  0  0  0  0  0  0  0
    6.1834   11.1933   39.6028 H   0  0  0  0  0  0  0  0  0  0  0  0
    5.2545    7.8582   40.7024 H   0  0  0  0  0  0  0  0  0  0  0  0
    6.7083    7.6669   39.6239 H   0  0  0  0  0  0  0  0  0  0  0  0
    7.3940    8.3107   41.8914 H   0  0  0  0  0  0  0  0  0  0  0  0
    7.7618    9.6141   40.7077 H   0  0  0  0  0  0  0  0  0  0  0  0
    5.3152   13.1569   42.7902 H   0  0  0  0  0  0  0  0  0  0  0  0
  1  2  1  0
  2  3  1  0
  3  4  1  0
  4  5  2  0
  5  6  1  0
  5  7  1  0
  7  8  2  0
  8  9  1  0
  9 10  2  0
 10 11  1  0
 11 12  1  0
 12 13  1  0
 12 14  2  0
 14 15  1  0
 15 16  1  0
 16 17  1  0
 17 18  1  0
 18 19  1  0
 19 20  1  0
 20 21  1  0
 21 22  1  0
 15 23  2  0
 23 24  1  0
 24  3  2  0
 23  7  1  0
 14  9  1  0
 22 17  1  0
  1 25  1  0
  1 26  1  0
  1 27  1  0
  4 28  1  0
  6 29  1  0
  6 30  1  0
  6 31  1  0
 11 32  1  0
 13 33  1  0
 13 34  1  0
 13 35  1  0
 16 36  1  0
 16 37  1  0
 17 38  1  0
 18 39  1  0
 18 40  1  0
 19 41  1  0
 19 42  1  0
 21 43  1  0
 21 44  1  0
 22 45  1  0
 22 46  1  0
 24 47  1  0
M  CHG  1  17   1
M  END
>  <meeko>  (5) 
{"is_sidechain": [false], "free_energy": -7.921, "intermolecular_energy": -9.144, "internal_energy": -0.615}

$$$$
3ui7_ligand
     RDKit          3D

 47 50  0  0  0  0  0  0  0  0999 V2000
    3.8030   14.8880   45.0340 C   0  0  0  0  0  0  0  0  0  0  0  0
    4.3760   15.2740   43.7870 O   0  0  0  0  0  0  0  0  0  0  0  0
    4.3590   14.3440   42.7860 C   0  0  0  0  0  0  0  0  0  0  0  0
    3.6690   14.4340   41.5900 C   0  0  0  0  0  0  0  0  0  0  0  0
    3.7410   13.3900   40.6500 C   0  0  0  0  0  0  0  0  0  0  0  0
    2.9550   13.5230   39.3650 C   0  0  0  0  0  0  0  0  0  0  0  0
    4.5140   12.2470   40.8830 C   0  0  0  0  0  0  0  0  0  0  0  0
    4.5040   11.3160   39.9160 N   0  0  0  0  0  0  0  0  0  0  0  0
    5.2220   10.2100   40.1730 C   0  0  0  0  0  0  0  0  0  0  0  0
    5.3400    9.1530   39.3780 N   0  0  0  0  0  0  0  0  0  0  0  0
    6.1150    8.3100   40.0670 N   0  0  0  0  0  0  0  0  0  0  0  0
    6.5520    8.8010   41.2800 C   0  0  0  0  0  0  0  0  0  0  0  0
    7.3930    7.9410   42.1480 C   0  0  0  0  0  0  0  0  0  0  0  0
    5.9890   10.0610   41.3690 C   0  0  0  0  0  0  0  0  0  0  0  0
    6.1020   11.0140   42.3970 C   0  0  0  0  0  0  0  0  0  0  0  0
    7.0080   10.9470   43.5870 C   0  0  0  0  0  0  0  0  0  0  0  0
    6.2800   10.6080   44.8780 N   0  0  0  0  0  0  0  0  0  0  0  0
    6.6440    9.2280   45.4220 C   0  0  0  0  0  0  0  0  0  0  0  0
    7.6320    9.3570   46.5840 C   0  0  0  0  0  0  0  0  0  0  0  0
    7.1040   10.1020   47.6870 O   0  0  0  0  0  0  0  0  0  0  0  0
    6.1500   11.1090   47.3300 C   0  0  0  0  0  0  0  0  0  0  0  0
    6.4080   11.7020   45.9440 C   0  0  0  0  0  0  0  0  0  0  0  0
    5.2620   12.1490   42.1170 C   0  0  0  0  0  0  0  0  0  0  0  0
    5.1350   13.2120   43.0390 C   0  0  0  0  0  0  0  0  0  0  0  0
    4.4080   15.2956   45.8573 H   0  0  0  0  0  0  0  0  0  0  0  0
    2.7776   15.2802   45.1034 H   0  0  0  0  0  0  0  0  0  0  0  0
    3.7812   13.7904   45.1034 H   0  0  0  0  0  0  0  0  0  0  0  0
    3.0619   15.3253   41.3735 H   0  0  0  0  0  0  0  0  0  0  0  0
    1.8955   13.7023   39.6001 H   0  0  0  0  0  0  0  0  0  0  0  0
    3.3487   14.3673   38.7801 H   0  0  0  0  0  0  0  0  0  0  0  0
    3.0490   12.5962   38.7801 H   0  0  0  0  0  0  0  0  0  0  0  0
    6.3060    7.4020   39.6520 H   0  0  0  0  0  0  0  0  0  0  0  0
    7.1766    8.1623   43.2035 H   0  0  0  0  0  0  0  0  0  0  0  0
    7.1709    6.8835   41.9421 H   0  0  0  0  0  0  0  0  0  0  0  0
    8.4552    8.1394   41.9421 H   0  0  0  0  0  0  0  0  0  0  0  0
    7.7700   10.1754   43.4028 H   0  0  0  0  0  0  0  0  0  0  0  0
    7.4519   11.9452   43.7154 H   0  0  0  0  0  0  0  0  0  0  0  0
    5.2800   10.5640   44.6470 H   0  0  0  0  0  0  0  0  0  0  0  0
    5.7317    8.7255   45.7758 H   0  0  0  0  0  0  0  0  0  0  0  0
    7.1119    8.6396   44.6190 H   0  0  0  0  0  0  0  0  0  0  0  0
    7.8934    8.3480   46.9355 H   0  0  0  0  0  0  0  0  0  0  0  0
    8.5112    9.9019   46.2096 H   0  0  0  0  0  0  0  0  0  0  0  0
    5.1454   10.6611   47.3396 H   0  0  0  0  0  0  0  0  0  0  0  0
    6.2388   11.9251   48.0622 H   0  0  0  0  0  0  0  0  0  0  0  0
    5.6723   12.4948   45.7435 H   0  0  0  0  0  0  0  0  0  0  0  0
    7.4242   12.1220   45.9126 H   0  0  0  0  0  0  0  0  0  0  0  0
    5.6707   13.1445   43.9973 H   0  0  0  0  0  0  0  0  0  0  0  0
  1  2  1  0
  2  3  1  0
  3  4  1  0
  4  5  2  0
  5  6  1  0
  5  7  1  0
  7  8  2  0
  8  9  1  0
  9 10  2  0
 10 11  1  0
 11 12  1  0
 12 13  1  0
 12 14  2  0
 14 15  1  0
 15 16  1  0
 16 17  1  0
 17 18  1  0
 18 19  1  0
 19 20  1  0
 20 21  1  0
 21 22  1  0
 15 23  2  0
 23 24  1  0
 24  3  2  0
 23  7  1  0
 14  9  1  0
 22 17  1  0
  1 25  1  0
  1 26  1  0
  1 27  1  0
  4 28  1  0
  6 29  1  0
  6 30  1  0
  6 31  1  0
 11 32  1  0
 13 33  1  0
 13 34  1  0
 13 35  1  0
 16 36  1  0
 16 37  1  0
 17 38  1  0
 18 39  1  0
 18 40  1  0
 19 41  1  0
 19 42  1  0
 21 43  1  0
 21 44  1  0
 22 45  1  0
 22 46  1  0
 24 47  1  0
M  CHG  1  17   1
M  END
>  <meeko>  (6) 
{"is_sidechain": [false], "free_energy": -7.588, "intermolecular_energy": -8.963, "internal_energy": -0.404}

$$$$
3ui7_ligand
     RDKit          3D

 47 50  0  0  0  0  0  0  0  0999 V2000
    3.2790   15.1840   46.1570 C   0  0  0  0  0  0  0  0  0  0  0  0
    3.8920   13.9200   45.9210 O   0  0  0  0  0  0  0  0  0  0  0  0
    4.1250   13.5820   44.6170 C   0  0  0  0  0  0  0  0  0  0  0  0
    3.7990   14.3330   43.5020 C   0  0  0  0  0  0  0  0  0  0  0  0
    4.0970   13.8530   42.2130 C   0  0  0  0  0  0  0  0  0  0  0  0
    3.7050   14.6980   41.0220 C   0  0  0  0  0  0  0  0  0  0  0  0
    4.7380   12.6240   42.0190 C   0  0  0  0  0  0  0  0  0  0  0  0
    4.9680   12.2690   40.7460 N   0  0  0  0  0  0  0  0  0  0  0  0
    5.5510   11.0700   40.5780 C   0  0  0  0  0  0  0  0  0  0  0  0
    5.8520   10.5040   39.4150 N   0  0  0  0  0  0  0  0  0  0  0  0
    6.3770    9.3230   39.7520 N   0  0  0  0  0  0  0  0  0  0  0  0
    6.4740    9.1100   41.1120 C   0  0  0  0  0  0  0  0  0  0  0  0
    7.0130    7.8200   41.6060 C   0  0  0  0  0  0  0  0  0  0  0  0
    5.9490   10.2560   41.6820 C   0  0  0  0  0  0  0  0  0  0  0  0
    5.8020   10.5840   43.0410 C   0  0  0  0  0  0  0  0  0  0  0  0
    6.3380    9.8220   44.2120 C   0  0  0  0  0  0  0  0  0  0  0  0
    7.7120   10.2950   44.6590 N   0  0  0  0  0  0  0  0  0  0  0  0
    8.8430    9.4050   44.1490 C   0  0  0  0  0  0  0  0  0  0  0  0
    9.5410   10.0610   42.9560 C   0  0  0  0  0  0  0  0  0  0  0  0
   10.1330   11.3240   43.2800 O   0  0  0  0  0  0  0  0  0  0  0  0
    9.4670   12.0520   44.3190 C   0  0  0  0  0  0  0  0  0  0  0  0
    7.9620   11.7770   44.3590 C   0  0  0  0  0  0  0  0  0  0  0  0
    5.1090   11.8400   43.1760 C   0  0  0  0  0  0  0  0  0  0  0  0
    4.7640   12.3530   44.4460 C   0  0  0  0  0  0  0  0  0  0  0  0
    3.1962   15.3548   47.2405 H   0  0  0  0  0  0  0  0  0  0  0  0
    3.8918   15.9786   45.7064 H   0  0  0  0  0  0  0  0  0  0  0  0
    2.2756   15.1947   45.7064 H   0  0  0  0  0  0  0  0  0  0  0  0
    3.3053   15.3085   43.6232 H   0  0  0  0  0  0  0  0  0  0  0  0
    3.2662   15.6440   41.3721 H   0  0  0  0  0  0  0  0  0  0  0  0
    4.5966   14.9104   40.4137 H   0  0  0  0  0  0  0  0  0  0  0  0
    2.9671   14.1544   40.4137 H   0  0  0  0  0  0  0  0  0  0  0  0
    6.6480    8.6960   38.9980 H   0  0  0  0  0  0  0  0  0  0  0  0
    7.0131    7.8198   42.7060 H   0  0  0  0  0  0  0  0  0  0  0  0
    6.3842    6.9953   41.2392 H   0  0  0  0  0  0  0  0  0  0  0  0
    8.0416    7.6879   41.2392 H   0  0  0  0  0  0  0  0  0  0  0  0
    5.6385    9.9368   45.0531 H   0  0  0  0  0  0  0  0  0  0  0  0
    6.4406    8.7726   43.8986 H   0  0  0  0  0  0  0  0  0  0  0  0
    7.7310   10.2140   45.6840 H   0  0  0  0  0  0  0  0  0  0  0  0
    9.5740    9.2496   44.9561 H   0  0  0  0  0  0  0  0  0  0  0  0
    8.4217    8.4403   43.8298 H   0  0  0  0  0  0  0  0  0  0  0  0
   10.3312    9.3852   42.5970 H   0  0  0  0  0  0  0  0  0  0  0  0
    8.7763   10.2435   42.1866 H   0  0  0  0  0  0  0  0  0  0  0  0
    9.9036   11.7637   45.2866 H   0  0  0  0  0  0  0  0  0  0  0  0
    9.6043   13.1242   44.1151 H   0  0  0  0  0  0  0  0  0  0  0  0
    7.4994   12.3917   45.1452 H   0  0  0  0  0  0  0  0  0  0  0  0
    7.5210   12.0291   43.3833 H   0  0  0  0  0  0  0  0  0  0  0  0
    5.0094   11.7585   45.3384 H   0  0  0  0  0  0  0  0  0  0  0  0
  1  2  1  0
  2  3  1  0
  3  4  1  0
  4  5  2  0
  5  6  1  0
  5  7  1  0
  7  8  2  0
  8  9  1  0
  9 10  2  0
 10 11  1  0
 11 12  1  0
 12 13  1  0
 12 14  2  0
 14 15  1  0
 15 16  1  0
 16 17  1  0
 17 18  1  0
 18 19  1  0
 19 20  1  0
 20 21  1  0
 21 22  1  0
 15 23  2  0
 23 24  1  0
 24  3  2  0
 23  7  1  0
 14  9  1  0
 22 17  1  0
  1 25  1  0
  1 26  1  0
  1 27  1  0
  4 28  1  0
  6 29  1  0
  6 30  1  0
  6 31  1  0
 11 32  1  0
 13 33  1  0
 13 34  1  0
 13 35  1  0
 16 36  1  0
 16 37  1  0
 17 38  1  0
 18 39  1  0
 18 40  1  0
 19 41  1  0
 19 42  1  0
 21 43  1  0
 21 44  1  0
 22 45  1  0
 22 46  1  0
 24 47  1  0
M  CHG  1  17   1
M  END
>  <meeko>  (7) 
{"is_sidechain": [false], "free_energy": -7.542, "intermolecular_energy": -9.317, "internal_energy": 0.003}

$$$$
3ui7_ligand
     RDKit          3D

 47 50  0  0  0  0  0  0  0  0999 V2000
    4.6530   12.3620   47.7680 C   0  0  0  0  0  0  0  0  0  0  0  0
    3.8520   13.0420   46.8060 O   0  0  0  0  0  0  0  0  0  0  0  0
    4.2290   12.9260   45.4970 C   0  0  0  0  0  0  0  0  0  0  0  0
    4.1320   13.9030   44.5230 C   0  0  0  0  0  0  0  0  0  0  0  0
    4.5570   13.6380   43.2090 C   0  0  0  0  0  0  0  0  0  0  0  0
    4.4150   14.7290   42.1710 C   0  0  0  0  0  0  0  0  0  0  0  0
    5.1000   12.3990   42.8500 C   0  0  0  0  0  0  0  0  0  0  0  0
    5.4690   12.2600   41.5680 N   0  0  0  0  0  0  0  0  0  0  0  0
    5.9540   11.0520   41.2350 C   0  0  0  0  0  0  0  0  0  0  0  0
    6.3570   10.6790   40.0250 N   0  0  0  0  0  0  0  0  0  0  0  0
    6.7170    9.4020   40.1800 N   0  0  0  0  0  0  0  0  0  0  0  0
    6.6060    8.9320   41.4730 C   0  0  0  0  0  0  0  0  0  0  0  0
    6.9470    7.5170   41.7600 C   0  0  0  0  0  0  0  0  0  0  0  0
    6.1170   10.0070   42.1930 C   0  0  0  0  0  0  0  0  0  0  0  0
    5.8160   10.0930   43.5640 C   0  0  0  0  0  0  0  0  0  0  0  0
    6.1120    9.0690   44.6150 C   0  0  0  0  0  0  0  0  0  0  0  0
    7.5940    8.9360   44.9240 N   0  0  0  0  0  0  0  0  0  0  0  0
    8.0620    9.8890   46.0220 C   0  0  0  0  0  0  0  0  0  0  0  0
    8.2150    9.1400   47.3480 C   0  0  0  0  0  0  0  0  0  0  0  0
    9.1830    8.0860   47.2860 O   0  0  0  0  0  0  0  0  0  0  0  0
    9.3240    7.4750   45.9980 C   0  0  0  0  0  0  0  0  0  0  0  0
    8.0240    7.4890   45.1920 C   0  0  0  0  0  0  0  0  0  0  0  0
    5.2330   11.3760   43.8640 C   0  0  0  0  0  0  0  0  0  0  0  0
    4.7660   11.6830   45.1610 C   0  0  0  0  0  0  0  0  0  0  0  0
    4.3253   12.6402   48.7805 H   0  0  0  0  0  0  0  0  0  0  0  0
    4.5449   11.2757   47.6332 H   0  0  0  0  0  0  0  0  0  0  0  0
    5.7074   12.6450   47.6332 H   0  0  0  0  0  0  0  0  0  0  0  0
    3.7208   14.8911   44.7771 H   0  0  0  0  0  0  0  0  0  0  0  0
    4.2887   15.6992   42.6737 H   0  0  0  0  0  0  0  0  0  0  0  0
    5.3171   14.7565   41.5422 H   0  0  0  0  0  0  0  0  0  0  0  0
    3.5359   14.5247   41.5422 H   0  0  0  0  0  0  0  0  0  0  0  0
    7.0290    8.8980   39.3540 H   0  0  0  0  0  0  0  0  0  0  0  0
    6.9843    7.3623   42.8484 H   0  0  0  0  0  0  0  0  0  0  0  0
    6.1816    6.8593   41.3222 H   0  0  0  0  0  0  0  0  0  0  0  0
    7.9279    7.2802   41.3222 H   0  0  0  0  0  0  0  0  0  0  0  0
    5.5870    9.3547   45.5385 H   0  0  0  0  0  0  0  0  0  0  0  0
    5.7713    8.0972   44.2283 H   0  0  0  0  0  0  0  0  0  0  0  0
    8.0970    9.2190   44.0730 H   0  0  0  0  0  0  0  0  0  0  0  0
    9.0317   10.3227   45.7366 H   0  0  0  0  0  0  0  0  0  0  0  0
    7.3138   10.6858   46.1461 H   0  0  0  0  0  0  0  0  0  0  0  0
    8.5264    9.8570   48.1219 H   0  0  0  0  0  0  0  0  0  0  0  0
    7.2429    8.6812   47.5812 H   0  0  0  0  0  0  0  0  0  0  0  0
   10.0944    8.0198   45.4326 H   0  0  0  0  0  0  0  0  0  0  0  0
    9.6041    6.4234   46.1582 H   0  0  0  0  0  0  0  0  0  0  0  0
    8.1827    6.9720   44.2342 H   0  0  0  0  0  0  0  0  0  0  0  0
    7.2367    6.9764   45.7642 H   0  0  0  0  0  0  0  0  0  0  0  0
    4.8284   10.9087   45.9398 H   0  0  0  0  0  0  0  0  0  0  0  0
  1  2  1  0
  2  3  1  0
  3  4  1  0
  4  5  2  0
  5  6  1  0
  5  7  1  0
  7  8  2  0
  8  9  1  0
  9 10  2  0
 10 11  1  0
 11 12  1  0
 12 13  1  0
 12 14  2  0
 14 15  1  0
 15 16  1  0
 16 17  1  0
 17 18  1  0
 18 19  1  0
 19 20  1  0
 20 21  1  0
 21 22  1  0
 15 23  2  0
 23 24  1  0
 24  3  2  0
 23  7  1  0
 14  9  1  0
 22 17  1  0
  1 25  1  0
  1 26  1  0
  1 27  1  0
  4 28  1  0
  6 29  1  0
  6 30  1  0
  6 31  1  0
 11 32  1  0
 13 33  1  0
 13 34  1  0
 13 35  1  0
 16 36  1  0
 16 37  1  0
 17 38  1  0
 18 39  1  0
 18 40  1  0
 19 41  1  0
 19 42  1  0
 21 43  1  0
 21 44  1  0
 22 45  1  0
 22 46  1  0
 24 47  1  0
M  CHG  1  17   1
M  END
>  <meeko>  (8) 
{"is_sidechain": [false], "free_energy": -7.43, "intermolecular_energy": -8.626, "internal_energy": -0.556}

$$$$
3ui7_ligand
     RDKit          3D

 47 50  0  0  0  0  0  0  0  0999 V2000
    6.6880    7.6480   45.3300 C   0  0  0  0  0  0  0  0  0  0  0  0
    7.0070    8.7050   46.2310 O   0  0  0  0  0  0  0  0  0  0  0  0
    6.4800    9.9350   45.9500 C   0  0  0  0  0  0  0  0  0  0  0  0
    6.2950   10.9740   46.8440 C   0  0  0  0  0  0  0  0  0  0  0  0
    5.7330   12.1890   46.4110 C   0  0  0  0  0  0  0  0  0  0  0  0
    5.5310   13.2920   47.4260 C   0  0  0  0  0  0  0  0  0  0  0  0
    5.3620   12.3900   45.0760 C   0  0  0  0  0  0  0  0  0  0  0  0
    4.8350   13.5880   44.7800 N   0  0  0  0  0  0  0  0  0  0  0  0
    4.4510   13.7490   43.5020 C   0  0  0  0  0  0  0  0  0  0  0  0
    3.8860   14.8350   42.9880 N   0  0  0  0  0  0  0  0  0  0  0  0
    3.6600   14.5120   41.7110 N   0  0  0  0  0  0  0  0  0  0  0  0
    4.1040   13.2560   41.3540 C   0  0  0  0  0  0  0  0  0  0  0  0
    3.8790   12.7750   39.9690 C   0  0  0  0  0  0  0  0  0  0  0  0
    4.6440   12.7340   42.5160 C   0  0  0  0  0  0  0  0  0  0  0  0
    5.2460   11.4820   42.7310 C   0  0  0  0  0  0  0  0  0  0  0  0
    5.5920   10.4620   41.6910 C   0  0  0  0  0  0  0  0  0  0  0  0
    6.9250   10.7270   41.0100 N   0  0  0  0  0  0  0  0  0  0  0  0
    8.0810    9.9550   41.6430 C   0  0  0  0  0  0  0  0  0  0  0  0
    8.4400    8.7370   40.7890 C   0  0  0  0  0  0  0  0  0  0  0  0
    8.8610    9.0870   39.4660 O   0  0  0  0  0  0  0  0  0  0  0  0
    8.2760   10.2870   38.9460 C   0  0  0  0  0  0  0  0  0  0  0  0
    6.8690   10.5410   39.4900 C   0  0  0  0  0  0  0  0  0  0  0  0
    5.5750   11.3220   44.1240 C   0  0  0  0  0  0  0  0  0  0  0  0
    6.1170   10.1140   44.6150 C   0  0  0  0  0  0  0  0  0  0  0  0
    6.4165    6.7483   45.9017 H   0  0  0  0  0  0  0  0  0  0  0  0
    5.8408    7.9494   44.6964 H   0  0  0  0  0  0  0  0  0  0  0  0
    7.5605    7.4304   44.6964 H   0  0  0  0  0  0  0  0  0  0  0  0
    6.5882   10.8500   47.8969 H   0  0  0  0  0  0  0  0  0  0  0  0
    5.6074   12.8748   48.4409 H   0  0  0  0  0  0  0  0  0  0  0  0
    6.3028   14.0635   47.2876 H   0  0  0  0  0  0  0  0  0  0  0  0
    4.5359   13.7399   47.2876 H   0  0  0  0  0  0  0  0  0  0  0  0
    3.1880   15.2000   41.1290 H   0  0  0  0  0  0  0  0  0  0  0  0
    3.4131   11.7790   39.9979 H   0  0  0  0  0  0  0  0  0  0  0  0
    3.2150   13.4752   39.4410 H   0  0  0  0  0  0  0  0  0  0  0  0
    4.8421   12.7141   39.4410 H   0  0  0  0  0  0  0  0  0  0  0  0
    5.6359    9.4737   42.1720 H   0  0  0  0  0  0  0  0  0  0  0  0
    4.8139   10.5106   40.9149 H   0  0  0  0  0  0  0  0  0  0  0  0
    7.1370   11.7220   41.1580 H   0  0  0  0  0  0  0  0  0  0  0  0
    8.9579   10.6145   41.7205 H   0  0  0  0  0  0  0  0  0  0  0  0
    7.7762    9.6124   42.6429 H   0  0  0  0  0  0  0  0  0  0  0  0
    9.2563    8.1901   41.2836 H   0  0  0  0  0  0  0  0  0  0  0  0
    7.5328    8.1221   40.6942 H   0  0  0  0  0  0  0  0  0  0  0  0
    8.9176   11.1380   39.2182 H   0  0  0  0  0  0  0  0  0  0  0  0
    8.1949   10.1717   37.8551 H   0  0  0  0  0  0  0  0  0  0  0  0
    6.4567   11.4492   39.0261 H   0  0  0  0  0  0  0  0  0  0  0  0
    6.2274    9.6794   39.2533 H   0  0  0  0  0  0  0  0  0  0  0  0
    6.2591    9.2779   43.9144 H   0  0  0  0  0  0  0  0  0  0  0  0
  1  2  1  0
  2  3  1  0
  3  4  1  0
  4  5  2  0
  5  6  1  0
  5  7  1  0
  7  8  2  0
  8  9  1  0
  9 10  2  0
 10 11  1  0
 11 12  1  0
 12 13  1  0
 12 14  2  0
 14 15  1  0
 15 16  1  0
 16 17  1  0
 17 18  1  0
 18 19  1  0
 19 20  1  0
 20 21  1  0
 21 22  1  0
 15 23  2  0
 23 24  1  0
 24  3  2  0
 23  7  1  0
 14  9  1  0
 22 17  1  0
  1 25  1  0
  1 26  1  0
  1 27  1  0
  4 28  1  0
  6 29  1  0
  6 30  1  0
  6 31  1  0
 11 32  1  0
 13 33  1  0
 13 34  1  0
 13 35  1  0
 16 36  1  0
 16 37  1  0
 17 38  1  0
 18 39  1  0
 18 40  1  0
 19 41  1  0
 19 42  1  0
 21 43  1  0
 21 44  1  0
 22 45  1  0
 22 46  1  0
 24 47  1  0
M  CHG  1  17   1
M  END
>  <meeko>  (9) 
{"is_sidechain": [false], "free_energy": -7.38, "intermolecular_energy": -8.544, "internal_energy": -0.579}

$$$$
