2wvt_ligand
     RDKit          3D

 29 29  0  0  0  0  0  0  0  0999 V2000
  -29.8920    2.9230   25.7780 O   0  0  0  0  0  0  0  0  0  0  0  0
  -29.1400    1.8450   26.3160 C   0  0  0  0  0  0  0  0  0  0  0  0
  -28.3100    2.3300   27.5190 C   0  0  2  0  0  0  0  0  0  0  0  0
  -27.6570    3.6510   27.1930 N   0  0  0  0  0  0  0  0  0  0  0  0
  -26.1930    3.5500   26.8150 C   0  0  1  0  0  0  0  0  0  0  0  0
  -25.7870    4.9250   26.2630 C   0  0  0  0  0  0  0  0  0  0  0  0
  -24.3860    5.0890   26.5450 O   0  0  0  0  0  0  0  0  0  0  0  0
  -25.4080    3.0710   28.0460 C   0  0  1  0  0  0  0  0  0  0  0  0
  -25.2180    4.1750   28.9440 O   0  0  0  0  0  0  0  0  0  0  0  0
  -26.1720    1.9770   28.8280 C   0  0  0  0  0  0  0  0  0  0  0  0
  -25.2280    1.0230   29.3200 O   0  0  0  0  0  0  0  0  0  0  0  0
  -27.2570    1.2870   27.9940 C   0  0  2  0  0  0  0  0  0  0  0  0
  -26.5980    0.6410   26.8930 O   0  0  0  0  0  0  0  0  0  0  0  0
  -29.4120    3.2670   25.0000 H   0  0  0  0  0  0  0  0  0  0  0  0
  -29.8261    1.0501   26.6437 H   0  0  0  0  0  0  0  0  0  0  0  0
  -28.4613    1.4568   25.5423 H   0  0  0  0  0  0  0  0  0  0  0  0
  -29.0044    2.4637   28.3616 H   0  0  0  0  0  0  0  0  0  0  0  0
  -28.1060    4.1530   26.4050 H   0  0  0  0  0  0  0  0  0  0  0  0
  -27.7200    4.3050   27.9890 H   0  0  0  0  0  0  0  0  0  0  0  0
  -25.9760    2.8113   26.0293 H   0  0  0  0  0  0  0  0  0  0  0  0
  -25.9619    4.9640   25.1777 H   0  0  0  0  0  0  0  0  0  0  0  0
  -26.3795    5.7272   26.7271 H   0  0  0  0  0  0  0  0  0  0  0  0
  -23.9020    4.7160   25.7800 H   0  0  0  0  0  0  0  0  0  0  0  0
  -24.4528    2.6623   27.6848 H   0  0  0  0  0  0  0  0  0  0  0  0
  -25.5050    4.9820   28.4630 H   0  0  0  0  0  0  0  0  0  0  0  0
  -26.6999    2.4621   29.6623 H   0  0  0  0  0  0  0  0  0  0  0  0
  -24.3680    1.4800   29.4180 H   0  0  0  0  0  0  0  0  0  0  0  0
  -27.8049    0.5372   28.5836 H   0  0  0  0  0  0  0  0  0  0  0  0
  -25.6580    0.9270   26.9230 H   0  0  0  0  0  0  0  0  0  0  0  0
  1  2  1  0
  2  3  1  0
  3  4  1  0
  4  5  1  0
  5  6  1  0
  6  7  1  0
  5  8  1  0
  8  9  1  0
  8 10  1  0
 10 11  1  0
 10 12  1  0
 12 13  1  0
 12  3  1  0
  1 14  1  0
  2 15  1  0
  2 16  1  0
  3 17  1  1
  4 18  1  0
  4 19  1  0
  5 20  1  6
  6 21  1  0
  6 22  1  0
  7 23  1  0
  8 24  1  6
  9 25  1  0
 10 26  1  0
 11 27  1  0
 12 28  1  1
 13 29  1  0
M  CHG  1   4   1
M  END
>  <meeko>  (1) 
{"is_sidechain": [false], "free_energy": -6.449, "intermolecular_energy": -8.145, "internal_energy": -0.253}

$$$$
2wvt_ligand
     RDKit          3D

 29 29  0  0  0  0  0  0  0  0999 V2000
  -26.8080    5.3990   26.3280 O   0  0  0  0  0  0  0  0  0  0  0  0
  -25.5090    4.9510   26.6890 C   0  0  0  0  0  0  0  0  0  0  0  0
  -25.4920    3.4140   26.7880 C   0  0  2  0  0  0  0  0  0  0  0  0
  -26.8390    2.8580   26.3920 N   0  0  0  0  0  0  0  0  0  0  0  0
  -27.7210    2.4610   27.5590 C   0  0  1  0  0  0  0  0  0  0  0  0
  -29.1170    2.1870   26.9800 C   0  0  0  0  0  0  0  0  0  0  0  0
  -29.4170    3.2740   26.0880 O   0  0  0  0  0  0  0  0  0  0  0  0
  -27.0590    1.2800   28.2850 C   0  0  1  0  0  0  0  0  0  0  0  0
  -27.3020    0.0750   27.5420 O   0  0  0  0  0  0  0  0  0  0  0  0
  -25.5250    1.4490   28.3840 C   0  0  0  0  0  0  0  0  0  0  0  0
  -25.0910    0.9420   29.6480 O   0  0  0  0  0  0  0  0  0  0  0  0
  -25.0650    2.8990   28.1940 C   0  0  2  0  0  0  0  0  0  0  0  0
  -25.6490    3.6710   29.2550 O   0  0  0  0  0  0  0  0  0  0  0  0
  -26.9520    6.2730   26.7400 H   0  0  0  0  0  0  0  0  0  0  0  0
  -24.7864    5.2751   25.9256 H   0  0  0  0  0  0  0  0  0  0  0  0
  -25.2369    5.3793   27.6650 H   0  0  0  0  0  0  0  0  0  0  0  0
  -24.7268    3.0502   26.0865 H   0  0  0  0  0  0  0  0  0  0  0  0
  -27.4110    3.5170   25.8320 H   0  0  0  0  0  0  0  0  0  0  0  0
  -26.7370    2.0260   25.7920 H   0  0  0  0  0  0  0  0  0  0  0  0
  -27.8392    3.2405   28.3261 H   0  0  0  0  0  0  0  0  0  0  0  0
  -29.1187    1.2343   26.4301 H   0  0  0  0  0  0  0  0  0  0  0  0
  -29.8687    2.1135   27.7797 H   0  0  0  0  0  0  0  0  0  0  0  0
  -30.3880    3.2730   25.9630 H   0  0  0  0  0  0  0  0  0  0  0  0
  -27.4874    1.2372   29.2972 H   0  0  0  0  0  0  0  0  0  0  0  0
  -27.8380    0.3290   26.7600 H   0  0  0  0  0  0  0  0  0  0  0  0
  -25.0665    0.8800   27.5618 H   0  0  0  0  0  0  0  0  0  0  0  0
  -25.7130    1.2680   30.3290 H   0  0  0  0  0  0  0  0  0  0  0  0
  -23.9693    2.9856   28.2390 H   0  0  0  0  0  0  0  0  0  0  0  0
  -25.0260    3.6210   30.0130 H   0  0  0  0  0  0  0  0  0  0  0  0
  1  2  1  0
  2  3  1  0
  3  4  1  0
  4  5  1  0
  5  6  1  0
  6  7  1  0
  5  8  1  0
  8  9  1  0
  8 10  1  0
 10 11  1  0
 10 12  1  0
 12 13  1  0
 12  3  1  0
  1 14  1  0
  2 15  1  0
  2 16  1  0
  3 17  1  6
  4 18  1  0
  4 19  1  0
  5 20  1  1
  6 21  1  0
  6 22  1  0
  7 23  1  0
  8 24  1  1
  9 25  1  0
 10 26  1  0
 11 27  1  0
 12 28  1  6
 13 29  1  0
M  CHG  1   4   1
M  END
>  <meeko>  (2) 
{"is_sidechain": [false], "free_energy": -5.652, "intermolecular_energy": -7.267, "internal_energy": -0.125}

$$$$
2wvt_ligand
     RDKit          3D

 29 29  0  0  0  0  0  0  0  0999 V2000
  -25.1860    3.8450   28.8910 O   0  0  0  0  0  0  0  0  0  0  0  0
  -24.9220    2.5750   28.3140 C   0  0  0  0  0  0  0  0  0  0  0  0
  -26.2020    1.7170   28.3230 C   0  0  2  0  0  0  0  0  0  0  0  0
  -25.9570    0.4210   27.5910 N   0  0  0  0  0  0  0  0  0  0  0  0
  -26.5000    0.3870   26.1760 C   0  0  1  0  0  0  0  0  0  0  0  0
  -25.9250   -0.8740   25.5150 C   0  0  0  0  0  0  0  0  0  0  0  0
  -25.8700   -0.6140   24.1020 O   0  0  0  0  0  0  0  0  0  0  0  0
  -28.0330    0.4610   26.2450 C   0  0  1  0  0  0  0  0  0  0  0  0
  -28.5520   -0.8310   26.5970 O   0  0  0  0  0  0  0  0  0  0  0  0
  -28.5150    1.4540   27.3290 C   0  0  0  0  0  0  0  0  0  0  0  0
  -29.6810    2.1250   26.8470 O   0  0  0  0  0  0  0  0  0  0  0  0
  -27.4390    2.4640   27.7420 C   0  0  2  0  0  0  0  0  0  0  0  0
  -27.1100    3.2340   26.5750 O   0  0  0  0  0  0  0  0  0  0  0  0
  -24.5910    3.9590   29.6580 H   0  0  0  0  0  0  0  0  0  0  0  0
  -24.5807    2.7096   27.2770 H   0  0  0  0  0  0  0  0  0  0  0  0
  -24.1419    2.0668   28.8998 H   0  0  0  0  0  0  0  0  0  0  0  0
  -26.4439    1.5014   29.3742 H   0  0  0  0  0  0  0  0  0  0  0  0
  -24.9530    0.1780   27.5000 H   0  0  0  0  0  0  0  0  0  0  0  0
  -26.3740   -0.3770   28.0940 H   0  0  0  0  0  0  0  0  0  0  0  0
  -26.1982    1.2414   25.5524 H   0  0  0  0  0  0  0  0  0  0  0  0
  -24.9157   -1.0778   25.9021 H   0  0  0  0  0  0  0  0  0  0  0  0
  -26.5504   -1.7528   25.7306 H   0  0  0  0  0  0  0  0  0  0  0  0
  -24.9590   -0.3100   23.9090 H   0  0  0  0  0  0  0  0  0  0  0  0
  -28.3885    0.7957   25.2593 H   0  0  0  0  0  0  0  0  0  0  0  0
  -28.3880   -0.9470   27.5580 H   0  0  0  0  0  0  0  0  0  0  0  0
  -28.7487    0.8788   28.2371 H   0  0  0  0  0  0  0  0  0  0  0  0
  -30.3550    2.0970   27.5560 H   0  0  0  0  0  0  0  0  0  0  0  0
  -27.7979    3.1374   28.5343 H   0  0  0  0  0  0  0  0  0  0  0  0
  -27.6030    4.0800   26.6500 H   0  0  0  0  0  0  0  0  0  0  0  0
  1  2  1  0
  2  3  1  0
  3  4  1  0
  4  5  1  0
  5  6  1  0
  6  7  1  0
  5  8  1  0
  8  9  1  0
  8 10  1  0
 10 11  1  0
 10 12  1  0
 12 13  1  0
 12  3  1  0
  1 14  1  0
  2 15  1  0
  2 16  1  0
  3 17  1  1
  4 18  1  0
  4 19  1  0
  5 20  1  6
  6 21  1  0
  6 22  1  0
  7 23  1  0
  8 24  1  6
  9 25  1  0
 10 26  1  0
 11 27  1  0
 12 28  1  1
 13 29  1  0
M  CHG  1   4   1
M  END
>  <meeko>  (3) 
{"is_sidechain": [false], "free_energy": -5.12, "intermolecular_energy": -6.438, "internal_energy": -0.282}

$$$$
2wvt_ligand
     RDKit          3D

 29 29  0  0  0  0  0  0  0  0999 V2000
  -25.4310   -0.9540   27.2990 O   0  0  0  0  0  0  0  0  0  0  0  0
  -25.8540   -1.0100   25.9440 C   0  0  0  0  0  0  0  0  0  0  0  0
  -26.8240    0.1490   25.6490 C   0  0  2  0  0  0  0  0  0  0  0  0
  -26.2890    1.4310   26.2390 N   0  0  0  0  0  0  0  0  0  0  0  0
  -26.9370    1.8370   27.5480 C   0  0  1  0  0  0  0  0  0  0  0  0
  -26.0910    2.9840   28.1190 C   0  0  0  0  0  0  0  0  0  0  0  0
  -26.3470    3.0260   29.5330 O   0  0  0  0  0  0  0  0  0  0  0  0
  -28.4110    2.1710   27.2750 C   0  0  1  0  0  0  0  0  0  0  0  0
  -28.4980    3.4810   26.6940 O   0  0  0  0  0  0  0  0  0  0  0  0
  -29.0500    1.1850   26.2680 C   0  0  0  0  0  0  0  0  0  0  0  0
  -30.4010    0.9410   26.6630 O   0  0  0  0  0  0  0  0  0  0  0  0
  -28.2750   -0.1310   26.1400 C   0  0  2  0  0  0  0  0  0  0  0  0
  -28.2990   -0.7640   27.4290 O   0  0  0  0  0  0  0  0  0  0  0  0
  -25.3840   -1.8690   27.6390 H   0  0  0  0  0  0  0  0  0  0  0  0
  -24.9773   -0.9286   25.2846 H   0  0  0  0  0  0  0  0  0  0  0  0
  -26.3672   -1.9662   25.7642 H   0  0  0  0  0  0  0  0  0  0  0  0
  -26.8881    0.2501   24.5555 H   0  0  0  0  0  0  0  0  0  0  0  0
  -25.2720    1.4040   26.4370 H   0  0  0  0  0  0  0  0  0  0  0  0
  -26.4070    2.2200   25.5860 H   0  0  0  0  0  0  0  0  0  0  0  0
  -26.9583    1.0439   28.3099 H   0  0  0  0  0  0  0  0  0  0  0  0
  -25.0233    2.7958   27.9330 H   0  0  0  0  0  0  0  0  0  0  0  0
  -26.3510    3.9408   27.6426 H   0  0  0  0  0  0  0  0  0  0  0  0
  -26.9540    3.7790   29.6850 H   0  0  0  0  0  0  0  0  0  0  0  0
  -28.9432    2.1077   28.2356 H   0  0  0  0  0  0  0  0  0  0  0  0
  -28.5940    3.3530   25.7250 H   0  0  0  0  0  0  0  0  0  0  0  0
  -29.0180    1.6486   25.2710 H   0  0  0  0  0  0  0  0  0  0  0  0
  -30.4440    1.0100   27.6390 H   0  0  0  0  0  0  0  0  0  0  0  0
  -28.7327   -0.7993   25.3958 H   0  0  0  0  0  0  0  0  0  0  0  0
  -27.6110   -1.4650   27.4100 H   0  0  0  0  0  0  0  0  0  0  0  0
  1  2  1  0
  2  3  1  0
  3  4  1  0
  4  5  1  0
  5  6  1  0
  6  7  1  0
  5  8  1  0
  8  9  1  0
  8 10  1  0
 10 11  1  0
 10 12  1  0
 12 13  1  0
 12  3  1  0
  1 14  1  0
  2 15  1  0
  2 16  1  0
  3 17  1  6
  4 18  1  0
  4 19  1  0
  5 20  1  1
  6 21  1  0
  6 22  1  0
  7 23  1  0
  8 24  1  1
  9 25  1  0
 10 26  1  0
 11 27  1  0
 12 28  1  6
 13 29  1  0
M  CHG  1   4   1
M  END
>  <meeko>  (4) 
{"is_sidechain": [false], "free_energy": -5.1, "intermolecular_energy": -6.517, "internal_energy": -0.177}

$$$$
2wvt_ligand
     RDKit          3D

 29 29  0  0  0  0  0  0  0  0999 V2000
  -24.8170    3.8270   29.0390 O   0  0  0  0  0  0  0  0  0  0  0  0
  -25.9660    3.9690   28.2160 C   0  0  0  0  0  0  0  0  0  0  0  0
  -26.0050    2.8410   27.1680 C   0  0  2  0  0  0  0  0  0  0  0  0
  -27.3850    2.7490   26.5640 N   0  0  0  0  0  0  0  0  0  0  0  0
  -28.2400    1.6280   27.1230 C   0  0  1  0  0  0  0  0  0  0  0  0
  -29.6650    1.8610   26.6000 C   0  0  0  0  0  0  0  0  0  0  0  0
  -29.6680    3.1510   25.9640 O   0  0  0  0  0  0  0  0  0  0  0  0
  -27.5990    0.2890   26.7280 C   0  0  1  0  0  0  0  0  0  0  0  0
  -27.9140    0.0010   25.3580 O   0  0  0  0  0  0  0  0  0  0  0  0
  -26.0560    0.3320   26.8400 C   0  0  0  0  0  0  0  0  0  0  0  0
  -25.5980   -0.9360   27.3150 O   0  0  0  0  0  0  0  0  0  0  0  0
  -25.5480    1.4660   27.7370 C   0  0  2  0  0  0  0  0  0  0  0  0
  -26.0640    1.2250   29.0560 O   0  0  0  0  0  0  0  0  0  0  0  0
  -24.9790    3.0910   29.6600 H   0  0  0  0  0  0  0  0  0  0  0  0
  -26.8701    3.9177   28.8404 H   0  0  0  0  0  0  0  0  0  0  0  0
  -25.9236    4.9399   27.7006 H   0  0  0  0  0  0  0  0  0  0  0  0
  -25.2801    3.0989   26.3819 H   0  0  0  0  0  0  0  0  0  0  0  0
  -27.9510    3.6080   26.6880 H   0  0  0  0  0  0  0  0  0  0  0  0
  -27.3370    2.6120   25.5430 H   0  0  0  0  0  0  0  0  0  0  0  0
  -28.3004    1.6062   28.2211 H   0  0  0  0  0  0  0  0  0  0  0  0
  -29.9343    1.0800   25.8737 H   0  0  0  0  0  0  0  0  0  0  0  0
  -30.3976    1.8231   27.4197 H   0  0  0  0  0  0  0  0  0  0  0  0
  -28.7310    3.4170   25.8680 H   0  0  0  0  0  0  0  0  0  0  0  0
  -27.9935   -0.4762   27.4127 H   0  0  0  0  0  0  0  0  0  0  0  0
  -28.8500   -0.2950   25.3400 H   0  0  0  0  0  0  0  0  0  0  0  0
  -25.6476    0.5390   25.8398 H   0  0  0  0  0  0  0  0  0  0  0  0
  -25.3290   -0.8230   28.2490 H   0  0  0  0  0  0  0  0  0  0  0  0
  -24.4489    1.4933   27.7736 H   0  0  0  0  0  0  0  0  0  0  0  0
  -26.9410    1.6660   29.0980 H   0  0  0  0  0  0  0  0  0  0  0  0
  1  2  1  0
  2  3  1  0
  3  4  1  0
  4  5  1  0
  5  6  1  0
  6  7  1  0
  5  8  1  0
  8  9  1  0
  8 10  1  0
 10 11  1  0
 10 12  1  0
 12 13  1  0
 12  3  1  0
  1 14  1  0
  2 15  1  0
  2 16  1  0
  3 17  1  6
  4 18  1  0
  4 19  1  0
  5 20  1  1
  6 21  1  0
  6 22  1  0
  7 23  1  0
  8 24  1  1
  9 25  1  0
 10 26  1  0
 11 27  1  0
 12 28  1  1
 13 29  1  0
M  CHG  1   4   1
M  END
>  <meeko>  (5) 
{"is_sidechain": [false], "free_energy": -5.046, "intermolecular_energy": -6.302, "internal_energy": -0.325}

$$$$
2wvt_ligand
     RDKit          3D

 29 29  0  0  0  0  0  0  0  0999 V2000
  -29.6910    0.7790   24.0330 O   0  0  0  0  0  0  0  0  0  0  0  0
  -29.7520   -0.5610   24.5020 C   0  0  0  0  0  0  0  0  0  0  0  0
  -28.8620   -0.7220   25.7490 C   0  0  2  0  0  0  0  0  0  0  0  0
  -29.0560    0.4540   26.6740 N   0  0  0  0  0  0  0  0  0  0  0  0
  -27.9600    1.4990   26.5980 C   0  0  1  0  0  0  0  0  0  0  0  0
  -28.4600    2.7180   27.3860 C   0  0  0  0  0  0  0  0  0  0  0  0
  -28.1330    3.8800   26.6050 O   0  0  0  0  0  0  0  0  0  0  0  0
  -26.6550    0.8680   27.1080 C   0  0  1  0  0  0  0  0  0  0  0  0
  -26.6790    0.8320   28.5440 O   0  0  0  0  0  0  0  0  0  0  0  0
  -26.4890   -0.5900   26.6210 C   0  0  0  0  0  0  0  0  0  0  0  0
  -25.1080   -0.8220   26.3370 O   0  0  0  0  0  0  0  0  0  0  0  0
  -27.3570   -0.9210   25.4020 C   0  0  2  0  0  0  0  0  0  0  0  0
  -26.9290   -0.0630   24.3320 O   0  0  0  0  0  0  0  0  0  0  0  0
  -28.9440    0.8470   23.4070 H   0  0  0  0  0  0  0  0  0  0  0  0
  -30.7917   -0.8094   24.7616 H   0  0  0  0  0  0  0  0  0  0  0  0
  -29.3937   -1.2375   23.7120 H   0  0  0  0  0  0  0  0  0  0  0  0
  -29.1789   -1.6433   26.2597 H   0  0  0  0  0  0  0  0  0  0  0  0
  -29.9370    0.9740   26.5060 H   0  0  0  0  0  0  0  0  0  0  0  0
  -29.1160    0.1500   27.6580 H   0  0  0  0  0  0  0  0  0  0  0  0
  -27.7333    1.8469   25.5794 H   0  0  0  0  0  0  0  0  0  0  0  0
  -29.5484    2.6540   27.5322 H   0  0  0  0  0  0  0  0  0  0  0  0
  -27.9906    2.7653   28.3797 H   0  0  0  0  0  0  0  0  0  0  0  0
  -28.2520    3.6290   25.6660 H   0  0  0  0  0  0  0  0  0  0  0  0
  -25.8249    1.4780   26.7221 H   0  0  0  0  0  0  0  0  0  0  0  0
  -25.8150    1.1860   28.8480 H   0  0  0  0  0  0  0  0  0  0  0  0
  -26.8351   -1.2575   27.4239 H   0  0  0  0  0  0  0  0  0  0  0  0
  -24.7710   -0.0480   25.8430 H   0  0  0  0  0  0  0  0  0  0  0  0
  -27.2429   -1.9716   25.0967 H   0  0  0  0  0  0  0  0  0  0  0  0
  -26.4170    0.6660   24.7460 H   0  0  0  0  0  0  0  0  0  0  0  0
  1  2  1  0
  2  3  1  0
  3  4  1  0
  4  5  1  0
  5  6  1  0
  6  7  1  0
  5  8  1  0
  8  9  1  0
  8 10  1  0
 10 11  1  0
 10 12  1  0
 12 13  1  0
 12  3  1  0
  1 14  1  0
  2 15  1  0
  2 16  1  0
  3 17  1  1
  4 18  1  0
  4 19  1  0
  5 20  1  6
  6 21  1  0
  6 22  1  0
  7 23  1  0
  8 24  1  1
  9 25  1  0
 10 26  1  0
 11 27  1  0
 12 28  1  6
 13 29  1  0
M  CHG  1   4   1
M  END
>  <meeko>  (6) 
{"is_sidechain": [false], "free_energy": -4.727, "intermolecular_energy": -6.065, "internal_energy": -0.159}

$$$$
2wvt_ligand
     RDKit          3D

 29 29  0  0  0  0  0  0  0  0999 V2000
  -29.8860   -0.5990   27.1640 O   0  0  0  0  0  0  0  0  0  0  0  0
  -30.1620    0.7080   26.6790 C   0  0  0  0  0  0  0  0  0  0  0  0
  -28.8910    1.5750   26.7520 C   0  0  2  0  0  0  0  0  0  0  0  0
  -27.7560    0.8830   26.0360 N   0  0  0  0  0  0  0  0  0  0  0  0
  -26.7710    0.1830   26.9520 C   0  0  1  0  0  0  0  0  0  0  0  0
  -25.8680   -0.6730   26.0520 C   0  0  0  0  0  0  0  0  0  0  0  0
  -25.8660   -0.0540   24.7550 O   0  0  0  0  0  0  0  0  0  0  0  0
  -26.0520    1.2490   27.7930 C   0  0  1  0  0  0  0  0  0  0  0  0
  -25.0380    1.8760   26.9920 O   0  0  0  0  0  0  0  0  0  0  0  0
  -27.0160    2.3650   28.2580 C   0  0  0  0  0  0  0  0  0  0  0  0
  -26.6470    2.7660   29.5800 O   0  0  0  0  0  0  0  0  0  0  0  0
  -28.4900    1.9470   28.2090 C   0  0  2  0  0  0  0  0  0  0  0  0
  -28.6470    0.8430   29.1150 O   0  0  0  0  0  0  0  0  0  0  0  0
  -30.3160   -1.2400   26.5660 H   0  0  0  0  0  0  0  0  0  0  0  0
  -30.5008    0.6451   25.6344 H   0  0  0  0  0  0  0  0  0  0  0  0
  -30.9476    1.1652   27.2985 H   0  0  0  0  0  0  0  0  0  0  0  0
  -29.1151    2.5265   26.2476 H   0  0  0  0  0  0  0  0  0  0  0  0
  -28.0690    0.1550   25.3680 H   0  0  0  0  0  0  0  0  0  0  0  0
  -27.2150    1.5490   25.4630 H   0  0  0  0  0  0  0  0  0  0  0  0
  -27.2331   -0.4970   27.6828 H   0  0  0  0  0  0  0  0  0  0  0  0
  -24.8465   -0.7023   26.4590 H   0  0  0  0  0  0  0  0  0  0  0  0
  -26.2361   -1.7080   25.9943 H   0  0  0  0  0  0  0  0  0  0  0  0
  -26.7930   -0.0620   24.4400 H   0  0  0  0  0  0  0  0  0  0  0  0
  -25.6304    0.7409   28.6728 H   0  0  0  0  0  0  0  0  0  0  0  0
  -25.3420    2.7930   26.8200 H   0  0  0  0  0  0  0  0  0  0  0  0
  -26.9214    3.2087   27.5586 H   0  0  0  0  0  0  0  0  0  0  0  0
  -25.6700    2.7520   29.6320 H   0  0  0  0  0  0  0  0  0  0  0  0
  -29.1547    2.7683   28.5149 H   0  0  0  0  0  0  0  0  0  0  0  0
  -29.1760    1.1760   29.8730 H   0  0  0  0  0  0  0  0  0  0  0  0
  1  2  1  0
  2  3  1  0
  3  4  1  0
  4  5  1  0
  5  6  1  0
  6  7  1  0
  5  8  1  0
  8  9  1  0
  8 10  1  0
 10 11  1  0
 10 12  1  0
 12 13  1  0
 12  3  1  0
  1 14  1  0
  2 15  1  0
  2 16  1  0
  3 17  1  6
  4 18  1  0
  4 19  1  0
  5 20  1  1
  6 21  1  0
  6 22  1  0
  7 23  1  0
  8 24  1  1
  9 25  1  0
 10 26  1  0
 11 27  1  0
 12 28  1  1
 13 29  1  0
M  CHG  1   4   1
M  END
>  <meeko>  (7) 
{"is_sidechain": [false], "free_energy": -4.334, "intermolecular_energy": -5.358, "internal_energy": -0.369}

$$$$
2wvt_ligand
     RDKit          3D

 29 29  0  0  0  0  0  0  0  0999 V2000
  -26.1310    0.1690   25.0170 O   0  0  0  0  0  0  0  0  0  0  0  0
  -25.8550   -0.6210   26.1640 C   0  0  0  0  0  0  0  0  0  0  0  0
  -26.4070    0.0700   27.4250 C   0  0  2  0  0  0  0  0  0  0  0  0
  -27.8750    0.3730   27.2440 N   0  0  0  0  0  0  0  0  0  0  0  0
  -28.1780    1.8140   26.8840 C   0  0  1  0  0  0  0  0  0  0  0  0
  -29.6590    1.8620   26.4790 C   0  0  0  0  0  0  0  0  0  0  0  0
  -29.9070    3.1820   25.9660 O   0  0  0  0  0  0  0  0  0  0  0  0
  -27.7870    2.7020   28.0740 C   0  0  1  0  0  0  0  0  0  0  0  0
  -28.8070    2.6180   29.0810 O   0  0  0  0  0  0  0  0  0  0  0  0
  -26.4640    2.2390   28.7290 C   0  0  0  0  0  0  0  0  0  0  0  0
  -25.7290    3.3940   29.1410 O   0  0  0  0  0  0  0  0  0  0  0  0
  -25.6140    1.3530   27.8110 C   0  0  2  0  0  0  0  0  0  0  0  0
  -25.2670    2.1440   26.6640 O   0  0  0  0  0  0  0  0  0  0  0  0
  -26.8750   -0.2440   24.5370 H   0  0  0  0  0  0  0  0  0  0  0  0
  -26.3308   -1.6063   26.0507 H   0  0  0  0  0  0  0  0  0  0  0  0
  -24.7664   -0.7418   26.2658 H   0  0  0  0  0  0  0  0  0  0  0  0
  -26.2800   -0.6299   28.2640 H   0  0  0  0  0  0  0  0  0  0  0  0
  -28.3260   -0.1920   26.5010 H   0  0  0  0  0  0  0  0  0  0  0  0
  -28.4090    0.1550   28.0990 H   0  0  0  0  0  0  0  0  0  0  0  0
  -27.5989    2.2016   26.0329 H   0  0  0  0  0  0  0  0  0  0  0  0
  -29.8640    1.1096   25.7032 H   0  0  0  0  0  0  0  0  0  0  0  0
  -30.3103    1.6437   27.3382 H   0  0  0  0  0  0  0  0  0  0  0  0
  -29.0320    3.6070   25.8530 H   0  0  0  0  0  0  0  0  0  0  0  0
  -27.6667    3.7263   27.6914 H   0  0  0  0  0  0  0  0  0  0  0  0
  -29.5860    2.1960   28.6580 H   0  0  0  0  0  0  0  0  0  0  0  0
  -26.7165    1.6129   29.5974 H   0  0  0  0  0  0  0  0  0  0  0  0
  -25.5220    3.9160   28.3400 H   0  0  0  0  0  0  0  0  0  0  0  0
  -24.6955    1.0125   28.3114 H   0  0  0  0  0  0  0  0  0  0  0  0
  -24.8290    1.5370   26.0280 H   0  0  0  0  0  0  0  0  0  0  0  0
  1  2  1  0
  2  3  1  0
  3  4  1  0
  4  5  1  0
  5  6  1  0
  6  7  1  0
  5  8  1  0
  8  9  1  0
  8 10  1  0
 10 11  1  0
 10 12  1  0
 12 13  1  0
 12  3  1  0
  1 14  1  0
  2 15  1  0
  2 16  1  0
  3 17  1  1
  4 18  1  0
  4 19  1  0
  5 20  1  6
  6 21  1  0
  6 22  1  0
  7 23  1  0
  8 24  1  6
  9 25  1  0
 10 26  1  0
 11 27  1  0
 12 28  1  1
 13 29  1  0
M  CHG  1   4   1
M  END
>  <meeko>  (8) 
{"is_sidechain": [false], "free_energy": -4.264, "intermolecular_energy": -5.424, "internal_energy": -0.215}

$$$$
2wvt_ligand
     RDKit          3D

 29 29  0  0  0  0  0  0  0  0999 V2000
  -24.0040    2.0900   28.8240 O   0  0  0  0  0  0  0  0  0  0  0  0
  -25.2440    1.4000   28.8900 C   0  0  0  0  0  0  0  0  0  0  0  0
  -26.4060    2.3840   28.6600 C   0  0  2  0  0  0  0  0  0  0  0  0
  -27.7060    1.6260   28.5450 N   0  0  0  0  0  0  0  0  0  0  0  0
  -28.1970    1.4360   27.1230 C   0  0  1  0  0  0  0  0  0  0  0  0
  -29.3550    0.4300   27.1890 C   0  0  0  0  0  0  0  0  0  0  0  0
  -30.0690    0.5350   25.9460 O   0  0  0  0  0  0  0  0  0  0  0  0
  -28.5490    2.8150   26.5450 C   0  0  1  0  0  0  0  0  0  0  0  0
  -29.8270    3.2280   27.0530 O   0  0  0  0  0  0  0  0  0  0  0  0
  -27.5240    3.8960   26.9640 C   0  0  0  0  0  0  0  0  0  0  0  0
  -27.3320    4.7930   25.8690 O   0  0  0  0  0  0  0  0  0  0  0  0
  -26.1860    3.3090   27.4270 C   0  0  2  0  0  0  0  0  0  0  0  0
  -25.6250    2.6010   26.3100 O   0  0  0  0  0  0  0  0  0  0  0  0
  -23.8610    2.5370   29.6810 H   0  0  0  0  0  0  0  0  0  0  0  0
  -25.2685    0.6196   28.1152 H   0  0  0  0  0  0  0  0  0  0  0  0
  -25.3500    0.9414   29.8842 H   0  0  0  0  0  0  0  0  0  0  0  0
  -26.4480    3.0498   29.5346 H   0  0  0  0  0  0  0  0  0  0  0  0
  -27.6670    0.6710   28.9460 H   0  0  0  0  0  0  0  0  0  0  0  0
  -28.4610    2.0980   29.0650 H   0  0  0  0  0  0  0  0  0  0  0  0
  -27.4470    1.0177   26.4356 H   0  0  0  0  0  0  0  0  0  0  0  0
  -28.9634   -0.5901   27.3156 H   0  0  0  0  0  0  0  0  0  0  0  0
  -30.0153    0.6443   28.0423 H   0  0  0  0  0  0  0  0  0  0  0  0
  -30.6430   -0.2560   25.8850 H   0  0  0  0  0  0  0  0  0  0  0  0
  -28.5506    2.7182   25.4493 H   0  0  0  0  0  0  0  0  0  0  0  0
  -29.7460    3.2500   28.0320 H   0  0  0  0  0  0  0  0  0  0  0  0
  -27.9320    4.4324   27.8334 H   0  0  0  0  0  0  0  0  0  0  0  0
  -26.7770    4.3380   25.2040 H   0  0  0  0  0  0  0  0  0  0  0  0
  -25.4884    4.0963   27.7488 H   0  0  0  0  0  0  0  0  0  0  0  0
  -26.3610    2.0970   25.9000 H   0  0  0  0  0  0  0  0  0  0  0  0
  1  2  1  0
  2  3  1  0
  3  4  1  0
  4  5  1  0
  5  6  1  0
  6  7  1  0
  5  8  1  0
  8  9  1  0
  8 10  1  0
 10 11  1  0
 10 12  1  0
 12 13  1  0
 12  3  1  0
  1 14  1  0
  2 15  1  0
  2 16  1  0
  3 17  1  1
  4 18  1  0
  4 19  1  0
  5 20  1  6
  6 21  1  0
  6 22  1  0
  7 23  1  0
  8 24  1  6
  9 25  1  0
 10 26  1  0
 11 27  1  0
 12 28  1  1
 13 29  1  0
M  CHG  1   4   1
M  END
>  <meeko>  (9) 
{"is_sidechain": [false], "free_energy": -4.248, "intermolecular_energy": -5.129, "internal_energy": -0.489}

$$$$
