3oe4_ligand
     RDKit          3D

 51 54  0  0  0  0  0  0  0  0999 V2000
   17.5950  -31.0670   11.1500 O   0  0  0  0  0  0  0  0  0  0  0  0
   17.2920  -30.6980   12.2790 C   0  0  0  0  0  0  0  0  0  0  0  0
   18.2140  -30.2400   13.1880 N   0  0  0  0  0  0  0  0  0  0  0  0
   19.5820  -30.0110   12.8100 C   0  0  0  0  0  0  0  0  0  0  0  0
   20.4390  -30.9330   13.6170 C   0  0  0  0  0  0  0  0  0  0  0  0
   21.4220  -31.6950   13.1060 C   0  0  0  0  0  0  0  0  0  0  0  0
   22.3120  -32.6390   13.8680 C   0  0  1  0  0  0  0  0  0  0  0  0
   21.5460  -33.6700   14.5160 O   0  0  0  0  0  0  0  0  0  0  0  0
   22.3280  -34.8860   14.4960 C   0  0  1  0  0  0  0  0  0  0  0  0
   21.5810  -35.9380   13.8350 N   0  0  0  0  0  0  0  0  0  0  0  0
   21.9430  -36.6860   12.7480 C   0  0  0  0  0  0  0  0  0  0  0  0
   21.0150  -37.5650   12.4270 N   0  0  0  0  0  0  0  0  0  0  0  0
   20.0070  -37.3670   13.3390 C   0  0  0  0  0  0  0  0  0  0  0  0
   18.7690  -37.9710   13.5310 C   0  0  0  0  0  0  0  0  0  0  0  0
   17.9750  -37.5510   14.5510 N   0  0  0  0  0  0  0  0  0  0  0  0
   18.4330  -36.5560   15.3420 C   0  0  0  0  0  0  0  0  0  0  0  0
   19.6100  -35.8980   15.2600 N   0  0  0  0  0  0  0  0  0  0  0  0
   20.3390  -36.3570   14.2280 C   0  0  0  0  0  0  0  0  0  0  0  0
   23.6630  -34.5770   13.8080 C   0  0  2  0  0  0  0  0  0  0  0  0
   24.6740  -34.1940   14.7630 O   0  0  0  0  0  0  0  0  0  0  0  0
   23.3160  -33.3620   12.9670 C   0  0  2  0  0  0  0  0  0  0  0  0
   24.4680  -32.5810   12.6700 O   0  0  0  0  0  0  0  0  0  0  0  0
   15.8620  -30.7350   12.7150 C   0  0  0  0  0  0  0  0  0  0  0  0
   14.9670  -31.4790   11.9250 C   0  0  0  0  0  0  0  0  0  0  0  0
   13.6110  -31.5570   12.2770 C   0  0  0  0  0  0  0  0  0  0  0  0
   12.6860  -32.3390   11.4450 N   0  0  0  0  0  0  0  0  0  0  0  0
   12.2730  -31.8280   10.3980 O   0  0  0  0  0  0  0  0  0  0  0  0
   12.3780  -33.4710   11.8460 O   0  0  0  0  0  0  0  0  0  0  0  0
   13.1200  -30.8990   13.4120 C   0  0  0  0  0  0  0  0  0  0  0  0
   14.0100  -30.1630   14.1840 C   0  0  0  0  0  0  0  0  0  0  0  0
   13.6010  -29.4900   15.3050 O   0  0  0  0  0  0  0  0  0  0  0  0
   15.3650  -30.0760   13.8470 C   0  0  0  0  0  0  0  0  0  0  0  0
   16.1680  -29.3170   14.6630 O   0  0  0  0  0  0  0  0  0  0  0  0
   17.8580  -29.7980   14.0330 H   0  0  0  0  0  0  0  0  0  0  0  0
   19.7141  -30.2195   11.7380 H   0  0  0  0  0  0  0  0  0  0  0  0
   19.8623  -28.9638   12.9964 H   0  0  0  0  0  0  0  0  0  0  0  0
   20.2531  -30.9918   14.6996 H   0  0  0  0  0  0  0  0  0  0  0  0
   21.5927  -31.6208   12.0219 H   0  0  0  0  0  0  0  0  0  0  0  0
   22.8401  -32.0052   14.5956 H   0  0  0  0  0  0  0  0  0  0  0  0
   22.5397  -35.2478   15.5130 H   0  0  0  0  0  0  0  0  0  0  0  0
   22.8937  -36.5680   12.2074 H   0  0  0  0  0  0  0  0  0  0  0  0
   18.4360  -38.7801   12.8643 H   0  0  0  0  0  0  0  0  0  0  0  0
   17.7627  -36.2420   16.1557 H   0  0  0  0  0  0  0  0  0  0  0  0
   24.0604  -35.4394   13.2527 H   0  0  0  0  0  0  0  0  0  0  0  0
   24.8050  -34.9580   15.3560 H   0  0  0  0  0  0  0  0  0  0  0  0
   22.9091  -33.5970   11.9724 H   0  0  0  0  0  0  0  0  0  0  0  0
   24.1490  -31.8420   12.1120 H   0  0  0  0  0  0  0  0  0  0  0  0
   15.3314  -32.0014   11.0282 H   0  0  0  0  0  0  0  0  0  0  0  0
   12.0564  -30.9635   13.6851 H   0  0  0  0  0  0  0  0  0  0  0  0
   13.3880  -30.1350   16.0050 H   0  0  0  0  0  0  0  0  0  0  0  0
   16.6670  -29.9670   15.2030 H   0  0  0  0  0  0  0  0  0  0  0  0
  1  2  2  0
  2  3  1  0
  3  4  1  0
  4  5  1  0
  5  6  2  0
  6  7  1  0
  7  8  1  0
  8  9  1  0
  9 10  1  0
 10 11  1  0
 11 12  2  0
 12 13  1  0
 13 14  2  0
 14 15  1  0
 15 16  2  0
 16 17  1  0
 17 18  2  0
  9 19  1  0
 19 20  1  0
 19 21  1  0
 21 22  1  0
  2 23  1  0
 23 24  2  0
 24 25  1  0
 25 26  1  0
 26 27  2  0
 26 28  1  0
 25 29  2  0
 29 30  1  0
 30 31  1  0
 30 32  2  0
 32 33  1  0
 21  7  1  0
 32 23  1  0
 18 10  1  0
 18 13  1  0
  3 34  1  0
  4 35  1  0
  4 36  1  0
  5 37  1  0
  6 38  1  0
  7 39  1  1
  9 40  1  1
 11 41  1  0
 14 42  1  0
 16 43  1  0
 19 44  1  6
 20 45  1  0
 21 46  1  6
 22 47  1  0
 24 48  1  0
 29 49  1  0
 31 50  1  0
 33 51  1  0
M  CHG  2  26   1  28  -1
M  END
>  <meeko>  (1) 
{"is_sidechain": [false], "free_energy": -9.003, "intermolecular_energy": -13.214, "internal_energy": -0.916}

$$$$
3oe4_ligand
     RDKit          3D

 51 54  0  0  0  0  0  0  0  0999 V2000
   17.6310  -30.9940   11.2170 O   0  0  0  0  0  0  0  0  0  0  0  0
   17.3200  -30.8890   12.3980 C   0  0  0  0  0  0  0  0  0  0  0  0
   18.2460  -30.8200   13.4100 N   0  0  0  0  0  0  0  0  0  0  0  0
   19.6510  -30.7010   13.1280 C   0  0  0  0  0  0  0  0  0  0  0  0
   20.2630  -32.0560   13.2790 C   0  0  0  0  0  0  0  0  0  0  0  0
   21.4680  -32.4030   12.7930 C   0  0  0  0  0  0  0  0  0  0  0  0
   22.1310  -33.7480   12.9150 C   0  0  1  0  0  0  0  0  0  0  0  0
   23.0200  -33.9940   11.8110 O   0  0  0  0  0  0  0  0  0  0  0  0
   24.1460  -34.7530   12.3050 C   0  0  1  0  0  0  0  0  0  0  0  0
   25.3780  -34.0410   12.0250 N   0  0  0  0  0  0  0  0  0  0  0  0
   25.9100  -32.9670   12.6840 C   0  0  0  0  0  0  0  0  0  0  0  0
   27.0560  -32.5860   12.1570 N   0  0  0  0  0  0  0  0  0  0  0  0
   27.2660  -33.4460   11.1060 C   0  0  0  0  0  0  0  0  0  0  0  0
   28.2840  -33.5640   10.1660 C   0  0  0  0  0  0  0  0  0  0  0  0
   28.2120  -34.5450    9.2280 N   0  0  0  0  0  0  0  0  0  0  0  0
   27.1440  -35.3700    9.2540 C   0  0  0  0  0  0  0  0  0  0  0  0
   26.1000  -35.3590   10.1130 N   0  0  0  0  0  0  0  0  0  0  0  0
   26.2320  -34.3620   11.0060 C   0  0  0  0  0  0  0  0  0  0  0  0
   23.9270  -35.0020   13.8020 C   0  0  2  0  0  0  0  0  0  0  0  0
   23.2510  -36.2550   14.0360 O   0  0  0  0  0  0  0  0  0  0  0  0
   22.9840  -33.8740   14.1800 C   0  0  2  0  0  0  0  0  0  0  0  0
   22.2230  -34.1900   15.3410 O   0  0  0  0  0  0  0  0  0  0  0  0
   15.8780  -30.8310   12.7860 C   0  0  0  0  0  0  0  0  0  0  0  0
   14.9640  -31.5250   11.9730 C   0  0  0  0  0  0  0  0  0  0  0  0
   13.5940  -31.5130   12.2790 C   0  0  0  0  0  0  0  0  0  0  0  0
   12.6500  -32.2440   11.4230 N   0  0  0  0  0  0  0  0  0  0  0  0
   12.2910  -33.3710   11.7850 O   0  0  0  0  0  0  0  0  0  0  0  0
   12.2690  -31.6830   10.3860 O   0  0  0  0  0  0  0  0  0  0  0  0
   13.1100  -30.8130   13.3920 C   0  0  0  0  0  0  0  0  0  0  0  0
   14.0180  -30.1280   14.1870 C   0  0  0  0  0  0  0  0  0  0  0  0
   13.6160  -29.4190   15.2880 O   0  0  0  0  0  0  0  0  0  0  0  0
   15.3860  -30.1300   13.8950 C   0  0  0  0  0  0  0  0  0  0  0  0
   16.2090  -29.4160   14.7310 O   0  0  0  0  0  0  0  0  0  0  0  0
   17.9090  -30.5650   14.3360 H   0  0  0  0  0  0  0  0  0  0  0  0
   19.7970  -30.3368   12.1004 H   0  0  0  0  0  0  0  0  0  0  0  0
   20.1227  -29.9869   13.8190 H   0  0  0  0  0  0  0  0  0  0  0  0
   19.6897  -32.8204   13.8239 H   0  0  0  0  0  0  0  0  0  0  0  0
   22.0254  -31.6245   12.2514 H   0  0  0  0  0  0  0  0  0  0  0  0
   21.3023  -34.4709   12.9400 H   0  0  0  0  0  0  0  0  0  0  0  0
   24.2288  -35.7274   11.8013 H   0  0  0  0  0  0  0  0  0  0  0  0
   25.4379  -32.4799   13.5499 H   0  0  0  0  0  0  0  0  0  0  0  0
   29.1381  -32.8710   10.1814 H   0  0  0  0  0  0  0  0  0  0  0  0
   27.1200  -36.1497    8.4784 H   0  0  0  0  0  0  0  0  0  0  0  0
   24.8710  -35.0389   14.3654 H   0  0  0  0  0  0  0  0  0  0  0  0
   23.8550  -36.9610   13.7360 H   0  0  0  0  0  0  0  0  0  0  0  0
   23.4848  -32.9345   14.4565 H   0  0  0  0  0  0  0  0  0  0  0  0
   21.8720  -35.0910   15.1870 H   0  0  0  0  0  0  0  0  0  0  0  0
   15.3241  -32.0794   11.0938 H   0  0  0  0  0  0  0  0  0  0  0  0
   12.0361  -30.8066   13.6299 H   0  0  0  0  0  0  0  0  0  0  0  0
   13.8750  -28.4850   15.1790 H   0  0  0  0  0  0  0  0  0  0  0  0
   16.7270  -30.0930   15.2170 H   0  0  0  0  0  0  0  0  0  0  0  0
  1  2  2  0
  2  3  1  0
  3  4  1  0
  4  5  1  0
  5  6  2  0
  6  7  1  0
  7  8  1  0
  8  9  1  0
  9 10  1  0
 10 11  1  0
 11 12  2  0
 12 13  1  0
 13 14  2  0
 14 15  1  0
 15 16  2  0
 16 17  1  0
 17 18  2  0
  9 19  1  0
 19 20  1  0
 19 21  1  0
 21 22  1  0
  2 23  1  0
 23 24  2  0
 24 25  1  0
 25 26  1  0
 26 27  2  0
 26 28  1  0
 25 29  2  0
 29 30  1  0
 30 31  1  0
 30 32  2  0
 32 33  1  0
 21  7  1  0
 32 23  1  0
 18 10  1  0
 18 13  1  0
  3 34  1  0
  4 35  1  0
  4 36  1  0
  5 37  1  0
  6 38  1  0
  7 39  1  1
  9 40  1  6
 11 41  1  0
 14 42  1  0
 16 43  1  0
 19 44  1  1
 20 45  1  0
 21 46  1  1
 22 47  1  0
 24 48  1  0
 29 49  1  0
 31 50  1  0
 33 51  1  0
M  CHG  2  26   1  28  -1
M  END
>  <meeko>  (2) 
{"is_sidechain": [false], "free_energy": -8.963, "intermolecular_energy": -13.181, "internal_energy": -0.889}

$$$$
3oe4_ligand
     RDKit          3D

 51 54  0  0  0  0  0  0  0  0999 V2000
   22.9140  -30.7900    6.8830 O   0  0  0  0  0  0  0  0  0  0  0  0
   21.7340  -31.0020    6.6250 C   0  0  0  0  0  0  0  0  0  0  0  0
   20.7020  -30.4790    7.3660 N   0  0  0  0  0  0  0  0  0  0  0  0
   20.9440  -29.5100    8.3990 C   0  0  0  0  0  0  0  0  0  0  0  0
   20.4860  -30.1000    9.6940 C   0  0  0  0  0  0  0  0  0  0  0  0
   20.5010  -29.4500   10.8720 C   0  0  0  0  0  0  0  0  0  0  0  0
   20.0540  -29.9940   12.2020 C   0  0  1  0  0  0  0  0  0  0  0  0
   18.7790  -29.4510   12.5860 O   0  0  0  0  0  0  0  0  0  0  0  0
   18.0520  -30.4780   13.2950 C   0  0  1  0  0  0  0  0  0  0  0  0
   16.7840  -30.7250   12.6370 N   0  0  0  0  0  0  0  0  0  0  0  0
   16.5570  -31.2500   11.3940 C   0  0  0  0  0  0  0  0  0  0  0  0
   15.2700  -31.3430   11.1270 N   0  0  0  0  0  0  0  0  0  0  0  0
   14.6400  -30.8450   12.2420 C   0  0  0  0  0  0  0  0  0  0  0  0
   13.3020  -30.6730   12.5780 C   0  0  0  0  0  0  0  0  0  0  0  0
   12.9820  -30.1460   13.7890 N   0  0  0  0  0  0  0  0  0  0  0  0
   13.9920  -29.8140   14.6220 C   0  0  0  0  0  0  0  0  0  0  0  0
   15.3220  -29.9370   14.4140 N   0  0  0  0  0  0  0  0  0  0  0  0
   15.5650  -30.4550   13.1970 C   0  0  0  0  0  0  0  0  0  0  0  0
   18.9420  -31.7240   13.3650 C   0  0  2  0  0  0  0  0  0  0  0  0
   19.7300  -31.7440   14.5740 O   0  0  0  0  0  0  0  0  0  0  0  0
   19.8790  -31.5140   12.1890 C   0  0  2  0  0  0  0  0  0  0  0  0
   21.1020  -32.2220   12.3570 O   0  0  0  0  0  0  0  0  0  0  0  0
   21.3700  -31.8630    5.4590 C   0  0  0  0  0  0  0  0  0  0  0  0
   20.0780  -32.4200    5.4480 C   0  0  0  0  0  0  0  0  0  0  0  0
   19.6700  -33.2380    4.3820 C   0  0  0  0  0  0  0  0  0  0  0  0
   18.3170  -33.8110    4.3810 N   0  0  0  0  0  0  0  0  0  0  0  0
   18.0440  -34.6540    5.2440 O   0  0  0  0  0  0  0  0  0  0  0  0
   17.5300  -33.4120    3.5120 O   0  0  0  0  0  0  0  0  0  0  0  0
   20.5340  -33.5190    3.3160 C   0  0  0  0  0  0  0  0  0  0  0  0
   21.8090  -32.9690    3.3370 C   0  0  0  0  0  0  0  0  0  0  0  0
   22.7080  -33.2030    2.3310 O   0  0  0  0  0  0  0  0  0  0  0  0
   22.2300  -32.1510    4.3910 C   0  0  0  0  0  0  0  0  0  0  0  0
   23.5110  -31.6600    4.3320 O   0  0  0  0  0  0  0  0  0  0  0  0
   19.7630  -30.5650    6.9840 H   0  0  0  0  0  0  0  0  0  0  0  0
   22.0183  -29.2794    8.4518 H   0  0  0  0  0  0  0  0  0  0  0  0
   20.3997  -28.5779    8.1872 H   0  0  0  0  0  0  0  0  0  0  0  0
   20.1118  -31.1344    9.6831 H   0  0  0  0  0  0  0  0  0  0  0  0
   20.8780  -28.4167   10.8619 H   0  0  0  0  0  0  0  0  0  0  0  0
   20.8480  -29.7072   12.9072 H   0  0  0  0  0  0  0  0  0  0  0  0
   17.8127  -30.1669   14.3226 H   0  0  0  0  0  0  0  0  0  0  0  0
   17.3536  -31.5576   10.7006 H   0  0  0  0  0  0  0  0  0  0  0  0
   12.5102  -30.9606   11.8706 H   0  0  0  0  0  0  0  0  0  0  0  0
   13.6947  -29.3899   15.5924 H   0  0  0  0  0  0  0  0  0  0  0  0
   18.3615  -32.6582   13.3476 H   0  0  0  0  0  0  0  0  0  0  0  0
   19.4580  -32.5370   15.0740 H   0  0  0  0  0  0  0  0  0  0  0  0
   19.4993  -31.8948   11.2294 H   0  0  0  0  0  0  0  0  0  0  0  0
   21.7780  -31.5380   12.5420 H   0  0  0  0  0  0  0  0  0  0  0  0
   19.3852  -32.2140    6.2772 H   0  0  0  0  0  0  0  0  0  0  0  0
   20.2105  -34.1597    2.4825 H   0  0  0  0  0  0  0  0  0  0  0  0
   22.7390  -32.4250    1.7430 H   0  0  0  0  0  0  0  0  0  0  0  0
   23.4640  -30.7760    4.7570 H   0  0  0  0  0  0  0  0  0  0  0  0
  1  2  2  0
  2  3  1  0
  3  4  1  0
  4  5  1  0
  5  6  2  0
  6  7  1  0
  7  8  1  0
  8  9  1  0
  9 10  1  0
 10 11  1  0
 11 12  2  0
 12 13  1  0
 13 14  2  0
 14 15  1  0
 15 16  2  0
 16 17  1  0
 17 18  2  0
  9 19  1  0
 19 20  1  0
 19 21  1  0
 21 22  1  0
  2 23  1  0
 23 24  2  0
 24 25  1  0
 25 26  1  0
 26 27  2  0
 26 28  1  0
 25 29  2  0
 29 30  1  0
 30 31  1  0
 30 32  2  0
 32 33  1  0
 21  7  1  0
 32 23  1  0
 18 10  1  0
 18 13  1  0
  3 34  1  0
  4 35  1  0
  4 36  1  0
  5 37  1  0
  6 38  1  0
  7 39  1  1
  9 40  1  1
 11 41  1  0
 14 42  1  0
 16 43  1  0
 19 44  1  6
 20 45  1  0
 21 46  1  6
 22 47  1  0
 24 48  1  0
 29 49  1  0
 31 50  1  0
 33 51  1  0
M  CHG  2  26   1  28  -1
M  END
>  <meeko>  (3) 
{"is_sidechain": [false], "free_energy": -8.864, "intermolecular_energy": -12.911, "internal_energy": -1.014}

$$$$
3oe4_ligand
     RDKit          3D

 51 54  0  0  0  0  0  0  0  0999 V2000
   17.5940  -30.9900   11.1860 O   0  0  0  0  0  0  0  0  0  0  0  0
   17.2950  -30.9120   12.3730 C   0  0  0  0  0  0  0  0  0  0  0  0
   18.2310  -30.8620   13.3770 N   0  0  0  0  0  0  0  0  0  0  0  0
   19.6320  -30.7330   13.0830 C   0  0  0  0  0  0  0  0  0  0  0  0
   20.1740  -32.1040   12.8330 C   0  0  0  0  0  0  0  0  0  0  0  0
   19.8550  -33.1900   13.5590 C   0  0  0  0  0  0  0  0  0  0  0  0
   20.3690  -34.5890   13.3520 C   0  0  1  0  0  0  0  0  0  0  0  0
   21.7710  -34.5870   13.0280 O   0  0  0  0  0  0  0  0  0  0  0  0
   22.3680  -35.7620   13.6220 C   0  0  1  0  0  0  0  0  0  0  0  0
   23.4490  -35.3700   14.5040 N   0  0  0  0  0  0  0  0  0  0  0  0
   23.6240  -34.1840   15.1630 C   0  0  0  0  0  0  0  0  0  0  0  0
   24.7220  -34.1840   15.8920 N   0  0  0  0  0  0  0  0  0  0  0  0
   25.2850  -35.4200   15.6850 C   0  0  0  0  0  0  0  0  0  0  0  0
   26.4400  -36.0290   16.1630 C   0  0  0  0  0  0  0  0  0  0  0  0
   26.7350  -37.2960   15.7720 N   0  0  0  0  0  0  0  0  0  0  0  0
   25.8800  -37.9140   14.9280 C   0  0  0  0  0  0  0  0  0  0  0  0
   24.7320  -37.4330   14.4010 N   0  0  0  0  0  0  0  0  0  0  0  0
   24.5070  -36.1770   14.8230 C   0  0  0  0  0  0  0  0  0  0  0  0
   21.2610  -36.5410   14.3410 C   0  0  2  0  0  0  0  0  0  0  0  0
   20.6690  -37.5370   13.4810 O   0  0  0  0  0  0  0  0  0  0  0  0
   20.2270  -35.4610   14.6020 C   0  0  2  0  0  0  0  0  0  0  0  0
   18.9220  -36.0080   14.7590 O   0  0  0  0  0  0  0  0  0  0  0  0
   15.8560  -30.8650   12.7760 C   0  0  0  0  0  0  0  0  0  0  0  0
   14.9450  -31.5980   11.9940 C   0  0  0  0  0  0  0  0  0  0  0  0
   13.5780  -31.5990   12.3170 C   0  0  0  0  0  0  0  0  0  0  0  0
   12.6370  -32.3690   11.4940 N   0  0  0  0  0  0  0  0  0  0  0  0
   12.2700  -33.4740   11.9110 O   0  0  0  0  0  0  0  0  0  0  0  0
   12.2650  -31.8610   10.4260 O   0  0  0  0  0  0  0  0  0  0  0  0
   13.0950  -30.8750   13.4150 C   0  0  0  0  0  0  0  0  0  0  0  0
   14.0010  -30.1520   14.1790 C   0  0  0  0  0  0  0  0  0  0  0  0
   13.6010  -29.4180   15.2640 O   0  0  0  0  0  0  0  0  0  0  0  0
   15.3660  -30.1410   13.8700 C   0  0  0  0  0  0  0  0  0  0  0  0
   16.1860  -29.3890   14.6750 O   0  0  0  0  0  0  0  0  0  0  0  0
   17.9020  -30.6270   14.3110 H   0  0  0  0  0  0  0  0  0  0  0  0
   19.7708  -30.1069   12.1893 H   0  0  0  0  0  0  0  0  0  0  0  0
   20.1592  -30.2585   13.9238 H   0  0  0  0  0  0  0  0  0  0  0  0
   20.8806  -32.2327   11.9999 H   0  0  0  0  0  0  0  0  0  0  0  0
   19.1471  -33.0406   14.3876 H   0  0  0  0  0  0  0  0  0  0  0  0
   19.7608  -34.9961   12.5308 H   0  0  0  0  0  0  0  0  0  0  0  0
   22.8128  -36.4190   12.8601 H   0  0  0  0  0  0  0  0  0  0  0  0
   22.9313  -33.3324   15.0929 H   0  0  0  0  0  0  0  0  0  0  0  0
   27.1082  -35.4902   16.8509 H   0  0  0  0  0  0  0  0  0  0  0  0
   26.1525  -38.9379   14.6324 H   0  0  0  0  0  0  0  0  0  0  0  0
   21.6296  -37.0696   15.2325 H   0  0  0  0  0  0  0  0  0  0  0  0
   21.3110  -38.2690   13.4150 H   0  0  0  0  0  0  0  0  0  0  0  0
   20.3788  -34.9012   15.5366 H   0  0  0  0  0  0  0  0  0  0  0  0
   18.3060  -35.3080   14.4580 H   0  0  0  0  0  0  0  0  0  0  0  0
   15.3041  -32.1720   11.1271 H   0  0  0  0  0  0  0  0  0  0  0  0
   12.0239  -30.8794   13.6656 H   0  0  0  0  0  0  0  0  0  0  0  0
   14.3810  -28.9970   15.6710 H   0  0  0  0  0  0  0  0  0  0  0  0
   17.0830  -29.4910   14.2890 H   0  0  0  0  0  0  0  0  0  0  0  0
  1  2  2  0
  2  3  1  0
  3  4  1  0
  4  5  1  0
  5  6  2  0
  6  7  1  0
  7  8  1  0
  8  9  1  0
  9 10  1  0
 10 11  1  0
 11 12  2  0
 12 13  1  0
 13 14  2  0
 14 15  1  0
 15 16  2  0
 16 17  1  0
 17 18  2  0
  9 19  1  0
 19 20  1  0
 19 21  1  0
 21 22  1  0
  2 23  1  0
 23 24  2  0
 24 25  1  0
 25 26  1  0
 26 27  2  0
 26 28  1  0
 25 29  2  0
 29 30  1  0
 30 31  1  0
 30 32  2  0
 32 33  1  0
 21  7  1  0
 32 23  1  0
 18 10  1  0
 18 13  1  0
  3 34  1  0
  4 35  1  0
  4 36  1  0
  5 37  1  0
  6 38  1  0
  7 39  1  6
  9 40  1  6
 11 41  1  0
 14 42  1  0
 16 43  1  0
 19 44  1  1
 20 45  1  0
 21 46  1  1
 22 47  1  0
 24 48  1  0
 29 49  1  0
 31 50  1  0
 33 51  1  0
M  CHG  2  26   1  28  -1
M  END
>  <meeko>  (4) 
{"is_sidechain": [false], "free_energy": -8.794, "intermolecular_energy": -12.744, "internal_energy": -1.08}

$$$$
3oe4_ligand
     RDKit          3D

 51 54  0  0  0  0  0  0  0  0999 V2000
   23.3640  -31.7810    6.1800 O   0  0  0  0  0  0  0  0  0  0  0  0
   23.0800  -30.6050    6.3750 C   0  0  0  0  0  0  0  0  0  0  0  0
   21.9150  -30.2090    6.9860 N   0  0  0  0  0  0  0  0  0  0  0  0
   21.0260  -31.1660    7.5850 C   0  0  0  0  0  0  0  0  0  0  0  0
   20.9380  -30.8570    9.0450 C   0  0  0  0  0  0  0  0  0  0  0  0
   19.8150  -30.4660    9.6720 C   0  0  0  0  0  0  0  0  0  0  0  0
   19.6700  -30.1410   11.1340 C   0  0  1  0  0  0  0  0  0  0  0  0
   19.5050  -31.3350   11.9200 O   0  0  0  0  0  0  0  0  0  0  0  0
   20.1650  -31.1290   13.1890 C   0  0  1  0  0  0  0  0  0  0  0  0
   21.1630  -32.1600   13.3960 N   0  0  0  0  0  0  0  0  0  0  0  0
   22.5150  -32.0880   13.2040 C   0  0  0  0  0  0  0  0  0  0  0  0
   23.1160  -33.2210   13.5080 N   0  0  0  0  0  0  0  0  0  0  0  0
   22.1040  -34.0640   13.9010 C   0  0  0  0  0  0  0  0  0  0  0  0
   22.0850  -35.3850   14.3360 C   0  0  0  0  0  0  0  0  0  0  0  0
   20.8990  -35.9580   14.6690 N   0  0  0  0  0  0  0  0  0  0  0  0
   19.7810  -35.2080   14.5630 C   0  0  0  0  0  0  0  0  0  0  0  0
   19.6710  -33.9230   14.1600 N   0  0  0  0  0  0  0  0  0  0  0  0
   20.8780  -33.4220   13.8400 C   0  0  0  0  0  0  0  0  0  0  0  0
   20.7570  -29.7150   13.1880 C   0  0  2  0  0  0  0  0  0  0  0  0
   19.8380  -28.7560   13.7510 O   0  0  0  0  0  0  0  0  0  0  0  0
   20.8980  -29.4270   11.7040 C   0  0  2  0  0  0  0  0  0  0  0  0
   20.9080  -28.0290   11.4380 O   0  0  0  0  0  0  0  0  0  0  0  0
   24.0230  -29.5290    5.9410 C   0  0  0  0  0  0  0  0  0  0  0  0
   25.1030  -29.9120    5.1240 C   0  0  0  0  0  0  0  0  0  0  0  0
   26.0270  -28.9530    4.6790 C   0  0  0  0  0  0  0  0  0  0  0  0
   27.1480  -29.3640    3.8240 N   0  0  0  0  0  0  0  0  0  0  0  0
   27.7310  -28.4900    3.1710 O   0  0  0  0  0  0  0  0  0  0  0  0
   27.4430  -30.5680    3.8110 O   0  0  0  0  0  0  0  0  0  0  0  0
   25.8970  -27.6050    5.0380 C   0  0  0  0  0  0  0  0  0  0  0  0
   24.8310  -27.2370    5.8480 C   0  0  0  0  0  0  0  0  0  0  0  0
   24.6440  -25.9390    6.2430 O   0  0  0  0  0  0  0  0  0  0  0  0
   23.9020  -28.1810    6.2990 C   0  0  0  0  0  0  0  0  0  0  0  0
   22.8860  -27.7270    7.1050 O   0  0  0  0  0  0  0  0  0  0  0  0
   21.8380  -29.2320    7.2580 H   0  0  0  0  0  0  0  0  0  0  0  0
   20.0294  -31.0896    7.1257 H   0  0  0  0  0  0  0  0  0  0  0  0
   21.4016  -32.1883    7.4307 H   0  0  0  0  0  0  0  0  0  0  0  0
   21.8536  -30.9562    9.6466 H   0  0  0  0  0  0  0  0  0  0  0  0
   18.9101  -30.3743    9.0534 H   0  0  0  0  0  0  0  0  0  0  0  0
   18.7866  -29.4883   11.1937 H   0  0  0  0  0  0  0  0  0  0  0  0
   19.4595  -31.2075   14.0293 H   0  0  0  0  0  0  0  0  0  0  0  0
   23.0384  -31.1918   12.8395 H   0  0  0  0  0  0  0  0  0  0  0  0
   23.0201  -35.9596   14.4096 H   0  0  0  0  0  0  0  0  0  0  0  0
   18.8404  -35.7065   14.8399 H   0  0  0  0  0  0  0  0  0  0  0  0
   21.6857  -29.6471   13.7735 H   0  0  0  0  0  0  0  0  0  0  0  0
   20.3510  -27.9440   13.9280 H   0  0  0  0  0  0  0  0  0  0  0  0
   21.8425  -29.7738   11.2594 H   0  0  0  0  0  0  0  0  0  0  0  0
   21.4860  -27.9150   10.6550 H   0  0  0  0  0  0  0  0  0  0  0  0
   25.2236  -30.9660    4.8331 H   0  0  0  0  0  0  0  0  0  0  0  0
   26.6221  -26.8561    4.6866 H   0  0  0  0  0  0  0  0  0  0  0  0
   23.7130  -25.8150    6.5040 H   0  0  0  0  0  0  0  0  0  0  0  0
   22.7160  -26.8080    6.8050 H   0  0  0  0  0  0  0  0  0  0  0  0
  1  2  2  0
  2  3  1  0
  3  4  1  0
  4  5  1  0
  5  6  2  0
  6  7  1  0
  7  8  1  0
  8  9  1  0
  9 10  1  0
 10 11  1  0
 11 12  2  0
 12 13  1  0
 13 14  2  0
 14 15  1  0
 15 16  2  0
 16 17  1  0
 17 18  2  0
  9 19  1  0
 19 20  1  0
 19 21  1  0
 21 22  1  0
  2 23  1  0
 23 24  2  0
 24 25  1  0
 25 26  1  0
 26 27  2  0
 26 28  1  0
 25 29  2  0
 29 30  1  0
 30 31  1  0
 30 32  2  0
 32 33  1  0
 21  7  1  0
 32 23  1  0
 18 10  1  0
 18 13  1  0
  3 34  1  0
  4 35  1  0
  4 36  1  0
  5 37  1  0
  6 38  1  0
  7 39  1  6
  9 40  1  1
 11 41  1  0
 14 42  1  0
 16 43  1  0
 19 44  1  1
 20 45  1  0
 21 46  1  6
 22 47  1  0
 24 48  1  0
 29 49  1  0
 31 50  1  0
 33 51  1  0
M  CHG  2  26   1  28  -1
M  END
>  <meeko>  (5) 
{"is_sidechain": [false], "free_energy": -8.741, "intermolecular_energy": -12.812, "internal_energy": -0.933}

$$$$
3oe4_ligand
     RDKit          3D

 51 54  0  0  0  0  0  0  0  0999 V2000
   18.0880  -31.9600   12.6940 O   0  0  0  0  0  0  0  0  0  0  0  0
   17.5030  -30.8820   12.6870 C   0  0  0  0  0  0  0  0  0  0  0  0
   18.1380  -29.6890   12.4410 N   0  0  0  0  0  0  0  0  0  0  0  0
   19.5100  -29.6500   12.0120 C   0  0  0  0  0  0  0  0  0  0  0  0
   19.6200  -30.4650   10.7630 C   0  0  0  0  0  0  0  0  0  0  0  0
   20.5960  -30.3240    9.8490 C   0  0  0  0  0  0  0  0  0  0  0  0
   20.7560  -31.1140    8.5790 C   0  0  1  0  0  0  0  0  0  0  0  0
   20.9510  -30.2480    7.4470 O   0  0  0  0  0  0  0  0  0  0  0  0
   21.8550  -30.9070    6.5320 C   0  0  1  0  0  0  0  0  0  0  0  0
   23.0100  -30.0640    6.2900 N   0  0  0  0  0  0  0  0  0  0  0  0
   23.2260  -28.7780    6.7000 C   0  0  0  0  0  0  0  0  0  0  0  0
   24.4000  -28.3270    6.3050 N   0  0  0  0  0  0  0  0  0  0  0  0
   24.9590  -29.3640    5.5990 C   0  0  0  0  0  0  0  0  0  0  0  0
   26.1710  -29.5150    4.9340 C   0  0  0  0  0  0  0  0  0  0  0  0
   26.4490  -30.6940    4.3170 N   0  0  0  0  0  0  0  0  0  0  0  0
   25.5250  -31.6770    4.3820 C   0  0  0  0  0  0  0  0  0  0  0  0
   24.3210  -31.6530    4.9970 N   0  0  0  0  0  0  0  0  0  0  0  0
   24.1090  -30.4590    5.5770 C   0  0  0  0  0  0  0  0  0  0  0  0
   22.2240  -32.2690    7.1310 C   0  0  2  0  0  0  0  0  0  0  0  0
   21.3360  -33.3080    6.6700 O   0  0  0  0  0  0  0  0  0  0  0  0
   21.9690  -32.0460    8.6110 C   0  0  2  0  0  0  0  0  0  0  0  0
   21.7180  -33.2710    9.2920 O   0  0  0  0  0  0  0  0  0  0  0  0
   16.0330  -30.8320   12.9540 C   0  0  0  0  0  0  0  0  0  0  0  0
   15.1990  -31.5820   12.1060 C   0  0  0  0  0  0  0  0  0  0  0  0
   13.8090  -31.5810   12.3000 C   0  0  0  0  0  0  0  0  0  0  0  0
   12.9480  -32.3710   11.4090 N   0  0  0  0  0  0  0  0  0  0  0  0
   12.8270  -31.9960   10.2370 O   0  0  0  0  0  0  0  0  0  0  0  0
   12.3960  -33.3700   11.8900 O   0  0  0  0  0  0  0  0  0  0  0  0
   13.2250  -30.8360   13.3330 C   0  0  0  0  0  0  0  0  0  0  0  0
   14.0550  -30.0950   14.1630 C   0  0  0  0  0  0  0  0  0  0  0  0
   13.5550  -29.3400   15.1910 O   0  0  0  0  0  0  0  0  0  0  0  0
   15.4430  -30.0860   13.9830 C   0  0  0  0  0  0  0  0  0  0  0  0
   16.1840  -29.3160   14.8450 O   0  0  0  0  0  0  0  0  0  0  0  0
   17.5530  -28.8710   12.2870 H   0  0  0  0  0  0  0  0  0  0  0  0
   19.8095  -28.6112   11.8089 H   0  0  0  0  0  0  0  0  0  0  0  0
   20.1696  -30.0536   12.7943 H   0  0  0  0  0  0  0  0  0  0  0  0
   18.8516  -31.2305   10.5799 H   0  0  0  0  0  0  0  0  0  0  0  0
   21.3542  -29.5529   10.0504 H   0  0  0  0  0  0  0  0  0  0  0  0
   19.8284  -31.6986    8.4906 H   0  0  0  0  0  0  0  0  0  0  0  0
   21.3845  -31.0771    5.5524 H   0  0  0  0  0  0  0  0  0  0  0  0
   22.5065  -28.1901    7.2888 H   0  0  0  0  0  0  0  0  0  0  0  0
   26.8971  -28.6891    4.9075 H   0  0  0  0  0  0  0  0  0  0  0  0
   25.7847  -32.6154    3.8701 H   0  0  0  0  0  0  0  0  0  0  0  0
   23.2448  -32.5830    6.8675 H   0  0  0  0  0  0  0  0  0  0  0  0
   21.1600  -33.1300    5.7260 H   0  0  0  0  0  0  0  0  0  0  0  0
   22.8217  -31.6223    9.1618 H   0  0  0  0  0  0  0  0  0  0  0  0
   22.1470  -33.9650    8.7500 H   0  0  0  0  0  0  0  0  0  0  0  0
   15.6376  -32.1717   11.2875 H   0  0  0  0  0  0  0  0  0  0  0  0
   12.1352  -30.8383   13.4826 H   0  0  0  0  0  0  0  0  0  0  0  0
   13.7300  -29.7950   16.0360 H   0  0  0  0  0  0  0  0  0  0  0  0
   16.5190  -28.5730   14.2970 H   0  0  0  0  0  0  0  0  0  0  0  0
  1  2  2  0
  2  3  1  0
  3  4  1  0
  4  5  1  0
  5  6  2  0
  6  7  1  0
  7  8  1  0
  8  9  1  0
  9 10  1  0
 10 11  1  0
 11 12  2  0
 12 13  1  0
 13 14  2  0
 14 15  1  0
 15 16  2  0
 16 17  1  0
 17 18  2  0
  9 19  1  0
 19 20  1  0
 19 21  1  0
 21 22  1  0
  2 23  1  0
 23 24  2  0
 24 25  1  0
 25 26  1  0
 26 27  2  0
 26 28  1  0
 25 29  2  0
 29 30  1  0
 30 31  1  0
 30 32  2  0
 32 33  1  0
 21  7  1  0
 32 23  1  0
 18 10  1  0
 18 13  1  0
  3 34  1  0
  4 35  1  0
  4 36  1  0
  5 37  1  0
  6 38  1  0
  7 39  1  6
  9 40  1  6
 11 41  1  0
 14 42  1  0
 16 43  1  0
 19 44  1  1
 20 45  1  0
 21 46  1  1
 22 47  1  0
 24 48  1  0
 29 49  1  0
 31 50  1  0
 33 51  1  0
M  CHG  2  26   1  28  -1
M  END
>  <meeko>  (6) 
{"is_sidechain": [false], "free_energy": -8.544, "intermolecular_energy": -13.072, "internal_energy": -0.384}

$$$$
3oe4_ligand
     RDKit          3D

 51 54  0  0  0  0  0  0  0  0999 V2000
   17.5890  -30.8240   11.2090 O   0  0  0  0  0  0  0  0  0  0  0  0
   17.2700  -30.8700   12.3920 C   0  0  0  0  0  0  0  0  0  0  0  0
   18.1880  -30.9570   13.4100 N   0  0  0  0  0  0  0  0  0  0  0  0
   19.5970  -30.8350   13.1550 C   0  0  0  0  0  0  0  0  0  0  0  0
   20.1840  -32.2100   13.1670 C   0  0  0  0  0  0  0  0  0  0  0  0
   21.2590  -32.5820   12.4500 C   0  0  0  0  0  0  0  0  0  0  0  0
   21.8900  -33.9480   12.4240 C   0  0  1  0  0  0  0  0  0  0  0  0
   21.3310  -34.7610   11.3780 O   0  0  0  0  0  0  0  0  0  0  0  0
   22.3830  -35.6030   10.8560 C   0  0  1  0  0  0  0  0  0  0  0  0
   22.5290  -35.3810    9.4310 N   0  0  0  0  0  0  0  0  0  0  0  0
   23.5670  -34.7920    8.7620 C   0  0  0  0  0  0  0  0  0  0  0  0
   23.3630  -34.7710    7.4600 N   0  0  0  0  0  0  0  0  0  0  0  0
   22.1340  -35.3610    7.2840 C   0  0  0  0  0  0  0  0  0  0  0  0
   21.3660  -35.6330    6.1580 C   0  0  0  0  0  0  0  0  0  0  0  0
   20.1630  -36.2480    6.3060 N   0  0  0  0  0  0  0  0  0  0  0  0
   19.7670  -36.5730    7.5560 C   0  0  0  0  0  0  0  0  0  0  0  0
   20.4220  -36.3670    8.7200 N   0  0  0  0  0  0  0  0  0  0  0  0
   21.5960  -35.7490    8.5000 C   0  0  0  0  0  0  0  0  0  0  0  0
   23.6640  -35.2990   11.6430 C   0  0  2  0  0  0  0  0  0  0  0  0
   23.8110  -36.1800   12.7760 O   0  0  0  0  0  0  0  0  0  0  0  0
   23.3970  -33.8970   12.1600 C   0  0  2  0  0  0  0  0  0  0  0  0
   24.1620  -33.6120   13.3250 O   0  0  0  0  0  0  0  0  0  0  0  0
   15.8260  -30.8290   12.7750 C   0  0  0  0  0  0  0  0  0  0  0  0
   14.9270  -31.5600   11.9760 C   0  0  0  0  0  0  0  0  0  0  0  0
   13.5570  -31.5660   12.2790 C   0  0  0  0  0  0  0  0  0  0  0  0
   12.6290  -32.3350   11.4380 N   0  0  0  0  0  0  0  0  0  0  0  0
   12.2650  -31.8340   10.3680 O   0  0  0  0  0  0  0  0  0  0  0  0
   12.2670  -33.4440   11.8570 O   0  0  0  0  0  0  0  0  0  0  0  0
   13.0560  -30.8490   13.3740 C   0  0  0  0  0  0  0  0  0  0  0  0
   13.9490  -30.1280   14.1550 C   0  0  0  0  0  0  0  0  0  0  0  0
   13.5310  -29.4010   15.2370 O   0  0  0  0  0  0  0  0  0  0  0  0
   15.3180  -30.1120   13.8660 C   0  0  0  0  0  0  0  0  0  0  0  0
   16.1250  -29.3620   14.6860 O   0  0  0  0  0  0  0  0  0  0  0  0
   17.8480  -30.8190   14.3590 H   0  0  0  0  0  0  0  0  0  0  0  0
   19.7605  -30.3668   12.1731 H   0  0  0  0  0  0  0  0  0  0  0  0
   20.0735  -30.2069   13.9221 H   0  0  0  0  0  0  0  0  0  0  0  0
   19.7047  -32.9675   13.8046 H   0  0  0  0  0  0  0  0  0  0  0  0
   21.7240  -31.8102   11.8190 H   0  0  0  0  0  0  0  0  0  0  0  0
   21.6910  -34.3716   13.4195 H   0  0  0  0  0  0  0  0  0  0  0  0
   22.1456  -36.6699   10.9802 H   0  0  0  0  0  0  0  0  0  0  0  0
   24.4639  -34.3850    9.2518 H   0  0  0  0  0  0  0  0  0  0  0  0
   21.7280  -35.3535    5.1576 H   0  0  0  0  0  0  0  0  0  0  0  0
   18.7878  -37.0677    7.6366 H   0  0  0  0  0  0  0  0  0  0  0  0
   24.5712  -35.4135   11.0315 H   0  0  0  0  0  0  0  0  0  0  0  0
   23.0320  -36.0360   13.3470 H   0  0  0  0  0  0  0  0  0  0  0  0
   23.6851  -33.0922   11.4677 H   0  0  0  0  0  0  0  0  0  0  0  0
   24.0170  -32.6600   13.5090 H   0  0  0  0  0  0  0  0  0  0  0  0
   15.2997  -32.1285   11.1112 H   0  0  0  0  0  0  0  0  0  0  0  0
   11.9814  -30.8573   13.6089 H   0  0  0  0  0  0  0  0  0  0  0  0
   13.4900  -28.4580   14.9930 H   0  0  0  0  0  0  0  0  0  0  0  0
   15.7690  -29.5040   15.5900 H   0  0  0  0  0  0  0  0  0  0  0  0
  1  2  2  0
  2  3  1  0
  3  4  1  0
  4  5  1  0
  5  6  2  0
  6  7  1  0
  7  8  1  0
  8  9  1  0
  9 10  1  0
 10 11  1  0
 11 12  2  0
 12 13  1  0
 13 14  2  0
 14 15  1  0
 15 16  2  0
 16 17  1  0
 17 18  2  0
  9 19  1  0
 19 20  1  0
 19 21  1  0
 21 22  1  0
  2 23  1  0
 23 24  2  0
 24 25  1  0
 25 26  1  0
 26 27  2  0
 26 28  1  0
 25 29  2  0
 29 30  1  0
 30 31  1  0
 30 32  2  0
 32 33  1  0
 21  7  1  0
 32 23  1  0
 18 10  1  0
 18 13  1  0
  3 34  1  0
  4 35  1  0
  4 36  1  0
  5 37  1  0
  6 38  1  0
  7 39  1  1
  9 40  1  6
 11 41  1  0
 14 42  1  0
 16 43  1  0
 19 44  1  6
 20 45  1  0
 21 46  1  6
 22 47  1  0
 24 48  1  0
 29 49  1  0
 31 50  1  0
 33 51  1  0
M  CHG  2  26   1  28  -1
M  END
>  <meeko>  (7) 
{"is_sidechain": [false], "free_energy": -8.334, "intermolecular_energy": -12.157, "internal_energy": -0.99}

$$$$
3oe4_ligand
     RDKit          3D

 51 54  0  0  0  0  0  0  0  0999 V2000
   23.0990  -29.2440    6.7410 O   0  0  0  0  0  0  0  0  0  0  0  0
   22.3140  -30.1850    6.7180 C   0  0  0  0  0  0  0  0  0  0  0  0
   21.3250  -30.3560    7.6560 N   0  0  0  0  0  0  0  0  0  0  0  0
   21.0470  -29.3440    8.6380 C   0  0  0  0  0  0  0  0  0  0  0  0
   20.5400  -30.0280    9.8670 C   0  0  0  0  0  0  0  0  0  0  0  0
   20.5360  -29.4780   11.0940 C   0  0  0  0  0  0  0  0  0  0  0  0
   20.0400  -30.1190   12.3620 C   0  0  1  0  0  0  0  0  0  0  0  0
   18.7650  -29.5810   12.7540 O   0  0  0  0  0  0  0  0  0  0  0  0
   17.9970  -30.6470   13.3560 C   0  0  1  0  0  0  0  0  0  0  0  0
   16.7450  -30.8130   12.6450 N   0  0  0  0  0  0  0  0  0  0  0  0
   16.5420  -31.2730   11.3730 C   0  0  0  0  0  0  0  0  0  0  0  0
   15.2620  -31.3010   11.0590 N   0  0  0  0  0  0  0  0  0  0  0  0
   14.6130  -30.8260   12.1730 C   0  0  0  0  0  0  0  0  0  0  0  0
   13.2720  -30.6120   12.4700 C   0  0  0  0  0  0  0  0  0  0  0  0
   12.9310  -30.1250   13.6930 N   0  0  0  0  0  0  0  0  0  0  0  0
   13.9240  -29.8720   14.5730 C   0  0  0  0  0  0  0  0  0  0  0  0
   15.2540  -30.0410   14.4050 N   0  0  0  0  0  0  0  0  0  0  0  0
   15.5190  -30.5160   13.1750 C   0  0  0  0  0  0  0  0  0  0  0  0
   18.8620  -31.9140   13.3480 C   0  0  2  0  0  0  0  0  0  0  0  0
   19.6130  -32.0500   14.5720 O   0  0  0  0  0  0  0  0  0  0  0  0
   19.8360  -31.6290   12.2190 C   0  0  2  0  0  0  0  0  0  0  0  0
   21.0400  -32.3750   12.3630 O   0  0  0  0  0  0  0  0  0  0  0  0
   22.4100  -31.2070    5.6320 C   0  0  0  0  0  0  0  0  0  0  0  0
   23.6980  -31.5410    5.1740 C   0  0  0  0  0  0  0  0  0  0  0  0
   23.8610  -32.4940    4.1560 C   0  0  0  0  0  0  0  0  0  0  0  0
   25.2110  -32.8360    3.6880 N   0  0  0  0  0  0  0  0  0  0  0  0
   25.4250  -34.0010    3.3350 O   0  0  0  0  0  0  0  0  0  0  0  0
   26.0560  -31.9290    3.6760 O   0  0  0  0  0  0  0  0  0  0  0  0
   22.7540  -33.1280    3.5760 C   0  0  0  0  0  0  0  0  0  0  0  0
   21.4870  -32.7900    4.0310 C   0  0  0  0  0  0  0  0  0  0  0  0
   20.3590  -33.3660    3.5090 O   0  0  0  0  0  0  0  0  0  0  0  0
   21.3080  -31.8420    5.0450 C   0  0  0  0  0  0  0  0  0  0  0  0
   20.0170  -31.5640    5.4240 O   0  0  0  0  0  0  0  0  0  0  0  0
   20.6180  -31.0620    7.4660 H   0  0  0  0  0  0  0  0  0  0  0  0
   21.9661  -28.7868    8.8719 H   0  0  0  0  0  0  0  0  0  0  0  0
   20.2987  -28.6335    8.2569 H   0  0  0  0  0  0  0  0  0  0  0  0
   20.1441  -31.0487    9.7604 H   0  0  0  0  0  0  0  0  0  0  0  0
   20.9355  -28.4567   11.1795 H   0  0  0  0  0  0  0  0  0  0  0  0
   20.8183  -29.9085   13.1102 H   0  0  0  0  0  0  0  0  0  0  0  0
   17.7326  -30.4153   14.3983 H   0  0  0  0  0  0  0  0  0  0  0  0
   17.3499  -31.5824   10.6936 H   0  0  0  0  0  0  0  0  0  0  0  0
   12.4950  -30.8342   11.7237 H   0  0  0  0  0  0  0  0  0  0  0  0
   13.6099  -29.4783   15.5509 H   0  0  0  0  0  0  0  0  0  0  0  0
   18.2649  -32.8313   13.2382 H   0  0  0  0  0  0  0  0  0  0  0  0
   19.7280  -31.1500   14.9330 H   0  0  0  0  0  0  0  0  0  0  0  0
   19.4772  -31.9214   11.2211 H   0  0  0  0  0  0  0  0  0  0  0  0
   21.6880  -31.9440   11.7690 H   0  0  0  0  0  0  0  0  0  0  0  0
   24.5801  -31.0538    5.6151 H   0  0  0  0  0  0  0  0  0  0  0  0
   22.8859  -33.8752    2.7796 H   0  0  0  0  0  0  0  0  0  0  0  0
   20.2350  -34.2460    3.9090 H   0  0  0  0  0  0  0  0  0  0  0  0
   20.0940  -31.1810    6.3240 H   0  0  0  0  0  0  0  0  0  0  0  0
  1  2  2  0
  2  3  1  0
  3  4  1  0
  4  5  1  0
  5  6  2  0
  6  7  1  0
  7  8  1  0
  8  9  1  0
  9 10  1  0
 10 11  1  0
 11 12  2  0
 12 13  1  0
 13 14  2  0
 14 15  1  0
 15 16  2  0
 16 17  1  0
 17 18  2  0
  9 19  1  0
 19 20  1  0
 19 21  1  0
 21 22  1  0
  2 23  1  0
 23 24  2  0
 24 25  1  0
 25 26  1  0
 26 27  2  0
 26 28  1  0
 25 29  2  0
 29 30  1  0
 30 31  1  0
 30 32  2  0
 32 33  1  0
 21  7  1  0
 32 23  1  0
 18 10  1  0
 18 13  1  0
  3 34  1  0
  4 35  1  0
  4 36  1  0
  5 37  1  0
  6 38  1  0
  7 39  1  1
  9 40  1  1
 11 41  1  0
 14 42  1  0
 16 43  1  0
 19 44  1  6
 20 45  1  0
 21 46  1  6
 22 47  1  0
 24 48  1  0
 29 49  1  0
 31 50  1  0
 33 51  1  0
M  CHG  2  26   1  28  -1
M  END
>  <meeko>  (8) 
{"is_sidechain": [false], "free_energy": -8.281, "intermolecular_energy": -12.139, "internal_energy": -0.931}

$$$$
3oe4_ligand
     RDKit          3D

 51 54  0  0  0  0  0  0  0  0999 V2000
   22.5970  -27.1430    7.9010 O   0  0  0  0  0  0  0  0  0  0  0  0
   22.7630  -28.2680    7.4410 C   0  0  0  0  0  0  0  0  0  0  0  0
   21.9530  -29.3310    7.7560 N   0  0  0  0  0  0  0  0  0  0  0  0
   20.7530  -29.1500    8.5250 C   0  0  0  0  0  0  0  0  0  0  0  0
   20.8610  -30.0040    9.7480 C   0  0  0  0  0  0  0  0  0  0  0  0
   19.9240  -30.0740   10.7100 C   0  0  0  0  0  0  0  0  0  0  0  0
   19.9810  -30.9130   11.9580 C   0  0  1  0  0  0  0  0  0  0  0  0
   20.4610  -32.2390   11.6740 O   0  0  0  0  0  0  0  0  0  0  0  0
   21.2450  -32.6810   12.8040 C   0  0  1  0  0  0  0  0  0  0  0  0
   22.5820  -33.0310   12.3680 N   0  0  0  0  0  0  0  0  0  0  0  0
   23.7810  -32.6390   12.8980 C   0  0  0  0  0  0  0  0  0  0  0  0
   24.8000  -33.1640   12.2480 N   0  0  0  0  0  0  0  0  0  0  0  0
   24.2340  -33.9170   11.2480 C   0  0  0  0  0  0  0  0  0  0  0  0
   24.7680  -34.7060   10.2360 C   0  0  0  0  0  0  0  0  0  0  0  0
   23.9300  -35.3500    9.3820 N   0  0  0  0  0  0  0  0  0  0  0  0
   22.6010  -35.1940    9.5600 C   0  0  0  0  0  0  0  0  0  0  0  0
   21.9640  -34.4630   10.5020 N   0  0  0  0  0  0  0  0  0  0  0  0
   22.8510  -33.8490   11.3050 C   0  0  0  0  0  0  0  0  0  0  0  0
   21.2310  -31.5640   13.8540 C   0  0  2  0  0  0  0  0  0  0  0  0
   20.1560  -31.7400   14.8000 O   0  0  0  0  0  0  0  0  0  0  0  0
   20.9300  -30.3370   13.0120 C   0  0  2  0  0  0  0  0  0  0  0  0
   20.3430  -29.2980   13.7880 O   0  0  0  0  0  0  0  0  0  0  0  0
   23.8880  -28.5240    6.4900 C   0  0  0  0  0  0  0  0  0  0  0  0
   24.1090  -29.8570    6.0980 C   0  0  0  0  0  0  0  0  0  0  0  0
   25.1490  -30.1680    5.2070 C   0  0  0  0  0  0  0  0  0  0  0  0
   25.3670  -31.5640    4.8030 N   0  0  0  0  0  0  0  0  0  0  0  0
   24.6450  -32.4330    5.3050 O   0  0  0  0  0  0  0  0  0  0  0  0
   26.2660  -31.7840    3.9790 O   0  0  0  0  0  0  0  0  0  0  0  0
   25.9840  -29.1680    4.6950 C   0  0  0  0  0  0  0  0  0  0  0  0
   25.7620  -27.8550    5.0900 C   0  0  0  0  0  0  0  0  0  0  0  0
   26.5410  -26.8260    4.6330 O   0  0  0  0  0  0  0  0  0  0  0  0
   24.7300  -27.5280    5.9770 C   0  0  0  0  0  0  0  0  0  0  0  0
   24.5920  -26.2060    6.3200 O   0  0  0  0  0  0  0  0  0  0  0  0
   22.0580  -30.1780    7.2030 H   0  0  0  0  0  0  0  0  0  0  0  0
   20.6495  -28.0937    8.8141 H   0  0  0  0  0  0  0  0  0  0  0  0
   19.8707  -29.4356    7.9335 H   0  0  0  0  0  0  0  0  0  0  0  0
   21.7673  -30.6156    9.8686 H   0  0  0  0  0  0  0  0  0  0  0  0
   19.0251  -29.4555   10.5706 H   0  0  0  0  0  0  0  0  0  0  0  0
   18.9492  -30.9265   12.3391 H   0  0  0  0  0  0  0  0  0  0  0  0
   20.8210  -33.5881   13.2594 H   0  0  0  0  0  0  0  0  0  0  0  0
   23.8821  -31.9665   13.7626 H   0  0  0  0  0  0  0  0  0  0  0  0
   25.8579  -34.8080   10.1275 H   0  0  0  0  0  0  0  0  0  0  0  0
   21.9548  -35.7293    8.8487 H   0  0  0  0  0  0  0  0  0  0  0  0
   22.1632  -31.5217   14.4365 H   0  0  0  0  0  0  0  0  0  0  0  0
   19.3360  -31.4610   14.3500 H   0  0  0  0  0  0  0  0  0  0  0  0
   21.8164  -29.8539   12.5750 H   0  0  0  0  0  0  0  0  0  0  0  0
   19.4710  -29.6430   14.0720 H   0  0  0  0  0  0  0  0  0  0  0  0
   23.4653  -30.6580    6.4906 H   0  0  0  0  0  0  0  0  0  0  0  0
   26.7967  -29.4161    3.9964 H   0  0  0  0  0  0  0  0  0  0  0  0
   25.9840  -26.0370    4.4990 H   0  0  0  0  0  0  0  0  0  0  0  0
   23.6860  -25.9620    6.0290 H   0  0  0  0  0  0  0  0  0  0  0  0
  1  2  2  0
  2  3  1  0
  3  4  1  0
  4  5  1  0
  5  6  2  0
  6  7  1  0
  7  8  1  0
  8  9  1  0
  9 10  1  0
 10 11  1  0
 11 12  2  0
 12 13  1  0
 13 14  2  0
 14 15  1  0
 15 16  2  0
 16 17  1  0
 17 18  2  0
  9 19  1  0
 19 20  1  0
 19 21  1  0
 21 22  1  0
  2 23  1  0
 23 24  2  0
 24 25  1  0
 25 26  1  0
 26 27  2  0
 26 28  1  0
 25 29  2  0
 29 30  1  0
 30 31  1  0
 30 32  2  0
 32 33  1  0
 21  7  1  0
 32 23  1  0
 18 10  1  0
 18 13  1  0
  3 34  1  0
  4 35  1  0
  4 36  1  0
  5 37  1  0
  6 38  1  0
  7 39  1  1
  9 40  1  1
 11 41  1  0
 14 42  1  0
 16 43  1  0
 19 44  1  1
 20 45  1  0
 21 46  1  6
 22 47  1  0
 24 48  1  0
 29 49  1  0
 31 50  1  0
 33 51  1  0
M  CHG  2  26   1  28  -1
M  END
>  <meeko>  (9) 
{"is_sidechain": [false], "free_energy": -8.184, "intermolecular_energy": -11.798, "internal_energy": -1.13}

$$$$
