5aba_ligand
     RDKit          3D

 48 50  0  0  0  0  0  0  0  0999 V2000
  111.8070   86.1100  -40.4640 O   0  0  0  0  0  0  0  0  0  0  0  0
  111.7230   86.6690  -41.7130 C   0  0  0  0  0  0  0  0  0  0  0  0
  111.8780   88.0490  -41.8930 C   0  0  0  0  0  0  0  0  0  0  0  0
  112.1930   89.1890  -40.4110 Br  0  0  0  0  0  0  0  0  0  0  0  0
  111.7980   88.6090  -43.1660 C   0  0  0  0  0  0  0  0  0  0  0  0
  111.5650   87.7800  -44.2580 C   0  0  0  0  0  0  0  0  0  0  0  0
  111.4530   88.4560  -45.8360 Cl  0  0  0  0  0  0  0  0  0  0  0  0
  111.4120   86.4020  -44.0890 C   0  0  0  0  0  0  0  0  0  0  0  0
  111.4860   85.8260  -42.8080 C   0  0  0  0  0  0  0  0  0  0  0  0
  111.3030   84.3340  -42.6410 C   0  0  0  0  0  0  0  0  0  0  0  0
  110.0850   83.9790  -41.8830 N   0  0  0  0  0  0  0  0  0  0  0  0
  108.8800   83.9840  -42.7220 C   0  0  0  0  0  0  0  0  0  0  0  0
  107.6870   83.3020  -42.0330 C   0  0  0  0  0  0  0  0  0  0  0  0
  107.8860   83.3330  -40.5220 C   0  0  0  0  0  0  0  0  0  0  0  0
  106.6770   82.7970  -39.7470 N   0  0  1  0  0  0  0  0  0  0  0  0
  105.9730   81.6770  -40.4890 C   0  0  0  0  0  0  0  0  0  0  0  0
  104.6500   81.3700  -39.8080 C   0  0  0  0  0  0  0  0  0  0  0  0
  104.8390   81.0400  -38.3340 C   0  0  2  0  0  0  0  0  0  0  0  0
  103.5690   80.9280  -37.7100 O   0  0  0  0  0  0  0  0  0  0  0  0
  105.6150   82.1370  -37.6160 C   0  0  0  0  0  0  0  0  0  0  0  0
  106.9360   82.4220  -38.3030 C   0  0  0  0  0  0  0  0  0  0  0  0
  109.1570   82.5750  -40.1120 C   0  0  0  0  0  0  0  0  0  0  0  0
  110.2570   82.7140  -41.1730 C   0  0  0  0  0  0  0  0  0  0  0  0
  110.8970   85.9750  -40.1420 H   0  0  0  0  0  0  0  0  0  0  0  0
  111.9176   89.6935  -43.3057 H   0  0  0  0  0  0  0  0  0  0  0  0
  111.2321   85.7618  -44.9652 H   0  0  0  0  0  0  0  0  0  0  0  0
  111.2400   83.8755  -43.6389 H   0  0  0  0  0  0  0  0  0  0  0  0
  112.1651   83.9605  -42.0688 H   0  0  0  0  0  0  0  0  0  0  0  0
  108.6100   85.0263  -42.9472 H   0  0  0  0  0  0  0  0  0  0  0  0
  109.1061   83.4206  -43.6393 H   0  0  0  0  0  0  0  0  0  0  0  0
  106.7604   83.8354  -42.2917 H   0  0  0  0  0  0  0  0  0  0  0  0
  107.6163   82.2579  -42.3718 H   0  0  0  0  0  0  0  0  0  0  0  0
  107.9985   84.3938  -40.2534 H   0  0  0  0  0  0  0  0  0  0  0  0
  106.0090   83.5820  -39.7320 H   0  0  0  0  0  0  0  0  0  0  0  0
  105.7872   81.9860  -41.5282 H   0  0  0  0  0  0  0  0  0  0  0  0
  106.6063   80.7777  -40.4809 H   0  0  0  0  0  0  0  0  0  0  0  0
  103.9920   82.2472  -39.8955 H   0  0  0  0  0  0  0  0  0  0  0  0
  104.2055   80.4932  -40.3016 H   0  0  0  0  0  0  0  0  0  0  0  0
  105.3998   80.0958  -38.2708 H   0  0  0  0  0  0  0  0  0  0  0  0
  102.9370   80.5280  -38.3350 H   0  0  0  0  0  0  0  0  0  0  0  0
  105.0105   83.0560  -37.6078 H   0  0  0  0  0  0  0  0  0  0  0  0
  105.8246   81.7978  -36.5908 H   0  0  0  0  0  0  0  0  0  0  0  0
  107.4440   83.2535  -37.7926 H   0  0  0  0  0  0  0  0  0  0  0  0
  107.5735   81.5265  -38.2630 H   0  0  0  0  0  0  0  0  0  0  0  0
  109.5252   82.9824  -39.1589 H   0  0  0  0  0  0  0  0  0  0  0  0
  108.9070   81.5087  -40.0094 H   0  0  0  0  0  0  0  0  0  0  0  0
  111.2427   82.6975  -40.6849 H   0  0  0  0  0  0  0  0  0  0  0  0
  110.1895   81.8789  -41.8858 H   0  0  0  0  0  0  0  0  0  0  0  0
  1  2  1  0
  2  3  2  0
  3  4  1  0
  3  5  1  0
  5  6  2  0
  6  7  1  0
  6  8  1  0
  8  9  2  0
  9 10  1  0
 10 11  1  0
 11 12  1  0
 12 13  1  0
 13 14  1  0
 14 15  1  0
 15 16  1  0
 16 17  1  0
 17 18  1  0
 18 19  1  0
 18 20  1  0
 20 21  1  0
 14 22  1  0
 22 23  1  0
  9  2  1  0
 23 11  1  0
 21 15  1  0
  1 24  1  0
  5 25  1  0
  8 26  1  0
 10 27  1  0
 10 28  1  0
 12 29  1  0
 12 30  1  0
 13 31  1  0
 13 32  1  0
 14 33  1  0
 15 34  1  1
 16 35  1  0
 16 36  1  0
 17 37  1  0
 17 38  1  0
 18 39  1  6
 19 40  1  0
 20 41  1  0
 20 42  1  0
 21 43  1  0
 21 44  1  0
 22 45  1  0
 22 46  1  0
 23 47  1  0
 23 48  1  0
M  CHG  1  15   1
M  END
>  <meeko>  (1) 
{"is_sidechain": [false], "free_energy": -5.427, "intermolecular_energy": -6.697, "internal_energy": -0.857}

$$$$
5aba_ligand
     RDKit          3D

 48 50  0  0  0  0  0  0  0  0999 V2000
  108.5090   84.3180  -47.1760 O   0  0  0  0  0  0  0  0  0  0  0  0
  109.2230   85.3050  -46.5470 C   0  0  0  0  0  0  0  0  0  0  0  0
  109.2490   86.6080  -47.0580 C   0  0  0  0  0  0  0  0  0  0  0  0
  108.3090   87.0440  -48.6460 Br  0  0  0  0  0  0  0  0  0  0  0  0
  109.9720   87.6070  -46.4090 C   0  0  0  0  0  0  0  0  0  0  0  0
  110.6660   87.2950  -45.2450 C   0  0  0  0  0  0  0  0  0  0  0  0
  111.5720   88.5140  -44.4370 Cl  0  0  0  0  0  0  0  0  0  0  0  0
  110.6430   85.9980  -44.7260 C   0  0  0  0  0  0  0  0  0  0  0  0
  109.9220   84.9810  -45.3750 C   0  0  0  0  0  0  0  0  0  0  0  0
  109.9210   83.5780  -44.8080 C   0  0  0  0  0  0  0  0  0  0  0  0
  109.0640   83.4350  -43.6130 N   0  0  0  0  0  0  0  0  0  0  0  0
  107.7280   82.9190  -43.9390 C   0  0  0  0  0  0  0  0  0  0  0  0
  106.9610   82.4580  -42.6900 C   0  0  0  0  0  0  0  0  0  0  0  0
  107.5150   83.1700  -41.4600 C   0  0  0  0  0  0  0  0  0  0  0  0
  106.7160   82.8730  -40.1850 N   0  0  1  0  0  0  0  0  0  0  0  0
  105.8460   81.6390  -40.3300 C   0  0  0  0  0  0  0  0  0  0  0  0
  104.8940   81.5480  -39.1490 C   0  0  0  0  0  0  0  0  0  0  0  0
  105.6410   81.5620  -37.8210 C   0  0  2  0  0  0  0  0  0  0  0  0
  104.7060   81.6460  -36.7570 O   0  0  0  0  0  0  0  0  0  0  0  0
  106.5680   82.7670  -37.7210 C   0  0  0  0  0  0  0  0  0  0  0  0
  107.5180   82.8350  -38.9020 C   0  0  0  0  0  0  0  0  0  0  0  0
  108.9980   82.8360  -41.2460 C   0  0  0  0  0  0  0  0  0  0  0  0
  109.7250   82.6400  -42.5820 C   0  0  0  0  0  0  0  0  0  0  0  0
  108.7010   83.4790  -46.7170 H   0  0  0  0  0  0  0  0  0  0  0  0
  109.9935   88.6301  -46.8126 H   0  0  0  0  0  0  0  0  0  0  0  0
  111.1940   85.7709  -43.8014 H   0  0  0  0  0  0  0  0  0  0  0  0
  109.5579   82.8875  -45.5835 H   0  0  0  0  0  0  0  0  0  0  0  0
  110.9520   83.3483  -44.5009 H   0  0  0  0  0  0  0  0  0  0  0  0
  107.1523   83.7149  -44.4341 H   0  0  0  0  0  0  0  0  0  0  0  0
  107.8551   82.0469  -44.5972 H   0  0  0  0  0  0  0  0  0  0  0  0
  105.8943   82.7009  -42.8046 H   0  0  0  0  0  0  0  0  0  0  0  0
  107.0791   81.3712  -42.5682 H   0  0  0  0  0  0  0  0  0  0  0  0
  107.4146   84.2467  -41.6616 H   0  0  0  0  0  0  0  0  0  0  0  0
  106.0600   83.6650  -40.1000 H   0  0  0  0  0  0  0  0  0  0  0  0
  105.2672   81.7061  -41.2630 H   0  0  0  0  0  0  0  0  0  0  0  0
  106.4831   80.7427  -40.3570 H   0  0  0  0  0  0  0  0  0  0  0  0
  104.2050   82.4049  -39.1796 H   0  0  0  0  0  0  0  0  0  0  0  0
  104.3447   80.5979  -39.2236 H   0  0  0  0  0  0  0  0  0  0  0  0
  106.2350   80.6382  -37.7594 H   0  0  0  0  0  0  0  0  0  0  0  0
  105.1860   81.6930  -35.9100 H   0  0  0  0  0  0  0  0  0  0  0  0
  105.9612   83.6842  -37.6967 H   0  0  0  0  0  0  0  0  0  0  0  0
  107.1648   82.6690  -36.8022 H   0  0  0  0  0  0  0  0  0  0  0  0
  108.1343   83.7430  -38.8265 H   0  0  0  0  0  0  0  0  0  0  0  0
  108.1720   81.9505  -38.9013 H   0  0  0  0  0  0  0  0  0  0  0  0
  109.4751   83.6608  -40.6964 H   0  0  0  0  0  0  0  0  0  0  0  0
  109.0631   81.8980  -40.6752 H   0  0  0  0  0  0  0  0  0  0  0  0
  110.7712   82.9649  -42.4820 H   0  0  0  0  0  0  0  0  0  0  0  0
  109.6983   81.5769  -42.8632 H   0  0  0  0  0  0  0  0  0  0  0  0
  1  2  1  0
  2  3  2  0
  3  4  1  0
  3  5  1  0
  5  6  2  0
  6  7  1  0
  6  8  1  0
  8  9  2  0
  9 10  1  0
 10 11  1  0
 11 12  1  0
 12 13  1  0
 13 14  1  0
 14 15  1  0
 15 16  1  0
 16 17  1  0
 17 18  1  0
 18 19  1  0
 18 20  1  0
 20 21  1  0
 14 22  1  0
 22 23  1  0
  9  2  1  0
 23 11  1  0
 21 15  1  0
  1 24  1  0
  5 25  1  0
  8 26  1  0
 10 27  1  0
 10 28  1  0
 12 29  1  0
 12 30  1  0
 13 31  1  0
 13 32  1  0
 14 33  1  0
 15 34  1  1
 16 35  1  0
 16 36  1  0
 17 37  1  0
 17 38  1  0
 18 39  1  1
 19 40  1  0
 20 41  1  0
 20 42  1  0
 21 43  1  0
 21 44  1  0
 22 45  1  0
 22 46  1  0
 23 47  1  0
 23 48  1  0
M  CHG  1  15   1
M  END
>  <meeko>  (2) 
{"is_sidechain": [false], "free_energy": -5.341, "intermolecular_energy": -6.772, "internal_energy": -0.674}

$$$$
5aba_ligand
     RDKit          3D

 48 50  0  0  0  0  0  0  0  0999 V2000
  105.7080   80.7810  -43.7320 O   0  0  0  0  0  0  0  0  0  0  0  0
  105.5020   80.7780  -42.3760 C   0  0  0  0  0  0  0  0  0  0  0  0
  105.2350   81.9680  -41.6890 C   0  0  0  0  0  0  0  0  0  0  0  0
  105.1670   83.6230  -42.6100 Br  0  0  0  0  0  0  0  0  0  0  0  0
  105.0200   81.9550  -40.3120 C   0  0  0  0  0  0  0  0  0  0  0  0
  105.0710   80.7440  -39.6290 C   0  0  0  0  0  0  0  0  0  0  0  0
  104.8180   80.7120  -37.9280 Cl  0  0  0  0  0  0  0  0  0  0  0  0
  105.3340   79.5520  -40.3080 C   0  0  0  0  0  0  0  0  0  0  0  0
  105.5580   79.5540  -41.6950 C   0  0  0  0  0  0  0  0  0  0  0  0
  105.8560   78.2550  -42.4110 C   0  0  0  0  0  0  0  0  0  0  0  0
  105.0500   78.0670  -43.6360 N   0  0  0  0  0  0  0  0  0  0  0  0
  105.5610   76.9810  -44.4820 C   0  0  0  0  0  0  0  0  0  0  0  0
  104.5540   76.5650  -45.5660 C   0  0  0  0  0  0  0  0  0  0  0  0
  103.5970   77.7200  -45.8430 C   0  0  0  0  0  0  0  0  0  0  0  0
  102.6440   77.4420  -47.0110 N   0  0  1  0  0  0  0  0  0  0  0  0
  102.9270   76.1080  -47.6750 C   0  0  0  0  0  0  0  0  0  0  0  0
  102.1380   76.0070  -48.9690 C   0  0  0  0  0  0  0  0  0  0  0  0
  100.6470   76.2190  -48.7370 C   0  0  2  0  0  0  0  0  0  0  0  0
   99.9810   76.2840  -49.9890 O   0  0  0  0  0  0  0  0  0  0  0  0
  100.3820   77.5260  -48.0010 C   0  0  0  0  0  0  0  0  0  0  0  0
  101.1700   77.6040  -46.7070 C   0  0  0  0  0  0  0  0  0  0  0  0
  102.8000   78.0950  -44.5850 C   0  0  0  0  0  0  0  0  0  0  0  0
  103.6360   77.8970  -43.3140 C   0  0  0  0  0  0  0  0  0  0  0  0
  105.3230   81.6040  -44.0850 H   0  0  0  0  0  0  0  0  0  0  0  0
  104.8126   82.8906  -39.7719 H   0  0  0  0  0  0  0  0  0  0  0  0
  105.3660   78.6034  -39.7519 H   0  0  0  0  0  0  0  0  0  0  0  0
  106.9205   78.2447  -42.6879 H   0  0  0  0  0  0  0  0  0  0  0  0
  105.6002   77.4361  -41.7225 H   0  0  0  0  0  0  0  0  0  0  0  0
  106.4873   77.3183  -44.9700 H   0  0  0  0  0  0  0  0  0  0  0  0
  105.7423   76.1083  -43.8374 H   0  0  0  0  0  0  0  0  0  0  0  0
  105.0945   76.3076  -46.4888 H   0  0  0  0  0  0  0  0  0  0  0  0
  103.9827   75.6913  -45.2191 H   0  0  0  0  0  0  0  0  0  0  0  0
  104.2272   78.5726  -46.1362 H   0  0  0  0  0  0  0  0  0  0  0  0
  102.8810   78.1570  -47.7150 H   0  0  0  0  0  0  0  0  0  0  0  0
  104.0020   76.0287  -47.8943 H   0  0  0  0  0  0  0  0  0  0  0  0
  102.6285   75.2925  -46.9998 H   0  0  0  0  0  0  0  0  0  0  0  0
  102.5024   76.7728  -49.6696 H   0  0  0  0  0  0  0  0  0  0  0  0
  102.2812   74.9969  -49.3804 H   0  0  0  0  0  0  0  0  0  0  0  0
  100.2782   75.3782  -48.1312 H   0  0  0  0  0  0  0  0  0  0  0  0
   99.3890   75.5150  -50.0780 H   0  0  0  0  0  0  0  0  0  0  0  0
  100.6733   78.3663  -48.6483 H   0  0  0  0  0  0  0  0  0  0  0  0
   99.3106   77.5738  -47.7565 H   0  0  0  0  0  0  0  0  0  0  0  0
  100.9979   78.5800  -46.2298 H   0  0  0  0  0  0  0  0  0  0  0  0
  100.8430   76.8040  -46.0265 H   0  0  0  0  0  0  0  0  0  0  0  0
  102.4978   79.1504  -44.6540 H   0  0  0  0  0  0  0  0  0  0  0  0
  101.9183   77.4400  -44.5253 H   0  0  0  0  0  0  0  0  0  0  0  0
  103.3390   78.6400  -42.5592 H   0  0  0  0  0  0  0  0  0  0  0  0
  103.4675   76.8856  -42.9155 H   0  0  0  0  0  0  0  0  0  0  0  0
  1  2  1  0
  2  3  2  0
  3  4  1  0
  3  5  1  0
  5  6  2  0
  6  7  1  0
  6  8  1  0
  8  9  2  0
  9 10  1  0
 10 11  1  0
 11 12  1  0
 12 13  1  0
 13 14  1  0
 14 15  1  0
 15 16  1  0
 16 17  1  0
 17 18  1  0
 18 19  1  0
 18 20  1  0
 20 21  1  0
 14 22  1  0
 22 23  1  0
  9  2  1  0
 23 11  1  0
 21 15  1  0
  1 24  1  0
  5 25  1  0
  8 26  1  0
 10 27  1  0
 10 28  1  0
 12 29  1  0
 12 30  1  0
 13 31  1  0
 13 32  1  0
 14 33  1  0
 15 34  1  6
 16 35  1  0
 16 36  1  0
 17 37  1  0
 17 38  1  0
 18 39  1  1
 19 40  1  0
 20 41  1  0
 20 42  1  0
 21 43  1  0
 21 44  1  0
 22 45  1  0
 22 46  1  0
 23 47  1  0
 23 48  1  0
M  CHG  1  15   1
M  END
>  <meeko>  (3) 
{"is_sidechain": [false], "free_energy": -5.281, "intermolecular_energy": -6.52, "internal_energy": -0.853}

$$$$
5aba_ligand
     RDKit          3D

 48 50  0  0  0  0  0  0  0  0999 V2000
  103.8380   81.0030  -40.3770 O   0  0  0  0  0  0  0  0  0  0  0  0
  105.1250   81.4350  -40.1830 C   0  0  0  0  0  0  0  0  0  0  0  0
  105.5670   81.8250  -38.9130 C   0  0  0  0  0  0  0  0  0  0  0  0
  104.3940   81.7820  -37.4250 Br  0  0  0  0  0  0  0  0  0  0  0  0
  106.8790   82.2560  -38.7240 C   0  0  0  0  0  0  0  0  0  0  0  0
  107.7440   82.2920  -39.8120 C   0  0  0  0  0  0  0  0  0  0  0  0
  109.3640   82.8310  -39.5980 Cl  0  0  0  0  0  0  0  0  0  0  0  0
  107.3120   81.9020  -41.0820 C   0  0  0  0  0  0  0  0  0  0  0  0
  105.9900   81.4700  -41.2860 C   0  0  0  0  0  0  0  0  0  0  0  0
  105.5350   81.0660  -42.6710 C   0  0  0  0  0  0  0  0  0  0  0  0
  105.5170   79.6020  -42.8740 N   0  0  0  0  0  0  0  0  0  0  0  0
  104.3380   79.1540  -43.6250 C   0  0  0  0  0  0  0  0  0  0  0  0
  104.4800   77.7070  -44.1220 C   0  0  0  0  0  0  0  0  0  0  0  0
  105.4830   76.9630  -43.2460 C   0  0  0  0  0  0  0  0  0  0  0  0
  105.5840   75.4710  -43.5840 N   0  0  1  0  0  0  0  0  0  0  0  0
  104.2750   74.9150  -44.1110 C   0  0  0  0  0  0  0  0  0  0  0  0
  104.3580   73.4000  -44.1780 C   0  0  0  0  0  0  0  0  0  0  0  0
  105.5460   72.9370  -45.0120 C   0  0  2  0  0  0  0  0  0  0  0  0
  105.6770   71.5280  -44.9030 O   0  0  0  0  0  0  0  0  0  0  0  0
  106.8450   73.5640  -44.5200 C   0  0  0  0  0  0  0  0  0  0  0  0
  106.7460   75.0760  -44.4700 C   0  0  0  0  0  0  0  0  0  0  0  0
  106.8710   77.6170  -43.3130 C   0  0  0  0  0  0  0  0  0  0  0  0
  106.7640   79.1390  -43.4760 C   0  0  0  0  0  0  0  0  0  0  0  0
  103.5470   81.3300  -41.2480 H   0  0  0  0  0  0  0  0  0  0  0  0
  107.2258   82.5638  -37.7265 H   0  0  0  0  0  0  0  0  0  0  0  0
  108.0124   81.9332  -41.9296 H   0  0  0  0  0  0  0  0  0  0  0  0
  104.5183   81.4538  -42.8320 H   0  0  0  0  0  0  0  0  0  0  0  0
  106.2559   81.4865  -43.3876 H   0  0  0  0  0  0  0  0  0  0  0  0
  103.4560   79.2186  -42.9708 H   0  0  0  0  0  0  0  0  0  0  0  0
  104.2324   79.8042  -44.5060 H   0  0  0  0  0  0  0  0  0  0  0  0
  103.5033   77.2039  -44.0690 H   0  0  0  0  0  0  0  0  0  0  0  0
  104.8353   77.7108  -45.1630 H   0  0  0  0  0  0  0  0  0  0  0  0
  105.1001   77.0361  -42.2174 H   0  0  0  0  0  0  0  0  0  0  0  0
  105.7350   75.0090  -42.6750 H   0  0  0  0  0  0  0  0  0  0  0  0
  103.4552   75.2078  -43.4385 H   0  0  0  0  0  0  0  0  0  0  0  0
  104.0852   75.3164  -45.1174 H   0  0  0  0  0  0  0  0  0  0  0  0
  104.4627   73.0033  -43.1574 H   0  0  0  0  0  0  0  0  0  0  0  0
  103.4390   73.0270  -44.6536 H   0  0  0  0  0  0  0  0  0  0  0  0
  105.3647   73.2420  -46.0532 H   0  0  0  0  0  0  0  0  0  0  0  0
  104.7940   71.1300  -44.7890 H   0  0  0  0  0  0  0  0  0  0  0  0
  107.0647   73.1863  -43.5105 H   0  0  0  0  0  0  0  0  0  0  0  0
  107.6475   73.2929  -45.2218 H   0  0  0  0  0  0  0  0  0  0  0  0
  107.6784   75.4922  -44.0608 H   0  0  0  0  0  0  0  0  0  0  0  0
  106.5865   75.4691  -45.4849 H   0  0  0  0  0  0  0  0  0  0  0  0
  107.4173   77.3938  -42.3847 H   0  0  0  0  0  0  0  0  0  0  0  0
  107.4037   77.2114  -44.1858 H   0  0  0  0  0  0  0  0  0  0  0  0
  107.6156   79.6230  -42.9755 H   0  0  0  0  0  0  0  0  0  0  0  0
  106.7751   79.3969  -44.5453 H   0  0  0  0  0  0  0  0  0  0  0  0
  1  2  1  0
  2  3  2  0
  3  4  1  0
  3  5  1  0
  5  6  2  0
  6  7  1  0
  6  8  1  0
  8  9  2  0
  9 10  1  0
 10 11  1  0
 11 12  1  0
 12 13  1  0
 13 14  1  0
 14 15  1  0
 15 16  1  0
 16 17  1  0
 17 18  1  0
 18 19  1  0
 18 20  1  0
 20 21  1  0
 14 22  1  0
 22 23  1  0
  9  2  1  0
 23 11  1  0
 21 15  1  0
  1 24  1  0
  5 25  1  0
  8 26  1  0
 10 27  1  0
 10 28  1  0
 12 29  1  0
 12 30  1  0
 13 31  1  0
 13 32  1  0
 14 33  1  0
 15 34  1  1
 16 35  1  0
 16 36  1  0
 17 37  1  0
 17 38  1  0
 18 39  1  6
 19 40  1  0
 20 41  1  0
 20 42  1  0
 21 43  1  0
 21 44  1  0
 22 45  1  0
 22 46  1  0
 23 47  1  0
 23 48  1  0
M  CHG  1  15   1
M  END
>  <meeko>  (4) 
{"is_sidechain": [false], "free_energy": -5.248, "intermolecular_energy": -6.535, "internal_energy": -0.796}

$$$$
5aba_ligand
     RDKit          3D

 48 50  0  0  0  0  0  0  0  0999 V2000
  111.3040   87.0240  -41.3710 O   0  0  0  0  0  0  0  0  0  0  0  0
  112.3360   86.3700  -40.7480 C   0  0  0  0  0  0  0  0  0  0  0  0
  113.2040   87.0550  -39.8890 C   0  0  0  0  0  0  0  0  0  0  0  0
  112.9890   88.9130  -39.5750 Br  0  0  0  0  0  0  0  0  0  0  0  0
  114.2460   86.3830  -39.2540 C   0  0  0  0  0  0  0  0  0  0  0  0
  114.4110   85.0200  -39.4810 C   0  0  0  0  0  0  0  0  0  0  0  0
  115.6990   84.1760  -38.7130 Cl  0  0  0  0  0  0  0  0  0  0  0  0
  113.5480   84.3280  -40.3340 C   0  0  0  0  0  0  0  0  0  0  0  0
  112.4970   84.9980  -40.9840 C   0  0  0  0  0  0  0  0  0  0  0  0
  111.5810   84.2350  -41.9160 C   0  0  0  0  0  0  0  0  0  0  0  0
  110.2870   83.8790  -41.2980 N   0  0  0  0  0  0  0  0  0  0  0  0
  109.1910   83.8370  -42.2740 C   0  0  0  0  0  0  0  0  0  0  0  0
  107.9360   83.1540  -41.7110 C   0  0  0  0  0  0  0  0  0  0  0  0
  107.9520   83.2320  -40.1880 C   0  0  0  0  0  0  0  0  0  0  0  0
  106.6670   82.6950  -39.5460 N   0  0  1  0  0  0  0  0  0  0  0  0
  106.0510   81.5700  -40.3550 C   0  0  0  0  0  0  0  0  0  0  0  0
  104.6630   81.2620  -39.8210 C   0  0  0  0  0  0  0  0  0  0  0  0
  104.6910   80.9390  -38.3330 C   0  0  2  0  0  0  0  0  0  0  0  0
  103.3610   80.8260  -37.8500 O   0  0  0  0  0  0  0  0  0  0  0  0
  105.3820   82.0420  -37.5400 C   0  0  0  0  0  0  0  0  0  0  0  0
  106.7690   82.3280  -38.0810 C   0  0  0  0  0  0  0  0  0  0  0  0
  109.1770   82.5100  -39.6070 C   0  0  0  0  0  0  0  0  0  0  0  0
  110.3930   82.6390  -40.5340 C   0  0  0  0  0  0  0  0  0  0  0  0
  111.3780   87.9690  -41.1470 H   0  0  0  0  0  0  0  0  0  0  0  0
  114.9294   86.9227  -38.5820 H   0  0  0  0  0  0  0  0  0  0  0  0
  113.6920   83.2499  -40.4984 H   0  0  0  0  0  0  0  0  0  0  0  0
  111.3859   84.8576  -42.8016 H   0  0  0  0  0  0  0  0  0  0  0  0
  112.0889   83.2945  -42.1758 H   0  0  0  0  0  0  0  0  0  0  0  0
  108.9342   84.8670  -42.5622 H   0  0  0  0  0  0  0  0  0  0  0  0
  109.5334   83.2514  -43.1399 H   0  0  0  0  0  0  0  0  0  0  0  0
  107.0391   83.6625  -42.0944 H   0  0  0  0  0  0  0  0  0  0  0  0
  107.9224   82.0993  -42.0231 H   0  0  0  0  0  0  0  0  0  0  0  0
  108.0145   84.3019  -39.9403 H   0  0  0  0  0  0  0  0  0  0  0  0
  105.9990   83.4790  -39.6080 H   0  0  0  0  0  0  0  0  0  0  0  0
  105.9787   81.8740  -41.4097 H   0  0  0  0  0  0  0  0  0  0  0  0
  106.6820   80.6726  -40.2739 H   0  0  0  0  0  0  0  0  0  0  0  0
  104.0162   82.1367  -39.9838 H   0  0  0  0  0  0  0  0  0  0  0  0
  104.2773   80.3816  -40.3559 H   0  0  0  0  0  0  0  0  0  0  0  0
  105.2436   79.9965  -38.2047 H   0  0  0  0  0  0  0  0  0  0  0  0
  102.8250   80.3320  -38.4960 H   0  0  0  0  0  0  0  0  0  0  0  0
  104.7778   82.9592  -37.6018 H   0  0  0  0  0  0  0  0  0  0  0  0
  105.4801   81.7080  -36.4965 H   0  0  0  0  0  0  0  0  0  0  0  0
  107.2163   83.1637  -37.5228 H   0  0  0  0  0  0  0  0  0  0  0  0
  107.4010   81.4349  -37.9673 H   0  0  0  0  0  0  0  0  0  0  0  0
  109.4230   82.9516  -38.6300 H   0  0  0  0  0  0  0  0  0  0  0  0
  108.9328   81.4426  -39.5018 H   0  0  0  0  0  0  0  0  0  0  0  0
  111.3138   82.6555  -39.9324 H   0  0  0  0  0  0  0  0  0  0  0  0
  110.4237   81.7824  -41.2235 H   0  0  0  0  0  0  0  0  0  0  0  0
  1  2  1  0
  2  3  2  0
  3  4  1  0
  3  5  1  0
  5  6  2  0
  6  7  1  0
  6  8  1  0
  8  9  2  0
  9 10  1  0
 10 11  1  0
 11 12  1  0
 12 13  1  0
 13 14  1  0
 14 15  1  0
 15 16  1  0
 16 17  1  0
 17 18  1  0
 18 19  1  0
 18 20  1  0
 20 21  1  0
 14 22  1  0
 22 23  1  0
  9  2  1  0
 23 11  1  0
 21 15  1  0
  1 24  1  0
  5 25  1  0
  8 26  1  0
 10 27  1  0
 10 28  1  0
 12 29  1  0
 12 30  1  0
 13 31  1  0
 13 32  1  0
 14 33  1  0
 15 34  1  1
 16 35  1  0
 16 36  1  0
 17 37  1  0
 17 38  1  0
 18 39  1  6
 19 40  1  0
 20 41  1  0
 20 42  1  0
 21 43  1  0
 21 44  1  0
 22 45  1  0
 22 46  1  0
 23 47  1  0
 23 48  1  0
M  CHG  1  15   1
M  END
>  <meeko>  (5) 
{"is_sidechain": [false], "free_energy": -5.223, "intermolecular_energy": -6.538, "internal_energy": -0.763}

$$$$
5aba_ligand
     RDKit          3D

 48 50  0  0  0  0  0  0  0  0999 V2000
  107.2810   80.6240  -42.0480 O   0  0  0  0  0  0  0  0  0  0  0  0
  106.8390   80.8610  -40.7720 C   0  0  0  0  0  0  0  0  0  0  0  0
  106.6330   82.1690  -40.3160 C   0  0  0  0  0  0  0  0  0  0  0  0
  106.9750   83.6530  -41.4460 Br  0  0  0  0  0  0  0  0  0  0  0  0
  106.1770   82.4020  -39.0210 C   0  0  0  0  0  0  0  0  0  0  0  0
  105.9260   81.3180  -38.1850 C   0  0  0  0  0  0  0  0  0  0  0  0
  105.3730   81.5880  -36.5790 Cl  0  0  0  0  0  0  0  0  0  0  0  0
  106.1260   80.0100  -38.6330 C   0  0  0  0  0  0  0  0  0  0  0  0
  106.5910   79.7640  -39.9360 C   0  0  0  0  0  0  0  0  0  0  0  0
  106.8170   78.3410  -40.3990 C   0  0  0  0  0  0  0  0  0  0  0  0
  105.8740   77.9160  -41.4550 N   0  0  0  0  0  0  0  0  0  0  0  0
  106.5110   77.0610  -42.4650 C   0  0  0  0  0  0  0  0  0  0  0  0
  105.4830   76.3550  -43.3620 C   0  0  0  0  0  0  0  0  0  0  0  0
  104.1770   77.1430  -43.3590 C   0  0  0  0  0  0  0  0  0  0  0  0
  103.1380   76.5850  -44.3380 N   0  0  1  0  0  0  0  0  0  0  0  0
  102.8030   77.5710  -45.4410 C   0  0  0  0  0  0  0  0  0  0  0  0
  101.5950   77.0750  -46.2160 C   0  0  0  0  0  0  0  0  0  0  0  0
  101.8130   75.6700  -46.7610 C   0  0  2  0  0  0  0  0  0  0  0  0
  100.6020   75.1910  -47.3260 O   0  0  0  0  0  0  0  0  0  0  0  0
  102.2230   74.7050  -45.6550 C   0  0  0  0  0  0  0  0  0  0  0  0
  103.4370   75.2110  -44.9000 C   0  0  0  0  0  0  0  0  0  0  0  0
  103.5820   77.2290  -41.9460 C   0  0  0  0  0  0  0  0  0  0  0  0
  104.6830   77.2970  -40.8800 C   0  0  0  0  0  0  0  0  0  0  0  0
  107.5960   81.4720  -42.4120 H   0  0  0  0  0  0  0  0  0  0  0  0
  106.0172   83.4299  -38.6633 H   0  0  0  0  0  0  0  0  0  0  0  0
  105.9177   79.1653  -37.9599 H   0  0  0  0  0  0  0  0  0  0  0  0
  107.8414   78.2595  -40.7914 H   0  0  0  0  0  0  0  0  0  0  0  0
  106.6538   77.6849  -39.5313 H   0  0  0  0  0  0  0  0  0  0  0  0
  107.1626   77.6836  -43.0957 H   0  0  0  0  0  0  0  0  0  0  0  0
  107.0856   76.2860  -41.9365 H   0  0  0  0  0  0  0  0  0  0  0  0
  105.8726   76.2954  -44.3890 H   0  0  0  0  0  0  0  0  0  0  0  0
  105.2991   75.3403  -42.9793 H   0  0  0  0  0  0  0  0  0  0  0  0
  104.4339   78.1560  -43.7023 H   0  0  0  0  0  0  0  0  0  0  0  0
  102.2770   76.4930  -43.7780 H   0  0  0  0  0  0  0  0  0  0  0  0
  102.5768   78.5525  -44.9988 H   0  0  0  0  0  0  0  0  0  0  0  0
  103.6618   77.6639  -46.1221 H   0  0  0  0  0  0  0  0  0  0  0  0
  100.7216   77.0664  -45.5474 H   0  0  0  0  0  0  0  0  0  0  0  0
  101.4329   77.7517  -47.0679 H   0  0  0  0  0  0  0  0  0  0  0  0
  102.6124   75.7227  -47.5147 H   0  0  0  0  0  0  0  0  0  0  0  0
  100.2420   74.4820  -46.7620 H   0  0  0  0  0  0  0  0  0  0  0  0
  101.3856   74.5913  -44.9509 H   0  0  0  0  0  0  0  0  0  0  0  0
  102.4799   73.7398  -46.1158 H   0  0  0  0  0  0  0  0  0  0  0  0
  103.6724   74.5203  -44.0769 H   0  0  0  0  0  0  0  0  0  0  0  0
  104.2977   75.2706  -45.5824 H   0  0  0  0  0  0  0  0  0  0  0  0
  102.9579   78.1320  -41.8745 H   0  0  0  0  0  0  0  0  0  0  0  0
  102.9812   76.3251  -41.7670 H   0  0  0  0  0  0  0  0  0  0  0  0
  104.3323   77.8970  -40.0273 H   0  0  0  0  0  0  0  0  0  0  0  0
  104.9256   76.2809  -40.5356 H   0  0  0  0  0  0  0  0  0  0  0  0
  1  2  1  0
  2  3  2  0
  3  4  1  0
  3  5  1  0
  5  6  2  0
  6  7  1  0
  6  8  1  0
  8  9  2  0
  9 10  1  0
 10 11  1  0
 11 12  1  0
 12 13  1  0
 13 14  1  0
 14 15  1  0
 15 16  1  0
 16 17  1  0
 17 18  1  0
 18 19  1  0
 18 20  1  0
 20 21  1  0
 14 22  1  0
 22 23  1  0
  9  2  1  0
 23 11  1  0
 21 15  1  0
  1 24  1  0
  5 25  1  0
  8 26  1  0
 10 27  1  0
 10 28  1  0
 12 29  1  0
 12 30  1  0
 13 31  1  0
 13 32  1  0
 14 33  1  0
 15 34  1  1
 16 35  1  0
 16 36  1  0
 17 37  1  0
 17 38  1  0
 18 39  1  6
 19 40  1  0
 20 41  1  0
 20 42  1  0
 21 43  1  0
 21 44  1  0
 22 45  1  0
 22 46  1  0
 23 47  1  0
 23 48  1  0
M  CHG  1  15   1
M  END
>  <meeko>  (6) 
{"is_sidechain": [false], "free_energy": -5.222, "intermolecular_energy": -6.456, "internal_energy": -0.844}

$$$$
5aba_ligand
     RDKit          3D

 48 50  0  0  0  0  0  0  0  0999 V2000
  111.0130   85.1200  -43.7600 O   0  0  0  0  0  0  0  0  0  0  0  0
  110.3820   85.5000  -44.9170 C   0  0  0  0  0  0  0  0  0  0  0  0
  110.5150   86.8030  -45.4110 C   0  0  0  0  0  0  0  0  0  0  0  0
  111.5590   88.0870  -44.4860 Br  0  0  0  0  0  0  0  0  0  0  0  0
  109.8760   87.1800  -46.5900 C   0  0  0  0  0  0  0  0  0  0  0  0
  109.1070   86.2440  -47.2740 C   0  0  0  0  0  0  0  0  0  0  0  0
  108.3030   86.6950  -48.7260 Cl  0  0  0  0  0  0  0  0  0  0  0  0
  108.9710   84.9410  -46.7890 C   0  0  0  0  0  0  0  0  0  0  0  0
  109.6070   84.5510  -45.5980 C   0  0  0  0  0  0  0  0  0  0  0  0
  109.4360   83.1400  -45.0800 C   0  0  0  0  0  0  0  0  0  0  0  0
  108.6740   83.0720  -43.8160 N   0  0  0  0  0  0  0  0  0  0  0  0
  107.2390   82.8520  -44.0360 C   0  0  0  0  0  0  0  0  0  0  0  0
  106.5060   82.4520  -42.7460 C   0  0  0  0  0  0  0  0  0  0  0  0
  107.2960   82.9440  -41.5380 C   0  0  0  0  0  0  0  0  0  0  0  0
  106.5670   82.7090  -40.2100 N   0  0  1  0  0  0  0  0  0  0  0  0
  105.7130   81.4560  -40.2400 C   0  0  0  0  0  0  0  0  0  0  0  0
  104.8240   81.4180  -39.0090 C   0  0  0  0  0  0  0  0  0  0  0  0
  105.6350   81.5190  -37.7240 C   0  0  2  0  0  0  0  0  0  0  0  0
  104.7540   81.6500  -36.6190 O   0  0  0  0  0  0  0  0  0  0  0  0
  106.5460   82.7410  -37.7390 C   0  0  0  0  0  0  0  0  0  0  0  0
  107.4330   82.7560  -38.9690 C   0  0  0  0  0  0  0  0  0  0  0  0
  108.6950   82.3130  -41.4940 C   0  0  0  0  0  0  0  0  0  0  0  0
  109.2500   82.0850  -42.9060 C   0  0  0  0  0  0  0  0  0  0  0  0
  110.4740   85.4410  -43.0140 H   0  0  0  0  0  0  0  0  0  0  0  0
  109.9782   88.2052  -46.9754 H   0  0  0  0  0  0  0  0  0  0  0  0
  108.3606   84.2137  -47.3443 H   0  0  0  0  0  0  0  0  0  0  0  0
  108.9039   82.5503  -45.8411 H   0  0  0  0  0  0  0  0  0  0  0  0
  110.4413   82.7423  -44.8772 H   0  0  0  0  0  0  0  0  0  0  0  0
  106.7939   83.7807  -44.4224 H   0  0  0  0  0  0  0  0  0  0  0  0
  107.1314   82.0259  -44.7543 H   0  0  0  0  0  0  0  0  0  0  0  0
  105.5039   82.9057  -42.7381 H   0  0  0  0  0  0  0  0  0  0  0  0
  106.4135   81.3568  -42.7018 H   0  0  0  0  0  0  0  0  0  0  0  0
  107.3971   84.0321  -41.6640 H   0  0  0  0  0  0  0  0  0  0  0  0
  105.9030   83.4950  -40.1360 H   0  0  0  0  0  0  0  0  0  0  0  0
  105.0867   81.4610  -41.1443 H   0  0  0  0  0  0  0  0  0  0  0  0
  106.3640   80.5694  -40.2490 H   0  0  0  0  0  0  0  0  0  0  0  0
  104.1189   82.2612  -39.0525 H   0  0  0  0  0  0  0  0  0  0  0  0
  104.2896   80.4566  -39.0020 H   0  0  0  0  0  0  0  0  0  0  0  0
  106.2464   80.6083  -37.6414 H   0  0  0  0  0  0  0  0  0  0  0  0
  103.8630   81.8780  -36.9440 H   0  0  0  0  0  0  0  0  0  0  0  0
  105.9259   83.6495  -37.7340 H   0  0  0  0  0  0  0  0  0  0  0  0
  107.1905   82.7028  -36.8484 H   0  0  0  0  0  0  0  0  0  0  0  0
  108.0360   83.6760  -38.9762 H   0  0  0  0  0  0  0  0  0  0  0  0
  108.1014   81.8825  -38.9524 H   0  0  0  0  0  0  0  0  0  0  0  0
  109.3734   82.9840  -40.9467 H   0  0  0  0  0  0  0  0  0  0  0  0
  108.6199   81.3383  -40.9896 H   0  0  0  0  0  0  0  0  0  0  0  0
  110.3447   82.1924  -42.8924 H   0  0  0  0  0  0  0  0  0  0  0  0
  108.9874   81.0724  -43.2462 H   0  0  0  0  0  0  0  0  0  0  0  0
  1  2  1  0
  2  3  2  0
  3  4  1  0
  3  5  1  0
  5  6  2  0
  6  7  1  0
  6  8  1  0
  8  9  2  0
  9 10  1  0
 10 11  1  0
 11 12  1  0
 12 13  1  0
 13 14  1  0
 14 15  1  0
 15 16  1  0
 16 17  1  0
 17 18  1  0
 18 19  1  0
 18 20  1  0
 20 21  1  0
 14 22  1  0
 22 23  1  0
  9  2  1  0
 23 11  1  0
 21 15  1  0
  1 24  1  0
  5 25  1  0
  8 26  1  0
 10 27  1  0
 10 28  1  0
 12 29  1  0
 12 30  1  0
 13 31  1  0
 13 32  1  0
 14 33  1  0
 15 34  1  1
 16 35  1  0
 16 36  1  0
 17 37  1  0
 17 38  1  0
 18 39  1  1
 19 40  1  0
 20 41  1  0
 20 42  1  0
 21 43  1  0
 21 44  1  0
 22 45  1  0
 22 46  1  0
 23 47  1  0
 23 48  1  0
M  CHG  1  15   1
M  END
>  <meeko>  (7) 
{"is_sidechain": [false], "free_energy": -5.17, "intermolecular_energy": -6.379, "internal_energy": -0.858}

$$$$
5aba_ligand
     RDKit          3D

 48 50  0  0  0  0  0  0  0  0999 V2000
  102.0990   76.8610  -44.1730 O   0  0  0  0  0  0  0  0  0  0  0  0
  103.0270   76.6410  -45.1590 C   0  0  0  0  0  0  0  0  0  0  0  0
  102.7110   76.8690  -46.5040 C   0  0  0  0  0  0  0  0  0  0  0  0
  100.9860   77.4740  -47.0040 Br  0  0  0  0  0  0  0  0  0  0  0  0
  103.6610   76.6500  -47.4990 C   0  0  0  0  0  0  0  0  0  0  0  0
  104.9290   76.2030  -47.1400 C   0  0  0  0  0  0  0  0  0  0  0  0
  106.1110   75.9170  -48.3570 Cl  0  0  0  0  0  0  0  0  0  0  0  0
  105.2530   75.9760  -45.8000 C   0  0  0  0  0  0  0  0  0  0  0  0
  104.3010   76.1890  -44.7880 C   0  0  0  0  0  0  0  0  0  0  0  0
  104.6640   75.9220  -43.3440 C   0  0  0  0  0  0  0  0  0  0  0  0
  104.8670   77.1570  -42.5580 N   0  0  0  0  0  0  0  0  0  0  0  0
  104.2250   77.0950  -41.2390 C   0  0  0  0  0  0  0  0  0  0  0  0
  104.7040   78.2150  -40.3040 C   0  0  0  0  0  0  0  0  0  0  0  0
  105.2330   79.3800  -41.1340 C   0  0  0  0  0  0  0  0  0  0  0  0
  105.6060   80.6010  -40.2850 N   0  0  1  0  0  0  0  0  0  0  0  0
  105.6720   80.2710  -38.8060 C   0  0  0  0  0  0  0  0  0  0  0  0
  105.7840   81.5550  -38.0030 C   0  0  0  0  0  0  0  0  0  0  0  0
  106.9730   82.3970  -38.4490 C   0  0  2  0  0  0  0  0  0  0  0  0
  106.9330   83.6530  -37.7900 O   0  0  0  0  0  0  0  0  0  0  0  0
  106.9350   82.6570  -39.9500 C   0  0  0  0  0  0  0  0  0  0  0  0
  106.8340   81.3630  -40.7350 C   0  0  0  0  0  0  0  0  0  0  0  0
  106.4280   78.9500  -41.9980 C   0  0  0  0  0  0  0  0  0  0  0  0
  106.2840   77.4970  -42.4660 C   0  0  0  0  0  0  0  0  0  0  0  0
  102.1880   76.1410  -43.5210 H   0  0  0  0  0  0  0  0  0  0  0  0
  103.4119   76.8282  -48.5555 H   0  0  0  0  0  0  0  0  0  0  0  0
  106.2620   75.6275  -45.5346 H   0  0  0  0  0  0  0  0  0  0  0  0
  103.8523   75.3419  -42.8807 H   0  0  0  0  0  0  0  0  0  0  0  0
  105.6169   75.3724  -43.3422 H   0  0  0  0  0  0  0  0  0  0  0  0
  103.1367   77.1856  -41.3708 H   0  0  0  0  0  0  0  0  0  0  0  0
  104.4955   76.1335  -40.7782 H   0  0  0  0  0  0  0  0  0  0  0  0
  103.8634   78.5590  -39.6835 H   0  0  0  0  0  0  0  0  0  0  0  0
  105.5065   77.8329  -39.6559 H   0  0  0  0  0  0  0  0  0  0  0  0
  104.4050   79.6838  -41.7914 H   0  0  0  0  0  0  0  0  0  0  0  0
  104.8050   81.2440  -40.3890 H   0  0  0  0  0  0  0  0  0  0  0  0
  104.7598   79.7322  -38.5099 H   0  0  0  0  0  0  0  0  0  0  0  0
  106.5516   79.6399  -38.6110 H   0  0  0  0  0  0  0  0  0  0  0  0
  104.8624   82.1405  -38.1367 H   0  0  0  0  0  0  0  0  0  0  0  0
  105.9310   81.2868  -36.9464 H   0  0  0  0  0  0  0  0  0  0  0  0
  107.8899   81.8435  -38.1983 H   0  0  0  0  0  0  0  0  0  0  0  0
  107.8150   83.8530  -37.4260 H   0  0  0  0  0  0  0  0  0  0  0  0
  106.0623   83.2851  -40.1821 H   0  0  0  0  0  0  0  0  0  0  0  0
  107.8686   83.1631  -40.2368 H   0  0  0  0  0  0  0  0  0  0  0  0
  106.7533   81.5895  -41.8084 H   0  0  0  0  0  0  0  0  0  0  0  0
  107.7322   80.7530  -40.5582 H   0  0  0  0  0  0  0  0  0  0  0  0
  106.4873   79.6059  -42.8791 H   0  0  0  0  0  0  0  0  0  0  0  0
  107.3417   79.0298  -41.3907 H   0  0  0  0  0  0  0  0  0  0  0  0
  106.7545   77.3809  -43.4535 H   0  0  0  0  0  0  0  0  0  0  0  0
  106.7772   76.8277  -41.7458 H   0  0  0  0  0  0  0  0  0  0  0  0
  1  2  1  0
  2  3  2  0
  3  4  1  0
  3  5  1  0
  5  6  2  0
  6  7  1  0
  6  8  1  0
  8  9  2  0
  9 10  1  0
 10 11  1  0
 11 12  1  0
 12 13  1  0
 13 14  1  0
 14 15  1  0
 15 16  1  0
 16 17  1  0
 17 18  1  0
 18 19  1  0
 18 20  1  0
 20 21  1  0
 14 22  1  0
 22 23  1  0
  9  2  1  0
 23 11  1  0
 21 15  1  0
  1 24  1  0
  5 25  1  0
  8 26  1  0
 10 27  1  0
 10 28  1  0
 12 29  1  0
 12 30  1  0
 13 31  1  0
 13 32  1  0
 14 33  1  0
 15 34  1  1
 16 35  1  0
 16 36  1  0
 17 37  1  0
 17 38  1  0
 18 39  1  6
 19 40  1  0
 20 41  1  0
 20 42  1  0
 21 43  1  0
 21 44  1  0
 22 45  1  0
 22 46  1  0
 23 47  1  0
 23 48  1  0
M  CHG  1  15   1
M  END
>  <meeko>  (8) 
{"is_sidechain": [false], "free_energy": -5.127, "intermolecular_energy": -6.333, "internal_energy": -0.849}

$$$$
5aba_ligand
     RDKit          3D

 48 50  0  0  0  0  0  0  0  0999 V2000
  106.7040   76.6060  -45.0130 O   0  0  0  0  0  0  0  0  0  0  0  0
  106.0450   75.4350  -44.7360 C   0  0  0  0  0  0  0  0  0  0  0  0
  106.6890   74.2000  -44.8760 C   0  0  0  0  0  0  0  0  0  0  0  0
  108.4880   74.1080  -45.4690 Br  0  0  0  0  0  0  0  0  0  0  0  0
  106.0160   73.0150  -44.5860 C   0  0  0  0  0  0  0  0  0  0  0  0
  104.6950   73.0750  -44.1530 C   0  0  0  0  0  0  0  0  0  0  0  0
  103.8450   71.6210  -43.8010 Cl  0  0  0  0  0  0  0  0  0  0  0  0
  104.0460   74.3030  -44.0080 C   0  0  0  0  0  0  0  0  0  0  0  0
  104.7140   75.5050  -44.3030 C   0  0  0  0  0  0  0  0  0  0  0  0
  103.9900   76.8250  -44.1550 C   0  0  0  0  0  0  0  0  0  0  0  0
  104.6370   77.7370  -43.1890 N   0  0  0  0  0  0  0  0  0  0  0  0
  104.7810   79.1010  -43.7150 C   0  0  0  0  0  0  0  0  0  0  0  0
  105.1380   80.1140  -42.6170 C   0  0  0  0  0  0  0  0  0  0  0  0
  105.7990   79.3890  -41.4490 C   0  0  0  0  0  0  0  0  0  0  0  0
  106.3140   80.3430  -40.3650 N   0  0  1  0  0  0  0  0  0  0  0  0
  107.5380   81.1150  -40.8170 C   0  0  0  0  0  0  0  0  0  0  0  0
  108.1510   81.8370  -39.6300 C   0  0  0  0  0  0  0  0  0  0  0  0
  107.1390   82.7380  -38.9350 C   0  0  2  0  0  0  0  0  0  0  0  0
  107.7090   83.2530  -37.7410 O   0  0  0  0  0  0  0  0  0  0  0  0
  105.8810   81.9670  -38.5540 C   0  0  0  0  0  0  0  0  0  0  0  0
  105.2780   81.2620  -39.7540 C   0  0  0  0  0  0  0  0  0  0  0  0
  104.8530   78.3480  -40.8340 C   0  0  0  0  0  0  0  0  0  0  0  0
  103.9510   77.7130  -41.9000 C   0  0  0  0  0  0  0  0  0  0  0  0
  107.0660   76.9440  -44.1740 H   0  0  0  0  0  0  0  0  0  0  0  0
  106.5223   72.0449  -44.6979 H   0  0  0  0  0  0  0  0  0  0  0  0
  103.0029   74.3304  -43.6599 H   0  0  0  0  0  0  0  0  0  0  0  0
  103.9599   77.3196  -45.1371 H   0  0  0  0  0  0  0  0  0  0  0  0
  102.9822   76.6048  -43.7731 H   0  0  0  0  0  0  0  0  0  0  0  0
  105.5779   79.1055  -44.4732 H   0  0  0  0  0  0  0  0  0  0  0  0
  103.8142   79.3992  -44.1468 H   0  0  0  0  0  0  0  0  0  0  0  0
  105.8325   80.8644  -43.0227 H   0  0  0  0  0  0  0  0  0  0  0  0
  104.2219   80.6122  -42.2670 H   0  0  0  0  0  0  0  0  0  0  0  0
  106.6755   78.8738  -41.8690 H   0  0  0  0  0  0  0  0  0  0  0  0
  106.6420   79.7230  -39.6080 H   0  0  0  0  0  0  0  0  0  0  0  0
  108.2748   80.4173  -41.2417 H   0  0  0  0  0  0  0  0  0  0  0  0
  107.2450   81.8504  -41.5807 H   0  0  0  0  0  0  0  0  0  0  0  0
  108.5180   81.0910  -38.9097 H   0  0  0  0  0  0  0  0  0  0  0  0
  108.9740   82.4666  -39.9992 H   0  0  0  0  0  0  0  0  0  0  0  0
  106.8745   83.5461  -39.6329 H   0  0  0  0  0  0  0  0  0  0  0  0
  108.0970   84.1290  -37.9220 H   0  0  0  0  0  0  0  0  0  0  0  0
  106.1381   81.2177  -37.7908 H   0  0  0  0  0  0  0  0  0  0  0  0
  105.1413   82.6825  -38.1657 H   0  0  0  0  0  0  0  0  0  0  0  0
  104.4062   80.6723  -39.4343 H   0  0  0  0  0  0  0  0  0  0  0  0
  104.9602   82.0068  -40.4985 H   0  0  0  0  0  0  0  0  0  0  0  0
  105.4516   77.5589  -40.3553 H   0  0  0  0  0  0  0  0  0  0  0  0
  104.2134   78.8544  -40.0961 H   0  0  0  0  0  0  0  0  0  0  0  0
  103.7291   76.6723  -41.6211 H   0  0  0  0  0  0  0  0  0  0  0  0
  103.0108   78.2794  -41.9722 H   0  0  0  0  0  0  0  0  0  0  0  0
  1  2  1  0
  2  3  2  0
  3  4  1  0
  3  5  1  0
  5  6  2  0
  6  7  1  0
  6  8  1  0
  8  9  2  0
  9 10  1  0
 10 11  1  0
 11 12  1  0
 12 13  1  0
 13 14  1  0
 14 15  1  0
 15 16  1  0
 16 17  1  0
 17 18  1  0
 18 19  1  0
 18 20  1  0
 20 21  1  0
 14 22  1  0
 22 23  1  0
  9  2  1  0
 23 11  1  0
 21 15  1  0
  1 24  1  0
  5 25  1  0
  8 26  1  0
 10 27  1  0
 10 28  1  0
 12 29  1  0
 12 30  1  0
 13 31  1  0
 13 32  1  0
 14 33  1  0
 15 34  1  1
 16 35  1  0
 16 36  1  0
 17 37  1  0
 17 38  1  0
 18 39  1  6
 19 40  1  0
 20 41  1  0
 20 42  1  0
 21 43  1  0
 21 44  1  0
 22 45  1  0
 22 46  1  0
 23 47  1  0
 23 48  1  0
M  CHG  1  15   1
M  END
>  <meeko>  (9) 
{"is_sidechain": [false], "free_energy": -5.116, "intermolecular_energy": -6.36, "internal_energy": -0.809}

$$$$
