3lka_ligand
     RDKit          3D

 21 21  0  0  0  0  0  0  0  0999 V2000
    7.8180   -8.7230   10.7190 C   0  0  0  0  0  0  0  0  0  0  0  0
    7.6720   -7.3620   10.3350 O   0  0  0  0  0  0  0  0  0  0  0  0
    6.7060   -7.0780    9.4110 C   0  0  0  0  0  0  0  0  0  0  0  0
    5.4510   -6.7770    9.9540 C   0  0  0  0  0  0  0  0  0  0  0  0
    4.3700   -6.4680    9.1260 C   0  0  0  0  0  0  0  0  0  0  0  0
    4.5520   -6.4520    7.7420 C   0  0  0  0  0  0  0  0  0  0  0  0
    3.1810   -6.0930    6.6840 S   0  0  0  0  0  0  0  0  0  0  0  0
    3.0650   -7.5010    5.7790 N   0  0  0  0  0  0  0  0  0  0  0  0
    1.9740   -6.0300    7.4750 O   0  0  0  0  0  0  0  0  0  0  0  0
    3.5550   -5.0520    5.7550 O   0  0  0  0  0  0  0  0  0  0  0  0
    5.7960   -6.7620    7.1870 C   0  0  0  0  0  0  0  0  0  0  0  0
    6.8730   -7.0710    8.0230 C   0  0  0  0  0  0  0  0  0  0  0  0
    7.8258   -8.7955   11.8166 H   0  0  0  0  0  0  0  0  0  0  0  0
    6.9776   -9.3091   10.3188 H   0  0  0  0  0  0  0  0  0  0  0  0
    8.7636   -9.1175   10.3188 H   0  0  0  0  0  0  0  0  0  0  0  0
    5.3151   -6.7840   11.0455 H   0  0  0  0  0  0  0  0  0  0  0  0
    3.3853   -6.2396    9.5597 H   0  0  0  0  0  0  0  0  0  0  0  0
    2.0830   -7.7420    5.6370 H   0  0  0  0  0  0  0  0  0  0  0  0
    3.5930   -7.4000    4.9120 H   0  0  0  0  0  0  0  0  0  0  0  0
    5.9277   -6.7629    6.0949 H   0  0  0  0  0  0  0  0  0  0  0  0
    7.8546   -7.3093    7.5875 H   0  0  0  0  0  0  0  0  0  0  0  0
  1  2  1  0
  2  3  1  0
  3  4  2  0
  4  5  1  0
  5  6  2  0
  6  7  1  0
  7  8  1  0
  7  9  2  0
  7 10  2  0
  6 11  1  0
 11 12  2  0
 12  3  1  0
  1 13  1  0
  1 14  1  0
  1 15  1  0
  4 16  1  0
  5 17  1  0
  8 18  1  0
  8 19  1  0
 11 20  1  0
 12 21  1  0
M  END
>  <meeko>  (1) 
{"is_sidechain": [false], "free_energy": -6.657, "intermolecular_energy": -7.629, "internal_energy": -0.083}

$$$$
3lka_ligand
     RDKit          3D

 21 21  0  0  0  0  0  0  0  0999 V2000
    7.5020   -8.3150    9.1120 C   0  0  0  0  0  0  0  0  0  0  0  0
    6.4430   -7.5390    9.6570 O   0  0  0  0  0  0  0  0  0  0  0  0
    5.5260   -7.0370    8.7770 C   0  0  0  0  0  0  0  0  0  0  0  0
    4.2690   -6.7720    9.3340 C   0  0  0  0  0  0  0  0  0  0  0  0
    3.2340   -6.2570    8.5510 C   0  0  0  0  0  0  0  0  0  0  0  0
    3.4660   -5.9950    7.1990 C   0  0  0  0  0  0  0  0  0  0  0  0
    2.1540   -5.3730    6.1910 S   0  0  0  0  0  0  0  0  0  0  0  0
    1.0750   -4.7990    7.3410 N   0  0  0  0  0  0  0  0  0  0  0  0
    2.6190   -4.2110    5.4690 O   0  0  0  0  0  0  0  0  0  0  0  0
    1.4890   -6.4760    5.5370 O   0  0  0  0  0  0  0  0  0  0  0  0
    4.7120   -6.2660    6.6280 C   0  0  0  0  0  0  0  0  0  0  0  0
    5.7420   -6.7830    7.4200 C   0  0  0  0  0  0  0  0  0  0  0  0
    8.0959   -8.7502    9.9293 H   0  0  0  0  0  0  0  0  0  0  0  0
    7.0839   -9.1221    8.4925 H   0  0  0  0  0  0  0  0  0  0  0  0
    8.1457   -7.6732    8.4925 H   0  0  0  0  0  0  0  0  0  0  0  0
    4.0947   -6.9720   10.4015 H   0  0  0  0  0  0  0  0  0  0  0  0
    2.2467   -6.0598    8.9942 H   0  0  0  0  0  0  0  0  0  0  0  0
    0.1980   -4.5340    6.8910 H   0  0  0  0  0  0  0  0  0  0  0  0
    0.9640   -5.4870    8.0850 H   0  0  0  0  0  0  0  0  0  0  0  0
    4.8823   -6.0732    5.5585 H   0  0  0  0  0  0  0  0  0  0  0  0
    6.7256   -6.9904    6.9733 H   0  0  0  0  0  0  0  0  0  0  0  0
  1  2  1  0
  2  3  1  0
  3  4  2  0
  4  5  1  0
  5  6  2  0
  6  7  1  0
  7  8  1  0
  7  9  2  0
  7 10  2  0
  6 11  1  0
 11 12  2  0
 12  3  1  0
  1 13  1  0
  1 14  1  0
  1 15  1  0
  4 16  1  0
  5 17  1  0
  8 18  1  0
  8 19  1  0
 11 20  1  0
 12 21  1  0
M  END
>  <meeko>  (2) 
{"is_sidechain": [false], "free_energy": -6.545, "intermolecular_energy": -7.494, "internal_energy": -0.09}

$$$$
3lka_ligand
     RDKit          3D

 21 21  0  0  0  0  0  0  0  0999 V2000
    7.8660   -7.9940    8.6010 C   0  0  0  0  0  0  0  0  0  0  0  0
    6.8340   -7.4680    9.4250 O   0  0  0  0  0  0  0  0  0  0  0  0
    5.7100   -7.0110    8.7960 C   0  0  0  0  0  0  0  0  0  0  0  0
    5.8590   -6.7960    7.4200 C   0  0  0  0  0  0  0  0  0  0  0  0
    4.7920   -6.3300    6.6500 C   0  0  0  0  0  0  0  0  0  0  0  0
    3.5620   -6.0850    7.2640 C   0  0  0  0  0  0  0  0  0  0  0  0
    2.2140   -5.4640    6.3040 S   0  0  0  0  0  0  0  0  0  0  0  0
    1.2320   -4.7850    7.4830 N   0  0  0  0  0  0  0  0  0  0  0  0
    2.6760   -4.3630    5.4910 O   0  0  0  0  0  0  0  0  0  0  0  0
    1.4680   -6.5720    5.7550 O   0  0  0  0  0  0  0  0  0  0  0  0
    3.4030   -6.2840    8.6380 C   0  0  0  0  0  0  0  0  0  0  0  0
    4.4780   -6.7510    9.4010 C   0  0  0  0  0  0  0  0  0  0  0  0
    8.6678   -8.4027    9.2335 H   0  0  0  0  0  0  0  0  0  0  0  0
    7.4565   -8.7934    7.9659 H   0  0  0  0  0  0  0  0  0  0  0  0
    8.2722   -7.1930    7.9659 H   0  0  0  0  0  0  0  0  0  0  0  0
    6.8284   -6.9968    6.9404 H   0  0  0  0  0  0  0  0  0  0  0  0
    4.9188   -6.1576    5.5710 H   0  0  0  0  0  0  0  0  0  0  0  0
    1.4640   -5.1790    8.3960 H   0  0  0  0  0  0  0  0  0  0  0  0
    1.2990   -3.7680    7.4460 H   0  0  0  0  0  0  0  0  0  0  0  0
    2.4357   -6.0741    9.1178 H   0  0  0  0  0  0  0  0  0  0  0  0
    4.3529   -6.9142   10.4816 H   0  0  0  0  0  0  0  0  0  0  0  0
  1  2  1  0
  2  3  1  0
  3  4  2  0
  4  5  1  0
  5  6  2  0
  6  7  1  0
  7  8  1  0
  7  9  2  0
  7 10  2  0
  6 11  1  0
 11 12  2  0
 12  3  1  0
  1 13  1  0
  1 14  1  0
  1 15  1  0
  4 16  1  0
  5 17  1  0
  8 18  1  0
  8 19  1  0
 11 20  1  0
 12 21  1  0
M  END
>  <meeko>  (3) 
{"is_sidechain": [false], "free_energy": -6.498, "intermolecular_energy": -7.425, "internal_energy": -0.105}

$$$$
3lka_ligand
     RDKit          3D

 21 21  0  0  0  0  0  0  0  0999 V2000
    6.8910   -7.8940   10.5170 C   0  0  0  0  0  0  0  0  0  0  0  0
    7.0430   -7.3990    9.1930 O   0  0  0  0  0  0  0  0  0  0  0  0
    5.9120   -6.9700    8.5570 C   0  0  0  0  0  0  0  0  0  0  0  0
    4.8150   -6.7590    9.4000 C   0  0  0  0  0  0  0  0  0  0  0  0
    3.5930   -6.3200    8.8860 C   0  0  0  0  0  0  0  0  0  0  0  0
    3.4740   -6.0830    7.5150 C   0  0  0  0  0  0  0  0  0  0  0  0
    1.9220   -5.5580    6.8500 S   0  0  0  0  0  0  0  0  0  0  0  0
    2.3310   -4.1020    6.1230 N   0  0  0  0  0  0  0  0  0  0  0  0
    1.5420   -6.4450    5.7740 O   0  0  0  0  0  0  0  0  0  0  0  0
    1.0260   -5.2250    7.9330 O   0  0  0  0  0  0  0  0  0  0  0  0
    4.5580   -6.3010    6.6610 C   0  0  0  0  0  0  0  0  0  0  0  0
    5.7780   -6.7410    7.1850 C   0  0  0  0  0  0  0  0  0  0  0  0
    7.1353   -7.0984   11.2362 H   0  0  0  0  0  0  0  0  0  0  0  0
    5.8515   -8.2197   10.6696 H   0  0  0  0  0  0  0  0  0  0  0  0
    7.5686   -8.7470   10.6696 H   0  0  0  0  0  0  0  0  0  0  0  0
    4.9165   -6.9411   10.4801 H   0  0  0  0  0  0  0  0  0  0  0  0
    2.7333   -6.1626    9.5540 H   0  0  0  0  0  0  0  0  0  0  0  0
    1.6020   -3.4100    6.3010 H   0  0  0  0  0  0  0  0  0  0  0  0
    3.2590   -3.8110    6.4300 H   0  0  0  0  0  0  0  0  0  0  0  0
    4.4524   -6.1272    5.5800 H   0  0  0  0  0  0  0  0  0  0  0  0
    6.6345   -6.9073    6.5151 H   0  0  0  0  0  0  0  0  0  0  0  0
  1  2  1  0
  2  3  1  0
  3  4  2  0
  4  5  1  0
  5  6  2  0
  6  7  1  0
  7  8  1  0
  7  9  2  0
  7 10  2  0
  6 11  1  0
 11 12  2  0
 12  3  1  0
  1 13  1  0
  1 14  1  0
  1 15  1  0
  4 16  1  0
  5 17  1  0
  8 18  1  0
  8 19  1  0
 11 20  1  0
 12 21  1  0
M  END
>  <meeko>  (4) 
{"is_sidechain": [false], "free_energy": -6.389, "intermolecular_energy": -7.305, "internal_energy": -0.101}

$$$$
3lka_ligand
     RDKit          3D

 21 21  0  0  0  0  0  0  0  0999 V2000
    1.2440   -5.8920    5.8080 C   0  0  0  0  0  0  0  0  0  0  0  0
    1.7760   -5.4230    7.0400 O   0  0  0  0  0  0  0  0  0  0  0  0
    3.0180   -5.8720    7.3910 C   0  0  0  0  0  0  0  0  0  0  0  0
    3.1290   -6.2980    8.7200 C   0  0  0  0  0  0  0  0  0  0  0  0
    4.3410   -6.7830    9.2170 C   0  0  0  0  0  0  0  0  0  0  0  0
    5.4480   -6.8490    8.3690 C   0  0  0  0  0  0  0  0  0  0  0  0
    6.9960   -7.4300    8.9960 S   0  0  0  0  0  0  0  0  0  0  0  0
    7.9830   -7.3130    7.6440 N   0  0  0  0  0  0  0  0  0  0  0  0
    7.5120   -6.4750    9.9490 O   0  0  0  0  0  0  0  0  0  0  0  0
    6.8910   -8.8410    9.2910 O   0  0  0  0  0  0  0  0  0  0  0  0
    5.3540   -6.4160    7.0440 C   0  0  0  0  0  0  0  0  0  0  0  0
    4.1360   -5.9320    6.5560 C   0  0  0  0  0  0  0  0  0  0  0  0
    0.4326   -6.6073    6.0076 H   0  0  0  0  0  0  0  0  0  0  0  0
    0.8499   -5.0421    5.2315 H   0  0  0  0  0  0  0  0  0  0  0  0
    2.0378   -6.3895    5.2315 H   0  0  0  0  0  0  0  0  0  0  0  0
    2.2510   -6.2502    9.3809 H   0  0  0  0  0  0  0  0  0  0  0  0
    4.4222   -7.1091   10.2644 H   0  0  0  0  0  0  0  0  0  0  0  0
    8.1460   -8.2410    7.2520 H   0  0  0  0  0  0  0  0  0  0  0  0
    7.5840   -6.6500    6.9810 H   0  0  0  0  0  0  0  0  0  0  0  0
    6.2351   -6.4556    6.3867 H   0  0  0  0  0  0  0  0  0  0  0  0
    4.0582   -5.5974    5.5110 H   0  0  0  0  0  0  0  0  0  0  0  0
  1  2  1  0
  2  3  1  0
  3  4  2  0
  4  5  1  0
  5  6  2  0
  6  7  1  0
  7  8  1  0
  7  9  2  0
  7 10  2  0
  6 11  1  0
 11 12  2  0
 12  3  1  0
  1 13  1  0
  1 14  1  0
  1 15  1  0
  4 16  1  0
  5 17  1  0
  8 18  1  0
  8 19  1  0
 11 20  1  0
 12 21  1  0
M  END
>  <meeko>  (5) 
{"is_sidechain": [false], "free_energy": -6.321, "intermolecular_energy": -7.24, "internal_energy": -0.088}

$$$$
3lka_ligand
     RDKit          3D

 21 21  0  0  0  0  0  0  0  0999 V2000
    0.1390   -1.5180    3.5340 C   0  0  0  0  0  0  0  0  0  0  0  0
    0.2200   -2.8470    3.0360 O   0  0  0  0  0  0  0  0  0  0  0  0
    0.8200   -3.7740    3.8410 C   0  0  0  0  0  0  0  0  0  0  0  0
    1.9090   -3.2910    4.5750 C   0  0  0  0  0  0  0  0  0  0  0  0
    2.6180   -4.1280    5.4380 C   0  0  0  0  0  0  0  0  0  0  0  0
    2.2250   -5.4610    5.5730 C   0  0  0  0  0  0  0  0  0  0  0  0
    3.1350   -6.5390    6.6380 S   0  0  0  0  0  0  0  0  0  0  0  0
    4.6850   -5.9070    6.5280 N   0  0  0  0  0  0  0  0  0  0  0  0
    2.7150   -6.3240    8.0040 O   0  0  0  0  0  0  0  0  0  0  0  0
    3.1980   -7.8550    6.0460 O   0  0  0  0  0  0  0  0  0  0  0  0
    1.1470   -5.9600    4.8360 C   0  0  0  0  0  0  0  0  0  0  0  0
    0.4430   -5.1130    3.9740 C   0  0  0  0  0  0  0  0  0  0  0  0
    0.1402   -1.5379    4.6338 H   0  0  0  0  0  0  0  0  0  0  0  0
    1.0035   -0.9392    3.1768 H   0  0  0  0  0  0  0  0  0  0  0  0
   -0.7894   -1.0485    3.1768 H   0  0  0  0  0  0  0  0  0  0  0  0
    2.2102   -2.2382    4.4705 H   0  0  0  0  0  0  0  0  0  0  0  0
    3.4773   -3.7416    6.0058 H   0  0  0  0  0  0  0  0  0  0  0  0
    4.8410   -5.2390    7.2850 H   0  0  0  0  0  0  0  0  0  0  0  0
    5.3670   -6.6650    6.5020 H   0  0  0  0  0  0  0  0  0  0  0  0
    0.8534   -7.0156    4.9337 H   0  0  0  0  0  0  0  0  0  0  0  0
   -0.4102   -5.5021    3.3989 H   0  0  0  0  0  0  0  0  0  0  0  0
  1  2  1  0
  2  3  1  0
  3  4  2  0
  4  5  1  0
  5  6  2  0
  6  7  1  0
  7  8  1  0
  7  9  2  0
  7 10  2  0
  6 11  1  0
 11 12  2  0
 12  3  1  0
  1 13  1  0
  1 14  1  0
  1 15  1  0
  4 16  1  0
  5 17  1  0
  8 18  1  0
  8 19  1  0
 11 20  1  0
 12 21  1  0
M  END
>  <meeko>  (6) 
{"is_sidechain": [false], "free_energy": -4.865, "intermolecular_energy": -5.558, "internal_energy": -0.101}

$$$$
3lka_ligand
     RDKit          3D

 21 21  0  0  0  0  0  0  0  0999 V2000
    1.3880  -10.2900    2.4730 C   0  0  0  0  0  0  0  0  0  0  0  0
    0.8920   -9.0080    2.1090 O   0  0  0  0  0  0  0  0  0  0  0  0
    1.1690   -7.9730    2.9560 C   0  0  0  0  0  0  0  0  0  0  0  0
    1.6990   -8.3580    4.1940 C   0  0  0  0  0  0  0  0  0  0  0  0
    2.0280   -7.4040    5.1580 C   0  0  0  0  0  0  0  0  0  0  0  0
    1.8340   -6.0510    4.8750 C   0  0  0  0  0  0  0  0  0  0  0  0
    2.2180   -4.8360    6.1010 S   0  0  0  0  0  0  0  0  0  0  0  0
    0.8160   -4.8180    7.0230 N   0  0  0  0  0  0  0  0  0  0  0  0
    3.2550   -5.3460    6.9680 O   0  0  0  0  0  0  0  0  0  0  0  0
    2.3000   -3.5360    5.4760 O   0  0  0  0  0  0  0  0  0  0  0  0
    1.2950   -5.6530    3.6480 C   0  0  0  0  0  0  0  0  0  0  0  0
    0.9670   -6.6160    2.6890 C   0  0  0  0  0  0  0  0  0  0  0  0
    1.4201  -10.3730    3.5694 H   0  0  0  0  0  0  0  0  0  0  0  0
    0.7262  -11.0684    2.0656 H   0  0  0  0  0  0  0  0  0  0  0  0
    2.4014  -10.4203    2.0656 H   0  0  0  0  0  0  0  0  0  0  0  0
    1.8578   -9.4250    4.4090 H   0  0  0  0  0  0  0  0  0  0  0  0
    2.4361   -7.7151    6.1310 H   0  0  0  0  0  0  0  0  0  0  0  0
    0.7460   -5.6810    7.5650 H   0  0  0  0  0  0  0  0  0  0  0  0
    0.7860   -3.9720    7.5910 H   0  0  0  0  0  0  0  0  0  0  0  0
    1.1296   -4.5860    3.4379 H   0  0  0  0  0  0  0  0  0  0  0  0
    0.5484   -6.3045    1.7206 H   0  0  0  0  0  0  0  0  0  0  0  0
  1  2  1  0
  2  3  1  0
  3  4  2  0
  4  5  1  0
  5  6  2  0
  6  7  1  0
  7  8  1  0
  7  9  2  0
  7 10  2  0
  6 11  1  0
 11 12  2  0
 12  3  1  0
  1 13  1  0
  1 14  1  0
  1 15  1  0
  4 16  1  0
  5 17  1  0
  8 18  1  0
  8 19  1  0
 11 20  1  0
 12 21  1  0
M  END
>  <meeko>  (7) 
{"is_sidechain": [false], "free_energy": -4.816, "intermolecular_energy": -5.501, "internal_energy": -0.101}

$$$$
3lka_ligand
     RDKit          3D

 21 21  0  0  0  0  0  0  0  0999 V2000
    1.0120   -7.0680    2.5580 C   0  0  0  0  0  0  0  0  0  0  0  0
    0.3760   -6.4480    3.6680 O   0  0  0  0  0  0  0  0  0  0  0  0
    1.1120   -6.3180    4.8120 C   0  0  0  0  0  0  0  0  0  0  0  0
    2.0010   -7.3720    5.0560 C   0  0  0  0  0  0  0  0  0  0  0  0
    2.8170   -7.3720    6.1890 C   0  0  0  0  0  0  0  0  0  0  0  0
    2.7470   -6.2990    7.0800 C   0  0  0  0  0  0  0  0  0  0  0  0
    3.7530   -6.3040    8.5350 S   0  0  0  0  0  0  0  0  0  0  0  0
    3.3700   -4.8230    9.2250 N   0  0  0  0  0  0  0  0  0  0  0  0
    3.2610   -7.3070    9.4500 O   0  0  0  0  0  0  0  0  0  0  0  0
    5.1430   -6.2180    8.1540 O   0  0  0  0  0  0  0  0  0  0  0  0
    1.8560   -5.2460    6.8550 C   0  0  0  0  0  0  0  0  0  0  0  0
    1.0430   -5.2560    5.7180 C   0  0  0  0  0  0  0  0  0  0  0  0
    1.7559   -7.7932    2.9197 H   0  0  0  0  0  0  0  0  0  0  0  0
    0.2592   -7.5884    1.9477 H   0  0  0  0  0  0  0  0  0  0  0  0
    1.5131   -6.3022    1.9477 H   0  0  0  0  0  0  0  0  0  0  0  0
    2.0572   -8.2105    4.3462 H   0  0  0  0  0  0  0  0  0  0  0  0
    3.5071   -8.2076    6.3776 H   0  0  0  0  0  0  0  0  0  0  0  0
    2.3710   -4.7850    9.4310 H   0  0  0  0  0  0  0  0  0  0  0  0
    3.9630   -4.6570   10.0380 H   0  0  0  0  0  0  0  0  0  0  0  0
    1.7947   -4.4124    7.5701 H   0  0  0  0  0  0  0  0  0  0  0  0
    0.3461   -4.4247    5.5356 H   0  0  0  0  0  0  0  0  0  0  0  0
  1  2  1  0
  2  3  1  0
  3  4  2  0
  4  5  1  0
  5  6  2  0
  6  7  1  0
  7  8  1  0
  7  9  2  0
  7 10  2  0
  6 11  1  0
 11 12  2  0
 12  3  1  0
  1 13  1  0
  1 14  1  0
  1 15  1  0
  4 16  1  0
  5 17  1  0
  8 18  1  0
  8 19  1  0
 11 20  1  0
 12 21  1  0
M  END
>  <meeko>  (8) 
{"is_sidechain": [false], "free_energy": -4.773, "intermolecular_energy": -5.451, "internal_energy": -0.102}

$$$$
