3u8n_ligand
     RDKit          3D

 36 37  0  0  0  0  0  0  0  0999 V2000
   58.2560   25.6170  102.0360 C   0  0  0  0  0  0  0  0  0  0  0  0
   57.7940   24.2930  101.4560 C   0  0  0  0  0  0  0  0  0  0  0  0
   57.5910   23.3260  102.4840 O   0  0  0  0  0  0  0  0  0  0  0  0
   56.3560   22.7840  102.6960 C   0  0  0  0  0  0  0  0  0  0  0  0
   55.1410   23.3510  102.2910 C   0  0  0  0  0  0  0  0  0  0  0  0
   53.9060   22.7340  102.5570 C   0  0  0  0  0  0  0  0  0  0  0  0
   52.7030   23.3080  102.1210 N   0  0  0  0  0  0  0  0  0  0  0  0
   52.6570   24.7740  102.0140 C   0  0  0  0  0  0  0  0  0  0  0  0
   52.4810   25.1990  100.5520 C   0  0  0  0  0  0  0  0  0  0  0  0
   51.5640   24.3020   99.7320 C   0  0  0  0  0  0  0  0  0  0  0  0
   50.3610   23.8210  100.4890 N   0  0  0  0  0  0  0  0  0  0  0  0
   50.4590   22.5420  101.2760 C   0  0  0  0  0  0  0  0  0  0  0  0
   51.4360   22.6330  102.4690 C   0  0  0  0  0  0  0  0  0  0  0  0
   53.9920   21.5090  103.2250 C   0  0  0  0  0  0  0  0  0  0  0  0
   55.1340   20.9140  103.6320 N   0  0  0  0  0  0  0  0  0  0  0  0
   56.2920   21.5610  103.3680 C   0  0  0  0  0  0  0  0  0  0  0  0
   57.8780   20.6910  103.9660 Br  0  0  0  0  0  0  0  0  0  0  0  0
   58.2370   25.5627  103.1345 H   0  0  0  0  0  0  0  0  0  0  0  0
   59.2809   25.8281  101.6970 H   0  0  0  0  0  0  0  0  0  0  0  0
   57.5849   26.4199  101.6970 H   0  0  0  0  0  0  0  0  0  0  0  0
   56.8481   24.4476  100.9162 H   0  0  0  0  0  0  0  0  0  0  0  0
   58.5717   23.9198  100.7735 H   0  0  0  0  0  0  0  0  0  0  0  0
   55.1534   24.3078  101.7485 H   0  0  0  0  0  0  0  0  0  0  0  0
   51.8114   25.1540  102.6060 H   0  0  0  0  0  0  0  0  0  0  0  0
   53.6021   25.1888  102.3943 H   0  0  0  0  0  0  0  0  0  0  0  0
   52.0645   26.2170  100.5394 H   0  0  0  0  0  0  0  0  0  0  0  0
   53.4761   25.1312  100.0880 H   0  0  0  0  0  0  0  0  0  0  0  0
   51.2191   24.8672   98.8536 H   0  0  0  0  0  0  0  0  0  0  0  0
   52.1475   23.4119   99.4539 H   0  0  0  0  0  0  0  0  0  0  0  0
   49.5990   23.7190   99.8050 H   0  0  0  0  0  0  0  0  0  0  0  0
   50.0550   24.5680  101.1280 H   0  0  0  0  0  0  0  0  0  0  0  0
   49.4596   22.2915  101.6613 H   0  0  0  0  0  0  0  0  0  0  0  0
   50.8461   21.7692  100.5956 H   0  0  0  0  0  0  0  0  0  0  0  0
   50.9494   23.1952  103.2797 H   0  0  0  0  0  0  0  0  0  0  0  0
   51.6814   21.6054  102.7752 H   0  0  0  0  0  0  0  0  0  0  0  0
   53.0486   20.9847  103.4373 H   0  0  0  0  0  0  0  0  0  0  0  0
  1  2  1  0
  2  3  1  0
  3  4  1  0
  4  5  2  0
  5  6  1  0
  6  7  1  0
  7  8  1  0
  8  9  1  0
  9 10  1  0
 10 11  1  0
 11 12  1  0
 12 13  1  0
  6 14  2  0
 14 15  1  0
 15 16  2  0
 16 17  1  0
 16  4  1  0
 13  7  1  0
  1 18  1  0
  1 19  1  0
  1 20  1  0
  2 21  1  0
  2 22  1  0
  5 23  1  0
  8 24  1  0
  8 25  1  0
  9 26  1  0
  9 27  1  0
 10 28  1  0
 10 29  1  0
 11 30  1  0
 11 31  1  0
 12 32  1  0
 12 33  1  0
 13 34  1  0
 13 35  1  0
 14 36  1  0
M  CHG  1  11   1
M  END
>  <meeko>  (1) 
{"is_sidechain": [false], "free_energy": -5.551, "intermolecular_energy": -8.471, "internal_energy": 0.332}

$$$$
3u8n_ligand
     RDKit          3D

 36 37  0  0  0  0  0  0  0  0999 V2000
   57.6830   24.0970  101.2200 C   0  0  0  0  0  0  0  0  0  0  0  0
   57.8860   25.2120  102.2300 C   0  0  0  0  0  0  0  0  0  0  0  0
   58.4370   26.3710  101.6110 O   0  0  0  0  0  0  0  0  0  0  0  0
   58.9980   27.3620  102.3640 C   0  0  0  0  0  0  0  0  0  0  0  0
   59.2230   27.3020  103.7450 C   0  0  0  0  0  0  0  0  0  0  0  0
   59.7990   28.3730  104.4530 C   0  0  0  0  0  0  0  0  0  0  0  0
   60.0370   28.2820  105.8320 N   0  0  0  0  0  0  0  0  0  0  0  0
   61.3700   27.8290  106.2560 C   0  0  0  0  0  0  0  0  0  0  0  0
   62.1070   28.9520  106.9940 C   0  0  0  0  0  0  0  0  0  0  0  0
   61.4690   29.3740  108.3030 C   0  0  0  0  0  0  0  0  0  0  0  0
   60.3680   28.4510  108.7380 N   0  0  0  0  0  0  0  0  0  0  0  0
   59.0080   28.5910  108.1080 C   0  0  0  0  0  0  0  0  0  0  0  0
   58.9090   27.9280  106.7180 C   0  0  0  0  0  0  0  0  0  0  0  0
   60.1480   29.4760  103.6690 C   0  0  0  0  0  0  0  0  0  0  0  0
   59.9600   29.5850  102.3360 N   0  0  0  0  0  0  0  0  0  0  0  0
   59.3850   28.5340  101.7080 C   0  0  0  0  0  0  0  0  0  0  0  0
   59.1310   28.7320   99.8310 Br  0  0  0  0  0  0  0  0  0  0  0  0
   57.5104   23.1489  101.7503 H   0  0  0  0  0  0  0  0  0  0  0  0
   56.8121   24.3280  100.5889 H   0  0  0  0  0  0  0  0  0  0  0  0
   58.5794   24.0062  100.5889 H   0  0  0  0  0  0  0  0  0  0  0  0
   56.9157   25.4713  102.6787 H   0  0  0  0  0  0  0  0  0  0  0  0
   58.5874   24.8611  103.0014 H   0  0  0  0  0  0  0  0  0  0  0  0
   58.9411   26.3905  104.2925 H   0  0  0  0  0  0  0  0  0  0  0  0
   61.2623   26.9642  106.9272 H   0  0  0  0  0  0  0  0  0  0  0  0
   61.9506   27.5467  105.3654 H   0  0  0  0  0  0  0  0  0  0  0  0
   63.1303   28.6087  107.2064 H   0  0  0  0  0  0  0  0  0  0  0  0
   62.0742   29.8316  106.3342 H   0  0  0  0  0  0  0  0  0  0  0  0
   62.2443   29.3884  109.0832 H   0  0  0  0  0  0  0  0  0  0  0  0
   61.0257   30.3690  108.1496 H   0  0  0  0  0  0  0  0  0  0  0  0
   60.2630   28.5710  109.7550 H   0  0  0  0  0  0  0  0  0  0  0  0
   60.6820   27.4800  108.6080 H   0  0  0  0  0  0  0  0  0  0  0  0
   58.2658   28.1234  108.7717 H   0  0  0  0  0  0  0  0  0  0  0  0
   58.8213   29.6663  107.9706 H   0  0  0  0  0  0  0  0  0  0  0  0
   58.8952   26.8360  106.8499 H   0  0  0  0  0  0  0  0  0  0  0  0
   57.9872   28.2938  106.2420 H   0  0  0  0  0  0  0  0  0  0  0  0
   60.6162   30.3291  104.1819 H   0  0  0  0  0  0  0  0  0  0  0  0
  1  2  1  0
  2  3  1  0
  3  4  1  0
  4  5  2  0
  5  6  1  0
  6  7  1  0
  7  8  1  0
  8  9  1  0
  9 10  1  0
 10 11  1  0
 11 12  1  0
 12 13  1  0
  6 14  2  0
 14 15  1  0
 15 16  2  0
 16 17  1  0
 16  4  1  0
 13  7  1  0
  1 18  1  0
  1 19  1  0
  1 20  1  0
  2 21  1  0
  2 22  1  0
  5 23  1  0
  8 24  1  0
  8 25  1  0
  9 26  1  0
  9 27  1  0
 10 28  1  0
 10 29  1  0
 11 30  1  0
 11 31  1  0
 12 32  1  0
 12 33  1  0
 13 34  1  0
 13 35  1  0
 14 36  1  0
M  CHG  1  11   1
M  END
>  <meeko>  (2) 
{"is_sidechain": [false], "free_energy": -4.337, "intermolecular_energy": -6.462, "internal_energy": 0.176}

$$$$
3u8n_ligand
     RDKit          3D

 36 37  0  0  0  0  0  0  0  0999 V2000
   56.7520   27.7790  108.3640 C   0  0  0  0  0  0  0  0  0  0  0  0
   57.9770   28.5230  108.8620 C   0  0  0  0  0  0  0  0  0  0  0  0
   59.1730   27.8270  108.5220 O   0  0  0  0  0  0  0  0  0  0  0  0
   59.9230   28.2140  107.4480 C   0  0  0  0  0  0  0  0  0  0  0  0
   59.6100   27.9570  106.1070 C   0  0  0  0  0  0  0  0  0  0  0  0
   60.4420   28.3810  105.0540 C   0  0  0  0  0  0  0  0  0  0  0  0
   60.0970   28.1340  103.7170 N   0  0  0  0  0  0  0  0  0  0  0  0
   59.3200   29.1700  103.0210 C   0  0  0  0  0  0  0  0  0  0  0  0
   59.7800   29.2950  101.5640 C   0  0  0  0  0  0  0  0  0  0  0  0
   59.0070   28.4580  100.5700 C   0  0  0  0  0  0  0  0  0  0  0  0
   58.9830   27.0000  100.9230 N   0  0  0  0  0  0  0  0  0  0  0  0
   58.6580   26.5990  102.3370 C   0  0  0  0  0  0  0  0  0  0  0  0
   59.8560   26.7380  103.3010 C   0  0  0  0  0  0  0  0  0  0  0  0
   61.5760   29.0950  105.4520 C   0  0  0  0  0  0  0  0  0  0  0  0
   61.9220   29.3760  106.7270 N   0  0  0  0  0  0  0  0  0  0  0  0
   61.0970   28.9270  107.7010 C   0  0  0  0  0  0  0  0  0  0  0  0
   61.6260   29.3380  109.4840 Br  0  0  0  0  0  0  0  0  0  0  0  0
   56.1650   27.4225  109.2233 H   0  0  0  0  0  0  0  0  0  0  0  0
   56.1352   28.4552  107.7538 H   0  0  0  0  0  0  0  0  0  0  0  0
   57.0677   26.9199  107.7538 H   0  0  0  0  0  0  0  0  0  0  0  0
   58.0008   29.5230  108.4043 H   0  0  0  0  0  0  0  0  0  0  0  0
   57.9173   28.6007  109.9576 H   0  0  0  0  0  0  0  0  0  0  0  0
   58.6869   27.4077  105.8700 H   0  0  0  0  0  0  0  0  0  0  0  0
   58.2541   28.8993  103.0425 H   0  0  0  0  0  0  0  0  0  0  0  0
   59.4757   30.1336  103.5281 H   0  0  0  0  0  0  0  0  0  0  0  0
   59.6854   30.3498  101.2667 H   0  0  0  0  0  0  0  0  0  0  0  0
   60.8144   28.9217  101.5377 H   0  0  0  0  0  0  0  0  0  0  0  0
   57.9712   28.8264  100.5324 H   0  0  0  0  0  0  0  0  0  0  0  0
   59.5126   28.5523   99.5976 H   0  0  0  0  0  0  0  0  0  0  0  0
   59.9110   26.6210  100.6890 H   0  0  0  0  0  0  0  0  0  0  0  0
   58.3250   26.5200  100.2950 H   0  0  0  0  0  0  0  0  0  0  0  0
   57.8401   27.2376  102.7019 H   0  0  0  0  0  0  0  0  0  0  0  0
   58.3763   25.5359  102.3180 H   0  0  0  0  0  0  0  0  0  0  0  0
   59.6571   26.1333  104.1981 H   0  0  0  0  0  0  0  0  0  0  0  0
   60.7530   26.3923  102.7663 H   0  0  0  0  0  0  0  0  0  0  0  0
   62.2444   29.4595  104.6581 H   0  0  0  0  0  0  0  0  0  0  0  0
  1  2  1  0
  2  3  1  0
  3  4  1  0
  4  5  2  0
  5  6  1  0
  6  7  1  0
  7  8  1  0
  8  9  1  0
  9 10  1  0
 10 11  1  0
 11 12  1  0
 12 13  1  0
  6 14  2  0
 14 15  1  0
 15 16  2  0
 16 17  1  0
 16  4  1  0
 13  7  1  0
  1 18  1  0
  1 19  1  0
  1 20  1  0
  2 21  1  0
  2 22  1  0
  5 23  1  0
  8 24  1  0
  8 25  1  0
  9 26  1  0
  9 27  1  0
 10 28  1  0
 10 29  1  0
 11 30  1  0
 11 31  1  0
 12 32  1  0
 12 33  1  0
 13 34  1  0
 13 35  1  0
 14 36  1  0
M  CHG  1  11   1
M  END
>  <meeko>  (3) 
{"is_sidechain": [false], "free_energy": -3.809, "intermolecular_energy": -5.738, "internal_energy": 0.256}

$$$$
3u8n_ligand
     RDKit          3D

 36 37  0  0  0  0  0  0  0  0999 V2000
   64.3060   31.9730  103.9570 C   0  0  0  0  0  0  0  0  0  0  0  0
   64.2290   31.1590  105.2370 C   0  0  0  0  0  0  0  0  0  0  0  0
   62.9240   31.2230  105.8060 O   0  0  0  0  0  0  0  0  0  0  0  0
   62.0760   30.1560  105.7240 C   0  0  0  0  0  0  0  0  0  0  0  0
   61.4530   29.7040  104.5530 C   0  0  0  0  0  0  0  0  0  0  0  0
   60.5810   28.6010  104.5510 C   0  0  0  0  0  0  0  0  0  0  0  0
   59.9880   28.1510  103.3630 N   0  0  0  0  0  0  0  0  0  0  0  0
   59.0800   29.0790  102.6710 C   0  0  0  0  0  0  0  0  0  0  0  0
   59.5290   29.2850  101.2200 C   0  0  0  0  0  0  0  0  0  0  0  0
   59.0110   28.2260  100.2470 C   0  0  0  0  0  0  0  0  0  0  0  0
   59.2510   26.8230  100.7230 N   0  0  0  0  0  0  0  0  0  0  0  0
   58.7150   26.4080  102.0670 C   0  0  0  0  0  0  0  0  0  0  0  0
   59.6850   26.7110  103.2300 C   0  0  0  0  0  0  0  0  0  0  0  0
   60.4110   27.9840  105.7940 C   0  0  0  0  0  0  0  0  0  0  0  0
   60.9900   28.3720  106.9510 N   0  0  0  0  0  0  0  0  0  0  0  0
   61.8040   29.4510  106.8990 C   0  0  0  0  0  0  0  0  0  0  0  0
   62.5930   29.9700  108.5530 Br  0  0  0  0  0  0  0  0  0  0  0  0
   64.4069   33.0396  104.2063 H   0  0  0  0  0  0  0  0  0  0  0  0
   65.1776   31.6499  103.3689 H   0  0  0  0  0  0  0  0  0  0  0  0
   63.3893   31.8190  103.3689 H   0  0  0  0  0  0  0  0  0  0  0  0
   64.4718   30.1101  105.0113 H   0  0  0  0  0  0  0  0  0  0  0  0
   64.9468   31.5742  105.9597 H   0  0  0  0  0  0  0  0  0  0  0  0
   61.6522   30.2280  103.6066 H   0  0  0  0  0  0  0  0  0  0  0  0
   58.0616   28.6633  102.6795 H   0  0  0  0  0  0  0  0  0  0  0  0
   59.0974   30.0484  103.1905 H   0  0  0  0  0  0  0  0  0  0  0  0
   59.1683   30.2683  100.8837 H   0  0  0  0  0  0  0  0  0  0  0  0
   60.6263   29.2088  101.2150 H   0  0  0  0  0  0  0  0  0  0  0  0
   57.9286   28.3709  100.1153 H   0  0  0  0  0  0  0  0  0  0  0  0
   59.5606   28.3509   99.3024 H   0  0  0  0  0  0  0  0  0  0  0  0
   60.2700   26.6800  100.7270 H   0  0  0  0  0  0  0  0  0  0  0  0
   58.8860   26.1690  100.0170 H   0  0  0  0  0  0  0  0  0  0  0  0
   57.7728   26.9459  102.2487 H   0  0  0  0  0  0  0  0  0  0  0  0
   58.5702   25.3179  102.0383 H   0  0  0  0  0  0  0  0  0  0  0  0
   59.2299   26.3596  104.1678 H   0  0  0  0  0  0  0  0  0  0  0  0
   60.6310   26.1921  103.0158 H   0  0  0  0  0  0  0  0  0  0  0  0
   59.7485   27.1068  105.8331 H   0  0  0  0  0  0  0  0  0  0  0  0
  1  2  1  0
  2  3  1  0
  3  4  1  0
  4  5  2  0
  5  6  1  0
  6  7  1  0
  7  8  1  0
  8  9  1  0
  9 10  1  0
 10 11  1  0
 11 12  1  0
 12 13  1  0
  6 14  2  0
 14 15  1  0
 15 16  2  0
 16 17  1  0
 16  4  1  0
 13  7  1  0
  1 18  1  0
  1 19  1  0
  1 20  1  0
  2 21  1  0
  2 22  1  0
  5 23  1  0
  8 24  1  0
  8 25  1  0
  9 26  1  0
  9 27  1  0
 10 28  1  0
 10 29  1  0
 11 30  1  0
 11 31  1  0
 12 32  1  0
 12 33  1  0
 13 34  1  0
 13 35  1  0
 14 36  1  0
M  CHG  1  11   1
M  END
>  <meeko>  (4) 
{"is_sidechain": [false], "free_energy": -3.641, "intermolecular_energy": -5.383, "internal_energy": 0.158}

$$$$
3u8n_ligand
     RDKit          3D

 36 37  0  0  0  0  0  0  0  0999 V2000
   58.5640   31.1610  109.6260 C   0  0  0  0  0  0  0  0  0  0  0  0
   57.8030   29.8480  109.6810 C   0  0  0  0  0  0  0  0  0  0  0  0
   58.6950   28.7380  109.6720 O   0  0  0  0  0  0  0  0  0  0  0  0
   59.4430   28.4540  108.5650 C   0  0  0  0  0  0  0  0  0  0  0  0
   58.9370   28.2720  107.2710 C   0  0  0  0  0  0  0  0  0  0  0  0
   59.7730   27.9700  106.1800 C   0  0  0  0  0  0  0  0  0  0  0  0
   59.2490   27.8170  104.8890 N   0  0  0  0  0  0  0  0  0  0  0  0
   59.9000   26.8330  104.0110 C   0  0  0  0  0  0  0  0  0  0  0  0
   58.9860   26.4810  102.8320 C   0  0  0  0  0  0  0  0  0  0  0  0
   58.8660   27.5750  101.7540 C   0  0  0  0  0  0  0  0  0  0  0  0
   59.7800   28.7470  101.9600 N   0  0  0  0  0  0  0  0  0  0  0  0
   59.5810   29.6230  103.1680 C   0  0  0  0  0  0  0  0  0  0  0  0
   58.6510   28.9960  104.2290 C   0  0  0  0  0  0  0  0  0  0  0  0
   61.1350   27.8950  106.4870 C   0  0  0  0  0  0  0  0  0  0  0  0
   61.6770   28.0680  107.7120 N   0  0  0  0  0  0  0  0  0  0  0  0
   60.8250   28.3360  108.7280 C   0  0  0  0  0  0  0  0  0  0  0  0
   61.6290   28.5630  110.4400 Br  0  0  0  0  0  0  0  0  0  0  0  0
   58.7666   31.5105  110.6491 H   0  0  0  0  0  0  0  0  0  0  0  0
   59.5154   31.0114  109.0945 H   0  0  0  0  0  0  0  0  0  0  0  0
   57.9613   31.9122  109.0945 H   0  0  0  0  0  0  0  0  0  0  0  0
   57.2026   29.8190  110.6022 H   0  0  0  0  0  0  0  0  0  0  0  0
   57.1546   29.7825  108.7949 H   0  0  0  0  0  0  0  0  0  0  0  0
   57.8542   28.3680  107.1030 H   0  0  0  0  0  0  0  0  0  0  0  0
   60.8401   27.2559  103.6271 H   0  0  0  0  0  0  0  0  0  0  0  0
   60.1044   25.9196  104.5889 H   0  0  0  0  0  0  0  0  0  0  0  0
   59.3801   25.5721  102.3538 H   0  0  0  0  0  0  0  0  0  0  0  0
   57.9778   26.3504  103.2520 H   0  0  0  0  0  0  0  0  0  0  0  0
   59.0985   27.1240  100.7780 H   0  0  0  0  0  0  0  0  0  0  0  0
   57.8382   27.9628  101.8115 H   0  0  0  0  0  0  0  0  0  0  0  0
   59.7020   29.3370  101.1200 H   0  0  0  0  0  0  0  0  0  0  0  0
   60.7520   28.4090  101.9660 H   0  0  0  0  0  0  0  0  0  0  0  0
   60.5619   29.8096  103.6296 H   0  0  0  0  0  0  0  0  0  0  0  0
   59.1028   30.5514  102.8226 H   0  0  0  0  0  0  0  0  0  0  0  0
   58.4307   29.7538  104.9953 H   0  0  0  0  0  0  0  0  0  0  0  0
   57.7391   28.6602  103.7135 H   0  0  0  0  0  0  0  0  0  0  0  0
   61.8251   27.6761  105.6589 H   0  0  0  0  0  0  0  0  0  0  0  0
  1  2  1  0
  2  3  1  0
  3  4  1  0
  4  5  2  0
  5  6  1  0
  6  7  1  0
  7  8  1  0
  8  9  1  0
  9 10  1  0
 10 11  1  0
 11 12  1  0
 12 13  1  0
  6 14  2  0
 14 15  1  0
 15 16  2  0
 16 17  1  0
 16  4  1  0
 13  7  1  0
  1 18  1  0
  1 19  1  0
  1 20  1  0
  2 21  1  0
  2 22  1  0
  5 23  1  0
  8 24  1  0
  8 25  1  0
  9 26  1  0
  9 27  1  0
 10 28  1  0
 10 29  1  0
 11 30  1  0
 11 31  1  0
 12 32  1  0
 12 33  1  0
 13 34  1  0
 13 35  1  0
 14 36  1  0
M  CHG  1  11   1
M  END
>  <meeko>  (5) 
{"is_sidechain": [false], "free_energy": -3.575, "intermolecular_energy": -5.175, "internal_energy": 0.051}

$$$$
3u8n_ligand
     RDKit          3D

 36 37  0  0  0  0  0  0  0  0999 V2000
   55.3050   31.0900  109.2930 C   0  0  0  0  0  0  0  0  0  0  0  0
   55.1120   29.6360  108.9020 C   0  0  0  0  0  0  0  0  0  0  0  0
   56.0100   28.7900  109.6150 O   0  0  0  0  0  0  0  0  0  0  0  0
   57.3360   28.7530  109.2900 C   0  0  0  0  0  0  0  0  0  0  0  0
   57.8550   28.3890  108.0410 C   0  0  0  0  0  0  0  0  0  0  0  0
   59.2390   28.3650  107.7870 C   0  0  0  0  0  0  0  0  0  0  0  0
   59.7350   28.0220  106.5210 N   0  0  0  0  0  0  0  0  0  0  0  0
   61.1680   28.2420  106.2780 C   0  0  0  0  0  0  0  0  0  0  0  0
   61.3860   29.5560  105.5200 C   0  0  0  0  0  0  0  0  0  0  0  0
   60.9890   29.5160  104.0360 C   0  0  0  0  0  0  0  0  0  0  0  0
   60.6300   28.1450  103.5440 N   0  0  0  0  0  0  0  0  0  0  0  0
   59.3960   27.4760  104.0880 C   0  0  0  0  0  0  0  0  0  0  0  0
   58.8390   28.1610  105.3550 C   0  0  0  0  0  0  0  0  0  0  0  0
   60.0400   28.7560  108.8630 C   0  0  0  0  0  0  0  0  0  0  0  0
   59.5950   29.1220  110.0850 N   0  0  0  0  0  0  0  0  0  0  0  0
   58.2560   29.1080  110.2800 C   0  0  0  0  0  0  0  0  0  0  0  0
   57.6710   29.6220  112.0180 Br  0  0  0  0  0  0  0  0  0  0  0  0
   55.3165   31.1764  110.3895 H   0  0  0  0  0  0  0  0  0  0  0  0
   56.2595   31.4554  108.8864 H   0  0  0  0  0  0  0  0  0  0  0  0
   54.4789   31.6918  108.8864 H   0  0  0  0  0  0  0  0  0  0  0  0
   54.0784   29.3366  109.1303 H   0  0  0  0  0  0  0  0  0  0  0  0
   55.3151   29.5335  107.8258 H   0  0  0  0  0  0  0  0  0  0  0  0
   57.1598   28.1136  107.2343 H   0  0  0  0  0  0  0  0  0  0  0  0
   61.6962   28.2877  107.2418 H   0  0  0  0  0  0  0  0  0  0  0  0
   61.5586   27.4114  105.6718 H   0  0  0  0  0  0  0  0  0  0  0  0
   60.7904   30.3385  106.0128 H   0  0  0  0  0  0  0  0  0  0  0  0
   62.4678   29.7536  105.5465 H   0  0  0  0  0  0  0  0  0  0  0  0
   60.1205   30.1753  103.8911 H   0  0  0  0  0  0  0  0  0  0  0  0
   61.8665   29.8445  103.4598 H   0  0  0  0  0  0  0  0  0  0  0  0
   61.4360   27.5360  103.7410 H   0  0  0  0  0  0  0  0  0  0  0  0
   60.5530   28.1720  102.5180 H   0  0  0  0  0  0  0  0  0  0  0  0
   58.6178   27.4934  103.3108 H   0  0  0  0  0  0  0  0  0  0  0  0
   59.6779   26.4505  104.3688 H   0  0  0  0  0  0  0  0  0  0  0  0
   58.7004   29.2316  105.1438 H   0  0  0  0  0  0  0  0  0  0  0  0
   57.8882   27.6687  105.6071 H   0  0  0  0  0  0  0  0  0  0  0  0
   61.1280   28.7668  108.7010 H   0  0  0  0  0  0  0  0  0  0  0  0
  1  2  1  0
  2  3  1  0
  3  4  1  0
  4  5  2  0
  5  6  1  0
  6  7  1  0
  7  8  1  0
  8  9  1  0
  9 10  1  0
 10 11  1  0
 11 12  1  0
 12 13  1  0
  6 14  2  0
 14 15  1  0
 15 16  2  0
 16 17  1  0
 16  4  1  0
 13  7  1  0
  1 18  1  0
  1 19  1  0
  1 20  1  0
  2 21  1  0
  2 22  1  0
  5 23  1  0
  8 24  1  0
  8 25  1  0
  9 26  1  0
  9 27  1  0
 10 28  1  0
 10 29  1  0
 11 30  1  0
 11 31  1  0
 12 32  1  0
 12 33  1  0
 13 34  1  0
 13 35  1  0
 14 36  1  0
M  CHG  1  11   1
M  END
>  <meeko>  (6) 
{"is_sidechain": [false], "free_energy": -3.482, "intermolecular_energy": -5.008, "internal_energy": 0.026}

$$$$
3u8n_ligand
     RDKit          3D

 36 37  0  0  0  0  0  0  0  0999 V2000
   51.7120   24.7110  101.1400 C   0  0  0  0  0  0  0  0  0  0  0  0
   53.2230   24.7080  100.9940 C   0  0  0  0  0  0  0  0  0  0  0  0
   53.8540   24.2930  102.2020 O   0  0  0  0  0  0  0  0  0  0  0  0
   55.2090   24.1340  102.2610 C   0  0  0  0  0  0  0  0  0  0  0  0
   56.1540   25.1470  102.0500 C   0  0  0  0  0  0  0  0  0  0  0  0
   57.5370   24.9000  102.1180 C   0  0  0  0  0  0  0  0  0  0  0  0
   58.4650   25.9350  101.9270 N   0  0  0  0  0  0  0  0  0  0  0  0
   59.3210   26.2900  103.0690 C   0  0  0  0  0  0  0  0  0  0  0  0
   58.7900   27.5490  103.7640 C   0  0  0  0  0  0  0  0  0  0  0  0
   59.0320   28.8500  103.0220 C   0  0  0  0  0  0  0  0  0  0  0  0
   59.8760   28.6900  101.7920 N   0  0  0  0  0  0  0  0  0  0  0  0
   59.3270   27.9100  100.6270 C   0  0  0  0  0  0  0  0  0  0  0  0
   58.1140   27.0300  101.0000 C   0  0  0  0  0  0  0  0  0  0  0  0
   57.8850   23.5850  102.4360 C   0  0  0  0  0  0  0  0  0  0  0  0
   57.0180   22.5720  102.6550 N   0  0  0  0  0  0  0  0  0  0  0  0
   55.7000   22.8610  102.5580 C   0  0  0  0  0  0  0  0  0  0  0  0
   54.5120   21.4030  102.8660 Br  0  0  0  0  0  0  0  0  0  0  0  0
   51.4468   24.7115  102.2075 H   0  0  0  0  0  0  0  0  0  0  0  0
   51.2989   25.6100  100.6591 H   0  0  0  0  0  0  0  0  0  0  0  0
   51.2954   23.8137  100.6591 H   0  0  0  0  0  0  0  0  0  0  0  0
   53.5045   24.0169  100.1858 H   0  0  0  0  0  0  0  0  0  0  0  0
   53.5536   25.7309  100.7606 H   0  0  0  0  0  0  0  0  0  0  0  0
   55.8039   26.1652  101.8246 H   0  0  0  0  0  0  0  0  0  0  0  0
   59.3314   25.4567  103.7870 H   0  0  0  0  0  0  0  0  0  0  0  0
   60.3397   26.4869  102.7037 H   0  0  0  0  0  0  0  0  0  0  0  0
   57.7046   27.4310  103.8980 H   0  0  0  0  0  0  0  0  0  0  0  0
   59.3446   27.6309  104.7104 H   0  0  0  0  0  0  0  0  0  0  0  0
   58.0587   29.2672  102.7244 H   0  0  0  0  0  0  0  0  0  0  0  0
   59.5799   29.5151  103.7058 H   0  0  0  0  0  0  0  0  0  0  0  0
   60.7550   28.2440  102.0890 H   0  0  0  0  0  0  0  0  0  0  0  0
   60.1450   29.6240  101.4530 H   0  0  0  0  0  0  0  0  0  0  0  0
   59.0166   28.6201   99.8463 H   0  0  0  0  0  0  0  0  0  0  0  0
   60.1246   27.2364  100.2803 H   0  0  0  0  0  0  0  0  0  0  0  0
   57.3530   27.6646  101.4777 H   0  0  0  0  0  0  0  0  0  0  0  0
   57.7395   26.5718  100.0727 H   0  0  0  0  0  0  0  0  0  0  0  0
   58.9576   23.3542  102.5149 H   0  0  0  0  0  0  0  0  0  0  0  0
  1  2  1  0
  2  3  1  0
  3  4  1  0
  4  5  2  0
  5  6  1  0
  6  7  1  0
  7  8  1  0
  8  9  1  0
  9 10  1  0
 10 11  1  0
 11 12  1  0
 12 13  1  0
  6 14  2  0
 14 15  1  0
 15 16  2  0
 16 17  1  0
 16  4  1  0
 13  7  1  0
  1 18  1  0
  1 19  1  0
  1 20  1  0
  2 21  1  0
  2 22  1  0
  5 23  1  0
  8 24  1  0
  8 25  1  0
  9 26  1  0
  9 27  1  0
 10 28  1  0
 10 29  1  0
 11 30  1  0
 11 31  1  0
 12 32  1  0
 12 33  1  0
 13 34  1  0
 13 35  1  0
 14 36  1  0
M  CHG  1  11   1
M  END
>  <meeko>  (7) 
{"is_sidechain": [false], "free_energy": -3.433, "intermolecular_energy": -5.042, "internal_energy": 0.135}

$$$$
3u8n_ligand
     RDKit          3D

 36 37  0  0  0  0  0  0  0  0999 V2000
   56.3950   29.5490  111.1850 C   0  0  0  0  0  0  0  0  0  0  0  0
   57.2410   29.9290  109.9830 C   0  0  0  0  0  0  0  0  0  0  0  0
   58.6280   29.9250  110.3120 O   0  0  0  0  0  0  0  0  0  0  0  0
   59.5260   29.2540  109.5320 C   0  0  0  0  0  0  0  0  0  0  0  0
   59.3660   28.9740  108.1690 C   0  0  0  0  0  0  0  0  0  0  0  0
   60.3360   28.2660  107.4360 C   0  0  0  0  0  0  0  0  0  0  0  0
   60.1660   28.0180  106.0660 N   0  0  0  0  0  0  0  0  0  0  0  0
   58.8330   28.2710  105.4970 C   0  0  0  0  0  0  0  0  0  0  0  0
   58.9170   29.3210  104.3840 C   0  0  0  0  0  0  0  0  0  0  0  0
   59.4410   28.8030  103.0450 C   0  0  0  0  0  0  0  0  0  0  0  0
   60.0070   27.4160  103.1310 N   0  0  0  0  0  0  0  0  0  0  0  0
   61.2470   27.1840  103.9520 C   0  0  0  0  0  0  0  0  0  0  0  0
   60.9520   26.9320  105.4460 C   0  0  0  0  0  0  0  0  0  0  0  0
   61.4690   27.8940  108.1640 C   0  0  0  0  0  0  0  0  0  0  0  0
   61.6780   28.1430  109.4760 N   0  0  0  0  0  0  0  0  0  0  0  0
   60.7050   28.8100  110.1370 C   0  0  0  0  0  0  0  0  0  0  0  0
   61.0360   29.1330  111.9850 Br  0  0  0  0  0  0  0  0  0  0  0  0
   56.9397   29.7937  112.1088 H   0  0  0  0  0  0  0  0  0  0  0  0
   55.4482   30.1083  111.1585 H   0  0  0  0  0  0  0  0  0  0  0  0
   56.1842   28.4697  111.1585 H   0  0  0  0  0  0  0  0  0  0  0  0
   57.0613   29.2060  109.1737 H   0  0  0  0  0  0  0  0  0  0  0  0
   56.9598   30.9433  109.6634 H   0  0  0  0  0  0  0  0  0  0  0  0
   58.4553   29.3177  107.6567 H   0  0  0  0  0  0  0  0  0  0  0  0
   58.4325   27.3343  105.0820 H   0  0  0  0  0  0  0  0  0  0  0  0
   58.1714   28.6461  106.2918 H   0  0  0  0  0  0  0  0  0  0  0  0
   57.9078   29.7272  104.2213 H   0  0  0  0  0  0  0  0  0  0  0  0
   59.6414   30.0746  104.7266 H   0  0  0  0  0  0  0  0  0  0  0  0
   58.6115   28.7984  102.3226 H   0  0  0  0  0  0  0  0  0  0  0  0
   60.2566   29.4711  102.7314 H   0  0  0  0  0  0  0  0  0  0  0  0
   60.2000   27.1120  102.1670 H   0  0  0  0  0  0  0  0  0  0  0  0
   59.2730   26.7820  103.4750 H   0  0  0  0  0  0  0  0  0  0  0  0
   61.7745   26.3075  103.5476 H   0  0  0  0  0  0  0  0  0  0  0  0
   61.8547   28.0988  103.8898 H   0  0  0  0  0  0  0  0  0  0  0  0
   60.3875   25.9925  105.5390 H   0  0  0  0  0  0  0  0  0  0  0  0
   61.9178   26.8818  105.9701 H   0  0  0  0  0  0  0  0  0  0  0  0
   62.2587   27.3520  107.6230 H   0  0  0  0  0  0  0  0  0  0  0  0
  1  2  1  0
  2  3  1  0
  3  4  1  0
  4  5  2  0
  5  6  1  0
  6  7  1  0
  7  8  1  0
  8  9  1  0
  9 10  1  0
 10 11  1  0
 11 12  1  0
 12 13  1  0
  6 14  2  0
 14 15  1  0
 15 16  2  0
 16 17  1  0
 16  4  1  0
 13  7  1  0
  1 18  1  0
  1 19  1  0
  1 20  1  0
  2 21  1  0
  2 22  1  0
  5 23  1  0
  8 24  1  0
  8 25  1  0
  9 26  1  0
  9 27  1  0
 10 28  1  0
 10 29  1  0
 11 30  1  0
 11 31  1  0
 12 32  1  0
 12 33  1  0
 13 34  1  0
 13 35  1  0
 14 36  1  0
M  CHG  1  11   1
M  END
>  <meeko>  (8) 
{"is_sidechain": [false], "free_energy": -3.411, "intermolecular_energy": -4.981, "internal_energy": 0.106}

$$$$
3u8n_ligand
     RDKit          3D

 36 37  0  0  0  0  0  0  0  0999 V2000
   63.6100   31.1600  111.0340 C   0  0  0  0  0  0  0  0  0  0  0  0
   62.8090   30.6600  109.8450 C   0  0  0  0  0  0  0  0  0  0  0  0
   61.9540   29.5830  110.2210 O   0  0  0  0  0  0  0  0  0  0  0  0
   60.8770   29.2480  109.4510 C   0  0  0  0  0  0  0  0  0  0  0  0
   60.9250   28.9170  108.0900 C   0  0  0  0  0  0  0  0  0  0  0  0
   59.7660   28.5930  107.3620 C   0  0  0  0  0  0  0  0  0  0  0  0
   59.8400   28.2410  106.0060 N   0  0  0  0  0  0  0  0  0  0  0  0
   58.6410   28.4670  105.1860 C   0  0  0  0  0  0  0  0  0  0  0  0
   58.9580   29.4200  104.0270 C   0  0  0  0  0  0  0  0  0  0  0  0
   59.7210   28.7940  102.8530 C   0  0  0  0  0  0  0  0  0  0  0  0
   60.2490   27.4180  103.1370 N   0  0  0  0  0  0  0  0  0  0  0  0
   61.2930   27.2450  104.2080 C   0  0  0  0  0  0  0  0  0  0  0  0
   60.6950   27.0980  105.6230 C   0  0  0  0  0  0  0  0  0  0  0  0
   58.5820   28.6030  108.1050 C   0  0  0  0  0  0  0  0  0  0  0  0
   58.4790   28.9070  109.4170 N   0  0  0  0  0  0  0  0  0  0  0  0
   59.6220   29.2300  110.0640 C   0  0  0  0  0  0  0  0  0  0  0  0
   59.4310   29.6620  111.9100 Br  0  0  0  0  0  0  0  0  0  0  0  0
   63.1145   30.8507  111.9661 H   0  0  0  0  0  0  0  0  0  0  0  0
   64.6235   30.7339  110.9986 H   0  0  0  0  0  0  0  0  0  0  0  0
   63.6723   32.2577  110.9986 H   0  0  0  0  0  0  0  0  0  0  0  0
   62.1967   31.4847  109.4514 H   0  0  0  0  0  0  0  0  0  0  0  0
   63.5095   30.2995  109.0774 H   0  0  0  0  0  0  0  0  0  0  0  0
   61.8976   28.9104  107.5761 H   0  0  0  0  0  0  0  0  0  0  0  0
   58.2930   27.5057  104.7800 H   0  0  0  0  0  0  0  0  0  0  0  0
   57.8585   28.9173  105.8145 H   0  0  0  0  0  0  0  0  0  0  0  0
   58.0063   29.8148  103.6418 H   0  0  0  0  0  0  0  0  0  0  0  0
   59.6206   30.1936  104.4422 H   0  0  0  0  0  0  0  0  0  0  0  0
   59.0408   28.7331  101.9906 H   0  0  0  0  0  0  0  0  0  0  0  0
   60.5920   29.4370  102.6584 H   0  0  0  0  0  0  0  0  0  0  0  0
   60.6350   27.0590  102.2530 H   0  0  0  0  0  0  0  0  0  0  0  0
   59.4560   26.8020  103.3600 H   0  0  0  0  0  0  0  0  0  0  0  0
   61.8801   26.3428  103.9813 H   0  0  0  0  0  0  0  0  0  0  0  0
   61.9138   28.1531  104.2086 H   0  0  0  0  0  0  0  0  0  0  0  0
   60.0895   26.1802  105.6549 H   0  0  0  0  0  0  0  0  0  0  0  0
   61.5334   27.0592  106.3340 H   0  0  0  0  0  0  0  0  0  0  0  0
   57.6542   28.3407  107.5755 H   0  0  0  0  0  0  0  0  0  0  0  0
  1  2  1  0
  2  3  1  0
  3  4  1  0
  4  5  2  0
  5  6  1  0
  6  7  1  0
  7  8  1  0
  8  9  1  0
  9 10  1  0
 10 11  1  0
 11 12  1  0
 12 13  1  0
  6 14  2  0
 14 15  1  0
 15 16  2  0
 16 17  1  0
 16  4  1  0
 13  7  1  0
  1 18  1  0
  1 19  1  0
  1 20  1  0
  2 21  1  0
  2 22  1  0
  5 23  1  0
  8 24  1  0
  8 25  1  0
  9 26  1  0
  9 27  1  0
 10 28  1  0
 10 29  1  0
 11 30  1  0
 11 31  1  0
 12 32  1  0
 12 33  1  0
 13 34  1  0
 13 35  1  0
 14 36  1  0
M  CHG  1  11   1
M  END
>  <meeko>  (9) 
{"is_sidechain": [false], "free_energy": -3.382, "intermolecular_energy": -4.951, "internal_energy": 0.121}

$$$$
