3acw_ligand
     RDKit          3D

 43 46  0  0  0  0  0  0  0  0999 V2000
   54.9020   13.5290   53.9720 O   0  0  0  0  0  0  0  0  0  0  0  0
   55.8520   13.7430   52.9130 C   0  0  2  0  0  0  0  0  0  0  0  0
   56.3250   15.1860   53.0280 C   0  0  0  0  0  0  0  0  0  0  0  0
   55.9380   16.1180   52.0450 C   0  0  0  0  0  0  0  0  0  0  0  0
   56.3400   17.4570   52.1110 C   0  0  0  0  0  0  0  0  0  0  0  0
   57.1320   17.9220   53.1670 C   0  0  0  0  0  0  0  0  0  0  0  0
   57.5550   19.3300   53.2390 C   0  0  0  0  0  0  0  0  0  0  0  0
   58.4450   19.7680   54.2340 C   0  0  0  0  0  0  0  0  0  0  0  0
   58.8460   21.1050   54.3040 C   0  0  0  0  0  0  0  0  0  0  0  0
   58.3650   22.0270   53.3790 C   0  0  0  0  0  0  0  0  0  0  0  0
   57.4830   21.6140   52.3840 C   0  0  0  0  0  0  0  0  0  0  0  0
   57.0810   20.2770   52.3160 C   0  0  0  0  0  0  0  0  0  0  0  0
   57.5000   17.0020   54.1580 C   0  0  0  0  0  0  0  0  0  0  0  0
   57.0980   15.6610   54.0960 C   0  0  0  0  0  0  0  0  0  0  0  0
   55.1100   13.4910   51.5550 C   0  0  0  0  0  0  0  0  0  0  0  0
   55.4540   12.0890   51.0400 N   0  0  2  0  0  0  0  0  0  0  0  0
   55.1860   11.0530   52.1150 C   0  0  0  0  0  0  0  0  0  0  0  0
   56.2100   11.2500   53.2310 C   0  0  0  0  0  0  0  0  0  0  0  0
   56.9270   12.6130   53.0600 C   0  0  1  0  0  0  0  0  0  0  0  0
   57.7700   12.5050   51.7680 C   0  0  0  0  0  0  0  0  0  0  0  0
   56.8990   12.0480   50.5950 C   0  0  0  0  0  0  0  0  0  0  0  0
   55.0670   14.1930   54.6710 H   0  0  0  0  0  0  0  0  0  0  0  0
   55.3064   15.7863   51.2077 H   0  0  0  0  0  0  0  0  0  0  0  0
   56.0284   18.1551   51.3201 H   0  0  0  0  0  0  0  0  0  0  0  0
   58.8322   19.0474   54.9694 H   0  0  0  0  0  0  0  0  0  0  0  0
   59.5427   21.4290   55.0912 H   0  0  0  0  0  0  0  0  0  0  0  0
   58.6808   23.0792   53.4339 H   0  0  0  0  0  0  0  0  0  0  0  0
   57.1023   22.3404   51.6509 H   0  0  0  0  0  0  0  0  0  0  0  0
   56.3823   19.9613   51.5272 H   0  0  0  0  0  0  0  0  0  0  0  0
   58.1179   17.3399   55.0030 H   0  0  0  0  0  0  0  0  0  0  0  0
   57.3941   14.9698   54.8989 H   0  0  0  0  0  0  0  0  0  0  0  0
   54.0238   13.5688   51.7103 H   0  0  0  0  0  0  0  0  0  0  0  0
   55.4285   14.2421   50.8171 H   0  0  0  0  0  0  0  0  0  0  0  0
   54.8480   11.8850   50.2350 H   0  0  0  0  0  0  0  0  0  0  0  0
   54.1696   11.1847   52.5144 H   0  0  0  0  0  0  0  0  0  0  0  0
   55.2697   10.0393   51.6961 H   0  0  0  0  0  0  0  0  0  0  0  0
   55.6969   11.2281   54.2038 H   0  0  0  0  0  0  0  0  0  0  0  0
   56.9552   10.4423   53.1831 H   0  0  0  0  0  0  0  0  0  0  0  0
   57.5640   12.8537   53.9239 H   0  0  0  0  0  0  0  0  0  0  0  0
   58.2031   13.4890   51.5352 H   0  0  0  0  0  0  0  0  0  0  0  0
   58.5694   11.7661   51.9260 H   0  0  0  0  0  0  0  0  0  0  0  0
   57.0445   12.7216   49.7377 H   0  0  0  0  0  0  0  0  0  0  0  0
   57.1753   11.0281   50.2894 H   0  0  0  0  0  0  0  0  0  0  0  0
  2  1  1  1
  2  3  1  0
  3  4  2  0
  4  5  1  0
  5  6  2  0
  6  7  1  0
  7  8  2  0
  8  9  1  0
  9 10  2  0
 10 11  1  0
 11 12  2  0
  6 13  1  0
 13 14  2  0
  2 15  1  0
 15 16  1  0
 16 17  1  0
 17 18  1  0
 18 19  1  0
 19 20  1  0
 20 21  1  0
 19  2  1  0
 14  3  1  0
 21 16  1  0
 12  7  1  0
  1 22  1  0
  4 23  1  0
  5 24  1  0
  8 25  1  0
  9 26  1  0
 10 27  1  0
 11 28  1  0
 12 29  1  0
 13 30  1  0
 14 31  1  0
 15 32  1  0
 15 33  1  0
 16 34  1  1
 17 35  1  0
 17 36  1  0
 18 37  1  0
 18 38  1  0
 19 39  1  6
 20 40  1  0
 20 41  1  0
 21 42  1  0
 21 43  1  0
M  CHG  1  16   1
M  END
>  <meeko>  (1) 
{"is_sidechain": [false], "free_energy": -10.92, "intermolecular_energy": -12.516, "internal_energy": -0.762}

$$$$
3acw_ligand
     RDKit          3D

 43 46  0  0  0  0  0  0  0  0999 V2000
   56.8100   12.4900   51.0630 O   0  0  0  0  0  0  0  0  0  0  0  0
   56.0720   12.9180   52.2210 C   0  0  2  0  0  0  0  0  0  0  0  0
   56.4190   14.3840   52.4510 C   0  0  0  0  0  0  0  0  0  0  0  0
   55.9720   15.3490   51.5280 C   0  0  0  0  0  0  0  0  0  0  0  0
   56.2580   16.7080   51.6990 C   0  0  0  0  0  0  0  0  0  0  0  0
   56.9890   17.1600   52.8050 C   0  0  0  0  0  0  0  0  0  0  0  0
   57.2890   18.5890   52.9880 C   0  0  0  0  0  0  0  0  0  0  0  0
   57.8470   19.0630   54.1870 C   0  0  0  0  0  0  0  0  0  0  0  0
   58.1320   20.4200   54.3620 C   0  0  0  0  0  0  0  0  0  0  0  0
   57.8640   21.3260   53.3400 C   0  0  0  0  0  0  0  0  0  0  0  0
   57.3130   20.8770   52.1430 C   0  0  0  0  0  0  0  0  0  0  0  0
   57.0270   19.5210   51.9700 C   0  0  0  0  0  0  0  0  0  0  0  0
   57.4150   16.2030   53.7360 C   0  0  0  0  0  0  0  0  0  0  0  0
   57.1290   14.8410   53.5680 C   0  0  0  0  0  0  0  0  0  0  0  0
   56.5280   12.0270   53.4280 C   0  0  0  0  0  0  0  0  0  0  0  0
   55.4900   10.9260   53.6670 N   0  0  2  0  0  0  0  0  0  0  0  0
   55.2200   10.1680   52.3810 C   0  0  0  0  0  0  0  0  0  0  0  0
   54.4850   11.1040   51.4230 C   0  0  0  0  0  0  0  0  0  0  0  0
   54.5720   12.5640   51.9360 C   0  0  1  0  0  0  0  0  0  0  0  0
   53.7510   12.6180   53.2450 C   0  0  0  0  0  0  0  0  0  0  0  0
   54.2190   11.5310   54.2180 C   0  0  0  0  0  0  0  0  0  0  0  0
   57.1120   13.2860   50.5810 H   0  0  0  0  0  0  0  0  0  0  0  0
   55.3858   15.0278   50.6544 H   0  0  0  0  0  0  0  0  0  0  0  0
   55.9028   17.4335   50.9524 H   0  0  0  0  0  0  0  0  0  0  0  0
   58.0630   18.3551   55.0008 H   0  0  0  0  0  0  0  0  0  0  0  0
   58.5685   20.7723   55.3082 H   0  0  0  0  0  0  0  0  0  0  0  0
   58.0870   22.3943   53.4778 H   0  0  0  0  0  0  0  0  0  0  0  0
   57.1027   21.5908   51.3329 H   0  0  0  0  0  0  0  0  0  0  0  0
   56.5895   19.1771   51.0212 H   0  0  0  0  0  0  0  0  0  0  0  0
   57.9864   16.5278   54.6180 H   0  0  0  0  0  0  0  0  0  0  0  0
   57.4679   14.1195   54.3260 H   0  0  0  0  0  0  0  0  0  0  0  0
   57.5021   11.5699   53.1996 H   0  0  0  0  0  0  0  0  0  0  0  0
   56.6190   12.6490   54.3307 H   0  0  0  0  0  0  0  0  0  0  0  0
   55.8750   10.2660   54.3570 H   0  0  0  0  0  0  0  0  0  0  0  0
   56.1709    9.8461   51.9314 H   0  0  0  0  0  0  0  0  0  0  0  0
   54.6093    9.2763   52.5856 H   0  0  0  0  0  0  0  0  0  0  0  0
   54.9460   11.0402   50.4263 H   0  0  0  0  0  0  0  0  0  0  0  0
   53.4282   10.8042   51.3656 H   0  0  0  0  0  0  0  0  0  0  0  0
   54.1818   13.2826   51.2002 H   0  0  0  0  0  0  0  0  0  0  0  0
   53.8822   13.6043   53.7140 H   0  0  0  0  0  0  0  0  0  0  0  0
   52.6905   12.4491   53.0067 H   0  0  0  0  0  0  0  0  0  0  0  0
   54.4140   11.9734   55.2061 H   0  0  0  0  0  0  0  0  0  0  0  0
   53.4444   10.7578   54.3281 H   0  0  0  0  0  0  0  0  0  0  0  0
  2  1  1  6
  2  3  1  0
  3  4  2  0
  4  5  1  0
  5  6  2  0
  6  7  1  0
  7  8  2  0
  8  9  1  0
  9 10  2  0
 10 11  1  0
 11 12  2  0
  6 13  1  0
 13 14  2  0
  2 15  1  0
 15 16  1  0
 16 17  1  0
 17 18  1  0
 18 19  1  0
 19 20  1  0
 20 21  1  0
 19  2  1  0
 14  3  1  0
 21 16  1  0
 12  7  1  0
  1 22  1  0
  4 23  1  0
  5 24  1  0
  8 25  1  0
  9 26  1  0
 10 27  1  0
 11 28  1  0
 12 29  1  0
 13 30  1  0
 14 31  1  0
 15 32  1  0
 15 33  1  0
 16 34  1  6
 17 35  1  0
 17 36  1  0
 18 37  1  0
 18 38  1  0
 19 39  1  1
 20 40  1  0
 20 41  1  0
 21 42  1  0
 21 43  1  0
M  CHG  1  16   1
M  END
>  <meeko>  (2) 
{"is_sidechain": [false], "free_energy": -10.429, "intermolecular_energy": -11.948, "internal_energy": -0.767}

$$$$
3acw_ligand
     RDKit          3D

 43 46  0  0  0  0  0  0  0  0999 V2000
   54.0420   12.6570   51.5760 O   0  0  0  0  0  0  0  0  0  0  0  0
   55.3790   12.5820   52.1040 C   0  0  2  0  0  0  0  0  0  0  0  0
   55.8380   14.0120   52.3530 C   0  0  0  0  0  0  0  0  0  0  0  0
   55.7550   14.9540   51.3090 C   0  0  0  0  0  0  0  0  0  0  0  0
   56.1570   16.2810   51.4910 C   0  0  0  0  0  0  0  0  0  0  0  0
   56.6440   16.7270   52.7260 C   0  0  0  0  0  0  0  0  0  0  0  0
   57.0650   18.1230   52.9210 C   0  0  0  0  0  0  0  0  0  0  0  0
   57.5150   18.5760   54.1720 C   0  0  0  0  0  0  0  0  0  0  0  0
   57.9150   19.9020   54.3580 C   0  0  0  0  0  0  0  0  0  0  0  0
   57.8720   20.7990   53.2940 C   0  0  0  0  0  0  0  0  0  0  0  0
   57.4300   20.3710   52.0450 C   0  0  0  0  0  0  0  0  0  0  0  0
   57.0300   19.0450   51.8610 C   0  0  0  0  0  0  0  0  0  0  0  0
   56.7050   15.7970   53.7730 C   0  0  0  0  0  0  0  0  0  0  0  0
   56.3030   14.4660   53.5940 C   0  0  0  0  0  0  0  0  0  0  0  0
   56.2720   11.8740   51.0270 C   0  0  0  0  0  0  0  0  0  0  0  0
   56.4650   10.4030   51.4130 N   0  0  2  0  0  0  0  0  0  0  0  0
   55.1210    9.7430   51.6600 C   0  0  0  0  0  0  0  0  0  0  0  0
   54.5270   10.3390   52.9350 C   0  0  0  0  0  0  0  0  0  0  0  0
   55.3050   11.6170   53.3370 C   0  0  1  0  0  0  0  0  0  0  0  0
   56.7240   11.1570   53.7430 C   0  0  0  0  0  0  0  0  0  0  0  0
   57.3500   10.3060   52.6350 C   0  0  0  0  0  0  0  0  0  0  0  0
   53.9340   11.9450   50.9150 H   0  0  0  0  0  0  0  0  0  0  0  0
   55.3656   14.6391   50.3296 H   0  0  0  0  0  0  0  0  0  0  0  0
   56.0895   16.9865   50.6498 H   0  0  0  0  0  0  0  0  0  0  0  0
   57.5532   17.8755   55.0193 H   0  0  0  0  0  0  0  0  0  0  0  0
   58.2641   20.2373   55.3458 H   0  0  0  0  0  0  0  0  0  0  0  0
   58.1864   21.8430   53.4398 H   0  0  0  0  0  0  0  0  0  0  0  0
   57.3957   21.0774   51.2024 H   0  0  0  0  0  0  0  0  0  0  0  0
   56.6820   18.7174   50.8703 H   0  0  0  0  0  0  0  0  0  0  0  0
   57.0766   16.1188   54.7571 H   0  0  0  0  0  0  0  0  0  0  0  0
   56.3535   13.7668   54.4417 H   0  0  0  0  0  0  0  0  0  0  0  0
   55.7799   11.9343   50.0450 H   0  0  0  0  0  0  0  0  0  0  0  0
   57.2514   12.3722   50.9765 H   0  0  0  0  0  0  0  0  0  0  0  0
   56.9220    9.9220   50.6270 H   0  0  0  0  0  0  0  0  0  0  0  0
   54.4493    9.9354   50.8104 H   0  0  0  0  0  0  0  0  0  0  0  0
   55.2448    8.6555   51.7693 H   0  0  0  0  0  0  0  0  0  0  0  0
   53.4718   10.5953   52.7596 H   0  0  0  0  0  0  0  0  0  0  0  0
   54.6025    9.6008   53.7470 H   0  0  0  0  0  0  0  0  0  0  0  0
   54.8162   12.1522   54.1644 H   0  0  0  0  0  0  0  0  0  0  0  0
   57.3542   12.0410   53.9201 H   0  0  0  0  0  0  0  0  0  0  0  0
   56.6531   10.5519   54.6589 H   0  0  0  0  0  0  0  0  0  0  0  0
   58.3558   10.6832   52.3981 H   0  0  0  0  0  0  0  0  0  0  0  0
   57.4369    9.2590   52.9610 H   0  0  0  0  0  0  0  0  0  0  0  0
  2  1  1  6
  2  3  1  0
  3  4  2  0
  4  5  1  0
  5  6  2  0
  6  7  1  0
  7  8  2  0
  8  9  1  0
  9 10  2  0
 10 11  1  0
 11 12  2  0
  6 13  1  0
 13 14  2  0
  2 15  1  0
 15 16  1  0
 16 17  1  0
 17 18  1  0
 18 19  1  0
 19 20  1  0
 20 21  1  0
 19  2  1  0
 14  3  1  0
 21 16  1  0
 12  7  1  0
  1 22  1  0
  4 23  1  0
  5 24  1  0
  8 25  1  0
  9 26  1  0
 10 27  1  0
 11 28  1  0
 12 29  1  0
 13 30  1  0
 14 31  1  0
 15 32  1  0
 15 33  1  0
 16 34  1  1
 17 35  1  0
 17 36  1  0
 18 37  1  0
 18 38  1  0
 19 39  1  6
 20 40  1  0
 20 41  1  0
 21 42  1  0
 21 43  1  0
M  CHG  1  16   1
M  END
>  <meeko>  (3) 
{"is_sidechain": [false], "free_energy": -9.825, "intermolecular_energy": -11.494, "internal_energy": -0.529}

$$$$
3acw_ligand
     RDKit          3D

 43 46  0  0  0  0  0  0  0  0999 V2000
   56.4970   10.7320   51.9330 O   0  0  0  0  0  0  0  0  0  0  0  0
   55.3430   11.4540   52.3990 C   0  0  2  0  0  0  0  0  0  0  0  0
   55.7640   12.9100   52.5520 C   0  0  0  0  0  0  0  0  0  0  0  0
   56.3940   13.3230   53.7420 C   0  0  0  0  0  0  0  0  0  0  0  0
   56.8070   14.6470   53.9260 C   0  0  0  0  0  0  0  0  0  0  0  0
   56.6200   15.6090   52.9260 C   0  0  0  0  0  0  0  0  0  0  0  0
   57.0550   17.0020   53.1180 C   0  0  0  0  0  0  0  0  0  0  0  0
   57.9580   17.3440   54.1370 C   0  0  0  0  0  0  0  0  0  0  0  0
   58.3710   18.6670   54.3200 C   0  0  0  0  0  0  0  0  0  0  0  0
   57.8880   19.6700   53.4840 C   0  0  0  0  0  0  0  0  0  0  0  0
   56.9930   19.3520   52.4660 C   0  0  0  0  0  0  0  0  0  0  0  0
   56.5800   18.0300   52.2860 C   0  0  0  0  0  0  0  0  0  0  0  0
   56.0140   15.1950   51.7320 C   0  0  0  0  0  0  0  0  0  0  0  0
   55.6000   13.8690   51.5440 C   0  0  0  0  0  0  0  0  0  0  0  0
   54.9210   10.8330   53.7750 C   0  0  0  0  0  0  0  0  0  0  0  0
   53.7410    9.8790   53.5620 N   0  0  2  0  0  0  0  0  0  0  0  0
   54.0710    8.8670   52.4810 C   0  0  0  0  0  0  0  0  0  0  0  0
   54.1380    9.6040   51.1450 C   0  0  0  0  0  0  0  0  0  0  0  0
   54.1920   11.1350   51.3840 C   0  0  1  0  0  0  0  0  0  0  0  0
   52.8240   11.5320   51.9840 C   0  0  0  0  0  0  0  0  0  0  0  0
   52.5020   10.6680   53.2070 C   0  0  0  0  0  0  0  0  0  0  0  0
   56.5170   10.7840   50.9560 H   0  0  0  0  0  0  0  0  0  0  0  0
   56.5649   12.5893   54.5435 H   0  0  0  0  0  0  0  0  0  0  0  0
   57.2868   14.9371   54.8724 H   0  0  0  0  0  0  0  0  0  0  0  0
   58.3467   16.5586   54.8019 H   0  0  0  0  0  0  0  0  0  0  0  0
   59.0781   18.9157   55.1251 H   0  0  0  0  0  0  0  0  0  0  0  0
   58.2127   20.7112   53.6274 H   0  0  0  0  0  0  0  0  0  0  0  0
   56.6110   20.1424   51.8031 H   0  0  0  0  0  0  0  0  0  0  0  0
   55.8713   17.7896   51.4798 H   0  0  0  0  0  0  0  0  0  0  0  0
   55.8599   15.9264   50.9250 H   0  0  0  0  0  0  0  0  0  0  0  0
   55.1387   13.5766   50.5892 H   0  0  0  0  0  0  0  0  0  0  0  0
   55.7690   10.2781   54.2028 H   0  0  0  0  0  0  0  0  0  0  0  0
   54.6242   11.6364   54.4653 H   0  0  0  0  0  0  0  0  0  0  0  0
   53.5760    9.3710   54.4410 H   0  0  0  0  0  0  0  0  0  0  0  0
   55.0413    8.3953   52.6956 H   0  0  0  0  0  0  0  0  0  0  0  0
   53.3004    8.0829   52.4452 H   0  0  0  0  0  0  0  0  0  0  0  0
   55.0401    9.2886   50.6002 H   0  0  0  0  0  0  0  0  0  0  0  0
   53.2414    9.3628   50.5551 H   0  0  0  0  0  0  0  0  0  0  0  0
   54.3876   11.6905   50.4549 H   0  0  0  0  0  0  0  0  0  0  0  0
   52.8546   12.5893   52.2860 H   0  0  0  0  0  0  0  0  0  0  0  0
   52.0442   11.3764   51.2239 H   0  0  0  0  0  0  0  0  0  0  0  0
   52.2138   11.3104   54.0522 H   0  0  0  0  0  0  0  0  0  0  0  0
   51.6669    9.9875   52.9844 H   0  0  0  0  0  0  0  0  0  0  0  0
  2  1  1  6
  2  3  1  0
  3  4  2  0
  4  5  1  0
  5  6  2  0
  6  7  1  0
  7  8  2  0
  8  9  1  0
  9 10  2  0
 10 11  1  0
 11 12  2  0
  6 13  1  0
 13 14  2  0
  2 15  1  0
 15 16  1  0
 16 17  1  0
 17 18  1  0
 18 19  1  0
 19 20  1  0
 20 21  1  0
 19  2  1  0
 14  3  1  0
 21 16  1  0
 12  7  1  0
  1 22  1  0
  4 23  1  0
  5 24  1  0
  8 25  1  0
  9 26  1  0
 10 27  1  0
 11 28  1  0
 12 29  1  0
 13 30  1  0
 14 31  1  0
 15 32  1  0
 15 33  1  0
 16 34  1  6
 17 35  1  0
 17 36  1  0
 18 37  1  0
 18 38  1  0
 19 39  1  1
 20 40  1  0
 20 41  1  0
 21 42  1  0
 21 43  1  0
M  CHG  1  16   1
M  END
>  <meeko>  (4) 
{"is_sidechain": [false], "free_energy": -9.48, "intermolecular_energy": -10.916, "internal_energy": -0.711}

$$$$
3acw_ligand
     RDKit          3D

 43 46  0  0  0  0  0  0  0  0999 V2000
   59.4630   18.7350   53.4040 O   0  0  0  0  0  0  0  0  0  0  0  0
   58.0380   18.8880   53.2840 C   0  0  2  0  0  0  0  0  0  0  0  0
   57.4280   17.5020   53.4490 C   0  0  0  0  0  0  0  0  0  0  0  0
   56.5810   16.9980   52.4430 C   0  0  0  0  0  0  0  0  0  0  0  0
   56.0040   15.7280   52.5450 C   0  0  0  0  0  0  0  0  0  0  0  0
   56.2600   14.9040   53.6480 C   0  0  0  0  0  0  0  0  0  0  0  0
   55.6550   13.5660   53.7560 C   0  0  0  0  0  0  0  0  0  0  0  0
   56.4250   12.4070   53.5640 C   0  0  0  0  0  0  0  0  0  0  0  0
   55.8510   11.1360   53.6660 C   0  0  0  0  0  0  0  0  0  0  0  0
   54.4980   11.0040   53.9640 C   0  0  0  0  0  0  0  0  0  0  0  0
   53.7170   12.1400   54.1600 C   0  0  0  0  0  0  0  0  0  0  0  0
   54.2910   13.4100   54.0550 C   0  0  0  0  0  0  0  0  0  0  0  0
   57.1210   15.3940   54.6390 C   0  0  0  0  0  0  0  0  0  0  0  0
   57.7020   16.6660   54.5400 C   0  0  0  0  0  0  0  0  0  0  0  0
   57.7430   19.4770   51.8610 C   0  0  0  0  0  0  0  0  0  0  0  0
   57.4940   20.9840   51.9750 N   0  0  2  0  0  0  0  0  0  0  0  0
   58.6370   21.6520   52.7180 C   0  0  0  0  0  0  0  0  0  0  0  0
   58.5830   21.2020   54.1760 C   0  0  0  0  0  0  0  0  0  0  0  0
   57.6310   19.9890   54.3240 C   0  0  1  0  0  0  0  0  0  0  0  0
   56.2070   20.5100   54.0210 C   0  0  0  0  0  0  0  0  0  0  0  0
   56.1760   21.2340   52.6720 C   0  0  0  0  0  0  0  0  0  0  0  0
   59.6530   17.8030   53.6320 H   0  0  0  0  0  0  0  0  0  0  0  0
   56.3687   17.6163   51.5583 H   0  0  0  0  0  0  0  0  0  0  0  0
   55.3382   15.3705   51.7457 H   0  0  0  0  0  0  0  0  0  0  0  0
   57.4957   12.5006   53.3299 H   0  0  0  0  0  0  0  0  0  0  0  0
   56.4694   10.2397   53.5106 H   0  0  0  0  0  0  0  0  0  0  0  0
   54.0464   10.0042   54.0445 H   0  0  0  0  0  0  0  0  0  0  0  0
   52.6478   12.0378   54.3976 H   0  0  0  0  0  0  0  0  0  0  0  0
   53.6651   14.3014   54.2089 H   0  0  0  0  0  0  0  0  0  0  0  0
   57.3460   14.7666   55.5141 H   0  0  0  0  0  0  0  0  0  0  0  0
   58.3833   17.0132   55.3307 H   0  0  0  0  0  0  0  0  0  0  0  0
   58.6059   19.2965   51.2031 H   0  0  0  0  0  0  0  0  0  0  0  0
   56.8523   18.9886   51.4389 H   0  0  0  0  0  0  0  0  0  0  0  0
   57.4530   21.3760   51.0250 H   0  0  0  0  0  0  0  0  0  0  0  0
   59.5969   21.3537   52.2711 H   0  0  0  0  0  0  0  0  0  0  0  0
   58.5452   22.7463   52.6535 H   0  0  0  0  0  0  0  0  0  0  0  0
   59.5923   20.9146   54.5056 H   0  0  0  0  0  0  0  0  0  0  0  0
   58.2088   22.0308   54.7949 H   0  0  0  0  0  0  0  0  0  0  0  0
   57.6804   19.5483   55.3306 H   0  0  0  0  0  0  0  0  0  0  0  0
   55.5093   19.6601   53.9917 H   0  0  0  0  0  0  0  0  0  0  0  0
   55.9114   21.2165   54.8106 H   0  0  0  0  0  0  0  0  0  0  0  0
   55.3500   20.8446   52.0587 H   0  0  0  0  0  0  0  0  0  0  0  0
   56.0225   22.3129   52.8217 H   0  0  0  0  0  0  0  0  0  0  0  0
  2  1  1  6
  2  3  1  0
  3  4  2  0
  4  5  1  0
  5  6  2  0
  6  7  1  0
  7  8  2  0
  8  9  1  0
  9 10  2  0
 10 11  1  0
 11 12  2  0
  6 13  1  0
 13 14  2  0
  2 15  1  0
 15 16  1  0
 16 17  1  0
 17 18  1  0
 18 19  1  0
 19 20  1  0
 20 21  1  0
 19  2  1  0
 14  3  1  0
 21 16  1  0
 12  7  1  0
  1 22  1  0
  4 23  1  0
  5 24  1  0
  8 25  1  0
  9 26  1  0
 10 27  1  0
 11 28  1  0
 12 29  1  0
 13 30  1  0
 14 31  1  0
 15 32  1  0
 15 33  1  0
 16 34  1  1
 17 35  1  0
 17 36  1  0
 18 37  1  0
 18 38  1  0
 19 39  1  6
 20 40  1  0
 20 41  1  0
 21 42  1  0
 21 43  1  0
M  CHG  1  16   1
M  END
>  <meeko>  (5) 
{"is_sidechain": [false], "free_energy": -9.344, "intermolecular_energy": -10.736, "internal_energy": -0.736}

$$$$
3acw_ligand
     RDKit          3D

 43 46  0  0  0  0  0  0  0  0999 V2000
   52.7710   11.8080   52.5810 O   0  0  0  0  0  0  0  0  0  0  0  0
   54.1780   11.5820   52.3840 C   0  0  2  0  0  0  0  0  0  0  0  0
   54.8660   12.9350   52.5090 C   0  0  0  0  0  0  0  0  0  0  0  0
   55.1980   13.4220   53.7880 C   0  0  0  0  0  0  0  0  0  0  0  0
   55.8370   14.6550   53.9550 C   0  0  0  0  0  0  0  0  0  0  0  0
   56.1850   15.4440   52.8520 C   0  0  0  0  0  0  0  0  0  0  0  0
   56.8600   16.7410   53.0250 C   0  0  0  0  0  0  0  0  0  0  0  0
   57.6640   16.9940   54.1490 C   0  0  0  0  0  0  0  0  0  0  0  0
   58.3050   18.2250   54.3140 C   0  0  0  0  0  0  0  0  0  0  0  0
   58.1530   19.2240   53.3570 C   0  0  0  0  0  0  0  0  0  0  0  0
   57.3620   18.9940   52.2340 C   0  0  0  0  0  0  0  0  0  0  0  0
   56.7200   17.7630   52.0710 C   0  0  0  0  0  0  0  0  0  0  0  0
   55.8770   14.9500   51.5770 C   0  0  0  0  0  0  0  0  0  0  0  0
   55.2370   13.7150   51.4070 C   0  0  0  0  0  0  0  0  0  0  0  0
   54.3620   10.9780   50.9480 C   0  0  0  0  0  0  0  0  0  0  0  0
   54.5380    9.4590   51.0540 N   0  0  2  0  0  0  0  0  0  0  0  0
   53.4060    8.8520   51.8610 C   0  0  0  0  0  0  0  0  0  0  0  0
   53.5640    9.3000   53.3130 C   0  0  0  0  0  0  0  0  0  0  0  0
   54.5850   10.4630   53.4030 C   0  0  1  0  0  0  0  0  0  0  0  0
   55.9600    9.8680   53.0240 C   0  0  0  0  0  0  0  0  0  0  0  0
   55.8790    9.1430   51.6770 C   0  0  0  0  0  0  0  0  0  0  0  0
   52.4430   12.3630   51.8450 H   0  0  0  0  0  0  0  0  0  0  0  0
   54.9495   12.8200   54.6745 H   0  0  0  0  0  0  0  0  0  0  0  0
   56.0699   15.0106   54.9695 H   0  0  0  0  0  0  0  0  0  0  0  0
   57.7910   16.2110   54.9111 H   0  0  0  0  0  0  0  0  0  0  0  0
   58.9302   18.4044   55.2011 H   0  0  0  0  0  0  0  0  0  0  0  0
   58.6566   20.1932   53.4873 H   0  0  0  0  0  0  0  0  0  0  0  0
   57.2424   19.7812   51.4751 H   0  0  0  0  0  0  0  0  0  0  0  0
   56.0954   17.5917   51.1819 H   0  0  0  0  0  0  0  0  0  0  0  0
   56.1434   15.5446   50.6907 H   0  0  0  0  0  0  0  0  0  0  0  0
   55.0225   13.3523   50.3909 H   0  0  0  0  0  0  0  0  0  0  0  0
   53.4743   11.2031   50.3386 H   0  0  0  0  0  0  0  0  0  0  0  0
   55.2517   11.4191   50.4748 H   0  0  0  0  0  0  0  0  0  0  0  0
   54.5070    9.0650   50.1050 H   0  0  0  0  0  0  0  0  0  0  0  0
   52.4395    9.1991   51.4669 H   0  0  0  0  0  0  0  0  0  0  0  0
   53.4376    7.7544   51.7955 H   0  0  0  0  0  0  0  0  0  0  0  0
   52.5908    9.6396   53.6970 H   0  0  0  0  0  0  0  0  0  0  0  0
   53.9283    8.4535   53.9136 H   0  0  0  0  0  0  0  0  0  0  0  0
   54.6152   10.9073   54.4088 H   0  0  0  0  0  0  0  0  0  0  0  0
   56.6988   10.6800   52.9540 H   0  0  0  0  0  0  0  0  0  0  0  0
   56.2607    9.1468   53.7982 H   0  0  0  0  0  0  0  0  0  0  0  0
   56.6878    9.4903   51.0173 H   0  0  0  0  0  0  0  0  0  0  0  0
   55.9863    8.0578   51.8210 H   0  0  0  0  0  0  0  0  0  0  0  0
  2  1  1  1
  2  3  1  0
  3  4  2  0
  4  5  1  0
  5  6  2  0
  6  7  1  0
  7  8  2  0
  8  9  1  0
  9 10  2  0
 10 11  1  0
 11 12  2  0
  6 13  1  0
 13 14  2  0
  2 15  1  0
 15 16  1  0
 16 17  1  0
 17 18  1  0
 18 19  1  0
 19 20  1  0
 20 21  1  0
 19  2  1  0
 14  3  1  0
 21 16  1  0
 12  7  1  0
  1 22  1  0
  4 23  1  0
  5 24  1  0
  8 25  1  0
  9 26  1  0
 10 27  1  0
 11 28  1  0
 12 29  1  0
 13 30  1  0
 14 31  1  0
 15 32  1  0
 15 33  1  0
 16 34  1  1
 17 35  1  0
 17 36  1  0
 18 37  1  0
 18 38  1  0
 19 39  1  6
 20 40  1  0
 20 41  1  0
 21 42  1  0
 21 43  1  0
M  CHG  1  16   1
M  END
>  <meeko>  (6) 
{"is_sidechain": [false], "free_energy": -8.756, "intermolecular_energy": -10.057, "internal_energy": -0.74}

$$$$
