2fxs_ligand
     RDKit          3D

 48 49  0  0  0  0  0  0  0  0999 V2000
   18.8370   34.6610    1.2890 C   0  0  0  0  0  0  0  0  0  0  0  0
   19.8680   34.6490    2.2770 O   0  0  0  0  0  0  0  0  0  0  0  0
   19.7890   33.6210    3.1480 C   0  0  0  0  0  0  0  0  0  0  0  0
   20.3010   32.5180    3.0330 O   0  0  0  0  0  0  0  0  0  0  0  0
   19.1100   34.0450    4.3900 C   0  0  0  0  0  0  0  0  0  0  0  0
   17.7760   33.6210    4.5390 C   0  0  0  0  0  0  0  0  0  0  0  0
   17.1000   32.9120    3.5800 O   0  0  0  0  0  0  0  0  0  0  0  0
   17.0590   33.9200    5.6910 C   0  0  0  0  0  0  0  0  0  0  0  0
   17.6600   34.6830    6.6800 C   0  0  0  0  0  0  0  0  0  0  0  0
   16.9070   34.9630    7.7890 O   0  0  0  0  0  0  0  0  0  0  0  0
   18.9700   35.1640    6.5290 C   0  0  0  0  0  0  0  0  0  0  0  0
   19.5970   36.1760    7.7910 Cl  0  0  0  0  0  0  0  0  0  0  0  0
   19.7270   34.8540    5.3770 C   0  0  0  0  0  0  0  0  0  0  0  0
   21.1040   35.4590    5.1700 C   0  0  0  0  0  0  0  0  0  0  0  0
   22.1340   34.8380    6.1130 C   0  0  0  0  0  0  0  0  0  0  0  0
   22.6680   33.5190    5.5780 C   0  0  0  0  0  0  0  0  0  0  0  0
   22.1240   32.4480    5.8220 O   0  0  0  0  0  0  0  0  0  0  0  0
   23.7930   33.7090    4.7910 N   0  0  0  0  0  0  0  0  0  0  0  0
   24.5720   32.7690    4.1290 C   0  0  0  0  0  0  0  0  0  0  0  0
   25.3230   31.8350    4.7350 C   0  0  0  0  0  0  0  0  0  0  0  0
   26.1030   30.7830    4.0070 C   0  0  2  0  0  0  0  0  0  0  0  0
   27.4770   30.9620    4.3270 O   0  0  0  0  0  0  0  0  0  0  0  0
   25.9460   30.8070    2.4960 C   0  0  0  0  0  0  0  0  0  0  0  0
   26.6440   29.7890    1.8730 O   0  0  0  0  0  0  0  0  0  0  0  0
   26.3830   28.4500    2.2790 C   0  0  0  0  0  0  0  0  0  0  0  0
   25.2060   31.7480    1.8790 C   0  0  0  0  0  0  0  0  0  0  0  0
   24.5100   32.8560    2.6100 C   0  0  1  0  0  0  0  0  0  0  0  0
   23.1380   32.8460    2.2180 O   0  0  0  0  0  0  0  0  0  0  0  0
   17.8548   34.6724    1.7841 H   0  0  0  0  0  0  0  0  0  0  0  0
   18.9415   35.5580    0.6609 H   0  0  0  0  0  0  0  0  0  0  0  0
   18.9206   33.7618    0.6609 H   0  0  0  0  0  0  0  0  0  0  0  0
   17.6110   32.9310    2.7430 H   0  0  0  0  0  0  0  0  0  0  0  0
   16.0285   33.5562    5.8165 H   0  0  0  0  0  0  0  0  0  0  0  0
   15.9720   34.9860    7.5120 H   0  0  0  0  0  0  0  0  0  0  0  0
   21.4191   35.2841    4.1307 H   0  0  0  0  0  0  0  0  0  0  0  0
   21.0443   36.5363    5.3840 H   0  0  0  0  0  0  0  0  0  0  0  0
   22.9733   35.5387    6.2344 H   0  0  0  0  0  0  0  0  0  0  0  0
   21.6402   34.6410    7.0760 H   0  0  0  0  0  0  0  0  0  0  0  0
   24.0700   34.6720    4.6190 H   0  0  0  0  0  0  0  0  0  0  0  0
   25.3683   31.8428    5.8340 H   0  0  0  0  0  0  0  0  0  0  0  0
   25.7082   29.8098    4.3341 H   0  0  0  0  0  0  0  0  0  0  0  0
   27.6890   31.8720    4.0530 H   0  0  0  0  0  0  0  0  0  0  0  0
   26.3724   28.3954    3.3776 H   0  0  0  0  0  0  0  0  0  0  0  0
   25.4059   28.1317    1.8866 H   0  0  0  0  0  0  0  0  0  0  0  0
   27.1690   27.7880    1.8866 H   0  0  0  0  0  0  0  0  0  0  0  0
   25.1075   31.7011    0.7844 H   0  0  0  0  0  0  0  0  0  0  0  0
   25.0366   33.7829    2.3388 H   0  0  0  0  0  0  0  0  0  0  0  0
   23.0520   33.5290    1.5300 H   0  0  0  0  0  0  0  0  0  0  0  0
  1  2  1  0
  2  3  1  0
  3  4  2  0
  3  5  1  0
  5  6  2  0
  6  7  1  0
  6  8  1  0
  8  9  2  0
  9 10  1  0
  9 11  1  0
 11 12  1  0
 11 13  2  0
 13 14  1  0
 14 15  1  0
 15 16  1  0
 16 17  2  0
 16 18  1  0
 18 19  1  0
 19 20  2  0
 20 21  1  0
 21 22  1  0
 21 23  1  0
 23 24  1  0
 24 25  1  0
 23 26  2  0
 26 27  1  0
 27 28  1  0
 13  5  1  0
 27 19  1  0
  1 29  1  0
  1 30  1  0
  1 31  1  0
  7 32  1  0
  8 33  1  0
 10 34  1  0
 14 35  1  0
 14 36  1  0
 15 37  1  0
 15 38  1  0
 18 39  1  0
 20 40  1  0
 21 41  1  1
 22 42  1  0
 25 43  1  0
 25 44  1  0
 25 45  1  0
 26 46  1  0
 27 47  1  6
 28 48  1  0
M  END
>  <meeko>  (1) 
{"is_sidechain": [false], "free_energy": -6.961, "intermolecular_energy": -10.623, "internal_energy": -1.322}

$$$$
2fxs_ligand
     RDKit          3D

 48 49  0  0  0  0  0  0  0  0999 V2000
   24.3940   35.4040    0.6030 C   0  0  0  0  0  0  0  0  0  0  0  0
   25.0360   34.1620    0.8970 O   0  0  0  0  0  0  0  0  0  0  0  0
   24.3630   33.3830    1.7710 C   0  0  0  0  0  0  0  0  0  0  0  0
   23.1710   33.1180    1.7540 O   0  0  0  0  0  0  0  0  0  0  0  0
   25.2990   32.7310    2.7100 C   0  0  0  0  0  0  0  0  0  0  0  0
   25.5960   31.3800    2.4470 C   0  0  0  0  0  0  0  0  0  0  0  0
   25.0190   30.6680    1.4270 O   0  0  0  0  0  0  0  0  0  0  0  0
   26.5020   30.6850    3.2360 C   0  0  0  0  0  0  0  0  0  0  0  0
   27.0830   31.3250    4.3210 C   0  0  0  0  0  0  0  0  0  0  0  0
   27.9590   30.5920    5.0760 O   0  0  0  0  0  0  0  0  0  0  0  0
   26.7590   32.6540    4.6360 C   0  0  0  0  0  0  0  0  0  0  0  0
   27.4810   33.3330    6.0600 Cl  0  0  0  0  0  0  0  0  0  0  0  0
   25.8580   33.3890    3.8350 C   0  0  0  0  0  0  0  0  0  0  0  0
   25.4310   34.7900    4.2350 C   0  0  0  0  0  0  0  0  0  0  0  0
   24.3690   34.7580    5.3340 C   0  0  0  0  0  0  0  0  0  0  0  0
   22.9630   34.8440    4.7650 C   0  0  0  0  0  0  0  0  0  0  0  0
   22.5330   35.8650    4.2410 O   0  0  0  0  0  0  0  0  0  0  0  0
   22.2850   33.6420    4.9000 N   0  0  0  0  0  0  0  0  0  0  0  0
   20.9930   33.3140    4.5150 C   0  0  0  0  0  0  0  0  0  0  0  0
   20.5980   33.1260    3.2440 C   0  0  0  0  0  0  0  0  0  0  0  0
   19.2160   32.7040    2.8490 C   0  0  2  0  0  0  0  0  0  0  0  0
   18.6640   33.7310    2.0360 O   0  0  0  0  0  0  0  0  0  0  0  0
   18.2740   32.4420    4.0120 C   0  0  0  0  0  0  0  0  0  0  0  0
   17.0280   32.0080    3.5990 O   0  0  0  0  0  0  0  0  0  0  0  0
   16.8940   30.6560    3.1780 C   0  0  0  0  0  0  0  0  0  0  0  0
   18.6570   32.6410    5.2880 C   0  0  0  0  0  0  0  0  0  0  0  0
   20.0110   33.1590    5.6680 C   0  0  1  0  0  0  0  0  0  0  0  0
   20.5750   32.2560    6.6170 O   0  0  0  0  0  0  0  0  0  0  0  0
   24.1312   35.9123    1.5424 H   0  0  0  0  0  0  0  0  0  0  0  0
   25.0761   36.0404    0.0201 H   0  0  0  0  0  0  0  0  0  0  0  0
   23.4804   35.2155    0.0201 H   0  0  0  0  0  0  0  0  0  0  0  0
   24.6160   29.8510    1.7910 H   0  0  0  0  0  0  0  0  0  0  0  0
   26.7561   29.6402    3.0040 H   0  0  0  0  0  0  0  0  0  0  0  0
   28.4910   30.0490    4.4650 H   0  0  0  0  0  0  0  0  0  0  0  0
   26.3096   35.3405    4.6025 H   0  0  0  0  0  0  0  0  0  0  0  0
   25.0004   35.2855    3.3524 H   0  0  0  0  0  0  0  0  0  0  0  0
   24.4680   33.8183    5.8971 H   0  0  0  0  0  0  0  0  0  0  0  0
   24.5269   35.6294    5.9865 H   0  0  0  0  0  0  0  0  0  0  0  0
   22.8150   32.8630    5.2850 H   0  0  0  0  0  0  0  0  0  0  0  0
   21.3351   33.2923    2.4446 H   0  0  0  0  0  0  0  0  0  0  0  0
   19.3150   31.7439    2.3213 H   0  0  0  0  0  0  0  0  0  0  0  0
   17.7750   33.4180    1.7910 H   0  0  0  0  0  0  0  0  0  0  0  0
   16.8292   30.0020    4.0601 H   0  0  0  0  0  0  0  0  0  0  0  0
   15.9808   30.5488    2.5742 H   0  0  0  0  0  0  0  0  0  0  0  0
   17.7684   30.3716    2.5742 H   0  0  0  0  0  0  0  0  0  0  0  0
   17.9406   32.4120    6.0907 H   0  0  0  0  0  0  0  0  0  0  0  0
   19.8528   34.1718    6.0670 H   0  0  0  0  0  0  0  0  0  0  0  0
   19.9520   31.5110    6.6800 H   0  0  0  0  0  0  0  0  0  0  0  0
  1  2  1  0
  2  3  1  0
  3  4  2  0
  3  5  1  0
  5  6  2  0
  6  7  1  0
  6  8  1  0
  8  9  2  0
  9 10  1  0
  9 11  1  0
 11 12  1  0
 11 13  2  0
 13 14  1  0
 14 15  1  0
 15 16  1  0
 16 17  2  0
 16 18  1  0
 18 19  1  0
 19 20  2  0
 20 21  1  0
 21 22  1  0
 21 23  1  0
 23 24  1  0
 24 25  1  0
 23 26  2  0
 26 27  1  0
 27 28  1  0
 13  5  1  0
 27 19  1  0
  1 29  1  0
  1 30  1  0
  1 31  1  0
  7 32  1  0
  8 33  1  0
 10 34  1  0
 14 35  1  0
 14 36  1  0
 15 37  1  0
 15 38  1  0
 18 39  1  0
 20 40  1  0
 21 41  1  6
 22 42  1  0
 25 43  1  0
 25 44  1  0
 25 45  1  0
 26 46  1  0
 27 47  1  1
 28 48  1  0
M  END
>  <meeko>  (2) 
{"is_sidechain": [false], "free_energy": -6.809, "intermolecular_energy": -10.289, "internal_energy": -1.425}

$$$$
2fxs_ligand
     RDKit          3D

 48 49  0  0  0  0  0  0  0  0999 V2000
   18.6370   34.6800    1.2900 C   0  0  0  0  0  0  0  0  0  0  0  0
   18.7190   34.0440    2.5670 O   0  0  0  0  0  0  0  0  0  0  0  0
   19.8980   33.4310    2.8050 C   0  0  0  0  0  0  0  0  0  0  0  0
   20.5580   32.7720    2.0160 O   0  0  0  0  0  0  0  0  0  0  0  0
   20.4050   33.7880    4.1470 C   0  0  0  0  0  0  0  0  0  0  0  0
   19.8800   33.0470    5.2220 C   0  0  0  0  0  0  0  0  0  0  0  0
   18.9080   32.0910    5.0740 O   0  0  0  0  0  0  0  0  0  0  0  0
   20.3230   33.2650    6.5200 C   0  0  0  0  0  0  0  0  0  0  0  0
   21.2640   34.2560    6.7540 C   0  0  0  0  0  0  0  0  0  0  0  0
   21.6590   34.4420    8.0520 O   0  0  0  0  0  0  0  0  0  0  0  0
   21.7620   35.0450    5.7040 C   0  0  0  0  0  0  0  0  0  0  0  0
   22.8740   36.3110    6.1190 Cl  0  0  0  0  0  0  0  0  0  0  0  0
   21.3420   34.8280    4.3730 C   0  0  0  0  0  0  0  0  0  0  0  0
   21.8020   35.7470    3.2560 C   0  0  0  0  0  0  0  0  0  0  0  0
   22.7470   35.0270    2.2940 C   0  0  0  0  0  0  0  0  0  0  0  0
   23.9050   34.3680    3.0260 C   0  0  0  0  0  0  0  0  0  0  0  0
   24.7630   35.0200    3.6090 O   0  0  0  0  0  0  0  0  0  0  0  0
   23.8290   32.9850    2.9570 N   0  0  0  0  0  0  0  0  0  0  0  0
   24.6850   32.0300    3.4870 C   0  0  0  0  0  0  0  0  0  0  0  0
   24.6860   31.6320    4.7710 C   0  0  0  0  0  0  0  0  0  0  0  0
   25.5690   30.5500    5.3130 C   0  0  2  0  0  0  0  0  0  0  0  0
   26.3960   31.1270    6.3160 O   0  0  0  0  0  0  0  0  0  0  0  0
   26.4540   29.8740    4.2790 C   0  0  0  0  0  0  0  0  0  0  0  0
   27.2130   28.8520    4.8170 O   0  0  0  0  0  0  0  0  0  0  0  0
   28.6160   29.0520    4.9430 C   0  0  0  0  0  0  0  0  0  0  0  0
   26.4700   30.2760    2.9930 C   0  0  0  0  0  0  0  0  0  0  0  0
   25.6560   31.4250    2.4810 C   0  0  1  0  0  0  0  0  0  0  0  0
   24.9060   30.9650    1.3590 O   0  0  0  0  0  0  0  0  0  0  0  0
   18.4974   35.7624    1.4277 H   0  0  0  0  0  0  0  0  0  0  0  0
   19.5660   34.4985    0.7296 H   0  0  0  0  0  0  0  0  0  0  0  0
   17.7844   34.2688    0.7296 H   0  0  0  0  0  0  0  0  0  0  0  0
   18.9490   31.7260    4.1640 H   0  0  0  0  0  0  0  0  0  0  0  0
   19.9326   32.6596    7.3513 H   0  0  0  0  0  0  0  0  0  0  0  0
   22.0360   33.5990    8.3680 H   0  0  0  0  0  0  0  0  0  0  0  0
   20.9223   36.0989    2.6971 H   0  0  0  0  0  0  0  0  0  0  0  0
   22.3436   36.5927    3.7048 H   0  0  0  0  0  0  0  0  0  0  0  0
   22.1822   34.2539    1.7524 H   0  0  0  0  0  0  0  0  0  0  0  0
   23.1618   35.7732    1.6004 H   0  0  0  0  0  0  0  0  0  0  0  0
   23.0050   32.5980    2.5030 H   0  0  0  0  0  0  0  0  0  0  0  0
   23.9958   32.1317    5.4667 H   0  0  0  0  0  0  0  0  0  0  0  0
   24.9067   29.7624    5.7016 H   0  0  0  0  0  0  0  0  0  0  0  0
   25.8230   31.2260    7.0970 H   0  0  0  0  0  0  0  0  0  0  0  0
   28.8866   29.0906    6.0085 H   0  0  0  0  0  0  0  0  0  0  0  0
   29.1498   28.2209    4.4590 H   0  0  0  0  0  0  0  0  0  0  0  0
   28.8963   29.9992    4.4590 H   0  0  0  0  0  0  0  0  0  0  0  0
   27.1126   29.7337    2.2838 H   0  0  0  0  0  0  0  0  0  0  0  0
   26.3710   32.2233    2.2329 H   0  0  0  0  0  0  0  0  0  0  0  0
   24.4920   30.1300    1.6390 H   0  0  0  0  0  0  0  0  0  0  0  0
  1  2  1  0
  2  3  1  0
  3  4  2  0
  3  5  1  0
  5  6  2  0
  6  7  1  0
  6  8  1  0
  8  9  2  0
  9 10  1  0
  9 11  1  0
 11 12  1  0
 11 13  2  0
 13 14  1  0
 14 15  1  0
 15 16  1  0
 16 17  2  0
 16 18  1  0
 18 19  1  0
 19 20  2  0
 20 21  1  0
 21 22  1  0
 21 23  1  0
 23 24  1  0
 24 25  1  0
 23 26  2  0
 26 27  1  0
 27 28  1  0
 13  5  1  0
 27 19  1  0
  1 29  1  0
  1 30  1  0
  1 31  1  0
  7 32  1  0
  8 33  1  0
 10 34  1  0
 14 35  1  0
 14 36  1  0
 15 37  1  0
 15 38  1  0
 18 39  1  0
 20 40  1  0
 21 41  1  1
 22 42  1  0
 25 43  1  0
 25 44  1  0
 25 45  1  0
 26 46  1  0
 27 47  1  6
 28 48  1  0
M  END
>  <meeko>  (3) 
{"is_sidechain": [false], "free_energy": -6.755, "intermolecular_energy": -10.418, "internal_energy": -1.213}

$$$$
2fxs_ligand
     RDKit          3D

 48 49  0  0  0  0  0  0  0  0999 V2000
   26.1410   38.0330    5.2390 C   0  0  0  0  0  0  0  0  0  0  0  0
   26.0390   37.0120    4.2440 O   0  0  0  0  0  0  0  0  0  0  0  0
   24.8900   36.3040    4.2920 C   0  0  0  0  0  0  0  0  0  0  0  0
   23.8290   36.6550    4.7850 O   0  0  0  0  0  0  0  0  0  0  0  0
   25.0180   35.0570    3.5110 C   0  0  0  0  0  0  0  0  0  0  0  0
   24.7170   35.1540    2.1390 C   0  0  0  0  0  0  0  0  0  0  0  0
   24.2700   36.3070    1.5470 O   0  0  0  0  0  0  0  0  0  0  0  0
   24.8530   34.0550    1.3010 C   0  0  0  0  0  0  0  0  0  0  0  0
   25.2470   32.8400    1.8400 C   0  0  0  0  0  0  0  0  0  0  0  0
   25.3520   31.7840    0.9750 O   0  0  0  0  0  0  0  0  0  0  0  0
   25.4980   32.7050    3.2150 C   0  0  0  0  0  0  0  0  0  0  0  0
   25.9070   31.1230    3.7970 Cl  0  0  0  0  0  0  0  0  0  0  0  0
   25.3890   33.8140    4.0830 C   0  0  0  0  0  0  0  0  0  0  0  0
   25.5610   33.6430    5.5820 C   0  0  0  0  0  0  0  0  0  0  0  0
   24.2570   33.9260    6.3290 C   0  0  0  0  0  0  0  0  0  0  0  0
   23.1140   33.0650    5.8180 C   0  0  0  0  0  0  0  0  0  0  0  0
   23.1410   31.8410    5.8820 O   0  0  0  0  0  0  0  0  0  0  0  0
   22.0790   33.8390    5.3160 N   0  0  0  0  0  0  0  0  0  0  0  0
   20.8720   33.4390    4.7590 C   0  0  0  0  0  0  0  0  0  0  0  0
   20.6650   33.2380    3.4460 C   0  0  0  0  0  0  0  0  0  0  0  0
   19.3770   32.7390    2.8670 C   0  0  2  0  0  0  0  0  0  0  0  0
   18.8820   33.7390    1.9860 O   0  0  0  0  0  0  0  0  0  0  0  0
   18.3020   32.4150    3.8910 C   0  0  0  0  0  0  0  0  0  0  0  0
   17.1520   31.9130    3.3130 O   0  0  0  0  0  0  0  0  0  0  0  0
   17.0540   30.5060    3.1240 C   0  0  0  0  0  0  0  0  0  0  0  0
   18.4970   32.6260    5.2080 C   0  0  0  0  0  0  0  0  0  0  0  0
   19.7530   33.2190    5.7680 C   0  0  1  0  0  0  0  0  0  0  0  0
   20.2360   32.3420    6.7850 O   0  0  0  0  0  0  0  0  0  0  0  0
   26.0954   37.5765    6.2388 H   0  0  0  0  0  0  0  0  0  0  0  0
   27.0967   38.5648    5.1220 H   0  0  0  0  0  0  0  0  0  0  0  0
   25.3094   38.7434    5.1220 H   0  0  0  0  0  0  0  0  0  0  0  0
   23.3190   36.2100    1.3260 H   0  0  0  0  0  0  0  0  0  0  0  0
   24.6508   34.1473    0.2237 H   0  0  0  0  0  0  0  0  0  0  0  0
   25.5350   32.1470    0.0880 H   0  0  0  0  0  0  0  0  0  0  0  0
   25.8760   32.6099    5.7906 H   0  0  0  0  0  0  0  0  0  0  0  0
   26.3205   34.3599    5.9274 H   0  0  0  0  0  0  0  0  0  0  0  0
   24.4077   33.7190    7.3988 H   0  0  0  0  0  0  0  0  0  0  0  0
   23.9906   34.9803    6.1633 H   0  0  0  0  0  0  0  0  0  0  0  0
   22.1790   34.8470    5.4110 H   0  0  0  0  0  0  0  0  0  0  0  0
   21.4927   33.4533    2.7542 H   0  0  0  0  0  0  0  0  0  0  0  0
   19.6025   31.7898    2.3589 H   0  0  0  0  0  0  0  0  0  0  0  0
   19.6640   34.2440    1.7020 H   0  0  0  0  0  0  0  0  0  0  0  0
   17.0192   30.0061    4.1032 H   0  0  0  0  0  0  0  0  0  0  0  0
   16.1376   30.2746    2.5613 H   0  0  0  0  0  0  0  0  0  0  0  0
   17.9295   30.1498    2.5613 H   0  0  0  0  0  0  0  0  0  0  0  0
   17.6935   32.3488    5.9062 H   0  0  0  0  0  0  0  0  0  0  0  0
   19.4824   34.2176    6.1416 H   0  0  0  0  0  0  0  0  0  0  0  0
   21.2040   32.4390    6.7830 H   0  0  0  0  0  0  0  0  0  0  0  0
  1  2  1  0
  2  3  1  0
  3  4  2  0
  3  5  1  0
  5  6  2  0
  6  7  1  0
  6  8  1  0
  8  9  2  0
  9 10  1  0
  9 11  1  0
 11 12  1  0
 11 13  2  0
 13 14  1  0
 14 15  1  0
 15 16  1  0
 16 17  2  0
 16 18  1  0
 18 19  1  0
 19 20  2  0
 20 21  1  0
 21 22  1  0
 21 23  1  0
 23 24  1  0
 24 25  1  0
 23 26  2  0
 26 27  1  0
 27 28  1  0
 13  5  1  0
 27 19  1  0
  1 29  1  0
  1 30  1  0
  1 31  1  0
  7 32  1  0
  8 33  1  0
 10 34  1  0
 14 35  1  0
 14 36  1  0
 15 37  1  0
 15 38  1  0
 18 39  1  0
 20 40  1  0
 21 41  1  6
 22 42  1  0
 25 43  1  0
 25 44  1  0
 25 45  1  0
 26 46  1  0
 27 47  1  1
 28 48  1  0
M  END
>  <meeko>  (4) 
{"is_sidechain": [false], "free_energy": -6.702, "intermolecular_energy": -10.284, "internal_energy": -1.267}

$$$$
2fxs_ligand
     RDKit          3D

 48 49  0  0  0  0  0  0  0  0999 V2000
   21.3190   36.1810    7.5510 C   0  0  0  0  0  0  0  0  0  0  0  0
   21.6260   36.0150    6.1660 O   0  0  0  0  0  0  0  0  0  0  0  0
   21.8970   34.7420    5.8080 C   0  0  0  0  0  0  0  0  0  0  0  0
   22.8670   34.0750    6.1360 O   0  0  0  0  0  0  0  0  0  0  0  0
   20.7620   34.1610    5.0610 C   0  0  0  0  0  0  0  0  0  0  0  0
   19.9900   33.2100    5.7550 C   0  0  0  0  0  0  0  0  0  0  0  0
   20.2850   32.7810    7.0230 O   0  0  0  0  0  0  0  0  0  0  0  0
   18.8690   32.6380    5.1660 C   0  0  0  0  0  0  0  0  0  0  0  0
   18.5410   32.9820    3.8640 C   0  0  0  0  0  0  0  0  0  0  0  0
   17.4360   32.3800    3.3240 O   0  0  0  0  0  0  0  0  0  0  0  0
   19.3280   33.8870    3.1330 C   0  0  0  0  0  0  0  0  0  0  0  0
   18.8750   34.1850    1.4850 Cl  0  0  0  0  0  0  0  0  0  0  0  0
   20.4600   34.4980    3.7180 C   0  0  0  0  0  0  0  0  0  0  0  0
   21.3670   35.3950    2.8940 C   0  0  0  0  0  0  0  0  0  0  0  0
   22.2440   34.5800    1.9440 C   0  0  0  0  0  0  0  0  0  0  0  0
   23.5580   34.1790    2.5920 C   0  0  0  0  0  0  0  0  0  0  0  0
   24.4230   35.0000    2.8760 O   0  0  0  0  0  0  0  0  0  0  0  0
   23.6150   32.8130    2.8240 N   0  0  0  0  0  0  0  0  0  0  0  0
   24.6340   32.0580    3.3890 C   0  0  0  0  0  0  0  0  0  0  0  0
   24.7620   31.8080    4.7030 C   0  0  0  0  0  0  0  0  0  0  0  0
   25.8270   30.9340    5.2910 C   0  0  2  0  0  0  0  0  0  0  0  0
   26.6050   31.7330    6.1730 O   0  0  0  0  0  0  0  0  0  0  0  0
   26.7520   30.2870    4.2740 C   0  0  0  0  0  0  0  0  0  0  0  0
   27.6850   29.4530    4.8600 O   0  0  0  0  0  0  0  0  0  0  0  0
   27.2150   28.3110    5.5670 C   0  0  0  0  0  0  0  0  0  0  0  0
   26.6400   30.5430    2.9560 C   0  0  0  0  0  0  0  0  0  0  0  0
   25.6340   31.4960    2.3860 C   0  0  1  0  0  0  0  0  0  0  0  0
   24.9070   30.8110    1.3680 O   0  0  0  0  0  0  0  0  0  0  0  0
   22.1248   35.7453    8.1600 H   0  0  0  0  0  0  0  0  0  0  0  0
   21.2251   37.2528    7.7798 H   0  0  0  0  0  0  0  0  0  0  0  0
   20.3707   35.6727    7.7798 H   0  0  0  0  0  0  0  0  0  0  0  0
   19.9350   33.4260    7.6730 H   0  0  0  0  0  0  0  0  0  0  0  0
   18.2499   31.9215    5.7258 H   0  0  0  0  0  0  0  0  0  0  0  0
   16.8860   33.0800    2.9240 H   0  0  0  0  0  0  0  0  0  0  0  0
   20.7469   36.0862    2.3043 H   0  0  0  0  0  0  0  0  0  0  0  0
   22.0232   35.9489    3.5814 H   0  0  0  0  0  0  0  0  0  0  0  0
   21.7001   33.6703    1.6498 H   0  0  0  0  0  0  0  0  0  0  0  0
   22.4719   35.2056    1.0684 H   0  0  0  0  0  0  0  0  0  0  0  0
   22.7770   32.2800    2.6040 H   0  0  0  0  0  0  0  0  0  0  0  0
   24.0399   32.2741    5.3895 H   0  0  0  0  0  0  0  0  0  0  0  0
   25.3141   30.1046    5.7999 H   0  0  0  0  0  0  0  0  0  0  0  0
   26.1260   32.5780    6.2470 H   0  0  0  0  0  0  0  0  0  0  0  0
   27.2900   28.4932    6.6492 H   0  0  0  0  0  0  0  0  0  0  0  0
   26.1653   28.1203    5.2992 H   0  0  0  0  0  0  0  0  0  0  0  0
   27.8264   27.4367    5.2992 H   0  0  0  0  0  0  0  0  0  0  0  0
   27.3212   30.0265    2.2637 H   0  0  0  0  0  0  0  0  0  0  0  0
   26.2047   32.3584    2.0112 H   0  0  0  0  0  0  0  0  0  0  0  0
   24.2030   30.3200    1.8270 H   0  0  0  0  0  0  0  0  0  0  0  0
  1  2  1  0
  2  3  1  0
  3  4  2  0
  3  5  1  0
  5  6  2  0
  6  7  1  0
  6  8  1  0
  8  9  2  0
  9 10  1  0
  9 11  1  0
 11 12  1  0
 11 13  2  0
 13 14  1  0
 14 15  1  0
 15 16  1  0
 16 17  2  0
 16 18  1  0
 18 19  1  0
 19 20  2  0
 20 21  1  0
 21 22  1  0
 21 23  1  0
 23 24  1  0
 24 25  1  0
 23 26  2  0
 26 27  1  0
 27 28  1  0
 13  5  1  0
 27 19  1  0
  1 29  1  0
  1 30  1  0
  1 31  1  0
  7 32  1  0
  8 33  1  0
 10 34  1  0
 14 35  1  0
 14 36  1  0
 15 37  1  0
 15 38  1  0
 18 39  1  0
 20 40  1  0
 21 41  1  1
 22 42  1  0
 25 43  1  0
 25 44  1  0
 25 45  1  0
 26 46  1  0
 27 47  1  6
 28 48  1  0
M  END
>  <meeko>  (5) 
{"is_sidechain": [false], "free_energy": -6.672, "intermolecular_energy": -9.97, "internal_energy": -1.534}

$$$$
2fxs_ligand
     RDKit          3D

 48 49  0  0  0  0  0  0  0  0999 V2000
   24.7950   35.1700    1.4520 C   0  0  0  0  0  0  0  0  0  0  0  0
   25.6070   34.5010    2.4180 O   0  0  0  0  0  0  0  0  0  0  0  0
   24.9320   33.6410    3.2090 C   0  0  0  0  0  0  0  0  0  0  0  0
   23.8080   33.7880    3.6660 O   0  0  0  0  0  0  0  0  0  0  0  0
   25.6740   32.3700    3.3460 C   0  0  0  0  0  0  0  0  0  0  0  0
   25.4700   31.4230    2.3240 C   0  0  0  0  0  0  0  0  0  0  0  0
   24.5940   31.6130    1.2870 O   0  0  0  0  0  0  0  0  0  0  0  0
   26.1560   30.2160    2.3260 C   0  0  0  0  0  0  0  0  0  0  0  0
   27.0180   29.9310    3.3750 C   0  0  0  0  0  0  0  0  0  0  0  0
   27.6600   28.7220    3.3380 O   0  0  0  0  0  0  0  0  0  0  0  0
   27.1950   30.8360    4.4340 C   0  0  0  0  0  0  0  0  0  0  0  0
   28.2330   30.3460    5.7350 Cl  0  0  0  0  0  0  0  0  0  0  0  0
   26.5250   32.0800    4.4420 C   0  0  0  0  0  0  0  0  0  0  0  0
   26.6380   33.0120    5.6360 C   0  0  0  0  0  0  0  0  0  0  0  0
   25.8290   32.4950    6.8260 C   0  0  0  0  0  0  0  0  0  0  0  0
   24.8400   33.5320    7.3310 C   0  0  0  0  0  0  0  0  0  0  0  0
   25.1700   34.4270    8.1000 O   0  0  0  0  0  0  0  0  0  0  0  0
   23.5770   33.3330    6.7940 N   0  0  0  0  0  0  0  0  0  0  0  0
   22.4090   34.0540    7.0040 C   0  0  0  0  0  0  0  0  0  0  0  0
   22.1090   35.2160    6.4010 C   0  0  0  0  0  0  0  0  0  0  0  0
   20.8140   35.9470    6.5850 C   0  0  2  0  0  0  0  0  0  0  0  0
   21.1110   37.2220    7.1400 O   0  0  0  0  0  0  0  0  0  0  0  0
   19.8100   35.2450    7.4830 C   0  0  0  0  0  0  0  0  0  0  0  0
   18.6150   35.9320    7.5830 O   0  0  0  0  0  0  0  0  0  0  0  0
   17.4440   35.3230    7.0520 C   0  0  0  0  0  0  0  0  0  0  0  0
   20.1070   34.0860    8.1030 C   0  0  0  0  0  0  0  0  0  0  0  0
   21.4420   33.4140    7.9910 C   0  0  1  0  0  0  0  0  0  0  0  0
   21.2200   32.0640    7.5870 O   0  0  0  0  0  0  0  0  0  0  0  0
   24.0452   35.7877    1.9679 H   0  0  0  0  0  0  0  0  0  0  0  0
   25.4283   35.8119    0.8221 H   0  0  0  0  0  0  0  0  0  0  0  0
   24.2861   34.4256    0.8221 H   0  0  0  0  0  0  0  0  0  0  0  0
   25.0930   31.6320    0.4420 H   0  0  0  0  0  0  0  0  0  0  0  0
   26.0179   29.4952    1.5067 H   0  0  0  0  0  0  0  0  0  0  0  0
   28.0000   28.5980    2.4320 H   0  0  0  0  0  0  0  0  0  0  0  0
   27.6952   33.0912    5.9293 H   0  0  0  0  0  0  0  0  0  0  0  0
   26.2384   33.9952    5.3467 H   0  0  0  0  0  0  0  0  0  0  0  0
   25.2753   31.5964    6.5163 H   0  0  0  0  0  0  0  0  0  0  0  0
   26.5303   32.2664    7.6420 H   0  0  0  0  0  0  0  0  0  0  0  0
   23.4890   32.5910    6.1040 H   0  0  0  0  0  0  0  0  0  0  0  0
   22.8605   35.6585    5.7306 H   0  0  0  0  0  0  0  0  0  0  0  0
   20.3388   36.0085    5.5949 H   0  0  0  0  0  0  0  0  0  0  0  0
   21.9730   37.4740    6.7640 H   0  0  0  0  0  0  0  0  0  0  0  0
   16.7988   34.9875    7.8773 H   0  0  0  0  0  0  0  0  0  0  0  0
   16.8995   36.0522    6.4341 H   0  0  0  0  0  0  0  0  0  0  0  0
   17.7283   34.4585    6.4341 H   0  0  0  0  0  0  0  0  0  0  0  0
   19.3319   33.6099    8.7215 H   0  0  0  0  0  0  0  0  0  0  0  0
   21.9165   33.5036    8.9793 H   0  0  0  0  0  0  0  0  0  0  0  0
   21.4930   31.5120    8.3400 H   0  0  0  0  0  0  0  0  0  0  0  0
  1  2  1  0
  2  3  1  0
  3  4  2  0
  3  5  1  0
  5  6  2  0
  6  7  1  0
  6  8  1  0
  8  9  2  0
  9 10  1  0
  9 11  1  0
 11 12  1  0
 11 13  2  0
 13 14  1  0
 14 15  1  0
 15 16  1  0
 16 17  2  0
 16 18  1  0
 18 19  1  0
 19 20  2  0
 20 21  1  0
 21 22  1  0
 21 23  1  0
 23 24  1  0
 24 25  1  0
 23 26  2  0
 26 27  1  0
 27 28  1  0
 13  5  1  0
 27 19  1  0
  1 29  1  0
  1 30  1  0
  1 31  1  0
  7 32  1  0
  8 33  1  0
 10 34  1  0
 14 35  1  0
 14 36  1  0
 15 37  1  0
 15 38  1  0
 18 39  1  0
 20 40  1  0
 21 41  1  6
 22 42  1  0
 25 43  1  0
 25 44  1  0
 25 45  1  0
 26 46  1  0
 27 47  1  1
 28 48  1  0
M  END
>  <meeko>  (6) 
{"is_sidechain": [false], "free_energy": -6.622, "intermolecular_energy": -9.803, "internal_energy": -1.626}

$$$$
2fxs_ligand
     RDKit          3D

 48 49  0  0  0  0  0  0  0  0999 V2000
   23.3470   32.7950    4.1890 C   0  0  0  0  0  0  0  0  0  0  0  0
   22.3480   32.9030    3.1740 O   0  0  0  0  0  0  0  0  0  0  0  0
   21.5460   33.9810    3.2990 C   0  0  0  0  0  0  0  0  0  0  0  0
   21.8460   35.1500    3.1050 O   0  0  0  0  0  0  0  0  0  0  0  0
   20.1530   33.5630    3.5630 C   0  0  0  0  0  0  0  0  0  0  0  0
   19.5560   32.7520    2.5790 C   0  0  0  0  0  0  0  0  0  0  0  0
   20.1800   32.4070    1.4080 O   0  0  0  0  0  0  0  0  0  0  0  0
   18.2690   32.2590    2.7490 C   0  0  0  0  0  0  0  0  0  0  0  0
   17.5550   32.6130    3.8840 C   0  0  0  0  0  0  0  0  0  0  0  0
   16.2850   32.1140    3.9980 O   0  0  0  0  0  0  0  0  0  0  0  0
   18.1090   33.4660    4.8520 C   0  0  0  0  0  0  0  0  0  0  0  0
   17.1010   33.9100    6.1930 Cl  0  0  0  0  0  0  0  0  0  0  0  0
   19.4250   33.9610    4.7120 C   0  0  0  0  0  0  0  0  0  0  0  0
   19.9840   34.9640    5.7060 C   0  0  0  0  0  0  0  0  0  0  0  0
   20.6720   34.2630    6.8780 C   0  0  0  0  0  0  0  0  0  0  0  0
   22.1310   34.6700    7.0020 C   0  0  0  0  0  0  0  0  0  0  0  0
   22.9230   34.0520    7.7040 O   0  0  0  0  0  0  0  0  0  0  0  0
   22.4190   35.7770    6.2190 N   0  0  0  0  0  0  0  0  0  0  0  0
   23.6200   36.4530    6.0590 C   0  0  0  0  0  0  0  0  0  0  0  0
   24.2820   36.5710    4.8950 C   0  0  0  0  0  0  0  0  0  0  0  0
   25.5420   37.3630    4.7230 C   0  0  2  0  0  0  0  0  0  0  0  0
   26.5630   36.4670    4.3020 O   0  0  0  0  0  0  0  0  0  0  0  0
   26.0130   38.0880    5.9730 C   0  0  0  0  0  0  0  0  0  0  0  0
   27.1500   38.8420    5.7520 O   0  0  0  0  0  0  0  0  0  0  0  0
   27.0670   39.9310    4.8400 C   0  0  0  0  0  0  0  0  0  0  0  0
   25.3640   37.9640    7.1470 C   0  0  0  0  0  0  0  0  0  0  0  0
   24.1610   37.0900    7.3320 C   0  0  1  0  0  0  0  0  0  0  0  0
   23.1260   37.8860    7.9070 O   0  0  0  0  0  0  0  0  0  0  0  0
   22.8707   32.8465    5.1792 H   0  0  0  0  0  0  0  0  0  0  0  0
   23.8733   31.8347    4.0848 H   0  0  0  0  0  0  0  0  0  0  0  0
   24.0664   33.6206    4.0848 H   0  0  0  0  0  0  0  0  0  0  0  0
   21.0850   32.0820    1.6070 H   0  0  0  0  0  0  0  0  0  0  0  0
   17.8217   31.5964    1.9934 H   0  0  0  0  0  0  0  0  0  0  0  0
   15.7400   32.7950    4.4340 H   0  0  0  0  0  0  0  0  0  0  0  0
   20.7155   35.6062    5.1936 H   0  0  0  0  0  0  0  0  0  0  0  0
   19.1496   35.5618    6.1014 H   0  0  0  0  0  0  0  0  0  0  0  0
   20.1483   34.5279    7.8083 H   0  0  0  0  0  0  0  0  0  0  0  0
   20.6339   33.1786    6.6975 H   0  0  0  0  0  0  0  0  0  0  0  0
   21.6660   36.1240    5.6290 H   0  0  0  0  0  0  0  0  0  0  0  0
   23.8733   36.0540    4.0143 H   0  0  0  0  0  0  0  0  0  0  0  0
   25.3267   38.1487    3.9839 H   0  0  0  0  0  0  0  0  0  0  0  0
   26.5820   35.7630    4.9740 H   0  0  0  0  0  0  0  0  0  0  0  0
   26.9951   40.8744    5.4010 H   0  0  0  0  0  0  0  0  0  0  0  0
   27.9664   39.9485    4.2070 H   0  0  0  0  0  0  0  0  0  0  0  0
   26.1753   39.8120    4.2070 H   0  0  0  0  0  0  0  0  0  0  0  0
   25.7355   38.5324    8.0124 H   0  0  0  0  0  0  0  0  0  0  0  0
   24.4815   36.2561    7.9738 H   0  0  0  0  0  0  0  0  0  0  0  0
   22.4150   37.9180    7.2440 H   0  0  0  0  0  0  0  0  0  0  0  0
  1  2  1  0
  2  3  1  0
  3  4  2  0
  3  5  1  0
  5  6  2  0
  6  7  1  0
  6  8  1  0
  8  9  2  0
  9 10  1  0
  9 11  1  0
 11 12  1  0
 11 13  2  0
 13 14  1  0
 14 15  1  0
 15 16  1  0
 16 17  2  0
 16 18  1  0
 18 19  1  0
 19 20  2  0
 20 21  1  0
 21 22  1  0
 21 23  1  0
 23 24  1  0
 24 25  1  0
 23 26  2  0
 26 27  1  0
 27 28  1  0
 13  5  1  0
 27 19  1  0
  1 29  1  0
  1 30  1  0
  1 31  1  0
  7 32  1  0
  8 33  1  0
 10 34  1  0
 14 35  1  0
 14 36  1  0
 15 37  1  0
 15 38  1  0
 18 39  1  0
 20 40  1  0
 21 41  1  6
 22 42  1  0
 25 43  1  0
 25 44  1  0
 25 45  1  0
 26 46  1  0
 27 47  1  1
 28 48  1  0
M  END
>  <meeko>  (7) 
{"is_sidechain": [false], "free_energy": -6.542, "intermolecular_energy": -9.699, "internal_energy": -1.606}

$$$$
2fxs_ligand
     RDKit          3D

 48 49  0  0  0  0  0  0  0  0999 V2000
   27.2100   29.6300    3.5830 C   0  0  0  0  0  0  0  0  0  0  0  0
   27.0050   31.0410    3.6710 O   0  0  0  0  0  0  0  0  0  0  0  0
   25.7220   31.4040    3.8810 C   0  0  0  0  0  0  0  0  0  0  0  0
   24.9060   30.8420    4.5950 O   0  0  0  0  0  0  0  0  0  0  0  0
   25.4400   32.7050    3.2410 C   0  0  0  0  0  0  0  0  0  0  0  0
   25.3890   32.7030    1.8340 C   0  0  0  0  0  0  0  0  0  0  0  0
   25.6450   31.5910    1.0740 O   0  0  0  0  0  0  0  0  0  0  0  0
   25.0820   33.8610    1.1310 C   0  0  0  0  0  0  0  0  0  0  0  0
   24.8670   35.0380    1.8320 C   0  0  0  0  0  0  0  0  0  0  0  0
   24.5810   36.1550    1.0940 O   0  0  0  0  0  0  0  0  0  0  0  0
   24.9670   35.0770    3.2320 C   0  0  0  0  0  0  0  0  0  0  0  0
   24.7590   36.6180    4.0030 Cl  0  0  0  0  0  0  0  0  0  0  0  0
   25.2570   33.9080    3.9700 C   0  0  0  0  0  0  0  0  0  0  0  0
   25.4660   33.9720    5.4720 C   0  0  0  0  0  0  0  0  0  0  0  0
   24.1770   34.3580    6.1990 C   0  0  0  0  0  0  0  0  0  0  0  0
   23.0230   33.4420    5.8280 C   0  0  0  0  0  0  0  0  0  0  0  0
   22.9950   32.2620    6.1570 O   0  0  0  0  0  0  0  0  0  0  0  0
   22.0440   34.1200    5.1180 N   0  0  0  0  0  0  0  0  0  0  0  0
   20.8460   33.6460    4.5990 C   0  0  0  0  0  0  0  0  0  0  0  0
   20.6380   33.3480    3.3050 C   0  0  0  0  0  0  0  0  0  0  0  0
   19.3620   32.7710    2.7720 C   0  0  2  0  0  0  0  0  0  0  0  0
   18.8330   33.6920    1.8270 O   0  0  0  0  0  0  0  0  0  0  0  0
   18.3040   32.4880    3.8240 C   0  0  0  0  0  0  0  0  0  0  0  0
   17.1660   31.9120    3.2910 O   0  0  0  0  0  0  0  0  0  0  0  0
   17.1000   30.4920    3.2260 C   0  0  0  0  0  0  0  0  0  0  0  0
   18.4990   32.7960    5.1220 C   0  0  0  0  0  0  0  0  0  0  0  0
   19.7400   33.4640    5.6300 C   0  0  1  0  0  0  0  0  0  0  0  0
   20.2540   32.6750    6.7020 O   0  0  0  0  0  0  0  0  0  0  0  0
   27.2718   29.2046    4.5955 H   0  0  0  0  0  0  0  0  0  0  0  0
   26.3692   29.1703    3.0429 H   0  0  0  0  0  0  0  0  0  0  0  0
   28.1468   29.4286    3.0429 H   0  0  0  0  0  0  0  0  0  0  0  0
   25.7530   30.8140    1.6630 H   0  0  0  0  0  0  0  0  0  0  0  0
   25.0104   33.8446    0.0335 H   0  0  0  0  0  0  0  0  0  0  0  0
   25.4280   36.5850    0.8710 H   0  0  0  0  0  0  0  0  0  0  0  0
   25.7970   32.9858    5.8296 H   0  0  0  0  0  0  0  0  0  0  0  0
   26.2256   34.7390    5.6834 H   0  0  0  0  0  0  0  0  0  0  0  0
   24.3475   34.2942    7.2838 H   0  0  0  0  0  0  0  0  0  0  0  0
   23.9098   35.3823    5.8999 H   0  0  0  0  0  0  0  0  0  0  0  0
   22.1810   35.1210    4.9970 H   0  0  0  0  0  0  0  0  0  0  0  0
   21.4548   33.5395    2.5935 H   0  0  0  0  0  0  0  0  0  0  0  0
   19.6123   31.7954    2.3298 H   0  0  0  0  0  0  0  0  0  0  0  0
   18.1370   34.1800    2.3030 H   0  0  0  0  0  0  0  0  0  0  0  0
   17.0808   30.0788    4.2453 H   0  0  0  0  0  0  0  0  0  0  0  0
   16.1869   30.1915    2.6912 H   0  0  0  0  0  0  0  0  0  0  0  0
   17.9813   30.1081    2.6912 H   0  0  0  0  0  0  0  0  0  0  0  0
   17.7078   32.5444    5.8436 H   0  0  0  0  0  0  0  0  0  0  0  0
   19.4424   34.4780    5.9353 H   0  0  0  0  0  0  0  0  0  0  0  0
   19.8700   33.0480    7.5150 H   0  0  0  0  0  0  0  0  0  0  0  0
  1  2  1  0
  2  3  1  0
  3  4  2  0
  3  5  1  0
  5  6  2  0
  6  7  1  0
  6  8  1  0
  8  9  2  0
  9 10  1  0
  9 11  1  0
 11 12  1  0
 11 13  2  0
 13 14  1  0
 14 15  1  0
 15 16  1  0
 16 17  2  0
 16 18  1  0
 18 19  1  0
 19 20  2  0
 20 21  1  0
 21 22  1  0
 21 23  1  0
 23 24  1  0
 24 25  1  0
 23 26  2  0
 26 27  1  0
 27 28  1  0
 13  5  1  0
 27 19  1  0
  1 29  1  0
  1 30  1  0
  1 31  1  0
  7 32  1  0
  8 33  1  0
 10 34  1  0
 14 35  1  0
 14 36  1  0
 15 37  1  0
 15 38  1  0
 18 39  1  0
 20 40  1  0
 21 41  1  6
 22 42  1  0
 25 43  1  0
 25 44  1  0
 25 45  1  0
 26 46  1  0
 27 47  1  1
 28 48  1  0
M  END
>  <meeko>  (8) 
{"is_sidechain": [false], "free_energy": -6.409, "intermolecular_energy": -10.132, "internal_energy": -0.971}

$$$$
2fxs_ligand
     RDKit          3D

 48 49  0  0  0  0  0  0  0  0999 V2000
   23.3020   33.2530    2.8580 C   0  0  0  0  0  0  0  0  0  0  0  0
   22.0150   32.8720    3.3460 O   0  0  0  0  0  0  0  0  0  0  0  0
   20.9840   33.4930    2.7350 C   0  0  0  0  0  0  0  0  0  0  0  0
   20.9510   33.9080    1.5860 O   0  0  0  0  0  0  0  0  0  0  0  0
   19.7860   33.4790    3.5990 C   0  0  0  0  0  0  0  0  0  0  0  0
   18.7250   32.6590    3.1700 C   0  0  0  0  0  0  0  0  0  0  0  0
   18.7470   31.9520    1.9950 O   0  0  0  0  0  0  0  0  0  0  0  0
   17.5710   32.5320    3.9320 C   0  0  0  0  0  0  0  0  0  0  0  0
   17.4540   33.2610    5.1060 C   0  0  0  0  0  0  0  0  0  0  0  0
   16.2910   33.1130    5.8140 O   0  0  0  0  0  0  0  0  0  0  0  0
   18.4750   34.1290    5.5250 C   0  0  0  0  0  0  0  0  0  0  0  0
   18.1920   35.0540    6.9650 Cl  0  0  0  0  0  0  0  0  0  0  0  0
   19.6670   34.2570    4.7780 C   0  0  0  0  0  0  0  0  0  0  0  0
   20.7250   35.2710    5.1770 C   0  0  0  0  0  0  0  0  0  0  0  0
   21.3490   34.9230    6.5290 C   0  0  0  0  0  0  0  0  0  0  0  0
   22.7670   34.3990    6.3800 C   0  0  0  0  0  0  0  0  0  0  0  0
   23.6990   35.1240    6.0530 O   0  0  0  0  0  0  0  0  0  0  0  0
   22.8440   33.0470    6.6800 N   0  0  0  0  0  0  0  0  0  0  0  0
   23.9450   32.2030    6.6610 C   0  0  0  0  0  0  0  0  0  0  0  0
   24.3610   31.5120    5.5860 C   0  0  0  0  0  0  0  0  0  0  0  0
   25.5920   30.6590    5.5620 C   0  0  2  0  0  0  0  0  0  0  0  0
   25.1900   29.3250    5.2800 O   0  0  0  0  0  0  0  0  0  0  0  0
   26.3960   30.6650    6.8510 C   0  0  0  0  0  0  0  0  0  0  0  0
   27.5460   29.9050    6.7640 O   0  0  0  0  0  0  0  0  0  0  0  0
   27.7590   28.8940    7.7440 C   0  0  0  0  0  0  0  0  0  0  0  0
   25.9800   31.3450    7.9380 C   0  0  0  0  0  0  0  0  0  0  0  0
   24.6950   32.1140    7.9840 C   0  0  1  0  0  0  0  0  0  0  0  0
   24.9930   33.4400    8.4180 O   0  0  0  0  0  0  0  0  0  0  0  0
   23.9722   33.4514    3.7074 H   0  0  0  0  0  0  0  0  0  0  0  0
   23.7175   32.4393    2.2454 H   0  0  0  0  0  0  0  0  0  0  0  0
   23.2076   34.1617    2.2454 H   0  0  0  0  0  0  0  0  0  0  0  0
   18.2620   32.4550    1.3060 H   0  0  0  0  0  0  0  0  0  0  0  0
   16.7606   31.8622    3.6087 H   0  0  0  0  0  0  0  0  0  0  0  0
   16.0720   33.9800    6.2030 H   0  0  0  0  0  0  0  0  0  0  0  0
   21.5146   35.2847    4.4112 H   0  0  0  0  0  0  0  0  0  0  0  0
   20.2454   36.2574    5.2605 H   0  0  0  0  0  0  0  0  0  0  0  0
   21.3679   35.8271    7.1553 H   0  0  0  0  0  0  0  0  0  0  0  0
   20.7402   34.1325    6.9922 H   0  0  0  0  0  0  0  0  0  0  0  0
   21.9900   32.6080    7.0160 H   0  0  0  0  0  0  0  0  0  0  0  0
   23.7603   31.5769    4.6668 H   0  0  0  0  0  0  0  0  0  0  0  0
   26.2562   31.0803    4.7931 H   0  0  0  0  0  0  0  0  0  0  0  0
   24.9420   29.3230    4.3380 H   0  0  0  0  0  0  0  0  0  0  0  0
   27.6667   29.3321    8.7488 H   0  0  0  0  0  0  0  0  0  0  0  0
   27.0086   28.0993    7.6201 H   0  0  0  0  0  0  0  0  0  0  0  0
   28.7663   28.4697    7.6201 H   0  0  0  0  0  0  0  0  0  0  0  0
   26.6155   31.3348    8.8358 H   0  0  0  0  0  0  0  0  0  0  0  0
   24.0325   31.5664    8.6704 H   0  0  0  0  0  0  0  0  0  0  0  0
   25.9020   33.4090    8.7650 H   0  0  0  0  0  0  0  0  0  0  0  0
  1  2  1  0
  2  3  1  0
  3  4  2  0
  3  5  1  0
  5  6  2  0
  6  7  1  0
  6  8  1  0
  8  9  2  0
  9 10  1  0
  9 11  1  0
 11 12  1  0
 11 13  2  0
 13 14  1  0
 14 15  1  0
 15 16  1  0
 16 17  2  0
 16 18  1  0
 18 19  1  0
 19 20  2  0
 20 21  1  0
 21 22  1  0
 21 23  1  0
 23 24  1  0
 24 25  1  0
 23 26  2  0
 26 27  1  0
 27 28  1  0
 13  5  1  0
 27 19  1  0
  1 29  1  0
  1 30  1  0
  1 31  1  0
  7 32  1  0
  8 33  1  0
 10 34  1  0
 14 35  1  0
 14 36  1  0
 15 37  1  0
 15 38  1  0
 18 39  1  0
 20 40  1  0
 21 41  1  6
 22 42  1  0
 25 43  1  0
 25 44  1  0
 25 45  1  0
 26 46  1  0
 27 47  1  1
 28 48  1  0
M  END
>  <meeko>  (9) 
{"is_sidechain": [false], "free_energy": -6.353, "intermolecular_energy": -9.768, "internal_energy": -1.25}

$$$$
