3dx1_ligand
     RDKit          3D

 21 21  0  0  0  0  0  0  0  0999 V2000
   30.3420   64.7240    9.5550 N   0  0  0  0  0  0  0  0  0  0  0  0
   30.5690   66.2020    9.4670 C   0  0  2  0  0  0  0  0  0  0  0  0
   29.8700   66.7450    8.2220 C   0  0  0  0  0  0  0  0  0  0  0  0
   30.8550   66.3800    7.1180 C   0  0  2  0  0  0  0  0  0  0  0  0
   30.8020   64.9570    6.9410 O   0  0  0  0  0  0  0  0  0  0  0  0
   32.2040   66.7880    7.7240 C   0  0  2  0  0  0  0  0  0  0  0  0
   33.2920   66.0920    7.1270 O   0  0  0  0  0  0  0  0  0  0  0  0
   32.0790   66.4230    9.2200 C   0  0  2  0  0  0  0  0  0  0  0  0
   32.7860   65.2140    9.5410 O   0  0  0  0  0  0  0  0  0  0  0  0
   29.4580   64.3850    9.1700 H   0  0  0  0  0  0  0  0  0  0  0  0
   30.4290   64.4590   10.5540 H   0  0  0  0  0  0  0  0  0  0  0  0
   31.1350   64.2350    9.0930 H   0  0  0  0  0  0  0  0  0  0  0  0
   30.2018   66.6897   10.3820 H   0  0  0  0  0  0  0  0  0  0  0  0
   28.8965   66.2571    8.0659 H   0  0  0  0  0  0  0  0  0  0  0  0
   29.6433   67.8201    8.2752 H   0  0  0  0  0  0  0  0  0  0  0  0
   30.6634   66.8551    6.1446 H   0  0  0  0  0  0  0  0  0  0  0  0
   29.9820   64.6610    7.3950 H   0  0  0  0  0  0  0  0  0  0  0  0
   32.4145   67.8549    7.5586 H   0  0  0  0  0  0  0  0  0  0  0  0
   33.5480   66.5690    6.3120 H   0  0  0  0  0  0  0  0  0  0  0  0
   32.5094   67.2204    9.8437 H   0  0  0  0  0  0  0  0  0  0  0  0
   33.4650   65.1180    8.8320 H   0  0  0  0  0  0  0  0  0  0  0  0
  1  2  1  0
  2  3  1  0
  3  4  1  0
  4  5  1  0
  4  6  1  0
  6  7  1  0
  6  8  1  0
  8  9  1  0
  8  2  1  0
  1 10  1  0
  1 11  1  0
  1 12  1  0
  2 13  1  1
  3 14  1  0
  3 15  1  0
  4 16  1  6
  5 17  1  0
  6 18  1  1
  7 19  1  0
  8 20  1  1
  9 21  1  0
M  CHG  1   1   1
M  END
>  <meeko>  (1) 
{"is_sidechain": [false], "free_energy": -6.586, "intermolecular_energy": -7.356, "internal_energy": 0.0}

$$$$
3dx1_ligand
     RDKit          3D

 21 21  0  0  0  0  0  0  0  0999 V2000
   32.0760   64.9200    9.6650 N   0  0  0  0  0  0  0  0  0  0  0  0
   31.7530   66.3800    9.5820 C   0  0  2  0  0  0  0  0  0  0  0  0
   30.2480   66.5520    9.3860 C   0  0  0  0  0  0  0  0  0  0  0  0
   30.0880   66.2830    7.8940 C   0  0  2  0  0  0  0  0  0  0  0  0
   30.2970   64.8790    7.6810 O   0  0  0  0  0  0  0  0  0  0  0  0
   31.2400   67.0890    7.2820 C   0  0  2  0  0  0  0  0  0  0  0  0
   31.6140   66.6000    6.0000 O   0  0  0  0  0  0  0  0  0  0  0  0
   32.4010   66.9240    8.2880 C   0  0  2  0  0  0  0  0  0  0  0  0
   33.3840   65.9820    7.8270 O   0  0  0  0  0  0  0  0  0  0  0  0
   31.6550   64.4140   10.4470 H   0  0  0  0  0  0  0  0  0  0  0  0
   33.1100   64.8360    9.6900 H   0  0  0  0  0  0  0  0  0  0  0  0
   31.8070   64.4660    8.7690 H   0  0  0  0  0  0  0  0  0  0  0  0
   32.1033   66.8901   10.4914 H   0  0  0  0  0  0  0  0  0  0  0  0
   29.6814   65.8247    9.9860 H   0  0  0  0  0  0  0  0  0  0  0  0
   29.8699   67.5356    9.7016 H   0  0  0  0  0  0  0  0  0  0  0  0
   29.1085   66.5529    7.4724 H   0  0  0  0  0  0  0  0  0  0  0  0
   31.2620   64.7730    7.5260 H   0  0  0  0  0  0  0  0  0  0  0  0
   30.9568   68.1398    7.1219 H   0  0  0  0  0  0  0  0  0  0  0  0
   31.2400   67.2010    5.3240 H   0  0  0  0  0  0  0  0  0  0  0  0
   32.9196   67.8834    8.4317 H   0  0  0  0  0  0  0  0  0  0  0  0
   33.0590   65.1030    8.1340 H   0  0  0  0  0  0  0  0  0  0  0  0
  1  2  1  0
  2  3  1  0
  3  4  1  0
  4  5  1  0
  4  6  1  0
  6  7  1  0
  6  8  1  0
  8  9  1  0
  8  2  1  0
  1 10  1  0
  1 11  1  0
  1 12  1  0
  2 13  1  1
  3 14  1  0
  3 15  1  0
  4 16  1  6
  5 17  1  0
  6 18  1  6
  7 19  1  0
  8 20  1  1
  9 21  1  0
M  CHG  1   1   1
M  END
>  <meeko>  (2) 
{"is_sidechain": [false], "free_energy": -5.872, "intermolecular_energy": -6.558, "internal_energy": 0.0}

$$$$
3dx1_ligand
     RDKit          3D

 21 21  0  0  0  0  0  0  0  0999 V2000
   30.2850   65.0080    6.6660 N   0  0  0  0  0  0  0  0  0  0  0  0
   30.1330   66.2100    7.5490 C   0  0  2  0  0  0  0  0  0  0  0  0
   31.1180   67.2890    7.1040 C   0  0  0  0  0  0  0  0  0  0  0  0
   32.4220   66.8100    7.7330 C   0  0  2  0  0  0  0  0  0  0  0  0
   32.8500   65.6440    7.0120 O   0  0  0  0  0  0  0  0  0  0  0  0
   31.9870   66.4240    9.1520 C   0  0  2  0  0  0  0  0  0  0  0  0
   32.8790   65.4900    9.7510 O   0  0  0  0  0  0  0  0  0  0  0  0
   30.5870   65.7990    8.9690 C   0  0  2  0  0  0  0  0  0  0  0  0
   30.6210   64.3650    9.0510 O   0  0  0  0  0  0  0  0  0  0  0  0
   31.2120   64.5770    6.6570 H   0  0  0  0  0  0  0  0  0  0  0  0
   30.0060   65.2930    5.7100 H   0  0  0  0  0  0  0  0  0  0  0  0
   29.5730   64.3010    6.9380 H   0  0  0  0  0  0  0  0  0  0  0  0
   29.0945   66.5706    7.5112 H   0  0  0  0  0  0  0  0  0  0  0  0
   31.1955   67.3313    6.0075 H   0  0  0  0  0  0  0  0  0  0  0  0
   30.8276   68.3057    7.4072 H   0  0  0  0  0  0  0  0  0  0  0  0
   33.2431   67.5419    7.7224 H   0  0  0  0  0  0  0  0  0  0  0  0
   33.7380   65.4210    7.3670 H   0  0  0  0  0  0  0  0  0  0  0  0
   31.9832   67.2955    9.8231 H   0  0  0  0  0  0  0  0  0  0  0  0
   33.1590   65.8480   10.6170 H   0  0  0  0  0  0  0  0  0  0  0  0
   29.9080   66.1482    9.7609 H   0  0  0  0  0  0  0  0  0  0  0  0
   29.8460   64.0600    8.5240 H   0  0  0  0  0  0  0  0  0  0  0  0
  1  2  1  0
  2  3  1  0
  3  4  1  0
  4  5  1  0
  4  6  1  0
  6  7  1  0
  6  8  1  0
  8  9  1  0
  8  2  1  0
  1 10  1  0
  1 11  1  0
  1 12  1  0
  2 13  1  1
  3 14  1  0
  3 15  1  0
  4 16  1  1
  5 17  1  0
  6 18  1  1
  7 19  1  0
  8 20  1  1
  9 21  1  0
M  CHG  1   1   1
M  END
>  <meeko>  (3) 
{"is_sidechain": [false], "free_energy": -5.656, "intermolecular_energy": -6.317, "internal_energy": 0.0}

$$$$
3dx1_ligand
     RDKit          3D

 21 21  0  0  0  0  0  0  0  0999 V2000
   31.5630   67.1580    6.3730 N   0  0  0  0  0  0  0  0  0  0  0  0
   30.9570   65.8280    6.7040 C   0  0  2  0  0  0  0  0  0  0  0  0
   29.5540   65.7520    6.1070 C   0  0  0  0  0  0  0  0  0  0  0  0
   28.7320   66.5430    7.1180 C   0  0  2  0  0  0  0  0  0  0  0  0
   29.0840   67.9270    6.9760 O   0  0  0  0  0  0  0  0  0  0  0  0
   29.2420   66.0020    8.4600 C   0  0  2  0  0  0  0  0  0  0  0  0
   29.0190   66.9180    9.5260 O   0  0  0  0  0  0  0  0  0  0  0  0
   30.7550   65.7830    8.2370 C   0  0  2  0  0  0  0  0  0  0  0  0
   31.5440   66.8200    8.8430 O   0  0  0  0  0  0  0  0  0  0  0  0
   31.0070   67.7610    5.7630 H   0  0  0  0  0  0  0  0  0  0  0  0
   32.4940   66.9740    5.9540 H   0  0  0  0  0  0  0  0  0  0  0  0
   31.7780   67.6580    7.2580 H   0  0  0  0  0  0  0  0  0  0  0  0
   31.6012   65.0207    6.3255 H   0  0  0  0  0  0  0  0  0  0  0  0
   29.5182   66.2183    5.1114 H   0  0  0  0  0  0  0  0  0  0  0  0
   29.1944   64.7240    5.9525 H   0  0  0  0  0  0  0  0  0  0  0  0
   27.6413   66.4523    7.0081 H   0  0  0  0  0  0  0  0  0  0  0  0
   29.3940   68.2170    7.8630 H   0  0  0  0  0  0  0  0  0  0  0  0
   28.7141   65.0818    8.7507 H   0  0  0  0  0  0  0  0  0  0  0  0
   29.8700   67.0660    9.9840 H   0  0  0  0  0  0  0  0  0  0  0  0
   31.0742   64.8326    8.6896 H   0  0  0  0  0  0  0  0  0  0  0  0
   31.1080   67.0020    9.7070 H   0  0  0  0  0  0  0  0  0  0  0  0
  1  2  1  0
  2  3  1  0
  3  4  1  0
  4  5  1  0
  4  6  1  0
  6  7  1  0
  6  8  1  0
  8  9  1  0
  8  2  1  0
  1 10  1  0
  1 11  1  0
  1 12  1  0
  2 13  1  6
  3 14  1  0
  3 15  1  0
  4 16  1  6
  5 17  1  0
  6 18  1  1
  7 19  1  0
  8 20  1  1
  9 21  1  0
M  CHG  1   1   1
M  END
>  <meeko>  (4) 
{"is_sidechain": [false], "free_energy": -4.294, "intermolecular_energy": -4.796, "internal_energy": 0.0}

$$$$
3dx1_ligand
     RDKit          3D

 21 21  0  0  0  0  0  0  0  0999 V2000
   31.3960   65.4130    6.5610 N   0  0  0  0  0  0  0  0  0  0  0  0
   31.2990   66.7810    7.1640 C   0  0  2  0  0  0  0  0  0  0  0  0
   32.1160   66.8230    8.4530 C   0  0  0  0  0  0  0  0  0  0  0  0
   31.1750   66.1560    9.4500 C   0  0  2  0  0  0  0  0  0  0  0  0
   31.1210   64.7580    9.1290 O   0  0  0  0  0  0  0  0  0  0  0  0
   29.8290   66.8220    9.1370 C   0  0  2  0  0  0  0  0  0  0  0  0
   28.7270   66.0260    9.5560 O   0  0  0  0  0  0  0  0  0  0  0  0
   29.8290   66.9880    7.6010 C   0  0  2  0  0  0  0  0  0  0  0  0
   29.0070   66.0040    6.9530 O   0  0  0  0  0  0  0  0  0  0  0  0
   30.5720   64.8180    6.6720 H   0  0  0  0  0  0  0  0  0  0  0  0
   32.2330   64.9560    6.9700 H   0  0  0  0  0  0  0  0  0  0  0  0
   31.6260   65.5070    5.5520 H   0  0  0  0  0  0  0  0  0  0  0  0
   31.6487   67.5321    6.4405 H   0  0  0  0  0  0  0  0  0  0  0  0
   33.0540   66.2577    8.3497 H   0  0  0  0  0  0  0  0  0  0  0  0
   32.4262   67.8365    8.7473 H   0  0  0  0  0  0  0  0  0  0  0  0
   31.4658   66.2559   10.5061 H   0  0  0  0  0  0  0  0  0  0  0  0
   31.5810   64.2970    9.8660 H   0  0  0  0  0  0  0  0  0  0  0  0
   29.7183   67.7772    9.6712 H   0  0  0  0  0  0  0  0  0  0  0  0
   28.1190   66.5930   10.0710 H   0  0  0  0  0  0  0  0  0  0  0  0
   29.4270   67.9736    7.3235 H   0  0  0  0  0  0  0  0  0  0  0  0
   28.4410   66.5150    6.3280 H   0  0  0  0  0  0  0  0  0  0  0  0
  1  2  1  0
  2  3  1  0
  3  4  1  0
  4  5  1  0
  4  6  1  0
  6  7  1  0
  6  8  1  0
  8  9  1  0
  8  2  1  0
  1 10  1  0
  1 11  1  0
  1 12  1  0
  2 13  1  6
  3 14  1  0
  3 15  1  0
  4 16  1  1
  5 17  1  0
  6 18  1  1
  7 19  1  0
  8 20  1  1
  9 21  1  0
M  CHG  1   1   1
M  END
>  <meeko>  (5) 
{"is_sidechain": [false], "free_energy": -4.293, "intermolecular_energy": -4.795, "internal_energy": 0.0}

$$$$
3dx1_ligand
     RDKit          3D

 21 21  0  0  0  0  0  0  0  0999 V2000
   29.0690   67.2050    9.4390 N   0  0  0  0  0  0  0  0  0  0  0  0
   29.0540   65.9370    8.6400 C   0  0  2  0  0  0  0  0  0  0  0  0
   30.2160   65.0510    9.0810 C   0  0  0  0  0  0  0  0  0  0  0  0
   31.3940   65.6750    8.3410 C   0  0  2  0  0  0  0  0  0  0  0  0
   31.6770   66.9370    8.9630 O   0  0  0  0  0  0  0  0  0  0  0  0
   30.8260   65.8940    6.9330 C   0  0  2  0  0  0  0  0  0  0  0  0
   31.5290   66.9080    6.2240 O   0  0  0  0  0  0  0  0  0  0  0  0
   29.3580   66.3140    7.1710 C   0  0  2  0  0  0  0  0  0  0  0  0
   29.1680   67.7280    7.0030 O   0  0  0  0  0  0  0  0  0  0  0  0
   28.4820   67.2110   10.2750 H   0  0  0  0  0  0  0  0  0  0  0  0
   28.7990   67.9740    8.7980 H   0  0  0  0  0  0  0  0  0  0  0  0
   30.0510   67.4260    9.6980 H   0  0  0  0  0  0  0  0  0  0  0  0
   28.0871   65.4282    8.7676 H   0  0  0  0  0  0  0  0  0  0  0  0
   30.3605   65.0954   10.1706 H   0  0  0  0  0  0  0  0  0  0  0  0
   30.0683   63.9842    8.8570 H   0  0  0  0  0  0  0  0  0  0  0  0
   32.3171   65.0768    8.3401 H   0  0  0  0  0  0  0  0  0  0  0  0
   32.1940   67.4500    8.3030 H   0  0  0  0  0  0  0  0  0  0  0  0
   30.9182   64.9883    6.3156 H   0  0  0  0  0  0  0  0  0  0  0  0
   32.0370   67.4360    6.8710 H   0  0  0  0  0  0  0  0  0  0  0  0
   28.6963   65.8146    6.4479 H   0  0  0  0  0  0  0  0  0  0  0  0
   29.3480   68.1180    7.8910 H   0  0  0  0  0  0  0  0  0  0  0  0
  1  2  1  0
  2  3  1  0
  3  4  1  0
  4  5  1  0
  4  6  1  0
  6  7  1  0
  6  8  1  0
  8  9  1  0
  8  2  1  0
  1 10  1  0
  1 11  1  0
  1 12  1  0
  2 13  1  6
  3 14  1  0
  3 15  1  0
  4 16  1  6
  5 17  1  0
  6 18  1  6
  7 19  1  0
  8 20  1  6
  9 21  1  0
M  CHG  1   1   1
M  END
>  <meeko>  (6) 
{"is_sidechain": [false], "free_energy": -3.859, "intermolecular_energy": -4.31, "internal_energy": 0.0}

$$$$
3dx1_ligand
     RDKit          3D

 21 21  0  0  0  0  0  0  0  0999 V2000
   29.4780   67.4980    7.2530 N   0  0  0  0  0  0  0  0  0  0  0  0
   30.0220   66.1410    6.9250 C   0  0  2  0  0  0  0  0  0  0  0  0
   29.9540   65.2570    8.1680 C   0  0  0  0  0  0  0  0  0  0  0  0
   31.1750   65.7180    8.9550 C   0  0  2  0  0  0  0  0  0  0  0  0
   30.8970   67.0320    9.4600 O   0  0  0  0  0  0  0  0  0  0  0  0
   32.2630   65.7850    7.8750 C   0  0  2  0  0  0  0  0  0  0  0  0
   33.3250   66.6600    8.2380 O   0  0  0  0  0  0  0  0  0  0  0  0
   31.5290   66.3090    6.6220 C   0  0  2  0  0  0  0  0  0  0  0  0
   31.8040   67.6990    6.3780 O   0  0  0  0  0  0  0  0  0  0  0  0
   30.0040   68.2910    6.8780 H   0  0  0  0  0  0  0  0  0  0  0  0
   29.4110   67.5600    8.2850 H   0  0  0  0  0  0  0  0  0  0  0  0
   28.4910   67.5500    6.9310 H   0  0  0  0  0  0  0  0  0  0  0  0
   29.4554   65.7060    6.0885 H   0  0  0  0  0  0  0  0  0  0  0  0
   29.0260   65.4320    8.7321 H   0  0  0  0  0  0  0  0  0  0  0  0
   29.9519   64.1798    7.9453 H   0  0  0  0  0  0  0  0  0  0  0  0
   31.4543   65.0761    9.8035 H   0  0  0  0  0  0  0  0  0  0  0  0
   31.3460   67.0850   10.3320 H   0  0  0  0  0  0  0  0  0  0  0  0
   32.7350   64.8042    7.7164 H   0  0  0  0  0  0  0  0  0  0  0  0
   33.8590   66.8390    7.4390 H   0  0  0  0  0  0  0  0  0  0  0  0
   31.8570   65.7563    5.7293 H   0  0  0  0  0  0  0  0  0  0  0  0
   31.4510   68.1710    7.1680 H   0  0  0  0  0  0  0  0  0  0  0  0
  1  2  1  0
  2  3  1  0
  3  4  1  0
  4  5  1  0
  4  6  1  0
  6  7  1  0
  6  8  1  0
  8  9  1  0
  8  2  1  0
  1 10  1  0
  1 11  1  0
  1 12  1  0
  2 13  1  6
  3 14  1  0
  3 15  1  0
  4 16  1  1
  5 17  1  0
  6 18  1  6
  7 19  1  0
  8 20  1  6
  9 21  1  0
M  CHG  1   1   1
M  END
>  <meeko>  (7) 
{"is_sidechain": [false], "free_energy": -3.813, "intermolecular_energy": -4.259, "internal_energy": 0.0}

$$$$
