1owh_ligand
     RDKit          3D

 44 46  0  0  0  0  0  0  0  0999 V2000
   17.0230   19.5290   33.9080 N   0  0  0  0  0  0  0  0  0  0  0  0
   18.3260   19.7050   33.9490 C   0  0  0  0  0  0  0  0  0  0  0  0
   18.8480   20.8800   34.2270 N   0  0  0  0  0  0  0  0  0  0  0  0
   19.2160   18.5670   33.6770 C   0  0  0  0  0  0  0  0  0  0  0  0
   18.7760   17.4800   32.9110 C   0  0  0  0  0  0  0  0  0  0  0  0
   19.6240   16.3950   32.6610 C   0  0  0  0  0  0  0  0  0  0  0  0
   20.9300   16.3680   33.1720 C   0  0  0  0  0  0  0  0  0  0  0  0
   21.7890   15.2760   32.9390 C   0  0  0  0  0  0  0  0  0  0  0  0
   23.0850   15.2670   33.4700 C   0  0  0  0  0  0  0  0  0  0  0  0
   24.0160   14.1180   33.2790 C   0  0  0  0  0  0  0  0  0  0  0  0
   25.2110   14.3170   33.4520 O   0  0  0  0  0  0  0  0  0  0  0  0
   23.4260   12.9270   32.8860 N   0  0  0  0  0  0  0  0  0  0  0  0
   24.0860   11.7080   32.6100 C   0  0  0  0  0  0  0  0  0  0  0  0
   25.2080   11.5950   31.7900 C   0  0  0  0  0  0  0  0  0  0  0  0
   25.7950   10.3490   31.5410 C   0  0  0  0  0  0  0  0  0  0  0  0
   25.2720    9.1840   32.1160 C   0  0  0  0  0  0  0  0  0  0  0  0
   25.9190    7.8540   31.8600 C   0  0  0  0  0  0  0  0  0  0  0  0
   26.3910    7.7490   30.4630 N   0  0  0  0  0  0  0  0  0  0  0  0
   24.1570    9.2970   32.9560 C   0  0  0  0  0  0  0  0  0  0  0  0
   23.5690   10.5460   33.1950 C   0  0  0  0  0  0  0  0  0  0  0  0
   23.5220   16.3430   34.2480 C   0  0  0  0  0  0  0  0  0  0  0  0
   22.6810   17.4320   34.4790 C   0  0  0  0  0  0  0  0  0  0  0  0
   21.3840   17.4600   33.9480 C   0  0  0  0  0  0  0  0  0  0  0  0
   20.5230   18.5460   34.1880 C   0  0  0  0  0  0  0  0  0  0  0  0
   16.3640   20.2750   34.0890 H   0  0  0  0  0  0  0  0  0  0  0  0
   16.6390   18.6070   33.7240 H   0  0  0  0  0  0  0  0  0  0  0  0
   19.8550   21.0020   34.2330 H   0  0  0  0  0  0  0  0  0  0  0  0
   18.2830   21.6960   34.4220 H   0  0  0  0  0  0  0  0  0  0  0  0
   17.7548   17.4791   32.5022 H   0  0  0  0  0  0  0  0  0  0  0  0
   19.2612   15.5515   32.0552 H   0  0  0  0  0  0  0  0  0  0  0  0
   21.4396   14.4249   32.3361 H   0  0  0  0  0  0  0  0  0  0  0  0
   22.4340   12.9480   32.6900 H   0  0  0  0  0  0  0  0  0  0  0  0
   25.6380   12.4980   31.3322 H   0  0  0  0  0  0  0  0  0  0  0  0
   26.6767   10.2841   30.8865 H   0  0  0  0  0  0  0  0  0  0  0  0
   26.7768    7.7358   32.5384 H   0  0  0  0  0  0  0  0  0  0  0  0
   25.1736    7.0645   32.0360 H   0  0  0  0  0  0  0  0  0  0  0  0
   26.7830    6.8210   30.2640 H   0  0  0  0  0  0  0  0  0  0  0  0
   27.1150    8.4520   30.2690 H   0  0  0  0  0  0  0  0  0  0  0  0
   25.6210    7.9190   29.8040 H   0  0  0  0  0  0  0  0  0  0  0  0
   23.7394    8.3976   33.4321 H   0  0  0  0  0  0  0  0  0  0  0  0
   22.6890   10.6145   33.8514 H   0  0  0  0  0  0  0  0  0  0  0  0
   24.5335   16.3311   34.6801 H   0  0  0  0  0  0  0  0  0  0  0  0
   23.0395   18.2776   35.0843 H   0  0  0  0  0  0  0  0  0  0  0  0
   20.8811   19.3956   34.7880 H   0  0  0  0  0  0  0  0  0  0  0  0
  1  2  1  0
  2  3  2  0
  2  4  1  0
  4  5  2  0
  5  6  1  0
  6  7  2  0
  7  8  1  0
  8  9  2  0
  9 10  1  0
 10 11  2  0
 10 12  1  0
 12 13  1  0
 13 14  2  0
 14 15  1  0
 15 16  2  0
 16 17  1  0
 17 18  1  0
 16 19  1  0
 19 20  2  0
  9 21  1  0
 21 22  2  0
 22 23  1  0
 23 24  2  0
 24  4  1  0
 23  7  1  0
 20 13  1  0
  1 25  1  0
  1 26  1  0
  3 27  1  0
  3 28  1  0
  5 29  1  0
  6 30  1  0
  8 31  1  0
 12 32  1  0
 14 33  1  0
 15 34  1  0
 17 35  1  0
 17 36  1  0
 18 37  1  0
 18 38  1  0
 18 39  1  0
 19 40  1  0
 20 41  1  0
 21 42  1  0
 22 43  1  0
 24 44  1  0
M  CHG  2   3   1  18   1
M  END
>  <meeko>  (1) 
{"is_sidechain": [false], "free_energy": -8.6, "intermolecular_energy": -10.862, "internal_energy": -0.308}

$$$$
1owh_ligand
     RDKit          3D

 44 46  0  0  0  0  0  0  0  0999 V2000
   26.7830    7.6410   29.8510 N   0  0  0  0  0  0  0  0  0  0  0  0
   26.7750    8.1000   31.0840 C   0  0  0  0  0  0  0  0  0  0  0  0
   27.2240    7.3750   32.0860 N   0  0  0  0  0  0  0  0  0  0  0  0
   26.2520    9.4480   31.3470 C   0  0  0  0  0  0  0  0  0  0  0  0
   26.8710   10.5780   30.7970 C   0  0  0  0  0  0  0  0  0  0  0  0
   26.3750   11.8600   31.0570 C   0  0  0  0  0  0  0  0  0  0  0  0
   25.2500   12.0460   31.8750 C   0  0  0  0  0  0  0  0  0  0  0  0
   24.7480   13.3320   32.1550 C   0  0  0  0  0  0  0  0  0  0  0  0
   23.6310   13.4930   32.9850 C   0  0  0  0  0  0  0  0  0  0  0  0
   23.0880   14.8360   33.3370 C   0  0  0  0  0  0  0  0  0  0  0  0
   23.7930   15.5780   34.0080 O   0  0  0  0  0  0  0  0  0  0  0  0
   21.8030   15.1000   32.8890 N   0  0  0  0  0  0  0  0  0  0  0  0
   21.0550   16.2770   33.1140 C   0  0  0  0  0  0  0  0  0  0  0  0
   21.6110   17.5540   33.1910 C   0  0  0  0  0  0  0  0  0  0  0  0
   20.8100   18.6740   33.4430 C   0  0  0  0  0  0  0  0  0  0  0  0
   19.4270   18.5400   33.6170 C   0  0  0  0  0  0  0  0  0  0  0  0
   18.5730   19.7480   33.8670 C   0  0  0  0  0  0  0  0  0  0  0  0
   17.1360   19.3990   33.8570 N   0  0  0  0  0  0  0  0  0  0  0  0
   18.8630   17.2610   33.5210 C   0  0  0  0  0  0  0  0  0  0  0  0
   19.6710   16.1430   33.2760 C   0  0  0  0  0  0  0  0  0  0  0  0
   23.0200   12.3690   33.5490 C   0  0  0  0  0  0  0  0  0  0  0  0
   23.5060   11.0900   33.2710 C   0  0  0  0  0  0  0  0  0  0  0  0
   24.6180   10.9120   32.4370 C   0  0  0  0  0  0  0  0  0  0  0  0
   25.1240    9.6290   32.1640 C   0  0  0  0  0  0  0  0  0  0  0  0
   27.1330    6.7220   29.6130 H   0  0  0  0  0  0  0  0  0  0  0  0
   26.4630    8.2280   29.0870 H   0  0  0  0  0  0  0  0  0  0  0  0
   27.1900    7.7380   33.0320 H   0  0  0  0  0  0  0  0  0  0  0  0
   27.5940    6.4420   31.9620 H   0  0  0  0  0  0  0  0  0  0  0  0
   27.7555   10.4561   30.1545 H   0  0  0  0  0  0  0  0  0  0  0  0
   26.8739   12.7346   30.6140 H   0  0  0  0  0  0  0  0  0  0  0  0
   25.2364   14.2159   31.7189 H   0  0  0  0  0  0  0  0  0  0  0  0
   21.3130   14.3450   32.4280 H   0  0  0  0  0  0  0  0  0  0  0  0
   22.6945   17.6828   33.0517 H   0  0  0  0  0  0  0  0  0  0  0  0
   21.2720   19.6703   33.5050 H   0  0  0  0  0  0  0  0  0  0  0  0
   18.8319   20.1736   34.8477 H   0  0  0  0  0  0  0  0  0  0  0  0
   18.7595   20.4780   33.0656 H   0  0  0  0  0  0  0  0  0  0  0  0
   16.7250   19.4580   34.7960 H   0  0  0  0  0  0  0  0  0  0  0  0
   16.9960   18.4450   33.5040 H   0  0  0  0  0  0  0  0  0  0  0  0
   16.6120   20.0300   33.2390 H   0  0  0  0  0  0  0  0  0  0  0  0
   17.7768   17.1336   33.6390 H   0  0  0  0  0  0  0  0  0  0  0  0
   19.2114   15.1458   33.2100 H   0  0  0  0  0  0  0  0  0  0  0  0
   22.1529   12.4929   34.2144 H   0  0  0  0  0  0  0  0  0  0  0  0
   23.0105   10.2123   33.7115 H   0  0  0  0  0  0  0  0  0  0  0  0
   24.6266    8.7495   32.5989 H   0  0  0  0  0  0  0  0  0  0  0  0
  1  2  1  0
  2  3  2  0
  2  4  1  0
  4  5  2  0
  5  6  1  0
  6  7  2  0
  7  8  1  0
  8  9  2  0
  9 10  1  0
 10 11  2  0
 10 12  1  0
 12 13  1  0
 13 14  2  0
 14 15  1  0
 15 16  2  0
 16 17  1  0
 17 18  1  0
 16 19  1  0
 19 20  2  0
  9 21  1  0
 21 22  2  0
 22 23  1  0
 23 24  2  0
 24  4  1  0
 23  7  1  0
 20 13  1  0
  1 25  1  0
  1 26  1  0
  3 27  1  0
  3 28  1  0
  5 29  1  0
  6 30  1  0
  8 31  1  0
 12 32  1  0
 14 33  1  0
 15 34  1  0
 17 35  1  0
 17 36  1  0
 18 37  1  0
 18 38  1  0
 18 39  1  0
 19 40  1  0
 20 41  1  0
 21 42  1  0
 22 43  1  0
 24 44  1  0
M  CHG  2   3   1  18   1
M  END
>  <meeko>  (2) 
{"is_sidechain": [false], "free_energy": -8.077, "intermolecular_energy": -10.36, "internal_energy": -0.15}

$$$$
1owh_ligand
     RDKit          3D

 44 46  0  0  0  0  0  0  0  0999 V2000
   17.0700   19.4090   33.8070 N   0  0  0  0  0  0  0  0  0  0  0  0
   18.3270   19.7840   33.7040 C   0  0  0  0  0  0  0  0  0  0  0  0
   18.6830   21.0370   33.8910 N   0  0  0  0  0  0  0  0  0  0  0  0
   19.3520   18.7850   33.3710 C   0  0  0  0  0  0  0  0  0  0  0  0
   19.0300   17.6520   32.6120 C   0  0  0  0  0  0  0  0  0  0  0  0
   20.0080   16.7000   32.3040 C   0  0  0  0  0  0  0  0  0  0  0  0
   21.3300   16.8530   32.7490 C   0  0  0  0  0  0  0  0  0  0  0  0
   22.3200   15.8950   32.4580 C   0  0  0  0  0  0  0  0  0  0  0  0
   23.6310   16.0630   32.9230 C   0  0  0  0  0  0  0  0  0  0  0  0
   24.7020   15.0580   32.6690 C   0  0  0  0  0  0  0  0  0  0  0  0
   25.6550   15.0340   33.4370 O   0  0  0  0  0  0  0  0  0  0  0  0
   24.5230   14.2600   31.5500 N   0  0  0  0  0  0  0  0  0  0  0  0
   25.4020   13.2610   31.0760 C   0  0  0  0  0  0  0  0  0  0  0  0
   25.5830   12.0230   31.6930 C   0  0  0  0  0  0  0  0  0  0  0  0
   26.4920   11.0900   31.1800 C   0  0  0  0  0  0  0  0  0  0  0  0
   27.2370   11.3750   30.0290 C   0  0  0  0  0  0  0  0  0  0  0  0
   28.1950   10.3610   29.4750 C   0  0  0  0  0  0  0  0  0  0  0  0
   28.1720   10.3550   27.9960 N   0  0  0  0  0  0  0  0  0  0  0  0
   27.0430   12.6090   29.3970 C   0  0  0  0  0  0  0  0  0  0  0  0
   26.1380   13.5420   29.9190 C   0  0  0  0  0  0  0  0  0  0  0  0
   23.9520   17.1840   33.6950 C   0  0  0  0  0  0  0  0  0  0  0  0
   22.9790   18.1430   33.9830 C   0  0  0  0  0  0  0  0  0  0  0  0
   21.6650   17.9910   33.5180 C   0  0  0  0  0  0  0  0  0  0  0  0
   20.6740   18.9440   33.8160 C   0  0  0  0  0  0  0  0  0  0  0  0
   16.3250   20.0530   34.0360 H   0  0  0  0  0  0  0  0  0  0  0  0
   16.8200   18.4310   33.6930 H   0  0  0  0  0  0  0  0  0  0  0  0
   19.6540   21.3110   33.7850 H   0  0  0  0  0  0  0  0  0  0  0  0
   18.0200   21.7640   34.1210 H   0  0  0  0  0  0  0  0  0  0  0  0
   17.9993   17.5098   32.2552 H   0  0  0  0  0  0  0  0  0  0  0  0
   19.7366   15.8187   31.7043 H   0  0  0  0  0  0  0  0  0  0  0  0
   22.0622   15.0078   31.8610 H   0  0  0  0  0  0  0  0  0  0  0  0
   23.7290   14.4690   30.9590 H   0  0  0  0  0  0  0  0  0  0  0  0
   25.0036   11.7765   32.5949 H   0  0  0  0  0  0  0  0  0  0  0  0
   26.6225   10.1224   31.6866 H   0  0  0  0  0  0  0  0  0  0  0  0
   29.2119   10.6039   29.8170 H   0  0  0  0  0  0  0  0  0  0  0  0
   27.8930    9.3653   29.8319 H   0  0  0  0  0  0  0  0  0  0  0  0
   27.2130   10.3620   27.6320 H   0  0  0  0  0  0  0  0  0  0  0  0
   28.6500    9.5240   27.6280 H   0  0  0  0  0  0  0  0  0  0  0  0
   28.6620   11.1770   27.6210 H   0  0  0  0  0  0  0  0  0  0  0  0
   27.6060   12.8479   28.4827 H   0  0  0  0  0  0  0  0  0  0  0  0
   26.0038   14.5092   29.4125 H   0  0  0  0  0  0  0  0  0  0  0  0
   24.9757   17.3108   34.0771 H   0  0  0  0  0  0  0  0  0  0  0  0
   23.2460   19.0269   34.5809 H   0  0  0  0  0  0  0  0  0  0  0  0
   20.9402   19.8312   34.4093 H   0  0  0  0  0  0  0  0  0  0  0  0
  1  2  1  0
  2  3  2  0
  2  4  1  0
  4  5  2  0
  5  6  1  0
  6  7  2  0
  7  8  1  0
  8  9  2  0
  9 10  1  0
 10 11  2  0
 10 12  1  0
 12 13  1  0
 13 14  2  0
 14 15  1  0
 15 16  2  0
 16 17  1  0
 17 18  1  0
 16 19  1  0
 19 20  2  0
  9 21  1  0
 21 22  2  0
 22 23  1  0
 23 24  2  0
 24  4  1  0
 23  7  1  0
 20 13  1  0
  1 25  1  0
  1 26  1  0
  3 27  1  0
  3 28  1  0
  5 29  1  0
  6 30  1  0
  8 31  1  0
 12 32  1  0
 14 33  1  0
 15 34  1  0
 17 35  1  0
 17 36  1  0
 18 37  1  0
 18 38  1  0
 18 39  1  0
 19 40  1  0
 20 41  1  0
 21 42  1  0
 22 43  1  0
 24 44  1  0
M  CHG  2   3   1  18   1
M  END
>  <meeko>  (3) 
{"is_sidechain": [false], "free_energy": -7.93, "intermolecular_energy": -9.864, "internal_energy": -0.46}

$$$$
1owh_ligand
     RDKit          3D

 44 46  0  0  0  0  0  0  0  0999 V2000
   29.4540   10.8700   28.2250 N   0  0  0  0  0  0  0  0  0  0  0  0
   28.3600   10.4900   28.8470 C   0  0  0  0  0  0  0  0  0  0  0  0
   28.0700    9.2160   29.0040 N   0  0  0  0  0  0  0  0  0  0  0  0
   27.4410   11.5090   29.3760 C   0  0  0  0  0  0  0  0  0  0  0  0
   27.2900   12.7430   28.7300 C   0  0  0  0  0  0  0  0  0  0  0  0
   26.4210   13.7130   29.2420 C   0  0  0  0  0  0  0  0  0  0  0  0
   25.6840   13.4750   30.4120 C   0  0  0  0  0  0  0  0  0  0  0  0
   24.8160   14.4480   30.9450 C   0  0  0  0  0  0  0  0  0  0  0  0
   24.0990   14.1930   32.1220 C   0  0  0  0  0  0  0  0  0  0  0  0
   23.1970   15.2050   32.7400 C   0  0  0  0  0  0  0  0  0  0  0  0
   23.4400   15.5620   33.8860 O   0  0  0  0  0  0  0  0  0  0  0  0
   22.1360   15.6250   31.9530 N   0  0  0  0  0  0  0  0  0  0  0  0
   21.1280   16.5470   32.3150 C   0  0  0  0  0  0  0  0  0  0  0  0
   19.7810   16.4010   31.9850 C   0  0  0  0  0  0  0  0  0  0  0  0
   18.8410   17.3700   32.3570 C   0  0  0  0  0  0  0  0  0  0  0  0
   19.2300   18.5060   33.0760 C   0  0  0  0  0  0  0  0  0  0  0  0
   18.2130   19.5300   33.4870 C   0  0  0  0  0  0  0  0  0  0  0  0
   18.5510   20.1250   34.7980 N   0  0  0  0  0  0  0  0  0  0  0  0
   20.5790   18.6460   33.4250 C   0  0  0  0  0  0  0  0  0  0  0  0
   21.5170   17.6770   33.0440 C   0  0  0  0  0  0  0  0  0  0  0  0
   24.2600   12.9690   32.7780 C   0  0  0  0  0  0  0  0  0  0  0  0
   25.1130   11.9960   32.2540 C   0  0  0  0  0  0  0  0  0  0  0  0
   25.8300   12.2340   31.0740 C   0  0  0  0  0  0  0  0  0  0  0  0
   26.7040   11.2660   30.5460 C   0  0  0  0  0  0  0  0  0  0  0  0
   30.1220   10.2130   27.8430 H   0  0  0  0  0  0  0  0  0  0  0  0
   29.6770   11.8570   28.1430 H   0  0  0  0  0  0  0  0  0  0  0  0
   27.2100    8.9430   29.4670 H   0  0  0  0  0  0  0  0  0  0  0  0
   28.6650    8.4750   28.6600 H   0  0  0  0  0  0  0  0  0  0  0  0
   27.8596   12.9512   27.8123 H   0  0  0  0  0  0  0  0  0  0  0  0
   26.3142   14.6754   28.7200 H   0  0  0  0  0  0  0  0  0  0  0  0
   24.7000   15.4150   30.4337 H   0  0  0  0  0  0  0  0  0  0  0  0
   22.0150   15.1630   31.0620 H   0  0  0  0  0  0  0  0  0  0  0  0
   19.4525   15.5130   31.4251 H   0  0  0  0  0  0  0  0  0  0  0  0
   17.7846   17.2368   32.0809 H   0  0  0  0  0  0  0  0  0  0  0  0
   18.1801   20.3268   32.7294 H   0  0  0  0  0  0  0  0  0  0  0  0
   17.2348   19.0340   33.5720 H   0  0  0  0  0  0  0  0  0  0  0  0
   19.3740   19.6770   35.2160 H   0  0  0  0  0  0  0  0  0  0  0  0
   17.7660   20.0320   35.4530 H   0  0  0  0  0  0  0  0  0  0  0  0
   18.7480   21.1290   34.7020 H   0  0  0  0  0  0  0  0  0  0  0  0
   20.9049   19.5235   34.0027 H   0  0  0  0  0  0  0  0  0  0  0  0
   22.5735   17.8061   33.3216 H   0  0  0  0  0  0  0  0  0  0  0  0
   23.7121   12.7717   33.7112 H   0  0  0  0  0  0  0  0  0  0  0  0
   25.2234   11.0324   32.7729 H   0  0  0  0  0  0  0  0  0  0  0  0
   26.8120   10.2996   31.0601 H   0  0  0  0  0  0  0  0  0  0  0  0
  1  2  1  0
  2  3  2  0
  2  4  1  0
  4  5  2  0
  5  6  1  0
  6  7  2  0
  7  8  1  0
  8  9  2  0
  9 10  1  0
 10 11  2  0
 10 12  1  0
 12 13  1  0
 13 14  2  0
 14 15  1  0
 15 16  2  0
 16 17  1  0
 17 18  1  0
 16 19  1  0
 19 20  2  0
  9 21  1  0
 21 22  2  0
 22 23  1  0
 23 24  2  0
 24  4  1  0
 23  7  1  0
 20 13  1  0
  1 25  1  0
  1 26  1  0
  3 27  1  0
  3 28  1  0
  5 29  1  0
  6 30  1  0
  8 31  1  0
 12 32  1  0
 14 33  1  0
 15 34  1  0
 17 35  1  0
 17 36  1  0
 18 37  1  0
 18 38  1  0
 18 39  1  0
 19 40  1  0
 20 41  1  0
 21 42  1  0
 22 43  1  0
 24 44  1  0
M  CHG  2   3   1  18   1
M  END
>  <meeko>  (4) 
{"is_sidechain": [false], "free_energy": -7.755, "intermolecular_energy": -10.007, "internal_energy": -0.096}

$$$$
1owh_ligand
     RDKit          3D

 44 46  0  0  0  0  0  0  0  0999 V2000
   17.0690   19.3080   33.6120 N   0  0  0  0  0  0  0  0  0  0  0  0
   18.3260   19.4830   33.9560 C   0  0  0  0  0  0  0  0  0  0  0  0
   18.6820   20.4490   34.7750 N   0  0  0  0  0  0  0  0  0  0  0  0
   19.3540   18.5830   33.4130 C   0  0  0  0  0  0  0  0  0  0  0  0
   19.0030   17.5170   32.5740 C   0  0  0  0  0  0  0  0  0  0  0  0
   19.9840   16.6580   32.0660 C   0  0  0  0  0  0  0  0  0  0  0  0
   21.3380   16.8400   32.3860 C   0  0  0  0  0  0  0  0  0  0  0  0
   22.3340   15.9750   31.8920 C   0  0  0  0  0  0  0  0  0  0  0  0
   23.6780   16.1700   32.2340 C   0  0  0  0  0  0  0  0  0  0  0  0
   24.7600   15.2590   31.7640 C   0  0  0  0  0  0  0  0  0  0  0  0
   25.1860   14.4250   32.5530 O   0  0  0  0  0  0  0  0  0  0  0  0
   25.2040   15.4730   30.4690 N   0  0  0  0  0  0  0  0  0  0  0  0
   26.2340   14.7710   29.8020 C   0  0  0  0  0  0  0  0  0  0  0  0
   26.1160   13.4590   29.3460 C   0  0  0  0  0  0  0  0  0  0  0  0
   27.1890   12.8170   28.7150 C   0  0  0  0  0  0  0  0  0  0  0  0
   28.4060   13.4820   28.5210 C   0  0  0  0  0  0  0  0  0  0  0  0
   29.5440   12.7940   27.8260 C   0  0  0  0  0  0  0  0  0  0  0  0
   29.0610   11.6780   26.9840 N   0  0  0  0  0  0  0  0  0  0  0  0
   28.5210   14.8070   28.9610 C   0  0  0  0  0  0  0  0  0  0  0  0
   27.4460   15.4410   29.5980 C   0  0  0  0  0  0  0  0  0  0  0  0
   24.0300   17.2230   33.0840 C   0  0  0  0  0  0  0  0  0  0  0  0
   23.0510   18.0900   33.5730 C   0  0  0  0  0  0  0  0  0  0  0  0
   21.7030   17.9120   33.2330 C   0  0  0  0  0  0  0  0  0  0  0  0
   20.7080   18.7710   33.7330 C   0  0  0  0  0  0  0  0  0  0  0  0
   16.3210   19.8950   33.9570 H   0  0  0  0  0  0  0  0  0  0  0  0
   16.8100   18.5360   33.0050 H   0  0  0  0  0  0  0  0  0  0  0  0
   19.6590   20.5820   35.0110 H   0  0  0  0  0  0  0  0  0  0  0  0
   18.0170   21.0960   35.1770 H   0  0  0  0  0  0  0  0  0  0  0  0
   17.9471   17.3540   32.3124 H   0  0  0  0  0  0  0  0  0  0  0  0
   19.6895   15.8284   31.4065 H   0  0  0  0  0  0  0  0  0  0  0  0
   22.0540   15.1402   31.2327 H   0  0  0  0  0  0  0  0  0  0  0  0
   24.8190   16.2670   29.9760 H   0  0  0  0  0  0  0  0  0  0  0  0
   25.1668   12.9203   29.4837 H   0  0  0  0  0  0  0  0  0  0  0  0
   27.0745   11.7794   28.3681 H   0  0  0  0  0  0  0  0  0  0  0  0
   30.0688   13.5221   27.1900 H   0  0  0  0  0  0  0  0  0  0  0  0
   30.2224   12.3856   28.5896 H   0  0  0  0  0  0  0  0  0  0  0  0
   28.2180   11.2450   27.3770 H   0  0  0  0  0  0  0  0  0  0  0  0
   29.7830   10.9520   26.8930 H   0  0  0  0  0  0  0  0  0  0  0  0
   28.8410   12.0060   26.0360 H   0  0  0  0  0  0  0  0  0  0  0  0
   29.4626   15.3540   28.8052 H   0  0  0  0  0  0  0  0  0  0  0  0
   27.5560   16.4798   29.9426 H   0  0  0  0  0  0  0  0  0  0  0  0
   25.0825   17.3689   33.3686 H   0  0  0  0  0  0  0  0  0  0  0  0
   23.3407   18.9216   34.2321 H   0  0  0  0  0  0  0  0  0  0  0  0
   20.9963   19.6066   34.3877 H   0  0  0  0  0  0  0  0  0  0  0  0
  1  2  1  0
  2  3  2  0
  2  4  1  0
  4  5  2  0
  5  6  1  0
  6  7  2  0
  7  8  1  0
  8  9  2  0
  9 10  1  0
 10 11  2  0
 10 12  1  0
 12 13  1  0
 13 14  2  0
 14 15  1  0
 15 16  2  0
 16 17  1  0
 17 18  1  0
 16 19  1  0
 19 20  2  0
  9 21  1  0
 21 22  2  0
 22 23  1  0
 23 24  2  0
 24  4  1  0
 23  7  1  0
 20 13  1  0
  1 25  1  0
  1 26  1  0
  3 27  1  0
  3 28  1  0
  5 29  1  0
  6 30  1  0
  8 31  1  0
 12 32  1  0
 14 33  1  0
 15 34  1  0
 17 35  1  0
 17 36  1  0
 18 37  1  0
 18 38  1  0
 18 39  1  0
 19 40  1  0
 20 41  1  0
 21 42  1  0
 22 43  1  0
 24 44  1  0
M  CHG  2   3   1  18   1
M  END
>  <meeko>  (5) 
{"is_sidechain": [false], "free_energy": -7.501, "intermolecular_energy": -9.348, "internal_energy": -0.435}

$$$$
1owh_ligand
     RDKit          3D

 44 46  0  0  0  0  0  0  0  0999 V2000
   30.9580   11.4050   28.9050 N   0  0  0  0  0  0  0  0  0  0  0  0
   29.9560   11.6220   28.0810 C   0  0  0  0  0  0  0  0  0  0  0  0
   29.9800   11.1760   26.8430 N   0  0  0  0  0  0  0  0  0  0  0  0
   28.7880   12.3810   28.5510 C   0  0  0  0  0  0  0  0  0  0  0  0
   27.5500   11.7510   28.7340 C   0  0  0  0  0  0  0  0  0  0  0  0
   26.4390   12.4780   29.1740 C   0  0  0  0  0  0  0  0  0  0  0  0
   26.5350   13.8520   29.4390 C   0  0  0  0  0  0  0  0  0  0  0  0
   25.4210   14.5990   29.8700 C   0  0  0  0  0  0  0  0  0  0  0  0
   25.5390   15.9730   30.1170 C   0  0  0  0  0  0  0  0  0  0  0  0
   24.3790   16.8080   30.5400 C   0  0  0  0  0  0  0  0  0  0  0  0
   24.2920   17.9390   30.0770 O   0  0  0  0  0  0  0  0  0  0  0  0
   23.5190   16.2230   31.4550 N   0  0  0  0  0  0  0  0  0  0  0  0
   22.3720   16.8110   32.0330 C   0  0  0  0  0  0  0  0  0  0  0  0
   22.4040   17.9180   32.8800 C   0  0  0  0  0  0  0  0  0  0  0  0
   21.2270   18.4330   33.4370 C   0  0  0  0  0  0  0  0  0  0  0  0
   19.9860   17.8510   33.1500 C   0  0  0  0  0  0  0  0  0  0  0  0
   18.7270   18.4210   33.7350 C   0  0  0  0  0  0  0  0  0  0  0  0
   17.9750   19.2030   32.7300 N   0  0  0  0  0  0  0  0  0  0  0  0
   19.9480   16.7510   32.2840 C   0  0  0  0  0  0  0  0  0  0  0  0
   21.1300   16.2360   31.7360 C   0  0  0  0  0  0  0  0  0  0  0  0
   26.7680   16.6080   29.9200 C   0  0  0  0  0  0  0  0  0  0  0  0
   27.8800   15.8760   29.5000 C   0  0  0  0  0  0  0  0  0  0  0  0
   27.7800   14.4990   29.2560 C   0  0  0  0  0  0  0  0  0  0  0  0
   28.8900   13.7550   28.8180 C   0  0  0  0  0  0  0  0  0  0  0  0
   31.7850   10.8880   28.6350 H   0  0  0  0  0  0  0  0  0  0  0  0
   30.9060   11.7280   29.8660 H   0  0  0  0  0  0  0  0  0  0  0  0
   29.2070   11.3730   26.2160 H   0  0  0  0  0  0  0  0  0  0  0  0
   30.7570   10.6500   26.4680 H   0  0  0  0  0  0  0  0  0  0  0  0
   27.4508   10.6747   28.5298 H   0  0  0  0  0  0  0  0  0  0  0  0
   25.4762   11.9648   29.3142 H   0  0  0  0  0  0  0  0  0  0  0  0
   24.4514   14.0998   30.0137 H   0  0  0  0  0  0  0  0  0  0  0  0
   23.7810   15.3160   31.8170 H   0  0  0  0  0  0  0  0  0  0  0  0
   23.3678   18.3937   33.1141 H   0  0  0  0  0  0  0  0  0  0  0  0
   21.2777   19.3039   34.1071 H   0  0  0  0  0  0  0  0  0  0  0  0
   18.0938   17.5968   34.0951 H   0  0  0  0  0  0  0  0  0  0  0  0
   19.0007   19.0911   34.5633 H   0  0  0  0  0  0  0  0  0  0  0  0
   18.6030   19.6580   32.0570 H   0  0  0  0  0  0  0  0  0  0  0  0
   17.4090   19.9310   33.1830 H   0  0  0  0  0  0  0  0  0  0  0  0
   17.3290   18.5990   32.2070 H   0  0  0  0  0  0  0  0  0  0  0  0
   18.9826   16.2878   32.0321 H   0  0  0  0  0  0  0  0  0  0  0  0
   21.0819   15.3675   31.0627 H   0  0  0  0  0  0  0  0  0  0  0  0
   26.8597   17.6898   30.0967 H   0  0  0  0  0  0  0  0  0  0  0  0
   28.8449   16.3850   29.3590 H   0  0  0  0  0  0  0  0  0  0  0  0
   29.8577   14.2601   28.6819 H   0  0  0  0  0  0  0  0  0  0  0  0
  1  2  1  0
  2  3  2  0
  2  4  1  0
  4  5  2  0
  5  6  1  0
  6  7  2  0
  7  8  1  0
  8  9  2  0
  9 10  1  0
 10 11  2  0
 10 12  1  0
 12 13  1  0
 13 14  2  0
 14 15  1  0
 15 16  2  0
 16 17  1  0
 17 18  1  0
 16 19  1  0
 19 20  2  0
  9 21  1  0
 21 22  2  0
 22 23  1  0
 23 24  2  0
 24  4  1  0
 23  7  1  0
 20 13  1  0
  1 25  1  0
  1 26  1  0
  3 27  1  0
  3 28  1  0
  5 29  1  0
  6 30  1  0
  8 31  1  0
 12 32  1  0
 14 33  1  0
 15 34  1  0
 17 35  1  0
 17 36  1  0
 18 37  1  0
 18 38  1  0
 18 39  1  0
 19 40  1  0
 20 41  1  0
 21 42  1  0
 22 43  1  0
 24 44  1  0
M  CHG  2   3   1  18   1
M  END
>  <meeko>  (6) 
{"is_sidechain": [false], "free_energy": -6.514, "intermolecular_energy": -8.14, "internal_energy": -0.397}

$$$$
1owh_ligand
     RDKit          3D

 44 46  0  0  0  0  0  0  0  0999 V2000
   19.0510   16.7280   33.7700 N   0  0  0  0  0  0  0  0  0  0  0  0
   20.2110   17.3480   33.7610 C   0  0  0  0  0  0  0  0  0  0  0  0
   20.3770   18.4960   34.3810 N   0  0  0  0  0  0  0  0  0  0  0  0
   21.3440   16.7470   33.0420 C   0  0  0  0  0  0  0  0  0  0  0  0
   21.9330   17.4030   31.9540 C   0  0  0  0  0  0  0  0  0  0  0  0
   23.0060   16.8240   31.2680 C   0  0  0  0  0  0  0  0  0  0  0  0
   23.5140   15.5730   31.6490 C   0  0  0  0  0  0  0  0  0  0  0  0
   24.5850   14.9720   30.9580 C   0  0  0  0  0  0  0  0  0  0  0  0
   25.0680   13.7170   31.3490 C   0  0  0  0  0  0  0  0  0  0  0  0
   26.1750   13.0290   30.6260 C   0  0  0  0  0  0  0  0  0  0  0  0
   26.7720   12.1360   31.2140 O   0  0  0  0  0  0  0  0  0  0  0  0
   26.4420   13.4990   29.3500 N   0  0  0  0  0  0  0  0  0  0  0  0
   27.4530   13.0410   28.4750 C   0  0  0  0  0  0  0  0  0  0  0  0
   27.3720   11.8610   27.7370 C   0  0  0  0  0  0  0  0  0  0  0  0
   28.4250   11.4560   26.9080 C   0  0  0  0  0  0  0  0  0  0  0  0
   29.5850   12.2320   26.7960 C   0  0  0  0  0  0  0  0  0  0  0  0
   30.7010   11.8010   25.8900 C   0  0  0  0  0  0  0  0  0  0  0  0
   30.2390   10.7920   24.9130 N   0  0  0  0  0  0  0  0  0  0  0  0
   29.6620   13.4280   27.5210 C   0  0  0  0  0  0  0  0  0  0  0  0
   28.6080   13.8240   28.3550 C   0  0  0  0  0  0  0  0  0  0  0  0
   24.4730   13.0510   32.4250 C   0  0  0  0  0  0  0  0  0  0  0  0
   23.4160   13.6410   33.1200 C   0  0  0  0  0  0  0  0  0  0  0  0
   22.9260   14.9000   32.7450 C   0  0  0  0  0  0  0  0  0  0  0  0
   21.8520   15.4960   33.4290 C   0  0  0  0  0  0  0  0  0  0  0  0
   18.2390   17.0940   34.2500 H   0  0  0  0  0  0  0  0  0  0  0  0
   18.9520   15.8260   33.3140 H   0  0  0  0  0  0  0  0  0  0  0  0
   21.2730   18.9700   34.3450 H   0  0  0  0  0  0  0  0  0  0  0  0
   19.6330   18.9540   34.8900 H   0  0  0  0  0  0  0  0  0  0  0  0
   21.5482   18.3831   31.6356 H   0  0  0  0  0  0  0  0  0  0  0  0
   23.4576   17.3569   30.4182 H   0  0  0  0  0  0  0  0  0  0  0  0
   25.0451   15.4925   30.1051 H   0  0  0  0  0  0  0  0  0  0  0  0
   25.9230   14.3100   29.0410 H   0  0  0  0  0  0  0  0  0  0  0  0
   26.4674   11.2390   27.8071 H   0  0  0  0  0  0  0  0  0  0  0  0
   28.3401   10.5185   26.3388 H   0  0  0  0  0  0  0  0  0  0  0  0
   31.0809   12.6787   25.3465 H   0  0  0  0  0  0  0  0  0  0  0  0
   31.4944   11.3515   26.5052 H   0  0  0  0  0  0  0  0  0  0  0  0
   29.7730   11.2280   24.1090 H   0  0  0  0  0  0  0  0  0  0  0  0
   29.5790   10.1370   25.3510 H   0  0  0  0  0  0  0  0  0  0  0  0
   31.0280   10.2350   24.5630 H   0  0  0  0  0  0  0  0  0  0  0  0
   30.5572   14.0615   27.4349 H   0  0  0  0  0  0  0  0  0  0  0  0
   28.6888   14.7625   28.9231 H   0  0  0  0  0  0  0  0  0  0  0  0
   24.8394   12.0581   32.7249 H   0  0  0  0  0  0  0  0  0  0  0  0
   22.9624   13.1123   33.9713 H   0  0  0  0  0  0  0  0  0  0  0  0
   21.4005   14.9721   34.2844 H   0  0  0  0  0  0  0  0  0  0  0  0
  1  2  1  0
  2  3  2  0
  2  4  1  0
  4  5  2  0
  5  6  1  0
  6  7  2  0
  7  8  1  0
  8  9  2  0
  9 10  1  0
 10 11  2  0
 10 12  1  0
 12 13  1  0
 13 14  2  0
 14 15  1  0
 15 16  2  0
 16 17  1  0
 17 18  1  0
 16 19  1  0
 19 20  2  0
  9 21  1  0
 21 22  2  0
 22 23  1  0
 23 24  2  0
 24  4  1  0
 23  7  1  0
 20 13  1  0
  1 25  1  0
  1 26  1  0
  3 27  1  0
  3 28  1  0
  5 29  1  0
  6 30  1  0
  8 31  1  0
 12 32  1  0
 14 33  1  0
 15 34  1  0
 17 35  1  0
 17 36  1  0
 18 37  1  0
 18 38  1  0
 18 39  1  0
 19 40  1  0
 20 41  1  0
 21 42  1  0
 22 43  1  0
 24 44  1  0
M  CHG  2   3   1  18   1
M  END
>  <meeko>  (7) 
{"is_sidechain": [false], "free_energy": -6.456, "intermolecular_energy": -7.989, "internal_energy": -0.474}

$$$$
1owh_ligand
     RDKit          3D

 44 46  0  0  0  0  0  0  0  0999 V2000
   18.5590   20.4110   33.9190 N   0  0  0  0  0  0  0  0  0  0  0  0
   18.6420   19.3280   33.1780 C   0  0  0  0  0  0  0  0  0  0  0  0
   17.7230   19.0430   32.2800 N   0  0  0  0  0  0  0  0  0  0  0  0
   19.7810   18.4170   33.3570 C   0  0  0  0  0  0  0  0  0  0  0  0
   20.5130   18.4090   34.5520 C   0  0  0  0  0  0  0  0  0  0  0  0
   21.6020   17.5460   34.7150 C   0  0  0  0  0  0  0  0  0  0  0  0
   21.9900   16.6730   33.6880 C   0  0  0  0  0  0  0  0  0  0  0  0
   23.0920   15.8080   33.8350 C   0  0  0  0  0  0  0  0  0  0  0  0
   23.4680   14.9530   32.7910 C   0  0  0  0  0  0  0  0  0  0  0  0
   24.6490   14.0480   32.8890 C   0  0  0  0  0  0  0  0  0  0  0  0
   25.7480   14.5600   33.0570 O   0  0  0  0  0  0  0  0  0  0  0  0
   24.3820   12.6960   32.7440 N   0  0  0  0  0  0  0  0  0  0  0  0
   25.3230   11.6420   32.7650 C   0  0  0  0  0  0  0  0  0  0  0  0
   26.4810   11.6130   31.9890 C   0  0  0  0  0  0  0  0  0  0  0  0
   27.3570   10.5220   32.0430 C   0  0  0  0  0  0  0  0  0  0  0  0
   27.0930    9.4340   32.8840 C   0  0  0  0  0  0  0  0  0  0  0  0
   28.0470    8.2780   32.9510 C   0  0  0  0  0  0  0  0  0  0  0  0
   29.0740    8.4900   33.9940 N   0  0  0  0  0  0  0  0  0  0  0  0
   25.9410    9.4690   33.6790 C   0  0  0  0  0  0  0  0  0  0  0  0
   25.0650   10.5600   33.6150 C   0  0  0  0  0  0  0  0  0  0  0  0
   22.7510   14.9700   31.5910 C   0  0  0  0  0  0  0  0  0  0  0  0
   21.6530   15.8170   31.4380 C   0  0  0  0  0  0  0  0  0  0  0  0
   21.2600   16.6730   32.4770 C   0  0  0  0  0  0  0  0  0  0  0  0
   20.1650   17.5420   32.3280 C   0  0  0  0  0  0  0  0  0  0  0  0
   17.7990   21.0730   33.8370 H   0  0  0  0  0  0  0  0  0  0  0  0
   19.2950   20.6310   34.5830 H   0  0  0  0  0  0  0  0  0  0  0  0
   17.7930   18.1920   31.7330 H   0  0  0  0  0  0  0  0  0  0  0  0
   16.9190   19.6340   32.1150 H   0  0  0  0  0  0  0  0  0  0  0  0
   20.2286   19.0877   35.3696 H   0  0  0  0  0  0  0  0  0  0  0  0
   22.1618   17.5522   35.6619 H   0  0  0  0  0  0  0  0  0  0  0  0
   23.6613   15.8039   34.7762 H   0  0  0  0  0  0  0  0  0  0  0  0
   23.4320   12.4370   32.5130 H   0  0  0  0  0  0  0  0  0  0  0  0
   26.7097   12.4594   31.3248 H   0  0  0  0  0  0  0  0  0  0  0  0
   28.2622   10.5196   31.4181 H   0  0  0  0  0  0  0  0  0  0  0  0
   27.4843    7.3617   33.1829 H   0  0  0  0  0  0  0  0  0  0  0  0
   28.5527    8.1877   31.9783 H   0  0  0  0  0  0  0  0  0  0  0  0
   28.7950    8.0750   34.8900 H   0  0  0  0  0  0  0  0  0  0  0  0
   29.2400    9.4930   34.1420 H   0  0  0  0  0  0  0  0  0  0  0  0
   29.9700    8.0730   33.7130 H   0  0  0  0  0  0  0  0  0  0  0  0
   25.7221    8.6328   34.3594 H   0  0  0  0  0  0  0  0  0  0  0  0
   24.1611   10.5667   34.2418 H   0  0  0  0  0  0  0  0  0  0  0  0
   23.0541   14.3122   30.7631 H   0  0  0  0  0  0  0  0  0  0  0  0
   21.0900   15.8134   30.4930 H   0  0  0  0  0  0  0  0  0  0  0  0
   19.5973   17.5364   31.3859 H   0  0  0  0  0  0  0  0  0  0  0  0
  1  2  1  0
  2  3  2  0
  2  4  1  0
  4  5  2  0
  5  6  1  0
  6  7  2  0
  7  8  1  0
  8  9  2  0
  9 10  1  0
 10 11  2  0
 10 12  1  0
 12 13  1  0
 13 14  2  0
 14 15  1  0
 15 16  2  0
 16 17  1  0
 17 18  1  0
 16 19  1  0
 19 20  2  0
  9 21  1  0
 21 22  2  0
 22 23  1  0
 23 24  2  0
 24  4  1  0
 23  7  1  0
 20 13  1  0
  1 25  1  0
  1 26  1  0
  3 27  1  0
  3 28  1  0
  5 29  1  0
  6 30  1  0
  8 31  1  0
 12 32  1  0
 14 33  1  0
 15 34  1  0
 17 35  1  0
 17 36  1  0
 18 37  1  0
 18 38  1  0
 18 39  1  0
 19 40  1  0
 20 41  1  0
 21 42  1  0
 22 43  1  0
 24 44  1  0
M  CHG  2   3   1  18   1
M  END
>  <meeko>  (8) 
{"is_sidechain": [false], "free_energy": -6.317, "intermolecular_energy": -7.991, "internal_energy": -0.296}

$$$$
1owh_ligand
     RDKit          3D

 44 46  0  0  0  0  0  0  0  0999 V2000
   17.2310   19.4310   33.9100 N   0  0  0  0  0  0  0  0  0  0  0  0
   17.7830   18.6820   32.9810 C   0  0  0  0  0  0  0  0  0  0  0  0
   17.1700   18.4430   31.8420 N   0  0  0  0  0  0  0  0  0  0  0  0
   19.1100   18.0970   33.2210 C   0  0  0  0  0  0  0  0  0  0  0  0
   19.3300   16.7230   33.0560 C   0  0  0  0  0  0  0  0  0  0  0  0
   20.5930   16.1700   33.2930 C   0  0  0  0  0  0  0  0  0  0  0  0
   21.6660   16.9740   33.7050 C   0  0  0  0  0  0  0  0  0  0  0  0
   22.9390   16.4270   33.9600 C   0  0  0  0  0  0  0  0  0  0  0  0
   23.9930   17.2480   34.3820 C   0  0  0  0  0  0  0  0  0  0  0  0
   25.3460   16.7080   34.6980 C   0  0  0  0  0  0  0  0  0  0  0  0
   25.6560   15.6270   34.2130 O   0  0  0  0  0  0  0  0  0  0  0  0
   26.1180   17.4820   35.5490 N   0  0  0  0  0  0  0  0  0  0  0  0
   27.4140   17.1800   36.0240 C   0  0  0  0  0  0  0  0  0  0  0  0
   28.5250   16.9970   35.2010 C   0  0  0  0  0  0  0  0  0  0  0  0
   29.7750   16.6740   35.7410 C   0  0  0  0  0  0  0  0  0  0  0  0
   29.9420   16.5330   37.1240 C   0  0  0  0  0  0  0  0  0  0  0  0
   31.2900   16.2050   37.6970 C   0  0  0  0  0  0  0  0  0  0  0  0
   31.2730   16.2610   39.1740 N   0  0  0  0  0  0  0  0  0  0  0  0
   28.8330   16.7340   37.9550 C   0  0  0  0  0  0  0  0  0  0  0  0
   27.5820   17.0500   37.4080 C   0  0  0  0  0  0  0  0  0  0  0  0
   23.7740   18.6170   34.5650 C   0  0  0  0  0  0  0  0  0  0  0  0
   22.5180   19.1690   34.3070 C   0  0  0  0  0  0  0  0  0  0  0  0
   21.4560   18.3620   33.8770 C   0  0  0  0  0  0  0  0  0  0  0  0
   20.1830   18.9050   33.6300 C   0  0  0  0  0  0  0  0  0  0  0  0
   16.3210   19.8600   33.7980 H   0  0  0  0  0  0  0  0  0  0  0  0
   17.7340   19.6310   34.7690 H   0  0  0  0  0  0  0  0  0  0  0  0
   17.6020   17.8450   31.1460 H   0  0  0  0  0  0  0  0  0  0  0  0
   16.2560   18.8190   31.6250 H   0  0  0  0  0  0  0  0  0  0  0  0
   18.5018   16.0731   32.7371 H   0  0  0  0  0  0  0  0  0  0  0  0
   20.7468   15.0897   33.1543 H   0  0  0  0  0  0  0  0  0  0  0  0
   23.1066   15.3480   33.8269 H   0  0  0  0  0  0  0  0  0  0  0  0
   25.6820   18.3040   35.9440 H   0  0  0  0  0  0  0  0  0  0  0  0
   28.4172   17.1081   34.1120 H   0  0  0  0  0  0  0  0  0  0  0  0
   30.6358   16.5293   35.0716 H   0  0  0  0  0  0  0  0  0  0  0  0
   31.5773   15.1916   37.3800 H   0  0  0  0  0  0  0  0  0  0  0  0
   32.0138   16.9472   37.3294 H   0  0  0  0  0  0  0  0  0  0  0  0
   31.4200   15.3350   39.5900 H   0  0  0  0  0  0  0  0  0  0  0  0
   30.3750   16.6270   39.5140 H   0  0  0  0  0  0  0  0  0  0  0  0
   32.0070   16.8890   39.5240 H   0  0  0  0  0  0  0  0  0  0  0  0
   28.9446   16.6432   39.0455 H   0  0  0  0  0  0  0  0  0  0  0  0
   26.7201   17.1980   38.0752 H   0  0  0  0  0  0  0  0  0  0  0  0
   24.5946   19.2614   34.9136 H   0  0  0  0  0  0  0  0  0  0  0  0
   22.3602   20.2491   34.4427 H   0  0  0  0  0  0  0  0  0  0  0  0
   20.0242   19.9857   33.7599 H   0  0  0  0  0  0  0  0  0  0  0  0
  1  2  1  0
  2  3  2  0
  2  4  1  0
  4  5  2  0
  5  6  1  0
  6  7  2  0
  7  8  1  0
  8  9  2  0
  9 10  1  0
 10 11  2  0
 10 12  1  0
 12 13  1  0
 13 14  2  0
 14 15  1  0
 15 16  2  0
 16 17  1  0
 17 18  1  0
 16 19  1  0
 19 20  2  0
  9 21  1  0
 21 22  2  0
 22 23  1  0
 23 24  2  0
 24  4  1  0
 23  7  1  0
 20 13  1  0
  1 25  1  0
  1 26  1  0
  3 27  1  0
  3 28  1  0
  5 29  1  0
  6 30  1  0
  8 31  1  0
 12 32  1  0
 14 33  1  0
 15 34  1  0
 17 35  1  0
 17 36  1  0
 18 37  1  0
 18 38  1  0
 18 39  1  0
 19 40  1  0
 20 41  1  0
 21 42  1  0
 22 43  1  0
 24 44  1  0
M  CHG  2   3   1  18   1
M  END
>  <meeko>  (9) 
{"is_sidechain": [false], "free_energy": -6.279, "intermolecular_energy": -7.844, "internal_energy": -0.395}

$$$$
