2cet_ligand
     RDKit          3D

 43 45  0  0  0  0  0  0  0  0999 V2000
    0.9410    3.0340   15.5840 O   0  0  0  0  0  0  0  0  0  0  0  0
    0.4730    4.1640   14.8430 C   0  0  0  0  0  0  0  0  0  0  0  0
    0.4580    5.4100   15.7580 C   0  0  2  0  0  0  0  0  0  0  0  0
   -0.0860    5.0040   17.1740 C   0  0  1  0  0  0  0  0  0  0  0  0
    0.9680    5.1750   18.1390 O   0  0  0  0  0  0  0  0  0  0  0  0
   -1.3010    5.8190   17.6640 C   0  0  2  0  0  0  0  0  0  0  0  0
   -1.9290    5.1610   18.7750 O   0  0  0  0  0  0  0  0  0  0  0  0
   -2.3350    6.0150   16.5530 C   0  0  1  0  0  0  0  0  0  0  0  0
   -3.4250    6.8200   17.0140 O   0  0  0  0  0  0  0  0  0  0  0  0
   -1.6360    6.6820   15.4110 C   0  0  0  0  0  0  0  0  0  0  0  0
   -2.0810    7.6450   14.5980 N   0  0  0  0  0  0  0  0  0  0  0  0
   -1.0820    8.0830   13.7480 C   0  0  0  0  0  0  0  0  0  0  0  0
   -1.2830    9.1470   12.7400 C   0  0  0  0  0  0  0  0  0  0  0  0
   -2.0370    8.6270   11.5190 C   0  0  0  0  0  0  0  0  0  0  0  0
   -1.7820    9.4890   10.3100 C   0  0  0  0  0  0  0  0  0  0  0  0
   -2.7030    9.5220    9.2540 C   0  0  0  0  0  0  0  0  0  0  0  0
   -2.4540   10.3020    8.1240 C   0  0  0  0  0  0  0  0  0  0  0  0
   -1.2840   11.0530    8.0380 C   0  0  0  0  0  0  0  0  0  0  0  0
   -0.3600   11.0240    9.0810 C   0  0  0  0  0  0  0  0  0  0  0  0
   -0.6070   10.2460   10.2120 C   0  0  0  0  0  0  0  0  0  0  0  0
    0.0240    7.3280   14.0790 C   0  0  0  0  0  0  0  0  0  0  0  0
   -0.3480    6.4750   15.1040 N   0  0  0  0  0  0  0  0  0  0  0  0
    0.7320    3.2020   16.5240 H   0  0  0  0  0  0  0  0  0  0  0  0
    1.1417    4.3446   13.9885 H   0  0  0  0  0  0  0  0  0  0  0  0
   -0.5451    3.9660   14.4765 H   0  0  0  0  0  0  0  0  0  0  0  0
    1.4710    5.8116   15.9078 H   0  0  0  0  0  0  0  0  0  0  0  0
   -0.4215    3.9611   17.0746 H   0  0  0  0  0  0  0  0  0  0  0  0
    0.6140    5.7070   18.8770 H   0  0  0  0  0  0  0  0  0  0  0  0
   -0.9267    6.8058   17.9742 H   0  0  0  0  0  0  0  0  0  0  0  0
   -1.2240    4.7760   19.3290 H   0  0  0  0  0  0  0  0  0  0  0  0
   -2.7543    5.0474   16.2401 H   0  0  0  0  0  0  0  0  0  0  0  0
   -4.2190    6.2530   16.9270 H   0  0  0  0  0  0  0  0  0  0  0  0
   -3.0320    8.0060   14.6660 H   0  0  0  0  0  0  0  0  0  0  0  0
   -1.8605    9.9654   13.1947 H   0  0  0  0  0  0  0  0  0  0  0  0
   -0.2949    9.5005   12.4102 H   0  0  0  0  0  0  0  0  0  0  0  0
   -1.7055    7.6005   11.3035 H   0  0  0  0  0  0  0  0  0  0  0  0
   -3.1142    8.6497   11.7406 H   0  0  0  0  0  0  0  0  0  0  0  0
   -3.6277    8.9295    9.3164 H   0  0  0  0  0  0  0  0  0  0  0  0
   -3.1826   10.3238    7.3002 H   0  0  0  0  0  0  0  0  0  0  0  0
   -1.0894   11.6686    7.1474 H   0  0  0  0  0  0  0  0  0  0  0  0
    0.5650   11.6153    9.0122 H   0  0  0  0  0  0  0  0  0  0  0  0
    0.1255   10.2266   11.0324 H   0  0  0  0  0  0  0  0  0  0  0  0
    1.0188    7.3919   13.6140 H   0  0  0  0  0  0  0  0  0  0  0  0
  1  2  1  0
  2  3  1  0
  3  4  1  0
  4  5  1  0
  4  6  1  0
  6  7  1  0
  6  8  1  0
  8  9  1  0
  8 10  1  0
 10 11  2  0
 11 12  1  0
 12 13  1  0
 13 14  1  0
 14 15  1  0
 15 16  2  0
 16 17  1  0
 17 18  2  0
 18 19  1  0
 19 20  2  0
 12 21  2  0
 21 22  1  0
 22  3  1  0
 22 10  1  0
 20 15  1  0
  1 23  1  0
  2 24  1  0
  2 25  1  0
  3 26  1  1
  4 27  1  6
  5 28  1  0
  6 29  1  1
  7 30  1  0
  8 31  1  6
  9 32  1  0
 11 33  1  0
 13 34  1  0
 13 35  1  0
 14 36  1  0
 14 37  1  0
 16 38  1  0
 17 39  1  0
 18 40  1  0
 19 41  1  0
 20 42  1  0
 21 43  1  0
M  CHG  1  11   1
M  END
>  <meeko>  (1) 
{"is_sidechain": [false], "free_energy": -8.752, "intermolecular_energy": -11.821, "internal_energy": -0.412}

$$$$
2cet_ligand
     RDKit          3D

 43 45  0  0  0  0  0  0  0  0999 V2000
    0.6350    3.6800   17.3370 O   0  0  0  0  0  0  0  0  0  0  0  0
    0.2480    4.2530   16.0850 C   0  0  0  0  0  0  0  0  0  0  0  0
   -0.4640    5.6020   16.3340 C   0  0  2  0  0  0  0  0  0  0  0  0
   -1.7230    5.3620   17.2420 C   0  0  1  0  0  0  0  0  0  0  0  0
   -1.5220    6.0380   18.4970 O   0  0  0  0  0  0  0  0  0  0  0  0
   -3.0570    5.8650   16.6530 C   0  0  2  0  0  0  0  0  0  0  0  0
   -4.1640    5.3010   17.3710 O   0  0  0  0  0  0  0  0  0  0  0  0
   -3.1910    5.5080   15.1710 C   0  0  1  0  0  0  0  0  0  0  0  0
   -4.4090    6.0320   14.6330 O   0  0  0  0  0  0  0  0  0  0  0  0
   -2.0100    6.0950   14.4660 C   0  0  0  0  0  0  0  0  0  0  0  0
   -1.9520    6.6880   13.2700 N   0  0  0  0  0  0  0  0  0  0  0  0
   -0.6950    7.2130   13.0310 C   0  0  0  0  0  0  0  0  0  0  0  0
   -0.3380    7.9320   11.7890 C   0  0  0  0  0  0  0  0  0  0  0  0
   -0.9400    9.3360   11.7630 C   0  0  0  0  0  0  0  0  0  0  0  0
   -1.5970    9.6240   10.4390 C   0  0  0  0  0  0  0  0  0  0  0  0
   -1.0670   10.5970    9.5800 C   0  0  0  0  0  0  0  0  0  0  0  0
   -1.6900   10.8810    8.3640 C   0  0  0  0  0  0  0  0  0  0  0  0
   -2.8470   10.1990    7.9960 C   0  0  0  0  0  0  0  0  0  0  0  0
   -3.3840    9.2320    8.8440 C   0  0  0  0  0  0  0  0  0  0  0  0
   -2.7630    8.9460   10.0600 C   0  0  0  0  0  0  0  0  0  0  0  0
    0.0390    6.9070   14.1590 C   0  0  0  0  0  0  0  0  0  0  0  0
   -0.7960    6.2190   15.0220 N   0  0  0  0  0  0  0  0  0  0  0  0
    1.2040    4.3350   17.7880 H   0  0  0  0  0  0  0  0  0  0  0  0
    1.1419    4.4190   15.4658 H   0  0  0  0  0  0  0  0  0  0  0  0
   -0.4368    3.5676   15.5641 H   0  0  0  0  0  0  0  0  0  0  0  0
    0.1873    6.3072   16.8710 H   0  0  0  0  0  0  0  0  0  0  0  0
   -1.8109    4.2702   17.3435 H   0  0  0  0  0  0  0  0  0  0  0  0
   -1.9460    6.9150   18.4360 H   0  0  0  0  0  0  0  0  0  0  0  0
   -3.0636    6.9605   16.7522 H   0  0  0  0  0  0  0  0  0  0  0  0
   -4.6120    4.6680   16.7780 H   0  0  0  0  0  0  0  0  0  0  0  0
   -3.2197    4.4165   15.0378 H   0  0  0  0  0  0  0  0  0  0  0  0
   -4.5620    6.8730   15.1130 H   0  0  0  0  0  0  0  0  0  0  0  0
   -2.7710    6.7580   12.6670 H   0  0  0  0  0  0  0  0  0  0  0  0
    0.7572    8.0113   11.7239 H   0  0  0  0  0  0  0  0  0  0  0  0
   -0.7408    7.3675   10.9351 H   0  0  0  0  0  0  0  0  0  0  0  0
   -1.6918    9.4186   12.5618 H   0  0  0  0  0  0  0  0  0  0  0  0
   -0.1299   10.0645   11.9149 H   0  0  0  0  0  0  0  0  0  0  0  0
   -0.1542   11.1400    9.8664 H   0  0  0  0  0  0  0  0  0  0  0  0
   -1.2665   11.6447    7.6952 H   0  0  0  0  0  0  0  0  0  0  0  0
   -3.3367   10.4233    7.0369 H   0  0  0  0  0  0  0  0  0  0  0  0
   -4.2985    8.6937    8.5541 H   0  0  0  0  0  0  0  0  0  0  0  0
   -3.1918    8.1828   10.7260 H   0  0  0  0  0  0  0  0  0  0  0  0
    1.0936    7.1629   14.3390 H   0  0  0  0  0  0  0  0  0  0  0  0
  1  2  1  0
  2  3  1  0
  3  4  1  0
  4  5  1  0
  4  6  1  0
  6  7  1  0
  6  8  1  0
  8  9  1  0
  8 10  1  0
 10 11  2  0
 11 12  1  0
 12 13  1  0
 13 14  1  0
 14 15  1  0
 15 16  2  0
 16 17  1  0
 17 18  2  0
 18 19  1  0
 19 20  2  0
 12 21  2  0
 21 22  1  0
 22  3  1  0
 22 10  1  0
 20 15  1  0
  1 23  1  0
  2 24  1  0
  2 25  1  0
  3 26  1  1
  4 27  1  1
  5 28  1  0
  6 29  1  6
  7 30  1  0
  8 31  1  1
  9 32  1  0
 11 33  1  0
 13 34  1  0
 13 35  1  0
 14 36  1  0
 14 37  1  0
 16 38  1  0
 17 39  1  0
 18 40  1  0
 19 41  1  0
 20 42  1  0
 21 43  1  0
M  CHG  1  11   1
M  END
>  <meeko>  (2) 
{"is_sidechain": [false], "free_energy": -8.699, "intermolecular_energy": -11.733, "internal_energy": -0.43}

$$$$
2cet_ligand
     RDKit          3D

 43 45  0  0  0  0  0  0  0  0999 V2000
   -4.7140    5.7230   17.3740 O   0  0  0  0  0  0  0  0  0  0  0  0
   -3.4720    6.3100   16.9730 C   0  0  0  0  0  0  0  0  0  0  0  0
   -2.7660    5.3810   15.9600 C   0  0  2  0  0  0  0  0  0  0  0  0
   -1.6670    4.5440   16.7070 C   0  0  1  0  0  0  0  0  0  0  0  0
   -2.0360    3.1530   16.6580 O   0  0  0  0  0  0  0  0  0  0  0  0
   -0.2450    4.6670   16.1230 C   0  0  2  0  0  0  0  0  0  0  0  0
    0.7240    4.1640   17.0560 O   0  0  0  0  0  0  0  0  0  0  0  0
    0.1020    6.1170   15.7810 C   0  0  1  0  0  0  0  0  0  0  0  0
    1.4030    6.2000   15.1900 O   0  0  0  0  0  0  0  0  0  0  0  0
   -0.9400    6.6070   14.8270 C   0  0  0  0  0  0  0  0  0  0  0  0
   -0.7970    7.3900   13.7520 N   0  0  0  0  0  0  0  0  0  0  0  0
   -1.9870    7.5080   13.0580 C   0  0  0  0  0  0  0  0  0  0  0  0
   -2.1300    8.3090   11.8220 C   0  0  0  0  0  0  0  0  0  0  0  0
   -1.0220    9.3540   11.7010 C   0  0  0  0  0  0  0  0  0  0  0  0
   -1.0200    9.9930   10.3380 C   0  0  0  0  0  0  0  0  0  0  0  0
   -2.0810    9.7730    9.4490 C   0  0  0  0  0  0  0  0  0  0  0  0
   -2.0670   10.3450    8.1760 C   0  0  0  0  0  0  0  0  0  0  0  0
   -0.9940   11.1410    7.7800 C   0  0  0  0  0  0  0  0  0  0  0  0
    0.0670   11.3640    8.6550 C   0  0  0  0  0  0  0  0  0  0  0  0
    0.0550   10.7920    9.9280 C   0  0  0  0  0  0  0  0  0  0  0  0
   -2.8920    6.7480   13.7690 C   0  0  0  0  0  0  0  0  0  0  0  0
   -2.2190    6.2080   14.8510 N   0  0  0  0  0  0  0  0  0  0  0  0
   -4.6070    4.7530   17.3030 H   0  0  0  0  0  0  0  0  0  0  0  0
   -3.6626    7.2865   16.5038 H   0  0  0  0  0  0  0  0  0  0  0  0
   -2.8292    6.4461   17.8552 H   0  0  0  0  0  0  0  0  0  0  0  0
   -3.4696    4.6617   15.5155 H   0  0  0  0  0  0  0  0  0  0  0  0
   -1.6279    4.9502   17.7285 H   0  0  0  0  0  0  0  0  0  0  0  0
   -1.8970    2.7750   17.5480 H   0  0  0  0  0  0  0  0  0  0  0  0
   -0.2214    4.0718   15.1982 H   0  0  0  0  0  0  0  0  0  0  0  0
    0.2850    3.4850   17.6030 H   0  0  0  0  0  0  0  0  0  0  0  0
    0.1182    6.7352   16.6907 H   0  0  0  0  0  0  0  0  0  0  0  0
    1.5190    7.1450   14.9540 H   0  0  0  0  0  0  0  0  0  0  0  0
    0.1060    7.7880   13.4960 H   0  0  0  0  0  0  0  0  0  0  0  0
   -2.0836    7.6365   10.9528 H   0  0  0  0  0  0  0  0  0  0  0  0
   -3.0963    8.8332   11.8602 H   0  0  0  0  0  0  0  0  0  0  0  0
   -1.1792   10.1328   12.4617 H   0  0  0  0  0  0  0  0  0  0  0  0
   -0.0542    8.8532   11.8513 H   0  0  0  0  0  0  0  0  0  0  0  0
   -2.9304    9.1454    9.7566 H   0  0  0  0  0  0  0  0  0  0  0  0
   -2.9039   10.1673    7.4846 H   0  0  0  0  0  0  0  0  0  0  0  0
   -0.9847   11.5930    6.7772 H   0  0  0  0  0  0  0  0  0  0  0  0
    0.9147   11.9913    8.3423 H   0  0  0  0  0  0  0  0  0  0  0  0
    0.8959   10.9699   10.6144 H   0  0  0  0  0  0  0  0  0  0  0  0
   -3.9533    6.5986   13.5216 H   0  0  0  0  0  0  0  0  0  0  0  0
  1  2  1  0
  2  3  1  0
  3  4  1  0
  4  5  1  0
  4  6  1  0
  6  7  1  0
  6  8  1  0
  8  9  1  0
  8 10  1  0
 10 11  2  0
 11 12  1  0
 12 13  1  0
 13 14  1  0
 14 15  1  0
 15 16  2  0
 16 17  1  0
 17 18  2  0
 18 19  1  0
 19 20  2  0
 12 21  2  0
 21 22  1  0
 22  3  1  0
 22 10  1  0
 20 15  1  0
  1 23  1  0
  2 24  1  0
  2 25  1  0
  3 26  1  6
  4 27  1  1
  5 28  1  0
  6 29  1  6
  7 30  1  0
  8 31  1  1
  9 32  1  0
 11 33  1  0
 13 34  1  0
 13 35  1  0
 14 36  1  0
 14 37  1  0
 16 38  1  0
 17 39  1  0
 18 40  1  0
 19 41  1  0
 20 42  1  0
 21 43  1  0
M  CHG  1  11   1
M  END
>  <meeko>  (3) 
{"is_sidechain": [false], "free_energy": -8.682, "intermolecular_energy": -11.765, "internal_energy": -0.374}

$$$$
2cet_ligand
     RDKit          3D

 43 45  0  0  0  0  0  0  0  0999 V2000
   -3.3570    9.8820   16.4850 O   0  0  0  0  0  0  0  0  0  0  0  0
   -2.3670    9.0530   15.8710 C   0  0  0  0  0  0  0  0  0  0  0  0
   -3.0190    7.7340   15.3990 C   0  0  2  0  0  0  0  0  0  0  0  0
   -3.2110    6.7830   16.6330 C   0  0  1  0  0  0  0  0  0  0  0  0
   -4.6210    6.5840   16.8470 O   0  0  0  0  0  0  0  0  0  0  0  0
   -2.5630    5.3900   16.4900 C   0  0  2  0  0  0  0  0  0  0  0  0
   -2.4890    4.7400   17.7680 O   0  0  0  0  0  0  0  0  0  0  0  0
   -1.1560    5.4800   15.8960 C   0  0  1  0  0  0  0  0  0  0  0  0
   -0.5970    4.1740   15.7210 O   0  0  0  0  0  0  0  0  0  0  0  0
   -1.2760    6.1800   14.5800 C   0  0  0  0  0  0  0  0  0  0  0  0
   -0.6420    5.9280   13.4300 N   0  0  0  0  0  0  0  0  0  0  0  0
   -1.1270    6.7220   12.4070 C   0  0  0  0  0  0  0  0  0  0  0  0
   -0.6180    6.6580   11.0190 C   0  0  0  0  0  0  0  0  0  0  0  0
    0.1350    7.9310   10.6400 C   0  0  0  0  0  0  0  0  0  0  0  0
   -0.7250    8.8480    9.8090 C   0  0  0  0  0  0  0  0  0  0  0  0
   -0.2300   10.0850    9.3750 C   0  0  0  0  0  0  0  0  0  0  0  0
   -1.0350   10.9450    8.6270 C   0  0  0  0  0  0  0  0  0  0  0  0
   -2.3400   10.5770    8.3070 C   0  0  0  0  0  0  0  0  0  0  0  0
   -2.8420    9.3500    8.7360 C   0  0  0  0  0  0  0  0  0  0  0  0
   -2.0390    8.4890    9.4850 C   0  0  0  0  0  0  0  0  0  0  0  0
   -2.1100    7.4950   12.9900 C   0  0  0  0  0  0  0  0  0  0  0  0
   -2.1770    7.1400   14.3260 N   0  0  0  0  0  0  0  0  0  0  0  0
   -2.8890   10.6500   16.8700 H   0  0  0  0  0  0  0  0  0  0  0  0
   -1.9344    9.5778   15.0065 H   0  0  0  0  0  0  0  0  0  0  0  0
   -1.5736    8.8293   16.5994 H   0  0  0  0  0  0  0  0  0  0  0  0
   -4.0175    7.9088   14.9718 H   0  0  0  0  0  0  0  0  0  0  0  0
   -2.7081    7.2838   17.4734 H   0  0  0  0  0  0  0  0  0  0  0  0
   -4.8350    6.9000   17.7460 H   0  0  0  0  0  0  0  0  0  0  0  0
   -3.1964    4.8052   15.8068 H   0  0  0  0  0  0  0  0  0  0  0  0
   -2.8410    5.3580   18.4370 H   0  0  0  0  0  0  0  0  0  0  0  0
   -0.4862    6.0331   16.5709 H   0  0  0  0  0  0  0  0  0  0  0  0
   -0.1590    4.1960   14.8440 H   0  0  0  0  0  0  0  0  0  0  0  0
    0.0700    5.2020   13.3600 H   0  0  0  0  0  0  0  0  0  0  0  0
    0.0631    5.7991   10.9273 H   0  0  0  0  0  0  0  0  0  0  0  0
   -1.4774    6.5504   10.3408 H   0  0  0  0  0  0  0  0  0  0  0  0
    0.4359    8.4564   11.5584 H   0  0  0  0  0  0  0  0  0  0  0  0
    1.0172    7.6493   10.0464 H   0  0  0  0  0  0  0  0  0  0  0  0
    0.7997   10.3800    9.6255 H   0  0  0  0  0  0  0  0  0  0  0  0
   -0.6389   11.9142    8.2898 H   0  0  0  0  0  0  0  0  0  0  0  0
   -2.9737   11.2546    7.7160 H   0  0  0  0  0  0  0  0  0  0  0  0
   -3.8726    9.0597    8.4839 H   0  0  0  0  0  0  0  0  0  0  0  0
   -2.4407    7.5224    9.8230 H   0  0  0  0  0  0  0  0  0  0  0  0
   -2.7268    8.2536   12.4859 H   0  0  0  0  0  0  0  0  0  0  0  0
  1  2  1  0
  2  3  1  0
  3  4  1  0
  4  5  1  0
  4  6  1  0
  6  7  1  0
  6  8  1  0
  8  9  1  0
  8 10  1  0
 10 11  2  0
 11 12  1  0
 12 13  1  0
 13 14  1  0
 14 15  1  0
 15 16  2  0
 16 17  1  0
 17 18  2  0
 18 19  1  0
 19 20  2  0
 12 21  2  0
 21 22  1  0
 22  3  1  0
 22 10  1  0
 20 15  1  0
  1 23  1  0
  2 24  1  0
  2 25  1  0
  3 26  1  6
  4 27  1  1
  5 28  1  0
  6 29  1  6
  7 30  1  0
  8 31  1  1
  9 32  1  0
 11 33  1  0
 13 34  1  0
 13 35  1  0
 14 36  1  0
 14 37  1  0
 16 38  1  0
 17 39  1  0
 18 40  1  0
 19 41  1  0
 20 42  1  0
 21 43  1  0
M  CHG  1  11   1
M  END
>  <meeko>  (4) 
{"is_sidechain": [false], "free_energy": -8.477, "intermolecular_energy": -11.444, "internal_energy": -0.418}

$$$$
2cet_ligand
     RDKit          3D

 43 45  0  0  0  0  0  0  0  0999 V2000
   -2.4130    2.6900   15.7950 O   0  0  0  0  0  0  0  0  0  0  0  0
   -1.6890    3.1640   14.6560 C   0  0  0  0  0  0  0  0  0  0  0  0
   -0.4590    3.9720   15.1270 C   0  0  2  0  0  0  0  0  0  0  0  0
   -0.2930    3.8010   16.6790 C   0  0  1  0  0  0  0  0  0  0  0  0
    0.9430    3.1080   16.9360 O   0  0  0  0  0  0  0  0  0  0  0  0
   -0.2610    5.1190   17.4810 C   0  0  2  0  0  0  0  0  0  0  0  0
   -0.4570    4.8570   18.8790 O   0  0  0  0  0  0  0  0  0  0  0  0
   -1.3350    6.0970   17.0030 C   0  0  1  0  0  0  0  0  0  0  0  0
   -1.2500    7.3320   17.7220 O   0  0  0  0  0  0  0  0  0  0  0  0
   -1.1070    6.3240   15.5420 C   0  0  0  0  0  0  0  0  0  0  0  0
   -1.2070    7.4570   14.8400 N   0  0  0  0  0  0  0  0  0  0  0  0
   -0.7880    7.2750   13.5340 C   0  0  0  0  0  0  0  0  0  0  0  0
   -0.7820    8.3580   12.5260 C   0  0  0  0  0  0  0  0  0  0  0  0
   -2.1300    8.4690   11.8160 C   0  0  0  0  0  0  0  0  0  0  0  0
   -2.0050    9.2300   10.5220 C   0  0  0  0  0  0  0  0  0  0  0  0
   -0.8960   10.0560   10.2880 C   0  0  0  0  0  0  0  0  0  0  0  0
   -0.7920   10.7800    9.1000 C   0  0  0  0  0  0  0  0  0  0  0  0
   -1.7940   10.6880    8.1370 C   0  0  0  0  0  0  0  0  0  0  0  0
   -2.9020    9.8730    8.3610 C   0  0  0  0  0  0  0  0  0  0  0  0
   -3.0080    9.1470    9.5480 C   0  0  0  0  0  0  0  0  0  0  0  0
   -0.4190    5.9480   13.4600 C   0  0  0  0  0  0  0  0  0  0  0  0
   -0.6280    5.3900   14.7090 N   0  0  0  0  0  0  0  0  0  0  0  0
   -1.8500    2.8500   16.5790 H   0  0  0  0  0  0  0  0  0  0  0  0
   -1.3556    2.3078   14.0512 H   0  0  0  0  0  0  0  0  0  0  0  0
   -2.3414    3.8095   14.0496 H   0  0  0  0  0  0  0  0  0  0  0  0
    0.4672    3.6020   14.6631 H   0  0  0  0  0  0  0  0  0  0  0  0
   -1.1826    3.2468   17.0129 H   0  0  0  0  0  0  0  0  0  0  0  0
    1.1800    2.6100   16.1300 H   0  0  0  0  0  0  0  0  0  0  0  0
    0.7267    5.5752   17.3185 H   0  0  0  0  0  0  0  0  0  0  0  0
   -1.2000    4.2300   18.9630 H   0  0  0  0  0  0  0  0  0  0  0  0
   -2.3394    5.6851   17.1807 H   0  0  0  0  0  0  0  0  0  0  0  0
   -1.3000    7.0830   18.6690 H   0  0  0  0  0  0  0  0  0  0  0  0
   -1.5150    8.3280   15.2700 H   0  0  0  0  0  0  0  0  0  0  0  0
   -0.5625    9.3120   13.0276 H   0  0  0  0  0  0  0  0  0  0  0  0
   -0.0137    8.1254   11.7739 H   0  0  0  0  0  0  0  0  0  0  0  0
   -2.5070    7.4579   11.6023 H   0  0  0  0  0  0  0  0  0  0  0  0
   -2.8252    9.0122   12.4730 H   0  0  0  0  0  0  0  0  0  0  0  0
   -0.1029   10.1335   11.0462 H   0  0  0  0  0  0  0  0  0  0  0  0
    0.0821   11.4241    8.9237 H   0  0  0  0  0  0  0  0  0  0  0  0
   -1.7108   11.2584    7.2001 H   0  0  0  0  0  0  0  0  0  0  0  0
   -3.6941    9.8019    7.6011 H   0  0  0  0  0  0  0  0  0  0  0  0
   -3.8849    8.5055    9.7198 H   0  0  0  0  0  0  0  0  0  0  0  0
   -0.0301    5.4288   12.5716 H   0  0  0  0  0  0  0  0  0  0  0  0
  1  2  1  0
  2  3  1  0
  3  4  1  0
  4  5  1  0
  4  6  1  0
  6  7  1  0
  6  8  1  0
  8  9  1  0
  8 10  1  0
 10 11  2  0
 11 12  1  0
 12 13  1  0
 13 14  1  0
 14 15  1  0
 15 16  2  0
 16 17  1  0
 17 18  2  0
 18 19  1  0
 19 20  2  0
 12 21  2  0
 21 22  1  0
 22  3  1  0
 22 10  1  0
 20 15  1  0
  1 23  1  0
  2 24  1  0
  2 25  1  0
  3 26  1  6
  4 27  1  1
  5 28  1  0
  6 29  1  1
  7 30  1  0
  8 31  1  6
  9 32  1  0
 11 33  1  0
 13 34  1  0
 13 35  1  0
 14 36  1  0
 14 37  1  0
 16 38  1  0
 17 39  1  0
 18 40  1  0
 19 41  1  0
 20 42  1  0
 21 43  1  0
M  CHG  1  11   1
M  END
>  <meeko>  (5) 
{"is_sidechain": [false], "free_energy": -8.445, "intermolecular_energy": -11.39, "internal_energy": -0.428}

$$$$
2cet_ligand
     RDKit          3D

 43 45  0  0  0  0  0  0  0  0999 V2000
    0.2990    5.9640    8.0490 O   0  0  0  0  0  0  0  0  0  0  0  0
    0.4210    7.1880    8.7780 C   0  0  0  0  0  0  0  0  0  0  0  0
   -0.8830    7.4530    9.5640 C   0  0  2  0  0  0  0  0  0  0  0  0
   -1.6180    8.6920    8.9400 C   0  0  1  0  0  0  0  0  0  0  0  0
   -2.8710    8.2520    8.3840 O   0  0  0  0  0  0  0  0  0  0  0  0
   -1.9260    9.8350    9.9300 C   0  0  2  0  0  0  0  0  0  0  0  0
   -2.2680   11.0330    9.2180 O   0  0  0  0  0  0  0  0  0  0  0  0
   -0.7360   10.1240   10.8460 C   0  0  1  0  0  0  0  0  0  0  0  0
   -1.0620   11.1470   11.7910 O   0  0  0  0  0  0  0  0  0  0  0  0
   -0.3990    8.8480   11.5500 C   0  0  0  0  0  0  0  0  0  0  0  0
   -0.0270    8.6580   12.8200 N   0  0  0  0  0  0  0  0  0  0  0  0
    0.0680    7.3110   13.1180 C   0  0  0  0  0  0  0  0  0  0  0  0
    0.4550    6.8010   14.4510 C   0  0  0  0  0  0  0  0  0  0  0  0
   -0.6870    6.9380   15.4560 C   0  0  0  0  0  0  0  0  0  0  0  0
   -1.8080    5.9820   15.1430 C   0  0  0  0  0  0  0  0  0  0  0  0
   -1.6100    4.5980   15.2450 C   0  0  0  0  0  0  0  0  0  0  0  0
   -2.6410    3.7110   14.9320 C   0  0  0  0  0  0  0  0  0  0  0  0
   -3.8760    4.1990   14.5120 C   0  0  0  0  0  0  0  0  0  0  0  0
   -4.0830    5.5720   14.4040 C   0  0  0  0  0  0  0  0  0  0  0  0
   -3.0540    6.4610   14.7180 C   0  0  0  0  0  0  0  0  0  0  0  0
   -0.2670    6.6630   11.9480 C   0  0  0  0  0  0  0  0  0  0  0  0
   -0.5480    7.6330   11.0020 N   0  0  0  0  0  0  0  0  0  0  0  0
    0.9040    5.3200    8.4670 H   0  0  0  0  0  0  0  0  0  0  0  0
    1.2638    7.1134    9.4809 H   0  0  0  0  0  0  0  0  0  0  0  0
    0.6002    8.0159    8.0762 H   0  0  0  0  0  0  0  0  0  0  0  0
   -1.5757    6.6013    9.4940 H   0  0  0  0  0  0  0  0  0  0  0  0
   -0.9255    9.0995    8.1887 H   0  0  0  0  0  0  0  0  0  0  0  0
   -2.6790    7.7710    7.5560 H   0  0  0  0  0  0  0  0  0  0  0  0
   -2.7753    9.5097   10.5488 H   0  0  0  0  0  0  0  0  0  0  0  0
   -2.2350   11.7750    9.8510 H   0  0  0  0  0  0  0  0  0  0  0  0
    0.1229   10.4835   10.2603 H   0  0  0  0  0  0  0  0  0  0  0  0
   -0.2560   11.2610   12.3380 H   0  0  0  0  0  0  0  0  0  0  0  0
    0.1130    9.4410   13.4580 H   0  0  0  0  0  0  0  0  0  0  0  0
    0.7274    5.7390   14.3621 H   0  0  0  0  0  0  0  0  0  0  0  0
    1.3070    7.3948   14.8137 H   0  0  0  0  0  0  0  0  0  0  0  0
   -0.3044    6.7238   16.4648 H   0  0  0  0  0  0  0  0  0  0  0  0
   -1.0791    7.9641   15.3987 H   0  0  0  0  0  0  0  0  0  0  0  0
   -0.6353    4.2084   15.5740 H   0  0  0  0  0  0  0  0  0  0  0  0
   -2.4782    2.6264   15.0170 H   0  0  0  0  0  0  0  0  0  0  0  0
   -4.6884    3.4996   14.2654 H   0  0  0  0  0  0  0  0  0  0  0  0
   -5.0585    5.9561   14.0709 H   0  0  0  0  0  0  0  0  0  0  0  0
   -3.2224    7.5446   14.6312 H   0  0  0  0  0  0  0  0  0  0  0  0
   -0.3041    5.5744   11.7947 H   0  0  0  0  0  0  0  0  0  0  0  0
  1  2  1  0
  2  3  1  0
  3  4  1  0
  4  5  1  0
  4  6  1  0
  6  7  1  0
  6  8  1  0
  8  9  1  0
  8 10  1  0
 10 11  2  0
 11 12  1  0
 12 13  1  0
 13 14  1  0
 14 15  1  0
 15 16  2  0
 16 17  1  0
 17 18  2  0
 18 19  1  0
 19 20  2  0
 12 21  2  0
 21 22  1  0
 22  3  1  0
 22 10  1  0
 20 15  1  0
  1 23  1  0
  2 24  1  0
  2 25  1  0
  3 26  1  1
  4 27  1  6
  5 28  1  0
  6 29  1  1
  7 30  1  0
  8 31  1  6
  9 32  1  0
 11 33  1  0
 13 34  1  0
 13 35  1  0
 14 36  1  0
 14 37  1  0
 16 38  1  0
 17 39  1  0
 18 40  1  0
 19 41  1  0
 20 42  1  0
 21 43  1  0
M  CHG  1  11   1
M  END
>  <meeko>  (6) 
{"is_sidechain": [false], "free_energy": -8.208, "intermolecular_energy": -10.868, "internal_energy": -0.63}

$$$$
2cet_ligand
     RDKit          3D

 43 45  0  0  0  0  0  0  0  0999 V2000
    0.2150    6.0190    8.0510 O   0  0  0  0  0  0  0  0  0  0  0  0
    0.3690    7.2110    8.8260 C   0  0  0  0  0  0  0  0  0  0  0  0
   -0.9570    7.5290    9.5520 C   0  0  2  0  0  0  0  0  0  0  0  0
   -1.6090    8.8020    8.9030 C   0  0  1  0  0  0  0  0  0  0  0  0
   -2.8520    8.4190    8.2870 O   0  0  0  0  0  0  0  0  0  0  0  0
   -1.9120    9.9520    9.8850 C   0  0  2  0  0  0  0  0  0  0  0  0
   -2.1690   11.1680    9.1660 O   0  0  0  0  0  0  0  0  0  0  0  0
   -0.7550   10.1850   10.8570 C   0  0  1  0  0  0  0  0  0  0  0  0
   -1.0810   11.2180   11.7930 O   0  0  0  0  0  0  0  0  0  0  0  0
   -0.5070    8.8930   11.5680 C   0  0  0  0  0  0  0  0  0  0  0  0
   -0.2030    8.6810   12.8520 N   0  0  0  0  0  0  0  0  0  0  0  0
   -0.1800    7.3300   13.1460 C   0  0  0  0  0  0  0  0  0  0  0  0
    0.1220    6.7970   14.4920 C   0  0  0  0  0  0  0  0  0  0  0  0
   -1.0500    7.0000   15.4500 C   0  0  0  0  0  0  0  0  0  0  0  0
   -1.1400    5.8770   16.4500 C   0  0  0  0  0  0  0  0  0  0  0  0
   -1.1650    6.1510   17.8250 C   0  0  0  0  0  0  0  0  0  0  0  0
   -1.2220    5.1090   18.7510 C   0  0  0  0  0  0  0  0  0  0  0  0
   -1.2540    3.7870   18.3140 C   0  0  0  0  0  0  0  0  0  0  0  0
   -1.2270    3.5040   16.9490 C   0  0  0  0  0  0  0  0  0  0  0  0
   -1.1690    4.5440   16.0210 C   0  0  0  0  0  0  0  0  0  0  0  0
   -0.4880    6.7020   11.9570 C   0  0  0  0  0  0  0  0  0  0  0  0
   -0.6830    7.6880   11.0060 N   0  0  0  0  0  0  0  0  0  0  0  0
   -0.0670    5.3120    8.6660 H   0  0  0  0  0  0  0  0  0  0  0  0
    1.1675    7.0649    9.5684 H   0  0  0  0  0  0  0  0  0  0  0  0
    0.6333    8.0477    8.1626 H   0  0  0  0  0  0  0  0  0  0  0  0
   -1.6810    6.7079    9.4436 H   0  0  0  0  0  0  0  0  0  0  0  0
   -0.8662    9.1832    8.1868 H   0  0  0  0  0  0  0  0  0  0  0  0
   -3.5790    8.7950    8.8200 H   0  0  0  0  0  0  0  0  0  0  0  0
   -2.8021    9.6604   10.4618 H   0  0  0  0  0  0  0  0  0  0  0  0
   -1.9790   11.9140    9.7660 H   0  0  0  0  0  0  0  0  0  0  0  0
    0.1452   10.5092   10.3143 H   0  0  0  0  0  0  0  0  0  0  0  0
   -0.3590   11.2020   12.4560 H   0  0  0  0  0  0  0  0  0  0  0  0
   -0.0590    9.4540   13.5020 H   0  0  0  0  0  0  0  0  0  0  0  0
    0.3351    5.7209   14.4108 H   0  0  0  0  0  0  0  0  0  0  0  0
    0.9919    7.3393   14.8909 H   0  0  0  0  0  0  0  0  0  0  0  0
   -0.9124    7.9492   15.9885 H   0  0  0  0  0  0  0  0  0  0  0  0
   -1.9798    7.0173   14.8625 H   0  0  0  0  0  0  0  0  0  0  0  0
   -1.1395    7.1934   18.1755 H   0  0  0  0  0  0  0  0  0  0  0  0
   -1.2417    5.3320   19.8280 H   0  0  0  0  0  0  0  0  0  0  0  0
   -1.3005    2.9666   19.0453 H   0  0  0  0  0  0  0  0  0  0  0  0
   -1.2514    2.4599   16.6036 H   0  0  0  0  0  0  0  0  0  0  0  0
   -1.1459    4.3156   14.9452 H   0  0  0  0  0  0  0  0  0  0  0  0
   -0.5645    5.6167   11.7947 H   0  0  0  0  0  0  0  0  0  0  0  0
  1  2  1  0
  2  3  1  0
  3  4  1  0
  4  5  1  0
  4  6  1  0
  6  7  1  0
  6  8  1  0
  8  9  1  0
  8 10  1  0
 10 11  2  0
 11 12  1  0
 12 13  1  0
 13 14  1  0
 14 15  1  0
 15 16  2  0
 16 17  1  0
 17 18  2  0
 18 19  1  0
 19 20  2  0
 12 21  2  0
 21 22  1  0
 22  3  1  0
 22 10  1  0
 20 15  1  0
  1 23  1  0
  2 24  1  0
  2 25  1  0
  3 26  1  1
  4 27  1  6
  5 28  1  0
  6 29  1  1
  7 30  1  0
  8 31  1  6
  9 32  1  0
 11 33  1  0
 13 34  1  0
 13 35  1  0
 14 36  1  0
 14 37  1  0
 16 38  1  0
 17 39  1  0
 18 40  1  0
 19 41  1  0
 20 42  1  0
 21 43  1  0
M  CHG  1  11   1
M  END
>  <meeko>  (7) 
{"is_sidechain": [false], "free_energy": -8.186, "intermolecular_energy": -11.102, "internal_energy": -0.367}

$$$$
2cet_ligand
     RDKit          3D

 43 45  0  0  0  0  0  0  0  0999 V2000
   -2.3870    8.5160   16.3600 O   0  0  0  0  0  0  0  0  0  0  0  0
   -2.5810    7.7810   15.1490 C   0  0  0  0  0  0  0  0  0  0  0  0
   -2.5610    6.2660   15.4560 C   0  0  2  0  0  0  0  0  0  0  0  0
   -2.6870    6.0530   17.0070 C   0  0  1  0  0  0  0  0  0  0  0  0
   -3.9290    5.3770   17.2790 O   0  0  0  0  0  0  0  0  0  0  0  0
   -1.5560    5.2190   17.6440 C   0  0  2  0  0  0  0  0  0  0  0  0
   -1.5660    5.3730   19.0720 O   0  0  0  0  0  0  0  0  0  0  0  0
   -0.1830    5.6280   17.1100 C   0  0  1  0  0  0  0  0  0  0  0  0
    0.8450    4.8060   17.6730 O   0  0  0  0  0  0  0  0  0  0  0  0
   -0.2220    5.4740   15.6230 C   0  0  0  0  0  0  0  0  0  0  0  0
    0.7230    5.0140   14.7980 N   0  0  0  0  0  0  0  0  0  0  0  0
    0.2490    4.9080   13.5030 C   0  0  0  0  0  0  0  0  0  0  0  0
    1.0730    4.4210   12.3740 C   0  0  0  0  0  0  0  0  0  0  0  0
    2.0300    5.5010   11.8740 C   0  0  0  0  0  0  0  0  0  0  0  0
    1.3420    6.4420   10.9210 C   0  0  0  0  0  0  0  0  0  0  0  0
    1.1240    6.0680    9.5870 C   0  0  0  0  0  0  0  0  0  0  0  0
    0.5080    6.9500    8.6980 C   0  0  0  0  0  0  0  0  0  0  0  0
    0.1070    8.2120    9.1310 C   0  0  0  0  0  0  0  0  0  0  0  0
    0.3220    8.5940   10.4540 C   0  0  0  0  0  0  0  0  0  0  0  0
    0.9370    7.7140   11.3450 C   0  0  0  0  0  0  0  0  0  0  0  0
   -1.0610    5.3350   13.5670 C   0  0  0  0  0  0  0  0  0  0  0  0
   -1.3210    5.6770   14.8830 N   0  0  0  0  0  0  0  0  0  0  0  0
   -1.5280    8.2310   16.7320 H   0  0  0  0  0  0  0  0  0  0  0  0
   -3.5509    8.0526   14.7068 H   0  0  0  0  0  0  0  0  0  0  0  0
   -1.7744    8.0220   14.4410 H   0  0  0  0  0  0  0  0  0  0  0  0
   -3.4137    5.7496   14.9910 H   0  0  0  0  0  0  0  0  0  0  0  0
   -2.6304    7.0581   17.4504 H   0  0  0  0  0  0  0  0  0  0  0  0
   -3.8730    4.4810   16.8950 H   0  0  0  0  0  0  0  0  0  0  0  0
   -1.7376    4.1674   17.3773 H   0  0  0  0  0  0  0  0  0  0  0  0
   -1.2140    6.2590   19.2780 H   0  0  0  0  0  0  0  0  0  0  0  0
    0.0438    6.6680   17.3872 H   0  0  0  0  0  0  0  0  0  0  0  0
    0.4240    4.3500   18.4320 H   0  0  0  0  0  0  0  0  0  0  0  0
    1.6470    4.7480   15.1380 H   0  0  0  0  0  0  0  0  0  0  0  0
    1.6581    3.5512   12.7074 H   0  0  0  0  0  0  0  0  0  0  0  0
    0.4000    4.1465   11.5483 H   0  0  0  0  0  0  0  0  0  0  0  0
    2.4054    6.0737   12.7348 H   0  0  0  0  0  0  0  0  0  0  0  0
    2.8587    5.0115   11.3414 H   0  0  0  0  0  0  0  0  0  0  0  0
    1.4404    5.0735    9.2393 H   0  0  0  0  0  0  0  0  0  0  0  0
    0.3388    6.6483    7.6538 H   0  0  0  0  0  0  0  0  0  0  0  0
   -0.3788    8.9062    8.4295 H   0  0  0  0  0  0  0  0  0  0  0  0
    0.0064    9.5907   10.7961 H   0  0  0  0  0  0  0  0  0  0  0  0
    1.1050    8.0213   12.3878 H   0  0  0  0  0  0  0  0  0  0  0  0
   -1.7688    5.3931   12.7270 H   0  0  0  0  0  0  0  0  0  0  0  0
  1  2  1  0
  2  3  1  0
  3  4  1  0
  4  5  1  0
  4  6  1  0
  6  7  1  0
  6  8  1  0
  8  9  1  0
  8 10  1  0
 10 11  2  0
 11 12  1  0
 12 13  1  0
 13 14  1  0
 14 15  1  0
 15 16  2  0
 16 17  1  0
 17 18  2  0
 18 19  1  0
 19 20  2  0
 12 21  2  0
 21 22  1  0
 22  3  1  0
 22 10  1  0
 20 15  1  0
  1 23  1  0
  2 24  1  0
  2 25  1  0
  3 26  1  6
  4 27  1  1
  5 28  1  0
  6 29  1  1
  7 30  1  0
  8 31  1  6
  9 32  1  0
 11 33  1  0
 13 34  1  0
 13 35  1  0
 14 36  1  0
 14 37  1  0
 16 38  1  0
 17 39  1  0
 18 40  1  0
 19 41  1  0
 20 42  1  0
 21 43  1  0
M  CHG  1  11   1
M  END
>  <meeko>  (8) 
{"is_sidechain": [false], "free_energy": -7.965, "intermolecular_energy": -10.575, "internal_energy": -0.596}

$$$$
2cet_ligand
     RDKit          3D

 43 45  0  0  0  0  0  0  0  0999 V2000
    0.7490    5.7500   18.8750 O   0  0  0  0  0  0  0  0  0  0  0  0
   -0.5960    6.1990   18.6890 C   0  0  0  0  0  0  0  0  0  0  0  0
   -1.2530    5.3960   17.5440 C   0  0  2  0  0  0  0  0  0  0  0  0
   -0.6420    3.9490   17.5110 C   0  0  1  0  0  0  0  0  0  0  0  0
   -1.6810    3.0040   17.8260 O   0  0  0  0  0  0  0  0  0  0  0  0
   -0.0290    3.5300   16.1590 C   0  0  2  0  0  0  0  0  0  0  0  0
    0.7950    2.3660   16.3240 O   0  0  0  0  0  0  0  0  0  0  0  0
    0.8140    4.6520   15.5500 C   0  0  1  0  0  0  0  0  0  0  0  0
    1.3270    4.2620   14.2720 O   0  0  0  0  0  0  0  0  0  0  0  0
   -0.0740    5.8480   15.4150 C   0  0  0  0  0  0  0  0  0  0  0  0
   -0.1400    6.7420   14.4230 N   0  0  0  0  0  0  0  0  0  0  0  0
   -1.1840    7.6280   14.6160 C   0  0  0  0  0  0  0  0  0  0  0  0
   -1.5030    8.7240   13.6750 C   0  0  0  0  0  0  0  0  0  0  0  0
   -2.0690    8.1870   12.3620 C   0  0  0  0  0  0  0  0  0  0  0  0
   -1.2970    8.7090   11.1790 C   0  0  0  0  0  0  0  0  0  0  0  0
   -1.1560   10.0890   10.9770 C   0  0  0  0  0  0  0  0  0  0  0  0
   -0.4620   10.5740    9.8680 C   0  0  0  0  0  0  0  0  0  0  0  0
    0.0950    9.6850    8.9510 C   0  0  0  0  0  0  0  0  0  0  0  0
   -0.0420    8.3120    9.1410 C   0  0  0  0  0  0  0  0  0  0  0  0
   -0.7360    7.8250   10.2490 C   0  0  0  0  0  0  0  0  0  0  0  0
   -1.7710    7.2340   15.8000 C   0  0  0  0  0  0  0  0  0  0  0  0
   -1.0660    6.1390   16.2680 N   0  0  0  0  0  0  0  0  0  0  0  0
    0.7100    4.9600   19.4500 H   0  0  0  0  0  0  0  0  0  0  0  0
   -1.1654    6.0463   19.6177 H   0  0  0  0  0  0  0  0  0  0  0  0
   -0.5935    7.2686   18.4324 H   0  0  0  0  0  0  0  0  0  0  0  0
   -2.3357    5.2832   17.7022 H   0  0  0  0  0  0  0  0  0  0  0  0
    0.1787    3.9572   18.2434 H   0  0  0  0  0  0  0  0  0  0  0  0
   -2.3800    3.4800   18.3150 H   0  0  0  0  0  0  0  0  0  0  0  0
   -0.8638    3.3071   15.4782 H   0  0  0  0  0  0  0  0  0  0  0  0
    0.3960    1.8160   17.0260 H   0  0  0  0  0  0  0  0  0  0  0  0
    1.6776    4.8785   16.1926 H   0  0  0  0  0  0  0  0  0  0  0  0
    0.6340    4.5160   13.6270 H   0  0  0  0  0  0  0  0  0  0  0  0
    0.4950    6.7040   13.6260 H   0  0  0  0  0  0  0  0  0  0  0  0
   -2.2462    9.3889   14.1393 H   0  0  0  0  0  0  0  0  0  0  0  0
   -0.5741    9.2698   13.4530 H   0  0  0  0  0  0  0  0  0  0  0  0
   -2.0126    7.0885   12.3702 H   0  0  0  0  0  0  0  0  0  0  0  0
   -3.1126    8.5225   12.2709 H   0  0  0  0  0  0  0  0  0  0  0  0
   -1.5955   10.7943   11.6977 H   0  0  0  0  0  0  0  0  0  0  0  0
   -0.3546   11.6584    9.7176 H   0  0  0  0  0  0  0  0  0  0  0  0
    0.6428   10.0674    8.0772 H   0  0  0  0  0  0  0  0  0  0  0  0
    0.3976    7.6107    8.4165 H   0  0  0  0  0  0  0  0  0  0  0  0
   -0.8432    6.7397   10.3930 H   0  0  0  0  0  0  0  0  0  0  0  0
   -2.6401    7.7039   16.2837 H   0  0  0  0  0  0  0  0  0  0  0  0
  1  2  1  0
  2  3  1  0
  3  4  1  0
  4  5  1  0
  4  6  1  0
  6  7  1  0
  6  8  1  0
  8  9  1  0
  8 10  1  0
 10 11  2  0
 11 12  1  0
 12 13  1  0
 13 14  1  0
 14 15  1  0
 15 16  2  0
 16 17  1  0
 17 18  2  0
 18 19  1  0
 19 20  2  0
 12 21  2  0
 21 22  1  0
 22  3  1  0
 22 10  1  0
 20 15  1  0
  1 23  1  0
  2 24  1  0
  2 25  1  0
  3 26  1  1
  4 27  1  1
  5 28  1  0
  6 29  1  6
  7 30  1  0
  8 31  1  1
  9 32  1  0
 11 33  1  0
 13 34  1  0
 13 35  1  0
 14 36  1  0
 14 37  1  0
 16 38  1  0
 17 39  1  0
 18 40  1  0
 19 41  1  0
 20 42  1  0
 21 43  1  0
M  CHG  1  11   1
M  END
>  <meeko>  (9) 
{"is_sidechain": [false], "free_energy": -7.883, "intermolecular_energy": -10.561, "internal_energy": -0.499}

$$$$
