2qbr_ligand
     RDKit          3D

 42 44  0  0  0  0  0  0  0  0999 V2000
   49.2420   17.8870    5.0980 O   0  0  0  0  0  0  0  0  0  0  0  0
   48.1820   17.1900    5.1800 C   0  0  0  0  0  0  0  0  0  0  0  0
   47.2200   17.3370    5.9960 O   0  0  0  0  0  0  0  0  0  0  0  0
   48.0900   15.9780    4.2260 C   0  0  0  0  0  0  0  0  0  0  0  0
   46.9050   15.1860    4.4780 O   0  0  0  0  0  0  0  0  0  0  0  0
   46.1450   15.0590    3.3610 C   0  0  0  0  0  0  0  0  0  0  0  0
   45.1930   15.9710    2.9430 C   0  0  0  0  0  0  0  0  0  0  0  0
   44.8150   17.3660    3.6080 C   0  0  0  0  0  0  0  0  0  0  0  0
   44.5390   17.3420    4.8530 O   0  0  0  0  0  0  0  0  0  0  0  0
   44.7830   18.4060    2.8800 O   0  0  0  0  0  0  0  0  0  0  0  0
   44.3870   15.4140    1.5280 S   0  0  0  0  0  0  0  0  0  0  0  0
   45.3620   14.0070    1.4170 C   0  0  0  0  0  0  0  0  0  0  0  0
   45.0810   13.0230    0.3670 C   0  0  0  0  0  0  0  0  0  0  0  0
   44.7130   13.4120   -0.9280 C   0  0  0  0  0  0  0  0  0  0  0  0
   44.4060   12.4520   -1.8960 C   0  0  0  0  0  0  0  0  0  0  0  0
   44.4700   11.0950   -1.5770 C   0  0  0  0  0  0  0  0  0  0  0  0
   44.8660   10.6840   -0.3020 C   0  0  0  0  0  0  0  0  0  0  0  0
   44.8540    9.3080    0.0320 N   0  0  0  0  0  0  0  0  0  0  0  0
   45.9890    8.6210   -0.5930 C   0  0  0  0  0  0  0  0  0  0  0  0
   47.2060    8.7760    0.2900 C   0  0  0  0  0  0  0  0  0  0  0  0
   48.3560    9.4170   -0.1910 C   0  0  0  0  0  0  0  0  0  0  0  0
   49.4870    9.5430    0.6170 C   0  0  0  0  0  0  0  0  0  0  0  0
   49.4820    9.0220    1.9100 C   0  0  0  0  0  0  0  0  0  0  0  0
   48.3490    8.3700    2.3950 C   0  0  0  0  0  0  0  0  0  0  0  0
   47.2180    8.2420    1.5870 C   0  0  0  0  0  0  0  0  0  0  0  0
   45.1530   11.6530    0.6660 C   0  0  0  0  0  0  0  0  0  0  0  0
   46.3000   13.9930    2.4270 C   0  0  0  0  0  0  0  0  0  0  0  0
   47.6810   12.6980    2.6050 Br  0  0  0  0  0  0  0  0  0  0  0  0
   48.0610   16.3425    3.1886 H   0  0  0  0  0  0  0  0  0  0  0  0
   48.9704   15.3408    4.3959 H   0  0  0  0  0  0  0  0  0  0  0  0
   44.6655   14.4806   -1.1844 H   0  0  0  0  0  0  0  0  0  0  0  0
   44.1140   12.7659   -2.9090 H   0  0  0  0  0  0  0  0  0  0  0  0
   44.2066   10.3431   -2.3355 H   0  0  0  0  0  0  0  0  0  0  0  0
   43.9970    8.9060   -0.3550 H   0  0  0  0  0  0  0  0  0  0  0  0
   45.7535    7.5531   -0.7120 H   0  0  0  0  0  0  0  0  0  0  0  0
   46.1895    9.0592   -1.5818 H   0  0  0  0  0  0  0  0  0  0  0  0
   48.3672    9.8238   -1.2130 H   0  0  0  0  0  0  0  0  0  0  0  0
   50.3826   10.0536    0.2334 H   0  0  0  0  0  0  0  0  0  0  0  0
   50.3722    9.1253    2.5479 H   0  0  0  0  0  0  0  0  0  0  0  0
   48.3464    7.9565    3.4143 H   0  0  0  0  0  0  0  0  0  0  0  0
   46.3296    7.7185    1.9702 H   0  0  0  0  0  0  0  0  0  0  0  0
   45.4402   11.3357    1.6793 H   0  0  0  0  0  0  0  0  0  0  0  0
  1  2  2  0
  2  3  1  0
  2  4  1  0
  4  5  1  0
  5  6  1  0
  6  7  2  0
  7  8  1  0
  8  9  2  0
  8 10  1  0
  7 11  1  0
 11 12  1  0
 12 13  1  0
 13 14  2  0
 14 15  1  0
 15 16  2  0
 16 17  1  0
 17 18  1  0
 18 19  1  0
 19 20  1  0
 20 21  2  0
 21 22  1  0
 22 23  2  0
 23 24  1  0
 24 25  2  0
 17 26  2  0
 12 27  2  0
 27 28  1  0
 27  6  1  0
 26 13  1  0
 25 20  1  0
  4 29  1  0
  4 30  1  0
 14 31  1  0
 15 32  1  0
 16 33  1  0
 18 34  1  0
 19 35  1  0
 19 36  1  0
 21 37  1  0
 22 38  1  0
 23 39  1  0
 24 40  1  0
 25 41  1  0
 26 42  1  0
M  CHG  2   3  -1  10  -1
M  END
>  <meeko>  (1) 
{"is_sidechain": [false], "free_energy": -8.065, "intermolecular_energy": -11.837, "internal_energy": -1.158}

$$$$
2qbr_ligand
     RDKit          3D

 42 44  0  0  0  0  0  0  0  0999 V2000
   49.2700   17.8570    5.0330 O   0  0  0  0  0  0  0  0  0  0  0  0
   48.1580   17.2440    5.0460 C   0  0  0  0  0  0  0  0  0  0  0  0
   47.1890   17.4120    5.8500 O   0  0  0  0  0  0  0  0  0  0  0  0
   47.9950   16.1100    4.0090 C   0  0  0  0  0  0  0  0  0  0  0  0
   46.8310   15.2950    4.2840 O   0  0  0  0  0  0  0  0  0  0  0  0
   46.1680   14.9730    3.1450 C   0  0  0  0  0  0  0  0  0  0  0  0
   45.4040   15.8510    2.3970 C   0  0  0  0  0  0  0  0  0  0  0  0
   45.1740   17.4060    2.6480 C   0  0  0  0  0  0  0  0  0  0  0  0
   44.7550   17.7350    3.8070 O   0  0  0  0  0  0  0  0  0  0  0  0
   45.3880   18.2200    1.6980 O   0  0  0  0  0  0  0  0  0  0  0  0
   44.6620   15.0460    1.0700 S   0  0  0  0  0  0  0  0  0  0  0  0
   45.4250   13.5530    1.4330 C   0  0  0  0  0  0  0  0  0  0  0  0
   45.1030   12.3700    0.6270 C   0  0  0  0  0  0  0  0  0  0  0  0
   45.1690   11.0760    1.1590 C   0  0  0  0  0  0  0  0  0  0  0  0
   44.9030    9.9650    0.3550 C   0  0  0  0  0  0  0  0  0  0  0  0
   44.5630   10.1410   -0.9870 C   0  0  0  0  0  0  0  0  0  0  0  0
   44.4590   11.4240   -1.5300 C   0  0  0  0  0  0  0  0  0  0  0  0
   44.1870   11.5870   -2.9100 N   0  0  0  0  0  0  0  0  0  0  0  0
   43.5870   10.3670   -3.4600 C   0  0  0  0  0  0  0  0  0  0  0  0
   42.0880   10.4290   -3.2750 C   0  0  0  0  0  0  0  0  0  0  0  0
   41.3750   11.5800   -3.6380 C   0  0  0  0  0  0  0  0  0  0  0  0
   39.9930   11.6460   -3.4480 C   0  0  0  0  0  0  0  0  0  0  0  0
   39.3140   10.5660   -2.8880 C   0  0  0  0  0  0  0  0  0  0  0  0
   40.0150    9.4220   -2.5100 C   0  0  0  0  0  0  0  0  0  0  0  0
   41.3960    9.3550   -2.6980 C   0  0  0  0  0  0  0  0  0  0  0  0
   44.7470   12.5300   -0.7210 C   0  0  0  0  0  0  0  0  0  0  0  0
   46.2530   13.6910    2.5270 C   0  0  0  0  0  0  0  0  0  0  0  0
   47.4060   12.3330    3.1900 Br  0  0  0  0  0  0  0  0  0  0  0  0
   47.8903   16.5546    3.0083 H   0  0  0  0  0  0  0  0  0  0  0  0
   48.8848   15.4656    4.0635 H   0  0  0  0  0  0  0  0  0  0  0  0
   45.4322   10.9336    2.2175 H   0  0  0  0  0  0  0  0  0  0  0  0
   44.9615    8.9519    0.7795 H   0  0  0  0  0  0  0  0  0  0  0  0
   44.3754    9.2627   -1.6222 H   0  0  0  0  0  0  0  0  0  0  0  0
   45.0820   11.7330   -3.3840 H   0  0  0  0  0  0  0  0  0  0  0  0
   43.8235   10.2905   -4.5316 H   0  0  0  0  0  0  0  0  0  0  0  0
   43.9898    9.4867   -2.9376 H   0  0  0  0  0  0  0  0  0  0  0  0
   41.9077   12.4372   -4.0755 H   0  0  0  0  0  0  0  0  0  0  0  0
   39.4404   12.5510   -3.7406 H   0  0  0  0  0  0  0  0  0  0  0  0
   38.2246   10.6161   -2.7441 H   0  0  0  0  0  0  0  0  0  0  0  0
   39.4792    8.5715   -2.0632 H   0  0  0  0  0  0  0  0  0  0  0  0
   41.9457    8.4529   -2.3912 H   0  0  0  0  0  0  0  0  0  0  0  0
   44.6933   13.5417   -1.1495 H   0  0  0  0  0  0  0  0  0  0  0  0
  1  2  2  0
  2  3  1  0
  2  4  1  0
  4  5  1  0
  5  6  1  0
  6  7  2  0
  7  8  1  0
  8  9  2  0
  8 10  1  0
  7 11  1  0
 11 12  1  0
 12 13  1  0
 13 14  2  0
 14 15  1  0
 15 16  2  0
 16 17  1  0
 17 18  1  0
 18 19  1  0
 19 20  1  0
 20 21  2  0
 21 22  1  0
 22 23  2  0
 23 24  1  0
 24 25  2  0
 17 26  2  0
 12 27  2  0
 27 28  1  0
 27  6  1  0
 26 13  1  0
 25 20  1  0
  4 29  1  0
  4 30  1  0
 14 31  1  0
 15 32  1  0
 16 33  1  0
 18 34  1  0
 19 35  1  0
 19 36  1  0
 21 37  1  0
 22 38  1  0
 23 39  1  0
 24 40  1  0
 25 41  1  0
 26 42  1  0
M  CHG  2   3  -1  10  -1
M  END
>  <meeko>  (2) 
{"is_sidechain": [false], "free_energy": -7.998, "intermolecular_energy": -12.202, "internal_energy": -0.694}

$$$$
2qbr_ligand
     RDKit          3D

 42 44  0  0  0  0  0  0  0  0999 V2000
   47.2790   17.4020    6.0230 O   0  0  0  0  0  0  0  0  0  0  0  0
   48.2470   17.2690    5.2110 C   0  0  0  0  0  0  0  0  0  0  0  0
   49.2660   18.0170    5.0910 O   0  0  0  0  0  0  0  0  0  0  0  0
   48.1330   16.1030    4.2040 C   0  0  0  0  0  0  0  0  0  0  0  0
   47.0330   15.2200    4.5270 O   0  0  0  0  0  0  0  0  0  0  0  0
   46.2240   15.0190    3.4570 C   0  0  0  0  0  0  0  0  0  0  0  0
   45.2450   15.8980    3.0280 C   0  0  0  0  0  0  0  0  0  0  0  0
   44.8850   17.3290    3.6240 C   0  0  0  0  0  0  0  0  0  0  0  0
   44.5510   17.3610    4.8550 O   0  0  0  0  0  0  0  0  0  0  0  0
   44.9220   18.3410    2.8590 O   0  0  0  0  0  0  0  0  0  0  0  0
   44.3810   15.2510    1.6890 S   0  0  0  0  0  0  0  0  0  0  0  0
   45.3620   13.8450    1.6190 C   0  0  0  0  0  0  0  0  0  0  0  0
   45.0430   12.7970    0.6450 C   0  0  0  0  0  0  0  0  0  0  0  0
   45.0490   11.4400    0.9930 C   0  0  0  0  0  0  0  0  0  0  0  0
   44.7870   10.4600    0.0320 C   0  0  0  0  0  0  0  0  0  0  0  0
   44.5110   10.8310   -1.2850 C   0  0  0  0  0  0  0  0  0  0  0  0
   44.4670   12.1790   -1.6470 C   0  0  0  0  0  0  0  0  0  0  0  0
   44.2600   12.5410   -3.0000 N   0  0  0  0  0  0  0  0  0  0  0  0
   44.2830   13.9990   -3.1490 C   0  0  0  0  0  0  0  0  0  0  0  0
   42.8680   14.5240   -3.0720 C   0  0  0  0  0  0  0  0  0  0  0  0
   42.5950   15.7390   -2.4260 C   0  0  0  0  0  0  0  0  0  0  0  0
   41.2850   16.2140   -2.3360 C   0  0  0  0  0  0  0  0  0  0  0  0
   40.2360   15.4780   -2.8840 C   0  0  0  0  0  0  0  0  0  0  0  0
   40.4940   14.2620   -3.5150 C   0  0  0  0  0  0  0  0  0  0  0  0
   41.8020   13.7840   -3.6050 C   0  0  0  0  0  0  0  0  0  0  0  0
   44.7500   13.1530   -0.6810 C   0  0  0  0  0  0  0  0  0  0  0  0
   46.3460   13.8990    2.5830 C   0  0  0  0  0  0  0  0  0  0  0  0
   47.7450   12.6270    2.7760 Br  0  0  0  0  0  0  0  0  0  0  0  0
   47.9740   16.5163    3.1971 H   0  0  0  0  0  0  0  0  0  0  0  0
   49.0645   15.5197    4.2492 H   0  0  0  0  0  0  0  0  0  0  0  0
   45.2616   11.1437    2.0308 H   0  0  0  0  0  0  0  0  0  0  0  0
   44.7982    9.3966    0.3133 H   0  0  0  0  0  0  0  0  0  0  0  0
   44.3268   10.0558   -2.0434 H   0  0  0  0  0  0  0  0  0  0  0  0
   43.3270   12.2160   -3.2660 H   0  0  0  0  0  0  0  0  0  0  0  0
   44.8853   14.4426   -2.3425 H   0  0  0  0  0  0  0  0  0  0  0  0
   44.7262   14.2664   -4.1196 H   0  0  0  0  0  0  0  0  0  0  0  0
   43.4186   16.3215   -1.9874 H   0  0  0  0  0  0  0  0  0  0  0  0
   41.0807   17.1702   -1.8320 H   0  0  0  0  0  0  0  0  0  0  0  0
   39.2052   15.8563   -2.8187 H   0  0  0  0  0  0  0  0  0  0  0  0
   39.6654   13.6784   -3.9426 H   0  0  0  0  0  0  0  0  0  0  0  0
   41.9985   12.8202   -4.0973 H   0  0  0  0  0  0  0  0  0  0  0  0
   44.7425   14.2153   -0.9663 H   0  0  0  0  0  0  0  0  0  0  0  0
  1  2  2  0
  2  3  1  0
  2  4  1  0
  4  5  1  0
  5  6  1  0
  6  7  2  0
  7  8  1  0
  8  9  2  0
  8 10  1  0
  7 11  1  0
 11 12  1  0
 12 13  1  0
 13 14  2  0
 14 15  1  0
 15 16  2  0
 16 17  1  0
 17 18  1  0
 18 19  1  0
 19 20  1  0
 20 21  2  0
 21 22  1  0
 22 23  2  0
 23 24  1  0
 24 25  2  0
 17 26  2  0
 12 27  2  0
 27 28  1  0
 27  6  1  0
 26 13  1  0
 25 20  1  0
  4 29  1  0
  4 30  1  0
 14 31  1  0
 15 32  1  0
 16 33  1  0
 18 34  1  0
 19 35  1  0
 19 36  1  0
 21 37  1  0
 22 38  1  0
 23 39  1  0
 24 40  1  0
 25 41  1  0
 26 42  1  0
M  CHG  2   3  -1  10  -1
M  END
>  <meeko>  (3) 
{"is_sidechain": [false], "free_energy": -7.933, "intermolecular_energy": -11.951, "internal_energy": -0.851}

$$$$
2qbr_ligand
     RDKit          3D

 42 44  0  0  0  0  0  0  0  0999 V2000
   53.3820    6.8350    5.2050 O   0  0  0  0  0  0  0  0  0  0  0  0
   52.6900    7.8760    4.9820 C   0  0  0  0  0  0  0  0  0  0  0  0
   53.0460    9.0880    5.1200 O   0  0  0  0  0  0  0  0  0  0  0  0
   51.2200    7.6400    4.5670 C   0  0  0  0  0  0  0  0  0  0  0  0
   51.1260    6.9510    3.2970 O   0  0  0  0  0  0  0  0  0  0  0  0
   50.4900    7.7070    2.3670 C   0  0  0  0  0  0  0  0  0  0  0  0
   51.0550    8.1480    1.1840 C   0  0  0  0  0  0  0  0  0  0  0  0
   52.5100    7.8390    0.6190 C   0  0  0  0  0  0  0  0  0  0  0  0
   53.0030    8.7050   -0.1780 O   0  0  0  0  0  0  0  0  0  0  0  0
   53.0850    6.7590    0.9590 O   0  0  0  0  0  0  0  0  0  0  0  0
   49.9570    9.1460    0.3120 S   0  0  0  0  0  0  0  0  0  0  0  0
   48.7000    8.9200    1.4580 C   0  0  0  0  0  0  0  0  0  0  0  0
   47.4330    9.6360    1.2820 C   0  0  0  0  0  0  0  0  0  0  0  0
   46.3330    9.0440    0.6490 C   0  0  0  0  0  0  0  0  0  0  0  0
   45.1540    9.7670    0.4520 C   0  0  0  0  0  0  0  0  0  0  0  0
   45.0640   11.0880    0.8930 C   0  0  0  0  0  0  0  0  0  0  0  0
   46.1380   11.6880    1.5560 C   0  0  0  0  0  0  0  0  0  0  0  0
   46.0620   13.0510    1.9320 N   0  0  0  0  0  0  0  0  0  0  0  0
   46.9860   13.3290    3.0360 C   0  0  0  0  0  0  0  0  0  0  0  0
   47.0020   14.8170    3.3030 C   0  0  0  0  0  0  0  0  0  0  0  0
   45.9550   15.6310    2.8480 C   0  0  0  0  0  0  0  0  0  0  0  0
   45.9790   17.0090    3.0760 C   0  0  0  0  0  0  0  0  0  0  0  0
   47.0530   17.5850    3.7540 C   0  0  0  0  0  0  0  0  0  0  0  0
   48.1060   16.7870    4.1970 C   0  0  0  0  0  0  0  0  0  0  0  0
   48.0840   15.4100    3.9690 C   0  0  0  0  0  0  0  0  0  0  0  0
   47.3220   10.9620    1.7300 C   0  0  0  0  0  0  0  0  0  0  0  0
   49.1150    8.0710    2.4620 C   0  0  0  0  0  0  0  0  0  0  0  0
   48.0030    7.4260    3.8630 Br  0  0  0  0  0  0  0  0  0  0  0  0
   50.7246    7.0332    5.3393 H   0  0  0  0  0  0  0  0  0  0  0  0
   50.7317    8.6201    4.4623 H   0  0  0  0  0  0  0  0  0  0  0  0
   46.3978    8.0015    0.3042 H   0  0  0  0  0  0  0  0  0  0  0  0
   44.2968    9.2952   -0.0506 H   0  0  0  0  0  0  0  0  0  0  0  0
   44.1415   11.6608    0.7176 H   0  0  0  0  0  0  0  0  0  0  0  0
   45.1120   13.2240    2.2700 H   0  0  0  0  0  0  0  0  0  0  0  0
   46.6527   12.7961    3.9387 H   0  0  0  0  0  0  0  0  0  0  0  0
   47.9973   12.9890    2.7682 H   0  0  0  0  0  0  0  0  0  0  0  0
   45.1088   15.1814    2.3078 H   0  0  0  0  0  0  0  0  0  0  0  0
   45.1508   17.6398    2.7208 H   0  0  0  0  0  0  0  0  0  0  0  0
   47.0689   18.6692    3.9391 H   0  0  0  0  0  0  0  0  0  0  0  0
   48.9554   17.2427    4.7269 H   0  0  0  0  0  0  0  0  0  0  0  0
   48.9214   14.7858    4.3142 H   0  0  0  0  0  0  0  0  0  0  0  0
   48.1803   11.4385    2.2263 H   0  0  0  0  0  0  0  0  0  0  0  0
  1  2  2  0
  2  3  1  0
  2  4  1  0
  4  5  1  0
  5  6  1  0
  6  7  2  0
  7  8  1  0
  8  9  2  0
  8 10  1  0
  7 11  1  0
 11 12  1  0
 12 13  1  0
 13 14  2  0
 14 15  1  0
 15 16  2  0
 16 17  1  0
 17 18  1  0
 18 19  1  0
 19 20  1  0
 20 21  2  0
 21 22  1  0
 22 23  2  0
 23 24  1  0
 24 25  2  0
 17 26  2  0
 12 27  2  0
 27 28  1  0
 27  6  1  0
 26 13  1  0
 25 20  1  0
  4 29  1  0
  4 30  1  0
 14 31  1  0
 15 32  1  0
 16 33  1  0
 18 34  1  0
 19 35  1  0
 19 36  1  0
 21 37  1  0
 22 38  1  0
 23 39  1  0
 24 40  1  0
 25 41  1  0
 26 42  1  0
M  CHG  2   3  -1  10  -1
M  END
>  <meeko>  (4) 
{"is_sidechain": [false], "free_energy": -7.917, "intermolecular_energy": -12.162, "internal_energy": -0.616}

$$$$
2qbr_ligand
     RDKit          3D

 42 44  0  0  0  0  0  0  0  0999 V2000
   42.8770    7.0220   -3.0430 O   0  0  0  0  0  0  0  0  0  0  0  0
   42.5270    7.9240   -2.2200 C   0  0  0  0  0  0  0  0  0  0  0  0
   41.3820    8.4600   -2.0980 O   0  0  0  0  0  0  0  0  0  0  0  0
   43.6450    8.4870   -1.3140 C   0  0  0  0  0  0  0  0  0  0  0  0
   44.7740    8.9620   -2.0860 O   0  0  0  0  0  0  0  0  0  0  0  0
   45.2690   10.1200   -1.5820 C   0  0  0  0  0  0  0  0  0  0  0  0
   46.3540   10.2120   -0.7270 C   0  0  0  0  0  0  0  0  0  0  0  0
   47.2850    9.0350   -0.1980 C   0  0  0  0  0  0  0  0  0  0  0  0
   47.8240    8.2960   -1.0880 O   0  0  0  0  0  0  0  0  0  0  0  0
   47.4240    8.8770    1.0540 O   0  0  0  0  0  0  0  0  0  0  0  0
   46.6230   11.8420   -0.2480 S   0  0  0  0  0  0  0  0  0  0  0  0
   45.3590   12.4390   -1.2430 C   0  0  0  0  0  0  0  0  0  0  0  0
   45.0320   13.8680   -1.2050 C   0  0  0  0  0  0  0  0  0  0  0  0
   45.1440   14.6790   -2.3410 C   0  0  0  0  0  0  0  0  0  0  0  0
   44.8710   16.0470   -2.2640 C   0  0  0  0  0  0  0  0  0  0  0  0
   44.4790   16.6140   -1.0510 C   0  0  0  0  0  0  0  0  0  0  0  0
   44.3300   15.8170    0.0870 C   0  0  0  0  0  0  0  0  0  0  0  0
   44.0050   16.4140    1.3300 N   0  0  0  0  0  0  0  0  0  0  0  0
   44.3680   15.5230    2.4360 C   0  0  0  0  0  0  0  0  0  0  0  0
   45.6750   15.9890    3.0360 C   0  0  0  0  0  0  0  0  0  0  0  0
   45.9360   17.3580    3.1940 C   0  0  0  0  0  0  0  0  0  0  0  0
   47.1510   17.7900    3.7290 C   0  0  0  0  0  0  0  0  0  0  0  0
   48.1180   16.8590    4.1040 C   0  0  0  0  0  0  0  0  0  0  0  0
   47.8760   15.4960    3.9370 C   0  0  0  0  0  0  0  0  0  0  0  0
   46.6620   15.0630    3.4010 C   0  0  0  0  0  0  0  0  0  0  0  0
   44.6250   14.4510    0.0050 C   0  0  0  0  0  0  0  0  0  0  0  0
   44.7750   11.4070   -1.9460 C   0  0  0  0  0  0  0  0  0  0  0  0
   43.4330   11.6250   -3.2750 Br  0  0  0  0  0  0  0  0  0  0  0  0
   43.2392    9.3229   -0.7253 H   0  0  0  0  0  0  0  0  0  0  0  0
   43.9955    7.6758   -0.6590 H   0  0  0  0  0  0  0  0  0  0  0  0
   45.4490   14.2360   -3.3005 H   0  0  0  0  0  0  0  0  0  0  0  0
   44.9652   16.6775   -3.1604 H   0  0  0  0  0  0  0  0  0  0  0  0
   44.2860   17.6952   -0.9901 H   0  0  0  0  0  0  0  0  0  0  0  0
   42.9900   16.5410    1.3530 H   0  0  0  0  0  0  0  0  0  0  0  0
   43.5803   15.5482    3.2034 H   0  0  0  0  0  0  0  0  0  0  0  0
   44.4767   14.4938    2.0633 H   0  0  0  0  0  0  0  0  0  0  0  0
   45.1779   18.0966    2.8942 H   0  0  0  0  0  0  0  0  0  0  0  0
   47.3452   18.8654    3.8546 H   0  0  0  0  0  0  0  0  0  0  0  0
   49.0724   17.1996    4.5319 H   0  0  0  0  0  0  0  0  0  0  0  0
   48.6418   14.7618    4.2277 H   0  0  0  0  0  0  0  0  0  0  0  0
   46.4785   13.9871    3.2640 H   0  0  0  0  0  0  0  0  0  0  0  0
   44.5363   13.8239    0.9043 H   0  0  0  0  0  0  0  0  0  0  0  0
  1  2  2  0
  2  3  1  0
  2  4  1  0
  4  5  1  0
  5  6  1  0
  6  7  2  0
  7  8  1  0
  8  9  2  0
  8 10  1  0
  7 11  1  0
 11 12  1  0
 12 13  1  0
 13 14  2  0
 14 15  1  0
 15 16  2  0
 16 17  1  0
 17 18  1  0
 18 19  1  0
 19 20  1  0
 20 21  2  0
 21 22  1  0
 22 23  2  0
 23 24  1  0
 24 25  2  0
 17 26  2  0
 12 27  2  0
 27 28  1  0
 27  6  1  0
 26 13  1  0
 25 20  1  0
  4 29  1  0
  4 30  1  0
 14 31  1  0
 15 32  1  0
 16 33  1  0
 18 34  1  0
 19 35  1  0
 19 36  1  0
 21 37  1  0
 22 38  1  0
 23 39  1  0
 24 40  1  0
 25 41  1  0
 26 42  1  0
M  CHG  2   3  -1  10  -1
M  END
>  <meeko>  (5) 
{"is_sidechain": [false], "free_energy": -7.803, "intermolecular_energy": -11.402, "internal_energy": -1.208}

$$$$
2qbr_ligand
     RDKit          3D

 42 44  0  0  0  0  0  0  0  0999 V2000
   45.9140   17.6650    5.2690 O   0  0  0  0  0  0  0  0  0  0  0  0
   47.0670   17.4640    4.7750 C   0  0  0  0  0  0  0  0  0  0  0  0
   48.1000   18.1930    4.8960 O   0  0  0  0  0  0  0  0  0  0  0  0
   47.2080   16.2270    3.8600 C   0  0  0  0  0  0  0  0  0  0  0  0
   46.0570   15.3560    3.9550 O   0  0  0  0  0  0  0  0  0  0  0  0
   45.7850   14.7590    2.7680 C   0  0  0  0  0  0  0  0  0  0  0  0
   45.0690   15.3390    1.7350 C   0  0  0  0  0  0  0  0  0  0  0  0
   44.4660   16.8100    1.6680 C   0  0  0  0  0  0  0  0  0  0  0  0
   43.1970   16.8970    1.5760 O   0  0  0  0  0  0  0  0  0  0  0  0
   45.2600   17.8010    1.6820 O   0  0  0  0  0  0  0  0  0  0  0  0
   44.8680   14.2360    0.4300 S   0  0  0  0  0  0  0  0  0  0  0  0
   45.8080   13.0210    1.1940 C   0  0  0  0  0  0  0  0  0  0  0  0
   45.9510   11.7130    0.5450 C   0  0  0  0  0  0  0  0  0  0  0  0
   44.8540   10.8660    0.3430 C   0  0  0  0  0  0  0  0  0  0  0  0
   45.0280    9.6070   -0.2350 C   0  0  0  0  0  0  0  0  0  0  0  0
   46.3010    9.1860   -0.6210 C   0  0  0  0  0  0  0  0  0  0  0  0
   47.4040   10.0270   -0.4590 C   0  0  0  0  0  0  0  0  0  0  0  0
   48.7020    9.5610   -0.7840 N   0  0  0  0  0  0  0  0  0  0  0  0
   49.5810    9.6370    0.3870 C   0  0  0  0  0  0  0  0  0  0  0  0
   49.2190    8.5270    1.3470 C   0  0  0  0  0  0  0  0  0  0  0  0
   49.3580    7.1850    0.9660 C   0  0  0  0  0  0  0  0  0  0  0  0
   49.0050    6.1590    1.8450 C   0  0  0  0  0  0  0  0  0  0  0  0
   48.5040    6.4660    3.1090 C   0  0  0  0  0  0  0  0  0  0  0  0
   48.3470    7.7970    3.4930 C   0  0  0  0  0  0  0  0  0  0  0  0
   48.6980    8.8240    2.6150 C   0  0  0  0  0  0  0  0  0  0  0  0
   47.2230   11.2800    0.1390 C   0  0  0  0  0  0  0  0  0  0  0  0
   46.2850   13.4740    2.4050 C   0  0  0  0  0  0  0  0  0  0  0  0
   47.4890   12.5160    3.5220 Br  0  0  0  0  0  0  0  0  0  0  0  0
   47.3144   16.5645    2.8185 H   0  0  0  0  0  0  0  0  0  0  0  0
   48.0937   15.6607    4.1839 H   0  0  0  0  0  0  0  0  0  0  0  0
   43.8479   11.1951    0.6419 H   0  0  0  0  0  0  0  0  0  0  0  0
   44.1612    8.9468   -0.3861 H   0  0  0  0  0  0  0  0  0  0  0  0
   46.4367    8.1848   -1.0559 H   0  0  0  0  0  0  0  0  0  0  0  0
   49.0820   10.1860   -1.4990 H   0  0  0  0  0  0  0  0  0  0  0  0
   50.6282    9.5235    0.0700 H   0  0  0  0  0  0  0  0  0  0  0  0
   49.4572   10.6115    0.8820 H   0  0  0  0  0  0  0  0  0  0  0  0
   49.7480    6.9385   -0.0326 H   0  0  0  0  0  0  0  0  0  0  0  0
   49.1223    5.1087    1.5400 H   0  0  0  0  0  0  0  0  0  0  0  0
   48.2324    5.6577    3.8039 H   0  0  0  0  0  0  0  0  0  0  0  0
   47.9462    8.0381    4.4886 H   0  0  0  0  0  0  0  0  0  0  0  0
   48.5652    9.8727    2.9194 H   0  0  0  0  0  0  0  0  0  0  0  0
   48.0923   11.9362    0.2933 H   0  0  0  0  0  0  0  0  0  0  0  0
  1  2  2  0
  2  3  1  0
  2  4  1  0
  4  5  1  0
  5  6  1  0
  6  7  2  0
  7  8  1  0
  8  9  2  0
  8 10  1  0
  7 11  1  0
 11 12  1  0
 12 13  1  0
 13 14  2  0
 14 15  1  0
 15 16  2  0
 16 17  1  0
 17 18  1  0
 18 19  1  0
 19 20  1  0
 20 21  2  0
 21 22  1  0
 22 23  2  0
 23 24  1  0
 24 25  2  0
 17 26  2  0
 12 27  2  0
 27 28  1  0
 27  6  1  0
 26 13  1  0
 25 20  1  0
  4 29  1  0
  4 30  1  0
 14 31  1  0
 15 32  1  0
 16 33  1  0
 18 34  1  0
 19 35  1  0
 19 36  1  0
 21 37  1  0
 22 38  1  0
 23 39  1  0
 24 40  1  0
 25 41  1  0
 26 42  1  0
M  CHG  2   3  -1  10  -1
M  END
>  <meeko>  (6) 
{"is_sidechain": [false], "free_energy": -7.429, "intermolecular_energy": -10.677, "internal_energy": -1.384}

$$$$
2qbr_ligand
     RDKit          3D

 42 44  0  0  0  0  0  0  0  0999 V2000
   53.4130    5.7140   -1.5120 O   0  0  0  0  0  0  0  0  0  0  0  0
   53.3390    6.5960   -0.6010 C   0  0  0  0  0  0  0  0  0  0  0  0
   54.0720    6.7080    0.4300 O   0  0  0  0  0  0  0  0  0  0  0  0
   52.1740    7.6040   -0.7240 C   0  0  0  0  0  0  0  0  0  0  0  0
   52.2430    8.6300    0.2950 O   0  0  0  0  0  0  0  0  0  0  0  0
   51.0810    8.7200    0.9890 C   0  0  0  0  0  0  0  0  0  0  0  0
   50.7890    8.0110    2.1410 C   0  0  0  0  0  0  0  0  0  0  0  0
   51.7300    7.0030    2.9340 C   0  0  0  0  0  0  0  0  0  0  0  0
   52.6480    7.5290    3.6470 O   0  0  0  0  0  0  0  0  0  0  0  0
   51.5430    5.7540    2.8040 O   0  0  0  0  0  0  0  0  0  0  0  0
   49.1870    8.3400    2.6760 S   0  0  0  0  0  0  0  0  0  0  0  0
   48.9110    9.4910    1.4340 C   0  0  0  0  0  0  0  0  0  0  0  0
   47.5890   10.1150    1.3180 C   0  0  0  0  0  0  0  0  0  0  0  0
   46.5540    9.5190    0.5870 C   0  0  0  0  0  0  0  0  0  0  0  0
   45.3200   10.1590    0.4540 C   0  0  0  0  0  0  0  0  0  0  0  0
   45.1090   11.4000    1.0570 C   0  0  0  0  0  0  0  0  0  0  0  0
   46.1170   11.9980    1.8180 C   0  0  0  0  0  0  0  0  0  0  0  0
   45.9180   13.2910    2.3610 N   0  0  0  0  0  0  0  0  0  0  0  0
   47.0460   13.6630    3.2210 C   0  0  0  0  0  0  0  0  0  0  0  0
   47.0220   15.1570    3.4470 C   0  0  0  0  0  0  0  0  0  0  0  0
   47.9930   15.7700    4.2510 C   0  0  0  0  0  0  0  0  0  0  0  0
   47.9590   17.1470    4.4780 C   0  0  0  0  0  0  0  0  0  0  0  0
   46.9500   17.9230    3.9090 C   0  0  0  0  0  0  0  0  0  0  0  0
   45.9700   17.3220    3.1200 C   0  0  0  0  0  0  0  0  0  0  0  0
   46.0020   15.9450    2.8940 C   0  0  0  0  0  0  0  0  0  0  0  0
   47.3570   11.3580    1.9290 C   0  0  0  0  0  0  0  0  0  0  0  0
   50.0390    9.6350    0.6550 C   0  0  0  0  0  0  0  0  0  0  0  0
   50.2340   10.9070   -0.7440 Br  0  0  0  0  0  0  0  0  0  0  0  0
   52.2189    8.0814   -1.7140 H   0  0  0  0  0  0  0  0  0  0  0  0
   51.2302    7.0544   -0.5934 H   0  0  0  0  0  0  0  0  0  0  0  0
   46.7143    8.5390    0.1138 H   0  0  0  0  0  0  0  0  0  0  0  0
   44.5143    9.6852   -0.1259 H   0  0  0  0  0  0  0  0  0  0  0  0
   44.1428   11.9107    0.9323 H   0  0  0  0  0  0  0  0  0  0  0  0
   45.0810   13.2520    2.9470 H   0  0  0  0  0  0  0  0  0  0  0  0
   46.9607   13.1427    4.1864 H   0  0  0  0  0  0  0  0  0  0  0  0
   47.9916   13.3758    2.7379 H   0  0  0  0  0  0  0  0  0  0  0  0
   48.7879   15.1613    4.7066 H   0  0  0  0  0  0  0  0  0  0  0  0
   48.7284   17.6199    5.1059 H   0  0  0  0  0  0  0  0  0  0  0  0
   46.9271   19.0090    4.0825 H   0  0  0  0  0  0  0  0  0  0  0  0
   45.1711   17.9335    2.6753 H   0  0  0  0  0  0  0  0  0  0  0  0
   45.2217   15.4745    2.2778 H   0  0  0  0  0  0  0  0  0  0  0  0
   48.1631   11.8367    2.5044 H   0  0  0  0  0  0  0  0  0  0  0  0
  1  2  2  0
  2  3  1  0
  2  4  1  0
  4  5  1  0
  5  6  1  0
  6  7  2  0
  7  8  1  0
  8  9  2  0
  8 10  1  0
  7 11  1  0
 11 12  1  0
 12 13  1  0
 13 14  2  0
 14 15  1  0
 15 16  2  0
 16 17  1  0
 17 18  1  0
 18 19  1  0
 19 20  1  0
 20 21  2  0
 21 22  1  0
 22 23  2  0
 23 24  1  0
 24 25  2  0
 17 26  2  0
 12 27  2  0
 27 28  1  0
 27  6  1  0
 26 13  1  0
 25 20  1  0
  4 29  1  0
  4 30  1  0
 14 31  1  0
 15 32  1  0
 16 33  1  0
 18 34  1  0
 19 35  1  0
 19 36  1  0
 21 37  1  0
 22 38  1  0
 23 39  1  0
 24 40  1  0
 25 41  1  0
 26 42  1  0
M  CHG  2   3  -1  10  -1
M  END
>  <meeko>  (7) 
{"is_sidechain": [false], "free_energy": -7.401, "intermolecular_energy": -10.819, "internal_energy": -1.201}

$$$$
2qbr_ligand
     RDKit          3D

 42 44  0  0  0  0  0  0  0  0999 V2000
   47.4570    7.8340    2.1610 O   0  0  0  0  0  0  0  0  0  0  0  0
   47.9050    8.9590    1.7740 C   0  0  0  0  0  0  0  0  0  0  0  0
   48.5060    9.8350    2.4700 O   0  0  0  0  0  0  0  0  0  0  0  0
   47.6170    9.3340    0.3030 C   0  0  0  0  0  0  0  0  0  0  0  0
   46.2000    9.2990    0.0070 O   0  0  0  0  0  0  0  0  0  0  0  0
   45.8400   10.3100   -0.8220 C   0  0  0  0  0  0  0  0  0  0  0  0
   45.7650   10.2150   -2.2010 C   0  0  0  0  0  0  0  0  0  0  0  0
   46.0150    8.9330   -3.1080 C   0  0  0  0  0  0  0  0  0  0  0  0
   47.2060    8.4760   -3.1270 O   0  0  0  0  0  0  0  0  0  0  0  0
   45.0460    8.4520   -3.7750 O   0  0  0  0  0  0  0  0  0  0  0  0
   45.3510   11.7320   -2.9000 S   0  0  0  0  0  0  0  0  0  0  0  0
   45.1810   12.4920   -1.3720 C   0  0  0  0  0  0  0  0  0  0  0  0
   44.8820   13.9270   -1.3160 C   0  0  0  0  0  0  0  0  0  0  0  0
   44.9440   14.7380   -2.4560 C   0  0  0  0  0  0  0  0  0  0  0  0
   44.7010   16.1100   -2.3640 C   0  0  0  0  0  0  0  0  0  0  0  0
   44.3860   16.6820   -1.1300 C   0  0  0  0  0  0  0  0  0  0  0  0
   44.2860   15.8860    0.0140 C   0  0  0  0  0  0  0  0  0  0  0  0
   44.0400   16.4880    1.2730 N   0  0  0  0  0  0  0  0  0  0  0  0
   44.3710   15.5580    2.3570 C   0  0  0  0  0  0  0  0  0  0  0  0
   45.7060   15.9450    2.9480 C   0  0  0  0  0  0  0  0  0  0  0  0
   46.0990   17.2900    2.9950 C   0  0  0  0  0  0  0  0  0  0  0  0
   47.3410   17.6480    3.5230 C   0  0  0  0  0  0  0  0  0  0  0  0
   48.2050   16.6640    4.0010 C   0  0  0  0  0  0  0  0  0  0  0  0
   47.8320   15.3220    3.9460 C   0  0  0  0  0  0  0  0  0  0  0  0
   46.5900   14.9630    3.4170 C   0  0  0  0  0  0  0  0  0  0  0  0
   44.5510   14.5160   -0.0850 C   0  0  0  0  0  0  0  0  0  0  0  0
   45.4060   11.5860   -0.3570 C   0  0  0  0  0  0  0  0  0  0  0  0
   45.1830   11.9550    1.4940 Br  0  0  0  0  0  0  0  0  0  0  0  0
   47.9954   10.3494    0.1137 H   0  0  0  0  0  0  0  0  0  0  0  0
   48.1195    8.5983   -0.3422 H   0  0  0  0  0  0  0  0  0  0  0  0
   45.1860   14.2908   -3.4314 H   0  0  0  0  0  0  0  0  0  0  0  0
   44.7578   16.7401   -3.2638 H   0  0  0  0  0  0  0  0  0  0  0  0
   44.2154   17.7663   -1.0579 H   0  0  0  0  0  0  0  0  0  0  0  0
   43.0380   16.6850    1.3280 H   0  0  0  0  0  0  0  0  0  0  0  0
   43.5951   15.6078    3.1351 H   0  0  0  0  0  0  0  0  0  0  0  0
   44.4228   14.5322    1.9631 H   0  0  0  0  0  0  0  0  0  0  0  0
   45.4234   18.0695    2.6128 H   0  0  0  0  0  0  0  0  0  0  0  0
   47.6377   18.7065    3.5618 H   0  0  0  0  0  0  0  0  0  0  0  0
   49.1813   16.9466    4.4217 H   0  0  0  0  0  0  0  0  0  0  0  0
   48.5159   14.5455    4.3193 H   0  0  0  0  0  0  0  0  0  0  0  0
   46.3034   13.9021    3.3680 H   0  0  0  0  0  0  0  0  0  0  0  0
   44.4992   13.8891    0.8174 H   0  0  0  0  0  0  0  0  0  0  0  0
  1  2  2  0
  2  3  1  0
  2  4  1  0
  4  5  1  0
  5  6  1  0
  6  7  2  0
  7  8  1  0
  8  9  2  0
  8 10  1  0
  7 11  1  0
 11 12  1  0
 12 13  1  0
 13 14  2  0
 14 15  1  0
 15 16  2  0
 16 17  1  0
 17 18  1  0
 18 19  1  0
 19 20  1  0
 20 21  2  0
 21 22  1  0
 22 23  2  0
 23 24  1  0
 24 25  2  0
 17 26  2  0
 12 27  2  0
 27 28  1  0
 27  6  1  0
 26 13  1  0
 25 20  1  0
  4 29  1  0
  4 30  1  0
 14 31  1  0
 15 32  1  0
 16 33  1  0
 18 34  1  0
 19 35  1  0
 19 36  1  0
 21 37  1  0
 22 38  1  0
 23 39  1  0
 24 40  1  0
 25 41  1  0
 26 42  1  0
M  CHG  2   3  -1  10  -1
M  END
>  <meeko>  (8) 
{"is_sidechain": [false], "free_energy": -7.371, "intermolecular_energy": -11.055, "internal_energy": -0.921}

$$$$
2qbr_ligand
     RDKit          3D

 42 44  0  0  0  0  0  0  0  0999 V2000
   48.7460   18.4990   -3.5530 O   0  0  0  0  0  0  0  0  0  0  0  0
   47.9980   18.9640   -4.4680 C   0  0  0  0  0  0  0  0  0  0  0  0
   48.3540   19.4730   -5.5760 O   0  0  0  0  0  0  0  0  0  0  0  0
   46.4830   18.9810   -4.1650 C   0  0  0  0  0  0  0  0  0  0  0  0
   45.7900   17.8970   -4.8270 O   0  0  0  0  0  0  0  0  0  0  0  0
   45.0320   17.1850   -3.9570 C   0  0  0  0  0  0  0  0  0  0  0  0
   43.7110   17.4590   -3.6490 C   0  0  0  0  0  0  0  0  0  0  0  0
   42.7780   18.5930   -4.2620 C   0  0  0  0  0  0  0  0  0  0  0  0
   41.9200   18.2130   -5.1250 O   0  0  0  0  0  0  0  0  0  0  0  0
   42.9460   19.7950   -3.8900 O   0  0  0  0  0  0  0  0  0  0  0  0
   43.1230   16.3800   -2.4440 S   0  0  0  0  0  0  0  0  0  0  0  0
   44.5900   15.4920   -2.3960 C   0  0  0  0  0  0  0  0  0  0  0  0
   44.7340   14.4000   -1.4270 C   0  0  0  0  0  0  0  0  0  0  0  0
   44.7750   13.0590   -1.8290 C   0  0  0  0  0  0  0  0  0  0  0  0
   44.8650   12.0370   -0.8810 C   0  0  0  0  0  0  0  0  0  0  0  0
   44.9200   12.3490    0.4780 C   0  0  0  0  0  0  0  0  0  0  0  0
   44.9130   13.6810    0.9000 C   0  0  0  0  0  0  0  0  0  0  0  0
   44.8920   13.9830    2.2830 N   0  0  0  0  0  0  0  0  0  0  0  0
   44.7340   15.4270    2.4890 C   0  0  0  0  0  0  0  0  0  0  0  0
   45.9820   15.9710    3.1430 C   0  0  0  0  0  0  0  0  0  0  0  0
   46.9790   15.1010    3.6070 C   0  0  0  0  0  0  0  0  0  0  0  0
   48.1230   15.6020    4.2310 C   0  0  0  0  0  0  0  0  0  0  0  0
   48.2790   16.9760    4.4020 C   0  0  0  0  0  0  0  0  0  0  0  0
   47.2880   17.8510    3.9580 C   0  0  0  0  0  0  0  0  0  0  0  0
   46.1420   17.3510    3.3360 C   0  0  0  0  0  0  0  0  0  0  0  0
   44.8020   14.6970   -0.0570 C   0  0  0  0  0  0  0  0  0  0  0  0
   45.4890   15.9990   -3.3100 C   0  0  0  0  0  0  0  0  0  0  0  0
   47.1850   15.2350   -3.7000 Br  0  0  0  0  0  0  0  0  0  0  0  0
   46.3361   18.8868   -3.0789 H   0  0  0  0  0  0  0  0  0  0  0  0
   46.0703   19.9295   -4.5392 H   0  0  0  0  0  0  0  0  0  0  0  0
   44.7360   12.8087   -2.8994 H   0  0  0  0  0  0  0  0  0  0  0  0
   44.8925   10.9864   -1.2057 H   0  0  0  0  0  0  0  0  0  0  0  0
   44.9692   11.5406    1.2223 H   0  0  0  0  0  0  0  0  0  0  0  0
   45.8000   13.7120    2.6700 H   0  0  0  0  0  0  0  0  0  0  0  0
   44.5799   15.9230    1.5193 H   0  0  0  0  0  0  0  0  0  0  0  0
   43.8638   15.6168    3.1345 H   0  0  0  0  0  0  0  0  0  0  0  0
   46.8588   14.0152    3.4783 H   0  0  0  0  0  0  0  0  0  0  0  0
   48.9016   14.9117    4.5878 H   0  0  0  0  0  0  0  0  0  0  0  0
   49.1839   17.3706    4.8873 H   0  0  0  0  0  0  0  0  0  0  0  0
   47.4091   18.9353    4.0978 H   0  0  0  0  0  0  0  0  0  0  0  0
   45.3592   18.0444    2.9950 H   0  0  0  0  0  0  0  0  0  0  0  0
   44.7675   15.7465    0.2707 H   0  0  0  0  0  0  0  0  0  0  0  0
  1  2  2  0
  2  3  1  0
  2  4  1  0
  4  5  1  0
  5  6  1  0
  6  7  2  0
  7  8  1  0
  8  9  2  0
  8 10  1  0
  7 11  1  0
 11 12  1  0
 12 13  1  0
 13 14  2  0
 14 15  1  0
 15 16  2  0
 16 17  1  0
 17 18  1  0
 18 19  1  0
 19 20  1  0
 20 21  2  0
 21 22  1  0
 22 23  2  0
 23 24  1  0
 24 25  2  0
 17 26  2  0
 12 27  2  0
 27 28  1  0
 27  6  1  0
 26 13  1  0
 25 20  1  0
  4 29  1  0
  4 30  1  0
 14 31  1  0
 15 32  1  0
 16 33  1  0
 18 34  1  0
 19 35  1  0
 19 36  1  0
 21 37  1  0
 22 38  1  0
 23 39  1  0
 24 40  1  0
 25 41  1  0
 26 42  1  0
M  CHG  2   3  -1  10  -1
M  END
>  <meeko>  (9) 
{"is_sidechain": [false], "free_energy": -7.056, "intermolecular_energy": -10.202, "internal_energy": -1.313}

$$$$
