1q8t_ligand
     RDKit          3D

 40 41  0  0  0  0  0  0  0  0999 V2000
    3.6480    9.5030    5.1410 C   0  0  0  0  0  0  0  0  0  0  0  0
    4.4660    9.2900    3.8660 C   0  0  1  0  0  0  0  0  0  0  0  0
    3.5600    9.6020    2.7190 N   0  0  0  0  0  0  0  0  0  0  0  0
    5.7410   10.1750    3.8030 C   0  0  2  0  0  0  0  0  0  0  0  0
    6.7470    9.7610    2.7050 C   0  0  0  0  0  0  0  0  0  0  0  0
    7.7170    8.6720    3.1600 C   0  0  0  0  0  0  0  0  0  0  0  0
    8.4970    9.0570    4.4290 C   0  0  1  0  0  0  0  0  0  0  0  0
   10.0040    9.1440    4.1750 C   0  0  0  0  0  0  0  0  0  0  0  0
   10.5250   10.2440    4.0240 O   0  0  0  0  0  0  0  0  0  0  0  0
   10.6530    7.9240    4.1640 N   0  0  0  0  0  0  0  0  0  0  0  0
   12.0360    7.6960    3.9730 C   0  0  0  0  0  0  0  0  0  0  0  0
   12.9420    7.4850    5.0070 C   0  0  0  0  0  0  0  0  0  0  0  0
   14.2730    7.2690    4.6860 C   0  0  0  0  0  0  0  0  0  0  0  0
   14.7490    7.2490    3.4230 N   0  0  0  0  0  0  0  0  0  0  0  0
   13.8570    7.4580    2.4370 C   0  0  0  0  0  0  0  0  0  0  0  0
   12.5060    7.6820    2.6590 C   0  0  0  0  0  0  0  0  0  0  0  0
    7.9470   10.3160    5.1110 C   0  0  0  0  0  0  0  0  0  0  0  0
    6.4250   10.2430    5.1910 C   0  0  0  0  0  0  0  0  0  0  0  0
    4.2884    9.3362    6.0197 H   0  0  0  0  0  0  0  0  0  0  0  0
    3.2600   10.5321    5.1601 H   0  0  0  0  0  0  0  0  0  0  0  0
    2.8074    8.7938    5.1601 H   0  0  0  0  0  0  0  0  0  0  0  0
    4.8281    8.2517    3.8372 H   0  0  0  0  0  0  0  0  0  0  0  0
    3.9290    9.2620    1.8220 H   0  0  0  0  0  0  0  0  0  0  0  0
    3.3870   10.6130    2.6280 H   0  0  0  0  0  0  0  0  0  0  0  0
    2.6420    9.1500    2.8370 H   0  0  0  0  0  0  0  0  0  0  0  0
    5.3971   11.1798    3.5165 H   0  0  0  0  0  0  0  0  0  0  0  0
    6.1837    9.3876    1.8370 H   0  0  0  0  0  0  0  0  0  0  0  0
    7.3453   10.6500    2.4566 H   0  0  0  0  0  0  0  0  0  0  0  0
    7.1446    7.7552    3.3645 H   0  0  0  0  0  0  0  0  0  0  0  0
    8.4505    8.5253    2.3535 H   0  0  0  0  0  0  0  0  0  0  0  0
    8.3413    8.2357    5.1439 H   0  0  0  0  0  0  0  0  0  0  0  0
   10.0920    7.0940    4.2910 H   0  0  0  0  0  0  0  0  0  0  0  0
   12.6098    7.4894    6.0556 H   0  0  0  0  0  0  0  0  0  0  0  0
   14.9836    7.1041    5.5093 H   0  0  0  0  0  0  0  0  0  0  0  0
   14.2190    7.4508    1.3983 H   0  0  0  0  0  0  0  0  0  0  0  0
   11.8187    7.8454    1.8158 H   0  0  0  0  0  0  0  0  0  0  0  0
    8.3621   10.3909    6.1269 H   0  0  0  0  0  0  0  0  0  0  0  0
    8.2359   11.2003    4.5240 H   0  0  0  0  0  0  0  0  0  0  0  0
    6.1481    9.3439    5.7611 H   0  0  0  0  0  0  0  0  0  0  0  0
    6.0798   11.1662    5.6794 H   0  0  0  0  0  0  0  0  0  0  0  0
  1  2  1  0
  2  3  1  0
  2  4  1  0
  4  5  1  0
  5  6  1  0
  6  7  1  0
  7  8  1  0
  8  9  2  0
  8 10  1  0
 10 11  1  0
 11 12  2  0
 12 13  1  0
 13 14  2  0
 14 15  1  0
 15 16  2  0
  7 17  1  0
 17 18  1  0
 18  4  1  0
 16 11  1  0
  1 19  1  0
  1 20  1  0
  1 21  1  0
  2 22  1  6
  3 23  1  0
  3 24  1  0
  3 25  1  0
  4 26  1  1
  5 27  1  0
  5 28  1  0
  6 29  1  0
  6 30  1  0
  7 31  1  6
 10 32  1  0
 12 33  1  0
 13 34  1  0
 15 35  1  0
 16 36  1  0
 17 37  1  0
 17 38  1  0
 18 39  1  0
 18 40  1  0
M  CHG  1   3   1
M  END
>  <meeko>  (1) 
{"is_sidechain": [false], "free_energy": -8.06, "intermolecular_energy": -9.709, "internal_energy": -0.441}

$$$$
1q8t_ligand
     RDKit          3D

 40 41  0  0  0  0  0  0  0  0999 V2000
   14.3450    7.9590    4.3670 C   0  0  0  0  0  0  0  0  0  0  0  0
   13.1140    7.9300    3.4600 C   0  0  1  0  0  0  0  0  0  0  0  0
   12.9700    6.5220    2.9790 N   0  0  0  0  0  0  0  0  0  0  0  0
   11.8150    8.3910    4.1780 C   0  0  2  0  0  0  0  0  0  0  0  0
   10.5560    7.5820    3.7920 C   0  0  0  0  0  0  0  0  0  0  0  0
    9.8640    8.1100    2.5390 C   0  0  0  0  0  0  0  0  0  0  0  0
    9.4850    9.5980    2.6460 C   0  0  1  0  0  0  0  0  0  0  0  0
    7.9700    9.8130    2.5760 C   0  0  0  0  0  0  0  0  0  0  0  0
    7.4820   10.3210    1.5720 O   0  0  0  0  0  0  0  0  0  0  0  0
    7.2790    9.3740    3.6890 N   0  0  0  0  0  0  0  0  0  0  0  0
    5.8800    9.4250    3.8980 C   0  0  0  0  0  0  0  0  0  0  0  0
    4.9360    9.0180    2.9610 C   0  0  0  0  0  0  0  0  0  0  0  0
    3.5930    9.1150    3.2920 C   0  0  0  0  0  0  0  0  0  0  0  0
    3.1410    9.5820    4.4740 N   0  0  0  0  0  0  0  0  0  0  0  0
    4.0700    9.9730    5.3660 C   0  0  0  0  0  0  0  0  0  0  0  0
    5.4350    9.9140    5.1280 C   0  0  0  0  0  0  0  0  0  0  0  0
   10.1160   10.2900    3.8600 C   0  0  0  0  0  0  0  0  0  0  0  0
   11.5890    9.9090    3.9710 C   0  0  0  0  0  0  0  0  0  0  0  0
   14.0252    7.9515    5.4195 H   0  0  0  0  0  0  0  0  0  0  0  0
   14.9687    7.0753    4.1670 H   0  0  0  0  0  0  0  0  0  0  0  0
   14.9264    8.8711    4.1670 H   0  0  0  0  0  0  0  0  0  0  0  0
   13.2579    8.6383    2.6308 H   0  0  0  0  0  0  0  0  0  0  0  0
   13.1860    6.4240    1.9800 H   0  0  0  0  0  0  0  0  0  0  0  0
   12.0200    6.1560    3.1360 H   0  0  0  0  0  0  0  0  0  0  0  0
   13.6190    5.8930    3.4720 H   0  0  0  0  0  0  0  0  0  0  0  0
   11.9728    8.1884    5.2476 H   0  0  0  0  0  0  0  0  0  0  0  0
   10.8522    6.5377    3.6142 H   0  0  0  0  0  0  0  0  0  0  0  0
    9.8413    7.6725    4.6233 H   0  0  0  0  0  0  0  0  0  0  0  0
   10.5424    7.9813    1.6827 H   0  0  0  0  0  0  0  0  0  0  0  0
    8.9317    7.5402    2.4119 H   0  0  0  0  0  0  0  0  0  0  0  0
    9.9180   10.0882    1.7616 H   0  0  0  0  0  0  0  0  0  0  0  0
    7.8150    8.9860    4.4500 H   0  0  0  0  0  0  0  0  0  0  0  0
    5.2475    8.6284    1.9806 H   0  0  0  0  0  0  0  0  0  0  0  0
    2.8519    8.7918    2.5461 H   0  0  0  0  0  0  0  0  0  0  0  0
    3.7278   10.3606    6.3369 H   0  0  0  0  0  0  0  0  0  0  0  0
    6.1527   10.2457    5.8928 H   0  0  0  0  0  0  0  0  0  0  0  0
   10.0296   11.3804    3.7433 H   0  0  0  0  0  0  0  0  0  0  0  0
    9.5906    9.9694    4.7717 H   0  0  0  0  0  0  0  0  0  0  0  0
   12.0995   10.2151    3.0460 H   0  0  0  0  0  0  0  0  0  0  0  0
   11.9925   10.4222    4.8563 H   0  0  0  0  0  0  0  0  0  0  0  0
  1  2  1  0
  2  3  1  0
  2  4  1  0
  4  5  1  0
  5  6  1  0
  6  7  1  0
  7  8  1  0
  8  9  2  0
  8 10  1  0
 10 11  1  0
 11 12  2  0
 12 13  1  0
 13 14  2  0
 14 15  1  0
 15 16  2  0
  7 17  1  0
 17 18  1  0
 18  4  1  0
 16 11  1  0
  1 19  1  0
  1 20  1  0
  1 21  1  0
  2 22  1  6
  3 23  1  0
  3 24  1  0
  3 25  1  0
  4 26  1  6
  5 27  1  0
  5 28  1  0
  6 29  1  0
  6 30  1  0
  7 31  1  1
 10 32  1  0
 12 33  1  0
 13 34  1  0
 15 35  1  0
 16 36  1  0
 17 37  1  0
 17 38  1  0
 18 39  1  0
 18 40  1  0
M  CHG  1   3   1
M  END
>  <meeko>  (2) 
{"is_sidechain": [false], "free_energy": -7.934, "intermolecular_energy": -9.731, "internal_energy": -0.268}

$$$$
1q8t_ligand
     RDKit          3D

 40 41  0  0  0  0  0  0  0  0999 V2000
   13.1390   10.7560    0.8490 C   0  0  0  0  0  0  0  0  0  0  0  0
   13.4150    9.4560    1.6050 C   0  0  1  0  0  0  0  0  0  0  0  0
   14.8820    9.4310    1.8910 N   0  0  0  0  0  0  0  0  0  0  0  0
   12.6050    9.3330    2.9260 C   0  0  2  0  0  0  0  0  0  0  0  0
   11.6720    8.1030    2.9840 C   0  0  0  0  0  0  0  0  0  0  0  0
   10.3040    8.3570    2.3540 C   0  0  0  0  0  0  0  0  0  0  0  0
    9.5760    9.5640    2.9700 C   0  0  1  0  0  0  0  0  0  0  0  0
    8.2690    9.1590    3.6570 C   0  0  0  0  0  0  0  0  0  0  0  0
    8.2840    8.2660    4.4980 O   0  0  0  0  0  0  0  0  0  0  0  0
    7.1640    9.8860    3.2580 N   0  0  0  0  0  0  0  0  0  0  0  0
    5.8370    9.7490    3.7290 C   0  0  0  0  0  0  0  0  0  0  0  0
    5.4160   10.1350    4.9970 C   0  0  0  0  0  0  0  0  0  0  0  0
    4.0840    9.9500    5.3360 C   0  0  0  0  0  0  0  0  0  0  0  0
    3.1630    9.4160    4.5060 N   0  0  0  0  0  0  0  0  0  0  0  0
    3.5920    9.0470    3.2850 C   0  0  0  0  0  0  0  0  0  0  0  0
    4.9020    9.1920    2.8540 C   0  0  0  0  0  0  0  0  0  0  0  0
   10.4770   10.4050    3.8820 C   0  0  0  0  0  0  0  0  0  0  0  0
   11.8260   10.6400    3.2090 C   0  0  0  0  0  0  0  0  0  0  0  0
   12.9663   11.5694    1.5691 H   0  0  0  0  0  0  0  0  0  0  0  0
   14.0046   11.0035    0.2170 H   0  0  0  0  0  0  0  0  0  0  0  0
   12.2475   10.6304    0.2170 H   0  0  0  0  0  0  0  0  0  0  0  0
   13.0986    8.6029    0.9868 H   0  0  0  0  0  0  0  0  0  0  0  0
   15.4410    9.2040    1.0590 H   0  0  0  0  0  0  0  0  0  0  0  0
   15.1200    8.7520    2.6280 H   0  0  0  0  0  0  0  0  0  0  0  0
   15.2130   10.3510    2.2120 H   0  0  0  0  0  0  0  0  0  0  0  0
   13.3466    9.1717    3.7223 H   0  0  0  0  0  0  0  0  0  0  0  0
   12.1548    7.2721    2.4488 H   0  0  0  0  0  0  0  0  0  0  0  0
   11.5052    7.8683    4.0456 H   0  0  0  0  0  0  0  0  0  0  0  0
   10.4418    8.5417    1.2784 H   0  0  0  0  0  0  0  0  0  0  0  0
    9.6844    7.4674    2.5405 H   0  0  0  0  0  0  0  0  0  0  0  0
    9.3049   10.2189    2.1288 H   0  0  0  0  0  0  0  0  0  0  0  0
    7.2970   10.5860    2.5430 H   0  0  0  0  0  0  0  0  0  0  0  0
    6.1231   10.5768    5.7145 H   0  0  0  0  0  0  0  0  0  0  0  0
    3.7586   10.2567    6.3410 H   0  0  0  0  0  0  0  0  0  0  0  0
    2.8626    8.6056    2.5899 H   0  0  0  0  0  0  0  0  0  0  0  0
    5.1986    8.8747    1.8434 H   0  0  0  0  0  0  0  0  0  0  0  0
    9.9941   11.3736    4.0784 H   0  0  0  0  0  0  0  0  0  0  0  0
   10.6344    9.8681    4.8291 H   0  0  0  0  0  0  0  0  0  0  0  0
   11.6541   11.1578    2.2538 H   0  0  0  0  0  0  0  0  0  0  0  0
   12.4355   11.2391    3.9015 H   0  0  0  0  0  0  0  0  0  0  0  0
  1  2  1  0
  2  3  1  0
  2  4  1  0
  4  5  1  0
  5  6  1  0
  6  7  1  0
  7  8  1  0
  8  9  2  0
  8 10  1  0
 10 11  1  0
 11 12  2  0
 12 13  1  0
 13 14  2  0
 14 15  1  0
 15 16  2  0
  7 17  1  0
 17 18  1  0
 18  4  1  0
 16 11  1  0
  1 19  1  0
  1 20  1  0
  1 21  1  0
  2 22  1  6
  3 23  1  0
  3 24  1  0
  3 25  1  0
  4 26  1  6
  5 27  1  0
  5 28  1  0
  6 29  1  0
  6 30  1  0
  7 31  1  1
 10 32  1  0
 12 33  1  0
 13 34  1  0
 15 35  1  0
 16 36  1  0
 17 37  1  0
 17 38  1  0
 18 39  1  0
 18 40  1  0
M  CHG  1   3   1
M  END
>  <meeko>  (3) 
{"is_sidechain": [false], "free_energy": -7.835, "intermolecular_energy": -9.376, "internal_energy": -0.504}

$$$$
1q8t_ligand
     RDKit          3D

 40 41  0  0  0  0  0  0  0  0999 V2000
    3.5670    9.2190    4.9140 C   0  0  0  0  0  0  0  0  0  0  0  0
    4.2860    9.2190    3.5640 C   0  0  1  0  0  0  0  0  0  0  0  0
    3.2790    9.6370    2.5430 N   0  0  0  0  0  0  0  0  0  0  0  0
    5.5170   10.1670    3.5280 C   0  0  2  0  0  0  0  0  0  0  0  0
    6.5830    9.7810    2.4780 C   0  0  0  0  0  0  0  0  0  0  0  0
    7.5880    8.7530    2.9930 C   0  0  0  0  0  0  0  0  0  0  0  0
    8.2990    9.2030    4.2810 C   0  0  1  0  0  0  0  0  0  0  0  0
    9.8090    9.3610    4.0810 C   0  0  0  0  0  0  0  0  0  0  0  0
   10.4810    9.8810    4.9650 O   0  0  0  0  0  0  0  0  0  0  0  0
   10.2820    8.8610    2.8820 N   0  0  0  0  0  0  0  0  0  0  0  0
   11.6230    8.8500    2.4330 C   0  0  0  0  0  0  0  0  0  0  0  0
   12.5270    7.8270    2.7000 C   0  0  0  0  0  0  0  0  0  0  0  0
   13.8150    7.9350    2.1980 C   0  0  0  0  0  0  0  0  0  0  0  0
   14.2500    8.9780    1.4600 N   0  0  0  0  0  0  0  0  0  0  0  0
   13.3610    9.9580    1.2150 C   0  0  0  0  0  0  0  0  0  0  0  0
   12.0520    9.9400    1.6740 C   0  0  0  0  0  0  0  0  0  0  0  0
    7.6620   10.4460    4.9130 C   0  0  0  0  0  0  0  0  0  0  0  0
    6.1440   10.2980    4.9380 C   0  0  0  0  0  0  0  0  0  0  0  0
    3.3946    8.1819    5.2376 H   0  0  0  0  0  0  0  0  0  0  0  0
    4.1874    9.7375    5.6598 H   0  0  0  0  0  0  0  0  0  0  0  0
    2.6019    9.7375    4.8154 H   0  0  0  0  0  0  0  0  0  0  0  0
    4.6841    8.2130    3.3651 H   0  0  0  0  0  0  0  0  0  0  0  0
    3.1230   10.6530    2.5370 H   0  0  0  0  0  0  0  0  0  0  0  0
    2.3690    9.1770    2.6860 H   0  0  0  0  0  0  0  0  0  0  0  0
    3.5910    9.3950    1.5910 H   0  0  0  0  0  0  0  0  0  0  0  0
    5.1344   11.1470    3.2067 H   0  0  0  0  0  0  0  0  0  0  0  0
    6.0722    9.3610    1.5989 H   0  0  0  0  0  0  0  0  0  0  0  0
    7.1453   10.6937    2.2314 H   0  0  0  0  0  0  0  0  0  0  0  0
    7.0549    7.8127    3.1967 H   0  0  0  0  0  0  0  0  0  0  0  0
    8.3582    8.6276    2.2177 H   0  0  0  0  0  0  0  0  0  0  0  0
    8.1571    8.3897    5.0080 H   0  0  0  0  0  0  0  0  0  0  0  0
    9.6090    8.4690    2.2400 H   0  0  0  0  0  0  0  0  0  0  0  0
   12.2269    6.9524    3.2958 H   0  0  0  0  0  0  0  0  0  0  0  0
   14.5243    7.1225    2.4140 H   0  0  0  0  0  0  0  0  0  0  0  0
   13.6904   10.8210    0.6178 H   0  0  0  0  0  0  0  0  0  0  0  0
   11.3657   10.7684    1.4443 H   0  0  0  0  0  0  0  0  0  0  0  0
    8.0337   10.5629    5.9417 H   0  0  0  0  0  0  0  0  0  0  0  0
    7.9290   11.3314    4.3173 H   0  0  0  0  0  0  0  0  0  0  0  0
    5.8906    9.3980    5.5176 H   0  0  0  0  0  0  0  0  0  0  0  0
    5.7353   11.2128    5.3921 H   0  0  0  0  0  0  0  0  0  0  0  0
  1  2  1  0
  2  3  1  0
  2  4  1  0
  4  5  1  0
  5  6  1  0
  6  7  1  0
  7  8  1  0
  8  9  2  0
  8 10  1  0
 10 11  1  0
 11 12  2  0
 12 13  1  0
 13 14  2  0
 14 15  1  0
 15 16  2  0
  7 17  1  0
 17 18  1  0
 18  4  1  0
 16 11  1  0
  1 19  1  0
  1 20  1  0
  1 21  1  0
  2 22  1  6
  3 23  1  0
  3 24  1  0
  3 25  1  0
  4 26  1  1
  5 27  1  0
  5 28  1  0
  6 29  1  0
  6 30  1  0
  7 31  1  6
 10 32  1  0
 12 33  1  0
 13 34  1  0
 15 35  1  0
 16 36  1  0
 17 37  1  0
 17 38  1  0
 18 39  1  0
 18 40  1  0
M  CHG  1   3   1
M  END
>  <meeko>  (4) 
{"is_sidechain": [false], "free_energy": -7.651, "intermolecular_energy": -9.139, "internal_energy": -0.518}

$$$$
1q8t_ligand
     RDKit          3D

 40 41  0  0  0  0  0  0  0  0999 V2000
    4.1030    9.5250    3.6750 C   0  0  0  0  0  0  0  0  0  0  0  0
    5.4470   10.0550    4.1790 C   0  0  1  0  0  0  0  0  0  0  0  0
    5.3070   10.2400    5.6560 N   0  0  0  0  0  0  0  0  0  0  0  0
    6.6350    9.1040    3.8650 C   0  0  2  0  0  0  0  0  0  0  0  0
    7.6910    9.0150    4.9900 C   0  0  0  0  0  0  0  0  0  0  0  0
    8.7510   10.1110    4.9060 C   0  0  0  0  0  0  0  0  0  0  0  0
    9.4730   10.1430    3.5480 C   0  0  1  0  0  0  0  0  0  0  0  0
   10.9690    9.8480    3.6840 C   0  0  0  0  0  0  0  0  0  0  0  0
   11.7530   10.7780    3.8410 O   0  0  0  0  0  0  0  0  0  0  0  0
   11.2930    8.5050    3.6350 N   0  0  0  0  0  0  0  0  0  0  0  0
   12.5830    7.9350    3.7510 C   0  0  0  0  0  0  0  0  0  0  0  0
   13.2330    7.7160    4.9610 C   0  0  0  0  0  0  0  0  0  0  0  0
   14.4960    7.1450    4.9390 C   0  0  0  0  0  0  0  0  0  0  0  0
   15.1390    6.7840    3.8080 N   0  0  0  0  0  0  0  0  0  0  0  0
   14.4940    7.0070    2.6480 C   0  0  0  0  0  0  0  0  0  0  0  0
   13.2300    7.5720    2.5680 C   0  0  0  0  0  0  0  0  0  0  0  0
    8.7990    9.2610    2.4900 C   0  0  0  0  0  0  0  0  0  0  0  0
    7.2890    9.4810    2.5130 C   0  0  0  0  0  0  0  0  0  0  0  0
    3.4631    9.2727    4.5334 H   0  0  0  0  0  0  0  0  0  0  0  0
    3.6103   10.2962    3.0646 H   0  0  0  0  0  0  0  0  0  0  0  0
    4.2693    8.6251    3.0646 H   0  0  0  0  0  0  0  0  0  0  0  0
    5.6813   10.9980    3.6634 H   0  0  0  0  0  0  0  0  0  0  0  0
    4.3380   10.4350    5.9380 H   0  0  0  0  0  0  0  0  0  0  0  0
    5.9000   11.0050    6.0070 H   0  0  0  0  0  0  0  0  0  0  0  0
    5.5830    9.3880    6.1650 H   0  0  0  0  0  0  0  0  0  0  0  0
    6.2036    8.0947    3.7931 H   0  0  0  0  0  0  0  0  0  0  0  0
    7.1776    9.0984    5.9592 H   0  0  0  0  0  0  0  0  0  0  0  0
    8.2077    8.0503    4.8787 H   0  0  0  0  0  0  0  0  0  0  0  0
    8.2635   11.0838    5.0673 H   0  0  0  0  0  0  0  0  0  0  0  0
    9.5067    9.8989    5.6766 H   0  0  0  0  0  0  0  0  0  0  0  0
    9.3835   11.1755    3.1792 H   0  0  0  0  0  0  0  0  0  0  0  0
   10.5430    7.8470    3.4880 H   0  0  0  0  0  0  0  0  0  0  0  0
   12.7558    7.9896    5.9136 H   0  0  0  0  0  0  0  0  0  0  0  0
   15.0044    6.9760    5.8997 H   0  0  0  0  0  0  0  0  0  0  0  0
   14.9974    6.7255    1.7113 H   0  0  0  0  0  0  0  0  0  0  0  0
   12.7470    7.7309    1.5926 H   0  0  0  0  0  0  0  0  0  0  0  0
    9.1901    9.5216    1.4954 H   0  0  0  0  0  0  0  0  0  0  0  0
    9.0137    8.2048    2.7100 H   0  0  0  0  0  0  0  0  0  0  0  0
    7.0880   10.5437    2.3124 H   0  0  0  0  0  0  0  0  0  0  0  0
    6.8526    8.8243    1.7460 H   0  0  0  0  0  0  0  0  0  0  0  0
  1  2  1  0
  2  3  1  0
  2  4  1  0
  4  5  1  0
  5  6  1  0
  6  7  1  0
  7  8  1  0
  8  9  2  0
  8 10  1  0
 10 11  1  0
 11 12  2  0
 12 13  1  0
 13 14  2  0
 14 15  1  0
 15 16  2  0
  7 17  1  0
 17 18  1  0
 18  4  1  0
 16 11  1  0
  1 19  1  0
  1 20  1  0
  1 21  1  0
  2 22  1  6
  3 23  1  0
  3 24  1  0
  3 25  1  0
  4 26  1  1
  5 27  1  0
  5 28  1  0
  6 29  1  0
  6 30  1  0
  7 31  1  1
 10 32  1  0
 12 33  1  0
 13 34  1  0
 15 35  1  0
 16 36  1  0
 17 37  1  0
 17 38  1  0
 18 39  1  0
 18 40  1  0
M  CHG  1   3   1
M  END
>  <meeko>  (5) 
{"is_sidechain": [false], "free_energy": -7.244, "intermolecular_energy": -8.71, "internal_energy": -0.458}

$$$$
1q8t_ligand
     RDKit          3D

 40 41  0  0  0  0  0  0  0  0999 V2000
    4.4370    9.0100    3.7400 C   0  0  0  0  0  0  0  0  0  0  0  0
    5.4600    8.9830    2.6040 C   0  0  1  0  0  0  0  0  0  0  0  0
    4.7020    9.2280    1.3400 N   0  0  0  0  0  0  0  0  0  0  0  0
    6.5880   10.0400    2.7710 C   0  0  2  0  0  0  0  0  0  0  0  0
    7.3330   10.3830    1.4620 C   0  0  0  0  0  0  0  0  0  0  0  0
    8.4870    9.4300    1.1600 C   0  0  0  0  0  0  0  0  0  0  0  0
    9.5100    9.3460    2.3070 C   0  0  1  0  0  0  0  0  0  0  0  0
   10.8940    9.8440    1.8820 C   0  0  0  0  0  0  0  0  0  0  0  0
   11.8930    9.3440    2.3880 O   0  0  0  0  0  0  0  0  0  0  0  0
   10.8740   10.8320    0.9160 N   0  0  0  0  0  0  0  0  0  0  0  0
   11.9910   11.4660    0.3220 C   0  0  0  0  0  0  0  0  0  0  0  0
   12.3050   12.8110    0.4890 C   0  0  0  0  0  0  0  0  0  0  0  0
   13.4310   13.3110   -0.1460 C   0  0  0  0  0  0  0  0  0  0  0  0
   14.2500   12.5680   -0.9210 N   0  0  0  0  0  0  0  0  0  0  0  0
   13.9260   11.2700   -1.0720 C   0  0  0  0  0  0  0  0  0  0  0  0
   12.8210   10.6800   -0.4780 C   0  0  0  0  0  0  0  0  0  0  0  0
    9.0200   10.0160    3.5960 C   0  0  0  0  0  0  0  0  0  0  0  0
    7.5770    9.6070    3.8810 C   0  0  0  0  0  0  0  0  0  0  0  0
    4.9619    8.9961    4.7066 H   0  0  0  0  0  0  0  0  0  0  0  0
    3.8302    9.9245    3.6654 H   0  0  0  0  0  0  0  0  0  0  0  0
    3.7828    8.1288    3.6654 H   0  0  0  0  0  0  0  0  0  0  0  0
    5.9701    8.0085    2.5990 H   0  0  0  0  0  0  0  0  0  0  0  0
    5.1610    9.9210    0.7340 H   0  0  0  0  0  0  0  0  0  0  0  0
    3.7420    9.5530    1.5220 H   0  0  0  0  0  0  0  0  0  0  0  0
    4.6270    8.3680    0.7780 H   0  0  0  0  0  0  0  0  0  0  0  0
    6.0879   10.9724    3.0719 H   0  0  0  0  0  0  0  0  0  0  0  0
    6.6156   10.3384    0.6293 H   0  0  0  0  0  0  0  0  0  0  0  0
    7.7623   11.3884    1.5837 H   0  0  0  0  0  0  0  0  0  0  0  0
    8.0754    8.4255    0.9825 H   0  0  0  0  0  0  0  0  0  0  0  0
    9.0135    9.8187    0.2758 H   0  0  0  0  0  0  0  0  0  0  0  0
    9.6150    8.2772    2.5451 H   0  0  0  0  0  0  0  0  0  0  0  0
    9.9730   11.1580    0.5980 H   0  0  0  0  0  0  0  0  0  0  0  0
   11.6739   13.4629    1.1109 H   0  0  0  0  0  0  0  0  0  0  0  0
   13.6716   14.3758   -0.0107 H   0  0  0  0  0  0  0  0  0  0  0  0
   14.5741   10.6427   -1.7017 H   0  0  0  0  0  0  0  0  0  0  0  0
   12.6029    9.6132   -0.6343 H   0  0  0  0  0  0  0  0  0  0  0  0
    9.6596    9.7037    4.4347 H   0  0  0  0  0  0  0  0  0  0  0  0
    9.0688   11.1084    3.4763 H   0  0  0  0  0  0  0  0  0  0  0  0
    7.5368    8.5119    3.9770 H   0  0  0  0  0  0  0  0  0  0  0  0
    7.2707   10.1153    4.8072 H   0  0  0  0  0  0  0  0  0  0  0  0
  1  2  1  0
  2  3  1  0
  2  4  1  0
  4  5  1  0
  5  6  1  0
  6  7  1  0
  7  8  1  0
  8  9  2  0
  8 10  1  0
 10 11  1  0
 11 12  2  0
 12 13  1  0
 13 14  2  0
 14 15  1  0
 15 16  2  0
  7 17  1  0
 17 18  1  0
 18  4  1  0
 16 11  1  0
  1 19  1  0
  1 20  1  0
  1 21  1  0
  2 22  1  6
  3 23  1  0
  3 24  1  0
  3 25  1  0
  4 26  1  6
  5 27  1  0
  5 28  1  0
  6 29  1  0
  6 30  1  0
  7 31  1  6
 10 32  1  0
 12 33  1  0
 13 34  1  0
 15 35  1  0
 16 36  1  0
 17 37  1  0
 17 38  1  0
 18 39  1  0
 18 40  1  0
M  CHG  1   3   1
M  END
>  <meeko>  (6) 
{"is_sidechain": [false], "free_energy": -6.056, "intermolecular_energy": -7.357, "internal_energy": -0.379}

$$$$
1q8t_ligand
     RDKit          3D

 40 41  0  0  0  0  0  0  0  0999 V2000
   14.1480    7.2920    2.0770 C   0  0  0  0  0  0  0  0  0  0  0  0
   14.1350    7.6870    3.5540 C   0  0  1  0  0  0  0  0  0  0  0  0
   15.1890    8.7330    3.7250 N   0  0  0  0  0  0  0  0  0  0  0  0
   12.7580    8.2260    4.0310 C   0  0  2  0  0  0  0  0  0  0  0  0
   11.5680    7.2940    3.7100 C   0  0  0  0  0  0  0  0  0  0  0  0
   10.9930    7.5140    2.3120 C   0  0  0  0  0  0  0  0  0  0  0  0
   10.5650    8.9710    2.0630 C   0  0  1  0  0  0  0  0  0  0  0  0
    9.0610    9.0940    1.8060 C   0  0  0  0  0  0  0  0  0  0  0  0
    8.6310    8.9380    0.6680 O   0  0  0  0  0  0  0  0  0  0  0  0
    8.3080    9.3580    2.9340 N   0  0  0  0  0  0  0  0  0  0  0  0
    6.9030    9.5050    3.0060 C   0  0  0  0  0  0  0  0  0  0  0  0
    6.1470    9.2300    4.1410 C   0  0  0  0  0  0  0  0  0  0  0  0
    4.7750    9.4190    4.0830 C   0  0  0  0  0  0  0  0  0  0  0  0
    4.1210    9.8570    2.9870 N   0  0  0  0  0  0  0  0  0  0  0  0
    4.8700   10.1150    1.8990 C   0  0  0  0  0  0  0  0  0  0  0  0
    6.2480    9.9570    1.8600 C   0  0  0  0  0  0  0  0  0  0  0  0
   11.0500    9.9330    3.1550 C   0  0  0  0  0  0  0  0  0  0  0  0
   12.5140    9.6540    3.4830 C   0  0  0  0  0  0  0  0  0  0  0  0
   14.1841    6.1960    1.9909 H   0  0  0  0  0  0  0  0  0  0  0  0
   13.2370    7.6684    1.5888 H   0  0  0  0  0  0  0  0  0  0  0  0
   15.0323    7.7275    1.5888 H   0  0  0  0  0  0  0  0  0  0  0  0
   14.3300    6.7963    4.1693 H   0  0  0  0  0  0  0  0  0  0  0  0
   16.0260    8.3740    4.2030 H   0  0  0  0  0  0  0  0  0  0  0  0
   14.8450    9.5450    4.2570 H   0  0  0  0  0  0  0  0  0  0  0  0
   15.5140    9.0860    2.8140 H   0  0  0  0  0  0  0  0  0  0  0  0
   12.8104    8.2615    5.1292 H   0  0  0  0  0  0  0  0  0  0  0  0
   11.9095    6.2512    3.7877 H   0  0  0  0  0  0  0  0  0  0  0  0
   10.7698    7.5216    4.4319 H   0  0  0  0  0  0  0  0  0  0  0  0
   11.7587    7.2415    1.5707 H   0  0  0  0  0  0  0  0  0  0  0  0
   10.0944    6.8860    2.2221 H   0  0  0  0  0  0  0  0  0  0  0  0
   11.0732    9.2843    1.1391 H   0  0  0  0  0  0  0  0  0  0  0  0
    8.7990    9.4750    3.8080 H   0  0  0  0  0  0  0  0  0  0  0  0
    6.6270    8.8708    5.0633 H   0  0  0  0  0  0  0  0  0  0  0  0
    4.1841    9.1988    4.9843 H   0  0  0  0  0  0  0  0  0  0  0  0
    4.3618   10.4707    0.9906 H   0  0  0  0  0  0  0  0  0  0  0  0
    6.8128   10.1836    0.9437 H   0  0  0  0  0  0  0  0  0  0  0  0
   10.9472   10.9690    2.7998 H   0  0  0  0  0  0  0  0  0  0  0  0
   10.4428    9.7873    4.0606 H   0  0  0  0  0  0  0  0  0  0  0  0
   13.1078    9.7822    2.5659 H   0  0  0  0  0  0  0  0  0  0  0  0
   12.8114   10.3607    4.2717 H   0  0  0  0  0  0  0  0  0  0  0  0
  1  2  1  0
  2  3  1  0
  2  4  1  0
  4  5  1  0
  5  6  1  0
  6  7  1  0
  7  8  1  0
  8  9  2  0
  8 10  1  0
 10 11  1  0
 11 12  2  0
 12 13  1  0
 13 14  2  0
 14 15  1  0
 15 16  2  0
  7 17  1  0
 17 18  1  0
 18  4  1  0
 16 11  1  0
  1 19  1  0
  1 20  1  0
  1 21  1  0
  2 22  1  1
  3 23  1  0
  3 24  1  0
  3 25  1  0
  4 26  1  6
  5 27  1  0
  5 28  1  0
  6 29  1  0
  6 30  1  0
  7 31  1  1
 10 32  1  0
 12 33  1  0
 13 34  1  0
 15 35  1  0
 16 36  1  0
 17 37  1  0
 17 38  1  0
 18 39  1  0
 18 40  1  0
M  CHG  1   3   1
M  END
>  <meeko>  (7) 
{"is_sidechain": [false], "free_energy": -5.71, "intermolecular_energy": -7.579, "internal_energy": 0.259}

$$$$
1q8t_ligand
     RDKit          3D

 40 41  0  0  0  0  0  0  0  0999 V2000
   15.1140    9.0110    5.7820 C   0  0  0  0  0  0  0  0  0  0  0  0
   15.1900    8.3060    4.4270 C   0  0  1  0  0  0  0  0  0  0  0  0
   15.0750    6.8410    4.7000 N   0  0  0  0  0  0  0  0  0  0  0  0
   14.0790    8.7600    3.4400 C   0  0  2  0  0  0  0  0  0  0  0  0
   12.8460    9.3960    4.1210 C   0  0  0  0  0  0  0  0  0  0  0  0
   11.8100    8.3660    4.5670 C   0  0  0  0  0  0  0  0  0  0  0  0
   11.3320    7.4620    3.4180 C   0  0  1  0  0  0  0  0  0  0  0  0
    9.8360    7.6300    3.1360 C   0  0  0  0  0  0  0  0  0  0  0  0
    9.2000    6.6830    2.6860 O   0  0  0  0  0  0  0  0  0  0  0  0
    9.3330    8.8780    3.4510 N   0  0  0  0  0  0  0  0  0  0  0  0
    7.9940    9.3150    3.3170 C   0  0  0  0  0  0  0  0  0  0  0  0
    7.3980    9.6440    2.1040 C   0  0  0  0  0  0  0  0  0  0  0  0
    6.0750   10.0570    2.1080 C   0  0  0  0  0  0  0  0  0  0  0  0
    5.3210   10.1590    3.2230 N   0  0  0  0  0  0  0  0  0  0  0  0
    5.9170    9.8390    4.3870 C   0  0  0  0  0  0  0  0  0  0  0  0
    7.2340    9.4160    4.4840 C   0  0  0  0  0  0  0  0  0  0  0  0
   12.1830    7.6040    2.1500 C   0  0  0  0  0  0  0  0  0  0  0  0
   13.6650    7.5910    2.5130 C   0  0  0  0  0  0  0  0  0  0  0  0
   15.1943    8.2664    6.5877 H   0  0  0  0  0  0  0  0  0  0  0  0
   15.9395    9.7331    5.8664 H   0  0  0  0  0  0  0  0  0  0  0  0
   14.1536    9.5406    5.8664 H   0  0  0  0  0  0  0  0  0  0  0  0
   16.1409    8.5625    3.9372 H   0  0  0  0  0  0  0  0  0  0  0  0
   15.8300    6.4930    5.3040 H   0  0  0  0  0  0  0  0  0  0  0  0
   15.0810    6.2860    3.8330 H   0  0  0  0  0  0  0  0  0  0  0  0
   14.1960    6.6230    5.1910 H   0  0  0  0  0  0  0  0  0  0  0  0
   14.5226    9.5651    2.8358 H   0  0  0  0  0  0  0  0  0  0  0  0
   13.1846    9.9572    5.0044 H   0  0  0  0  0  0  0  0  0  0  0  0
   12.3618   10.0483    3.3794 H   0  0  0  0  0  0  0  0  0  0  0  0
   12.2573    7.7338    5.3482 H   0  0  0  0  0  0  0  0  0  0  0  0
   10.9343    8.9181    4.9389 H   0  0  0  0  0  0  0  0  0  0  0  0
   11.4775    6.4278    3.7634 H   0  0  0  0  0  0  0  0  0  0  0  0
    9.9780    9.5680    3.8040 H   0  0  0  0  0  0  0  0  0  0  0  0
    7.9638    9.5779    1.1630 H   0  0  0  0  0  0  0  0  0  0  0  0
    5.6117   10.3173    1.1449 H   0  0  0  0  0  0  0  0  0  0  0  0
    5.3268    9.9174    5.3119 H   0  0  0  0  0  0  0  0  0  0  0  0
    7.6716    9.1649    5.4615 H   0  0  0  0  0  0  0  0  0  0  0  0
   11.9669    6.7665    1.4704 H   0  0  0  0  0  0  0  0  0  0  0  0
   11.9401    8.5566    1.6565 H   0  0  0  0  0  0  0  0  0  0  0  0
   13.8910    6.6434    3.0239 H   0  0  0  0  0  0  0  0  0  0  0  0
   14.2308    7.7021    1.5762 H   0  0  0  0  0  0  0  0  0  0  0  0
  1  2  1  0
  2  3  1  0
  2  4  1  0
  4  5  1  0
  5  6  1  0
  6  7  1  0
  7  8  1  0
  8  9  2  0
  8 10  1  0
 10 11  1  0
 11 12  2  0
 12 13  1  0
 13 14  2  0
 14 15  1  0
 15 16  2  0
  7 17  1  0
 17 18  1  0
 18  4  1  0
 16 11  1  0
  1 19  1  0
  1 20  1  0
  1 21  1  0
  2 22  1  6
  3 23  1  0
  3 24  1  0
  3 25  1  0
  4 26  1  1
  5 27  1  0
  5 28  1  0
  6 29  1  0
  6 30  1  0
  7 31  1  6
 10 32  1  0
 12 33  1  0
 13 34  1  0
 15 35  1  0
 16 36  1  0
 17 37  1  0
 17 38  1  0
 18 39  1  0
 18 40  1  0
M  CHG  1   3   1
M  END
>  <meeko>  (8) 
{"is_sidechain": [false], "free_energy": -5.403, "intermolecular_energy": -6.409, "internal_energy": -0.541}

$$$$
