1bzc_ligand
     RDKit          3D

 43 44  0  0  0  0  0  0  0  0999 V2000
  -15.1510   52.4340   20.7560 N   0  0  0  0  0  0  0  0  0  0  0  0
  -15.5710   51.2300   20.2400 C   0  0  0  0  0  0  0  0  0  0  0  0
  -14.7310   50.5110   19.7050 O   0  0  0  0  0  0  0  0  0  0  0  0
  -17.0960   50.9610   20.3110 C   0  0  2  0  0  0  0  0  0  0  0  0
  -17.4840   49.4690   20.2970 C   0  0  0  0  0  0  0  0  0  0  0  0
  -18.6600   49.0390   21.1740 C   0  0  0  0  0  0  0  0  0  0  0  0
  -19.6820   50.0880   21.6120 C   0  0  0  0  0  0  0  0  0  0  0  0
  -19.6530   50.4170   22.8270 O   0  0  0  0  0  0  0  0  0  0  0  0
  -20.4280   50.4930   20.6760 O   0  0  0  0  0  0  0  0  0  0  0  0
  -17.8320   51.7040   19.3010 N   0  0  0  0  0  0  0  0  0  0  0  0
  -18.2020   53.0160   19.4920 C   0  0  0  0  0  0  0  0  0  0  0  0
  -17.9750   53.6060   20.5510 O   0  0  0  0  0  0  0  0  0  0  0  0
  -18.9350   53.7270   18.3950 C   0  0  0  0  0  0  0  0  0  0  0  0
  -19.8570   52.9810   17.6460 C   0  0  0  0  0  0  0  0  0  0  0  0
  -20.5460   53.5550   16.5730 C   0  0  0  0  0  0  0  0  0  0  0  0
  -20.3290   54.8930   16.2200 C   0  0  0  0  0  0  0  0  0  0  0  0
  -21.0070   55.4730   15.1300 C   0  0  0  0  0  0  0  0  0  0  0  0
  -20.7910   56.8070   14.7650 C   0  0  0  0  0  0  0  0  0  0  0  0
  -21.5100   57.4670   13.6040 C   0  0  0  0  0  0  0  0  0  0  0  0
  -22.3220   56.5980   12.9200 F   0  0  0  0  0  0  0  0  0  0  0  0
  -22.3230   58.5000   14.0030 F   0  0  0  0  0  0  0  0  0  0  0  0
  -20.4900   58.3150   12.1250 P   0  0  0  0  0  0  0  0  0  0  0  0
  -19.1800   58.7970   12.7680 O   0  0  0  0  0  0  0  0  0  0  0  0
  -21.3770   59.4740   11.6470 O   0  0  0  0  0  0  0  0  0  0  0  0
  -20.2840   57.2230   11.0640 O   0  0  0  0  0  0  0  0  0  0  0  0
  -19.8830   57.5630   15.5250 C   0  0  0  0  0  0  0  0  0  0  0  0
  -19.2010   56.9990   16.6090 C   0  0  0  0  0  0  0  0  0  0  0  0
  -19.4100   55.6600   16.9710 C   0  0  0  0  0  0  0  0  0  0  0  0
  -18.7190   55.0690   18.0530 C   0  0  0  0  0  0  0  0  0  0  0  0
  -15.6670   52.8330   21.5260 H   0  0  0  0  0  0  0  0  0  0  0  0
  -14.1430   52.5020   20.8070 H   0  0  0  0  0  0  0  0  0  0  0  0
  -17.3944   51.3352   21.3014 H   0  0  0  0  0  0  0  0  0  0  0  0
  -17.7319   49.2024   19.2590 H   0  0  0  0  0  0  0  0  0  0  0  0
  -16.6126   48.9481   20.7203 H   0  0  0  0  0  0  0  0  0  0  0  0
  -19.2103   48.2656   20.6182 H   0  0  0  0  0  0  0  0  0  0  0  0
  -18.1853   48.7249   22.1153 H   0  0  0  0  0  0  0  0  0  0  0  0
  -17.9260   51.2260   18.3960 H   0  0  0  0  0  0  0  0  0  0  0  0
  -20.0409   51.9283   17.9067 H   0  0  0  0  0  0  0  0  0  0  0  0
  -21.2650   52.9502   16.0009 H   0  0  0  0  0  0  0  0  0  0  0  0
  -21.7205   54.8654   14.5541 H   0  0  0  0  0  0  0  0  0  0  0  0
  -19.7050   58.6165   15.2635 H   0  0  0  0  0  0  0  0  0  0  0  0
  -18.4924   57.6131   17.1842 H   0  0  0  0  0  0  0  0  0  0  0  0
  -18.0032   55.6694   18.6336 H   0  0  0  0  0  0  0  0  0  0  0  0
  1  2  1  0
  2  3  2  0
  2  4  1  0
  4  5  1  0
  5  6  1  0
  6  7  1  0
  7  8  2  0
  7  9  1  0
  4 10  1  0
 10 11  1  0
 11 12  2  0
 11 13  1  0
 13 14  2  0
 14 15  1  0
 15 16  2  0
 16 17  1  0
 17 18  2  0
 18 19  1  0
 19 20  1  0
 19 21  1  0
 19 22  1  0
 22 23  2  0
 22 24  1  0
 22 25  1  0
 18 26  1  0
 26 27  2  0
 27 28  1  0
 28 29  2  0
 29 13  1  0
 28 16  1  0
  1 30  1  0
  1 31  1  0
  4 32  1  1
  5 33  1  0
  5 34  1  0
  6 35  1  0
  6 36  1  0
 10 37  1  0
 14 38  1  0
 15 39  1  0
 17 40  1  0
 26 41  1  0
 27 42  1  0
 29 43  1  0
M  CHG  3   9  -1  24  -1  25  -1
M  END
>  <meeko>  (1) 
{"is_sidechain": [false], "free_energy": -9.122, "intermolecular_energy": -13.388, "internal_energy": -0.889}

$$$$
1bzc_ligand
     RDKit          3D

 43 44  0  0  0  0  0  0  0  0999 V2000
  -17.7950   48.8160   20.0390 N   0  0  0  0  0  0  0  0  0  0  0  0
  -17.2250   50.0590   20.1920 C   0  0  0  0  0  0  0  0  0  0  0  0
  -16.0170   50.1650   19.9890 O   0  0  0  0  0  0  0  0  0  0  0  0
  -18.1700   51.1760   20.7030 C   0  0  2  0  0  0  0  0  0  0  0  0
  -19.2070   50.7110   21.7450 C   0  0  0  0  0  0  0  0  0  0  0  0
  -20.6610   50.5950   21.2890 C   0  0  0  0  0  0  0  0  0  0  0  0
  -21.3060   49.2110   21.2070 C   0  0  0  0  0  0  0  0  0  0  0  0
  -22.4890   49.1250   21.6290 O   0  0  0  0  0  0  0  0  0  0  0  0
  -20.5510   48.3270   20.7120 O   0  0  0  0  0  0  0  0  0  0  0  0
  -18.8090   51.8940   19.6120 N   0  0  0  0  0  0  0  0  0  0  0  0
  -18.5630   53.2280   19.3800 C   0  0  0  0  0  0  0  0  0  0  0  0
  -17.8310   53.8910   20.1190 O   0  0  0  0  0  0  0  0  0  0  0  0
  -19.2370   53.8970   18.2200 C   0  0  0  0  0  0  0  0  0  0  0  0
  -20.2290   53.1710   17.5450 C   0  0  0  0  0  0  0  0  0  0  0  0
  -20.8720   53.7020   16.4220 C   0  0  0  0  0  0  0  0  0  0  0  0
  -20.5360   54.9740   15.9420 C   0  0  0  0  0  0  0  0  0  0  0  0
  -21.1670   55.5080   14.8010 C   0  0  0  0  0  0  0  0  0  0  0  0
  -20.8320   56.7760   14.3120 C   0  0  0  0  0  0  0  0  0  0  0  0
  -21.4970   57.3860   13.0930 C   0  0  0  0  0  0  0  0  0  0  0  0
  -20.6670   57.4270   12.0000 F   0  0  0  0  0  0  0  0  0  0  0  0
  -22.6080   56.6850   12.6890 F   0  0  0  0  0  0  0  0  0  0  0  0
  -22.1970   59.2450   13.1370 P   0  0  0  0  0  0  0  0  0  0  0  0
  -23.7240   59.0940   13.2270 O   0  0  0  0  0  0  0  0  0  0  0  0
  -21.7400   59.8710   11.8120 O   0  0  0  0  0  0  0  0  0  0  0  0
  -21.5740   59.9080   14.3750 O   0  0  0  0  0  0  0  0  0  0  0  0
  -19.8520   57.5140   14.9960 C   0  0  0  0  0  0  0  0  0  0  0  0
  -19.2160   56.9950   16.1300 C   0  0  0  0  0  0  0  0  0  0  0  0
  -19.5440   55.7220   16.6170 C   0  0  0  0  0  0  0  0  0  0  0  0
  -18.9020   55.1740   17.7520 C   0  0  0  0  0  0  0  0  0  0  0  0
  -18.7710   48.7630   19.7870 H   0  0  0  0  0  0  0  0  0  0  0  0
  -17.1750   48.1620   19.5790 H   0  0  0  0  0  0  0  0  0  0  0  0
  -17.5073   51.8733   21.2364 H   0  0  0  0  0  0  0  0  0  0  0  0
  -18.8934   49.7190   22.1022 H   0  0  0  0  0  0  0  0  0  0  0  0
  -19.2143   51.5043   22.5070 H   0  0  0  0  0  0  0  0  0  0  0  0
  -21.2661   51.1913   21.9878 H   0  0  0  0  0  0  0  0  0  0  0  0
  -20.6367   50.9361   20.2435 H   0  0  0  0  0  0  0  0  0  0  0  0
  -19.3370   51.3050   18.9560 H   0  0  0  0  0  0  0  0  0  0  0  0
  -20.5056   52.1688   17.9041 H   0  0  0  0  0  0  0  0  0  0  0  0
  -21.6491   53.1148   15.9109 H   0  0  0  0  0  0  0  0  0  0  0  0
  -21.9377   54.9170   14.2846 H   0  0  0  0  0  0  0  0  0  0  0  0
  -19.5797   58.5166   14.6346 H   0  0  0  0  0  0  0  0  0  0  0  0
  -18.4498   57.5931   16.6450 H   0  0  0  0  0  0  0  0  0  0  0  0
  -18.1297   55.7582   18.2738 H   0  0  0  0  0  0  0  0  0  0  0  0
  1  2  1  0
  2  3  2  0
  2  4  1  0
  4  5  1  0
  5  6  1  0
  6  7  1  0
  7  8  2  0
  7  9  1  0
  4 10  1  0
 10 11  1  0
 11 12  2  0
 11 13  1  0
 13 14  2  0
 14 15  1  0
 15 16  2  0
 16 17  1  0
 17 18  2  0
 18 19  1  0
 19 20  1  0
 19 21  1  0
 19 22  1  0
 22 23  2  0
 22 24  1  0
 22 25  1  0
 18 26  1  0
 26 27  2  0
 27 28  1  0
 28 29  2  0
 29 13  1  0
 28 16  1  0
  1 30  1  0
  1 31  1  0
  4 32  1  1
  5 33  1  0
  5 34  1  0
  6 35  1  0
  6 36  1  0
 10 37  1  0
 14 38  1  0
 15 39  1  0
 17 40  1  0
 26 41  1  0
 27 42  1  0
 29 43  1  0
M  CHG  3   9  -1  24  -1  25  -1
M  END
>  <meeko>  (2) 
{"is_sidechain": [false], "free_energy": -8.839, "intermolecular_energy": -12.985, "internal_energy": -0.878}

$$$$
1bzc_ligand
     RDKit          3D

 43 44  0  0  0  0  0  0  0  0999 V2000
  -18.7450   51.9750   22.8210 N   0  0  0  0  0  0  0  0  0  0  0  0
  -17.6620   52.8010   22.6290 C   0  0  0  0  0  0  0  0  0  0  0  0
  -17.4330   53.6550   23.4820 O   0  0  0  0  0  0  0  0  0  0  0  0
  -16.9010   52.6140   21.2920 C   0  0  2  0  0  0  0  0  0  0  0  0
  -15.3660   52.7000   21.4110 C   0  0  0  0  0  0  0  0  0  0  0  0
  -14.5370   52.1010   20.2740 C   0  0  0  0  0  0  0  0  0  0  0  0
  -14.5210   50.5840   20.0860 C   0  0  0  0  0  0  0  0  0  0  0  0
  -13.4090   50.0740   19.7870 O   0  0  0  0  0  0  0  0  0  0  0  0
  -15.6460   50.0380   20.2650 O   0  0  0  0  0  0  0  0  0  0  0  0
  -17.3960   53.5010   20.2510 N   0  0  0  0  0  0  0  0  0  0  0  0
  -18.4490   53.1470   19.4380 C   0  0  0  0  0  0  0  0  0  0  0  0
  -18.9870   52.0400   19.5180 O   0  0  0  0  0  0  0  0  0  0  0  0
  -18.9240   54.1230   18.4050 C   0  0  0  0  0  0  0  0  0  0  0  0
  -18.5280   55.4610   18.5510 C   0  0  0  0  0  0  0  0  0  0  0  0
  -18.9680   56.4440   17.6590 C   0  0  0  0  0  0  0  0  0  0  0  0
  -19.8190   56.1150   16.5970 C   0  0  0  0  0  0  0  0  0  0  0  0
  -20.2800   57.1020   15.7040 C   0  0  0  0  0  0  0  0  0  0  0  0
  -21.1360   56.7830   14.6440 C   0  0  0  0  0  0  0  0  0  0  0  0
  -21.6440   57.8180   13.6590 C   0  0  0  0  0  0  0  0  0  0  0  0
  -22.7930   57.4240   13.0190 F   0  0  0  0  0  0  0  0  0  0  0  0
  -21.9460   59.0160   14.2600 F   0  0  0  0  0  0  0  0  0  0  0  0
  -20.5170   58.4130   12.1350 P   0  0  0  0  0  0  0  0  0  0  0  0
  -21.3120   59.5490   11.4710 O   0  0  0  0  0  0  0  0  0  0  0  0
  -20.3860   57.1770   11.2340 O   0  0  0  0  0  0  0  0  0  0  0  0
  -19.1830   58.8740   12.7410 O   0  0  0  0  0  0  0  0  0  0  0  0
  -21.5200   55.4410   14.4830 C   0  0  0  0  0  0  0  0  0  0  0  0
  -21.0710   54.4500   15.3630 C   0  0  0  0  0  0  0  0  0  0  0  0
  -20.2200   54.7690   16.4310 C   0  0  0  0  0  0  0  0  0  0  0  0
  -19.7680   53.7840   17.3390 C   0  0  0  0  0  0  0  0  0  0  0  0
  -18.7250   51.0530   22.4120 H   0  0  0  0  0  0  0  0  0  0  0  0
  -19.1210   52.0440   23.7580 H   0  0  0  0  0  0  0  0  0  0  0  0
  -17.1174   51.5768   20.9963 H   0  0  0  0  0  0  0  0  0  0  0  0
  -15.1002   53.7647   21.4876 H   0  0  0  0  0  0  0  0  0  0  0  0
  -15.1177   52.0896   22.2918 H   0  0  0  0  0  0  0  0  0  0  0  0
  -14.9127   52.5377   19.3369 H   0  0  0  0  0  0  0  0  0  0  0  0
  -13.4998   52.3430   20.5489 H   0  0  0  0  0  0  0  0  0  0  0  0
  -17.0000   54.4490   20.2650 H   0  0  0  0  0  0  0  0  0  0  0  0
  -17.8612   55.7411   19.3798 H   0  0  0  0  0  0  0  0  0  0  0  0
  -18.6423   57.4861   17.7930 H   0  0  0  0  0  0  0  0  0  0  0  0
  -19.9604   58.1454   15.8428 H   0  0  0  0  0  0  0  0  0  0  0  0
  -22.1847   55.1648   13.6512 H   0  0  0  0  0  0  0  0  0  0  0  0
  -21.3896   53.4076   15.2152 H   0  0  0  0  0  0  0  0  0  0  0  0
  -20.0829   52.7383   17.2070 H   0  0  0  0  0  0  0  0  0  0  0  0
  1  2  1  0
  2  3  2  0
  2  4  1  0
  4  5  1  0
  5  6  1  0
  6  7  1  0
  7  8  2  0
  7  9  1  0
  4 10  1  0
 10 11  1  0
 11 12  2  0
 11 13  1  0
 13 14  2  0
 14 15  1  0
 15 16  2  0
 16 17  1  0
 17 18  2  0
 18 19  1  0
 19 20  1  0
 19 21  1  0
 19 22  1  0
 22 23  2  0
 22 24  1  0
 22 25  1  0
 18 26  1  0
 26 27  2  0
 27 28  1  0
 28 29  2  0
 29 13  1  0
 28 16  1  0
  1 30  1  0
  1 31  1  0
  4 32  1  6
  5 33  1  0
  5 34  1  0
  6 35  1  0
  6 36  1  0
 10 37  1  0
 14 38  1  0
 15 39  1  0
 17 40  1  0
 26 41  1  0
 27 42  1  0
 29 43  1  0
M  CHG  3   9  -1  24  -1  25  -1
M  END
>  <meeko>  (3) 
{"is_sidechain": [false], "free_energy": -8.748, "intermolecular_energy": -12.991, "internal_energy": -0.736}

$$$$
1bzc_ligand
     RDKit          3D

 43 44  0  0  0  0  0  0  0  0999 V2000
  -15.7170   50.4320   20.3650 N   0  0  0  0  0  0  0  0  0  0  0  0
  -17.0560   50.1580   20.2070 C   0  0  0  0  0  0  0  0  0  0  0  0
  -17.3640   49.1180   19.6280 O   0  0  0  0  0  0  0  0  0  0  0  0
  -18.0320   51.2560   20.7010 C   0  0  2  0  0  0  0  0  0  0  0  0
  -19.0740   50.7710   21.7300 C   0  0  0  0  0  0  0  0  0  0  0  0
  -18.6050   50.5870   23.1730 C   0  0  0  0  0  0  0  0  0  0  0  0
  -17.4640   51.4570   23.7000 C   0  0  0  0  0  0  0  0  0  0  0  0
  -17.7950   52.5760   24.1740 O   0  0  0  0  0  0  0  0  0  0  0  0
  -16.3240   50.9240   23.5910 O   0  0  0  0  0  0  0  0  0  0  0  0
  -18.6710   51.9570   19.6000 N   0  0  0  0  0  0  0  0  0  0  0  0
  -18.5430   53.3180   19.4360 C   0  0  0  0  0  0  0  0  0  0  0  0
  -17.9260   54.0140   20.2460 O   0  0  0  0  0  0  0  0  0  0  0  0
  -19.2070   53.9700   18.2610 C   0  0  0  0  0  0  0  0  0  0  0  0
  -20.1970   53.2370   17.5910 C   0  0  0  0  0  0  0  0  0  0  0  0
  -20.8300   53.7530   16.4550 C   0  0  0  0  0  0  0  0  0  0  0  0
  -20.4870   55.0160   15.9590 C   0  0  0  0  0  0  0  0  0  0  0  0
  -21.1090   55.5340   14.8050 C   0  0  0  0  0  0  0  0  0  0  0  0
  -20.7680   56.7940   14.2990 C   0  0  0  0  0  0  0  0  0  0  0  0
  -21.4220   57.3870   13.0660 C   0  0  0  0  0  0  0  0  0  0  0  0
  -20.5770   57.4330   11.9850 F   0  0  0  0  0  0  0  0  0  0  0  0
  -22.5170   56.6680   12.6500 F   0  0  0  0  0  0  0  0  0  0  0  0
  -22.1490   59.2360   13.0880 P   0  0  0  0  0  0  0  0  0  0  0  0
  -23.6720   59.0640   13.1970 O   0  0  0  0  0  0  0  0  0  0  0  0
  -21.7160   59.8470   11.7480 O   0  0  0  0  0  0  0  0  0  0  0  0
  -21.5230   59.9290   14.3080 O   0  0  0  0  0  0  0  0  0  0  0  0
  -19.7910   57.5390   14.9780 C   0  0  0  0  0  0  0  0  0  0  0  0
  -19.1630   57.0360   16.1240 C   0  0  0  0  0  0  0  0  0  0  0  0
  -19.4980   55.7710   16.6290 C   0  0  0  0  0  0  0  0  0  0  0  0
  -18.8650   55.2400   17.7760 C   0  0  0  0  0  0  0  0  0  0  0  0
  -15.4330   51.0020   21.1480 H   0  0  0  0  0  0  0  0  0  0  0  0
  -15.1320   49.6340   20.1520 H   0  0  0  0  0  0  0  0  0  0  0  0
  -17.3916   51.9690   21.2410 H   0  0  0  0  0  0  0  0  0  0  0  0
  -19.8935   51.5047   21.7405 H   0  0  0  0  0  0  0  0  0  0  0  0
  -19.3523   49.7613   21.3939 H   0  0  0  0  0  0  0  0  0  0  0  0
  -19.4753   50.7706   23.8203 H   0  0  0  0  0  0  0  0  0  0  0  0
  -18.1873   49.5695   23.1860 H   0  0  0  0  0  0  0  0  0  0  0  0
  -19.0970   51.3500   18.8880 H   0  0  0  0  0  0  0  0  0  0  0  0
  -20.4801   52.2417   17.9641 H   0  0  0  0  0  0  0  0  0  0  0  0
  -21.6048   53.1603   15.9467 H   0  0  0  0  0  0  0  0  0  0  0  0
  -21.8772   54.9367   14.2921 H   0  0  0  0  0  0  0  0  0  0  0  0
  -19.5139   58.5354   14.6032 H   0  0  0  0  0  0  0  0  0  0  0  0
  -18.3981   57.6399   16.6341 H   0  0  0  0  0  0  0  0  0  0  0  0
  -18.0949   55.8304   18.2941 H   0  0  0  0  0  0  0  0  0  0  0  0
  1  2  1  0
  2  3  2  0
  2  4  1  0
  4  5  1  0
  5  6  1  0
  6  7  1  0
  7  8  2  0
  7  9  1  0
  4 10  1  0
 10 11  1  0
 11 12  2  0
 11 13  1  0
 13 14  2  0
 14 15  1  0
 15 16  2  0
 16 17  1  0
 17 18  2  0
 18 19  1  0
 19 20  1  0
 19 21  1  0
 19 22  1  0
 22 23  2  0
 22 24  1  0
 22 25  1  0
 18 26  1  0
 26 27  2  0
 27 28  1  0
 28 29  2  0
 29 13  1  0
 28 16  1  0
  1 30  1  0
  1 31  1  0
  4 32  1  1
  5 33  1  0
  5 34  1  0
  6 35  1  0
  6 36  1  0
 10 37  1  0
 14 38  1  0
 15 39  1  0
 17 40  1  0
 26 41  1  0
 27 42  1  0
 29 43  1  0
M  CHG  3   9  -1  24  -1  25  -1
M  END
>  <meeko>  (4) 
{"is_sidechain": [false], "free_energy": -8.718, "intermolecular_energy": -12.957, "internal_energy": -0.727}

$$$$
1bzc_ligand
     RDKit          3D

 43 44  0  0  0  0  0  0  0  0999 V2000
  -17.8760   48.7350   20.0660 N   0  0  0  0  0  0  0  0  0  0  0  0
  -17.3900   50.0220   20.0610 C   0  0  0  0  0  0  0  0  0  0  0  0
  -16.2400   50.2000   19.6640 O   0  0  0  0  0  0  0  0  0  0  0  0
  -18.3320   51.1010   20.6550 C   0  0  2  0  0  0  0  0  0  0  0  0
  -19.5070   50.5400   21.4810 C   0  0  0  0  0  0  0  0  0  0  0  0
  -20.8940   50.5610   20.8370 C   0  0  0  0  0  0  0  0  0  0  0  0
  -21.8230   51.7430   21.1130 C   0  0  0  0  0  0  0  0  0  0  0  0
  -22.4890   51.6870   22.1800 O   0  0  0  0  0  0  0  0  0  0  0  0
  -21.7910   52.6350   20.2180 O   0  0  0  0  0  0  0  0  0  0  0  0
  -18.8000   52.0360   19.6450 N   0  0  0  0  0  0  0  0  0  0  0  0
  -18.3390   53.3320   19.5880 C   0  0  0  0  0  0  0  0  0  0  0  0
  -17.5480   53.7760   20.4230 O   0  0  0  0  0  0  0  0  0  0  0  0
  -18.8450   54.2320   18.5010 C   0  0  0  0  0  0  0  0  0  0  0  0
  -18.4700   55.5820   18.5550 C   0  0  0  0  0  0  0  0  0  0  0  0
  -18.9390   56.4990   17.6090 C   0  0  0  0  0  0  0  0  0  0  0  0
  -19.8000   56.0880   16.5840 C   0  0  0  0  0  0  0  0  0  0  0  0
  -20.2910   57.0090   15.6370 C   0  0  0  0  0  0  0  0  0  0  0  0
  -21.1570   56.6080   14.6130 C   0  0  0  0  0  0  0  0  0  0  0  0
  -21.6970   57.5700   13.5720 C   0  0  0  0  0  0  0  0  0  0  0  0
  -22.6860   57.0150   12.7990 F   0  0  0  0  0  0  0  0  0  0  0  0
  -22.2480   58.6980   14.1290 F   0  0  0  0  0  0  0  0  0  0  0  0
  -20.5000   58.3540   12.1930 P   0  0  0  0  0  0  0  0  0  0  0  0
  -21.2890   59.5360   11.6070 O   0  0  0  0  0  0  0  0  0  0  0  0
  -20.2780   57.2270   11.1750 O   0  0  0  0  0  0  0  0  0  0  0  0
  -19.2190   58.7790   12.9270 O   0  0  0  0  0  0  0  0  0  0  0  0
  -21.5200   55.2530   14.5450 C   0  0  0  0  0  0  0  0  0  0  0  0
  -21.0420   54.3270   15.4790 C   0  0  0  0  0  0  0  0  0  0  0  0
  -20.1810   54.7280   16.5110 C   0  0  0  0  0  0  0  0  0  0  0  0
  -19.6990   53.8110   17.4730 C   0  0  0  0  0  0  0  0  0  0  0  0
  -18.8720   48.5970   19.9750 H   0  0  0  0  0  0  0  0  0  0  0  0
  -17.2840   48.0970   19.5500 H   0  0  0  0  0  0  0  0  0  0  0  0
  -17.7031   51.6508   21.3707 H   0  0  0  0  0  0  0  0  0  0  0  0
  -19.2708   49.4929   21.7215 H   0  0  0  0  0  0  0  0  0  0  0  0
  -19.5889   51.2136   22.3467 H   0  0  0  0  0  0  0  0  0  0  0  0
  -20.7442   50.5166   19.7482 H   0  0  0  0  0  0  0  0  0  0  0  0
  -21.4111   49.7067   21.2982 H   0  0  0  0  0  0  0  0  0  0  0  0
  -19.3810   51.6200   18.9060 H   0  0  0  0  0  0  0  0  0  0  0  0
  -17.7963   55.9252   19.3540 H   0  0  0  0  0  0  0  0  0  0  0  0
  -18.6288   57.5525   17.6706 H   0  0  0  0  0  0  0  0  0  0  0  0
  -19.9876   58.0642   15.7039 H   0  0  0  0  0  0  0  0  0  0  0  0
  -22.1921   54.9135   13.7431 H   0  0  0  0  0  0  0  0  0  0  0  0
  -21.3451   53.2723   15.4029 H   0  0  0  0  0  0  0  0  0  0  0  0
  -19.9980   52.7541   17.4138 H   0  0  0  0  0  0  0  0  0  0  0  0
  1  2  1  0
  2  3  2  0
  2  4  1  0
  4  5  1  0
  5  6  1  0
  6  7  1  0
  7  8  2  0
  7  9  1  0
  4 10  1  0
 10 11  1  0
 11 12  2  0
 11 13  1  0
 13 14  2  0
 14 15  1  0
 15 16  2  0
 16 17  1  0
 17 18  2  0
 18 19  1  0
 19 20  1  0
 19 21  1  0
 19 22  1  0
 22 23  2  0
 22 24  1  0
 22 25  1  0
 18 26  1  0
 26 27  2  0
 27 28  1  0
 28 29  2  0
 29 13  1  0
 28 16  1  0
  1 30  1  0
  1 31  1  0
  4 32  1  1
  5 33  1  0
  5 34  1  0
  6 35  1  0
  6 36  1  0
 10 37  1  0
 14 38  1  0
 15 39  1  0
 17 40  1  0
 26 41  1  0
 27 42  1  0
 29 43  1  0
M  CHG  3   9  -1  24  -1  25  -1
M  END
>  <meeko>  (5) 
{"is_sidechain": [false], "free_energy": -8.71, "intermolecular_energy": -12.489, "internal_energy": -1.183}

$$$$
1bzc_ligand
     RDKit          3D

 43 44  0  0  0  0  0  0  0  0999 V2000
  -18.1430   54.3990   23.7090 N   0  0  0  0  0  0  0  0  0  0  0  0
  -17.1690   54.6140   22.7620 C   0  0  0  0  0  0  0  0  0  0  0  0
  -16.4600   55.6100   22.8830 O   0  0  0  0  0  0  0  0  0  0  0  0
  -17.1430   53.6090   21.5820 C   0  0  2  0  0  0  0  0  0  0  0  0
  -15.7490   53.0330   21.2610 C   0  0  0  0  0  0  0  0  0  0  0  0
  -15.5580   51.5240   21.4150 C   0  0  0  0  0  0  0  0  0  0  0  0
  -15.3950   50.6640   20.1620 C   0  0  0  0  0  0  0  0  0  0  0  0
  -16.4380   50.0980   19.7390 O   0  0  0  0  0  0  0  0  0  0  0  0
  -14.2160   50.6410   19.7100 O   0  0  0  0  0  0  0  0  0  0  0  0
  -17.7750   54.1480   20.3890 N   0  0  0  0  0  0  0  0  0  0  0  0
  -18.6360   53.3960   19.6220 C   0  0  0  0  0  0  0  0  0  0  0  0
  -18.8710   52.2140   19.8800 O   0  0  0  0  0  0  0  0  0  0  0  0
  -19.2720   54.0270   18.4200 C   0  0  0  0  0  0  0  0  0  0  0  0
  -20.2380   53.2780   17.7330 C   0  0  0  0  0  0  0  0  0  0  0  0
  -20.8430   53.7730   16.5730 C   0  0  0  0  0  0  0  0  0  0  0  0
  -20.4960   55.0320   16.0690 C   0  0  0  0  0  0  0  0  0  0  0  0
  -21.0890   55.5300   14.8920 C   0  0  0  0  0  0  0  0  0  0  0  0
  -20.7430   56.7850   14.3780 C   0  0  0  0  0  0  0  0  0  0  0  0
  -21.3680   57.3570   13.1200 C   0  0  0  0  0  0  0  0  0  0  0  0
  -20.4810   57.4370   12.0750 F   0  0  0  0  0  0  0  0  0  0  0  0
  -22.4170   56.5990   12.6580 F   0  0  0  0  0  0  0  0  0  0  0  0
  -22.1630   59.1780   13.1130 P   0  0  0  0  0  0  0  0  0  0  0  0
  -21.7320   59.7960   11.7740 O   0  0  0  0  0  0  0  0  0  0  0  0
  -21.5370   59.8860   14.3230 O   0  0  0  0  0  0  0  0  0  0  0  0
  -23.6820   58.9830   13.2350 O   0  0  0  0  0  0  0  0  0  0  0  0
  -19.7910   57.5470   15.0740 C   0  0  0  0  0  0  0  0  0  0  0  0
  -19.1920   57.0650   16.2440 C   0  0  0  0  0  0  0  0  0  0  0  0
  -19.5310   55.8040   16.7560 C   0  0  0  0  0  0  0  0  0  0  0  0
  -18.9270   55.2930   17.9270 C   0  0  0  0  0  0  0  0  0  0  0  0
  -18.4390   53.4510   23.8880 H   0  0  0  0  0  0  0  0  0  0  0  0
  -18.0310   54.9960   24.5190 H   0  0  0  0  0  0  0  0  0  0  0  0
  -17.7408   52.7560   21.9356 H   0  0  0  0  0  0  0  0  0  0  0  0
  -15.5186   53.2897   20.2165 H   0  0  0  0  0  0  0  0  0  0  0  0
  -15.0809   53.4789   22.0125 H   0  0  0  0  0  0  0  0  0  0  0  0
  -14.6567   51.3744   22.0276 H   0  0  0  0  0  0  0  0  0  0  0  0
  -16.5098   51.1813   21.8470 H   0  0  0  0  0  0  0  0  0  0  0  0
  -17.6410   55.1570   20.2460 H   0  0  0  0  0  0  0  0  0  0  0  0
  -20.5245   52.2859   18.1121 H   0  0  0  0  0  0  0  0  0  0  0  0
  -21.5988   53.1671   16.0518 H   0  0  0  0  0  0  0  0  0  0  0  0
  -21.8388   54.9203   14.3666 H   0  0  0  0  0  0  0  0  0  0  0  0
  -19.5108   58.5403   14.6933 H   0  0  0  0  0  0  0  0  0  0  0  0
  -18.4471   57.6822   16.7676 H   0  0  0  0  0  0  0  0  0  0  0  0
  -18.1764   55.8965   18.4584 H   0  0  0  0  0  0  0  0  0  0  0  0
  1  2  1  0
  2  3  2  0
  2  4  1  0
  4  5  1  0
  5  6  1  0
  6  7  1  0
  7  8  2  0
  7  9  1  0
  4 10  1  0
 10 11  1  0
 11 12  2  0
 11 13  1  0
 13 14  2  0
 14 15  1  0
 15 16  2  0
 16 17  1  0
 17 18  2  0
 18 19  1  0
 19 20  1  0
 19 21  1  0
 19 22  1  0
 22 23  2  0
 22 24  1  0
 22 25  1  0
 18 26  1  0
 26 27  2  0
 27 28  1  0
 28 29  2  0
 29 13  1  0
 28 16  1  0
  1 30  1  0
  1 31  1  0
  4 32  1  1
  5 33  1  0
  5 34  1  0
  6 35  1  0
  6 36  1  0
 10 37  1  0
 14 38  1  0
 15 39  1  0
 17 40  1  0
 26 41  1  0
 27 42  1  0
 29 43  1  0
M  CHG  3   9  -1  24  -1  25  -1
M  END
>  <meeko>  (6) 
{"is_sidechain": [false], "free_energy": -8.584, "intermolecular_energy": -12.903, "internal_energy": -0.583}

$$$$
1bzc_ligand
     RDKit          3D

 43 44  0  0  0  0  0  0  0  0999 V2000
  -18.4950   51.9670   23.1390 N   0  0  0  0  0  0  0  0  0  0  0  0
  -19.0640   51.2580   22.1060 C   0  0  0  0  0  0  0  0  0  0  0  0
  -20.1520   50.7230   22.3080 O   0  0  0  0  0  0  0  0  0  0  0  0
  -18.2080   51.1360   20.8200 C   0  0  2  0  0  0  0  0  0  0  0  0
  -16.7240   51.5150   21.0000 C   0  0  0  0  0  0  0  0  0  0  0  0
  -15.7390   51.0300   19.9360 C   0  0  0  0  0  0  0  0  0  0  0  0
  -14.2710   50.8380   20.3150 C   0  0  0  0  0  0  0  0  0  0  0  0
  -13.6210   50.0150   19.6170 O   0  0  0  0  0  0  0  0  0  0  0  0
  -13.9010   51.5480   21.2930 O   0  0  0  0  0  0  0  0  0  0  0  0
  -18.7990   51.8480   19.6990 N   0  0  0  0  0  0  0  0  0  0  0  0
  -18.7820   53.2220   19.6230 C   0  0  0  0  0  0  0  0  0  0  0  0
  -18.3120   53.9160   20.5270 O   0  0  0  0  0  0  0  0  0  0  0  0
  -19.3860   53.8870   18.4230 C   0  0  0  0  0  0  0  0  0  0  0  0
  -20.3770   53.1820   17.7250 C   0  0  0  0  0  0  0  0  0  0  0  0
  -20.9570   53.7090   16.5670 C   0  0  0  0  0  0  0  0  0  0  0  0
  -20.5570   54.9570   16.0740 C   0  0  0  0  0  0  0  0  0  0  0  0
  -21.1240   55.4870   14.8980 C   0  0  0  0  0  0  0  0  0  0  0  0
  -20.7260   56.7310   14.3950 C   0  0  0  0  0  0  0  0  0  0  0  0
  -21.3220   57.3360   13.1380 C   0  0  0  0  0  0  0  0  0  0  0  0
  -20.4220   57.4040   12.1040 F   0  0  0  0  0  0  0  0  0  0  0  0
  -22.3870   56.6150   12.6570 F   0  0  0  0  0  0  0  0  0  0  0  0
  -22.0640   59.1790   13.1480 P   0  0  0  0  0  0  0  0  0  0  0  0
  -23.5840   58.9960   13.2870 O   0  0  0  0  0  0  0  0  0  0  0  0
  -21.6610   59.7750   11.7910 O   0  0  0  0  0  0  0  0  0  0  0  0
  -21.4220   59.8940   14.3470 O   0  0  0  0  0  0  0  0  0  0  0  0
  -19.7480   57.4490   15.1010 C   0  0  0  0  0  0  0  0  0  0  0  0
  -19.1740   56.9350   16.2700 C   0  0  0  0  0  0  0  0  0  0  0  0
  -19.5660   55.6850   16.7710 C   0  0  0  0  0  0  0  0  0  0  0  0
  -18.9880   55.1410   17.9410 C   0  0  0  0  0  0  0  0  0  0  0  0
  -17.8690   52.7250   22.9130 H   0  0  0  0  0  0  0  0  0  0  0  0
  -19.1440   52.1300   23.8980 H   0  0  0  0  0  0  0  0  0  0  0  0
  -18.2124   50.0607   20.5884 H   0  0  0  0  0  0  0  0  0  0  0  0
  -16.6651   52.6131   21.0278 H   0  0  0  0  0  0  0  0  0  0  0  0
  -16.4137   51.0044   21.9236 H   0  0  0  0  0  0  0  0  0  0  0  0
  -16.1079   50.0587   19.5747 H   0  0  0  0  0  0  0  0  0  0  0  0
  -15.7164   51.8515   19.2048 H   0  0  0  0  0  0  0  0  0  0  0  0
  -19.0970   51.2520   18.9160 H   0  0  0  0  0  0  0  0  0  0  0  0
  -20.7033   52.1986   18.0944 H   0  0  0  0  0  0  0  0  0  0  0  0
  -21.7346   53.1380   16.0385 H   0  0  0  0  0  0  0  0  0  0  0  0
  -21.8949   54.9115   14.3646 H   0  0  0  0  0  0  0  0  0  0  0  0
  -19.4268   58.4331   14.7291 H   0  0  0  0  0  0  0  0  0  0  0  0
  -18.4072   57.5179   16.8013 H   0  0  0  0  0  0  0  0  0  0  0  0
  -18.2158   55.7096   18.4799 H   0  0  0  0  0  0  0  0  0  0  0  0
  1  2  1  0
  2  3  2  0
  2  4  1  0
  4  5  1  0
  5  6  1  0
  6  7  1  0
  7  8  2  0
  7  9  1  0
  4 10  1  0
 10 11  1  0
 11 12  2  0
 11 13  1  0
 13 14  2  0
 14 15  1  0
 15 16  2  0
 16 17  1  0
 17 18  2  0
 18 19  1  0
 19 20  1  0
 19 21  1  0
 19 22  1  0
 22 23  2  0
 22 24  1  0
 22 25  1  0
 18 26  1  0
 26 27  2  0
 27 28  1  0
 28 29  2  0
 29 13  1  0
 28 16  1  0
  1 30  1  0
  1 31  1  0
  4 32  1  6
  5 33  1  0
  5 34  1  0
  6 35  1  0
  6 36  1  0
 10 37  1  0
 14 38  1  0
 15 39  1  0
 17 40  1  0
 26 41  1  0
 27 42  1  0
 29 43  1  0
M  CHG  3   9  -1  24  -1  25  -1
M  END
>  <meeko>  (7) 
{"is_sidechain": [false], "free_energy": -8.522, "intermolecular_energy": -13.176, "internal_energy": -0.22}

$$$$
1bzc_ligand
     RDKit          3D

 43 44  0  0  0  0  0  0  0  0999 V2000
  -15.7740   51.3560   20.3930 N   0  0  0  0  0  0  0  0  0  0  0  0
  -16.8770   50.5410   20.2820 C   0  0  0  0  0  0  0  0  0  0  0  0
  -16.7110   49.4090   19.8330 O   0  0  0  0  0  0  0  0  0  0  0  0
  -18.2350   51.1900   20.6520 C   0  0  2  0  0  0  0  0  0  0  0  0
  -19.3360   50.1870   21.0540 C   0  0  0  0  0  0  0  0  0  0  0  0
  -19.1730   49.4620   22.3900 C   0  0  0  0  0  0  0  0  0  0  0  0
  -18.6790   50.2460   23.6060 C   0  0  0  0  0  0  0  0  0  0  0  0
  -17.4390   50.2030   23.8260 O   0  0  0  0  0  0  0  0  0  0  0  0
  -19.5970   50.8470   24.2320 O   0  0  0  0  0  0  0  0  0  0  0  0
  -18.7060   52.1010   19.6220 N   0  0  0  0  0  0  0  0  0  0  0  0
  -18.3750   53.4370   19.6280 C   0  0  0  0  0  0  0  0  0  0  0  0
  -17.7060   53.9350   20.5370 O   0  0  0  0  0  0  0  0  0  0  0  0
  -18.8740   54.3110   18.5180 C   0  0  0  0  0  0  0  0  0  0  0  0
  -18.4860   55.6580   18.5330 C   0  0  0  0  0  0  0  0  0  0  0  0
  -18.9490   56.5520   17.5620 C   0  0  0  0  0  0  0  0  0  0  0  0
  -19.8150   56.1210   16.5500 C   0  0  0  0  0  0  0  0  0  0  0  0
  -20.2980   57.0200   15.5790 C   0  0  0  0  0  0  0  0  0  0  0  0
  -21.1700   56.5990   14.5680 C   0  0  0  0  0  0  0  0  0  0  0  0
  -21.7020   57.5360   13.5010 C   0  0  0  0  0  0  0  0  0  0  0  0
  -22.6720   56.9560   12.7200 F   0  0  0  0  0  0  0  0  0  0  0  0
  -22.2760   58.6670   14.0280 F   0  0  0  0  0  0  0  0  0  0  0  0
  -20.4910   58.3100   12.1290 P   0  0  0  0  0  0  0  0  0  0  0  0
  -20.2370   57.1690   11.1320 O   0  0  0  0  0  0  0  0  0  0  0  0
  -19.2280   58.7160   12.9010 O   0  0  0  0  0  0  0  0  0  0  0  0
  -21.2440   59.5020   11.5160 O   0  0  0  0  0  0  0  0  0  0  0  0
  -21.5460   55.2460   14.5380 C   0  0  0  0  0  0  0  0  0  0  0  0
  -21.0750   54.3420   15.4970 C   0  0  0  0  0  0  0  0  0  0  0  0
  -20.2080   54.7640   16.5160 C   0  0  0  0  0  0  0  0  0  0  0  0
  -19.7340   53.8700   17.5030 C   0  0  0  0  0  0  0  0  0  0  0  0
  -15.7780   52.0760   21.1000 H   0  0  0  0  0  0  0  0  0  0  0  0
  -14.9070   50.8490   20.2700 H   0  0  0  0  0  0  0  0  0  0  0  0
  -18.0215   51.7741   21.5593 H   0  0  0  0  0  0  0  0  0  0  0  0
  -20.2870   50.7385   21.0917 H   0  0  0  0  0  0  0  0  0  0  0  0
  -19.2841   49.3928   20.2947 H   0  0  0  0  0  0  0  0  0  0  0  0
  -20.1570   49.0466   22.6529 H   0  0  0  0  0  0  0  0  0  0  0  0
  -18.3673   48.7378   22.1993 H   0  0  0  0  0  0  0  0  0  0  0  0
  -19.1790   51.6490   18.8280 H   0  0  0  0  0  0  0  0  0  0  0  0
  -17.8071   56.0174   19.3204 H   0  0  0  0  0  0  0  0  0  0  0  0
  -18.6295   57.6041   17.5939 H   0  0  0  0  0  0  0  0  0  0  0  0
  -19.9838   58.0735   15.6159 H   0  0  0  0  0  0  0  0  0  0  0  0
  -22.2226   54.8907   13.7468 H   0  0  0  0  0  0  0  0  0  0  0  0
  -21.3882   53.2885   15.4512 H   0  0  0  0  0  0  0  0  0  0  0  0
  -20.0440   52.8150   17.4741 H   0  0  0  0  0  0  0  0  0  0  0  0
  1  2  1  0
  2  3  2  0
  2  4  1  0
  4  5  1  0
  5  6  1  0
  6  7  1  0
  7  8  2  0
  7  9  1  0
  4 10  1  0
 10 11  1  0
 11 12  2  0
 11 13  1  0
 13 14  2  0
 14 15  1  0
 15 16  2  0
 16 17  1  0
 17 18  2  0
 18 19  1  0
 19 20  1  0
 19 21  1  0
 19 22  1  0
 22 23  2  0
 22 24  1  0
 22 25  1  0
 18 26  1  0
 26 27  2  0
 27 28  1  0
 28 29  2  0
 29 13  1  0
 28 16  1  0
  1 30  1  0
  1 31  1  0
  4 32  1  1
  5 33  1  0
  5 34  1  0
  6 35  1  0
  6 36  1  0
 10 37  1  0
 14 38  1  0
 15 39  1  0
 17 40  1  0
 26 41  1  0
 27 42  1  0
 29 43  1  0
M  CHG  3   9  -1  24  -1  25  -1
M  END
>  <meeko>  (8) 
{"is_sidechain": [false], "free_energy": -8.354, "intermolecular_energy": -12.224, "internal_energy": -0.926}

$$$$
1bzc_ligand
     RDKit          3D

 43 44  0  0  0  0  0  0  0  0999 V2000
  -16.3250   56.9610   24.0820 N   0  0  0  0  0  0  0  0  0  0  0  0
  -17.1230   56.2810   23.1910 C   0  0  0  0  0  0  0  0  0  0  0  0
  -18.3150   56.1620   23.4650 O   0  0  0  0  0  0  0  0  0  0  0  0
  -16.3950   55.6550   21.9750 C   0  0  2  0  0  0  0  0  0  0  0  0
  -14.9060   56.0380   21.8530 C   0  0  0  0  0  0  0  0  0  0  0  0
  -14.4890   56.8660   20.6370 C   0  0  0  0  0  0  0  0  0  0  0  0
  -14.6620   58.3840   20.6780 C   0  0  0  0  0  0  0  0  0  0  0  0
  -13.6020   59.0630   20.6720 O   0  0  0  0  0  0  0  0  0  0  0  0
  -15.8690   58.7580   20.7070 O   0  0  0  0  0  0  0  0  0  0  0  0
  -17.1020   55.8970   20.7280 N   0  0  0  0  0  0  0  0  0  0  0  0
  -17.8730   54.9250   20.1320 C   0  0  0  0  0  0  0  0  0  0  0  0
  -17.9560   53.7860   20.5980 O   0  0  0  0  0  0  0  0  0  0  0  0
  -18.5960   55.2540   18.8610 C   0  0  0  0  0  0  0  0  0  0  0  0
  -19.3200   54.2230   18.2440 C   0  0  0  0  0  0  0  0  0  0  0  0
  -19.9810   54.4340   17.0300 C   0  0  0  0  0  0  0  0  0  0  0  0
  -19.9350   55.6830   16.3990 C   0  0  0  0  0  0  0  0  0  0  0  0
  -20.5850   55.8970   15.1680 C   0  0  0  0  0  0  0  0  0  0  0  0
  -20.5370   57.1410   14.5270 C   0  0  0  0  0  0  0  0  0  0  0  0
  -21.2330   57.4100   13.2070 C   0  0  0  0  0  0  0  0  0  0  0  0
  -20.3870   57.3060   12.1300 F   0  0  0  0  0  0  0  0  0  0  0  0
  -22.2590   56.5300   12.9600 F   0  0  0  0  0  0  0  0  0  0  0  0
  -22.1160   59.1550   12.8570 P   0  0  0  0  0  0  0  0  0  0  0  0
  -21.6580   59.5590   11.4470 O   0  0  0  0  0  0  0  0  0  0  0  0
  -21.5790   60.0950   13.9470 O   0  0  0  0  0  0  0  0  0  0  0  0
  -23.6280   58.9000   12.9600 O   0  0  0  0  0  0  0  0  0  0  0  0
  -19.8300   58.1810   15.1510 C   0  0  0  0  0  0  0  0  0  0  0  0
  -19.1780   57.9830   16.3730 C   0  0  0  0  0  0  0  0  0  0  0  0
  -19.2170   56.7350   17.0130 C   0  0  0  0  0  0  0  0  0  0  0  0
  -18.5520   56.5100   18.2400 C   0  0  0  0  0  0  0  0  0  0  0  0
  -15.5020   57.4280   23.7300 H   0  0  0  0  0  0  0  0  0  0  0  0
  -16.8630   57.4610   24.7780 H   0  0  0  0  0  0  0  0  0  0  0  0
  -16.4072   54.5736   22.1758 H   0  0  0  0  0  0  0  0  0  0  0  0
  -14.6389   56.6138   22.7514 H   0  0  0  0  0  0  0  0  0  0  0  0
  -14.3783   55.0801   21.7350 H   0  0  0  0  0  0  0  0  0  0  0  0
  -13.4209   56.6681   20.4635 H   0  0  0  0  0  0  0  0  0  0  0  0
  -15.1840   56.5431   19.8478 H   0  0  0  0  0  0  0  0  0  0  0  0
  -17.0960   56.8740   20.4090 H   0  0  0  0  0  0  0  0  0  0  0  0
  -19.3685   53.2337   18.7224 H   0  0  0  0  0  0  0  0  0  0  0  0
  -20.5430   53.6101   16.5659 H   0  0  0  0  0  0  0  0  0  0  0  0
  -21.1412   55.0708   14.7010 H   0  0  0  0  0  0  0  0  0  0  0  0
  -19.7879   59.1696   14.6704 H   0  0  0  0  0  0  0  0  0  0  0  0
  -18.6286   58.8152   16.8373 H   0  0  0  0  0  0  0  0  0  0  0  0
  -17.9931   57.3307   18.7134 H   0  0  0  0  0  0  0  0  0  0  0  0
  1  2  1  0
  2  3  2  0
  2  4  1  0
  4  5  1  0
  5  6  1  0
  6  7  1  0
  7  8  2  0
  7  9  1  0
  4 10  1  0
 10 11  1  0
 11 12  2  0
 11 13  1  0
 13 14  2  0
 14 15  1  0
 15 16  2  0
 16 17  1  0
 17 18  2  0
 18 19  1  0
 19 20  1  0
 19 21  1  0
 19 22  1  0
 22 23  2  0
 22 24  1  0
 22 25  1  0
 18 26  1  0
 26 27  2  0
 27 28  1  0
 28 29  2  0
 29 13  1  0
 28 16  1  0
  1 30  1  0
  1 31  1  0
  4 32  1  1
  5 33  1  0
  5 34  1  0
  6 35  1  0
  6 36  1  0
 10 37  1  0
 14 38  1  0
 15 39  1  0
 17 40  1  0
 26 41  1  0
 27 42  1  0
 29 43  1  0
M  CHG  3   9  -1  24  -1  25  -1
M  END
>  <meeko>  (9) 
{"is_sidechain": [false], "free_energy": -7.904, "intermolecular_energy": -11.76, "internal_energy": -0.73}

$$$$
