4eky_ligand
     RDKit          3D

 44 45  0  0  0  0  0  0  0  0999 V2000
   41.1660   23.5820   32.3940 C   0  0  0  0  0  0  0  0  0  0  0  0
   39.7620   23.9760   31.9540 C   0  0  0  0  0  0  0  0  0  0  0  0
   39.4290   23.5180   30.5350 C   0  0  0  0  0  0  0  0  0  0  0  0
   38.0080   23.7070   30.2090 C   0  0  0  0  0  0  0  0  0  0  0  0
   36.8430   23.8590   29.9590 C   0  0  0  0  0  0  0  0  0  0  0  0
   35.4630   24.0430   29.6680 C   0  0  0  0  0  0  0  0  0  0  0  0
   34.9800   23.8210   28.4390 C   0  0  0  0  0  0  0  0  0  0  0  0
   33.6440   23.9870   28.1150 N   0  0  0  0  0  0  0  0  0  0  0  0
   33.1560   23.7990   26.7440 C   0  0  2  0  0  0  0  0  0  0  0  0
   31.7660   23.4440   26.7670 O   0  0  0  0  0  0  0  0  0  0  0  0
   31.3950   22.3800   25.8870 C   0  0  2  0  0  0  0  0  0  0  0  0
   29.8930   22.1290   26.0840 C   0  0  0  0  0  0  0  0  0  0  0  0
   29.6550   20.8990   26.7640 O   0  0  0  0  0  0  0  0  0  0  0  0
   32.2230   21.1310   26.2170 C   0  0  1  0  0  0  0  0  0  0  0  0
   31.8540   19.9760   25.4590 O   0  0  0  0  0  0  0  0  0  0  0  0
   33.7210   21.3950   25.9920 C   0  0  2  0  0  0  0  0  0  0  0  0
   34.4640   20.7710   27.0520 O   0  0  0  0  0  0  0  0  0  0  0  0
   34.0850   22.8830   25.9020 C   0  0  1  0  0  0  0  0  0  0  0  0
   34.0010   23.2810   24.5150 O   0  0  0  0  0  0  0  0  0  0  0  0
   32.7230   24.4370   29.0510 C   0  0  0  0  0  0  0  0  0  0  0  0
   31.5420   24.6610   28.7920 O   0  0  0  0  0  0  0  0  0  0  0  0
   33.2080   24.6350   30.3140 N   0  0  0  0  0  0  0  0  0  0  0  0
   34.5080   24.4940   30.7150 C   0  0  0  0  0  0  0  0  0  0  0  0
   34.8470   24.7290   31.8710 O   0  0  0  0  0  0  0  0  0  0  0  0
   41.2155   23.5681   33.4928 H   0  0  0  0  0  0  0  0  0  0  0  0
   41.4055   22.5819   32.0035 H   0  0  0  0  0  0  0  0  0  0  0  0
   41.8909   24.3114   32.0035 H   0  0  0  0  0  0  0  0  0  0  0  0
   39.0377   23.5233   32.6472 H   0  0  0  0  0  0  0  0  0  0  0  0
   39.7106   25.0747   31.9650 H   0  0  0  0  0  0  0  0  0  0  0  0
   40.0356   24.0982   29.8241 H   0  0  0  0  0  0  0  0  0  0  0  0
   39.6508   22.4428   30.4667 H   0  0  0  0  0  0  0  0  0  0  0  0
   35.6750   23.4923   27.6523 H   0  0  0  0  0  0  0  0  0  0  0  0
   33.2069   24.7514   26.1960 H   0  0  0  0  0  0  0  0  0  0  0  0
   31.5914   22.6358   24.8353 H   0  0  0  0  0  0  0  0  0  0  0  0
   29.4672   22.9529   26.6755 H   0  0  0  0  0  0  0  0  0  0  0  0
   29.4188   22.0735   25.0930 H   0  0  0  0  0  0  0  0  0  0  0  0
   28.9610   21.0690   27.4280 H   0  0  0  0  0  0  0  0  0  0  0  0
   32.0133   20.9196   27.2759 H   0  0  0  0  0  0  0  0  0  0  0  0
   31.1950   19.4750   25.9900 H   0  0  0  0  0  0  0  0  0  0  0  0
   33.9816   20.9640   25.0141 H   0  0  0  0  0  0  0  0  0  0  0  0
   35.3320   20.5430   26.6660 H   0  0  0  0  0  0  0  0  0  0  0  0
   35.0999   23.0016   26.3094 H   0  0  0  0  0  0  0  0  0  0  0  0
   34.1780   22.4800   23.9850 H   0  0  0  0  0  0  0  0  0  0  0  0
   32.5540   24.9640   31.0080 H   0  0  0  0  0  0  0  0  0  0  0  0
  1  2  1  0
  2  3  1  0
  3  4  1  0
  4  5  3  0
  5  6  1  0
  6  7  2  0
  7  8  1  0
  8  9  1  0
  9 10  1  0
 10 11  1  0
 11 12  1  0
 12 13  1  0
 11 14  1  0
 14 15  1  0
 14 16  1  0
 16 17  1  0
 16 18  1  0
 18 19  1  0
  8 20  1  0
 20 21  2  0
 20 22  1  0
 22 23  1  0
 23 24  2  0
 23  6  1  0
 18  9  1  0
  1 25  1  0
  1 26  1  0
  1 27  1  0
  2 28  1  0
  2 29  1  0
  3 30  1  0
  3 31  1  0
  7 32  1  0
  9 33  1  6
 11 34  1  6
 12 35  1  0
 12 36  1  0
 13 37  1  0
 14 38  1  1
 15 39  1  0
 16 40  1  6
 17 41  1  0
 18 42  1  1
 19 43  1  0
 22 44  1  0
M  END
>  <meeko>  (1) 
{"is_sidechain": [false], "free_energy": -9.352, "intermolecular_energy": -12.632, "internal_energy": 0.107}

$$$$
4eky_ligand
     RDKit          3D

 44 45  0  0  0  0  0  0  0  0999 V2000
   39.8250   23.8320   32.2250 C   0  0  0  0  0  0  0  0  0  0  0  0
   40.6190   23.8590   30.9260 C   0  0  0  0  0  0  0  0  0  0  0  0
   39.8690   23.2280   29.7530 C   0  0  0  0  0  0  0  0  0  0  0  0
   38.4220   23.4770   29.8190 C   0  0  0  0  0  0  0  0  0  0  0  0
   37.2410   23.6800   29.8900 C   0  0  0  0  0  0  0  0  0  0  0  0
   35.8430   23.9280   29.9770 C   0  0  0  0  0  0  0  0  0  0  0  0
   34.9760   23.2840   29.1860 C   0  0  0  0  0  0  0  0  0  0  0  0
   33.6090   23.4940   29.2400 N   0  0  0  0  0  0  0  0  0  0  0  0
   32.6890   22.8220   28.3150 C   0  0  2  0  0  0  0  0  0  0  0  0
   33.3030   21.6330   27.7970 O   0  0  0  0  0  0  0  0  0  0  0  0
   33.1400   21.4280   26.3910 C   0  0  2  0  0  0  0  0  0  0  0  0
   33.8910   20.1380   26.0300 C   0  0  0  0  0  0  0  0  0  0  0  0
   33.4290   19.0320   26.8010 O   0  0  0  0  0  0  0  0  0  0  0  0
   33.7000   22.6370   25.6290 C   0  0  1  0  0  0  0  0  0  0  0  0
   33.6790   22.4840   24.2070 O   0  0  0  0  0  0  0  0  0  0  0  0
   32.9210   23.9140   25.9870 C   0  0  2  0  0  0  0  0  0  0  0  0
   33.8510   25.0020   26.1070 O   0  0  0  0  0  0  0  0  0  0  0  0
   32.0840   23.7950   27.2670 C   0  0  1  0  0  0  0  0  0  0  0  0
   30.7670   23.3240   26.8980 O   0  0  0  0  0  0  0  0  0  0  0  0
   33.0540   24.4270   30.1050 C   0  0  0  0  0  0  0  0  0  0  0  0
   31.8540   24.6940   30.1410 O   0  0  0  0  0  0  0  0  0  0  0  0
   33.9340   25.0640   30.9360 N   0  0  0  0  0  0  0  0  0  0  0  0
   35.2930   24.9130   30.9470 C   0  0  0  0  0  0  0  0  0  0  0  0
   35.9990   25.5600   31.7140 O   0  0  0  0  0  0  0  0  0  0  0  0
   40.5180   23.8556   33.0789 H   0  0  0  0  0  0  0  0  0  0  0  0
   39.1612   24.7081   32.2673 H   0  0  0  0  0  0  0  0  0  0  0  0
   39.2222   22.9128   32.2673 H   0  0  0  0  0  0  0  0  0  0  0  0
   40.8446   24.9060   30.6750 H   0  0  0  0  0  0  0  0  0  0  0  0
   41.5330   23.2686   31.0873 H   0  0  0  0  0  0  0  0  0  0  0  0
   40.2585   23.6508   28.8152 H   0  0  0  0  0  0  0  0  0  0  0  0
   40.0263   22.1402   29.7983 H   0  0  0  0  0  0  0  0  0  0  0  0
   35.3675   22.5554   28.4608 H   0  0  0  0  0  0  0  0  0  0  0  0
   31.7967   22.4787   28.8591 H   0  0  0  0  0  0  0  0  0  0  0  0
   32.0798   21.3283   26.1154 H   0  0  0  0  0  0  0  0  0  0  0  0
   33.7350   19.9201   24.9631 H   0  0  0  0  0  0  0  0  0  0  0  0
   34.9590   20.2880   26.2467 H   0  0  0  0  0  0  0  0  0  0  0  0
   34.1170   18.3420   26.7520 H   0  0  0  0  0  0  0  0  0  0  0  0
   34.7513   22.7134   25.9434 H   0  0  0  0  0  0  0  0  0  0  0  0
   34.4140   23.0250   23.8440 H   0  0  0  0  0  0  0  0  0  0  0  0
   32.2003   24.0921   25.1752 H   0  0  0  0  0  0  0  0  0  0  0  0
   33.6200   25.4560   26.9410 H   0  0  0  0  0  0  0  0  0  0  0  0
   32.0558   24.7887   27.7380 H   0  0  0  0  0  0  0  0  0  0  0  0
   30.6610   23.5160   25.9460 H   0  0  0  0  0  0  0  0  0  0  0  0
   33.5500   25.7470   31.5710 H   0  0  0  0  0  0  0  0  0  0  0  0
  1  2  1  0
  2  3  1  0
  3  4  1  0
  4  5  3  0
  5  6  1  0
  6  7  2  0
  7  8  1  0
  8  9  1  0
  9 10  1  0
 10 11  1  0
 11 12  1  0
 12 13  1  0
 11 14  1  0
 14 15  1  0
 14 16  1  0
 16 17  1  0
 16 18  1  0
 18 19  1  0
  8 20  1  0
 20 21  2  0
 20 22  1  0
 22 23  1  0
 23 24  2  0
 23  6  1  0
 18  9  1  0
  1 25  1  0
  1 26  1  0
  1 27  1  0
  2 28  1  0
  2 29  1  0
  3 30  1  0
  3 31  1  0
  7 32  1  0
  9 33  1  1
 11 34  1  1
 12 35  1  0
 12 36  1  0
 13 37  1  0
 14 38  1  1
 15 39  1  0
 16 40  1  6
 17 41  1  0
 18 42  1  1
 19 43  1  0
 22 44  1  0
M  END
>  <meeko>  (2) 
{"is_sidechain": [false], "free_energy": -8.925, "intermolecular_energy": -11.517, "internal_energy": -0.431}

$$$$
4eky_ligand
     RDKit          3D

 44 45  0  0  0  0  0  0  0  0999 V2000
   38.0450   27.3170   33.8500 C   0  0  0  0  0  0  0  0  0  0  0  0
   37.4420   26.5270   35.0040 C   0  0  0  0  0  0  0  0  0  0  0  0
   35.9860   26.1300   34.7620 C   0  0  0  0  0  0  0  0  0  0  0  0
   35.7770   25.5740   33.4170 C   0  0  0  0  0  0  0  0  0  0  0  0
   35.6190   25.1300   32.3130 C   0  0  0  0  0  0  0  0  0  0  0  0
   35.4390   24.6010   31.0050 C   0  0  0  0  0  0  0  0  0  0  0  0
   34.2140   24.3640   30.5180 C   0  0  0  0  0  0  0  0  0  0  0  0
   33.9950   23.8510   29.2510 N   0  0  0  0  0  0  0  0  0  0  0  0
   32.6440   23.5410   28.7680 C   0  0  2  0  0  0  0  0  0  0  0  0
   32.5940   22.1860   28.2990 O   0  0  0  0  0  0  0  0  0  0  0  0
   31.9040   21.9980   27.0610 C   0  0  2  0  0  0  0  0  0  0  0  0
   31.9930   20.5040   26.7140 C   0  0  0  0  0  0  0  0  0  0  0  0
   31.1380   20.1700   25.6240 O   0  0  0  0  0  0  0  0  0  0  0  0
   32.5530   22.8670   25.9750 C   0  0  1  0  0  0  0  0  0  0  0  0
   31.9990   22.6710   24.6710 O   0  0  0  0  0  0  0  0  0  0  0  0
   32.4340   24.3590   26.3290 C   0  0  2  0  0  0  0  0  0  0  0  0
   33.6650   25.0140   25.9820 O   0  0  0  0  0  0  0  0  0  0  0  0
   32.0950   24.6240   27.8010 C   0  0  1  0  0  0  0  0  0  0  0  0
   30.6550   24.6760   27.9270 O   0  0  0  0  0  0  0  0  0  0  0  0
   35.0500   23.5130   28.4150 C   0  0  0  0  0  0  0  0  0  0  0  0
   34.9050   22.9950   27.3080 O   0  0  0  0  0  0  0  0  0  0  0  0
   36.3010   23.7820   28.8970 N   0  0  0  0  0  0  0  0  0  0  0  0
   36.6020   24.2860   30.1330 C   0  0  0  0  0  0  0  0  0  0  0  0
   37.7650   24.4610   30.4830 O   0  0  0  0  0  0  0  0  0  0  0  0
   38.6670   28.1319   34.2489 H   0  0  0  0  0  0  0  0  0  0  0  0
   38.6657   26.6499   33.2338 H   0  0  0  0  0  0  0  0  0  0  0  0
   37.2378   27.7398   33.2338 H   0  0  0  0  0  0  0  0  0  0  0  0
   38.0349   25.6120   35.1496 H   0  0  0  0  0  0  0  0  0  0  0  0
   37.4620   27.1760   35.8919 H   0  0  0  0  0  0  0  0  0  0  0  0
   35.6968   25.3737   35.5066 H   0  0  0  0  0  0  0  0  0  0  0  0
   35.3699   27.0369   34.8515 H   0  0  0  0  0  0  0  0  0  0  0  0
   33.3437   24.5868   31.1527 H   0  0  0  0  0  0  0  0  0  0  0  0
   31.9290   23.5887   29.6026 H   0  0  0  0  0  0  0  0  0  0  0  0
   30.8486   22.2990   27.1350 H   0  0  0  0  0  0  0  0  0  0  0  0
   33.0308   20.2613   26.4418 H   0  0  0  0  0  0  0  0  0  0  0  0
   31.6737   19.9254   27.5934 H   0  0  0  0  0  0  0  0  0  0  0  0
   30.3450   20.7340   25.6990 H   0  0  0  0  0  0  0  0  0  0  0  0
   33.6060   22.5504   25.9441 H   0  0  0  0  0  0  0  0  0  0  0  0
   31.1500   23.1640   24.6360 H   0  0  0  0  0  0  0  0  0  0  0  0
   31.5899   24.7632   25.7510 H   0  0  0  0  0  0  0  0  0  0  0  0
   33.8030   25.6960   26.6680 H   0  0  0  0  0  0  0  0  0  0  0  0
   32.5735   25.5729   28.0850 H   0  0  0  0  0  0  0  0  0  0  0  0
   30.2970   24.0580   27.2600 H   0  0  0  0  0  0  0  0  0  0  0  0
   37.0810   23.5410   28.3050 H   0  0  0  0  0  0  0  0  0  0  0  0
  1  2  1  0
  2  3  1  0
  3  4  1  0
  4  5  3  0
  5  6  1  0
  6  7  2  0
  7  8  1  0
  8  9  1  0
  9 10  1  0
 10 11  1  0
 11 12  1  0
 12 13  1  0
 11 14  1  0
 14 15  1  0
 14 16  1  0
 16 17  1  0
 16 18  1  0
 18 19  1  0
  8 20  1  0
 20 21  2  0
 20 22  1  0
 22 23  1  0
 23 24  2  0
 23  6  1  0
 18  9  1  0
  1 25  1  0
  1 26  1  0
  1 27  1  0
  2 28  1  0
  2 29  1  0
  3 30  1  0
  3 31  1  0
  7 32  1  0
  9 33  1  1
 11 34  1  1
 12 35  1  0
 12 36  1  0
 13 37  1  0
 14 38  1  6
 15 39  1  0
 16 40  1  6
 17 41  1  0
 18 42  1  1
 19 43  1  0
 22 44  1  0
M  END
>  <meeko>  (3) 
{"is_sidechain": [false], "free_energy": -8.085, "intermolecular_energy": -11.792, "internal_energy": 0.978}

$$$$
4eky_ligand
     RDKit          3D

 44 45  0  0  0  0  0  0  0  0999 V2000
   33.6240   20.9810   25.7870 C   0  0  0  0  0  0  0  0  0  0  0  0
   33.4820   22.3230   25.0830 C   0  0  0  0  0  0  0  0  0  0  0  0
   34.5430   23.3380   25.5090 C   0  0  0  0  0  0  0  0  0  0  0  0
   34.5000   23.6150   26.9520 C   0  0  0  0  0  0  0  0  0  0  0  0
   34.4480   23.8380   28.1310 C   0  0  0  0  0  0  0  0  0  0  0  0
   34.3810   24.1000   29.5280 C   0  0  0  0  0  0  0  0  0  0  0  0
   35.4810   24.0780   30.2890 C   0  0  0  0  0  0  0  0  0  0  0  0
   35.4590   24.3300   31.6510 N   0  0  0  0  0  0  0  0  0  0  0  0
   36.6720   24.2350   32.4710 C   0  0  2  0  0  0  0  0  0  0  0  0
   36.7180   25.3270   33.4000 O   0  0  0  0  0  0  0  0  0  0  0  0
   37.9920   25.9650   33.5250 C   0  0  2  0  0  0  0  0  0  0  0  0
   37.8260   27.1180   34.5260 C   0  0  0  0  0  0  0  0  0  0  0  0
   37.5570   28.3500   33.8620 O   0  0  0  0  0  0  0  0  0  0  0  0
   38.4480   26.4730   32.1510 C   0  0  1  0  0  0  0  0  0  0  0  0
   39.6670   27.2200   32.1870 O   0  0  0  0  0  0  0  0  0  0  0  0
   38.6300   25.3030   31.1710 C   0  0  2  0  0  0  0  0  0  0  0  0
   38.1320   25.6990   29.8820 O   0  0  0  0  0  0  0  0  0  0  0  0
   37.9490   24.0030   31.6190 C   0  0  1  0  0  0  0  0  0  0  0  0
   38.9010   23.2460   32.4010 O   0  0  0  0  0  0  0  0  0  0  0  0
   34.2700   24.5840   32.3200 C   0  0  0  0  0  0  0  0  0  0  0  0
   34.1940   24.7480   33.5370 O   0  0  0  0  0  0  0  0  0  0  0  0
   33.1480   24.6370   31.5390 N   0  0  0  0  0  0  0  0  0  0  0  0
   33.0850   24.4030   30.1930 C   0  0  0  0  0  0  0  0  0  0  0  0
   32.0180   24.4430   29.5890 O   0  0  0  0  0  0  0  0  0  0  0  0
   33.6077   21.1347   26.8761 H   0  0  0  0  0  0  0  0  0  0  0  0
   32.7903   20.3247   25.4968 H   0  0  0  0  0  0  0  0  0  0  0  0
   34.5766   20.5137   25.4968 H   0  0  0  0  0  0  0  0  0  0  0  0
   33.5682   22.1605   23.9985 H   0  0  0  0  0  0  0  0  0  0  0  0
   32.5014   22.7371   25.3602 H   0  0  0  0  0  0  0  0  0  0  0  0
   35.5363   22.9399   25.2543 H   0  0  0  0  0  0  0  0  0  0  0  0
   34.3407   24.2802   24.9785 H   0  0  0  0  0  0  0  0  0  0  0  0
   36.4456   23.8497   29.8122 H   0  0  0  0  0  0  0  0  0  0  0  0
   36.6346   23.3259   33.0891 H   0  0  0  0  0  0  0  0  0  0  0  0
   38.7614   25.2678   33.8882 H   0  0  0  0  0  0  0  0  0  0  0  0
   36.9903   26.8866   35.2028 H   0  0  0  0  0  0  0  0  0  0  0  0
   38.7656   27.2261   35.0877 H   0  0  0  0  0  0  0  0  0  0  0  0
   37.0640   28.1340   33.0480 H   0  0  0  0  0  0  0  0  0  0  0  0
   37.6485   27.1496   31.8149 H   0  0  0  0  0  0  0  0  0  0  0  0
   39.5680   27.9730   31.5640 H   0  0  0  0  0  0  0  0  0  0  0  0
   39.7062   25.0786   31.1321 H   0  0  0  0  0  0  0  0  0  0  0  0
   37.1680   25.8100   29.9950 H   0  0  0  0  0  0  0  0  0  0  0  0
   37.6314   23.4657   30.7132 H   0  0  0  0  0  0  0  0  0  0  0  0
   39.1380   22.4630   31.8670 H   0  0  0  0  0  0  0  0  0  0  0  0
   32.2730   24.8200   32.0080 H   0  0  0  0  0  0  0  0  0  0  0  0
  1  2  1  0
  2  3  1  0
  3  4  1  0
  4  5  3  0
  5  6  1  0
  6  7  2  0
  7  8  1  0
  8  9  1  0
  9 10  1  0
 10 11  1  0
 11 12  1  0
 12 13  1  0
 11 14  1  0
 14 15  1  0
 14 16  1  0
 16 17  1  0
 16 18  1  0
 18 19  1  0
  8 20  1  0
 20 21  2  0
 20 22  1  0
 22 23  1  0
 23 24  2  0
 23  6  1  0
 18  9  1  0
  1 25  1  0
  1 26  1  0
  1 27  1  0
  2 28  1  0
  2 29  1  0
  3 30  1  0
  3 31  1  0
  7 32  1  0
  9 33  1  1
 11 34  1  1
 12 35  1  0
 12 36  1  0
 13 37  1  0
 14 38  1  6
 15 39  1  0
 16 40  1  6
 17 41  1  0
 18 42  1  6
 19 43  1  0
 22 44  1  0
M  END
>  <meeko>  (4) 
{"is_sidechain": [false], "free_energy": -8.08, "intermolecular_energy": -10.704, "internal_energy": -0.103}

$$$$
