4f2w_ligand
     RDKit          3D

 40 42  0  0  0  0  0  0  0  0999 V2000
   10.1670  -19.0560   -9.0220 C   0  0  0  0  0  0  0  0  0  0  0  0
    8.3810  -19.0540   -8.7060 S   0  0  0  0  0  0  0  0  0  0  0  0
    7.7920  -19.0770  -10.4290 C   0  0  0  0  0  0  0  0  0  0  0  0
    7.1080  -17.7810  -10.8880 C   0  0  1  0  0  0  0  0  0  0  0  0
    6.3720  -17.9210  -12.2290 C   0  0  0  0  0  0  0  0  0  0  0  0
    4.9730  -17.4220  -11.9810 N   0  0  1  0  0  0  0  0  0  0  0  0
    3.9130  -17.9630  -12.8830 C   0  0  0  0  0  0  0  0  0  0  0  0
    4.1560  -19.3750  -13.2750 C   0  0  0  0  0  0  0  0  0  0  0  0
    4.8370  -19.8570  -14.3810 C   0  0  0  0  0  0  0  0  0  0  0  0
    4.8210  -21.2320  -14.3340 N   0  0  0  0  0  0  0  0  0  0  0  0
    4.1430  -21.6510  -13.2160 C   0  0  0  0  0  0  0  0  0  0  0  0
    3.8300  -22.9040  -12.7200 C   0  0  0  0  0  0  0  0  0  0  0  0
    4.2170  -24.0900  -13.3150 N   0  0  0  0  0  0  0  0  0  0  0  0
    3.1010  -22.9590  -11.5940 N   0  0  0  0  0  0  0  0  0  0  0  0
    2.7260  -21.8060  -11.0080 C   0  0  0  0  0  0  0  0  0  0  0  0
    2.9790  -20.5480  -11.4190 N   0  0  0  0  0  0  0  0  0  0  0  0
    3.7170  -20.5150  -12.5510 C   0  0  0  0  0  0  0  0  0  0  0  0
    4.7150  -17.6040  -10.5130 C   0  0  0  0  0  0  0  0  0  0  0  0
    6.0660  -17.2230   -9.9110 C   0  0  2  0  0  0  0  0  0  0  0  0
    6.1550  -15.7910   -9.9420 O   0  0  0  0  0  0  0  0  0  0  0  0
   10.7087  -19.0566   -8.0647 H   0  0  0  0  0  0  0  0  0  0  0  0
   10.4367  -19.9544   -9.5965 H   0  0  0  0  0  0  0  0  0  0  0  0
   10.4387  -18.1582   -9.5965 H   0  0  0  0  0  0  0  0  0  0  0  0
    8.6562  -19.2597  -11.0846 H   0  0  0  0  0  0  0  0  0  0  0  0
    7.0309  -19.8690  -10.4878 H   0  0  0  0  0  0  0  0  0  0  0  0
    7.9645  -17.0950  -10.9637 H   0  0  0  0  0  0  0  0  0  0  0  0
    6.8646  -17.3128  -13.0020 H   0  0  0  0  0  0  0  0  0  0  0  0
    6.3742  -18.9614  -12.5863 H   0  0  0  0  0  0  0  0  0  0  0  0
    4.9940  -16.3960  -12.1400 H   0  0  0  0  0  0  0  0  0  0  0  0
    2.9455  -17.9042  -12.3630 H   0  0  0  0  0  0  0  0  0  0  0  0
    3.9200  -17.3584  -13.8019 H   0  0  0  0  0  0  0  0  0  0  0  0
    5.3098  -19.2449  -15.1632 H   0  0  0  0  0  0  0  0  0  0  0  0
    5.2250  -21.8540  -15.0250 H   0  0  0  0  0  0  0  0  0  0  0  0
    3.5990  -24.4420  -14.0330 H   0  0  0  0  0  0  0  0  0  0  0  0
    5.1910  -24.0310  -13.6020 H   0  0  0  0  0  0  0  0  0  0  0  0
    2.1420  -21.9030  -10.0809 H   0  0  0  0  0  0  0  0  0  0  0  0
    3.9161  -16.9351  -10.1604 H   0  0  0  0  0  0  0  0  0  0  0  0
    4.3744  -18.6141  -10.2416 H   0  0  0  0  0  0  0  0  0  0  0  0
    6.2052  -17.5973   -8.8861 H   0  0  0  0  0  0  0  0  0  0  0  0
    5.8170  -15.4850  -10.8060 H   0  0  0  0  0  0  0  0  0  0  0  0
  1  2  1  0
  2  3  1  0
  3  4  1  0
  4  5  1  0
  5  6  1  0
  6  7  1  0
  7  8  1  0
  8  9  2  0
  9 10  1  0
 10 11  1  0
 11 12  2  0
 12 13  1  0
 12 14  1  0
 14 15  2  0
 15 16  1  0
 16 17  2  0
  6 18  1  0
 18 19  1  0
 19 20  1  0
 19  4  1  0
 17  8  1  0
 17 11  1  0
  1 21  1  0
  1 22  1  0
  1 23  1  0
  3 24  1  0
  3 25  1  0
  4 26  1  6
  5 27  1  0
  5 28  1  0
  6 29  1  1
  7 30  1  0
  7 31  1  0
  9 32  1  0
 10 33  1  0
 13 34  1  0
 13 35  1  0
 15 36  1  0
 18 37  1  0
 18 38  1  0
 19 39  1  1
 20 40  1  0
M  CHG  1   6   1
M  END
>  <meeko>  (1) 
{"is_sidechain": [false], "free_energy": -9.056, "intermolecular_energy": -11.704, "internal_energy": -0.329}

$$$$
