3rlr_ligand
     RDKit          3D

 35 37  0  0  0  0  0  0  0  0999 V2000
   13.8170   -1.0690   55.6780 C   0  0  0  0  0  0  0  0  0  0  0  0
   12.5790   -1.2060   54.9940 O   0  0  0  0  0  0  0  0  0  0  0  0
   12.6020   -1.2240   53.6240 C   0  0  0  0  0  0  0  0  0  0  0  0
   13.7680   -1.2960   52.8510 C   0  0  0  0  0  0  0  0  0  0  0  0
   13.7190   -1.3140   51.4410 C   0  0  0  0  0  0  0  0  0  0  0  0
   14.9710   -1.3890   50.6950 C   0  0  0  0  0  0  0  0  0  0  0  0
   15.5830   -2.5990   50.6320 N   0  0  0  0  0  0  0  0  0  0  0  0
   16.7450   -2.7100   49.9540 C   0  0  0  0  0  0  0  0  0  0  0  0
   17.4080   -4.0540   49.9660 C   0  0  0  0  0  0  0  0  0  0  0  0
   17.3830   -1.7210   49.3000 N   0  0  0  0  0  0  0  0  0  0  0  0
   16.7250   -0.5560   49.3620 C   0  0  0  0  0  0  0  0  0  0  0  0
   17.1520    0.5980   48.7670 N   0  0  0  0  0  0  0  0  0  0  0  0
   16.2460    1.6070   48.9930 C   0  0  0  0  0  0  0  0  0  0  0  0
   16.4430    2.9760   48.4500 C   0  0  0  0  0  0  0  0  0  0  0  0
   15.2250    1.0700   49.7650 C   0  0  0  0  0  0  0  0  0  0  0  0
   14.0690    1.7880   50.2080 C   0  0  0  0  0  0  0  0  0  0  0  0
   13.1240    2.3640   50.5590 N   0  0  0  0  0  0  0  0  0  0  0  0
   15.5310   -0.2990   50.0150 C   0  0  0  0  0  0  0  0  0  0  0  0
   12.4610   -1.2330   50.8180 C   0  0  0  0  0  0  0  0  0  0  0  0
   12.2960   -1.1940   49.0940 Cl  0  0  0  0  0  0  0  0  0  0  0  0
   11.2910   -1.1660   51.5760 C   0  0  0  0  0  0  0  0  0  0  0  0
   11.3630   -1.1660   52.9690 C   0  0  0  0  0  0  0  0  0  0  0  0
    9.8800   -1.0750   53.8540 Cl  0  0  0  0  0  0  0  0  0  0  0  0
   13.6403   -1.0886   56.7635 H   0  0  0  0  0  0  0  0  0  0  0  0
   14.4833   -1.8989   55.4000 H   0  0  0  0  0  0  0  0  0  0  0  0
   14.2857   -0.1135   55.4000 H   0  0  0  0  0  0  0  0  0  0  0  0
   14.7447   -1.3395   53.3551 H   0  0  0  0  0  0  0  0  0  0  0  0
   17.5665   -4.3754   51.0060 H   0  0  0  0  0  0  0  0  0  0  0  0
   16.7666   -4.7839   49.4504 H   0  0  0  0  0  0  0  0  0  0  0  0
   18.3775   -3.9892   49.4504 H   0  0  0  0  0  0  0  0  0  0  0  0
   18.0090    0.6670   48.2340 H   0  0  0  0  0  0  0  0  0  0  0  0
   16.5456    3.6890   49.2814 H   0  0  0  0  0  0  0  0  0  0  0  0
   17.3536    2.9983   47.8333 H   0  0  0  0  0  0  0  0  0  0  0  0
   15.5756    3.2542   47.8333 H   0  0  0  0  0  0  0  0  0  0  0  0
   10.3130   -1.1132   51.0753 H   0  0  0  0  0  0  0  0  0  0  0  0
  1  2  1  0
  2  3  1  0
  3  4  2  0
  4  5  1  0
  5  6  1  0
  6  7  2  0
  7  8  1  0
  8  9  1  0
  8 10  2  0
 10 11  1  0
 11 12  1  0
 12 13  1  0
 13 14  1  0
 13 15  2  0
 15 16  1  0
 16 17  3  0
 15 18  1  0
  5 19  2  0
 19 20  1  0
 19 21  1  0
 21 22  2  0
 22 23  1  0
 22  3  1  0
 18  6  1  0
 18 11  2  0
  1 24  1  0
  1 25  1  0
  1 26  1  0
  4 27  1  0
  9 28  1  0
  9 29  1  0
  9 30  1  0
 12 31  1  0
 14 32  1  0
 14 33  1  0
 14 34  1  0
 21 35  1  0
M  END
>  <meeko>  (1) 
{"is_sidechain": [false], "free_energy": -9.55, "intermolecular_energy": -10.667, "internal_energy": -0.73}

$$$$
3rlr_ligand
     RDKit          3D

 35 37  0  0  0  0  0  0  0  0999 V2000
   13.2000   -2.2590   55.8670 C   0  0  0  0  0  0  0  0  0  0  0  0
   12.5980   -1.1000   55.3060 O   0  0  0  0  0  0  0  0  0  0  0  0
   12.4830   -1.0340   53.9430 C   0  0  0  0  0  0  0  0  0  0  0  0
   13.5410   -0.7480   53.0700 C   0  0  0  0  0  0  0  0  0  0  0  0
   13.3520   -0.7000   51.6730 C   0  0  0  0  0  0  0  0  0  0  0  0
   14.4960   -0.3960   50.8190 C   0  0  0  0  0  0  0  0  0  0  0  0
   14.6070    0.8780   50.3620 N   0  0  0  0  0  0  0  0  0  0  0  0
   15.6500    1.2000   49.5680 C   0  0  0  0  0  0  0  0  0  0  0  0
   15.6920    2.6040   49.0450 C   0  0  0  0  0  0  0  0  0  0  0  0
   16.6340    0.3720   49.1700 N   0  0  0  0  0  0  0  0  0  0  0  0
   16.5000   -0.8630   49.6720 C   0  0  0  0  0  0  0  0  0  0  0  0
   17.3750   -1.8860   49.4330 N   0  0  0  0  0  0  0  0  0  0  0  0
   16.9730   -3.0140   50.1100 C   0  0  0  0  0  0  0  0  0  0  0  0
   17.7450   -4.2830   50.0480 C   0  0  0  0  0  0  0  0  0  0  0  0
   15.8030   -2.6900   50.7820 C   0  0  0  0  0  0  0  0  0  0  0  0
   15.0680   -3.5840   51.6220 C   0  0  0  0  0  0  0  0  0  0  0  0
   14.4750   -4.3040   52.3140 N   0  0  0  0  0  0  0  0  0  0  0  0
   15.4890   -1.3300   50.4960 C   0  0  0  0  0  0  0  0  0  0  0  0
   12.0590   -0.9220   51.1670 C   0  0  0  0  0  0  0  0  0  0  0  0
   11.7120   -0.8320   49.4730 Cl  0  0  0  0  0  0  0  0  0  0  0  0
   10.9970   -1.2130   52.0250 C   0  0  0  0  0  0  0  0  0  0  0  0
   11.2110   -1.2710   53.4020 C   0  0  0  0  0  0  0  0  0  0  0  0
    9.8540   -1.6300   54.4150 Cl  0  0  0  0  0  0  0  0  0  0  0  0
   13.1666   -2.1947   56.9646 H   0  0  0  0  0  0  0  0  0  0  0  0
   12.6526   -3.1536   55.5353 H   0  0  0  0  0  0  0  0  0  0  0  0
   14.2467   -2.3256   55.5353 H   0  0  0  0  0  0  0  0  0  0  0  0
   14.5421   -0.5565   53.4836 H   0  0  0  0  0  0  0  0  0  0  0  0
   15.7131    3.3092   49.8890 H   0  0  0  0  0  0  0  0  0  0  0  0
   16.5946    2.7398   48.4311 H   0  0  0  0  0  0  0  0  0  0  0  0
   14.7991    2.7935   48.4311 H   0  0  0  0  0  0  0  0  0  0  0  0
   18.1950   -1.7940   48.8500 H   0  0  0  0  0  0  0  0  0  0  0  0
   17.9579   -4.6329   51.0689 H   0  0  0  0  0  0  0  0  0  0  0  0
   17.1569   -5.0443   49.5146 H   0  0  0  0  0  0  0  0  0  0  0  0
   18.6915   -4.1107   49.5146 H   0  0  0  0  0  0  0  0  0  0  0  0
    9.9926   -1.3963   51.6156 H   0  0  0  0  0  0  0  0  0  0  0  0
  1  2  1  0
  2  3  1  0
  3  4  2  0
  4  5  1  0
  5  6  1  0
  6  7  2  0
  7  8  1  0
  8  9  1  0
  8 10  2  0
 10 11  1  0
 11 12  1  0
 12 13  1  0
 13 14  1  0
 13 15  2  0
 15 16  1  0
 16 17  3  0
 15 18  1  0
  5 19  2  0
 19 20  1  0
 19 21  1  0
 21 22  2  0
 22 23  1  0
 22  3  1  0
 18  6  1  0
 18 11  2  0
  1 24  1  0
  1 25  1  0
  1 26  1  0
  4 27  1  0
  9 28  1  0
  9 29  1  0
  9 30  1  0
 12 31  1  0
 14 32  1  0
 14 33  1  0
 14 34  1  0
 21 35  1  0
M  END
>  <meeko>  (2) 
{"is_sidechain": [false], "free_energy": -8.283, "intermolecular_energy": -9.277, "internal_energy": -0.704}

$$$$
3rlr_ligand
     RDKit          3D

 35 37  0  0  0  0  0  0  0  0999 V2000
    9.0700   -1.1950   53.4970 C   0  0  0  0  0  0  0  0  0  0  0  0
   10.0030   -2.2610   53.3790 O   0  0  0  0  0  0  0  0  0  0  0  0
   11.3340   -1.9640   53.5100 C   0  0  0  0  0  0  0  0  0  0  0  0
   12.1530   -1.5130   52.4680 C   0  0  0  0  0  0  0  0  0  0  0  0
   13.5180   -1.2220   52.6750 C   0  0  0  0  0  0  0  0  0  0  0  0
   14.3170   -0.7560   51.5450 C   0  0  0  0  0  0  0  0  0  0  0  0
   14.1300    0.5270   51.1430 N   0  0  0  0  0  0  0  0  0  0  0  0
   14.8470    0.9970   50.1000 C   0  0  0  0  0  0  0  0  0  0  0  0
   14.5600    2.4010   49.6600 C   0  0  0  0  0  0  0  0  0  0  0  0
   15.7680    0.3130   49.3940 N   0  0  0  0  0  0  0  0  0  0  0  0
   15.9400   -0.9350   49.8480 C   0  0  0  0  0  0  0  0  0  0  0  0
   16.8280   -1.8280   49.3160 N   0  0  0  0  0  0  0  0  0  0  0  0
   16.7850   -3.0090   50.0200 C   0  0  0  0  0  0  0  0  0  0  0  0
   17.6570   -4.1610   49.6730 C   0  0  0  0  0  0  0  0  0  0  0  0
   15.8310   -2.8530   51.0160 C   0  0  0  0  0  0  0  0  0  0  0  0
   15.4890   -3.8490   51.9850 C   0  0  0  0  0  0  0  0  0  0  0  0
   15.2180   -4.6510   52.7790 N   0  0  0  0  0  0  0  0  0  0  0  0
   15.2810   -1.5440   50.9020 C   0  0  0  0  0  0  0  0  0  0  0  0
   14.0540   -1.4210   53.9590 C   0  0  0  0  0  0  0  0  0  0  0  0
   15.7290   -1.1450   54.3040 Cl  0  0  0  0  0  0  0  0  0  0  0  0
   13.2480   -1.8660   55.0080 C   0  0  0  0  0  0  0  0  0  0  0  0
   11.8970   -2.1320   54.7840 C   0  0  0  0  0  0  0  0  0  0  0  0
   10.9510   -2.6870   56.1210 Cl  0  0  0  0  0  0  0  0  0  0  0  0
    8.8860   -0.9848   54.5610 H   0  0  0  0  0  0  0  0  0  0  0  0
    9.4768   -0.2961   53.0107 H   0  0  0  0  0  0  0  0  0  0  0  0
    8.1252   -1.4792   53.0107 H   0  0  0  0  0  0  0  0  0  0  0  0
   11.7222   -1.3824   51.4643 H   0  0  0  0  0  0  0  0  0  0  0  0
   14.4288    3.0426   50.5438 H   0  0  0  0  0  0  0  0  0  0  0  0
   15.4002    2.7752   49.0567 H   0  0  0  0  0  0  0  0  0  0  0  0
   13.6403    2.4154   49.0567 H   0  0  0  0  0  0  0  0  0  0  0  0
   17.4250   -1.6190   48.5270 H   0  0  0  0  0  0  0  0  0  0  0  0
   18.0183   -4.6384   50.5958 H   0  0  0  0  0  0  0  0  0  0  0  0
   17.0830   -4.8908   49.0832 H   0  0  0  0  0  0  0  0  0  0  0  0
   18.5152   -3.8067   49.0832 H   0  0  0  0  0  0  0  0  0  0  0  0
   13.6778   -2.0069   56.0107 H   0  0  0  0  0  0  0  0  0  0  0  0
  1  2  1  0
  2  3  1  0
  3  4  2  0
  4  5  1  0
  5  6  1  0
  6  7  2  0
  7  8  1  0
  8  9  1  0
  8 10  2  0
 10 11  1  0
 11 12  1  0
 12 13  1  0
 13 14  1  0
 13 15  2  0
 15 16  1  0
 16 17  3  0
 15 18  1  0
  5 19  2  0
 19 20  1  0
 19 21  1  0
 21 22  2  0
 22 23  1  0
 22  3  1  0
 18  6  1  0
 18 11  2  0
  1 24  1  0
  1 25  1  0
  1 26  1  0
  4 27  1  0
  9 28  1  0
  9 29  1  0
  9 30  1  0
 12 31  1  0
 14 32  1  0
 14 33  1  0
 14 34  1  0
 21 35  1  0
M  END
>  <meeko>  (3) 
{"is_sidechain": [false], "free_energy": -7.789, "intermolecular_energy": -8.756, "internal_energy": -0.673}

$$$$
3rlr_ligand
     RDKit          3D

 35 37  0  0  0  0  0  0  0  0999 V2000
    9.3330   -1.6180   52.9700 C   0  0  0  0  0  0  0  0  0  0  0  0
   10.3330   -1.1670   52.0660 O   0  0  0  0  0  0  0  0  0  0  0  0
   11.6360   -1.1960   52.4870 C   0  0  0  0  0  0  0  0  0  0  0  0
   12.7340   -1.4400   51.6520 C   0  0  0  0  0  0  0  0  0  0  0  0
   14.0540   -1.4500   52.1530 C   0  0  0  0  0  0  0  0  0  0  0  0
   15.1540   -1.7120   51.2300 C   0  0  0  0  0  0  0  0  0  0  0  0
   15.6990   -2.9550   51.2530 N   0  0  0  0  0  0  0  0  0  0  0  0
   16.7210   -3.2370   50.4170 C   0  0  0  0  0  0  0  0  0  0  0  0
   17.3240   -4.6050   50.5250 C   0  0  0  0  0  0  0  0  0  0  0  0
   17.2730   -2.3960   49.5220 N   0  0  0  0  0  0  0  0  0  0  0  0
   16.6810   -1.1950   49.5120 C   0  0  0  0  0  0  0  0  0  0  0  0
   17.0420   -0.1690   48.6840 N   0  0  0  0  0  0  0  0  0  0  0  0
   16.2280    0.9180   48.9000 C   0  0  0  0  0  0  0  0  0  0  0  0
   16.3800    2.1780   48.1280 C   0  0  0  0  0  0  0  0  0  0  0  0
   15.3360    0.5640   49.9040 C   0  0  0  0  0  0  0  0  0  0  0  0
   14.3030    1.4110   50.4160 C   0  0  0  0  0  0  0  0  0  0  0  0
   13.4560    2.0910   50.8260 N   0  0  0  0  0  0  0  0  0  0  0  0
   15.6290   -0.7710   50.3070 C   0  0  0  0  0  0  0  0  0  0  0  0
   14.2460   -1.2330   53.5280 C   0  0  0  0  0  0  0  0  0  0  0  0
   15.8190   -1.2800   54.2510 Cl  0  0  0  0  0  0  0  0  0  0  0  0
   13.1610   -0.9840   54.3700 C   0  0  0  0  0  0  0  0  0  0  0  0
   11.8670   -0.9620   53.8500 C   0  0  0  0  0  0  0  0  0  0  0  0
   10.5620   -0.6540   54.9450 Cl  0  0  0  0  0  0  0  0  0  0  0  0
    9.6763   -1.4632   54.0035 H   0  0  0  0  0  0  0  0  0  0  0  0
    8.4052   -1.0512   52.8030 H   0  0  0  0  0  0  0  0  0  0  0  0
    9.1437   -2.6886   52.8030 H   0  0  0  0  0  0  0  0  0  0  0  0
   12.5639   -1.6281   50.5816 H   0  0  0  0  0  0  0  0  0  0  0  0
   17.4414   -4.8713   51.5858 H   0  0  0  0  0  0  0  0  0  0  0  0
   16.6647   -5.3361   50.0342 H   0  0  0  0  0  0  0  0  0  0  0  0
   18.3084   -4.6116   50.0342 H   0  0  0  0  0  0  0  0  0  0  0  0
   17.7950   -0.2330   48.0130 H   0  0  0  0  0  0  0  0  0  0  0  0
   16.4821    3.0241   48.8235 H   0  0  0  0  0  0  0  0  0  0  0  0
   17.2769    2.1139   47.4944 H   0  0  0  0  0  0  0  0  0  0  0  0
   15.4936    2.3290   47.4944 H   0  0  0  0  0  0  0  0  0  0  0  0
   13.3263   -0.8053   55.4427 H   0  0  0  0  0  0  0  0  0  0  0  0
  1  2  1  0
  2  3  1  0
  3  4  2  0
  4  5  1  0
  5  6  1  0
  6  7  2  0
  7  8  1  0
  8  9  1  0
  8 10  2  0
 10 11  1  0
 11 12  1  0
 12 13  1  0
 13 14  1  0
 13 15  2  0
 15 16  1  0
 16 17  3  0
 15 18  1  0
  5 19  2  0
 19 20  1  0
 19 21  1  0
 21 22  2  0
 22 23  1  0
 22  3  1  0
 18  6  1  0
 18 11  2  0
  1 24  1  0
  1 25  1  0
  1 26  1  0
  4 27  1  0
  9 28  1  0
  9 29  1  0
  9 30  1  0
 12 31  1  0
 14 32  1  0
 14 33  1  0
 14 34  1  0
 21 35  1  0
M  END
>  <meeko>  (4) 
{"is_sidechain": [false], "free_energy": -7.098, "intermolecular_energy": -9.223, "internal_energy": 0.566}

$$$$
3rlr_ligand
     RDKit          3D

 35 37  0  0  0  0  0  0  0  0999 V2000
   15.6970   -0.9550   57.2250 C   0  0  0  0  0  0  0  0  0  0  0  0
   16.9170   -1.4790   56.7180 O   0  0  0  0  0  0  0  0  0  0  0  0
   16.9420   -1.8980   55.4150 C   0  0  0  0  0  0  0  0  0  0  0  0
   16.2160   -1.3030   54.3750 C   0  0  0  0  0  0  0  0  0  0  0  0
   16.2920   -1.7860   53.0510 C   0  0  0  0  0  0  0  0  0  0  0  0
   15.5090   -1.1200   52.0150 C   0  0  0  0  0  0  0  0  0  0  0  0
   16.1950   -0.5420   50.9960 N   0  0  0  0  0  0  0  0  0  0  0  0
   15.5090    0.0860   50.0180 C   0  0  0  0  0  0  0  0  0  0  0  0
   16.3170    0.7560   48.9480 C   0  0  0  0  0  0  0  0  0  0  0  0
   14.1700    0.2000   49.9310 N   0  0  0  0  0  0  0  0  0  0  0  0
   13.5360   -0.4130   50.9400 C   0  0  0  0  0  0  0  0  0  0  0  0
   12.1760   -0.4580   51.0760 N   0  0  0  0  0  0  0  0  0  0  0  0
   11.8400   -1.1810   52.1960 C   0  0  0  0  0  0  0  0  0  0  0  0
   10.4250   -1.4100   52.5870 C   0  0  0  0  0  0  0  0  0  0  0  0
   13.0280   -1.5910   52.7870 C   0  0  0  0  0  0  0  0  0  0  0  0
   13.1210   -2.3870   53.9720 C   0  0  0  0  0  0  0  0  0  0  0  0
   13.1990   -3.0420   54.9270 N   0  0  0  0  0  0  0  0  0  0  0  0
   14.1080   -1.0930   52.0020 C   0  0  0  0  0  0  0  0  0  0  0  0
   17.1010   -2.9070   52.7960 C   0  0  0  0  0  0  0  0  0  0  0  0
   17.2200   -3.6090   51.2180 Cl  0  0  0  0  0  0  0  0  0  0  0  0
   17.8330   -3.5070   53.8220 C   0  0  0  0  0  0  0  0  0  0  0  0
   17.7560   -3.0020   55.1200 C   0  0  0  0  0  0  0  0  0  0  0  0
   18.6810   -3.7920   56.3500 Cl  0  0  0  0  0  0  0  0  0  0  0  0
   15.7222   -0.9658   58.3247 H   0  0  0  0  0  0  0  0  0  0  0  0
   15.5667    0.0784   56.8714 H   0  0  0  0  0  0  0  0  0  0  0  0
   14.8578   -1.5721   56.8714 H   0  0  0  0  0  0  0  0  0  0  0  0
   15.5716   -0.4392   54.5955 H   0  0  0  0  0  0  0  0  0  0  0  0
   17.0846    1.3925   49.4125 H   0  0  0  0  0  0  0  0  0  0  0  0
   16.8030   -0.0078   48.3231 H   0  0  0  0  0  0  0  0  0  0  0  0
   15.6564    1.3750   48.3231 H   0  0  0  0  0  0  0  0  0  0  0  0
   11.5360   -0.0240   50.4250 H   0  0  0  0  0  0  0  0  0  0  0  0
   10.3452   -1.4229   53.6840 H   0  0  0  0  0  0  0  0  0  0  0  0
    9.7976   -0.6017   52.1832 H   0  0  0  0  0  0  0  0  0  0  0  0
   10.0846   -2.3749   52.1832 H   0  0  0  0  0  0  0  0  0  0  0  0
   18.4702   -4.3775   53.6071 H   0  0  0  0  0  0  0  0  0  0  0  0
  1  2  1  0
  2  3  1  0
  3  4  2  0
  4  5  1  0
  5  6  1  0
  6  7  2  0
  7  8  1  0
  8  9  1  0
  8 10  2  0
 10 11  1  0
 11 12  1  0
 12 13  1  0
 13 14  1  0
 13 15  2  0
 15 16  1  0
 16 17  3  0
 15 18  1  0
  5 19  2  0
 19 20  1  0
 19 21  1  0
 21 22  2  0
 22 23  1  0
 22  3  1  0
 18  6  1  0
 18 11  2  0
  1 24  1  0
  1 25  1  0
  1 26  1  0
  4 27  1  0
  9 28  1  0
  9 29  1  0
  9 30  1  0
 12 31  1  0
 14 32  1  0
 14 33  1  0
 14 34  1  0
 21 35  1  0
M  END
>  <meeko>  (5) 
{"is_sidechain": [false], "free_energy": -6.896, "intermolecular_energy": -8.064, "internal_energy": -0.368}

$$$$
