2wbg_ligand
     RDKit          3D

 51 52  0  0  0  0  0  0  0  0999 V2000
    1.5690    6.8230   13.8340 C   0  0  0  0  0  0  0  0  0  0  0  0
    0.8300    6.1380   12.6940 C   0  0  0  0  0  0  0  0  0  0  0  0
    0.3820    7.1020   11.5920 C   0  0  0  0  0  0  0  0  0  0  0  0
    1.2590    7.0340   10.3400 C   0  0  0  0  0  0  0  0  0  0  0  0
    2.1540    5.7900   10.2960 C   0  0  0  0  0  0  0  0  0  0  0  0
    3.2300    5.7850    9.2060 C   0  0  0  0  0  0  0  0  0  0  0  0
    2.9050    4.9600    7.9550 C   0  0  0  0  0  0  0  0  0  0  0  0
    3.4890    3.5510    7.9510 C   0  0  0  0  0  0  0  0  0  0  0  0
    3.9800    3.2210    6.6050 N   0  0  0  0  0  0  0  0  0  0  0  0
    5.2520    3.2670    6.2950 C   0  0  0  0  0  0  0  0  0  0  0  0
    6.1320    3.6460    7.2320 O   0  0  0  0  0  0  0  0  0  0  0  0
    7.3190    3.9840    6.4840 C   0  0  0  0  0  0  0  0  0  0  0  0
    7.2210    3.1620    5.2150 C   0  0  2  0  0  0  0  0  0  0  0  0
    7.6960    3.8710    3.9550 C   0  0  1  0  0  0  0  0  0  0  0  0
    9.0840    4.1820    4.0390 O   0  0  0  0  0  0  0  0  0  0  0  0
    7.4110    2.9760    2.7310 C   0  0  2  0  0  0  0  0  0  0  0  0
    7.3020    3.7950    1.5600 O   0  0  0  0  0  0  0  0  0  0  0  0
    6.1760    2.0540    2.8760 C   0  0  1  0  0  0  0  0  0  0  0  0
    6.6070    0.7560    3.3180 O   0  0  0  0  0  0  0  0  0  0  0  0
    5.1360    2.5870    3.8930 C   0  0  2  0  0  0  0  0  0  0  0  0
    4.4990    3.7500    3.4120 O   0  0  0  0  0  0  0  0  0  0  0  0
    5.7810    2.9810    5.1310 N   0  0  0  0  0  0  0  0  0  0  0  0
    1.1772    6.4598   14.7956 H   0  0  0  0  0  0  0  0  0  0  0  0
    2.6426    6.5935   13.7653 H   0  0  0  0  0  0  0  0  0  0  0  0
    1.4215    7.9109   13.7653 H   0  0  0  0  0  0  0  0  0  0  0  0
    1.4973    5.3855   12.2486 H   0  0  0  0  0  0  0  0  0  0  0  0
   -0.0788    5.6884   13.1206 H   0  0  0  0  0  0  0  0  0  0  0  0
   -0.6516    6.8538   11.3090 H   0  0  0  0  0  0  0  0  0  0  0  0
    0.4657    8.1220   11.9953 H   0  0  0  0  0  0  0  0  0  0  0  0
    0.6053    7.0258    9.4553 H   0  0  0  0  0  0  0  0  0  0  0  0
    1.9210    7.9124   10.3567 H   0  0  0  0  0  0  0  0  0  0  0  0
    2.6585    5.7019   11.2695 H   0  0  0  0  0  0  0  0  0  0  0  0
    1.4861    4.9478   10.0623 H   0  0  0  0  0  0  0  0  0  0  0  0
    3.3966    6.8256    8.8908 H   0  0  0  0  0  0  0  0  0  0  0  0
    4.1127    5.3092    9.6581 H   0  0  0  0  0  0  0  0  0  0  0  0
    1.8111    4.8777    7.8735 H   0  0  0  0  0  0  0  0  0  0  0  0
    3.3637    5.4887    7.1065 H   0  0  0  0  0  0  0  0  0  0  0  0
    4.3224    3.4987    8.6671 H   0  0  0  0  0  0  0  0  0  0  0  0
    2.7078    2.8324    8.2397 H   0  0  0  0  0  0  0  0  0  0  0  0
    3.3320    2.9990    5.8650 H   0  0  0  0  0  0  0  0  0  0  0  0
    7.3370    5.0586    6.2497 H   0  0  0  0  0  0  0  0  0  0  0  0
    8.2400    3.7723    7.0469 H   0  0  0  0  0  0  0  0  0  0  0  0
    7.8477    2.2593    5.2642 H   0  0  0  0  0  0  0  0  0  0  0  0
    7.1492    4.8194    3.8478 H   0  0  0  0  0  0  0  0  0  0  0  0
    9.1990    5.1090    3.7490 H   0  0  0  0  0  0  0  0  0  0  0  0
    8.2645    2.2875    2.6444 H   0  0  0  0  0  0  0  0  0  0  0  0
    8.1400    4.2640    1.3990 H   0  0  0  0  0  0  0  0  0  0  0  0
    5.6924    2.0125    1.8889 H   0  0  0  0  0  0  0  0  0  0  0  0
    7.4850    0.5810    2.9220 H   0  0  0  0  0  0  0  0  0  0  0  0
    4.4151    1.7710    4.0492 H   0  0  0  0  0  0  0  0  0  0  0  0
    5.0460    4.0960    2.6810 H   0  0  0  0  0  0  0  0  0  0  0  0
  1  2  1  0
  2  3  1  0
  3  4  1  0
  4  5  1  0
  5  6  1  0
  6  7  1  0
  7  8  1  0
  8  9  1  0
  9 10  2  0
 10 11  1  0
 11 12  1  0
 12 13  1  0
 13 14  1  0
 14 15  1  0
 14 16  1  0
 16 17  1  0
 16 18  1  0
 18 19  1  0
 18 20  1  0
 20 21  1  0
 20 22  1  0
 22 10  1  0
 22 13  1  0
  1 23  1  0
  1 24  1  0
  1 25  1  0
  2 26  1  0
  2 27  1  0
  3 28  1  0
  3 29  1  0
  4 30  1  0
  4 31  1  0
  5 32  1  0
  5 33  1  0
  6 34  1  0
  6 35  1  0
  7 36  1  0
  7 37  1  0
  8 38  1  0
  8 39  1  0
  9 40  1  0
 12 41  1  0
 12 42  1  0
 13 43  1  1
 14 44  1  6
 15 45  1  0
 16 46  1  6
 17 47  1  0
 18 48  1  6
 19 49  1  0
 20 50  1  1
 21 51  1  0
M  CHG  1   9   1
M  END
>  <meeko>  (1) 
{"is_sidechain": [false], "free_energy": -7.975, "intermolecular_energy": -12.17, "internal_energy": -0.368}

$$$$
2wbg_ligand
     RDKit          3D

 51 52  0  0  0  0  0  0  0  0999 V2000
    0.2130    7.1840   11.6080 C   0  0  0  0  0  0  0  0  0  0  0  0
    0.9140    7.1810   10.2590 C   0  0  0  0  0  0  0  0  0  0  0  0
    2.0100    6.1180   10.1440 C   0  0  0  0  0  0  0  0  0  0  0  0
    2.2050    5.3130   11.4310 C   0  0  0  0  0  0  0  0  0  0  0  0
    3.6460    5.3450   11.9510 C   0  0  0  0  0  0  0  0  0  0  0  0
    4.5470    6.4250   11.3420 C   0  0  0  0  0  0  0  0  0  0  0  0
    5.7040    5.9140   10.4750 C   0  0  0  0  0  0  0  0  0  0  0  0
    5.7320    6.4730    9.0560 C   0  0  0  0  0  0  0  0  0  0  0  0
    4.8600    5.6670    8.1890 N   0  0  0  0  0  0  0  0  0  0  0  0
    5.3320    4.9400    7.2060 C   0  0  0  0  0  0  0  0  0  0  0  0
    6.6510    4.9470    6.9730 O   0  0  0  0  0  0  0  0  0  0  0  0
    6.7760    4.4160    5.6370 C   0  0  0  0  0  0  0  0  0  0  0  0
    5.5450    3.5520    5.4510 C   0  0  2  0  0  0  0  0  0  0  0  0
    4.9250    3.6130    4.0620 C   0  0  1  0  0  0  0  0  0  0  0  0
    5.8280    3.1140    3.0800 O   0  0  0  0  0  0  0  0  0  0  0  0
    3.6130    2.8020    4.0560 C   0  0  2  0  0  0  0  0  0  0  0  0
    2.7570    3.2930    3.0160 O   0  0  0  0  0  0  0  0  0  0  0  0
    2.8670    2.7670    5.4130 C   0  0  1  0  0  0  0  0  0  0  0  0
    3.2260    1.5660    6.1160 O   0  0  0  0  0  0  0  0  0  0  0  0
    3.2020    3.9750    6.3220 C   0  0  2  0  0  0  0  0  0  0  0  0
    2.6710    5.1730    5.7990 O   0  0  0  0  0  0  0  0  0  0  0  0
    4.6360    4.1840    6.3930 N   0  0  0  0  0  0  0  0  0  0  0  0
    0.9642    7.1808   12.4116 H   0  0  0  0  0  0  0  0  0  0  0  0
   -0.4124    8.0848   11.6943 H   0  0  0  0  0  0  0  0  0  0  0  0
   -0.4200    6.2886   11.6943 H   0  0  0  0  0  0  0  0  0  0  0  0
    0.1636    6.9937    9.4768 H   0  0  0  0  0  0  0  0  0  0  0  0
    1.3998    8.1612   10.1440 H   0  0  0  0  0  0  0  0  0  0  0  0
    1.7403    5.4237    9.3346 H   0  0  0  0  0  0  0  0  0  0  0  0
    2.9549    6.6428    9.9398 H   0  0  0  0  0  0  0  0  0  0  0  0
    1.5443    5.7281   12.2064 H   0  0  0  0  0  0  0  0  0  0  0  0
    1.9641    4.2648   11.2004 H   0  0  0  0  0  0  0  0  0  0  0  0
    3.6097    5.5083   13.0382 H   0  0  0  0  0  0  0  0  0  0  0  0
    4.0919    4.3825   11.6600 H   0  0  0  0  0  0  0  0  0  0  0  0
    3.9186    7.0767   10.7172 H   0  0  0  0  0  0  0  0  0  0  0  0
    5.0152    6.9404   12.1936 H   0  0  0  0  0  0  0  0  0  0  0  0
    6.6485    6.1858   10.9691 H   0  0  0  0  0  0  0  0  0  0  0  0
    5.5635    4.8273   10.3782 H   0  0  0  0  0  0  0  0  0  0  0  0
    5.3766    7.5140    9.0659 H   0  0  0  0  0  0  0  0  0  0  0  0
    6.7618    6.4381    8.6708 H   0  0  0  0  0  0  0  0  0  0  0  0
    3.8580    5.6980    8.3010 H   0  0  0  0  0  0  0  0  0  0  0  0
    6.7950    5.2291    4.8964 H   0  0  0  0  0  0  0  0  0  0  0  0
    7.7081    3.8483    5.4998 H   0  0  0  0  0  0  0  0  0  0  0  0
    5.7699    2.4850    5.5956 H   0  0  0  0  0  0  0  0  0  0  0  0
    4.7068    4.6616    3.8113 H   0  0  0  0  0  0  0  0  0  0  0  0
    5.3280    3.0020    2.2460 H   0  0  0  0  0  0  0  0  0  0  0  0
    3.8951    1.7561    3.8648 H   0  0  0  0  0  0  0  0  0  0  0  0
    2.6900    4.2630    3.0660 H   0  0  0  0  0  0  0  0  0  0  0  0
    1.7913    2.8044    5.1859 H   0  0  0  0  0  0  0  0  0  0  0  0
    2.6440    1.4920    6.9000 H   0  0  0  0  0  0  0  0  0  0  0  0
    2.7727    3.7439    7.3080 H   0  0  0  0  0  0  0  0  0  0  0  0
    2.2450    5.6460    6.5380 H   0  0  0  0  0  0  0  0  0  0  0  0
  1  2  1  0
  2  3  1  0
  3  4  1  0
  4  5  1  0
  5  6  1  0
  6  7  1  0
  7  8  1  0
  8  9  1  0
  9 10  2  0
 10 11  1  0
 11 12  1  0
 12 13  1  0
 13 14  1  0
 14 15  1  0
 14 16  1  0
 16 17  1  0
 16 18  1  0
 18 19  1  0
 18 20  1  0
 20 21  1  0
 20 22  1  0
 22 10  1  0
 22 13  1  0
  1 23  1  0
  1 24  1  0
  1 25  1  0
  2 26  1  0
  2 27  1  0
  3 28  1  0
  3 29  1  0
  4 30  1  0
  4 31  1  0
  5 32  1  0
  5 33  1  0
  6 34  1  0
  6 35  1  0
  7 36  1  0
  7 37  1  0
  8 38  1  0
  8 39  1  0
  9 40  1  0
 12 41  1  0
 12 42  1  0
 13 43  1  1
 14 44  1  6
 15 45  1  0
 16 46  1  6
 17 47  1  0
 18 48  1  6
 19 49  1  0
 20 50  1  1
 21 51  1  0
M  CHG  1   9   1
M  END
>  <meeko>  (2) 
{"is_sidechain": [false], "free_energy": -7.725, "intermolecular_energy": -11.49, "internal_energy": -0.667}

$$$$
2wbg_ligand
     RDKit          3D

 51 52  0  0  0  0  0  0  0  0999 V2000
    3.1170    5.4090    5.4400 C   0  0  0  0  0  0  0  0  0  0  0  0
    2.8360    4.1360    4.6580 C   0  0  0  0  0  0  0  0  0  0  0  0
    4.0370    3.1900    4.5800 C   0  0  0  0  0  0  0  0  0  0  0  0
    5.3800    3.9100    4.7250 C   0  0  0  0  0  0  0  0  0  0  0  0
    6.4010    3.1220    5.5510 C   0  0  0  0  0  0  0  0  0  0  0  0
    6.9040    3.8150    6.8220 C   0  0  0  0  0  0  0  0  0  0  0  0
    5.8620    4.0110    7.9290 C   0  0  0  0  0  0  0  0  0  0  0  0
    5.6400    5.4620    8.3460 C   0  0  0  0  0  0  0  0  0  0  0  0
    5.1120    5.5090    9.7170 N   0  0  0  0  0  0  0  0  0  0  0  0
    3.8280    5.5800    9.9690 C   0  0  0  0  0  0  0  0  0  0  0  0
    2.9700    5.6320    8.9410 O   0  0  0  0  0  0  0  0  0  0  0  0
    1.7430    6.1130    9.5300 C   0  0  0  0  0  0  0  0  0  0  0  0
    1.8260    5.6950   10.9850 C   0  0  2  0  0  0  0  0  0  0  0  0
    1.2770    6.7120   11.9740 C   0  0  1  0  0  0  0  0  0  0  0  0
   -0.1180    6.9180   11.7710 O   0  0  0  0  0  0  0  0  0  0  0  0
    1.5500    6.2210   13.4110 C   0  0  2  0  0  0  0  0  0  0  0  0
    1.5840    7.3460   14.2980 O   0  0  0  0  0  0  0  0  0  0  0  0
    2.8250    5.3560   13.5680 C   0  0  1  0  0  0  0  0  0  0  0  0
    2.4620    3.9670   13.5100 O   0  0  0  0  0  0  0  0  0  0  0  0
    3.8810    5.6250   12.4670 C   0  0  2  0  0  0  0  0  0  0  0  0
    4.4540    6.9070   12.6090 O   0  0  0  0  0  0  0  0  0  0  0  0
    3.2680    5.6150   11.1530 N   0  0  0  0  0  0  0  0  0  0  0  0
    3.0698    5.1951    6.5180 H   0  0  0  0  0  0  0  0  0  0  0  0
    4.1193    5.7829    5.1839 H   0  0  0  0  0  0  0  0  0  0  0  0
    2.3652    6.1701    5.1839 H   0  0  0  0  0  0  0  0  0  0  0  0
    2.0051    3.6045    5.1449 H   0  0  0  0  0  0  0  0  0  0  0  0
    2.5927    4.4359    3.6280 H   0  0  0  0  0  0  0  0  0  0  0  0
    3.9497    2.4465    5.3860 H   0  0  0  0  0  0  0  0  0  0  0  0
    4.0217    2.7225    3.5844 H   0  0  0  0  0  0  0  0  0  0  0  0
    5.7971    4.0775    3.7210 H   0  0  0  0  0  0  0  0  0  0  0  0
    5.1890    4.8543    5.2559 H   0  0  0  0  0  0  0  0  0  0  0  0
    5.9346    2.1707    5.8467 H   0  0  0  0  0  0  0  0  0  0  0  0
    7.2831    3.0042    4.9045 H   0  0  0  0  0  0  0  0  0  0  0  0
    7.7253    3.2103    7.2342 H   0  0  0  0  0  0  0  0  0  0  0  0
    7.2064    4.8263    6.5124 H   0  0  0  0  0  0  0  0  0  0  0  0
    4.9032    3.6064    7.5726 H   0  0  0  0  0  0  0  0  0  0  0  0
    6.2492    3.4885    8.8162 H   0  0  0  0  0  0  0  0  0  0  0  0
    6.5958    6.0048    8.3036 H   0  0  0  0  0  0  0  0  0  0  0  0
    4.9178    5.9310    7.6616 H   0  0  0  0  0  0  0  0  0  0  0  0
    5.7400    5.5410   10.5050 H   0  0  0  0  0  0  0  0  0  0  0  0
    1.6742    7.2075    9.4440 H   0  0  0  0  0  0  0  0  0  0  0  0
    0.8526    5.7048    9.0294 H   0  0  0  0  0  0  0  0  0  0  0  0
    1.2377    4.7869   11.1831 H   0  0  0  0  0  0  0  0  0  0  0  0
    1.7822    7.6761   11.8152 H   0  0  0  0  0  0  0  0  0  0  0  0
   -0.2190    7.6390   11.1160 H   0  0  0  0  0  0  0  0  0  0  0  0
    0.7209    5.5469   13.6721 H   0  0  0  0  0  0  0  0  0  0  0  0
    2.4180    7.3520   14.8000 H   0  0  0  0  0  0  0  0  0  0  0  0
    3.2730    5.6225   14.5367 H   0  0  0  0  0  0  0  0  0  0  0  0
    1.8750    3.7780   14.2700 H   0  0  0  0  0  0  0  0  0  0  0  0
    4.6393    4.8349   12.5700 H   0  0  0  0  0  0  0  0  0  0  0  0
    4.7070    7.0070   13.5460 H   0  0  0  0  0  0  0  0  0  0  0  0
  1  2  1  0
  2  3  1  0
  3  4  1  0
  4  5  1  0
  5  6  1  0
  6  7  1  0
  7  8  1  0
  8  9  1  0
  9 10  2  0
 10 11  1  0
 11 12  1  0
 12 13  1  0
 13 14  1  0
 14 15  1  0
 14 16  1  0
 16 17  1  0
 16 18  1  0
 18 19  1  0
 18 20  1  0
 20 21  1  0
 20 22  1  0
 22 10  1  0
 22 13  1  0
  1 23  1  0
  1 24  1  0
  1 25  1  0
  2 26  1  0
  2 27  1  0
  3 28  1  0
  3 29  1  0
  4 30  1  0
  4 31  1  0
  5 32  1  0
  5 33  1  0
  6 34  1  0
  6 35  1  0
  7 36  1  0
  7 37  1  0
  8 38  1  0
  8 39  1  0
  9 40  1  0
 12 41  1  0
 12 42  1  0
 13 43  1  6
 14 44  1  6
 15 45  1  0
 16 46  1  1
 17 47  1  0
 18 48  1  1
 19 49  1  0
 20 50  1  6
 21 51  1  0
M  CHG  1   9   1
M  END
>  <meeko>  (3) 
{"is_sidechain": [false], "free_energy": -7.415, "intermolecular_energy": -11.025, "internal_energy": -0.66}

$$$$
2wbg_ligand
     RDKit          3D

 51 52  0  0  0  0  0  0  0  0999 V2000
    7.5160    6.4060    9.2680 C   0  0  0  0  0  0  0  0  0  0  0  0
    6.3350    6.7550   10.1610 C   0  0  0  0  0  0  0  0  0  0  0  0
    5.6780    5.5320   10.8080 C   0  0  0  0  0  0  0  0  0  0  0  0
    4.2390    5.7920   11.2610 C   0  0  0  0  0  0  0  0  0  0  0  0
    3.2160    4.8840   10.5710 C   0  0  0  0  0  0  0  0  0  0  0  0
    2.5480    5.4670    9.3220 C   0  0  0  0  0  0  0  0  0  0  0  0
    3.1120    4.9850    7.9800 C   0  0  0  0  0  0  0  0  0  0  0  0
    3.6370    3.5530    7.9870 C   0  0  0  0  0  0  0  0  0  0  0  0
    4.0970    3.1870    6.6390 N   0  0  0  0  0  0  0  0  0  0  0  0
    5.3610    3.2290    6.2980 C   0  0  0  0  0  0  0  0  0  0  0  0
    6.2610    3.6380    7.2020 O   0  0  0  0  0  0  0  0  0  0  0  0
    7.4290    3.9590    6.4170 C   0  0  0  0  0  0  0  0  0  0  0  0
    7.3040    3.1010    5.1740 C   0  0  2  0  0  0  0  0  0  0  0  0
    7.7460    3.7760    3.8840 C   0  0  1  0  0  0  0  0  0  0  0  0
    9.1340    4.0940    3.9260 O   0  0  0  0  0  0  0  0  0  0  0  0
    7.4360    2.8460    2.6930 C   0  0  2  0  0  0  0  0  0  0  0  0
    7.2950    3.6310    1.5020 O   0  0  0  0  0  0  0  0  0  0  0  0
    6.2090    1.9240    2.8930 C   0  0  1  0  0  0  0  0  0  0  0  0
    6.6560    0.6400    3.3600 O   0  0  0  0  0  0  0  0  0  0  0  0
    5.1910    2.4810    3.9190 C   0  0  2  0  0  0  0  0  0  0  0  0
    4.5380    3.6280    3.4210 O   0  0  0  0  0  0  0  0  0  0  0  0
    5.8630    2.9120    5.1300 N   0  0  0  0  0  0  0  0  0  0  0  0
    8.3845    6.1493    9.8923 H   0  0  0  0  0  0  0  0  0  0  0  0
    7.2542    5.5468    8.6330 H   0  0  0  0  0  0  0  0  0  0  0  0
    7.7633    7.2695    8.6330 H   0  0  0  0  0  0  0  0  0  0  0  0
    6.6877    7.4244   10.9595 H   0  0  0  0  0  0  0  0  0  0  0  0
    5.5759    7.2315    9.5233 H   0  0  0  0  0  0  0  0  0  0  0  0
    5.6717    4.7102   10.0768 H   0  0  0  0  0  0  0  0  0  0  0  0
    6.2637    5.2812   11.7047 H   0  0  0  0  0  0  0  0  0  0  0  0
    4.1786    5.6251   12.3466 H   0  0  0  0  0  0  0  0  0  0  0  0
    3.9925    6.8287   10.9882 H   0  0  0  0  0  0  0  0  0  0  0  0
    3.7302    3.9568   10.2779 H   0  0  0  0  0  0  0  0  0  0  0  0
    2.4074    4.7332   11.3014 H   0  0  0  0  0  0  0  0  0  0  0  0
    1.4808    5.2023    9.3547 H   0  0  0  0  0  0  0  0  0  0  0  0
    2.7404    6.5495    9.3567 H   0  0  0  0  0  0  0  0  0  0  0  0
    2.3122    5.0531    7.2279 H   0  0  0  0  0  0  0  0  0  0  0  0
    3.9736    5.6308    7.7550 H   0  0  0  0  0  0  0  0  0  0  0  0
    4.4764    3.4748    8.6936 H   0  0  0  0  0  0  0  0  0  0  0  0
    2.8306    2.8709    8.2944 H   0  0  0  0  0  0  0  0  0  0  0  0
    3.4320    2.9430    5.9210 H   0  0  0  0  0  0  0  0  0  0  0  0
    7.4372    5.0266    6.1523 H   0  0  0  0  0  0  0  0  0  0  0  0
    8.3640    3.7665    6.9636 H   0  0  0  0  0  0  0  0  0  0  0  0
    7.9354    2.2022    5.2332 H   0  0  0  0  0  0  0  0  0  0  0  0
    7.1929    4.7191    3.7635 H   0  0  0  0  0  0  0  0  0  0  0  0
    9.6340    3.2640    3.7860 H   0  0  0  0  0  0  0  0  0  0  0  0
    8.2906    2.1589    2.6058 H   0  0  0  0  0  0  0  0  0  0  0  0
    6.8570    3.1100    0.8060 H   0  0  0  0  0  0  0  0  0  0  0  0
    5.7023    1.8535    1.9192 H   0  0  0  0  0  0  0  0  0  0  0  0
    7.4030    0.3590    2.7950 H   0  0  0  0  0  0  0  0  0  0  0  0
    4.4777    1.6668    4.1148 H   0  0  0  0  0  0  0  0  0  0  0  0
    3.8210    3.3190    2.8340 H   0  0  0  0  0  0  0  0  0  0  0  0
  1  2  1  0
  2  3  1  0
  3  4  1  0
  4  5  1  0
  5  6  1  0
  6  7  1  0
  7  8  1  0
  8  9  1  0
  9 10  2  0
 10 11  1  0
 11 12  1  0
 12 13  1  0
 13 14  1  0
 14 15  1  0
 14 16  1  0
 16 17  1  0
 16 18  1  0
 18 19  1  0
 18 20  1  0
 20 21  1  0
 20 22  1  0
 22 10  1  0
 22 13  1  0
  1 23  1  0
  1 24  1  0
  1 25  1  0
  2 26  1  0
  2 27  1  0
  3 28  1  0
  3 29  1  0
  4 30  1  0
  4 31  1  0
  5 32  1  0
  5 33  1  0
  6 34  1  0
  6 35  1  0
  7 36  1  0
  7 37  1  0
  8 38  1  0
  8 39  1  0
  9 40  1  0
 12 41  1  0
 12 42  1  0
 13 43  1  1
 14 44  1  6
 15 45  1  0
 16 46  1  6
 17 47  1  0
 18 48  1  6
 19 49  1  0
 20 50  1  1
 21 51  1  0
M  CHG  1   9   1
M  END
>  <meeko>  (4) 
{"is_sidechain": [false], "free_energy": -7.382, "intermolecular_energy": -10.965, "internal_energy": -0.669}

$$$$
2wbg_ligand
     RDKit          3D

 51 52  0  0  0  0  0  0  0  0999 V2000
    2.8340    4.6300   13.7500 C   0  0  0  0  0  0  0  0  0  0  0  0
    1.6980    5.4890   14.2830 C   0  0  0  0  0  0  0  0  0  0  0  0
    1.4690    6.7670   13.4720 C   0  0  0  0  0  0  0  0  0  0  0  0
    0.6120    6.5430   12.2240 C   0  0  0  0  0  0  0  0  0  0  0  0
    1.2100    7.1680   10.9600 C   0  0  0  0  0  0  0  0  0  0  0  0
    1.7560    6.1780    9.9250 C   0  0  0  0  0  0  0  0  0  0  0  0
    3.2830    6.0440    9.8740 C   0  0  0  0  0  0  0  0  0  0  0  0
    3.7940    4.6080    9.8180 C   0  0  0  0  0  0  0  0  0  0  0  0
    4.8040    4.4830    8.7560 N   0  0  0  0  0  0  0  0  0  0  0  0
    4.4860    4.1780    7.5220 C   0  0  0  0  0  0  0  0  0  0  0  0
    3.1990    3.9540    7.2240 O   0  0  0  0  0  0  0  0  0  0  0  0
    3.2460    3.2620    5.9580 C   0  0  0  0  0  0  0  0  0  0  0  0
    4.5490    3.7080    5.3250 C   0  0  2  0  0  0  0  0  0  0  0  0
    5.2980    2.6200    4.5680 C   0  0  1  0  0  0  0  0  0  0  0  0
    4.5350    2.1560    3.4580 O   0  0  0  0  0  0  0  0  0  0  0  0
    6.6600    3.1730    4.1000 C   0  0  2  0  0  0  0  0  0  0  0  0
    7.5770    2.0860    3.9210 O   0  0  0  0  0  0  0  0  0  0  0  0
    7.2680    4.2610    5.0190 C   0  0  1  0  0  0  0  0  0  0  0  0
    6.9290    5.5580    4.5000 O   0  0  0  0  0  0  0  0  0  0  0  0
    6.7570    4.1780    6.4790 C   0  0  2  0  0  0  0  0  0  0  0  0
    7.2490    3.0270    7.1290 O   0  0  0  0  0  0  0  0  0  0  0  0
    5.3120    4.0560    6.5130 N   0  0  0  0  0  0  0  0  0  0  0  0
    3.3979    4.2036   14.5928 H   0  0  0  0  0  0  0  0  0  0  0  0
    2.4212    3.8161   13.1358 H   0  0  0  0  0  0  0  0  0  0  0  0
    3.5047    5.2489   13.1358 H   0  0  0  0  0  0  0  0  0  0  0  0
    0.7729    4.8941   14.2646 H   0  0  0  0  0  0  0  0  0  0  0  0
    1.9747    5.7968   15.3022 H   0  0  0  0  0  0  0  0  0  0  0  0
    0.9648    7.5035   14.1149 H   0  0  0  0  0  0  0  0  0  0  0  0
    2.4541    7.1204   13.1333 H   0  0  0  0  0  0  0  0  0  0  0  0
    0.5068    5.4601   12.0621 H   0  0  0  0  0  0  0  0  0  0  0  0
   -0.3577    7.0309   12.4020 H   0  0  0  0  0  0  0  0  0  0  0  0
    0.4249    7.7662   10.4745 H   0  0  0  0  0  0  0  0  0  0  0  0
    2.0751    7.7580   11.2970 H   0  0  0  0  0  0  0  0  0  0  0  0
    1.3371    5.1865   10.1518 H   0  0  0  0  0  0  0  0  0  0  0  0
    1.4568    6.5747    8.9436 H   0  0  0  0  0  0  0  0  0  0  0  0
    3.6438    6.5715    8.9787 H   0  0  0  0  0  0  0  0  0  0  0  0
    3.6646    6.4738   10.8119 H   0  0  0  0  0  0  0  0  0  0  0  0
    4.2455    4.3424   10.7853 H   0  0  0  0  0  0  0  0  0  0  0  0
    2.9543    3.9303    9.6042 H   0  0  0  0  0  0  0  0  0  0  0  0
    5.7850    4.5790    8.9710 H   0  0  0  0  0  0  0  0  0  0  0  0
    3.2416    2.1727    6.1108 H   0  0  0  0  0  0  0  0  0  0  0  0
    2.3757    3.4911    5.3255 H   0  0  0  0  0  0  0  0  0  0  0  0
    4.3887    4.4938    4.5721 H   0  0  0  0  0  0  0  0  0  0  0  0
    5.4637    1.7638    5.2385 H   0  0  0  0  0  0  0  0  0  0  0  0
    4.8420    2.6390    2.6640 H   0  0  0  0  0  0  0  0  0  0  0  0
    6.4749    3.6857    3.1445 H   0  0  0  0  0  0  0  0  0  0  0  0
    7.1230    1.3290    3.5100 H   0  0  0  0  0  0  0  0  0  0  0  0
    8.3554    4.0953    5.0326 H   0  0  0  0  0  0  0  0  0  0  0  0
    7.1660    6.2230    5.1780 H   0  0  0  0  0  0  0  0  0  0  0  0
    7.1015    5.0967    6.9763 H   0  0  0  0  0  0  0  0  0  0  0  0
    6.5540    2.7230    7.7420 H   0  0  0  0  0  0  0  0  0  0  0  0
  1  2  1  0
  2  3  1  0
  3  4  1  0
  4  5  1  0
  5  6  1  0
  6  7  1  0
  7  8  1  0
  8  9  1  0
  9 10  2  0
 10 11  1  0
 11 12  1  0
 12 13  1  0
 13 14  1  0
 14 15  1  0
 14 16  1  0
 16 17  1  0
 16 18  1  0
 18 19  1  0
 18 20  1  0
 20 21  1  0
 20 22  1  0
 22 10  1  0
 22 13  1  0
  1 23  1  0
  1 24  1  0
  1 25  1  0
  2 26  1  0
  2 27  1  0
  3 28  1  0
  3 29  1  0
  4 30  1  0
  4 31  1  0
  5 32  1  0
  5 33  1  0
  6 34  1  0
  6 35  1  0
  7 36  1  0
  7 37  1  0
  8 38  1  0
  8 39  1  0
  9 40  1  0
 12 41  1  0
 12 42  1  0
 13 43  1  6
 14 44  1  1
 15 45  1  0
 16 46  1  6
 17 47  1  0
 18 48  1  1
 19 49  1  0
 20 50  1  1
 21 51  1  0
M  CHG  1   9   1
M  END
>  <meeko>  (5) 
{"is_sidechain": [false], "free_energy": -7.361, "intermolecular_energy": -11.047, "internal_energy": -0.554}

$$$$
2wbg_ligand
     RDKit          3D

 51 52  0  0  0  0  0  0  0  0999 V2000
    0.2990    7.0750   11.7410 C   0  0  0  0  0  0  0  0  0  0  0  0
    1.0140    7.3500   10.4270 C   0  0  0  0  0  0  0  0  0  0  0  0
    1.8510    6.1690    9.9290 C   0  0  0  0  0  0  0  0  0  0  0  0
    2.8560    5.6640   10.9680 C   0  0  0  0  0  0  0  0  0  0  0  0
    4.1280    6.5150   11.0410 C   0  0  0  0  0  0  0  0  0  0  0  0
    5.4480    5.7500   10.9050 C   0  0  0  0  0  0  0  0  0  0  0  0
    6.6000    6.5210   10.2500 C   0  0  0  0  0  0  0  0  0  0  0  0
    6.2940    7.0600    8.8560 C   0  0  0  0  0  0  0  0  0  0  0  0
    6.6000    6.0330    7.8500 N   0  0  0  0  0  0  0  0  0  0  0  0
    5.6630    5.3320    7.2600 C   0  0  0  0  0  0  0  0  0  0  0  0
    4.3850    5.5460    7.6010 O   0  0  0  0  0  0  0  0  0  0  0  0
    3.6900    4.3810    7.1110 C   0  0  0  0  0  0  0  0  0  0  0  0
    4.5410    3.8800    5.9610 C   0  0  2  0  0  0  0  0  0  0  0  0
    4.6450    2.3660    5.8540 C   0  0  1  0  0  0  0  0  0  0  0  0
    3.3700    1.7860    5.5950 O   0  0  0  0  0  0  0  0  0  0  0  0
    5.6450    2.0040    4.7370 C   0  0  2  0  0  0  0  0  0  0  0  0
    6.1840    0.7000    4.9870 O   0  0  0  0  0  0  0  0  0  0  0  0
    6.7780    3.0370    4.5210 C   0  0  1  0  0  0  0  0  0  0  0  0
    6.4080    3.9260    3.4550 O   0  0  0  0  0  0  0  0  0  0  0  0
    7.0700    3.8900    5.7810 C   0  0  2  0  0  0  0  0  0  0  0  0
    7.6580    3.1130    6.8010 O   0  0  0  0  0  0  0  0  0  0  0  0
    5.8400    4.4090    6.3470 N   0  0  0  0  0  0  0  0  0  0  0  0
    0.9629    7.3303   12.5801 H   0  0  0  0  0  0  0  0  0  0  0  0
   -0.6139    7.6862   11.7966 H   0  0  0  0  0  0  0  0  0  0  0  0
    0.0309    6.0096   11.7966 H   0  0  0  0  0  0  0  0  0  0  0  0
    0.2593    7.5886    9.6631 H   0  0  0  0  0  0  0  0  0  0  0  0
    1.7067    8.1859   10.6041 H   0  0  0  0  0  0  0  0  0  0  0  0
    1.1719    5.3437    9.6690 H   0  0  0  0  0  0  0  0  0  0  0  0
    2.4265    6.5187    9.0592 H   0  0  0  0  0  0  0  0  0  0  0  0
    2.3721    5.6733   11.9558 H   0  0  0  0  0  0  0  0  0  0  0  0
    3.1578    4.6505   10.6651 H   0  0  0  0  0  0  0  0  0  0  0  0
    4.0837    7.2590   10.2320 H   0  0  0  0  0  0  0  0  0  0  0  0
    4.1380    6.9530   12.0500 H   0  0  0  0  0  0  0  0  0  0  0  0
    5.7712    5.4521   11.9134 H   0  0  0  0  0  0  0  0  0  0  0  0
    5.2357    4.9033   10.2357 H   0  0  0  0  0  0  0  0  0  0  0  0
    6.8551    7.3723   10.8983 H   0  0  0  0  0  0  0  0  0  0  0  0
    7.4263    5.8046   10.1320 H   0  0  0  0  0  0  0  0  0  0  0  0
    5.2289    7.3277    8.7931 H   0  0  0  0  0  0  0  0  0  0  0  0
    6.9105    7.9511    8.6664 H   0  0  0  0  0  0  0  0  0  0  0  0
    7.5570    5.8060    7.6260 H   0  0  0  0  0  0  0  0  0  0  0  0
    3.6123    3.6163    7.8978 H   0  0  0  0  0  0  0  0  0  0  0  0
    2.6612    4.6116    6.7975 H   0  0  0  0  0  0  0  0  0  0  0  0
    4.1326    4.1874    4.9870 H   0  0  0  0  0  0  0  0  0  0  0  0
    5.0058    1.9614    6.8111 H   0  0  0  0  0  0  0  0  0  0  0  0
    3.4990    1.0580    4.9530 H   0  0  0  0  0  0  0  0  0  0  0  0
    5.0755    2.0141    3.7960 H   0  0  0  0  0  0  0  0  0  0  0  0
    6.8010    0.7310    5.7400 H   0  0  0  0  0  0  0  0  0  0  0  0
    7.6876    2.4665    4.2817 H   0  0  0  0  0  0  0  0  0  0  0  0
    6.4810    4.8430    3.7910 H   0  0  0  0  0  0  0  0  0  0  0  0
    7.7428    4.6969    5.4552 H   0  0  0  0  0  0  0  0  0  0  0  0
    7.4400    2.1800    6.6140 H   0  0  0  0  0  0  0  0  0  0  0  0
  1  2  1  0
  2  3  1  0
  3  4  1  0
  4  5  1  0
  5  6  1  0
  6  7  1  0
  7  8  1  0
  8  9  1  0
  9 10  2  0
 10 11  1  0
 11 12  1  0
 12 13  1  0
 13 14  1  0
 14 15  1  0
 14 16  1  0
 16 17  1  0
 16 18  1  0
 18 19  1  0
 18 20  1  0
 20 21  1  0
 20 22  1  0
 22 10  1  0
 22 13  1  0
  1 23  1  0
  1 24  1  0
  1 25  1  0
  2 26  1  0
  2 27  1  0
  3 28  1  0
  3 29  1  0
  4 30  1  0
  4 31  1  0
  5 32  1  0
  5 33  1  0
  6 34  1  0
  6 35  1  0
  7 36  1  0
  7 37  1  0
  8 38  1  0
  8 39  1  0
  9 40  1  0
 12 41  1  0
 12 42  1  0
 13 43  1  6
 14 44  1  1
 15 45  1  0
 16 46  1  6
 17 47  1  0
 18 48  1  6
 19 49  1  0
 20 50  1  6
 21 51  1  0
M  CHG  1   9   1
M  END
>  <meeko>  (6) 
{"is_sidechain": [false], "free_energy": -7.276, "intermolecular_energy": -10.777, "internal_energy": -0.695}

$$$$
2wbg_ligand
     RDKit          3D

 51 52  0  0  0  0  0  0  0  0999 V2000
    9.6010    6.1110    5.5730 C   0  0  0  0  0  0  0  0  0  0  0  0
   10.2640    7.4800    5.5470 C   0  0  0  0  0  0  0  0  0  0  0  0
   10.3140    8.1590    6.9180 C   0  0  0  0  0  0  0  0  0  0  0  0
    8.9370    8.5970    7.4230 C   0  0  0  0  0  0  0  0  0  0  0  0
    8.6890    8.2350    8.8910 C   0  0  0  0  0  0  0  0  0  0  0  0
    7.8180    6.9970    9.1310 C   0  0  0  0  0  0  0  0  0  0  0  0
    6.5570    6.8940    8.2650 C   0  0  0  0  0  0  0  0  0  0  0  0
    5.7190    5.6420    8.5070 C   0  0  0  0  0  0  0  0  0  0  0  0
    5.1600    5.6750    9.8660 N   0  0  0  0  0  0  0  0  0  0  0  0
    3.8690    5.6880   10.0900 C   0  0  0  0  0  0  0  0  0  0  0  0
    3.0320    5.6910    9.0440 O   0  0  0  0  0  0  0  0  0  0  0  0
    1.7720    6.1180    9.6020 C   0  0  0  0  0  0  0  0  0  0  0  0
    1.8420    5.7160   11.0620 C   0  0  2  0  0  0  0  0  0  0  0  0
    1.2250    6.7130   12.0310 C   0  0  1  0  0  0  0  0  0  0  0  0
   -0.1740    6.8520   11.7960 O   0  0  0  0  0  0  0  0  0  0  0  0
    1.4890    6.2470   13.4770 C   0  0  2  0  0  0  0  0  0  0  0  0
    1.4510    7.3780   14.3550 O   0  0  0  0  0  0  0  0  0  0  0  0
    2.8000    5.4440   13.6690 C   0  0  1  0  0  0  0  0  0  0  0  0
    2.5030    4.0390   13.6150 O   0  0  0  0  0  0  0  0  0  0  0  0
    3.8660    5.7530   12.5890 C   0  0  2  0  0  0  0  0  0  0  0  0
    4.3740    7.0620   12.7310 O   0  0  0  0  0  0  0  0  0  0  0  0
    3.2820    5.7050   11.2620 N   0  0  0  0  0  0  0  0  0  0  0  0
    9.4489    5.7970    6.6162 H   0  0  0  0  0  0  0  0  0  0  0  0
    8.6290    6.1645    5.0608 H   0  0  0  0  0  0  0  0  0  0  0  0
   10.2457    5.3816    5.0608 H   0  0  0  0  0  0  0  0  0  0  0  0
   11.2939    7.3614    5.1792 H   0  0  0  0  0  0  0  0  0  0  0  0
    9.6582    8.1211    4.8897 H   0  0  0  0  0  0  0  0  0  0  0  0
   10.7440    7.4522    7.6430 H   0  0  0  0  0  0  0  0  0  0  0  0
   10.9277    9.0658    6.8122 H   0  0  0  0  0  0  0  0  0  0  0  0
    8.8555    9.6885    7.3135 H   0  0  0  0  0  0  0  0  0  0  0  0
    8.1844    8.0641    6.8234 H   0  0  0  0  0  0  0  0  0  0  0  0
    9.6656    8.0585    9.3654 H   0  0  0  0  0  0  0  0  0  0  0  0
    8.1322    9.0816    9.3192 H   0  0  0  0  0  0  0  0  0  0  0  0
    8.4348    6.1070    8.9373 H   0  0  0  0  0  0  0  0  0  0  0  0
    7.4634    7.0762   10.1693 H   0  0  0  0  0  0  0  0  0  0  0  0
    5.9277    7.7726    8.4699 H   0  0  0  0  0  0  0  0  0  0  0  0
    6.8999    6.8419    7.2211 H   0  0  0  0  0  0  0  0  0  0  0  0
    4.8987    5.6039    7.7751 H   0  0  0  0  0  0  0  0  0  0  0  0
    6.3547    4.7511    8.3961 H   0  0  0  0  0  0  0  0  0  0  0  0
    5.7690    5.7420   10.6670 H   0  0  0  0  0  0  0  0  0  0  0  0
    1.6539    7.2073    9.5048 H   0  0  0  0  0  0  0  0  0  0  0  0
    0.9131    5.6642    9.0860 H   0  0  0  0  0  0  0  0  0  0  0  0
    1.2917    4.7832   11.2545 H   0  0  0  0  0  0  0  0  0  0  0  0
    1.6885    7.6984   11.8754 H   0  0  0  0  0  0  0  0  0  0  0  0
   -0.3610    6.5020   10.9010 H   0  0  0  0  0  0  0  0  0  0  0  0
    0.6864    5.5371   13.7256 H   0  0  0  0  0  0  0  0  0  0  0  0
    0.5390    7.5390   14.6560 H   0  0  0  0  0  0  0  0  0  0  0  0
    3.2140    5.7391   14.6445 H   0  0  0  0  0  0  0  0  0  0  0  0
    1.6620    3.9290   13.1290 H   0  0  0  0  0  0  0  0  0  0  0  0
    4.6580    5.0001   12.7155 H   0  0  0  0  0  0  0  0  0  0  0  0
    3.8110    7.5210   13.3820 H   0  0  0  0  0  0  0  0  0  0  0  0
  1  2  1  0
  2  3  1  0
  3  4  1  0
  4  5  1  0
  5  6  1  0
  6  7  1  0
  7  8  1  0
  8  9  1  0
  9 10  2  0
 10 11  1  0
 11 12  1  0
 12 13  1  0
 13 14  1  0
 14 15  1  0
 14 16  1  0
 16 17  1  0
 16 18  1  0
 18 19  1  0
 18 20  1  0
 20 21  1  0
 20 22  1  0
 22 10  1  0
 22 13  1  0
  1 23  1  0
  1 24  1  0
  1 25  1  0
  2 26  1  0
  2 27  1  0
  3 28  1  0
  3 29  1  0
  4 30  1  0
  4 31  1  0
  5 32  1  0
  5 33  1  0
  6 34  1  0
  6 35  1  0
  7 36  1  0
  7 37  1  0
  8 38  1  0
  8 39  1  0
  9 40  1  0
 12 41  1  0
 12 42  1  0
 13 43  1  6
 14 44  1  1
 15 45  1  0
 16 46  1  1
 17 47  1  0
 18 48  1  1
 19 49  1  0
 20 50  1  6
 21 51  1  0
M  CHG  1   9   1
M  END
>  <meeko>  (7) 
{"is_sidechain": [false], "free_energy": -6.962, "intermolecular_energy": -10.44, "internal_energy": -0.554}

$$$$
2wbg_ligand
     RDKit          3D

 51 52  0  0  0  0  0  0  0  0999 V2000
    2.6660    4.7060   14.1490 C   0  0  0  0  0  0  0  0  0  0  0  0
    2.2870    5.7460   13.1060 C   0  0  0  0  0  0  0  0  0  0  0  0
    3.4850    6.5270   12.5600 C   0  0  0  0  0  0  0  0  0  0  0  0
    4.2280    5.7880   11.4450 C   0  0  0  0  0  0  0  0  0  0  0  0
    5.2780    6.6540   10.7410 C   0  0  0  0  0  0  0  0  0  0  0  0
    6.5470    5.9230   10.2910 C   0  0  0  0  0  0  0  0  0  0  0  0
    7.3750    6.6320    9.2120 C   0  0  0  0  0  0  0  0  0  0  0  0
    7.7510    5.7570    8.0200 C   0  0  0  0  0  0  0  0  0  0  0  0
    6.5330    5.2050    7.4070 N   0  0  0  0  0  0  0  0  0  0  0  0
    6.5760    4.2910    6.4690 C   0  0  0  0  0  0  0  0  0  0  0  0
    7.7700    3.8600    6.0420 O   0  0  0  0  0  0  0  0  0  0  0  0
    7.4820    3.2150    4.7830 C   0  0  0  0  0  0  0  0  0  0  0  0
    6.0360    2.7760    4.8990 C   0  0  2  0  0  0  0  0  0  0  0  0
    5.2190    2.9230    3.6240 C   0  0  1  0  0  0  0  0  0  0  0  0
    5.7340    2.0880    2.5910 O   0  0  0  0  0  0  0  0  0  0  0  0
    3.7460    2.5750    3.9210 C   0  0  2  0  0  0  0  0  0  0  0  0
    2.9010    3.2290    2.9670 O   0  0  0  0  0  0  0  0  0  0  0  0
    3.2870    2.8840    5.3680 C   0  0  1  0  0  0  0  0  0  0  0  0
    3.3910    1.6900    6.1600 O   0  0  0  0  0  0  0  0  0  0  0  0
    4.1310    3.9900    6.0500 C   0  0  2  0  0  0  0  0  0  0  0  0
    3.8970    5.2500    5.4590 O   0  0  0  0  0  0  0  0  0  0  0  0
    5.5480    3.7360    5.8760 N   0  0  0  0  0  0  0  0  0  0  0  0
    2.5139    5.1235   15.1553 H   0  0  0  0  0  0  0  0  0  0  0  0
    2.0353    3.8136   14.0231 H   0  0  0  0  0  0  0  0  0  0  0  0
    3.7230    4.4287   14.0231 H   0  0  0  0  0  0  0  0  0  0  0  0
    1.7934    5.2339   12.2669 H   0  0  0  0  0  0  0  0  0  0  0  0
    1.6243    6.4725   13.5990 H   0  0  0  0  0  0  0  0  0  0  0  0
    3.1248    7.4876   12.1632 H   0  0  0  0  0  0  0  0  0  0  0  0
    4.1931    6.6629   13.3908 H   0  0  0  0  0  0  0  0  0  0  0  0
    4.7322    4.9131   11.8813 H   0  0  0  0  0  0  0  0  0  0  0  0
    3.4816    5.5013   10.6896 H   0  0  0  0  0  0  0  0  0  0  0  0
    4.8089    7.0969    9.8501 H   0  0  0  0  0  0  0  0  0  0  0  0
    5.6058    7.3938   11.4861 H   0  0  0  0  0  0  0  0  0  0  0  0
    7.1888    5.7853   11.1736 H   0  0  0  0  0  0  0  0  0  0  0  0
    6.2057    4.9811    9.8368 H   0  0  0  0  0  0  0  0  0  0  0  0
    6.7919    7.4870    8.8392 H   0  0  0  0  0  0  0  0  0  0  0  0
    8.3201    6.9287    9.6903 H   0  0  0  0  0  0  0  0  0  0  0  0
    8.2918    6.3626    7.2779 H   0  0  0  0  0  0  0  0  0  0  0  0
    8.3932    4.9319    8.3617 H   0  0  0  0  0  0  0  0  0  0  0  0
    5.6260    5.5630    7.6630 H   0  0  0  0  0  0  0  0  0  0  0  0
    7.6078    3.9200    3.9480 H   0  0  0  0  0  0  0  0  0  0  0  0
    8.1588    2.3713    4.5826 H   0  0  0  0  0  0  0  0  0  0  0  0
    5.9528    1.7075    5.1468 H   0  0  0  0  0  0  0  0  0  0  0  0
    5.2837    3.9638    3.2740 H   0  0  0  0  0  0  0  0  0  0  0  0
    5.7960    2.6270    1.7760 H   0  0  0  0  0  0  0  0  0  0  0  0
    3.6607    1.4823    3.8274 H   0  0  0  0  0  0  0  0  0  0  0  0
    3.3950    3.9330    2.5090 H   0  0  0  0  0  0  0  0  0  0  0  0
    2.2496    3.2438    5.3028 H   0  0  0  0  0  0  0  0  0  0  0  0
    3.2930    0.9230    5.5610 H   0  0  0  0  0  0  0  0  0  0  0  0
    3.8419    3.9858    7.1113 H   0  0  0  0  0  0  0  0  0  0  0  0
    4.7470    5.5580    5.0920 H   0  0  0  0  0  0  0  0  0  0  0  0
  1  2  1  0
  2  3  1  0
  3  4  1  0
  4  5  1  0
  5  6  1  0
  6  7  1  0
  7  8  1  0
  8  9  1  0
  9 10  2  0
 10 11  1  0
 11 12  1  0
 12 13  1  0
 13 14  1  0
 14 15  1  0
 14 16  1  0
 16 17  1  0
 16 18  1  0
 18 19  1  0
 18 20  1  0
 20 21  1  0
 20 22  1  0
 22 10  1  0
 22 13  1  0
  1 23  1  0
  1 24  1  0
  1 25  1  0
  2 26  1  0
  2 27  1  0
  3 28  1  0
  3 29  1  0
  4 30  1  0
  4 31  1  0
  5 32  1  0
  5 33  1  0
  6 34  1  0
  6 35  1  0
  7 36  1  0
  7 37  1  0
  8 38  1  0
  8 39  1  0
  9 40  1  0
 12 41  1  0
 12 42  1  0
 13 43  1  1
 14 44  1  6
 15 45  1  0
 16 46  1  6
 17 47  1  0
 18 48  1  6
 19 49  1  0
 20 50  1  1
 21 51  1  0
M  CHG  1   9   1
M  END
>  <meeko>  (8) 
{"is_sidechain": [false], "free_energy": -6.893, "intermolecular_energy": -10.558, "internal_energy": -0.33}

$$$$
2wbg_ligand
     RDKit          3D

 51 52  0  0  0  0  0  0  0  0999 V2000
    2.7660    5.4700    8.3660 C   0  0  0  0  0  0  0  0  0  0  0  0
    3.5710    4.1800    8.3520 C   0  0  0  0  0  0  0  0  0  0  0  0
    4.8400    4.2440    9.2060 C   0  0  0  0  0  0  0  0  0  0  0  0
    4.8620    5.4380   10.1630 C   0  0  0  0  0  0  0  0  0  0  0  0
    6.2760    5.8410   10.5940 C   0  0  0  0  0  0  0  0  0  0  0  0
    7.1510    6.4630    9.5010 C   0  0  0  0  0  0  0  0  0  0  0  0
    6.6340    7.7760    8.9020 C   0  0  0  0  0  0  0  0  0  0  0  0
    6.2120    7.6870    7.4390 C   0  0  0  0  0  0  0  0  0  0  0  0
    6.6430    6.3990    6.8770 N   0  0  0  0  0  0  0  0  0  0  0  0
    5.9520    5.7720    5.9570 C   0  0  0  0  0  0  0  0  0  0  0  0
    4.8050    6.3150    5.5290 O   0  0  0  0  0  0  0  0  0  0  0  0
    4.1220    5.2250    4.8730 C   0  0  0  0  0  0  0  0  0  0  0  0
    5.2290    4.2910    4.4280 C   0  0  2  0  0  0  0  0  0  0  0  0
    4.9080    2.8100    4.5610 C   0  0  1  0  0  0  0  0  0  0  0  0
    3.8150    2.4480    3.7220 O   0  0  0  0  0  0  0  0  0  0  0  0
    6.1620    1.9840    4.2080 C   0  0  2  0  0  0  0  0  0  0  0  0
    6.0870    0.7060    4.8510 O   0  0  0  0  0  0  0  0  0  0  0  0
    7.5080    2.6830    4.5250 C   0  0  1  0  0  0  0  0  0  0  0  0
    7.9950    3.3280    3.3370 O   0  0  0  0  0  0  0  0  0  0  0  0
    7.3890    3.7520    5.6400 C   0  0  2  0  0  0  0  0  0  0  0  0
    7.1370    3.1570    6.8940 O   0  0  0  0  0  0  0  0  0  0  0  0
    6.2630    4.6310    5.3920 N   0  0  0  0  0  0  0  0  0  0  0  0
    2.5769    5.7730    9.4064 H   0  0  0  0  0  0  0  0  0  0  0  0
    3.3313    6.2606    7.8509 H   0  0  0  0  0  0  0  0  0  0  0  0
    1.8074    5.3096    7.8509 H   0  0  0  0  0  0  0  0  0  0  0  0
    2.9346    3.3681    8.7339 H   0  0  0  0  0  0  0  0  0  0  0  0
    3.8881    4.0072    7.3130 H   0  0  0  0  0  0  0  0  0  0  0  0
    4.9100    3.3197    9.7983 H   0  0  0  0  0  0  0  0  0  0  0  0
    5.6913    4.3595    8.5190 H   0  0  0  0  0  0  0  0  0  0  0  0
    4.3915    6.2966    9.6615 H   0  0  0  0  0  0  0  0  0  0  0  0
    4.3167    5.1393   11.0704 H   0  0  0  0  0  0  0  0  0  0  0  0
    6.1850    6.5719   11.4110 H   0  0  0  0  0  0  0  0  0  0  0  0
    6.7786    4.9070   10.8855 H   0  0  0  0  0  0  0  0  0  0  0  0
    8.1442    6.6564    9.9325 H   0  0  0  0  0  0  0  0  0  0  0  0
    7.1574    5.7382    8.6736 H   0  0  0  0  0  0  0  0  0  0  0  0
    5.7635    8.1016    9.4904 H   0  0  0  0  0  0  0  0  0  0  0  0
    7.4729    8.4864    8.9405 H   0  0  0  0  0  0  0  0  0  0  0  0
    5.1173    7.7688    7.3685 H   0  0  0  0  0  0  0  0  0  0  0  0
    6.6806    8.5063    6.8740 H   0  0  0  0  0  0  0  0  0  0  0  0
    7.4660    5.9360    7.2320 H   0  0  0  0  0  0  0  0  0  0  0  0
    3.4424    4.7159    5.5723 H   0  0  0  0  0  0  0  0  0  0  0  0
    3.5027    5.5679    4.0311 H   0  0  0  0  0  0  0  0  0  0  0  0
    5.4645    4.4170    3.3609 H   0  0  0  0  0  0  0  0  0  0  0  0
    4.6134    2.5989    5.5996 H   0  0  0  0  0  0  0  0  0  0  0  0
    3.9240    2.9210    2.8720 H   0  0  0  0  0  0  0  0  0  0  0  0
    6.1578    1.8668    3.1143 H   0  0  0  0  0  0  0  0  0  0  0  0
    5.3850    0.1670    4.4450 H   0  0  0  0  0  0  0  0  0  0  0  0
    8.1969    1.9019    4.8790 H   0  0  0  0  0  0  0  0  0  0  0  0
    7.5700    4.2080    3.2780 H   0  0  0  0  0  0  0  0  0  0  0  0
    8.3424    4.3006    5.6420 H   0  0  0  0  0  0  0  0  0  0  0  0
    6.8190    2.2500    6.7250 H   0  0  0  0  0  0  0  0  0  0  0  0
  1  2  1  0
  2  3  1  0
  3  4  1  0
  4  5  1  0
  5  6  1  0
  6  7  1  0
  7  8  1  0
  8  9  1  0
  9 10  2  0
 10 11  1  0
 11 12  1  0
 12 13  1  0
 13 14  1  0
 14 15  1  0
 14 16  1  0
 16 17  1  0
 16 18  1  0
 18 19  1  0
 18 20  1  0
 20 21  1  0
 20 22  1  0
 22 10  1  0
 22 13  1  0
  1 23  1  0
  1 24  1  0
  1 25  1  0
  2 26  1  0
  2 27  1  0
  3 28  1  0
  3 29  1  0
  4 30  1  0
  4 31  1  0
  5 32  1  0
  5 33  1  0
  6 34  1  0
  6 35  1  0
  7 36  1  0
  7 37  1  0
  8 38  1  0
  8 39  1  0
  9 40  1  0
 12 41  1  0
 12 42  1  0
 13 43  1  6
 14 44  1  1
 15 45  1  0
 16 46  1  6
 17 47  1  0
 18 48  1  1
 19 49  1  0
 20 50  1  1
 21 51  1  0
M  CHG  1   9   1
M  END
>  <meeko>  (9) 
{"is_sidechain": [false], "free_energy": -6.853, "intermolecular_energy": -9.672, "internal_energy": -1.155}

$$$$
