3kr8_ligand
     RDKit          3D

 32 34  0  0  0  0  0  0  0  0999 V2000
   37.4140  -10.5360  -14.8700 O   0  0  0  0  0  0  0  0  0  0  0  0
   38.1260  -11.2050  -14.1290 C   0  0  0  0  0  0  0  0  0  0  0  0
   38.2320  -10.9280  -12.8000 N   0  0  0  0  0  0  0  0  0  0  0  0
   39.0160  -11.6670  -11.9560 C   0  0  0  0  0  0  0  0  0  0  0  0
   39.0280  -11.2720  -10.5220 C   0  0  0  0  0  0  0  0  0  0  0  0
   38.6550   -9.9880  -10.1040 C   0  0  0  0  0  0  0  0  0  0  0  0
   38.6820   -9.6590   -8.7440 C   0  0  0  0  0  0  0  0  0  0  0  0
   39.0960  -10.5970   -7.7850 C   0  0  0  0  0  0  0  0  0  0  0  0
   39.1040  -10.2420   -6.3170 C   0  0  0  0  0  0  0  0  0  0  0  0
   39.6570   -9.0190   -6.0860 F   0  0  0  0  0  0  0  0  0  0  0  0
   39.8170  -11.1240   -5.5620 F   0  0  0  0  0  0  0  0  0  0  0  0
   37.8600  -10.2020   -5.7670 F   0  0  0  0  0  0  0  0  0  0  0  0
   39.4740  -11.8780   -8.2130 C   0  0  0  0  0  0  0  0  0  0  0  0
   39.4470  -12.2100   -9.5700 C   0  0  0  0  0  0  0  0  0  0  0  0
   39.7110  -12.6790  -12.3670 N   0  0  0  0  0  0  0  0  0  0  0  0
   39.6650  -13.0070  -13.7040 C   0  0  0  0  0  0  0  0  0  0  0  0
   38.9230  -12.3530  -14.6170 C   0  0  0  0  0  0  0  0  0  0  0  0
   38.7890  -12.6420  -16.0800 C   0  0  0  0  0  0  0  0  0  0  0  0
   39.4340  -14.2650  -16.5790 S   0  0  0  0  0  0  0  0  0  0  0  0
   40.9210  -14.2720  -15.5460 C   0  0  0  0  0  0  0  0  0  0  0  0
   40.5520  -14.1770  -14.0710 C   0  0  0  0  0  0  0  0  0  0  0  0
   37.6460  -10.1760  -12.4720 H   0  0  0  0  0  0  0  0  0  0  0  0
   38.3408   -9.2382  -10.8450 H   0  0  0  0  0  0  0  0  0  0  0  0
   38.3750   -8.6529   -8.4224 H   0  0  0  0  0  0  0  0  0  0  0  0
   39.7944  -12.6275   -7.4743 H   0  0  0  0  0  0  0  0  0  0  0  0
   39.7569  -13.2149   -9.8928 H   0  0  0  0  0  0  0  0  0  0  0  0
   37.7221  -12.5985  -16.3442 H   0  0  0  0  0  0  0  0  0  0  0  0
   39.3894  -11.8867  -16.6082 H   0  0  0  0  0  0  0  0  0  0  0  0
   41.4771  -15.2050  -15.7198 H   0  0  0  0  0  0  0  0  0  0  0  0
   41.5409  -13.4032  -15.8123 H   0  0  0  0  0  0  0  0  0  0  0  0
   40.0280  -15.1027  -13.7908 H   0  0  0  0  0  0  0  0  0  0  0  0
   41.4970  -14.0263  -13.5285 H   0  0  0  0  0  0  0  0  0  0  0  0
  1  2  2  0
  2  3  1  0
  3  4  1  0
  4  5  1  0
  5  6  2  0
  6  7  1  0
  7  8  2  0
  8  9  1  0
  9 10  1  0
  9 11  1  0
  9 12  1  0
  8 13  1  0
 13 14  2  0
  4 15  2  0
 15 16  1  0
 16 17  2  0
 17 18  1  0
 18 19  1  0
 19 20  1  0
 20 21  1  0
 17  2  1  0
 14  5  1  0
 21 16  1  0
  3 22  1  0
  6 23  1  0
  7 24  1  0
 13 25  1  0
 14 26  1  0
 18 27  1  0
 18 28  1  0
 20 29  1  0
 20 30  1  0
 21 31  1  0
 21 32  1  0
M  END
>  <meeko>  (1) 
{"is_sidechain": [false], "free_energy": -11.538, "intermolecular_energy": -12.887, "internal_energy": -0.401}

$$$$
3kr8_ligand
     RDKit          3D

 32 34  0  0  0  0  0  0  0  0999 V2000
   38.3150   -7.9870   -9.4220 O   0  0  0  0  0  0  0  0  0  0  0  0
   38.6930   -9.1530   -9.4520 C   0  0  0  0  0  0  0  0  0  0  0  0
   38.7730   -9.8470  -10.6210 N   0  0  0  0  0  0  0  0  0  0  0  0
   39.1980  -11.1470  -10.6760 C   0  0  0  0  0  0  0  0  0  0  0  0
   39.2590  -11.7840  -12.0200 C   0  0  0  0  0  0  0  0  0  0  0  0
   40.0500  -12.9110  -12.2710 C   0  0  0  0  0  0  0  0  0  0  0  0
   40.0780  -13.4770  -13.5500 C   0  0  0  0  0  0  0  0  0  0  0  0
   39.3300  -12.9190  -14.5990 C   0  0  0  0  0  0  0  0  0  0  0  0
   39.3480  -13.5450  -15.9730 C   0  0  0  0  0  0  0  0  0  0  0  0
   38.1320  -13.4820  -16.5840 F   0  0  0  0  0  0  0  0  0  0  0  0
   39.6870  -14.8650  -15.9500 F   0  0  0  0  0  0  0  0  0  0  0  0
   40.2280  -12.9500  -16.8240 F   0  0  0  0  0  0  0  0  0  0  0  0
   38.5440  -11.7860  -14.3410 C   0  0  0  0  0  0  0  0  0  0  0  0
   38.5150  -11.2190  -13.0630 C   0  0  0  0  0  0  0  0  0  0  0  0
   39.5510  -11.8040   -9.6180 N   0  0  0  0  0  0  0  0  0  0  0  0
   39.4800  -11.1690   -8.3980 C   0  0  0  0  0  0  0  0  0  0  0  0
   39.0830   -9.8940   -8.2310 C   0  0  0  0  0  0  0  0  0  0  0  0
   38.9910   -9.1110   -6.9580 C   0  0  0  0  0  0  0  0  0  0  0  0
   39.8440   -9.8800   -5.5510 S   0  0  0  0  0  0  0  0  0  0  0  0
   39.3620  -11.5950   -5.8730 C   0  0  0  0  0  0  0  0  0  0  0  0
   39.8750  -12.0520   -7.2330 C   0  0  0  0  0  0  0  0  0  0  0  0
   38.5520   -9.3160  -11.4490 H   0  0  0  0  0  0  0  0  0  0  0  0
   40.6503  -13.3522  -11.4617 H   0  0  0  0  0  0  0  0  0  0  0  0
   40.6932  -14.3697  -13.7360 H   0  0  0  0  0  0  0  0  0  0  0  0
   37.9462  -11.3404  -15.1498 H   0  0  0  0  0  0  0  0  0  0  0  0
   37.9040  -10.3237  -12.8760 H   0  0  0  0  0  0  0  0  0  0  0  0
   39.4337   -8.1188   -7.1300 H   0  0  0  0  0  0  0  0  0  0  0  0
   37.9246   -9.0604   -6.6932 H   0  0  0  0  0  0  0  0  0  0  0  0
   39.7859  -12.2422   -5.0910 H   0  0  0  0  0  0  0  0  0  0  0  0
   38.2640  -11.6606   -5.8688 H   0  0  0  0  0  0  0  0  0  0  0  0
   40.9736  -12.0867   -7.1888 H   0  0  0  0  0  0  0  0  0  0  0  0
   39.4131  -13.0324   -7.4211 H   0  0  0  0  0  0  0  0  0  0  0  0
  1  2  2  0
  2  3  1  0
  3  4  1  0
  4  5  1  0
  5  6  2  0
  6  7  1  0
  7  8  2  0
  8  9  1  0
  9 10  1  0
  9 11  1  0
  9 12  1  0
  8 13  1  0
 13 14  2  0
  4 15  2  0
 15 16  1  0
 16 17  2  0
 17 18  1  0
 18 19  1  0
 19 20  1  0
 20 21  1  0
 17  2  1  0
 14  5  1  0
 21 16  1  0
  3 22  1  0
  6 23  1  0
  7 24  1  0
 13 25  1  0
 14 26  1  0
 18 27  1  0
 18 28  1  0
 20 29  1  0
 20 30  1  0
 21 31  1  0
 21 32  1  0
M  END
>  <meeko>  (2) 
{"is_sidechain": [false], "free_energy": -10.62, "intermolecular_energy": -11.863, "internal_energy": -0.399}

$$$$
3kr8_ligand
     RDKit          3D

 32 34  0  0  0  0  0  0  0  0999 V2000
   41.3530  -15.1450  -13.3140 O   0  0  0  0  0  0  0  0  0  0  0  0
   40.6320  -14.1540  -13.3210 C   0  0  0  0  0  0  0  0  0  0  0  0
   40.3680  -13.4550  -12.1820 N   0  0  0  0  0  0  0  0  0  0  0  0
   39.5710  -12.3420  -12.1710 C   0  0  0  0  0  0  0  0  0  0  0  0
   39.3790  -11.6590  -10.8630 C   0  0  0  0  0  0  0  0  0  0  0  0
   39.4690  -12.3470   -9.6470 C   0  0  0  0  0  0  0  0  0  0  0  0
   39.2810  -11.6650   -8.4400 C   0  0  0  0  0  0  0  0  0  0  0  0
   38.9860  -10.2920   -8.4290 C   0  0  0  0  0  0  0  0  0  0  0  0
   38.8040   -9.5570   -7.1230 C   0  0  0  0  0  0  0  0  0  0  0  0
   38.7260   -8.2080   -7.2980 F   0  0  0  0  0  0  0  0  0  0  0  0
   39.8290   -9.7620   -6.2500 F   0  0  0  0  0  0  0  0  0  0  0  0
   37.6720   -9.9150   -6.4570 F   0  0  0  0  0  0  0  0  0  0  0  0
   38.8920   -9.6110   -9.6510 C   0  0  0  0  0  0  0  0  0  0  0  0
   39.0800  -10.2910  -10.8590 C   0  0  0  0  0  0  0  0  0  0  0  0
   39.0120  -11.8810  -13.2440 N   0  0  0  0  0  0  0  0  0  0  0  0
   39.2210  -12.5480  -14.4300 C   0  0  0  0  0  0  0  0  0  0  0  0
   39.9910  -13.6450  -14.5550 C   0  0  0  0  0  0  0  0  0  0  0  0
   40.2970  -14.4260  -15.7960 C   0  0  0  0  0  0  0  0  0  0  0  0
   39.8510  -13.5760  -17.3370 S   0  0  0  0  0  0  0  0  0  0  0  0
   38.2730  -12.8760  -16.7900 C   0  0  0  0  0  0  0  0  0  0  0  0
   38.4810  -11.9420  -15.6040 C   0  0  0  0  0  0  0  0  0  0  0  0
   40.8490  -13.7820  -11.3590 H   0  0  0  0  0  0  0  0  0  0  0  0
   39.6878  -13.4250   -9.6406 H   0  0  0  0  0  0  0  0  0  0  0  0
   39.3652  -12.2105   -7.4885 H   0  0  0  0  0  0  0  0  0  0  0  0
   38.6687   -8.5339   -9.6599 H   0  0  0  0  0  0  0  0  0  0  0  0
   38.9924   -9.7478  -11.8115 H   0  0  0  0  0  0  0  0  0  0  0  0
   41.3772  -14.6331  -15.8161 H   0  0  0  0  0  0  0  0  0  0  0  0
   39.6891  -15.3417  -15.7520 H   0  0  0  0  0  0  0  0  0  0  0  0
   37.8213  -12.3118  -17.6192 H   0  0  0  0  0  0  0  0  0  0  0  0
   37.6094  -13.6973  -16.4816 H   0  0  0  0  0  0  0  0  0  0  0  0
   39.0529  -11.0698  -15.9536 H   0  0  0  0  0  0  0  0  0  0  0  0
   37.4764  -11.6884  -15.2345 H   0  0  0  0  0  0  0  0  0  0  0  0
  1  2  2  0
  2  3  1  0
  3  4  1  0
  4  5  1  0
  5  6  2  0
  6  7  1  0
  7  8  2  0
  8  9  1  0
  9 10  1  0
  9 11  1  0
  9 12  1  0
  8 13  1  0
 13 14  2  0
  4 15  2  0
 15 16  1  0
 16 17  2  0
 17 18  1  0
 18 19  1  0
 19 20  1  0
 20 21  1  0
 17  2  1  0
 14  5  1  0
 21 16  1  0
  3 22  1  0
  6 23  1  0
  7 24  1  0
 13 25  1  0
 14 26  1  0
 18 27  1  0
 18 28  1  0
 20 29  1  0
 20 30  1  0
 21 31  1  0
 21 32  1  0
M  END
>  <meeko>  (3) 
{"is_sidechain": [false], "free_energy": -9.566, "intermolecular_energy": -10.688, "internal_energy": -0.398}

$$$$
