3gv9_ligand
     RDKit          3D

 18 18  0  0  0  0  0  0  0  0999 V2000
  -32.0180    6.3090   21.2880 C   0  0  0  0  0  0  0  0  0  0  0  0
  -32.6440    5.5580   20.1420 C   0  0  0  0  0  0  0  0  0  0  0  0
  -32.2520    4.4320   19.8420 O   0  0  0  0  0  0  0  0  0  0  0  0
  -33.6240    6.2860   19.5150 N   0  0  0  0  0  0  0  0  0  0  0  0
  -34.3900    5.8980   18.4240 C   0  0  0  0  0  0  0  0  0  0  0  0
  -34.2460    6.2970   17.0620 C   0  0  0  0  0  0  0  0  0  0  0  0
  -35.1870    5.7120   16.2420 C   0  0  0  0  0  0  0  0  0  0  0  0
  -36.2440    4.6840   17.1080 S   0  0  0  0  0  0  0  0  0  0  0  0
  -35.4470    5.0180   18.5790 C   0  0  0  0  0  0  0  0  0  0  0  0
  -35.8640    4.3920   19.9810 C   0  0  0  0  0  0  0  0  0  0  0  0
  -36.5410    5.1630   20.7420 O   0  0  0  0  0  0  0  0  0  0  0  0
  -35.5030    3.2050   20.2350 O   0  0  0  0  0  0  0  0  0  0  0  0
  -32.3708    5.8858   22.2400 H   0  0  0  0  0  0  0  0  0  0  0  0
  -30.9231    6.2198   21.2304 H   0  0  0  0  0  0  0  0  0  0  0  0
  -32.3029    7.3699   21.2304 H   0  0  0  0  0  0  0  0  0  0  0  0
  -33.8560    7.2360   19.8450 H   0  0  0  0  0  0  0  0  0  0  0  0
  -33.4717    6.9927   16.7064 H   0  0  0  0  0  0  0  0  0  0  0  0
  -35.2505    5.8861   15.1577 H   0  0  0  0  0  0  0  0  0  0  0  0
  1  2  1  0
  2  3  2  0
  2  4  1  0
  4  5  1  0
  5  6  1  0
  6  7  2  0
  7  8  1  0
  8  9  1  0
  9 10  1  0
 10 11  2  0
 10 12  1  0
  9  5  2  0
  1 13  1  0
  1 14  1  0
  1 15  1  0
  4 16  1  0
  6 17  1  0
  7 18  1  0
M  CHG  1  12  -1
M  END
>  <meeko>  (1) 
{"is_sidechain": [false], "free_energy": -5.546, "intermolecular_energy": -6.194, "internal_energy": -0.321}

$$$$
3gv9_ligand
     RDKit          3D

 18 18  0  0  0  0  0  0  0  0999 V2000
  -28.2170    9.9670   25.7290 C   0  0  0  0  0  0  0  0  0  0  0  0
  -28.6770    8.6250   25.2170 C   0  0  0  0  0  0  0  0  0  0  0  0
  -28.4540    8.2880   24.0570 O   0  0  0  0  0  0  0  0  0  0  0  0
  -29.3570    7.9090   26.1700 N   0  0  0  0  0  0  0  0  0  0  0  0
  -29.9200    6.6480   26.0300 C   0  0  0  0  0  0  0  0  0  0  0  0
  -30.6600    6.1330   24.9250 C   0  0  0  0  0  0  0  0  0  0  0  0
  -31.0710    4.8340   25.1280 C   0  0  0  0  0  0  0  0  0  0  0  0
  -30.5670    4.2310   26.6470 S   0  0  0  0  0  0  0  0  0  0  0  0
  -29.8000    5.7050   27.0360 C   0  0  0  0  0  0  0  0  0  0  0  0
  -29.0300    5.9760   28.4010 C   0  0  0  0  0  0  0  0  0  0  0  0
  -27.7880    6.2510   28.2800 O   0  0  0  0  0  0  0  0  0  0  0  0
  -29.6870    5.9000   29.4810 O   0  0  0  0  0  0  0  0  0  0  0  0
  -28.2193    9.9602   26.8290 H   0  0  0  0  0  0  0  0  0  0  0  0
  -27.1985   10.1686   25.3657 H   0  0  0  0  0  0  0  0  0  0  0  0
  -28.8977   10.7510   25.3657 H   0  0  0  0  0  0  0  0  0  0  0  0
  -29.5000    8.3060   27.1130 H   0  0  0  0  0  0  0  0  0  0  0  0
  -30.8780    6.7083   24.0132 H   0  0  0  0  0  0  0  0  0  0  0  0
  -31.6547    4.2529   24.3989 H   0  0  0  0  0  0  0  0  0  0  0  0
  1  2  1  0
  2  3  2  0
  2  4  1  0
  4  5  1  0
  5  6  1  0
  6  7  2  0
  7  8  1  0
  8  9  1  0
  9 10  1  0
 10 11  2  0
 10 12  1  0
  9  5  2  0
  1 13  1  0
  1 14  1  0
  1 15  1  0
  4 16  1  0
  6 17  1  0
  7 18  1  0
M  CHG  1  12  -1
M  END
>  <meeko>  (2) 
{"is_sidechain": [false], "free_energy": -5.519, "intermolecular_energy": -6.214, "internal_energy": -0.271}

$$$$
3gv9_ligand
     RDKit          3D

 18 18  0  0  0  0  0  0  0  0999 V2000
  -30.3820    3.7520   25.9140 C   0  0  0  0  0  0  0  0  0  0  0  0
  -30.4010    5.2560   26.0080 C   0  0  0  0  0  0  0  0  0  0  0  0
  -31.3240    5.9030   25.5180 O   0  0  0  0  0  0  0  0  0  0  0  0
  -29.2950    5.7530   26.6510 N   0  0  0  0  0  0  0  0  0  0  0  0
  -28.9950    7.0850   26.8990 C   0  0  0  0  0  0  0  0  0  0  0  0
  -28.9100    8.1560   25.9610 C   0  0  0  0  0  0  0  0  0  0  0  0
  -28.5880    9.3550   26.5610 C   0  0  0  0  0  0  0  0  0  0  0  0
  -28.3890    9.1930   28.2520 S   0  0  0  0  0  0  0  0  0  0  0  0
  -28.7310    7.5230   28.1850 C   0  0  0  0  0  0  0  0  0  0  0  0
  -28.7480    6.5660   29.4550 C   0  0  0  0  0  0  0  0  0  0  0  0
  -27.7960    6.7490   30.2880 O   0  0  0  0  0  0  0  0  0  0  0  0
  -29.6800    5.7120   29.5460 O   0  0  0  0  0  0  0  0  0  0  0  0
  -30.3766    3.3214   26.9262 H   0  0  0  0  0  0  0  0  0  0  0  0
  -31.2759    3.4071   25.3736 H   0  0  0  0  0  0  0  0  0  0  0  0
  -29.4797    3.4298   25.3736 H   0  0  0  0  0  0  0  0  0  0  0  0
  -28.5700    5.1090   27.0070 H   0  0  0  0  0  0  0  0  0  0  0  0
  -29.0819    8.0388   24.8809 H   0  0  0  0  0  0  0  0  0  0  0  0
  -28.4727   10.3037   26.0164 H   0  0  0  0  0  0  0  0  0  0  0  0
  1  2  1  0
  2  3  2  0
  2  4  1  0
  4  5  1  0
  5  6  1  0
  6  7  2  0
  7  8  1  0
  8  9  1  0
  9 10  1  0
 10 11  2  0
 10 12  1  0
  9  5  2  0
  1 13  1  0
  1 14  1  0
  1 15  1  0
  4 16  1  0
  6 17  1  0
  7 18  1  0
M  CHG  1  12  -1
M  END
>  <meeko>  (3) 
{"is_sidechain": [false], "free_energy": -5.499, "intermolecular_energy": -6.095, "internal_energy": -0.368}

$$$$
3gv9_ligand
     RDKit          3D

 18 18  0  0  0  0  0  0  0  0999 V2000
  -29.0950    6.0250   29.7870 C   0  0  0  0  0  0  0  0  0  0  0  0
  -28.4910    7.3770   29.5020 C   0  0  0  0  0  0  0  0  0  0  0  0
  -27.8130    7.9510   30.3510 O   0  0  0  0  0  0  0  0  0  0  0  0
  -28.8190    7.8410   28.2530 N   0  0  0  0  0  0  0  0  0  0  0  0
  -28.4400    9.0470   27.6790 C   0  0  0  0  0  0  0  0  0  0  0  0
  -28.0040   10.2350   28.3360 C   0  0  0  0  0  0  0  0  0  0  0  0
  -27.7070   11.2470   27.4490 C   0  0  0  0  0  0  0  0  0  0  0  0
  -27.9500   10.7690   25.8250 S   0  0  0  0  0  0  0  0  0  0  0  0
  -28.4540    9.2110   26.3040 C   0  0  0  0  0  0  0  0  0  0  0  0
  -28.8930    8.0650   25.2920 C   0  0  0  0  0  0  0  0  0  0  0  0
  -28.4420    8.1880   24.1020 O   0  0  0  0  0  0  0  0  0  0  0  0
  -29.6390    7.1390   25.7270 O   0  0  0  0  0  0  0  0  0  0  0  0
  -29.1619    5.8752   30.8747 H   0  0  0  0  0  0  0  0  0  0  0  0
  -30.1019    5.9731   29.3471 H   0  0  0  0  0  0  0  0  0  0  0  0
  -28.4618    5.2404   29.3471 H   0  0  0  0  0  0  0  0  0  0  0  0
  -29.4160    7.2750   27.6290 H   0  0  0  0  0  0  0  0  0  0  0  0
  -27.9147   10.3327   29.4280 H   0  0  0  0  0  0  0  0  0  0  0  0
  -27.3551   12.2447   27.7501 H   0  0  0  0  0  0  0  0  0  0  0  0
  1  2  1  0
  2  3  2  0
  2  4  1  0
  4  5  1  0
  5  6  1  0
  6  7  2  0
  7  8  1  0
  8  9  1  0
  9 10  1  0
 10 11  2  0
 10 12  1  0
  9  5  2  0
  1 13  1  0
  1 14  1  0
  1 15  1  0
  4 16  1  0
  6 17  1  0
  7 18  1  0
M  CHG  1  12  -1
M  END
>  <meeko>  (4) 
{"is_sidechain": [false], "free_energy": -5.493, "intermolecular_energy": -6.433, "internal_energy": -0.024}

$$$$
3gv9_ligand
     RDKit          3D

 18 18  0  0  0  0  0  0  0  0999 V2000
  -27.6920   11.8670   30.8970 C   0  0  0  0  0  0  0  0  0  0  0  0
  -27.3590   10.4110   30.6930 C   0  0  0  0  0  0  0  0  0  0  0  0
  -26.3500    9.9230   31.1970 O   0  0  0  0  0  0  0  0  0  0  0  0
  -28.2750    9.7740   29.8930 N   0  0  0  0  0  0  0  0  0  0  0  0
  -28.2640    8.4430   29.5000 C   0  0  0  0  0  0  0  0  0  0  0  0
  -28.1770    7.2830   30.3260 C   0  0  0  0  0  0  0  0  0  0  0  0
  -28.1930    6.1150   29.5930 C   0  0  0  0  0  0  0  0  0  0  0  0
  -28.3130    6.4130   27.9130 S   0  0  0  0  0  0  0  0  0  0  0  0
  -28.3430    8.1010   28.1610 C   0  0  0  0  0  0  0  0  0  0  0  0
  -28.4500    9.1710   26.9900 C   0  0  0  0  0  0  0  0  0  0  0  0
  -29.0860    8.7820   25.9520 O   0  0  0  0  0  0  0  0  0  0  0  0
  -27.9110   10.3040   27.1670 O   0  0  0  0  0  0  0  0  0  0  0  0
  -27.7417   12.0843   31.9742 H   0  0  0  0  0  0  0  0  0  0  0  0
  -26.9131   12.4898   30.4328 H   0  0  0  0  0  0  0  0  0  0  0  0
  -28.6642   12.0893   30.4328 H   0  0  0  0  0  0  0  0  0  0  0  0
  -29.0790   10.2950   29.5090 H   0  0  0  0  0  0  0  0  0  0  0  0
  -28.1053    7.3165   31.4231 H   0  0  0  0  0  0  0  0  0  0  0  0
  -28.1354    5.1100   30.0365 H   0  0  0  0  0  0  0  0  0  0  0  0
  1  2  1  0
  2  3  2  0
  2  4  1  0
  4  5  1  0
  5  6  1  0
  6  7  2  0
  7  8  1  0
  8  9  1  0
  9 10  1  0
 10 11  2  0
 10 12  1  0
  9  5  2  0
  1 13  1  0
  1 14  1  0
  1 15  1  0
  4 16  1  0
  6 17  1  0
  7 18  1  0
M  CHG  1  12  -1
M  END
>  <meeko>  (5) 
{"is_sidechain": [false], "free_energy": -5.479, "intermolecular_energy": -6.104, "internal_energy": -0.337}

$$$$
3gv9_ligand
     RDKit          3D

 18 18  0  0  0  0  0  0  0  0999 V2000
  -27.9260    7.3620   29.8000 C   0  0  0  0  0  0  0  0  0  0  0  0
  -28.1120    6.5050   28.5730 C   0  0  0  0  0  0  0  0  0  0  0  0
  -27.2130    5.7610   28.1870 O   0  0  0  0  0  0  0  0  0  0  0  0
  -29.3380    6.6950   27.9850 N   0  0  0  0  0  0  0  0  0  0  0  0
  -29.8270    6.0760   26.8430 C   0  0  0  0  0  0  0  0  0  0  0  0
  -30.5030    4.8240   26.7420 C   0  0  0  0  0  0  0  0  0  0  0  0
  -30.8480    4.5180   25.4440 C   0  0  0  0  0  0  0  0  0  0  0  0
  -30.3620    5.7350   24.3460 S   0  0  0  0  0  0  0  0  0  0  0  0
  -29.6880    6.6730   25.6020 C   0  0  0  0  0  0  0  0  0  0  0  0
  -28.9770    8.0780   25.3820 C   0  0  0  0  0  0  0  0  0  0  0  0
  -28.4060    8.2280   24.2480 O   0  0  0  0  0  0  0  0  0  0  0  0
  -29.0260    8.9240   26.3230 O   0  0  0  0  0  0  0  0  0  0  0  0
  -28.0597    6.7458   30.7013 H   0  0  0  0  0  0  0  0  0  0  0  0
  -26.9136    7.7921   29.7968 H   0  0  0  0  0  0  0  0  0  0  0  0
  -28.6690    8.1731   29.7968 H   0  0  0  0  0  0  0  0  0  0  0  0
  -30.0100    7.3650   28.3920 H   0  0  0  0  0  0  0  0  0  0  0  0
  -30.7238    4.1762   27.6032 H   0  0  0  0  0  0  0  0  0  0  0  0
  -31.3745    3.5985   25.1486 H   0  0  0  0  0  0  0  0  0  0  0  0
  1  2  1  0
  2  3  2  0
  2  4  1  0
  4  5  1  0
  5  6  1  0
  6  7  2  0
  7  8  1  0
  8  9  1  0
  9 10  1  0
 10 11  2  0
 10 12  1  0
  9  5  2  0
  1 13  1  0
  1 14  1  0
  1 15  1  0
  4 16  1  0
  6 17  1  0
  7 18  1  0
M  CHG  1  12  -1
M  END
>  <meeko>  (6) 
{"is_sidechain": [false], "free_energy": -5.458, "intermolecular_energy": -6.018, "internal_energy": -0.4}

$$$$
3gv9_ligand
     RDKit          3D

 18 18  0  0  0  0  0  0  0  0999 V2000
  -27.8430   10.1020   32.8620 C   0  0  0  0  0  0  0  0  0  0  0  0
  -27.4390    9.8770   31.4280 C   0  0  0  0  0  0  0  0  0  0  0  0
  -26.2840   10.0830   31.0620 O   0  0  0  0  0  0  0  0  0  0  0  0
  -28.4920    9.4660   30.6480 N   0  0  0  0  0  0  0  0  0  0  0  0
  -28.4690    9.1790   29.2900 C   0  0  0  0  0  0  0  0  0  0  0  0
  -28.3600   10.0940   28.2010 C   0  0  0  0  0  0  0  0  0  0  0  0
  -28.3700    9.4570   26.9790 C   0  0  0  0  0  0  0  0  0  0  0  0
  -28.5100    7.7600   27.1400 S   0  0  0  0  0  0  0  0  0  0  0  0
  -28.5580    7.8730   28.8410 C   0  0  0  0  0  0  0  0  0  0  0  0
  -28.6900    6.6220   29.8140 C   0  0  0  0  0  0  0  0  0  0  0  0
  -29.6800    5.8500   29.5770 O   0  0  0  0  0  0  0  0  0  0  0  0
  -27.8260    6.4860   30.7310 O   0  0  0  0  0  0  0  0  0  0  0  0
  -27.0790    9.6765   33.5293 H   0  0  0  0  0  0  0  0  0  0  0  0
  -27.9355   11.1815   33.0518 H   0  0  0  0  0  0  0  0  0  0  0  0
  -28.8095    9.6122   33.0518 H   0  0  0  0  0  0  0  0  0  0  0  0
  -29.4280    9.3430   31.0640 H   0  0  0  0  0  0  0  0  0  0  0  0
  -28.2774   11.1841   28.3228 H   0  0  0  0  0  0  0  0  0  0  0  0
  -28.2966    9.9787   26.0134 H   0  0  0  0  0  0  0  0  0  0  0  0
  1  2  1  0
  2  3  2  0
  2  4  1  0
  4  5  1  0
  5  6  1  0
  6  7  2  0
  7  8  1  0
  8  9  1  0
  9 10  1  0
 10 11  2  0
 10 12  1  0
  9  5  2  0
  1 13  1  0
  1 14  1  0
  1 15  1  0
  4 16  1  0
  6 17  1  0
  7 18  1  0
M  CHG  1  12  -1
M  END
>  <meeko>  (7) 
{"is_sidechain": [false], "free_energy": -5.414, "intermolecular_energy": -5.909, "internal_energy": -0.46}

$$$$
3gv9_ligand
     RDKit          3D

 18 18  0  0  0  0  0  0  0  0999 V2000
  -27.8490   11.6420   25.9960 C   0  0  0  0  0  0  0  0  0  0  0  0
  -28.1320   10.1620   26.0410 C   0  0  0  0  0  0  0  0  0  0  0  0
  -28.2950    9.5230   25.0040 O   0  0  0  0  0  0  0  0  0  0  0  0
  -28.2030    9.6840   27.3260 N   0  0  0  0  0  0  0  0  0  0  0  0
  -28.4560    8.3780   27.7240 C   0  0  0  0  0  0  0  0  0  0  0  0
  -28.7830    7.2570   26.9050 C   0  0  0  0  0  0  0  0  0  0  0  0
  -28.9690    6.1070   27.6400 C   0  0  0  0  0  0  0  0  0  0  0  0
  -28.7490    6.3720   29.3150 S   0  0  0  0  0  0  0  0  0  0  0  0
  -28.4060    8.0240   29.0610 C   0  0  0  0  0  0  0  0  0  0  0  0
  -28.0660    9.0530   30.2250 C   0  0  0  0  0  0  0  0  0  0  0  0
  -27.3110    8.5980   31.1500 O   0  0  0  0  0  0  0  0  0  0  0  0
  -28.5570   10.2180   30.1530 O   0  0  0  0  0  0  0  0  0  0  0  0
  -27.7744   12.0324   27.0217 H   0  0  0  0  0  0  0  0  0  0  0  0
  -26.9009   11.8181   25.4667 H   0  0  0  0  0  0  0  0  0  0  0  0
  -28.6652   12.1555   25.4667 H   0  0  0  0  0  0  0  0  0  0  0  0
  -28.0660   10.3230   28.1250 H   0  0  0  0  0  0  0  0  0  0  0  0
  -28.8761    7.3054   25.8100 H   0  0  0  0  0  0  0  0  0  0  0  0
  -29.2286    5.1324   27.2010 H   0  0  0  0  0  0  0  0  0  0  0  0
  1  2  1  0
  2  3  2  0
  2  4  1  0
  4  5  1  0
  5  6  1  0
  6  7  2  0
  7  8  1  0
  8  9  1  0
  9 10  1  0
 10 11  2  0
 10 12  1  0
  9  5  2  0
  1 13  1  0
  1 14  1  0
  1 15  1  0
  4 16  1  0
  6 17  1  0
  7 18  1  0
M  CHG  1  12  -1
M  END
>  <meeko>  (8) 
{"is_sidechain": [false], "free_energy": -5.383, "intermolecular_energy": -6.282, "internal_energy": -0.053}

$$$$
3gv9_ligand
     RDKit          3D

 18 18  0  0  0  0  0  0  0  0999 V2000
  -29.1790    5.9950   29.7040 C   0  0  0  0  0  0  0  0  0  0  0  0
  -28.4550    6.9540   28.7940 C   0  0  0  0  0  0  0  0  0  0  0  0
  -27.6090    6.5480   28.0000 O   0  0  0  0  0  0  0  0  0  0  0  0
  -28.8400    8.2560   28.9980 N   0  0  0  0  0  0  0  0  0  0  0  0
  -28.3690    9.3840   28.3390 C   0  0  0  0  0  0  0  0  0  0  0  0
  -28.4260    9.6760   26.9440 C   0  0  0  0  0  0  0  0  0  0  0  0
  -27.8580   10.8940   26.6400 C   0  0  0  0  0  0  0  0  0  0  0  0
  -27.2570   11.6880   28.0300 S   0  0  0  0  0  0  0  0  0  0  0  0
  -27.7540   10.4060   29.0410 C   0  0  0  0  0  0  0  0  0  0  0  0
  -27.5380   10.3780   30.6160 C   0  0  0  0  0  0  0  0  0  0  0  0
  -28.6070   10.4270   31.3140 O   0  0  0  0  0  0  0  0  0  0  0  0
  -26.3510   10.3120   31.0540 O   0  0  0  0  0  0  0  0  0  0  0  0
  -28.9779    6.2614   30.7521 H   0  0  0  0  0  0  0  0  0  0  0  0
  -30.2606    6.0530   29.5120 H   0  0  0  0  0  0  0  0  0  0  0  0
  -28.8269    4.9707   29.5120 H   0  0  0  0  0  0  0  0  0  0  0  0
  -29.5520    8.4810   29.7100 H   0  0  0  0  0  0  0  0  0  0  0  0
  -28.8728    9.0049   26.1957 H   0  0  0  0  0  0  0  0  0  0  0  0
  -27.7982   11.3072   25.6223 H   0  0  0  0  0  0  0  0  0  0  0  0
  1  2  1  0
  2  3  2  0
  2  4  1  0
  4  5  1  0
  5  6  1  0
  6  7  2  0
  7  8  1  0
  8  9  1  0
  9 10  1  0
 10 11  2  0
 10 12  1  0
  9  5  2  0
  1 13  1  0
  1 14  1  0
  1 15  1  0
  4 16  1  0
  6 17  1  0
  7 18  1  0
M  CHG  1  12  -1
M  END
>  <meeko>  (9) 
{"is_sidechain": [false], "free_energy": -5.358, "intermolecular_energy": -5.937, "internal_energy": -0.369}

$$$$
