3dd0_ligand
     RDKit          3D

 26 27  0  0  0  0  0  0  0  0999 V2000
   -7.2460    0.7550   17.3730 C   0  0  0  0  0  0  0  0  0  0  0  0
   -5.9610    1.3490   17.9220 C   0  0  0  0  0  0  0  0  0  0  0  0
   -4.8660    0.7200   17.2570 O   0  0  0  0  0  0  0  0  0  0  0  0
   -4.7040    0.9860   15.9230 C   0  0  0  0  0  0  0  0  0  0  0  0
   -4.5210    0.0380   14.9210 C   0  0  0  0  0  0  0  0  0  0  0  0
   -4.3650    0.4330   13.5850 C   0  0  0  0  0  0  0  0  0  0  0  0
   -4.3930    1.7990   13.2450 C   0  0  0  0  0  0  0  0  0  0  0  0
   -4.2510    2.3220   11.9730 N   0  0  0  0  0  0  0  0  0  0  0  0
   -4.3420    3.6360   12.0320 C   0  0  0  0  0  0  0  0  0  0  0  0
   -4.2040    4.7640   10.6650 S   0  0  0  0  0  0  0  0  0  0  0  0
   -5.6950    5.5280   10.4360 N   0  0  0  0  0  0  0  0  0  0  0  0
   -3.9820    3.9760    9.4730 O   0  0  0  0  0  0  0  0  0  0  0  0
   -3.3040    5.8230   11.0630 O   0  0  0  0  0  0  0  0  0  0  0  0
   -4.5700    4.3180   13.5820 S   0  0  0  0  0  0  0  0  0  0  0  0
   -4.5780    2.7360   14.2640 C   0  0  0  0  0  0  0  0  0  0  0  0
   -4.7340    2.3490   15.6050 C   0  0  0  0  0  0  0  0  0  0  0  0
   -7.8967    0.4542   18.2074 H   0  0  0  0  0  0  0  0  0  0  0  0
   -7.7630    1.5055   16.7570 H   0  0  0  0  0  0  0  0  0  0  0  0
   -7.0093   -0.1250   16.7570 H   0  0  0  0  0  0  0  0  0  0  0  0
   -5.9400    2.4325   17.7333 H   0  0  0  0  0  0  0  0  0  0  0  0
   -5.8959    1.1827   19.0074 H   0  0  0  0  0  0  0  0  0  0  0  0
   -4.4985   -1.0310   15.1795 H   0  0  0  0  0  0  0  0  0  0  0  0
   -4.2205   -0.3253   12.8013 H   0  0  0  0  0  0  0  0  0  0  0  0
   -5.8510    6.1660   11.2180 H   0  0  0  0  0  0  0  0  0  0  0  0
   -5.6750    6.0180    9.5400 H   0  0  0  0  0  0  0  0  0  0  0  0
   -4.8773    3.1040   16.3920 H   0  0  0  0  0  0  0  0  0  0  0  0
  1  2  1  0
  2  3  1  0
  3  4  1  0
  4  5  2  0
  5  6  1  0
  6  7  2  0
  7  8  1  0
  8  9  2  0
  9 10  1  0
 10 11  1  0
 10 12  2  0
 10 13  2  0
  9 14  1  0
 14 15  1  0
 15 16  2  0
 16  4  1  0
 15  7  1  0
  1 17  1  0
  1 18  1  0
  1 19  1  0
  2 20  1  0
  2 21  1  0
  5 22  1  0
  6 23  1  0
 11 24  1  0
 11 25  1  0
 16 26  1  0
M  END
>  <meeko>  (1) 
{"is_sidechain": [false], "free_energy": -6.471, "intermolecular_energy": -7.795, "internal_energy": -0.187}

$$$$
3dd0_ligand
     RDKit          3D

 26 27  0  0  0  0  0  0  0  0999 V2000
   -2.0950    8.9170   15.2680 C   0  0  0  0  0  0  0  0  0  0  0  0
   -1.9000    8.1910   13.9490 C   0  0  0  0  0  0  0  0  0  0  0  0
   -3.0600    7.3970   13.7080 O   0  0  0  0  0  0  0  0  0  0  0  0
   -3.0900    6.1430   14.2590 C   0  0  0  0  0  0  0  0  0  0  0  0
   -1.9800    5.3520   14.5430 C   0  0  0  0  0  0  0  0  0  0  0  0
   -2.1370    4.0800   15.1090 C   0  0  0  0  0  0  0  0  0  0  0  0
   -3.4250    3.5890   15.3960 C   0  0  0  0  0  0  0  0  0  0  0  0
   -3.7190    2.3560   15.9510 N   0  0  0  0  0  0  0  0  0  0  0  0
   -5.0250    2.2430   16.0870 C   0  0  0  0  0  0  0  0  0  0  0  0
   -5.8990    0.8370   16.7340 S   0  0  0  0  0  0  0  0  0  0  0  0
   -5.6090    0.7310   18.3970 N   0  0  0  0  0  0  0  0  0  0  0  0
   -5.3020   -0.3470   16.1580 O   0  0  0  0  0  0  0  0  0  0  0  0
   -7.3130    1.1140   16.6230 O   0  0  0  0  0  0  0  0  0  0  0  0
   -5.9680    3.5630   15.5480 S   0  0  0  0  0  0  0  0  0  0  0  0
   -4.5270    4.3960   15.1050 C   0  0  0  0  0  0  0  0  0  0  0  0
   -4.3790    5.6720   14.5370 C   0  0  0  0  0  0  0  0  0  0  0  0
   -1.9084    8.2222   16.1001 H   0  0  0  0  0  0  0  0  0  0  0  0
   -1.3916    9.7604   15.3298 H   0  0  0  0  0  0  0  0  0  0  0  0
   -3.1264    9.2945   15.3298 H   0  0  0  0  0  0  0  0  0  0  0  0
   -1.7718    8.9211   13.1363 H   0  0  0  0  0  0  0  0  0  0  0  0
   -1.0034    7.5551   13.9914 H   0  0  0  0  0  0  0  0  0  0  0  0
   -0.9708    5.7291   14.3210 H   0  0  0  0  0  0  0  0  0  0  0  0
   -1.2527    3.4640   15.3295 H   0  0  0  0  0  0  0  0  0  0  0  0
   -4.6290    0.9640   18.5660 H   0  0  0  0  0  0  0  0  0  0  0  0
   -6.2430    1.3710   18.8790 H   0  0  0  0  0  0  0  0  0  0  0  0
   -5.2607    6.2908   14.3143 H   0  0  0  0  0  0  0  0  0  0  0  0
  1  2  1  0
  2  3  1  0
  3  4  1  0
  4  5  2  0
  5  6  1  0
  6  7  2  0
  7  8  1  0
  8  9  2  0
  9 10  1  0
 10 11  1  0
 10 12  2  0
 10 13  2  0
  9 14  1  0
 14 15  1  0
 15 16  2  0
 16  4  1  0
 15  7  1  0
  1 17  1  0
  1 18  1  0
  1 19  1  0
  2 20  1  0
  2 21  1  0
  5 22  1  0
  6 23  1  0
 11 24  1  0
 11 25  1  0
 16 26  1  0
M  END
>  <meeko>  (2) 
{"is_sidechain": [false], "free_energy": -6.441, "intermolecular_energy": -7.687, "internal_energy": -0.259}

$$$$
3dd0_ligand
     RDKit          3D

 26 27  0  0  0  0  0  0  0  0999 V2000
   -4.9260    7.4970   11.2480 C   0  0  0  0  0  0  0  0  0  0  0  0
   -3.5760    7.0740   11.8000 C   0  0  0  0  0  0  0  0  0  0  0  0
   -3.6400    7.1480   13.2240 O   0  0  0  0  0  0  0  0  0  0  0  0
   -3.5520    5.9720   13.9190 C   0  0  0  0  0  0  0  0  0  0  0  0
   -2.3730    5.3160   14.2630 C   0  0  0  0  0  0  0  0  0  0  0  0
   -2.4100    4.1120   14.9800 C   0  0  0  0  0  0  0  0  0  0  0  0
   -3.6460    3.5540   15.3580 C   0  0  0  0  0  0  0  0  0  0  0  0
   -3.8230    2.3760   16.0620 N   0  0  0  0  0  0  0  0  0  0  0  0
   -5.1130    2.1720   16.2480 C   0  0  0  0  0  0  0  0  0  0  0  0
   -5.8510    0.7860   17.0800 S   0  0  0  0  0  0  0  0  0  0  0  0
   -7.5290    0.8560   16.8750 N   0  0  0  0  0  0  0  0  0  0  0  0
   -5.6240    0.9590   18.4970 O   0  0  0  0  0  0  0  0  0  0  0  0
   -5.4440   -0.4100   16.3790 O   0  0  0  0  0  0  0  0  0  0  0  0
   -6.1750    3.3340   15.5830 S   0  0  0  0  0  0  0  0  0  0  0  0
   -4.8180    4.2250   15.0040 C   0  0  0  0  0  0  0  0  0  0  0  0
   -4.7910    5.4320   14.2870 C   0  0  0  0  0  0  0  0  0  0  0  0
   -5.6117    7.7118   12.0809 H   0  0  0  0  0  0  0  0  0  0  0  0
   -4.8036    8.3998   10.6316 H   0  0  0  0  0  0  0  0  0  0  0  0
   -5.3406    6.6857   10.6316 H   0  0  0  0  0  0  0  0  0  0  0  0
   -3.3519    6.0429   11.4893 H   0  0  0  0  0  0  0  0  0  0  0  0
   -2.7828    7.7334   11.4179 H   0  0  0  0  0  0  0  0  0  0  0  0
   -1.4041    5.7463   13.9696 H   0  0  0  0  0  0  0  0  0  0  0  0
   -1.4724    3.6027   15.2475 H   0  0  0  0  0  0  0  0  0  0  0  0
   -7.7790    1.8140   16.6200 H   0  0  0  0  0  0  0  0  0  0  0  0
   -7.7960    0.1850   16.1530 H   0  0  0  0  0  0  0  0  0  0  0  0
   -5.7266    5.9446   14.0189 H   0  0  0  0  0  0  0  0  0  0  0  0
  1  2  1  0
  2  3  1  0
  3  4  1  0
  4  5  2  0
  5  6  1  0
  6  7  2  0
  7  8  1  0
  8  9  2  0
  9 10  1  0
 10 11  1  0
 10 12  2  0
 10 13  2  0
  9 14  1  0
 14 15  1  0
 15 16  2  0
 16  4  1  0
 15  7  1  0
  1 17  1  0
  1 18  1  0
  1 19  1  0
  2 20  1  0
  2 21  1  0
  5 22  1  0
  6 23  1  0
 11 24  1  0
 11 25  1  0
 16 26  1  0
M  END
>  <meeko>  (3) 
{"is_sidechain": [false], "free_energy": -6.227, "intermolecular_energy": -7.47, "internal_energy": -0.218}

$$$$
3dd0_ligand
     RDKit          3D

 26 27  0  0  0  0  0  0  0  0999 V2000
   -3.2000    4.1910   10.1390 C   0  0  0  0  0  0  0  0  0  0  0  0
   -2.2860    4.2660   11.3480 C   0  0  0  0  0  0  0  0  0  0  0  0
   -2.7730    5.2960   12.2060 O   0  0  0  0  0  0  0  0  0  0  0  0
   -3.7520    4.9570   13.1010 C   0  0  0  0  0  0  0  0  0  0  0  0
   -4.9100    5.6870   13.3570 C   0  0  0  0  0  0  0  0  0  0  0  0
   -5.8430    5.2370   14.3010 C   0  0  0  0  0  0  0  0  0  0  0  0
   -5.6150    4.0380   15.0030 C   0  0  0  0  0  0  0  0  0  0  0  0
   -6.4500    3.4850   15.9570 N   0  0  0  0  0  0  0  0  0  0  0  0
   -5.9240    2.3560   16.3900 C   0  0  0  0  0  0  0  0  0  0  0  0
   -6.6070    1.2840   17.6330 S   0  0  0  0  0  0  0  0  0  0  0  0
   -5.6550   -0.1100   17.7340 N   0  0  0  0  0  0  0  0  0  0  0  0
   -7.8990    0.8420   17.1610 O   0  0  0  0  0  0  0  0  0  0  0  0
   -6.4400    1.9380   18.9110 O   0  0  0  0  0  0  0  0  0  0  0  0
   -4.4170    1.9070   15.7200 S   0  0  0  0  0  0  0  0  0  0  0  0
   -4.4490    3.3190   14.7340 C   0  0  0  0  0  0  0  0  0  0  0  0
   -3.5080    3.7620   13.7890 C   0  0  0  0  0  0  0  0  0  0  0  0
   -4.2444    4.1053   10.4736 H   0  0  0  0  0  0  0  0  0  0  0  0
   -3.0826    5.1018    9.5335 H   0  0  0  0  0  0  0  0  0  0  0  0
   -2.9356    3.3115    9.5335 H   0  0  0  0  0  0  0  0  0  0  0  0
   -2.2914    3.3033   11.8802 H   0  0  0  0  0  0  0  0  0  0  0  0
   -1.2549    4.4860   11.0342 H   0  0  0  0  0  0  0  0  0  0  0  0
   -5.0941    6.6254   12.8133 H   0  0  0  0  0  0  0  0  0  0  0  0
   -6.7548    5.8214   14.4938 H   0  0  0  0  0  0  0  0  0  0  0  0
   -4.7880    0.0560   17.2190 H   0  0  0  0  0  0  0  0  0  0  0  0
   -5.4820   -0.3150   18.7200 H   0  0  0  0  0  0  0  0  0  0  0  0
   -2.5954    3.1800   13.5931 H   0  0  0  0  0  0  0  0  0  0  0  0
  1  2  1  0
  2  3  1  0
  3  4  1  0
  4  5  2  0
  5  6  1  0
  6  7  2  0
  7  8  1  0
  8  9  2  0
  9 10  1  0
 10 11  1  0
 10 12  2  0
 10 13  2  0
  9 14  1  0
 14 15  1  0
 15 16  2  0
 16  4  1  0
 15  7  1  0
  1 17  1  0
  1 18  1  0
  1 19  1  0
  2 20  1  0
  2 21  1  0
  5 22  1  0
  6 23  1  0
 11 24  1  0
 11 25  1  0
 16 26  1  0
M  END
>  <meeko>  (4) 
{"is_sidechain": [false], "free_energy": -6.002, "intermolecular_energy": -7.143, "internal_energy": -0.275}

$$$$
3dd0_ligand
     RDKit          3D

 26 27  0  0  0  0  0  0  0  0999 V2000
   -2.2430    8.1560   14.5160 C   0  0  0  0  0  0  0  0  0  0  0  0
   -1.7190    6.9300   13.7900 C   0  0  0  0  0  0  0  0  0  0  0  0
   -2.7790    6.4030   12.9940 O   0  0  0  0  0  0  0  0  0  0  0  0
   -3.7440    5.6730   13.6350 C   0  0  0  0  0  0  0  0  0  0  0  0
   -5.1060    5.9610   13.6530 C   0  0  0  0  0  0  0  0  0  0  0  0
   -6.0010    5.1350   14.3470 C   0  0  0  0  0  0  0  0  0  0  0  0
   -5.5260    4.0020   15.0360 C   0  0  0  0  0  0  0  0  0  0  0  0
   -6.2970    3.1090   15.7580 N   0  0  0  0  0  0  0  0  0  0  0  0
   -5.5190    2.1680   16.2550 C   0  0  0  0  0  0  0  0  0  0  0  0
   -6.0330    0.8040   17.2730 S   0  0  0  0  0  0  0  0  0  0  0  0
   -7.7220    0.7120   17.2490 N   0  0  0  0  0  0  0  0  0  0  0  0
   -5.6790    1.1240   18.6370 O   0  0  0  0  0  0  0  0  0  0  0  0
   -5.5880   -0.4110   16.6300 O   0  0  0  0  0  0  0  0  0  0  0  0
   -3.8480    2.3020   15.9220 S   0  0  0  0  0  0  0  0  0  0  0  0
   -4.1570    3.7290   15.0070 C   0  0  0  0  0  0  0  0  0  0  0  0
   -3.2530    4.5510   14.3140 C   0  0  0  0  0  0  0  0  0  0  0  0
   -2.1746    7.9961   15.6022 H   0  0  0  0  0  0  0  0  0  0  0  0
   -1.6411    9.0331   14.2359 H   0  0  0  0  0  0  0  0  0  0  0  0
   -3.2929    8.3272   14.2359 H   0  0  0  0  0  0  0  0  0  0  0  0
   -0.8725    7.2108   13.1460 H   0  0  0  0  0  0  0  0  0  0  0  0
   -1.3727    6.1766   14.5128 H   0  0  0  0  0  0  0  0  0  0  0  0
   -5.4832    6.8448   13.1177 H   0  0  0  0  0  0  0  0  0  0  0  0
   -7.0752    5.3718   14.3535 H   0  0  0  0  0  0  0  0  0  0  0  0
   -8.0060   -0.0910   17.8140 H   0  0  0  0  0  0  0  0  0  0  0  0
   -8.1000    1.5890   17.6120 H   0  0  0  0  0  0  0  0  0  0  0  0
   -2.1781    4.3174   14.3048 H   0  0  0  0  0  0  0  0  0  0  0  0
  1  2  1  0
  2  3  1  0
  3  4  1  0
  4  5  2  0
  5  6  1  0
  6  7  2  0
  7  8  1  0
  8  9  2  0
  9 10  1  0
 10 11  1  0
 10 12  2  0
 10 13  2  0
  9 14  1  0
 14 15  1  0
 15 16  2  0
 16  4  1  0
 15  7  1  0
  1 17  1  0
  1 18  1  0
  1 19  1  0
  2 20  1  0
  2 21  1  0
  5 22  1  0
  6 23  1  0
 11 24  1  0
 11 25  1  0
 16 26  1  0
M  END
>  <meeko>  (5) 
{"is_sidechain": [false], "free_energy": -5.891, "intermolecular_energy": -7.0, "internal_energy": -0.283}

$$$$
3dd0_ligand
     RDKit          3D

 26 27  0  0  0  0  0  0  0  0999 V2000
   -7.3850    0.7730   17.2630 C   0  0  0  0  0  0  0  0  0  0  0  0
   -6.0090    0.2750   17.6680 C   0  0  0  0  0  0  0  0  0  0  0  0
   -5.2730   -0.0000   16.4780 O   0  0  0  0  0  0  0  0  0  0  0  0
   -4.8040    1.0720   15.7670 C   0  0  0  0  0  0  0  0  0  0  0  0
   -4.2180    2.2140   16.3070 C   0  0  0  0  0  0  0  0  0  0  0  0
   -3.7740    3.2500   15.4740 C   0  0  0  0  0  0  0  0  0  0  0  0
   -3.9180    3.1430   14.0780 C   0  0  0  0  0  0  0  0  0  0  0  0
   -3.5260    4.0890   13.1470 N   0  0  0  0  0  0  0  0  0  0  0  0
   -3.8040    3.6460   11.9370 C   0  0  0  0  0  0  0  0  0  0  0  0
   -3.5110    4.5040   10.4080 S   0  0  0  0  0  0  0  0  0  0  0  0
   -4.2570    6.0200   10.4810 N   0  0  0  0  0  0  0  0  0  0  0  0
   -4.2010    3.7790    9.3650 O   0  0  0  0  0  0  0  0  0  0  0  0
   -2.0970    4.7930   10.3350 O   0  0  0  0  0  0  0  0  0  0  0  0
   -4.5620    2.1180   11.8360 S   0  0  0  0  0  0  0  0  0  0  0  0
   -4.5070    1.9910   13.5530 C   0  0  0  0  0  0  0  0  0  0  0  0
   -4.9550    0.9480   14.3800 C   0  0  0  0  0  0  0  0  0  0  0  0
   -7.9774    0.9874   18.1647 H   0  0  0  0  0  0  0  0  0  0  0  0
   -7.2816    1.6907   16.6654 H   0  0  0  0  0  0  0  0  0  0  0  0
   -7.8929    0.0017   16.6654 H   0  0  0  0  0  0  0  0  0  0  0  0
   -5.4913    1.0461   18.2575 H   0  0  0  0  0  0  0  0  0  0  0  0
   -6.0964   -0.6334   18.2822 H   0  0  0  0  0  0  0  0  0  0  0  0
   -4.1025    2.3038   17.3972 H   0  0  0  0  0  0  0  0  0  0  0  0
   -3.3126    4.1475   15.9116 H   0  0  0  0  0  0  0  0  0  0  0  0
   -3.9070    6.5100   11.3060 H   0  0  0  0  0  0  0  0  0  0  0  0
   -4.0500    6.5260    9.6180 H   0  0  0  0  0  0  0  0  0  0  0  0
   -5.4167    0.0489   13.9458 H   0  0  0  0  0  0  0  0  0  0  0  0
  1  2  1  0
  2  3  1  0
  3  4  1  0
  4  5  2  0
  5  6  1  0
  6  7  2  0
  7  8  1  0
  8  9  2  0
  9 10  1  0
 10 11  1  0
 10 12  2  0
 10 13  2  0
  9 14  1  0
 14 15  1  0
 15 16  2  0
 16  4  1  0
 15  7  1  0
  1 17  1  0
  1 18  1  0
  1 19  1  0
  2 20  1  0
  2 21  1  0
  5 22  1  0
  6 23  1  0
 11 24  1  0
 11 25  1  0
 16 26  1  0
M  END
>  <meeko>  (6) 
{"is_sidechain": [false], "free_energy": -5.88, "intermolecular_energy": -7.014, "internal_energy": -0.256}

$$$$
3dd0_ligand
     RDKit          3D

 26 27  0  0  0  0  0  0  0  0999 V2000
   -6.6400    7.5670   11.3140 C   0  0  0  0  0  0  0  0  0  0  0  0
   -5.3120    6.9070   10.9870 C   0  0  0  0  0  0  0  0  0  0  0  0
   -4.6040    6.7150   12.2110 O   0  0  0  0  0  0  0  0  0  0  0  0
   -4.6950    5.4840   12.8030 C   0  0  0  0  0  0  0  0  0  0  0  0
   -4.1290    4.3060   12.3230 C   0  0  0  0  0  0  0  0  0  0  0  0
   -4.2920    3.1010   13.0200 C   0  0  0  0  0  0  0  0  0  0  0  0
   -5.0320    3.0730   14.2180 C   0  0  0  0  0  0  0  0  0  0  0  0
   -5.2690    1.9560   14.9990 N   0  0  0  0  0  0  0  0  0  0  0  0
   -5.9860    2.3070   16.0480 C   0  0  0  0  0  0  0  0  0  0  0  0
   -6.5650    1.2270   17.3370 S   0  0  0  0  0  0  0  0  0  0  0  0
   -5.6180   -0.1740   17.3430 N   0  0  0  0  0  0  0  0  0  0  0  0
   -7.8970    0.7960   16.9750 O   0  0  0  0  0  0  0  0  0  0  0  0
   -6.2840    1.8680   18.6010 O   0  0  0  0  0  0  0  0  0  0  0  0
   -6.4380    3.9510   16.1520 S   0  0  0  0  0  0  0  0  0  0  0  0
   -5.5920    4.2640   14.6840 C   0  0  0  0  0  0  0  0  0  0  0  0
   -5.4340    5.4760   13.9920 C   0  0  0  0  0  0  0  0  0  0  0  0
   -6.7607    7.6270   12.4057 H   0  0  0  0  0  0  0  0  0  0  0  0
   -6.6609    8.5803   10.8866 H   0  0  0  0  0  0  0  0  0  0  0  0
   -7.4604    6.9718   10.8866 H   0  0  0  0  0  0  0  0  0  0  0  0
   -5.4870    5.9362   10.5003 H   0  0  0  0  0  0  0  0  0  0  0  0
   -4.7283    7.5396   10.3021 H   0  0  0  0  0  0  0  0  0  0  0  0
   -3.5488    4.3212   11.3886 H   0  0  0  0  0  0  0  0  0  0  0  0
   -3.8414    2.1760   12.6309 H   0  0  0  0  0  0  0  0  0  0  0  0
   -5.5550   -0.5130   18.3040 H   0  0  0  0  0  0  0  0  0  0  0  0
   -6.0490   -0.8600   16.7210 H   0  0  0  0  0  0  0  0  0  0  0  0
   -5.8832    6.4031   14.3777 H   0  0  0  0  0  0  0  0  0  0  0  0
  1  2  1  0
  2  3  1  0
  3  4  1  0
  4  5  2  0
  5  6  1  0
  6  7  2  0
  7  8  1  0
  8  9  2  0
  9 10  1  0
 10 11  1  0
 10 12  2  0
 10 13  2  0
  9 14  1  0
 14 15  1  0
 15 16  2  0
 16  4  1  0
 15  7  1  0
  1 17  1  0
  1 18  1  0
  1 19  1  0
  2 20  1  0
  2 21  1  0
  5 22  1  0
  6 23  1  0
 11 24  1  0
 11 25  1  0
 16 26  1  0
M  END
>  <meeko>  (7) 
{"is_sidechain": [false], "free_energy": -5.734, "intermolecular_energy": -6.88, "internal_energy": -0.215}

$$$$
3dd0_ligand
     RDKit          3D

 26 27  0  0  0  0  0  0  0  0999 V2000
   -6.3030    1.5670   18.6520 C   0  0  0  0  0  0  0  0  0  0  0  0
   -6.6880    0.8390   17.3760 C   0  0  0  0  0  0  0  0  0  0  0  0
   -5.6240    1.0000   16.4390 O   0  0  0  0  0  0  0  0  0  0  0  0
   -5.4550    2.2410   15.8870 C   0  0  0  0  0  0  0  0  0  0  0  0
   -6.4740    3.1240   15.5400 C   0  0  0  0  0  0  0  0  0  0  0  0
   -6.1750    4.3730   14.9790 C   0  0  0  0  0  0  0  0  0  0  0  0
   -4.8350    4.7460   14.7610 C   0  0  0  0  0  0  0  0  0  0  0  0
   -4.4040    5.9430   14.2160 N   0  0  0  0  0  0  0  0  0  0  0  0
   -3.0870    5.9500   14.1740 C   0  0  0  0  0  0  0  0  0  0  0  0
   -2.0600    7.2550   13.5400 S   0  0  0  0  0  0  0  0  0  0  0  0
   -1.6050    8.2620   14.8210 N   0  0  0  0  0  0  0  0  0  0  0  0
   -2.8810    8.0710   12.6750 O   0  0  0  0  0  0  0  0  0  0  0  0
   -0.8250    6.6560   13.0860 O   0  0  0  0  0  0  0  0  0  0  0  0
   -2.2950    4.5460   14.7440 S   0  0  0  0  0  0  0  0  0  0  0  0
   -3.8260    3.8480   15.1150 C   0  0  0  0  0  0  0  0  0  0  0  0
   -4.1160    2.5950   15.6770 C   0  0  0  0  0  0  0  0  0  0  0  0
   -6.6174    0.9725   19.5225 H   0  0  0  0  0  0  0  0  0  0  0  0
   -5.2124    1.7080   18.6789 H   0  0  0  0  0  0  0  0  0  0  0  0
   -6.8003    2.5478   18.6789 H   0  0  0  0  0  0  0  0  0  0  0  0
   -6.8409   -0.2296   17.5874 H   0  0  0  0  0  0  0  0  0  0  0  0
   -7.6226    1.2511   16.9678 H   0  0  0  0  0  0  0  0  0  0  0  0
   -7.5231    2.8388   15.7077 H   0  0  0  0  0  0  0  0  0  0  0  0
   -6.9882    5.0627   14.7087 H   0  0  0  0  0  0  0  0  0  0  0  0
   -0.6020    8.4410   14.7460 H   0  0  0  0  0  0  0  0  0  0  0  0
   -2.1530    9.1230   14.7680 H   0  0  0  0  0  0  0  0  0  0  0  0
   -3.3054    1.9026   15.9480 H   0  0  0  0  0  0  0  0  0  0  0  0
  1  2  1  0
  2  3  1  0
  3  4  1  0
  4  5  2  0
  5  6  1  0
  6  7  2  0
  7  8  1  0
  8  9  2  0
  9 10  1  0
 10 11  1  0
 10 12  2  0
 10 13  2  0
  9 14  1  0
 14 15  1  0
 15 16  2  0
 16  4  1  0
 15  7  1  0
  1 17  1  0
  1 18  1  0
  1 19  1  0
  2 20  1  0
  2 21  1  0
  5 22  1  0
  6 23  1  0
 11 24  1  0
 11 25  1  0
 16 26  1  0
M  END
>  <meeko>  (8) 
{"is_sidechain": [false], "free_energy": -5.56, "intermolecular_energy": -6.682, "internal_energy": -0.203}

$$$$
3dd0_ligand
     RDKit          3D

 26 27  0  0  0  0  0  0  0  0999 V2000
   -6.6350    7.7170   11.1910 C   0  0  0  0  0  0  0  0  0  0  0  0
   -5.2840    8.2790   10.7870 C   0  0  0  0  0  0  0  0  0  0  0  0
   -4.3450    7.2050   10.7810 O   0  0  0  0  0  0  0  0  0  0  0  0
   -4.2190    6.4730   11.9310 C   0  0  0  0  0  0  0  0  0  0  0  0
   -3.7700    6.9540   13.1580 C   0  0  0  0  0  0  0  0  0  0  0  0
   -3.6850    6.1050   14.2700 C   0  0  0  0  0  0  0  0  0  0  0  0
   -4.0530    4.7510   14.1530 C   0  0  0  0  0  0  0  0  0  0  0  0
   -4.0150    3.8090   15.1660 N   0  0  0  0  0  0  0  0  0  0  0  0
   -4.4430    2.6530   14.6980 C   0  0  0  0  0  0  0  0  0  0  0  0
   -4.5620    1.1290   15.6050 S   0  0  0  0  0  0  0  0  0  0  0  0
   -4.3030   -0.1610   14.5420 N   0  0  0  0  0  0  0  0  0  0  0  0
   -5.9300    0.9970   16.0530 O   0  0  0  0  0  0  0  0  0  0  0  0
   -3.4470    1.0800   16.5230 O   0  0  0  0  0  0  0  0  0  0  0  0
   -4.8820    2.6100   13.0470 S   0  0  0  0  0  0  0  0  0  0  0  0
   -4.5010    4.2850   12.9150 C   0  0  0  0  0  0  0  0  0  0  0  0
   -4.5900    5.1290   11.7960 C   0  0  0  0  0  0  0  0  0  0  0  0
   -6.7065    7.6873   12.2883 H   0  0  0  0  0  0  0  0  0  0  0  0
   -7.4337    8.3575   10.7887 H   0  0  0  0  0  0  0  0  0  0  0  0
   -6.7438    6.6990   10.7887 H   0  0  0  0  0  0  0  0  0  0  0  0
   -5.3495    8.7235    9.7829 H   0  0  0  0  0  0  0  0  0  0  0  0
   -4.9675    9.0600   11.4940 H   0  0  0  0  0  0  0  0  0  0  0  0
   -3.4792    8.0104   13.2556 H   0  0  0  0  0  0  0  0  0  0  0  0
   -3.3305    6.4968   15.2348 H   0  0  0  0  0  0  0  0  0  0  0  0
   -4.8710   -0.9510   14.8550 H   0  0  0  0  0  0  0  0  0  0  0  0
   -4.5530    0.1410   13.5990 H   0  0  0  0  0  0  0  0  0  0  0  0
   -4.9451    4.7412   10.8298 H   0  0  0  0  0  0  0  0  0  0  0  0
  1  2  1  0
  2  3  1  0
  3  4  1  0
  4  5  2  0
  5  6  1  0
  6  7  2  0
  7  8  1  0
  8  9  2  0
  9 10  1  0
 10 11  1  0
 10 12  2  0
 10 13  2  0
  9 14  1  0
 14 15  1  0
 15 16  2  0
 16  4  1  0
 15  7  1  0
  1 17  1  0
  1 18  1  0
  1 19  1  0
  2 20  1  0
  2 21  1  0
  5 22  1  0
  6 23  1  0
 11 24  1  0
 11 25  1  0
 16 26  1  0
M  END
>  <meeko>  (9) 
{"is_sidechain": [false], "free_energy": -5.254, "intermolecular_energy": -6.457, "internal_energy": -0.059}

$$$$
