3ozs_ligand
     RDKit          3D

 50 52  0  0  0  0  0  0  0  0999 V2000
  -22.4970   31.3760    5.5540 O   0  0  0  0  0  0  0  0  0  0  0  0
  -22.6360   30.3680    6.2390 C   0  0  0  0  0  0  0  0  0  0  0  0
  -21.8330   30.0800    7.3160 N   0  0  0  0  0  0  0  0  0  0  0  0
  -20.8860   31.0370    7.8210 C   0  0  0  0  0  0  0  0  0  0  0  0
  -20.8940   30.9300    9.3120 C   0  0  0  0  0  0  0  0  0  0  0  0
  -20.1440   30.0650   10.0140 C   0  0  0  0  0  0  0  0  0  0  0  0
  -20.1560   29.9630   11.5110 C   0  0  1  0  0  0  0  0  0  0  0  0
  -19.0220   29.1720   11.9110 O   0  0  0  0  0  0  0  0  0  0  0  0
  -18.5250   29.7050   13.1560 C   0  0  1  0  0  0  0  0  0  0  0  0
  -17.1270   30.0830   13.0020 N   0  0  0  0  0  0  0  0  0  0  0  0
  -16.6200   31.0810   12.2220 C   0  0  0  0  0  0  0  0  0  0  0  0
  -15.3190   31.1880   12.3660 N   0  0  0  0  0  0  0  0  0  0  0  0
  -14.9440   30.1900   13.2540 C   0  0  0  0  0  0  0  0  0  0  0  0
  -13.5130   29.9720   13.6620 C   0  0  0  0  0  0  0  0  0  0  0  0
  -12.8550   29.1370   12.8170 F   0  0  0  0  0  0  0  0  0  0  0  0
  -13.4000   29.4520   14.9120 F   0  0  0  0  0  0  0  0  0  0  0  0
  -12.8110   31.1420   13.6660 F   0  0  0  0  0  0  0  0  0  0  0  0
  -16.0740   29.4940   13.6540 C   0  0  0  0  0  0  0  0  0  0  0  0
  -19.4180   30.8870   13.5540 C   0  0  2  0  0  0  0  0  0  0  0  0
  -20.5060   30.4660   14.4020 O   0  0  0  0  0  0  0  0  0  0  0  0
  -19.9970   31.3140   12.2150 C   0  0  2  0  0  0  0  0  0  0  0  0
  -21.2220   32.0200   12.3810 O   0  0  0  0  0  0  0  0  0  0  0  0
  -23.7190   29.3890    5.9140 C   0  0  0  0  0  0  0  0  0  0  0  0
  -24.8140   29.8640    5.1710 C   0  0  0  0  0  0  0  0  0  0  0  0
  -25.8660   28.9990    4.8310 C   0  0  0  0  0  0  0  0  0  0  0  0
  -27.0040   29.5040    4.0510 N   0  0  0  0  0  0  0  0  0  0  0  0
  -27.3040   30.6990    4.1730 O   0  0  0  0  0  0  0  0  0  0  0  0
  -27.5930   28.7010    3.3160 O   0  0  0  0  0  0  0  0  0  0  0  0
  -25.8490   27.6540    5.2240 C   0  0  0  0  0  0  0  0  0  0  0  0
  -24.7660   27.1940    5.9610 C   0  0  0  0  0  0  0  0  0  0  0  0
  -24.6840   25.8940    6.3830 O   0  0  0  0  0  0  0  0  0  0  0  0
  -23.7110   28.0460    6.3060 C   0  0  0  0  0  0  0  0  0  0  0  0
  -22.6850   27.5090    7.0460 O   0  0  0  0  0  0  0  0  0  0  0  0
  -22.1270   29.3170    7.9230 H   0  0  0  0  0  0  0  0  0  0  0  0
  -19.8814   30.8123    7.4333 H   0  0  0  0  0  0  0  0  0  0  0  0
  -21.1557   32.0550    7.5033 H   0  0  0  0  0  0  0  0  0  0  0  0
  -21.5585   31.6048    9.8715 H   0  0  0  0  0  0  0  0  0  0  0  0
  -19.4791   29.3888    9.4566 H   0  0  0  0  0  0  0  0  0  0  0  0
  -21.1276   29.5305   11.7919 H   0  0  0  0  0  0  0  0  0  0  0  0
  -18.5627   28.9557   13.9605 H   0  0  0  0  0  0  0  0  0  0  0  0
  -17.2242   31.7155   11.5569 H   0  0  0  0  0  0  0  0  0  0  0  0
  -16.1173   28.6441   14.3510 H   0  0  0  0  0  0  0  0  0  0  0  0
  -18.8676   31.6647   14.1037 H   0  0  0  0  0  0  0  0  0  0  0  0
  -21.3300   30.8310   14.0310 H   0  0  0  0  0  0  0  0  0  0  0  0
  -19.3779   32.0218   11.6442 H   0  0  0  0  0  0  0  0  0  0  0  0
  -20.9730   32.9070   12.7130 H   0  0  0  0  0  0  0  0  0  0  0  0
  -24.8465   30.9171    4.8550 H   0  0  0  0  0  0  0  0  0  0  0  0
  -26.6744   26.9785    4.9549 H   0  0  0  0  0  0  0  0  0  0  0  0
  -24.2360   25.3630    5.7000 H   0  0  0  0  0  0  0  0  0  0  0  0
  -23.1200   27.0520    7.7970 H   0  0  0  0  0  0  0  0  0  0  0  0
  1  2  2  0
  2  3  1  0
  3  4  1  0
  4  5  1  0
  5  6  2  0
  6  7  1  0
  7  8  1  0
  8  9  1  0
  9 10  1  0
 10 11  1  0
 11 12  2  0
 12 13  1  0
 13 14  1  0
 14 15  1  0
 14 16  1  0
 14 17  1  0
 13 18  2  0
  9 19  1  0
 19 20  1  0
 19 21  1  0
 21 22  1  0
  2 23  1  0
 23 24  2  0
 24 25  1  0
 25 26  1  0
 26 27  2  0
 26 28  1  0
 25 29  2  0
 29 30  1  0
 30 31  1  0
 30 32  2  0
 32 33  1  0
 21  7  1  0
 32 23  1  0
 18 10  1  0
  3 34  1  0
  4 35  1  0
  4 36  1  0
  5 37  1  0
  6 38  1  0
  7 39  1  1
  9 40  1  1
 11 41  1  0
 18 42  1  0
 19 43  1  1
 20 44  1  0
 21 45  1  6
 22 46  1  0
 24 47  1  0
 29 48  1  0
 31 49  1  0
 33 50  1  0
M  CHG  2  26   1  28  -1
M  END
>  <meeko>  (1) 
{"is_sidechain": [false], "free_energy": -9.956, "intermolecular_energy": -15.195, "internal_energy": -0.676}

$$$$
3ozs_ligand
     RDKit          3D

 50 52  0  0  0  0  0  0  0  0999 V2000
  -22.9860   31.5700    5.9120 O   0  0  0  0  0  0  0  0  0  0  0  0
  -22.9310   30.3970    6.2680 C   0  0  0  0  0  0  0  0  0  0  0  0
  -21.9340   29.9070    7.0770 N   0  0  0  0  0  0  0  0  0  0  0  0
  -20.9850   30.7830    7.7070 C   0  0  0  0  0  0  0  0  0  0  0  0
  -20.7120   30.2390    9.0730 C   0  0  0  0  0  0  0  0  0  0  0  0
  -19.8330   30.7690    9.9390 C   0  0  0  0  0  0  0  0  0  0  0  0
  -19.5640   30.2180   11.3080 C   0  0  1  0  0  0  0  0  0  0  0  0
  -19.2850   31.3250   12.1850 O   0  0  0  0  0  0  0  0  0  0  0  0
  -19.8300   31.0130   13.4830 C   0  0  1  0  0  0  0  0  0  0  0  0
  -20.7770   32.0470   13.8770 N   0  0  0  0  0  0  0  0  0  0  0  0
  -20.5000   33.2300   14.4970 C   0  0  0  0  0  0  0  0  0  0  0  0
  -21.5840   33.9560   14.6520 N   0  0  0  0  0  0  0  0  0  0  0  0
  -22.6310   33.2010   14.1440 C   0  0  0  0  0  0  0  0  0  0  0  0
  -24.0540   33.6860   14.1590 C   0  0  0  0  0  0  0  0  0  0  0  0
  -24.6520   33.5020   15.3640 F   0  0  0  0  0  0  0  0  0  0  0  0
  -24.8260   33.0690   13.2270 F   0  0  0  0  0  0  0  0  0  0  0  0
  -24.1290   35.0230   13.8960 F   0  0  0  0  0  0  0  0  0  0  0  0
  -22.1300   32.0020   13.6590 C   0  0  0  0  0  0  0  0  0  0  0  0
  -20.4710   29.6220   13.4050 C   0  0  2  0  0  0  0  0  0  0  0  0
  -19.5360   28.5870   13.7720 O   0  0  0  0  0  0  0  0  0  0  0  0
  -20.7650   29.4900   11.9190 C   0  0  2  0  0  0  0  0  0  0  0  0
  -20.8650   28.1240   11.5280 O   0  0  0  0  0  0  0  0  0  0  0  0
  -23.9820   29.4330    5.8200 C   0  0  0  0  0  0  0  0  0  0  0  0
  -25.0690   29.9550    5.0950 C   0  0  0  0  0  0  0  0  0  0  0  0
  -26.0910   29.1050    4.6440 C   0  0  0  0  0  0  0  0  0  0  0  0
  -27.2190   29.6600    3.8850 N   0  0  0  0  0  0  0  0  0  0  0  0
  -27.4150   30.8800    3.9470 O   0  0  0  0  0  0  0  0  0  0  0  0
  -27.9070   28.8680    3.2250 O   0  0  0  0  0  0  0  0  0  0  0  0
  -26.0530   27.7290    4.9060 C   0  0  0  0  0  0  0  0  0  0  0  0
  -24.9780   27.2220    5.6250 C   0  0  0  0  0  0  0  0  0  0  0  0
  -24.8770   25.8890    5.9210 O   0  0  0  0  0  0  0  0  0  0  0  0
  -23.9530   28.0580    6.0810 C   0  0  0  0  0  0  0  0  0  0  0  0
  -22.9350   27.4730    6.7930 O   0  0  0  0  0  0  0  0  0  0  0  0
  -22.0630   28.9720    7.4570 H   0  0  0  0  0  0  0  0  0  0  0  0
  -20.0544   30.8127    7.1213 H   0  0  0  0  0  0  0  0  0  0  0  0
  -21.3832   31.8065    7.7691 H   0  0  0  0  0  0  0  0  0  0  0  0
  -21.2686   29.3446    9.3897 H   0  0  0  0  0  0  0  0  0  0  0  0
  -19.2752   31.6634    9.6247 H   0  0  0  0  0  0  0  0  0  0  0  0
  -18.7331   29.5045   11.2049 H   0  0  0  0  0  0  0  0  0  0  0  0
  -19.0468   30.9911   14.2551 H   0  0  0  0  0  0  0  0  0  0  0  0
  -19.4962   33.5372   14.8256 H   0  0  0  0  0  0  0  0  0  0  0  0
  -22.7004   31.1838   13.1952 H   0  0  0  0  0  0  0  0  0  0  0  0
  -21.3389   29.5200   14.0731 H   0  0  0  0  0  0  0  0  0  0  0  0
  -18.6360   28.9480   13.6700 H   0  0  0  0  0  0  0  0  0  0  0  0
  -21.7285   29.9114   11.5964 H   0  0  0  0  0  0  0  0  0  0  0  0
  -19.9690   27.8690   11.2290 H   0  0  0  0  0  0  0  0  0  0  0  0
  -25.1181   31.0328    4.8809 H   0  0  0  0  0  0  0  0  0  0  0  0
  -26.8555   27.0659    4.5507 H   0  0  0  0  0  0  0  0  0  0  0  0
  -24.1350   25.7530    6.5380 H   0  0  0  0  0  0  0  0  0  0  0  0
  -22.1080   27.7960    6.3750 H   0  0  0  0  0  0  0  0  0  0  0  0
  1  2  2  0
  2  3  1  0
  3  4  1  0
  4  5  1  0
  5  6  2  0
  6  7  1  0
  7  8  1  0
  8  9  1  0
  9 10  1  0
 10 11  1  0
 11 12  2  0
 12 13  1  0
 13 14  1  0
 14 15  1  0
 14 16  1  0
 14 17  1  0
 13 18  2  0
  9 19  1  0
 19 20  1  0
 19 21  1  0
 21 22  1  0
  2 23  1  0
 23 24  2  0
 24 25  1  0
 25 26  1  0
 26 27  2  0
 26 28  1  0
 25 29  2  0
 29 30  1  0
 30 31  1  0
 30 32  2  0
 32 33  1  0
 21  7  1  0
 32 23  1  0
 18 10  1  0
  3 34  1  0
  4 35  1  0
  4 36  1  0
  5 37  1  0
  6 38  1  0
  7 39  1  6
  9 40  1  1
 11 41  1  0
 18 42  1  0
 19 43  1  1
 20 44  1  0
 21 45  1  1
 22 46  1  0
 24 47  1  0
 29 48  1  0
 31 49  1  0
 33 50  1  0
M  CHG  2  26   1  28  -1
M  END
>  <meeko>  (2) 
{"is_sidechain": [false], "free_energy": -8.758, "intermolecular_energy": -13.422, "internal_energy": -0.62}

$$$$
3ozs_ligand
     RDKit          3D

 50 52  0  0  0  0  0  0  0  0999 V2000
  -22.7930   30.8310    7.0470 O   0  0  0  0  0  0  0  0  0  0  0  0
  -21.6230   31.0120    6.7250 C   0  0  0  0  0  0  0  0  0  0  0  0
  -20.5660   30.4550    7.4030 N   0  0  0  0  0  0  0  0  0  0  0  0
  -20.7730   29.4730    8.4330 C   0  0  0  0  0  0  0  0  0  0  0  0
  -20.5450   30.1480    9.7470 C   0  0  0  0  0  0  0  0  0  0  0  0
  -20.4970   29.5110   10.9290 C   0  0  0  0  0  0  0  0  0  0  0  0
  -20.2680   30.1940   12.2440 C   0  0  1  0  0  0  0  0  0  0  0  0
  -19.2130   29.4950   12.9300 O   0  0  0  0  0  0  0  0  0  0  0  0
  -18.4370   30.4660   13.6600 C   0  0  1  0  0  0  0  0  0  0  0  0
  -17.0450   30.3980   13.2370 N   0  0  0  0  0  0  0  0  0  0  0  0
  -16.4440   31.1240   12.2510 C   0  0  0  0  0  0  0  0  0  0  0  0
  -15.1600   30.8560   12.1710 N   0  0  0  0  0  0  0  0  0  0  0  0
  -14.9100   29.8800   13.1250 C   0  0  0  0  0  0  0  0  0  0  0  0
  -13.5430   29.2880   13.3320 C   0  0  0  0  0  0  0  0  0  0  0  0
  -13.4560   28.0110   12.8770 F   0  0  0  0  0  0  0  0  0  0  0  0
  -13.1700   29.2780   14.6380 F   0  0  0  0  0  0  0  0  0  0  0  0
  -12.5860   29.9960   12.6650 F   0  0  0  0  0  0  0  0  0  0  0  0
  -16.0890   29.5880   13.7940 C   0  0  0  0  0  0  0  0  0  0  0  0
  -19.0620   31.8460   13.4220 C   0  0  2  0  0  0  0  0  0  0  0  0
  -20.0400   32.1660   14.4330 O   0  0  0  0  0  0  0  0  0  0  0  0
  -19.7910   31.6420   12.1050 C   0  0  2  0  0  0  0  0  0  0  0  0
  -20.8510   32.5800   11.9460 O   0  0  0  0  0  0  0  0  0  0  0  0
  -21.2990   31.8720    5.5440 C   0  0  0  0  0  0  0  0  0  0  0  0
  -20.0020   32.4100    5.4760 C   0  0  0  0  0  0  0  0  0  0  0  0
  -19.6320   33.2260    4.3950 C   0  0  0  0  0  0  0  0  0  0  0  0
  -18.2730   33.7800    4.3310 N   0  0  0  0  0  0  0  0  0  0  0  0
  -17.5410   33.4140    3.4030 O   0  0  0  0  0  0  0  0  0  0  0  0
  -17.9430   34.5850    5.2130 O   0  0  0  0  0  0  0  0  0  0  0  0
  -20.5410   33.5210    3.3700 C   0  0  0  0  0  0  0  0  0  0  0  0
  -21.8200   32.9890    3.4480 C   0  0  0  0  0  0  0  0  0  0  0  0
  -22.7620   33.2380    2.4850 O   0  0  0  0  0  0  0  0  0  0  0  0
  -22.2030   32.1740    4.5190 C   0  0  0  0  0  0  0  0  0  0  0  0
  -23.4910   31.6990    4.5200 O   0  0  0  0  0  0  0  0  0  0  0  0
  -19.6490   30.5190    6.9660 H   0  0  0  0  0  0  0  0  0  0  0  0
  -21.8016   29.0863    8.3825 H   0  0  0  0  0  0  0  0  0  0  0  0
  -20.0824   28.6262    8.3065 H   0  0  0  0  0  0  0  0  0  0  0  0
  -20.4073   31.2393    9.7462 H   0  0  0  0  0  0  0  0  0  0  0  0
  -20.6344   28.4196   10.9322 H   0  0  0  0  0  0  0  0  0  0  0  0
  -21.2315   30.1888   12.7748 H   0  0  0  0  0  0  0  0  0  0  0  0
  -18.4482   30.2621   14.7409 H   0  0  0  0  0  0  0  0  0  0  0  0
  -16.9680   31.8432   11.6043 H   0  0  0  0  0  0  0  0  0  0  0  0
  -16.2286   28.8573   14.6043 H   0  0  0  0  0  0  0  0  0  0  0  0
  -18.3157   32.6540   13.4329 H   0  0  0  0  0  0  0  0  0  0  0  0
  -19.7800   33.0120   14.8410 H   0  0  0  0  0  0  0  0  0  0  0  0
  -19.1789   31.8046   11.2056 H   0  0  0  0  0  0  0  0  0  0  0  0
  -21.0600   32.8980   12.8490 H   0  0  0  0  0  0  0  0  0  0  0  0
  -19.2750   32.1911    6.2719 H   0  0  0  0  0  0  0  0  0  0  0  0
  -20.2474   34.1593    2.5236 H   0  0  0  0  0  0  0  0  0  0  0  0
  -22.4700   32.8450    1.6420 H   0  0  0  0  0  0  0  0  0  0  0  0
  -23.9900   32.3030    3.9290 H   0  0  0  0  0  0  0  0  0  0  0  0
  1  2  2  0
  2  3  1  0
  3  4  1  0
  4  5  1  0
  5  6  2  0
  6  7  1  0
  7  8  1  0
  8  9  1  0
  9 10  1  0
 10 11  1  0
 11 12  2  0
 12 13  1  0
 13 14  1  0
 14 15  1  0
 14 16  1  0
 14 17  1  0
 13 18  2  0
  9 19  1  0
 19 20  1  0
 19 21  1  0
 21 22  1  0
  2 23  1  0
 23 24  2  0
 24 25  1  0
 25 26  1  0
 26 27  2  0
 26 28  1  0
 25 29  2  0
 29 30  1  0
 30 31  1  0
 30 32  2  0
 32 33  1  0
 21  7  1  0
 32 23  1  0
 18 10  1  0
  3 34  1  0
  4 35  1  0
  4 36  1  0
  5 37  1  0
  6 38  1  0
  7 39  1  1
  9 40  1  1
 11 41  1  0
 18 42  1  0
 19 43  1  6
 20 44  1  0
 21 45  1  6
 22 46  1  0
 24 47  1  0
 29 48  1  0
 31 49  1  0
 33 50  1  0
M  CHG  2  26   1  28  -1
M  END
>  <meeko>  (3) 
{"is_sidechain": [false], "free_energy": -8.65, "intermolecular_energy": -12.993, "internal_energy": -0.885}

$$$$
3ozs_ligand
     RDKit          3D

 50 52  0  0  0  0  0  0  0  0999 V2000
  -21.5200   29.6030    7.4090 O   0  0  0  0  0  0  0  0  0  0  0  0
  -22.5490   30.1070    6.9710 C   0  0  0  0  0  0  0  0  0  0  0  0
  -22.7890   31.4600    7.0000 N   0  0  0  0  0  0  0  0  0  0  0  0
  -21.7660   32.3930    7.3860 C   0  0  0  0  0  0  0  0  0  0  0  0
  -22.0280   32.7820    8.8050 C   0  0  0  0  0  0  0  0  0  0  0  0
  -22.7960   33.8190    9.1790 C   0  0  0  0  0  0  0  0  0  0  0  0
  -23.0550   34.2040   10.6050 C   0  0  1  0  0  0  0  0  0  0  0  0
  -22.8370   33.0400   11.4250 O   0  0  0  0  0  0  0  0  0  0  0  0
  -22.2650   33.4770   12.6740 C   0  0  1  0  0  0  0  0  0  0  0  0
  -20.9870   32.8110   12.8850 N   0  0  0  0  0  0  0  0  0  0  0  0
  -20.0830   33.0510   13.8780 C   0  0  0  0  0  0  0  0  0  0  0  0
  -19.0620   32.2270   13.8070 N   0  0  0  0  0  0  0  0  0  0  0  0
  -19.2850   31.4300   12.6940 C   0  0  0  0  0  0  0  0  0  0  0  0
  -18.3180   30.3630   12.2610 C   0  0  0  0  0  0  0  0  0  0  0  0
  -17.4510   30.8030   11.3130 F   0  0  0  0  0  0  0  0  0  0  0  0
  -18.9420   29.2650   11.7600 F   0  0  0  0  0  0  0  0  0  0  0  0
  -17.5540   29.9280   13.3040 F   0  0  0  0  0  0  0  0  0  0  0  0
  -20.4900   31.7940   12.1110 C   0  0  0  0  0  0  0  0  0  0  0  0
  -22.1360   35.0040   12.6270 C   0  0  2  0  0  0  0  0  0  0  0  0
  -23.3060   35.6510   13.1690 O   0  0  0  0  0  0  0  0  0  0  0  0
  -22.0950   35.2750   11.1320 C   0  0  2  0  0  0  0  0  0  0  0  0
  -22.5030   36.6050   10.8330 O   0  0  0  0  0  0  0  0  0  0  0  0
  -23.6070   29.2380    6.3710 C   0  0  0  0  0  0  0  0  0  0  0  0
  -24.5920   29.8690    5.5900 C   0  0  0  0  0  0  0  0  0  0  0  0
  -25.6160   29.1130    4.9970 C   0  0  0  0  0  0  0  0  0  0  0  0
  -26.6370   29.7800    4.1800 N   0  0  0  0  0  0  0  0  0  0  0  0
  -26.6780   31.0170    4.2020 O   0  0  0  0  0  0  0  0  0  0  0  0
  -27.3970   29.0610    3.5160 O   0  0  0  0  0  0  0  0  0  0  0  0
  -25.6790   27.7230    5.1720 C   0  0  0  0  0  0  0  0  0  0  0  0
  -24.7050   27.1090    5.9470 C   0  0  0  0  0  0  0  0  0  0  0  0
  -24.7060   25.7570    6.1640 O   0  0  0  0  0  0  0  0  0  0  0  0
  -23.6790   27.8510    6.5430 C   0  0  0  0  0  0  0  0  0  0  0  0
  -22.7640   27.1630    7.3020 O   0  0  0  0  0  0  0  0  0  0  0  0
  -23.5840   31.8010    6.4640 H   0  0  0  0  0  0  0  0  0  0  0  0
  -20.7759   31.9212    7.3022 H   0  0  0  0  0  0  0  0  0  0  0  0
  -21.7802   33.2773    6.7320 H   0  0  0  0  0  0  0  0  0  0  0  0
  -21.5604   32.1784    9.5968 H   0  0  0  0  0  0  0  0  0  0  0  0
  -23.2646   34.4241    8.3889 H   0  0  0  0  0  0  0  0  0  0  0  0
  -24.0810   34.5986   10.6456 H   0  0  0  0  0  0  0  0  0  0  0  0
  -22.9057   33.2098   13.5273 H   0  0  0  0  0  0  0  0  0  0  0  0
  -20.1946   33.8350   14.6414 H   0  0  0  0  0  0  0  0  0  0  0  0
  -20.9515   31.3570   11.2132 H   0  0  0  0  0  0  0  0  0  0  0  0
  -21.2725   35.3712   13.2011 H   0  0  0  0  0  0  0  0  0  0  0  0
  -23.3890   36.5230   12.7410 H   0  0  0  0  0  0  0  0  0  0  0  0
  -21.0959   35.2142   10.6758 H   0  0  0  0  0  0  0  0  0  0  0  0
  -21.7080   37.0520   10.4760 H   0  0  0  0  0  0  0  0  0  0  0  0
  -24.5600   30.9587    5.4432 H   0  0  0  0  0  0  0  0  0  0  0  0
  -26.4818   27.1330    4.7058 H   0  0  0  0  0  0  0  0  0  0  0  0
  -25.2340   25.5610    6.9590 H   0  0  0  0  0  0  0  0  0  0  0  0
  -22.2360   27.8520    7.7590 H   0  0  0  0  0  0  0  0  0  0  0  0
  1  2  2  0
  2  3  1  0
  3  4  1  0
  4  5  1  0
  5  6  2  0
  6  7  1  0
  7  8  1  0
  8  9  1  0
  9 10  1  0
 10 11  1  0
 11 12  2  0
 12 13  1  0
 13 14  1  0
 14 15  1  0
 14 16  1  0
 14 17  1  0
 13 18  2  0
  9 19  1  0
 19 20  1  0
 19 21  1  0
 21 22  1  0
  2 23  1  0
 23 24  2  0
 24 25  1  0
 25 26  1  0
 26 27  2  0
 26 28  1  0
 25 29  2  0
 29 30  1  0
 30 31  1  0
 30 32  2  0
 32 33  1  0
 21  7  1  0
 32 23  1  0
 18 10  1  0
  3 34  1  0
  4 35  1  0
  4 36  1  0
  5 37  1  0
  6 38  1  0
  7 39  1  6
  9 40  1  1
 11 41  1  0
 18 42  1  0
 19 43  1  1
 20 44  1  0
 21 45  1  6
 22 46  1  0
 24 47  1  0
 29 48  1  0
 31 49  1  0
 33 50  1  0
M  CHG  2  26   1  28  -1
M  END
>  <meeko>  (4) 
{"is_sidechain": [false], "free_energy": -8.565, "intermolecular_energy": -12.357, "internal_energy": -1.389}

$$$$
3ozs_ligand
     RDKit          3D

 50 52  0  0  0  0  0  0  0  0999 V2000
  -17.1370   30.8060   11.1720 O   0  0  0  0  0  0  0  0  0  0  0  0
  -16.8040   30.6120   12.3360 C   0  0  0  0  0  0  0  0  0  0  0  0
  -17.7090   30.3680   13.3410 N   0  0  0  0  0  0  0  0  0  0  0  0
  -19.1000   30.1460   13.0570 C   0  0  0  0  0  0  0  0  0  0  0  0
  -19.7360   31.4850   12.8610 C   0  0  0  0  0  0  0  0  0  0  0  0
  -21.0620   31.6980   12.8350 C   0  0  0  0  0  0  0  0  0  0  0  0
  -21.6940   33.0450   12.6380 C   0  0  1  0  0  0  0  0  0  0  0  0
  -21.2230   33.5760   11.3860 O   0  0  0  0  0  0  0  0  0  0  0  0
  -22.3020   34.3210   10.7860 C   0  0  1  0  0  0  0  0  0  0  0  0
  -22.5960   33.7790    9.4670 N   0  0  0  0  0  0  0  0  0  0  0  0
  -23.4350   34.2990    8.5260 C   0  0  0  0  0  0  0  0  0  0  0  0
  -23.4200   33.5870    7.4220 N   0  0  0  0  0  0  0  0  0  0  0  0
  -22.5580   32.5260    7.6580 C   0  0  0  0  0  0  0  0  0  0  0  0
  -22.2870   31.4640    6.6280 C   0  0  0  0  0  0  0  0  0  0  0  0
  -21.0180   30.9840    6.7010 F   0  0  0  0  0  0  0  0  0  0  0  0
  -22.4790   31.9070    5.3590 F   0  0  0  0  0  0  0  0  0  0  0  0
  -23.1110   30.3900    6.7900 F   0  0  0  0  0  0  0  0  0  0  0  0
  -22.0400   32.6410    8.9400 C   0  0  0  0  0  0  0  0  0  0  0  0
  -23.5060   34.2570   11.7340 C   0  0  2  0  0  0  0  0  0  0  0  0
  -23.5170   35.3700   12.6510 O   0  0  0  0  0  0  0  0  0  0  0  0
  -23.2200   32.9920   12.5260 C   0  0  2  0  0  0  0  0  0  0  0  0
  -23.8870   33.0050   13.7840 O   0  0  0  0  0  0  0  0  0  0  0  0
  -15.3570   30.6340   12.7110 C   0  0  0  0  0  0  0  0  0  0  0  0
  -14.4890   31.3720   11.8870 C   0  0  0  0  0  0  0  0  0  0  0  0
  -13.1180   31.4350   12.1810 C   0  0  0  0  0  0  0  0  0  0  0  0
  -12.2210   32.2130   11.3150 N   0  0  0  0  0  0  0  0  0  0  0  0
  -11.6800   31.6280   10.3690 O   0  0  0  0  0  0  0  0  0  0  0  0
  -12.0630   33.4110   11.5870 O   0  0  0  0  0  0  0  0  0  0  0  0
  -12.5870   30.7670   13.2920 C   0  0  0  0  0  0  0  0  0  0  0  0
  -13.4510   30.0370   14.0990 C   0  0  0  0  0  0  0  0  0  0  0  0
  -13.0020   29.3560   15.1990 O   0  0  0  0  0  0  0  0  0  0  0  0
  -14.8190   29.9660   13.8180 C   0  0  0  0  0  0  0  0  0  0  0  0
  -15.5970   29.2130   14.6630 O   0  0  0  0  0  0  0  0  0  0  0  0
  -17.3360   30.0510   14.2340 H   0  0  0  0  0  0  0  0  0  0  0  0
  -19.2055   29.5424   12.1435 H   0  0  0  0  0  0  0  0  0  0  0  0
  -19.5832   29.6039   13.8832 H   0  0  0  0  0  0  0  0  0  0  0  0
  -19.0739   32.3535   12.7293 H   0  0  0  0  0  0  0  0  0  0  0  0
  -21.7262   30.8310   12.9663 H   0  0  0  0  0  0  0  0  0  0  0  0
  -21.4258   33.6530   13.5146 H   0  0  0  0  0  0  0  0  0  0  0  0
  -22.0312   35.3772   10.6404 H   0  0  0  0  0  0  0  0  0  0  0  0
  -24.0472   35.2010    8.6729 H   0  0  0  0  0  0  0  0  0  0  0  0
  -21.3300   31.9601    9.4322 H   0  0  0  0  0  0  0  0  0  0  0  0
  -24.4664   34.2758   11.1980 H   0  0  0  0  0  0  0  0  0  0  0  0
  -22.8010   35.2300   13.2970 H   0  0  0  0  0  0  0  0  0  0  0  0
  -23.5812   32.0615   12.0636 H   0  0  0  0  0  0  0  0  0  0  0  0
  -24.0220   33.9500   14.0020 H   0  0  0  0  0  0  0  0  0  0  0  0
  -14.8859   31.9020   11.0086 H   0  0  0  0  0  0  0  0  0  0  0  0
  -11.5121   30.8191   13.5200 H   0  0  0  0  0  0  0  0  0  0  0  0
  -13.7620   29.1210   15.7620 H   0  0  0  0  0  0  0  0  0  0  0  0
  -16.4750   29.1610   14.2290 H   0  0  0  0  0  0  0  0  0  0  0  0
  1  2  2  0
  2  3  1  0
  3  4  1  0
  4  5  1  0
  5  6  2  0
  6  7  1  0
  7  8  1  0
  8  9  1  0
  9 10  1  0
 10 11  1  0
 11 12  2  0
 12 13  1  0
 13 14  1  0
 14 15  1  0
 14 16  1  0
 14 17  1  0
 13 18  2  0
  9 19  1  0
 19 20  1  0
 19 21  1  0
 21 22  1  0
  2 23  1  0
 23 24  2  0
 24 25  1  0
 25 26  1  0
 26 27  2  0
 26 28  1  0
 25 29  2  0
 29 30  1  0
 30 31  1  0
 30 32  2  0
 32 33  1  0
 21  7  1  0
 32 23  1  0
 18 10  1  0
  3 34  1  0
  4 35  1  0
  4 36  1  0
  5 37  1  0
  6 38  1  0
  7 39  1  1
  9 40  1  6
 11 41  1  0
 18 42  1  0
 19 43  1  6
 20 44  1  0
 21 45  1  6
 22 46  1  0
 24 47  1  0
 29 48  1  0
 31 49  1  0
 33 50  1  0
M  CHG  2  26   1  28  -1
M  END
>  <meeko>  (5) 
{"is_sidechain": [false], "free_energy": -8.231, "intermolecular_energy": -12.3, "internal_energy": -0.937}

$$$$
3ozs_ligand
     RDKit          3D

 50 52  0  0  0  0  0  0  0  0999 V2000
  -16.9190   30.8770   11.1420 O   0  0  0  0  0  0  0  0  0  0  0  0
  -16.6040   30.8490   12.3270 C   0  0  0  0  0  0  0  0  0  0  0  0
  -17.5250   30.8860   13.3460 N   0  0  0  0  0  0  0  0  0  0  0  0
  -18.9340   30.7770   13.0850 C   0  0  0  0  0  0  0  0  0  0  0  0
  -19.5550   32.0940   13.4250 C   0  0  0  0  0  0  0  0  0  0  0  0
  -20.6540   32.2410   14.1820 C   0  0  0  0  0  0  0  0  0  0  0  0
  -21.2720   33.5660   14.5200 C   0  0  1  0  0  0  0  0  0  0  0  0
  -20.5640   34.5840   13.7890 O   0  0  0  0  0  0  0  0  0  0  0  0
  -21.5150   35.5990   13.4070 C   0  0  1  0  0  0  0  0  0  0  0  0
  -21.5060   35.7570   11.9590 N   0  0  0  0  0  0  0  0  0  0  0  0
  -20.7840   36.6540   11.2290 C   0  0  0  0  0  0  0  0  0  0  0  0
  -20.9670   36.4830    9.9400 N   0  0  0  0  0  0  0  0  0  0  0  0
  -21.8820   35.4470    9.8130 C   0  0  0  0  0  0  0  0  0  0  0  0
  -22.3690   34.9620    8.4760 C   0  0  0  0  0  0  0  0  0  0  0  0
  -21.3670   34.8650    7.5640 F   0  0  0  0  0  0  0  0  0  0  0  0
  -23.3230   35.7700    7.9440 F   0  0  0  0  0  0  0  0  0  0  0  0
  -22.9240   33.7200    8.5670 F   0  0  0  0  0  0  0  0  0  0  0  0
  -22.2240   34.9910   11.0770 C   0  0  0  0  0  0  0  0  0  0  0  0
  -22.8890   35.1880   13.9490 C   0  0  2  0  0  0  0  0  0  0  0  0
  -23.1290   35.7420   15.2590 O   0  0  0  0  0  0  0  0  0  0  0  0
  -22.7380   33.6820   14.0920 C   0  0  2  0  0  0  0  0  0  0  0  0
  -23.6550   33.1560   15.0450 O   0  0  0  0  0  0  0  0  0  0  0  0
  -15.1610   30.7720   12.7130 C   0  0  0  0  0  0  0  0  0  0  0  0
  -14.2400   31.4590   11.9020 C   0  0  0  0  0  0  0  0  0  0  0  0
  -12.8700   31.4280   12.2070 C   0  0  0  0  0  0  0  0  0  0  0  0
  -11.9160   32.1520   11.3570 N   0  0  0  0  0  0  0  0  0  0  0  0
  -11.5730   33.2870   11.7090 O   0  0  0  0  0  0  0  0  0  0  0  0
  -11.5130   31.5790   10.3360 O   0  0  0  0  0  0  0  0  0  0  0  0
  -12.3940   30.7140   13.3160 C   0  0  0  0  0  0  0  0  0  0  0  0
  -13.3100   30.0360   14.1080 C   0  0  0  0  0  0  0  0  0  0  0  0
  -12.9160   29.3150   15.2040 O   0  0  0  0  0  0  0  0  0  0  0  0
  -14.6780   30.0590   13.8160 C   0  0  0  0  0  0  0  0  0  0  0  0
  -15.5110   29.3510   14.6480 O   0  0  0  0  0  0  0  0  0  0  0  0
  -17.1850   30.6870   14.2850 H   0  0  0  0  0  0  0  0  0  0  0  0
  -19.1028   30.5447   12.0231 H   0  0  0  0  0  0  0  0  0  0  0  0
  -19.3792   29.9709   13.6866 H   0  0  0  0  0  0  0  0  0  0  0  0
  -19.0796   33.0032   13.0284 H   0  0  0  0  0  0  0  0  0  0  0  0
  -21.1314   31.3332   14.5794 H   0  0  0  0  0  0  0  0  0  0  0  0
  -21.2143   33.6740   15.6132 H   0  0  0  0  0  0  0  0  0  0  0  0
  -21.2532   36.5786   13.8334 H   0  0  0  0  0  0  0  0  0  0  0  0
  -20.1305   37.4240   11.6649 H   0  0  0  0  0  0  0  0  0  0  0  0
  -22.9269   34.1811   11.3219 H   0  0  0  0  0  0  0  0  0  0  0  0
  -23.7138   35.5247   13.3037 H   0  0  0  0  0  0  0  0  0  0  0  0
  -22.6020   36.5590   15.3370 H   0  0  0  0  0  0  0  0  0  0  0  0
  -22.9647   33.1032   13.1845 H   0  0  0  0  0  0  0  0  0  0  0  0
  -24.0740   32.3840   14.6100 H   0  0  0  0  0  0  0  0  0  0  0  0
  -14.5942   32.0223   11.0261 H   0  0  0  0  0  0  0  0  0  0  0  0
  -11.3200   30.6918   13.5526 H   0  0  0  0  0  0  0  0  0  0  0  0
  -12.7330   28.3970   14.9340 H   0  0  0  0  0  0  0  0  0  0  0  0
  -15.0480   28.5020   14.8160 H   0  0  0  0  0  0  0  0  0  0  0  0
  1  2  2  0
  2  3  1  0
  3  4  1  0
  4  5  1  0
  5  6  2  0
  6  7  1  0
  7  8  1  0
  8  9  1  0
  9 10  1  0
 10 11  1  0
 11 12  2  0
 12 13  1  0
 13 14  1  0
 14 15  1  0
 14 16  1  0
 14 17  1  0
 13 18  2  0
  9 19  1  0
 19 20  1  0
 19 21  1  0
 21 22  1  0
  2 23  1  0
 23 24  2  0
 24 25  1  0
 25 26  1  0
 26 27  2  0
 26 28  1  0
 25 29  2  0
 29 30  1  0
 30 31  1  0
 30 32  2  0
 32 33  1  0
 21  7  1  0
 32 23  1  0
 18 10  1  0
  3 34  1  0
  4 35  1  0
  4 36  1  0
  5 37  1  0
  6 38  1  0
  7 39  1  1
  9 40  1  1
 11 41  1  0
 18 42  1  0
 19 43  1  6
 20 44  1  0
 21 45  1  6
 22 46  1  0
 24 47  1  0
 29 48  1  0
 31 49  1  0
 33 50  1  0
M  CHG  2  26   1  28  -1
M  END
>  <meeko>  (6) 
{"is_sidechain": [false], "free_energy": -8.017, "intermolecular_energy": -11.931, "internal_energy": -0.981}

$$$$
3ozs_ligand
     RDKit          3D

 50 52  0  0  0  0  0  0  0  0999 V2000
  -23.5230   34.5470   16.0770 O   0  0  0  0  0  0  0  0  0  0  0  0
  -23.8140   34.7600   14.9040 C   0  0  0  0  0  0  0  0  0  0  0  0
  -22.8760   34.8380   13.9040 N   0  0  0  0  0  0  0  0  0  0  0  0
  -21.5000   34.4940   14.1400 C   0  0  0  0  0  0  0  0  0  0  0  0
  -21.2140   33.2420   13.3750 C   0  0  0  0  0  0  0  0  0  0  0  0
  -20.0150   32.6380   13.3300 C   0  0  0  0  0  0  0  0  0  0  0  0
  -19.7340   31.3820   12.5600 C   0  0  1  0  0  0  0  0  0  0  0  0
  -18.4580   31.5340   11.9110 O   0  0  0  0  0  0  0  0  0  0  0  0
  -17.8050   30.2480   11.9070 C   0  0  1  0  0  0  0  0  0  0  0  0
  -16.5170   30.3520   12.5770 N   0  0  0  0  0  0  0  0  0  0  0  0
  -16.1790   29.8580   13.8020 C   0  0  0  0  0  0  0  0  0  0  0  0
  -14.9140   30.0790   14.0770 N   0  0  0  0  0  0  0  0  0  0  0  0
  -14.4010   30.7840   12.9980 C   0  0  0  0  0  0  0  0  0  0  0  0
  -12.9700   31.2460   12.9450 C   0  0  0  0  0  0  0  0  0  0  0  0
  -12.3190   31.0520   14.1210 F   0  0  0  0  0  0  0  0  0  0  0  0
  -12.8580   32.5630   12.6330 F   0  0  0  0  0  0  0  0  0  0  0  0
  -12.2610   30.5650   11.9990 F   0  0  0  0  0  0  0  0  0  0  0  0
  -15.4030   30.9600   12.0560 C   0  0  0  0  0  0  0  0  0  0  0  0
  -18.7440   29.2390   12.5800 C   0  0  2  0  0  0  0  0  0  0  0  0
  -19.5950   28.5850   11.6180 O   0  0  0  0  0  0  0  0  0  0  0  0
  -19.6100   30.1390   13.4460 C   0  0  2  0  0  0  0  0  0  0  0  0
  -20.8590   29.5240   13.7470 O   0  0  0  0  0  0  0  0  0  0  0  0
  -25.2450   34.9470   14.5150 C   0  0  0  0  0  0  0  0  0  0  0  0
  -25.7230   34.1850   13.4330 C   0  0  0  0  0  0  0  0  0  0  0  0
  -27.0570   34.3120   13.0140 C   0  0  0  0  0  0  0  0  0  0  0  0
  -27.5470   33.5090   11.8870 N   0  0  0  0  0  0  0  0  0  0  0  0
  -27.8320   34.0980   10.8370 O   0  0  0  0  0  0  0  0  0  0  0  0
  -27.6450   32.2860   12.0570 O   0  0  0  0  0  0  0  0  0  0  0  0
  -27.9340   35.1950   13.6590 C   0  0  0  0  0  0  0  0  0  0  0  0
  -27.4530   35.9460   14.7230 C   0  0  0  0  0  0  0  0  0  0  0  0
  -28.2520   36.8310   15.3960 O   0  0  0  0  0  0  0  0  0  0  0  0
  -26.1260   35.8290   15.1510 C   0  0  0  0  0  0  0  0  0  0  0  0
  -25.7330   36.6180   16.2040 O   0  0  0  0  0  0  0  0  0  0  0  0
  -23.2190   34.8460   12.9460 H   0  0  0  0  0  0  0  0  0  0  0  0
  -20.8445   35.3056   13.7912 H   0  0  0  0  0  0  0  0  0  0  0  0
  -21.3164   34.3431   15.2140 H   0  0  0  0  0  0  0  0  0  0  0  0
  -22.0405   32.7848   12.8113 H   0  0  0  0  0  0  0  0  0  0  0  0
  -19.1871   33.0933   13.8934 H   0  0  0  0  0  0  0  0  0  0  0  0
  -20.5767   31.2400   11.8673 H   0  0  0  0  0  0  0  0  0  0  0  0
  -17.6006   29.9015   10.8832 H   0  0  0  0  0  0  0  0  0  0  0  0
  -16.8778   29.3397   14.4751 H   0  0  0  0  0  0  0  0  0  0  0  0
  -15.3215   31.4799   11.0901 H   0  0  0  0  0  0  0  0  0  0  0  0
  -18.1987   28.4467   13.1138 H   0  0  0  0  0  0  0  0  0  0  0  0
  -19.5860   27.6300   11.8130 H   0  0  0  0  0  0  0  0  0  0  0  0
  -19.1980   30.3644   14.4407 H   0  0  0  0  0  0  0  0  0  0  0  0
  -21.5300   30.2310   13.6550 H   0  0  0  0  0  0  0  0  0  0  0  0
  -25.0493   33.4875   12.9137 H   0  0  0  0  0  0  0  0  0  0  0  0
  -28.9792   35.2907   13.3297 H   0  0  0  0  0  0  0  0  0  0  0  0
  -27.6930   37.4230   15.9330 H   0  0  0  0  0  0  0  0  0  0  0  0
  -25.9240   37.5390   15.9230 H   0  0  0  0  0  0  0  0  0  0  0  0
  1  2  2  0
  2  3  1  0
  3  4  1  0
  4  5  1  0
  5  6  2  0
  6  7  1  0
  7  8  1  0
  8  9  1  0
  9 10  1  0
 10 11  1  0
 11 12  2  0
 12 13  1  0
 13 14  1  0
 14 15  1  0
 14 16  1  0
 14 17  1  0
 13 18  2  0
  9 19  1  0
 19 20  1  0
 19 21  1  0
 21 22  1  0
  2 23  1  0
 23 24  2  0
 24 25  1  0
 25 26  1  0
 26 27  2  0
 26 28  1  0
 25 29  2  0
 29 30  1  0
 30 31  1  0
 30 32  2  0
 32 33  1  0
 21  7  1  0
 32 23  1  0
 18 10  1  0
  3 34  1  0
  4 35  1  0
  4 36  1  0
  5 37  1  0
  6 38  1  0
  7 39  1  6
  9 40  1  6
 11 41  1  0
 18 42  1  0
 19 43  1  1
 20 44  1  0
 21 45  1  1
 22 46  1  0
 24 47  1  0
 29 48  1  0
 31 49  1  0
 33 50  1  0
M  CHG  2  26   1  28  -1
M  END
>  <meeko>  (7) 
{"is_sidechain": [false], "free_energy": -7.977, "intermolecular_energy": -11.873, "internal_energy": -0.977}

$$$$
3ozs_ligand
     RDKit          3D

 50 52  0  0  0  0  0  0  0  0999 V2000
  -23.1360   28.0720    6.6280 O   0  0  0  0  0  0  0  0  0  0  0  0
  -23.0970   29.2930    6.7340 C   0  0  0  0  0  0  0  0  0  0  0  0
  -22.1060   29.9530    7.4200 N   0  0  0  0  0  0  0  0  0  0  0  0
  -20.9450   29.2590    7.9080 C   0  0  0  0  0  0  0  0  0  0  0  0
  -20.9500   29.3730    9.3990 C   0  0  0  0  0  0  0  0  0  0  0  0
  -20.0440   30.0650   10.1090 C   0  0  0  0  0  0  0  0  0  0  0  0
  -20.0550   30.1760   11.6050 C   0  0  1  0  0  0  0  0  0  0  0  0
  -19.0190   29.3190   12.1210 O   0  0  0  0  0  0  0  0  0  0  0  0
  -18.4510   29.9580   13.2830 C   0  0  1  0  0  0  0  0  0  0  0  0
  -17.0200   30.1410   13.0890 N   0  0  0  0  0  0  0  0  0  0  0  0
  -16.4020   31.0880   12.3260 C   0  0  0  0  0  0  0  0  0  0  0  0
  -15.0950   31.0060   12.4220 N   0  0  0  0  0  0  0  0  0  0  0  0
  -14.8360   29.9300   13.2600 C   0  0  0  0  0  0  0  0  0  0  0  0
  -13.4380   29.4960   13.6040 C   0  0  0  0  0  0  0  0  0  0  0  0
  -13.2020   29.5210   14.9420 F   0  0  0  0  0  0  0  0  0  0  0  0
  -12.4910   30.2690   13.0130 F   0  0  0  0  0  0  0  0  0  0  0  0
  -13.1980   28.2160   13.1980 F   0  0  0  0  0  0  0  0  0  0  0  0
  -16.0400   29.3830   13.6780 C   0  0  0  0  0  0  0  0  0  0  0  0
  -19.1930   31.2810   13.5050 C   0  0  2  0  0  0  0  0  0  0  0  0
  -20.3160   31.1160   14.3940 O   0  0  0  0  0  0  0  0  0  0  0  0
  -19.7290   31.5830   12.1150 C   0  0  2  0  0  0  0  0  0  0  0  0
  -20.8600   32.4460   12.1700 O   0  0  0  0  0  0  0  0  0  0  0  0
  -24.1610   30.1300    6.0990 C   0  0  0  0  0  0  0  0  0  0  0  0
  -25.1300   29.4640    5.3280 C   0  0  0  0  0  0  0  0  0  0  0  0
  -26.1570   30.1890    4.7030 C   0  0  0  0  0  0  0  0  0  0  0  0
  -27.1660   29.4830    3.9030 N   0  0  0  0  0  0  0  0  0  0  0  0
  -28.2060   30.0900    3.6170 O   0  0  0  0  0  0  0  0  0  0  0  0
  -26.9130   28.3200    3.5620 O   0  0  0  0  0  0  0  0  0  0  0  0
  -26.2370   31.5830    4.8310 C   0  0  0  0  0  0  0  0  0  0  0  0
  -25.2740   32.2330    5.5910 C   0  0  0  0  0  0  0  0  0  0  0  0
  -25.2860   33.5920    5.7570 O   0  0  0  0  0  0  0  0  0  0  0  0
  -24.2450   31.5220    6.2200 C   0  0  0  0  0  0  0  0  0  0  0  0
  -23.3300   32.2470    6.9430 O   0  0  0  0  0  0  0  0  0  0  0  0
  -22.0600   30.9630    7.3110 H   0  0  0  0  0  0  0  0  0  0  0  0
  -20.9874   28.2005    7.6117 H   0  0  0  0  0  0  0  0  0  0  0  0
  -20.0266   29.6952    7.4881 H   0  0  0  0  0  0  0  0  0  0  0  0
  -21.7487   28.8558    9.9509 H   0  0  0  0  0  0  0  0  0  0  0  0
  -19.2441   30.5826    9.5593 H   0  0  0  0  0  0  0  0  0  0  0  0
  -21.0691   29.9067   11.9352 H   0  0  0  0  0  0  0  0  0  0  0  0
  -18.5706   29.3386   14.1841 H   0  0  0  0  0  0  0  0  0  0  0  0
  -16.9321   31.8275   11.7079 H   0  0  0  0  0  0  0  0  0  0  0  0
  -16.1802   28.5193   14.3445 H   0  0  0  0  0  0  0  0  0  0  0  0
  -18.5486   32.0560   13.9455 H   0  0  0  0  0  0  0  0  0  0  0  0
  -20.1240   30.3600   14.9790 H   0  0  0  0  0  0  0  0  0  0  0  0
  -19.0343   32.1254   11.4569 H   0  0  0  0  0  0  0  0  0  0  0  0
  -21.5580   32.0010   11.6480 H   0  0  0  0  0  0  0  0  0  0  0  0
  -25.0832   28.3709    5.2141 H   0  0  0  0  0  0  0  0  0  0  0  0
  -27.0435   32.1481    4.3409 H   0  0  0  0  0  0  0  0  0  0  0  0
  -24.6190   33.9920    5.1710 H   0  0  0  0  0  0  0  0  0  0  0  0
  -22.4740   31.7850    6.8160 H   0  0  0  0  0  0  0  0  0  0  0  0
  1  2  2  0
  2  3  1  0
  3  4  1  0
  4  5  1  0
  5  6  2  0
  6  7  1  0
  7  8  1  0
  8  9  1  0
  9 10  1  0
 10 11  1  0
 11 12  2  0
 12 13  1  0
 13 14  1  0
 14 15  1  0
 14 16  1  0
 14 17  1  0
 13 18  2  0
  9 19  1  0
 19 20  1  0
 19 21  1  0
 21 22  1  0
  2 23  1  0
 23 24  2  0
 24 25  1  0
 25 26  1  0
 26 27  2  0
 26 28  1  0
 25 29  2  0
 29 30  1  0
 30 31  1  0
 30 32  2  0
 32 33  1  0
 21  7  1  0
 32 23  1  0
 18 10  1  0
  3 34  1  0
  4 35  1  0
  4 36  1  0
  5 37  1  0
  6 38  1  0
  7 39  1  1
  9 40  1  1
 11 41  1  0
 18 42  1  0
 19 43  1  1
 20 44  1  0
 21 45  1  6
 22 46  1  0
 24 47  1  0
 29 48  1  0
 31 49  1  0
 33 50  1  0
M  CHG  2  26   1  28  -1
M  END
>  <meeko>  (8) 
{"is_sidechain": [false], "free_energy": -7.952, "intermolecular_energy": -12.178, "internal_energy": -0.633}

$$$$
3ozs_ligand
     RDKit          3D

 50 52  0  0  0  0  0  0  0  0999 V2000
  -21.5470   32.2490    6.5930 O   0  0  0  0  0  0  0  0  0  0  0  0
  -22.7550   32.3150    6.7950 C   0  0  0  0  0  0  0  0  0  0  0  0
  -23.3450   33.3560    7.4700 N   0  0  0  0  0  0  0  0  0  0  0  0
  -22.5990   34.5310    7.8300 C   0  0  0  0  0  0  0  0  0  0  0  0
  -22.3310   34.4580    9.2990 C   0  0  0  0  0  0  0  0  0  0  0  0
  -23.2650   34.1950   10.2290 C   0  0  0  0  0  0  0  0  0  0  0  0
  -22.9890   34.1230   11.7010 C   0  0  1  0  0  0  0  0  0  0  0  0
  -22.6940   32.7530   12.0310 O   0  0  0  0  0  0  0  0  0  0  0  0
  -21.6910   32.7500   13.0670 C   0  0  1  0  0  0  0  0  0  0  0  0
  -20.5280   31.9980   12.6180 N   0  0  0  0  0  0  0  0  0  0  0  0
  -20.4050   31.2700   11.4710 C   0  0  0  0  0  0  0  0  0  0  0  0
  -19.1970   30.7670   11.3480 N   0  0  0  0  0  0  0  0  0  0  0  0
  -18.5010   31.1500   12.4860 C   0  0  0  0  0  0  0  0  0  0  0  0
  -17.0730   30.7480   12.7290 C   0  0  0  0  0  0  0  0  0  0  0  0
  -16.9100   29.4000   12.7450 F   0  0  0  0  0  0  0  0  0  0  0  0
  -16.5890   31.2280   13.9040 F   0  0  0  0  0  0  0  0  0  0  0  0
  -16.2480   31.2210   11.7510 F   0  0  0  0  0  0  0  0  0  0  0  0
  -19.3320   31.9200   13.2850 C   0  0  0  0  0  0  0  0  0  0  0  0
  -21.3580   34.2080   13.4060 C   0  0  2  0  0  0  0  0  0  0  0  0
  -22.1800   34.7010   14.4840 O   0  0  0  0  0  0  0  0  0  0  0  0
  -21.7620   34.9320   12.1320 C   0  0  2  0  0  0  0  0  0  0  0  0
  -22.0420   36.3060   12.3820 O   0  0  0  0  0  0  0  0  0  0  0  0
  -23.6540   31.2300    6.2940 C   0  0  0  0  0  0  0  0  0  0  0  0
  -23.3460   29.9110    6.6750 C   0  0  0  0  0  0  0  0  0  0  0  0
  -24.1480   28.8440    6.2410 C   0  0  0  0  0  0  0  0  0  0  0  0
  -23.8200   27.4720    6.6480 N   0  0  0  0  0  0  0  0  0  0  0  0
  -22.8540   27.3070    7.4030 O   0  0  0  0  0  0  0  0  0  0  0  0
  -24.5350   26.5610    6.2090 O   0  0  0  0  0  0  0  0  0  0  0  0
  -25.2640   29.0680    5.4220 C   0  0  0  0  0  0  0  0  0  0  0  0
  -25.5590   30.3720    5.0480 C   0  0  0  0  0  0  0  0  0  0  0  0
  -26.6300   30.6640    4.2470 O   0  0  0  0  0  0  0  0  0  0  0  0
  -24.7680   31.4450    5.4740 C   0  0  0  0  0  0  0  0  0  0  0  0
  -25.1270   32.7000    5.0470 O   0  0  0  0  0  0  0  0  0  0  0  0
  -24.3600   33.4120    7.4400 H   0  0  0  0  0  0  0  0  0  0  0  0
  -21.6494   34.5580    7.2755 H   0  0  0  0  0  0  0  0  0  0  0  0
  -23.1653   35.4412    7.5834 H   0  0  0  0  0  0  0  0  0  0  0  0
  -21.3002   34.6312    9.6417 H   0  0  0  0  0  0  0  0  0  0  0  0
  -24.2966   34.0217    9.8889 H   0  0  0  0  0  0  0  0  0  0  0  0
  -23.8763   34.5282   12.2096 H   0  0  0  0  0  0  0  0  0  0  0  0
  -22.0541   32.2556   13.9801 H   0  0  0  0  0  0  0  0  0  0  0  0
  -21.2147   31.1225   10.7411 H   0  0  0  0  0  0  0  0  0  0  0  0
  -19.0832   32.3751   14.2550 H   0  0  0  0  0  0  0  0  0  0  0  0
  -20.3109   34.3400   13.7162 H   0  0  0  0  0  0  0  0  0  0  0  0
  -22.6380   33.9390   14.8820 H   0  0  0  0  0  0  0  0  0  0  0  0
  -20.9849   34.9743   11.3546 H   0  0  0  0  0  0  0  0  0  0  0  0
  -21.2500   36.6590   12.8360 H   0  0  0  0  0  0  0  0  0  0  0  0
  -22.4733   29.7153    7.3154 H   0  0  0  0  0  0  0  0  0  0  0  0
  -25.8911   28.2300    5.0837 H   0  0  0  0  0  0  0  0  0  0  0  0
  -26.5410   31.5760    3.9130 H   0  0  0  0  0  0  0  0  0  0  0  0
  -24.8610   32.7380    4.1030 H   0  0  0  0  0  0  0  0  0  0  0  0
  1  2  2  0
  2  3  1  0
  3  4  1  0
  4  5  1  0
  5  6  2  0
  6  7  1  0
  7  8  1  0
  8  9  1  0
  9 10  1  0
 10 11  1  0
 11 12  2  0
 12 13  1  0
 13 14  1  0
 14 15  1  0
 14 16  1  0
 14 17  1  0
 13 18  2  0
  9 19  1  0
 19 20  1  0
 19 21  1  0
 21 22  1  0
  2 23  1  0
 23 24  2  0
 24 25  1  0
 25 26  1  0
 26 27  2  0
 26 28  1  0
 25 29  2  0
 29 30  1  0
 30 31  1  0
 30 32  2  0
 32 33  1  0
 21  7  1  0
 32 23  1  0
 18 10  1  0
  3 34  1  0
  4 35  1  0
  4 36  1  0
  5 37  1  0
  6 38  1  0
  7 39  1  1
  9 40  1  1
 11 41  1  0
 18 42  1  0
 19 43  1  1
 20 44  1  0
 21 45  1  6
 22 46  1  0
 24 47  1  0
 29 48  1  0
 31 49  1  0
 33 50  1  0
M  CHG  2  26   1  28  -1
M  END
>  <meeko>  (9) 
{"is_sidechain": [false], "free_energy": -7.554, "intermolecular_energy": -10.764, "internal_energy": -1.44}

$$$$
