3fv1_ligand
     RDKit          3D

 41 42  0  0  0  0  0  0  0  0999 V2000
   -9.2900   19.1080   21.0170 C   0  0  0  0  0  0  0  0  0  0  0  0
   -9.5290   17.7190   21.3970 N   0  0  0  0  0  0  0  0  0  0  0  0
  -10.7140   16.9710   20.8490 C   0  0  1  0  0  0  0  0  0  0  0  0
  -10.2400   15.6650   20.2040 C   0  0  1  0  0  0  0  0  0  0  0  0
   -8.8530   15.8020   19.9000 O   0  0  0  0  0  0  0  0  0  0  0  0
   -8.0960   14.7450   20.5330 C   0  0  1  0  0  0  0  0  0  0  0  0
   -6.9230   14.4720   19.5720 C   0  0  0  0  0  0  0  0  0  0  0  0
   -6.1030   15.7330   19.1830 C   0  0  2  0  0  0  0  0  0  0  0  0
   -6.9990   16.7660   18.5370 N   0  0  0  0  0  0  0  0  0  0  0  0
   -4.8770   15.4130   18.2520 C   0  0  0  0  0  0  0  0  0  0  0  0
   -3.9370   16.2720   18.3730 O   0  0  0  0  0  0  0  0  0  0  0  0
   -4.9450   14.3680   17.5610 O   0  0  0  0  0  0  0  0  0  0  0  0
   -7.5330   15.1670   21.9450 C   0  0  0  0  0  0  0  0  0  0  0  0
   -7.7280   14.3630   22.9030 O   0  0  0  0  0  0  0  0  0  0  0  0
   -7.0960   16.3590   22.0120 O   0  0  0  0  0  0  0  0  0  0  0  0
   -9.1160   13.6270   20.7140 C   0  0  0  0  0  0  0  0  0  0  0  0
  -10.4060   14.3920   21.0300 C   0  0  1  0  0  0  0  0  0  0  0  0
  -10.4840   14.5940   22.4330 O   0  0  0  0  0  0  0  0  0  0  0  0
  -11.3350   15.6260   22.9100 C   0  0  0  0  0  0  0  0  0  0  0  0
  -11.8050   16.6490   21.8740 C   0  0  1  0  0  0  0  0  0  0  0  0
  -12.3260   17.8320   22.4880 O   0  0  0  0  0  0  0  0  0  0  0  0
   -9.1842   19.7230   21.9229 H   0  0  0  0  0  0  0  0  0  0  0  0
   -8.3677   19.1716   20.4209 H   0  0  0  0  0  0  0  0  0  0  0  0
  -10.1380   19.4762   20.4209 H   0  0  0  0  0  0  0  0  0  0  0  0
   -8.6670   17.1590   21.1840 H   0  0  0  0  0  0  0  0  0  0  0  0
   -9.5010   17.6090   22.4490 H   0  0  0  0  0  0  0  0  0  0  0  0
  -11.1746   17.6488   20.1152 H   0  0  0  0  0  0  0  0  0  0  0  0
  -10.8893   15.5306   19.3263 H   0  0  0  0  0  0  0  0  0  0  0  0
   -6.2427   13.7551   20.0550 H   0  0  0  0  0  0  0  0  0  0  0  0
   -7.3640   14.0858   18.6412 H   0  0  0  0  0  0  0  0  0  0  0  0
   -5.6887   16.1371   20.1185 H   0  0  0  0  0  0  0  0  0  0  0  0
   -6.5880   17.6860   18.4100 H   0  0  0  0  0  0  0  0  0  0  0  0
   -7.1940   16.3600   17.5990 H   0  0  0  0  0  0  0  0  0  0  0  0
   -7.9510   16.8220   18.9790 H   0  0  0  0  0  0  0  0  0  0  0  0
   -9.2221   13.0346   19.7932 H   0  0  0  0  0  0  0  0  0  0  0  0
   -8.8360   12.9043   21.4946 H   0  0  0  0  0  0  0  0  0  0  0  0
  -11.3505   13.8888   20.7758 H   0  0  0  0  0  0  0  0  0  0  0  0
  -12.2284   15.1512   23.3416 H   0  0  0  0  0  0  0  0  0  0  0  0
  -10.7304   16.1952   23.6314 H   0  0  0  0  0  0  0  0  0  0  0  0
  -12.6343   16.1831   21.3215 H   0  0  0  0  0  0  0  0  0  0  0  0
  -13.2030   17.6180   22.8550 H   0  0  0  0  0  0  0  0  0  0  0  0
  1  2  1  0
  2  3  1  0
  3  4  1  0
  4  5  1  0
  5  6  1  0
  6  7  1  6
  7  8  1  0
  8  9  1  0
  8 10  1  0
 10 11  2  0
 10 12  1  0
  6 13  1  0
 13 14  2  0
 13 15  1  0
  6 16  1  0
 16 17  1  0
 17 18  1  0
 18 19  1  0
 19 20  1  0
 20 21  1  0
 20  3  1  0
 17  4  1  0
  1 22  1  0
  1 23  1  0
  1 24  1  0
  2 25  1  0
  2 26  1  0
  3 27  1  6
  4 28  1  6
  7 29  1  0
  7 30  1  0
  8 31  1  1
  9 32  1  0
  9 33  1  0
  9 34  1  0
 16 35  1  0
 16 36  1  0
 17 37  1  6
 19 38  1  0
 19 39  1  0
 20 40  1  6
 21 41  1  0
M  CHG  4   2   1   9   1  12  -1  15  -1
M  END
>  <meeko>  (1) 
{"is_sidechain": [false], "free_energy": -7.421, "intermolecular_energy": -10.024, "internal_energy": -0.076}

$$$$
3fv1_ligand
     RDKit          3D

 41 42  0  0  0  0  0  0  0  0999 V2000
  -11.1110   14.0430   20.0980 C   0  0  0  0  0  0  0  0  0  0  0  0
  -10.6310   15.3850   20.4140 N   0  0  0  0  0  0  0  0  0  0  0  0
  -10.4100   15.7980   21.8430 C   0  0  1  0  0  0  0  0  0  0  0  0
   -8.9090   15.9700   22.0990 C   0  0  1  0  0  0  0  0  0  0  0  0
   -8.2050   15.2380   21.0960 O   0  0  0  0  0  0  0  0  0  0  0  0
   -7.2970   16.1100   20.3860 C   0  0  1  0  0  0  0  0  0  0  0  0
   -6.1070   15.2100   20.0020 C   0  0  0  0  0  0  0  0  0  0  0  0
   -5.8550   15.0950   18.4730 C   0  0  2  0  0  0  0  0  0  0  0  0
   -6.3290   13.7540   17.9600 N   0  0  0  0  0  0  0  0  0  0  0  0
   -4.3530   15.3340   18.0720 C   0  0  0  0  0  0  0  0  0  0  0  0
   -3.9080   16.4540   18.5020 O   0  0  0  0  0  0  0  0  0  0  0  0
   -3.7790   14.4140   17.4430 O   0  0  0  0  0  0  0  0  0  0  0  0
   -7.9410   16.7190   19.0810 C   0  0  0  0  0  0  0  0  0  0  0  0
   -9.0940   16.3070   18.7640 O   0  0  0  0  0  0  0  0  0  0  0  0
   -7.1550   17.4330   18.3810 O   0  0  0  0  0  0  0  0  0  0  0  0
   -7.0210   17.2330   21.3790 C   0  0  0  0  0  0  0  0  0  0  0  0
   -8.3700   17.3980   22.0880 C   0  0  1  0  0  0  0  0  0  0  0  0
   -9.1560   18.3300   21.3610 O   0  0  0  0  0  0  0  0  0  0  0  0
  -10.5610   18.3170   21.5660 C   0  0  0  0  0  0  0  0  0  0  0  0
  -11.1320   17.0810   22.2640 C   0  0  1  0  0  0  0  0  0  0  0  0
  -12.5490   16.9750   22.0920 O   0  0  0  0  0  0  0  0  0  0  0  0
  -11.3072   13.4946   21.0311 H   0  0  0  0  0  0  0  0  0  0  0  0
  -12.0394   14.1141   19.5124 H   0  0  0  0  0  0  0  0  0  0  0  0
  -10.3481   13.5091   19.5124 H   0  0  0  0  0  0  0  0  0  0  0  0
   -9.7390   15.5560   19.8870 H   0  0  0  0  0  0  0  0  0  0  0  0
  -11.2170   16.1160   19.9240 H   0  0  0  0  0  0  0  0  0  0  0  0
  -10.8421   14.9897   22.4512 H   0  0  0  0  0  0  0  0  0  0  0  0
   -8.7531   15.6066   23.1255 H   0  0  0  0  0  0  0  0  0  0  0  0
   -5.2002   15.6207   20.4700 H   0  0  0  0  0  0  0  0  0  0  0  0
   -6.3523   14.1979   20.3563 H   0  0  0  0  0  0  0  0  0  0  0  0
   -6.4377   15.8986   17.9991 H   0  0  0  0  0  0  0  0  0  0  0  0
   -6.9900   13.7860   17.1900 H   0  0  0  0  0  0  0  0  0  0  0  0
   -5.4530   13.3040   17.6230 H   0  0  0  0  0  0  0  0  0  0  0  0
   -6.6530   13.1100   18.7250 H   0  0  0  0  0  0  0  0  0  0  0  0
   -6.2317   16.9480   22.0902 H   0  0  0  0  0  0  0  0  0  0  0  0
   -6.6633   18.1577   20.9026 H   0  0  0  0  0  0  0  0  0  0  0  0
   -8.3417   17.8061   23.1091 H   0  0  0  0  0  0  0  0  0  0  0  0
  -10.8190   19.1955   22.1756 H   0  0  0  0  0  0  0  0  0  0  0  0
  -11.0046   18.3170   20.5594 H   0  0  0  0  0  0  0  0  0  0  0  0
  -10.9483   17.2127   23.3405 H   0  0  0  0  0  0  0  0  0  0  0  0
  -12.9620   17.0140   22.9740 H   0  0  0  0  0  0  0  0  0  0  0  0
  1  2  1  0
  2  3  1  0
  3  4  1  0
  4  5  1  0
  5  6  1  0
  6  7  1  6
  7  8  1  0
  8  9  1  0
  8 10  1  0
 10 11  2  0
 10 12  1  0
  6 13  1  0
 13 14  2  0
 13 15  1  0
  6 16  1  0
 16 17  1  0
 17 18  1  0
 18 19  1  0
 19 20  1  0
 20 21  1  0
 20  3  1  0
 17  4  1  0
  1 22  1  0
  1 23  1  0
  1 24  1  0
  2 25  1  0
  2 26  1  0
  3 27  1  1
  4 28  1  1
  7 29  1  0
  7 30  1  0
  8 31  1  6
  9 32  1  0
  9 33  1  0
  9 34  1  0
 16 35  1  0
 16 36  1  0
 17 37  1  1
 19 38  1  0
 19 39  1  0
 20 40  1  1
 21 41  1  0
M  CHG  4   2   1   9   1  12  -1  15  -1
M  END
>  <meeko>  (2) 
{"is_sidechain": [false], "free_energy": -6.137, "intermolecular_energy": -8.875, "internal_energy": 0.51}

$$$$
3fv1_ligand
     RDKit          3D

 41 42  0  0  0  0  0  0  0  0999 V2000
   -9.8840   12.1990   19.2660 C   0  0  0  0  0  0  0  0  0  0  0  0
   -9.9210   13.4330   20.0460 N   0  0  0  0  0  0  0  0  0  0  0  0
   -9.7980   13.3910   21.5440 C   0  0  1  0  0  0  0  0  0  0  0  0
   -8.5950   14.2320   21.9820 C   0  0  1  0  0  0  0  0  0  0  0  0
   -7.7240   14.3710   20.8610 O   0  0  0  0  0  0  0  0  0  0  0  0
   -7.4930   15.7700   20.5780 C   0  0  1  0  0  0  0  0  0  0  0  0
   -6.0570   15.8270   20.0230 C   0  0  0  0  0  0  0  0  0  0  0  0
   -5.8820   15.1760   18.6230 C   0  0  2  0  0  0  0  0  0  0  0  0
   -6.2970   13.7220   18.6630 N   0  0  0  0  0  0  0  0  0  0  0  0
   -4.4230   15.3130   18.0530 C   0  0  0  0  0  0  0  0  0  0  0  0
   -3.8720   16.4170   18.3900 O   0  0  0  0  0  0  0  0  0  0  0  0
   -3.9750   14.3420   17.3990 O   0  0  0  0  0  0  0  0  0  0  0  0
   -8.4970   16.3440   19.5050 C   0  0  0  0  0  0  0  0  0  0  0  0
   -9.6490   15.8240   19.4620 O   0  0  0  0  0  0  0  0  0  0  0  0
   -7.9810   17.1530   18.6700 O   0  0  0  0  0  0  0  0  0  0  0  0
   -7.7450   16.4570   21.9160 C   0  0  0  0  0  0  0  0  0  0  0  0
   -8.8930   15.6340   22.5100 C   0  0  1  0  0  0  0  0  0  0  0  0
  -10.1250   16.1890   22.0740 O   0  0  0  0  0  0  0  0  0  0  0  0
  -11.2810   15.3660   22.1300 C   0  0  0  0  0  0  0  0  0  0  0  0
  -11.0380   13.8670   22.3070 C   0  0  1  0  0  0  0  0  0  0  0  0
  -12.1950   13.0930   21.9780 O   0  0  0  0  0  0  0  0  0  0  0  0
   -9.8581   11.3355   19.9469 H   0  0  0  0  0  0  0  0  0  0  0  0
  -10.7808   12.1391   18.6318 H   0  0  0  0  0  0  0  0  0  0  0  0
   -8.9853   12.1929   18.6318 H   0  0  0  0  0  0  0  0  0  0  0  0
   -9.1840   14.0850   19.6800 H   0  0  0  0  0  0  0  0  0  0  0  0
  -10.7600   14.0190   19.7790 H   0  0  0  0  0  0  0  0  0  0  0  0
   -9.6712   12.3283   21.7980 H   0  0  0  0  0  0  0  0  0  0  0  0
   -8.1617   13.6857   22.8328 H   0  0  0  0  0  0  0  0  0  0  0  0
   -5.7580   16.8831   19.9508 H   0  0  0  0  0  0  0  0  0  0  0  0
   -5.4295   15.2494   20.7177 H   0  0  0  0  0  0  0  0  0  0  0  0
   -6.5395   15.7293   17.9363 H   0  0  0  0  0  0  0  0  0  0  0  0
   -5.6970   13.0800   18.1550 H   0  0  0  0  0  0  0  0  0  0  0  0
   -6.2480   13.4880   19.6760 H   0  0  0  0  0  0  0  0  0  0  0  0
   -7.3110   13.5750   18.4290 H   0  0  0  0  0  0  0  0  0  0  0  0
   -6.8528   16.4133   22.5579 H   0  0  0  0  0  0  0  0  0  0  0  0
   -7.9816   17.5268   21.8182 H   0  0  0  0  0  0  0  0  0  0  0  0
   -8.9737   15.6233   23.6070 H   0  0  0  0  0  0  0  0  0  0  0  0
  -11.8951   15.7081   22.9761 H   0  0  0  0  0  0  0  0  0  0  0  0
  -11.7632   15.4706   21.1469 H   0  0  0  0  0  0  0  0  0  0  0  0
  -10.8374   13.7041   23.3762 H   0  0  0  0  0  0  0  0  0  0  0  0
  -12.4410   12.5720   22.7640 H   0  0  0  0  0  0  0  0  0  0  0  0
  1  2  1  0
  2  3  1  0
  3  4  1  0
  4  5  1  0
  5  6  1  0
  6  7  1  6
  7  8  1  0
  8  9  1  0
  8 10  1  0
 10 11  2  0
 10 12  1  0
  6 13  1  0
 13 14  2  0
 13 15  1  0
  6 16  1  0
 16 17  1  0
 17 18  1  0
 18 19  1  0
 19 20  1  0
 20 21  1  0
 20  3  1  0
 17  4  1  0
  1 22  1  0
  1 23  1  0
  1 24  1  0
  2 25  1  0
  2 26  1  0
  3 27  1  1
  4 28  1  1
  7 29  1  0
  7 30  1  0
  8 31  1  6
  9 32  1  0
  9 33  1  0
  9 34  1  0
 16 35  1  0
 16 36  1  0
 17 37  1  1
 19 38  1  0
 19 39  1  0
 20 40  1  1
 21 41  1  0
M  CHG  4   2   1   9   1  12  -1  15  -1
M  END
>  <meeko>  (3) 
{"is_sidechain": [false], "free_energy": -5.868, "intermolecular_energy": -9.074, "internal_energy": 1.072}

$$$$
3fv1_ligand
     RDKit          3D

 41 42  0  0  0  0  0  0  0  0999 V2000
   -5.9240   16.8600   21.9020 C   0  0  0  0  0  0  0  0  0  0  0  0
   -7.3180   16.6980   21.4980 N   0  0  0  0  0  0  0  0  0  0  0  0
   -7.8530   17.4280   20.2980 C   0  0  1  0  0  0  0  0  0  0  0  0
   -9.0200   16.6380   19.6970 C   0  0  1  0  0  0  0  0  0  0  0  0
   -8.9110   15.2870   20.1420 O   0  0  0  0  0  0  0  0  0  0  0  0
  -10.1260   14.8830   20.8150 C   0  0  1  0  0  0  0  0  0  0  0  0
  -10.2630   13.3800   20.5090 C   0  0  0  0  0  0  0  0  0  0  0  0
   -8.9460   12.5690   20.6610 C   0  0  2  0  0  0  0  0  0  0  0  0
   -7.7550   13.4260   20.2970 N   0  0  0  0  0  0  0  0  0  0  0  0
   -8.9380   11.2370   19.8260 C   0  0  0  0  0  0  0  0  0  0  0  0
   -8.2100   11.3250   18.7780 O   0  0  0  0  0  0  0  0  0  0  0  0
   -9.5850   10.2690   20.2930 O   0  0  0  0  0  0  0  0  0  0  0  0
  -10.0510   15.1000   22.3760 C   0  0  0  0  0  0  0  0  0  0  0  0
   -8.9300   14.9080   22.9280 O   0  0  0  0  0  0  0  0  0  0  0  0
  -11.1750   15.2710   22.9450 O   0  0  0  0  0  0  0  0  0  0  0  0
  -11.1880   15.8070   20.2320 C   0  0  0  0  0  0  0  0  0  0  0  0
  -10.4270   17.1230   20.0400 C   0  0  1  0  0  0  0  0  0  0  0  0
  -10.5230   17.8840   21.2360 O   0  0  0  0  0  0  0  0  0  0  0  0
   -9.5630   18.9080   21.4500 C   0  0  0  0  0  0  0  0  0  0  0  0
   -8.3150   18.8630   20.5680 C   0  0  1  0  0  0  0  0  0  0  0  0
   -7.2580   19.6730   21.0920 O   0  0  0  0  0  0  0  0  0  0  0  0
   -5.8590   16.8676   23.0001 H   0  0  0  0  0  0  0  0  0  0  0  0
   -5.3278   16.0251   21.5051 H   0  0  0  0  0  0  0  0  0  0  0  0
   -5.5352   17.8094   21.5051 H   0  0  0  0  0  0  0  0  0  0  0  0
   -7.5130   15.6750   21.3670 H   0  0  0  0  0  0  0  0  0  0  0  0
   -7.9650   16.8510   22.3200 H   0  0  0  0  0  0  0  0  0  0  0  0
   -7.0058   17.5051   19.6006 H   0  0  0  0  0  0  0  0  0  0  0  0
   -8.9227   16.7713   18.6095 H   0  0  0  0  0  0  0  0  0  0  0  0
  -11.0091   12.9559   21.1971 H   0  0  0  0  0  0  0  0  0  0  0  0
  -10.5588   13.3014   19.4524 H   0  0  0  0  0  0  0  0  0  0  0  0
   -8.8797   12.2753   21.7190 H   0  0  0  0  0  0  0  0  0  0  0  0
   -7.6140   14.2510   20.8720 H   0  0  0  0  0  0  0  0  0  0  0  0
   -6.9480   12.7850   20.4360 H   0  0  0  0  0  0  0  0  0  0  0  0
   -7.7090   13.6540   19.2720 H   0  0  0  0  0  0  0  0  0  0  0  0
  -11.5632   15.4229   19.2720 H   0  0  0  0  0  0  0  0  0  0  0  0
  -12.0761   15.9078   20.8731 H   0  0  0  0  0  0  0  0  0  0  0  0
  -10.8033   17.7984   19.2575 H   0  0  0  0  0  0  0  0  0  0  0  0
  -10.0599   19.8742   21.2781 H   0  0  0  0  0  0  0  0  0  0  0  0
   -9.2006   18.7595   22.4779 H   0  0  0  0  0  0  0  0  0  0  0  0
   -8.5986   19.2954   19.5971 H   0  0  0  0  0  0  0  0  0  0  0  0
   -7.2790   19.6020   22.0640 H   0  0  0  0  0  0  0  0  0  0  0  0
  1  2  1  0
  2  3  1  0
  3  4  1  0
  4  5  1  0
  5  6  1  0
  6  7  1  1
  7  8  1  0
  8  9  1  0
  8 10  1  0
 10 11  2  0
 10 12  1  0
  6 13  1  0
 13 14  2  0
 13 15  1  0
  6 16  1  0
 16 17  1  0
 17 18  1  0
 18 19  1  0
 19 20  1  0
 20 21  1  0
 20  3  1  0
 17  4  1  0
  1 22  1  0
  1 23  1  0
  1 24  1  0
  2 25  1  0
  2 26  1  0
  3 27  1  6
  4 28  1  6
  7 29  1  0
  7 30  1  0
  8 31  1  1
  9 32  1  0
  9 33  1  0
  9 34  1  0
 16 35  1  0
 16 36  1  0
 17 37  1  6
 19 38  1  0
 19 39  1  0
 20 40  1  6
 21 41  1  0
M  CHG  4   2   1   9   1  12  -1  15  -1
M  END
>  <meeko>  (4) 
{"is_sidechain": [false], "free_energy": -5.573, "intermolecular_energy": -7.622, "internal_energy": 0.018}

$$$$
3fv1_ligand
     RDKit          3D

 41 42  0  0  0  0  0  0  0  0999 V2000
  -17.6380    4.3240   27.9000 C   0  0  0  0  0  0  0  0  0  0  0  0
  -17.8260    5.6320   28.5190 N   0  0  0  0  0  0  0  0  0  0  0  0
  -17.1390    5.9690   29.8140 C   0  0  1  0  0  0  0  0  0  0  0  0
  -16.3850    7.2940   29.6630 C   0  0  1  0  0  0  0  0  0  0  0  0
  -16.1730    7.5230   28.2710 O   0  0  0  0  0  0  0  0  0  0  0  0
  -16.7300    8.8000   27.8850 C   0  0  1  0  0  0  0  0  0  0  0  0
  -15.8090    9.3050   26.7570 C   0  0  0  0  0  0  0  0  0  0  0  0
  -14.4340    8.5850   26.6790 C   0  0  2  0  0  0  0  0  0  0  0  0
  -13.6520    8.8040   27.9540 N   0  0  0  0  0  0  0  0  0  0  0  0
  -13.5790    9.0160   25.4310 C   0  0  0  0  0  0  0  0  0  0  0  0
  -12.3540    9.2310   25.7320 O   0  0  0  0  0  0  0  0  0  0  0  0
  -14.1670    9.0530   24.3240 O   0  0  0  0  0  0  0  0  0  0  0  0
  -18.2070    8.6780   27.3450 C   0  0  0  0  0  0  0  0  0  0  0  0
  -18.4900    7.6380   26.6820 O   0  0  0  0  0  0  0  0  0  0  0  0
  -18.9140    9.7250   27.4810 O   0  0  0  0  0  0  0  0  0  0  0  0
  -16.7360    9.6010   29.1820 C   0  0  0  0  0  0  0  0  0  0  0  0
  -17.0610    8.5370   30.2360 C   0  0  1  0  0  0  0  0  0  0  0  0
  -18.4720    8.4440   30.3700 O   0  0  0  0  0  0  0  0  0  0  0  0
  -19.0080    7.2610   30.9440 C   0  0  0  0  0  0  0  0  0  0  0  0
  -18.0640    6.0620   31.0310 C   0  0  1  0  0  0  0  0  0  0  0  0
  -18.7700    4.8380   31.2580 O   0  0  0  0  0  0  0  0  0  0  0  0
  -17.5282    3.5599   28.6836 H   0  0  0  0  0  0  0  0  0  0  0  0
  -18.5111    4.0853   27.2749 H   0  0  0  0  0  0  0  0  0  0  0  0
  -16.7330    4.3408   27.2749 H   0  0  0  0  0  0  0  0  0  0  0  0
  -17.5780    6.3740   27.8200 H   0  0  0  0  0  0  0  0  0  0  0  0
  -18.8550    5.8640   28.5980 H   0  0  0  0  0  0  0  0  0  0  0  0
  -16.4577    5.1283   30.0115 H   0  0  0  0  0  0  0  0  0  0  0  0
  -15.4641    7.1653   30.2507 H   0  0  0  0  0  0  0  0  0  0  0  0
  -16.3282    9.1597   25.7982 H   0  0  0  0  0  0  0  0  0  0  0  0
  -15.5974   10.3623   26.9746 H   0  0  0  0  0  0  0  0  0  0  0  0
  -14.6480    7.5129   26.5572 H   0  0  0  0  0  0  0  0  0  0  0  0
  -12.9930    8.0690   28.1960 H   0  0  0  0  0  0  0  0  0  0  0  0
  -13.1170    9.6750   27.7600 H   0  0  0  0  0  0  0  0  0  0  0  0
  -14.2580    9.0680   28.7710 H   0  0  0  0  0  0  0  0  0  0  0  0
  -15.7533   10.0580   29.3701 H   0  0  0  0  0  0  0  0  0  0  0  0
  -17.4494   10.4383   29.1737 H   0  0  0  0  0  0  0  0  0  0  0  0
  -16.7040    8.7326   31.2579 H   0  0  0  0  0  0  0  0  0  0  0  0
  -19.3367    7.5034   31.9654 H   0  0  0  0  0  0  0  0  0  0  0  0
  -19.8176    6.9482   30.2682 H   0  0  0  0  0  0  0  0  0  0  0  0
  -17.4220    6.2286   31.9086 H   0  0  0  0  0  0  0  0  0  0  0  0
  -19.5090    4.7960   30.6230 H   0  0  0  0  0  0  0  0  0  0  0  0
  1  2  1  0
  2  3  1  0
  3  4  1  0
  4  5  1  0
  5  6  1  0
  6  7  1  6
  7  8  1  0
  8  9  1  0
  8 10  1  0
 10 11  2  0
 10 12  1  0
  6 13  1  0
 13 14  2  0
 13 15  1  0
  6 16  1  0
 16 17  1  0
 17 18  1  0
 18 19  1  0
 19 20  1  0
 20 21  1  0
 20  3  1  0
 17  4  1  0
  1 22  1  0
  1 23  1  0
  1 24  1  0
  2 25  1  0
  2 26  1  0
  3 27  1  1
  4 28  1  1
  7 29  1  0
  7 30  1  0
  8 31  1  6
  9 32  1  0
  9 33  1  0
  9 34  1  0
 16 35  1  0
 16 36  1  0
 17 37  1  1
 19 38  1  0
 19 39  1  0
 20 40  1  1
 21 41  1  0
M  CHG  4   2   1   9   1  12  -1  15  -1
M  END
>  <meeko>  (5) 
{"is_sidechain": [false], "free_energy": -4.746, "intermolecular_energy": -5.51, "internal_energy": -0.977}

$$$$
3fv1_ligand
     RDKit          3D

 41 42  0  0  0  0  0  0  0  0999 V2000
   -7.2290   14.9580   24.1070 C   0  0  0  0  0  0  0  0  0  0  0  0
   -7.6920   15.7520   22.9730 N   0  0  0  0  0  0  0  0  0  0  0  0
   -6.7860   16.0050   21.8000 C   0  0  1  0  0  0  0  0  0  0  0  0
   -7.5070   15.6190   20.5040 C   0  0  1  0  0  0  0  0  0  0  0  0
   -8.5640   14.7220   20.8390 O   0  0  0  0  0  0  0  0  0  0  0  0
   -9.8270   15.2380   20.3610 C   0  0  1  0  0  0  0  0  0  0  0  0
  -10.6560   13.9870   20.0110 C   0  0  0  0  0  0  0  0  0  0  0  0
  -10.2260   12.6990   20.7670 C   0  0  2  0  0  0  0  0  0  0  0  0
   -9.7290   13.0430   22.1530 N   0  0  0  0  0  0  0  0  0  0  0  0
   -9.1470   11.8570   19.9920 C   0  0  0  0  0  0  0  0  0  0  0  0
   -7.9570   12.1080   20.3890 O   0  0  0  0  0  0  0  0  0  0  0  0
   -9.5690   11.0370   19.1420 O   0  0  0  0  0  0  0  0  0  0  0  0
  -10.5870   16.0860   21.4540 C   0  0  0  0  0  0  0  0  0  0  0  0
  -10.5000   15.6870   22.6510 O   0  0  0  0  0  0  0  0  0  0  0  0
  -11.3580   16.9840   20.9910 O   0  0  0  0  0  0  0  0  0  0  0  0
   -9.4320   16.1510   19.2060 C   0  0  0  0  0  0  0  0  0  0  0  0
   -8.1120   16.7600   19.6890 C   0  0  1  0  0  0  0  0  0  0  0  0
   -8.3970   17.9380   20.4290 O   0  0  0  0  0  0  0  0  0  0  0  0
   -7.4030   18.4200   21.3210 C   0  0  0  0  0  0  0  0  0  0  0  0
   -6.2790   17.4440   21.6730 C   0  0  1  0  0  0  0  0  0  0  0  0
   -5.5550   17.8580   22.8360 O   0  0  0  0  0  0  0  0  0  0  0  0
   -7.5186   15.4546   25.0449 H   0  0  0  0  0  0  0  0  0  0  0  0
   -7.6856   13.9581   24.0653 H   0  0  0  0  0  0  0  0  0  0  0  0
   -6.1339   14.8630   24.0653 H   0  0  0  0  0  0  0  0  0  0  0  0
   -8.5820   15.3300   22.6080 H   0  0  0  0  0  0  0  0  0  0  0  0
   -8.1050   16.6680   23.3010 H   0  0  0  0  0  0  0  0  0  0  0  0
   -5.8970   15.3821   21.9780 H   0  0  0  0  0  0  0  0  0  0  0  0
   -6.7254   15.1852   19.8630 H   0  0  0  0  0  0  0  0  0  0  0  0
  -11.7089   14.1931   20.2539 H   0  0  0  0  0  0  0  0  0  0  0  0
  -10.4928   13.7918   18.9408 H   0  0  0  0  0  0  0  0  0  0  0  0
  -11.1225   12.0662   20.8430 H   0  0  0  0  0  0  0  0  0  0  0  0
   -9.9400   12.3620   22.8770 H   0  0  0  0  0  0  0  0  0  0  0  0
   -8.6970   13.0870   22.0330 H   0  0  0  0  0  0  0  0  0  0  0  0
   -9.9800   14.0190   22.4520 H   0  0  0  0  0  0  0  0  0  0  0  0
   -9.2874   15.5768   18.2790 H   0  0  0  0  0  0  0  0  0  0  0  0
  -10.1966   16.9045   18.9662 H   0  0  0  0  0  0  0  0  0  0  0  0
   -7.4101   17.0920   18.9099 H   0  0  0  0  0  0  0  0  0  0  0  0
   -6.9442   19.3088   20.8633 H   0  0  0  0  0  0  0  0  0  0  0  0
   -7.9281   18.6170   22.2673 H   0  0  0  0  0  0  0  0  0  0  0  0
   -5.5708   17.4599   20.8315 H   0  0  0  0  0  0  0  0  0  0  0  0
   -5.1290   17.0700   23.2210 H   0  0  0  0  0  0  0  0  0  0  0  0
  1  2  1  0
  2  3  1  0
  3  4  1  0
  4  5  1  0
  5  6  1  0
  6  7  1  6
  7  8  1  0
  8  9  1  0
  8 10  1  0
 10 11  2  0
 10 12  1  0
  6 13  1  0
 13 14  2  0
 13 15  1  0
  6 16  1  0
 16 17  1  0
 17 18  1  0
 18 19  1  0
 19 20  1  0
 20 21  1  0
 20  3  1  0
 17  4  1  0
  1 22  1  0
  1 23  1  0
  1 24  1  0
  2 25  1  0
  2 26  1  0
  3 27  1  1
  4 28  1  6
  7 29  1  0
  7 30  1  0
  8 31  1  1
  9 32  1  0
  9 33  1  0
  9 34  1  0
 16 35  1  0
 16 36  1  0
 17 37  1  6
 19 38  1  0
 19 39  1  0
 20 40  1  6
 21 41  1  0
M  CHG  4   2   1   9   1  12  -1  15  -1
M  END
>  <meeko>  (6) 
{"is_sidechain": [false], "free_energy": -4.486, "intermolecular_energy": -6.15, "internal_energy": 0.014}

$$$$
3fv1_ligand
     RDKit          3D

 41 42  0  0  0  0  0  0  0  0999 V2000
   -6.3920   12.2490   27.1410 C   0  0  0  0  0  0  0  0  0  0  0  0
   -6.4730   12.0620   28.5870 N   0  0  0  0  0  0  0  0  0  0  0  0
   -6.6060   10.6830   29.1710 C   0  0  1  0  0  0  0  0  0  0  0  0
   -5.3340   10.3320   29.9510 C   0  0  1  0  0  0  0  0  0  0  0  0
   -4.2850   11.1780   29.4830 O   0  0  0  0  0  0  0  0  0  0  0  0
   -3.7100   11.9170   30.5850 C   0  0  1  0  0  0  0  0  0  0  0  0
   -2.2260   12.0920   30.2100 C   0  0  0  0  0  0  0  0  0  0  0  0
   -1.3270   10.8730   30.5580 C   0  0  2  0  0  0  0  0  0  0  0  0
    0.0260   11.3380   31.0470 N   0  0  0  0  0  0  0  0  0  0  0  0
   -1.1600    9.8640   29.3640 C   0  0  0  0  0  0  0  0  0  0  0  0
   -2.0560    8.9500   29.3710 O   0  0  0  0  0  0  0  0  0  0  0  0
   -0.2330   10.0920   28.5510 O   0  0  0  0  0  0  0  0  0  0  0  0
   -4.3770   13.3340   30.7750 C   0  0  0  0  0  0  0  0  0  0  0  0
   -4.7280   13.9480   29.7260 O   0  0  0  0  0  0  0  0  0  0  0  0
   -4.3280   13.7930   31.9600 O   0  0  0  0  0  0  0  0  0  0  0  0
   -4.0180   11.0530   31.8020 C   0  0  0  0  0  0  0  0  0  0  0  0
   -5.3990   10.4770   31.4700 C   0  0  1  0  0  0  0  0  0  0  0  0
   -6.3920   11.3740   31.9440 O   0  0  0  0  0  0  0  0  0  0  0  0
   -7.6940   11.2800   31.3850 C   0  0  0  0  0  0  0  0  0  0  0  0
   -7.8170   10.4820   30.0850 C   0  0  1  0  0  0  0  0  0  0  0  0
   -9.0480   10.7510   29.4060 O   0  0  0  0  0  0  0  0  0  0  0  0
   -5.9635   13.2383   26.9227 H   0  0  0  0  0  0  0  0  0  0  0  0
   -5.7516   11.4678   26.7056 H   0  0  0  0  0  0  0  0  0  0  0  0
   -7.3999   12.1818   26.7056 H   0  0  0  0  0  0  0  0  0  0  0  0
   -5.6400   12.5220   29.0320 H   0  0  0  0  0  0  0  0  0  0  0  0
   -7.2110   12.6930   29.0050 H   0  0  0  0  0  0  0  0  0  0  0  0
   -6.7584   10.0151   28.3104 H   0  0  0  0  0  0  0  0  0  0  0  0
   -5.1737    9.2595   29.7666 H   0  0  0  0  0  0  0  0  0  0  0  0
   -2.1636   12.2669   29.1258 H   0  0  0  0  0  0  0  0  0  0  0  0
   -1.8502   12.9384   30.8037 H   0  0  0  0  0  0  0  0  0  0  0  0
   -1.8414   10.3251   31.3613 H   0  0  0  0  0  0  0  0  0  0  0  0
    0.8020   10.7110   30.8560 H   0  0  0  0  0  0  0  0  0  0  0  0
    0.1800   12.2220   30.5190 H   0  0  0  0  0  0  0  0  0  0  0  0
    0.0170   11.6540   32.0490 H   0  0  0  0  0  0  0  0  0  0  0  0
   -3.2725   10.2525   31.9183 H   0  0  0  0  0  0  0  0  0  0  0  0
   -3.9959   11.6118   32.7492 H   0  0  0  0  0  0  0  0  0  0  0  0
   -5.6562    9.5153   31.9379 H   0  0  0  0  0  0  0  0  0  0  0  0
   -8.3464   10.8054   32.1327 H   0  0  0  0  0  0  0  0  0  0  0  0
   -7.9769   12.3106   31.1247 H   0  0  0  0  0  0  0  0  0  0  0  0
   -7.8317    9.4186   30.3659 H   0  0  0  0  0  0  0  0  0  0  0  0
   -9.0380   10.2620   28.5630 H   0  0  0  0  0  0  0  0  0  0  0  0
  1  2  1  0
  2  3  1  0
  3  4  1  0
  4  5  1  0
  5  6  1  0
  6  7  1  6
  7  8  1  0
  8  9  1  0
  8 10  1  0
 10 11  2  0
 10 12  1  0
  6 13  1  0
 13 14  2  0
 13 15  1  0
  6 16  1  0
 16 17  1  0
 17 18  1  0
 18 19  1  0
 19 20  1  0
 20 21  1  0
 20  3  1  0
 17  4  1  0
  1 22  1  0
  1 23  1  0
  1 24  1  0
  2 25  1  0
  2 26  1  0
  3 27  1  6
  4 28  1  1
  7 29  1  0
  7 30  1  0
  8 31  1  1
  9 32  1  0
  9 33  1  0
  9 34  1  0
 16 35  1  0
 16 36  1  0
 17 37  1  1
 19 38  1  0
 19 39  1  0
 20 40  1  1
 21 41  1  0
M  CHG  4   2   1   9   1  12  -1  15  -1
M  END
>  <meeko>  (7) 
{"is_sidechain": [false], "free_energy": -4.469, "intermolecular_energy": -5.258, "internal_energy": -0.854}

$$$$
