2qbq_ligand
     RDKit          3D

 57 59  0  0  0  0  0  0  0  0999 V2000
   40.5130   14.3470   -3.4210 C   0  0  0  0  0  0  0  0  0  0  0  0
   41.0890   13.0550   -4.0420 C   0  0  0  0  0  0  0  0  0  0  0  0
   40.9960   13.2210   -5.5700 C   0  0  0  0  0  0  0  0  0  0  0  0
   42.5600   12.9110   -3.5960 C   0  0  0  0  0  0  0  0  0  0  0  0
   43.1720   11.5380   -3.9140 C   0  0  0  0  0  0  0  0  0  0  0  0
   44.5480   11.5310   -3.3800 N   0  0  0  0  0  0  0  0  0  0  0  0
   44.6290   11.3230   -1.9860 C   0  0  0  0  0  0  0  0  0  0  0  0
   44.3780   10.0670   -1.4260 C   0  0  0  0  0  0  0  0  0  0  0  0
   44.4050    9.8860   -0.0420 C   0  0  0  0  0  0  0  0  0  0  0  0
   44.6640   10.9690    0.7990 C   0  0  0  0  0  0  0  0  0  0  0  0
   44.9100   12.2370    0.2610 C   0  0  0  0  0  0  0  0  0  0  0  0
   45.1310   13.4000    1.1220 C   0  0  0  0  0  0  0  0  0  0  0  0
   44.3030   14.8630    0.7950 S   0  0  0  0  0  0  0  0  0  0  0  0
   45.0010   15.6620    2.1520 C   0  0  0  0  0  0  0  0  0  0  0  0
   44.6990   17.1980    2.4410 C   0  0  0  0  0  0  0  0  0  0  0  0
   44.7640   18.0300    1.4840 O   0  0  0  0  0  0  0  0  0  0  0  0
   44.3990   17.4960    3.6440 O   0  0  0  0  0  0  0  0  0  0  0  0
   45.8040   14.8010    2.8780 C   0  0  0  0  0  0  0  0  0  0  0  0
   46.4770   15.1360    4.0080 O   0  0  0  0  0  0  0  0  0  0  0  0
   47.6290   15.9600    3.7170 C   0  0  0  0  0  0  0  0  0  0  0  0
   47.7970   17.0910    4.7560 C   0  0  0  0  0  0  0  0  0  0  0  0
   46.8310   17.2670    5.5610 O   0  0  0  0  0  0  0  0  0  0  0  0
   48.9130   17.6980    4.7410 O   0  0  0  0  0  0  0  0  0  0  0  0
   45.9340   13.5360    2.2340 C   0  0  0  0  0  0  0  0  0  0  0  0
   47.1300   12.1980    2.8650 Br  0  0  0  0  0  0  0  0  0  0  0  0
   44.9050   12.3980   -1.1330 C   0  0  0  0  0  0  0  0  0  0  0  0
   42.3310   10.4230   -3.2700 C   0  0  0  0  0  0  0  0  0  0  0  0
   40.8480   10.4400   -3.6990 C   0  0  0  0  0  0  0  0  0  0  0  0
   40.0640    9.4730   -2.7810 C   0  0  0  0  0  0  0  0  0  0  0  0
   40.6910    9.9070   -5.1350 C   0  0  0  0  0  0  0  0  0  0  0  0
   40.2470   11.8580   -3.5300 C   0  0  0  0  0  0  0  0  0  0  0  0
   40.5460   14.2729   -2.3240 H   0  0  0  0  0  0  0  0  0  0  0  0
   41.1117   15.2097   -3.7484 H   0  0  0  0  0  0  0  0  0  0  0  0
   39.4711   14.4783   -3.7484 H   0  0  0  0  0  0  0  0  0  0  0  0
   40.4708   14.1584   -5.8057 H   0  0  0  0  0  0  0  0  0  0  0  0
   42.0089   13.2506   -5.9979 H   0  0  0  0  0  0  0  0  0  0  0  0
   40.4418   12.3726   -5.9979 H   0  0  0  0  0  0  0  0  0  0  0  0
   43.1546   13.6826   -4.1069 H   0  0  0  0  0  0  0  0  0  0  0  0
   42.5759   13.0236   -2.5019 H   0  0  0  0  0  0  0  0  0  0  0  0
   43.1862   11.3580   -4.9991 H   0  0  0  0  0  0  0  0  0  0  0  0
   45.0280   12.4010   -3.6150 H   0  0  0  0  0  0  0  0  0  0  0  0
   44.1570    9.2126   -2.0826 H   0  0  0  0  0  0  0  0  0  0  0  0
   44.2220    8.8892    0.3858 H   0  0  0  0  0  0  0  0  0  0  0  0
   44.6748   10.8253    1.8895 H   0  0  0  0  0  0  0  0  0  0  0  0
   48.5304   15.3296    3.7269 H   0  0  0  0  0  0  0  0  0  0  0  0
   47.4818   16.4201    2.7287 H   0  0  0  0  0  0  0  0  0  0  0  0
   45.1219   13.3869   -1.5632 H   0  0  0  0  0  0  0  0  0  0  0  0
   42.7640    9.4527   -3.5545 H   0  0  0  0  0  0  0  0  0  0  0  0
   42.3538   10.5893   -2.1829 H   0  0  0  0  0  0  0  0  0  0  0  0
   40.2658    9.7219   -1.7287 H   0  0  0  0  0  0  0  0  0  0  0  0
   38.9867    9.5703   -2.9807 H   0  0  0  0  0  0  0  0  0  0  0  0
   40.3820    8.4391   -2.9807 H   0  0  0  0  0  0  0  0  0  0  0  0
   40.3803    8.8523   -5.1027 H   0  0  0  0  0  0  0  0  0  0  0  0
   39.9287   10.4977   -5.6641 H   0  0  0  0  0  0  0  0  0  0  0  0
   41.6518    9.9902   -5.6641 H   0  0  0  0  0  0  0  0  0  0  0  0
   39.2873   11.8759   -4.0672 H   0  0  0  0  0  0  0  0  0  0  0  0
   40.1784   12.0069   -2.4423 H   0  0  0  0  0  0  0  0  0  0  0  0
  1  2  1  0
  2  3  1  0
  2  4  1  0
  4  5  1  0
  5  6  1  0
  6  7  1  0
  7  8  2  0
  8  9  1  0
  9 10  2  0
 10 11  1  0
 11 12  1  0
 12 13  1  0
 13 14  1  0
 14 15  1  0
 15 16  2  0
 15 17  1  0
 14 18  2  0
 18 19  1  0
 19 20  1  0
 20 21  1  0
 21 22  2  0
 21 23  1  0
 18 24  1  0
 24 25  1  0
 11 26  2  0
  5 27  1  0
 27 28  1  0
 28 29  1  0
 28 30  1  0
 28 31  1  0
 31  2  1  0
 26  7  1  0
 24 12  2  0
  1 32  1  0
  1 33  1  0
  1 34  1  0
  3 35  1  0
  3 36  1  0
  3 37  1  0
  4 38  1  0
  4 39  1  0
  5 40  1  0
  6 41  1  0
  8 42  1  0
  9 43  1  0
 10 44  1  0
 20 45  1  0
 20 46  1  0
 26 47  1  0
 27 48  1  0
 27 49  1  0
 29 50  1  0
 29 51  1  0
 29 52  1  0
 30 53  1  0
 30 54  1  0
 30 55  1  0
 31 56  1  0
 31 57  1  0
M  CHG  2  17  -1  23  -1
M  END
>  <meeko>  (1) 
{"is_sidechain": [false], "free_energy": -8.568, "intermolecular_energy": -12.074, "internal_energy": -0.252}

$$$$
2qbq_ligand
     RDKit          3D

 57 59  0  0  0  0  0  0  0  0999 V2000
   48.3320    7.5050    3.3180 C   0  0  0  0  0  0  0  0  0  0  0  0
   48.0720    7.5640    1.7960 C   0  0  0  0  0  0  0  0  0  0  0  0
   48.3360    6.1500    1.2480 C   0  0  0  0  0  0  0  0  0  0  0  0
   46.6010    7.9730    1.5680 C   0  0  0  0  0  0  0  0  0  0  0  0
   46.2780    8.3360    0.1090 C   0  0  0  0  0  0  0  0  0  0  0  0
   44.8650    8.7600    0.0590 N   0  0  0  0  0  0  0  0  0  0  0  0
   44.6730   10.0910   -0.3660 C   0  0  0  0  0  0  0  0  0  0  0  0
   44.3490   10.3870   -1.6940 C   0  0  0  0  0  0  0  0  0  0  0  0
   44.2170   11.7110   -2.1180 C   0  0  0  0  0  0  0  0  0  0  0  0
   44.4270   12.7560   -1.2180 C   0  0  0  0  0  0  0  0  0  0  0  0
   44.7590   12.4840    0.1140 C   0  0  0  0  0  0  0  0  0  0  0  0
   45.0380   13.5610    1.0660 C   0  0  0  0  0  0  0  0  0  0  0  0
   44.1970   15.0460    0.9320 S   0  0  0  0  0  0  0  0  0  0  0  0
   44.9810   15.7150    2.3120 C   0  0  0  0  0  0  0  0  0  0  0  0
   44.7040   17.2160    2.7630 C   0  0  0  0  0  0  0  0  0  0  0  0
   44.7710   18.1420    1.8980 O   0  0  0  0  0  0  0  0  0  0  0  0
   44.4190   17.3900    3.9940 O   0  0  0  0  0  0  0  0  0  0  0  0
   45.8250   14.7900    2.9010 C   0  0  0  0  0  0  0  0  0  0  0  0
   46.5690   15.0180    4.0130 O   0  0  0  0  0  0  0  0  0  0  0  0
   47.7070   15.8640    3.7290 C   0  0  0  0  0  0  0  0  0  0  0  0
   47.8460   17.0000    4.7660 C   0  0  0  0  0  0  0  0  0  0  0  0
   46.8790   17.1490    5.5750 O   0  0  0  0  0  0  0  0  0  0  0  0
   48.9430   17.6400    4.7450 O   0  0  0  0  0  0  0  0  0  0  0  0
   45.9100   13.5930    2.1330 C   0  0  0  0  0  0  0  0  0  0  0  0
   47.1370   12.2040    2.5580 Br  0  0  0  0  0  0  0  0  0  0  0  0
   44.8640   11.1480    0.5310 C   0  0  0  0  0  0  0  0  0  0  0  0
   47.2040    9.4660   -0.3710 C   0  0  0  0  0  0  0  0  0  0  0  0
   48.7060    9.1350   -0.2400 C   0  0  0  0  0  0  0  0  0  0  0  0
   49.5150   10.4310   -0.4770 C   0  0  0  0  0  0  0  0  0  0  0  0
   49.1400    8.1390   -1.3330 C   0  0  0  0  0  0  0  0  0  0  0  0
   49.0290    8.6190    1.1850 C   0  0  0  0  0  0  0  0  0  0  0  0
   47.3975    7.7171    3.8581 H   0  0  0  0  0  0  0  0  0  0  0  0
   48.6930    6.5021    3.5897 H   0  0  0  0  0  0  0  0  0  0  0  0
   49.0906    8.2538    3.5897 H   0  0  0  0  0  0  0  0  0  0  0  0
   48.4666    5.4502    2.0866 H   0  0  0  0  0  0  0  0  0  0  0  0
   47.4821    5.8298    0.6329 H   0  0  0  0  0  0  0  0  0  0  0  0
   49.2479    6.1595    0.6329 H   0  0  0  0  0  0  0  0  0  0  0  0
   45.9569    7.1331    1.8674 H   0  0  0  0  0  0  0  0  0  0  0  0
   46.4218    8.8757    2.1705 H   0  0  0  0  0  0  0  0  0  0  0  0
   46.4374    7.4723   -0.5533 H   0  0  0  0  0  0  0  0  0  0  0  0
   44.4210    8.6330    0.9700 H   0  0  0  0  0  0  0  0  0  0  0  0
   44.1965    9.5680   -2.4123 H   0  0  0  0  0  0  0  0  0  0  0  0
   43.9474   11.9299   -3.1617 H   0  0  0  0  0  0  0  0  0  0  0  0
   44.3312   13.7981   -1.5567 H   0  0  0  0  0  0  0  0  0  0  0  0
   48.6203   15.2511    3.7468 H   0  0  0  0  0  0  0  0  0  0  0  0
   47.5576   16.3194    2.7389 H   0  0  0  0  0  0  0  0  0  0  0  0
   45.1008   10.9277    1.5824 H   0  0  0  0  0  0  0  0  0  0  0  0
   46.9842    9.6692   -1.4295 H   0  0  0  0  0  0  0  0  0  0  0  0
   47.0093   10.3365    0.2726 H   0  0  0  0  0  0  0  0  0  0  0  0
   49.7910   10.8732    0.4916 H   0  0  0  0  0  0  0  0  0  0  0  0
   50.4267   10.1953   -1.0456 H   0  0  0  0  0  0  0  0  0  0  0  0
   48.9029   11.1465   -1.0456 H   0  0  0  0  0  0  0  0  0  0  0  0
   49.5371    7.2277   -0.8619 H   0  0  0  0  0  0  0  0  0  0  0  0
   48.2730    7.8804   -1.9586 H   0  0  0  0  0  0  0  0  0  0  0  0
   49.9197    8.5980   -1.9586 H   0  0  0  0  0  0  0  0  0  0  0  0
   50.0345    8.1739    1.1546 H   0  0  0  0  0  0  0  0  0  0  0  0
   48.9256    9.5014    1.8336 H   0  0  0  0  0  0  0  0  0  0  0  0
  1  2  1  0
  2  3  1  0
  2  4  1  0
  4  5  1  0
  5  6  1  0
  6  7  1  0
  7  8  2  0
  8  9  1  0
  9 10  2  0
 10 11  1  0
 11 12  1  0
 12 13  1  0
 13 14  1  0
 14 15  1  0
 15 16  2  0
 15 17  1  0
 14 18  2  0
 18 19  1  0
 19 20  1  0
 20 21  1  0
 21 22  2  0
 21 23  1  0
 18 24  1  0
 24 25  1  0
 11 26  2  0
  5 27  1  0
 27 28  1  0
 28 29  1  0
 28 30  1  0
 28 31  1  0
 31  2  1  0
 26  7  1  0
 24 12  2  0
  1 32  1  0
  1 33  1  0
  1 34  1  0
  3 35  1  0
  3 36  1  0
  3 37  1  0
  4 38  1  0
  4 39  1  0
  5 40  1  0
  6 41  1  0
  8 42  1  0
  9 43  1  0
 10 44  1  0
 20 45  1  0
 20 46  1  0
 26 47  1  0
 27 48  1  0
 27 49  1  0
 29 50  1  0
 29 51  1  0
 29 52  1  0
 30 53  1  0
 30 54  1  0
 30 55  1  0
 31 56  1  0
 31 57  1  0
M  CHG  2  17  -1  23  -1
M  END
>  <meeko>  (2) 
{"is_sidechain": [false], "free_energy": -8.566, "intermolecular_energy": -11.821, "internal_energy": -0.503}

$$$$
2qbq_ligand
     RDKit          3D

 57 59  0  0  0  0  0  0  0  0999 V2000
   42.2060    9.2900   -7.2430 C   0  0  0  0  0  0  0  0  0  0  0  0
   41.9870    9.3010   -5.7130 C   0  0  0  0  0  0  0  0  0  0  0  0
   42.0350    7.8340   -5.2500 C   0  0  0  0  0  0  0  0  0  0  0  0
   43.1250   10.1180   -5.0630 C   0  0  0  0  0  0  0  0  0  0  0  0
   42.8850   10.4410   -3.5800 C   0  0  0  0  0  0  0  0  0  0  0  0
   44.0180   11.2680   -3.1180 N   0  0  0  0  0  0  0  0  0  0  0  0
   44.3400   11.1010   -1.7540 C   0  0  0  0  0  0  0  0  0  0  0  0
   44.3060    9.8400   -1.1510 C   0  0  0  0  0  0  0  0  0  0  0  0
   44.5710    9.6940    0.2120 C   0  0  0  0  0  0  0  0  0  0  0  0
   44.8540   10.8160    0.9910 C   0  0  0  0  0  0  0  0  0  0  0  0
   44.8870   12.0890    0.4110 C   0  0  0  0  0  0  0  0  0  0  0  0
   45.1280   13.2880    1.2160 C   0  0  0  0  0  0  0  0  0  0  0  0
   44.2780   14.7310    0.8600 S   0  0  0  0  0  0  0  0  0  0  0  0
   45.0150   15.5890    2.1590 C   0  0  0  0  0  0  0  0  0  0  0  0
   44.7120   17.1330    2.3960 C   0  0  0  0  0  0  0  0  0  0  0  0
   44.4220   17.5320    3.5650 O   0  0  0  0  0  0  0  0  0  0  0  0
   44.7870   17.8850    1.3680 O   0  0  0  0  0  0  0  0  0  0  0  0
   45.8500   14.7630    2.8900 C   0  0  0  0  0  0  0  0  0  0  0  0
   46.5590   15.1480    3.9820 O   0  0  0  0  0  0  0  0  0  0  0  0
   47.6030   16.0870    3.6350 C   0  0  0  0  0  0  0  0  0  0  0  0
   47.8150   17.1390    4.7470 C   0  0  0  0  0  0  0  0  0  0  0  0
   48.9160   17.7700    4.7250 O   0  0  0  0  0  0  0  0  0  0  0  0
   46.8390   17.3100    5.5420 O   0  0  0  0  0  0  0  0  0  0  0  0
   45.9680   13.4740    2.2940 C   0  0  0  0  0  0  0  0  0  0  0  0
   47.1950   12.1710    2.9360 Br  0  0  0  0  0  0  0  0  0  0  0  0
   44.6430   12.2170   -0.9640 C   0  0  0  0  0  0  0  0  0  0  0  0
   41.5550   11.1950   -3.4120 C   0  0  0  0  0  0  0  0  0  0  0  0
   40.3370   10.4350   -3.9790 C   0  0  0  0  0  0  0  0  0  0  0  0
   39.1300   11.4010   -4.0100 C   0  0  0  0  0  0  0  0  0  0  0  0
   39.9440    9.2690   -3.0510 C   0  0  0  0  0  0  0  0  0  0  0  0
   40.6140    9.9630   -5.4290 C   0  0  0  0  0  0  0  0  0  0  0  0
   43.2833    9.2359   -7.4588 H   0  0  0  0  0  0  0  0  0  0  0  0
   41.7002    8.4161   -7.6795 H   0  0  0  0  0  0  0  0  0  0  0  0
   41.7904   10.2102   -7.6795 H   0  0  0  0  0  0  0  0  0  0  0  0
   42.0362    7.7963   -4.1506 H   0  0  0  0  0  0  0  0  0  0  0  0
   41.1539    7.2992   -5.6342 H   0  0  0  0  0  0  0  0  0  0  0  0
   42.9492    7.3580   -5.6342 H   0  0  0  0  0  0  0  0  0  0  0  0
   44.0578    9.5410   -5.1461 H   0  0  0  0  0  0  0  0  0  0  0  0
   43.1763   11.0785   -5.5968 H   0  0  0  0  0  0  0  0  0  0  0  0
   42.8206    9.5188   -2.9838 H   0  0  0  0  0  0  0  0  0  0  0  0
   43.8370   12.2560   -3.2990 H   0  0  0  0  0  0  0  0  0  0  0  0
   44.0679    8.9534   -1.7570 H   0  0  0  0  0  0  0  0  0  0  0  0
   44.5566    8.6946    0.6714 H   0  0  0  0  0  0  0  0  0  0  0  0
   45.0522   10.6995    2.0667 H   0  0  0  0  0  0  0  0  0  0  0  0
   48.5424   15.5356    3.4815 H   0  0  0  0  0  0  0  0  0  0  0  0
   47.3014   16.6128    2.7171 H   0  0  0  0  0  0  0  0  0  0  0  0
   44.6905   13.2120   -1.4305 H   0  0  0  0  0  0  0  0  0  0  0  0
   41.3873   11.3692   -2.3389 H   0  0  0  0  0  0  0  0  0  0  0  0
   41.6424   12.1330   -3.9799 H   0  0  0  0  0  0  0  0  0  0  0  0
   38.8276   11.6431   -2.9805 H   0  0  0  0  0  0  0  0  0  0  0  0
   39.4131   12.3248   -4.5358 H   0  0  0  0  0  0  0  0  0  0  0  0
   38.2907   10.9224   -4.5358 H   0  0  0  0  0  0  0  0  0  0  0  0
   40.0500    9.5834   -2.0022 H   0  0  0  0  0  0  0  0  0  0  0  0
   38.8997    8.9826   -3.2442 H   0  0  0  0  0  0  0  0  0  0  0  0
   40.6019    8.4088   -3.2442 H   0  0  0  0  0  0  0  0  0  0  0  0
   39.8346    9.2330   -5.6931 H   0  0  0  0  0  0  0  0  0  0  0  0
   40.6160   10.8845   -6.0296 H   0  0  0  0  0  0  0  0  0  0  0  0
  1  2  1  0
  2  3  1  0
  2  4  1  0
  4  5  1  0
  5  6  1  0
  6  7  1  0
  7  8  2  0
  8  9  1  0
  9 10  2  0
 10 11  1  0
 11 12  1  0
 12 13  1  0
 13 14  1  0
 14 15  1  0
 15 16  2  0
 15 17  1  0
 14 18  2  0
 18 19  1  0
 19 20  1  0
 20 21  1  0
 21 22  2  0
 21 23  1  0
 18 24  1  0
 24 25  1  0
 11 26  2  0
  5 27  1  0
 27 28  1  0
 28 29  1  0
 28 30  1  0
 28 31  1  0
 31  2  1  0
 26  7  1  0
 24 12  2  0
  1 32  1  0
  1 33  1  0
  1 34  1  0
  3 35  1  0
  3 36  1  0
  3 37  1  0
  4 38  1  0
  4 39  1  0
  5 40  1  0
  6 41  1  0
  8 42  1  0
  9 43  1  0
 10 44  1  0
 20 45  1  0
 20 46  1  0
 26 47  1  0
 27 48  1  0
 27 49  1  0
 29 50  1  0
 29 51  1  0
 29 52  1  0
 30 53  1  0
 30 54  1  0
 30 55  1  0
 31 56  1  0
 31 57  1  0
M  CHG  2  17  -1  23  -1
M  END
>  <meeko>  (3) 
{"is_sidechain": [false], "free_energy": -8.544, "intermolecular_energy": -11.55, "internal_energy": -0.743}

$$$$
2qbq_ligand
     RDKit          3D

 57 59  0  0  0  0  0  0  0  0999 V2000
   49.6200    7.4570   -1.6610 C   0  0  0  0  0  0  0  0  0  0  0  0
   48.9270    8.0590   -0.4170 C   0  0  0  0  0  0  0  0  0  0  0  0
   49.6760    9.3620   -0.0840 C   0  0  0  0  0  0  0  0  0  0  0  0
   47.4530    8.3510   -0.7730 C   0  0  0  0  0  0  0  0  0  0  0  0
   46.5800    8.6960    0.4440 C   0  0  0  0  0  0  0  0  0  0  0  0
   45.1990    8.8890   -0.0420 N   0  0  0  0  0  0  0  0  0  0  0  0
   44.8880   10.2190   -0.3960 C   0  0  0  0  0  0  0  0  0  0  0  0
   44.4880   10.5470   -1.6950 C   0  0  0  0  0  0  0  0  0  0  0  0
   44.2390   11.8740   -2.0500 C   0  0  0  0  0  0  0  0  0  0  0  0
   44.4070   12.8910   -1.1100 C   0  0  0  0  0  0  0  0  0  0  0  0
   44.8140   12.5880    0.1940 C   0  0  0  0  0  0  0  0  0  0  0  0
   45.0500   13.6400    1.1840 C   0  0  0  0  0  0  0  0  0  0  0  0
   44.0990   15.0630    1.1480 S   0  0  0  0  0  0  0  0  0  0  0  0
   44.8850   15.7280    2.5290 C   0  0  0  0  0  0  0  0  0  0  0  0
   44.5170   17.1830    3.0590 C   0  0  0  0  0  0  0  0  0  0  0  0
   44.2730   17.3470    4.2930 O   0  0  0  0  0  0  0  0  0  0  0  0
   44.4970   18.1110    2.1840 O   0  0  0  0  0  0  0  0  0  0  0  0
   45.8140   14.8430    3.0460 C   0  0  0  0  0  0  0  0  0  0  0  0
   46.5810   15.0760    4.1410 O   0  0  0  0  0  0  0  0  0  0  0  0
   47.7000   15.9410    3.8340 C   0  0  0  0  0  0  0  0  0  0  0  0
   47.8300   17.0880    4.8600 C   0  0  0  0  0  0  0  0  0  0  0  0
   46.8610   17.2400    5.6660 O   0  0  0  0  0  0  0  0  0  0  0  0
   48.9240   17.7340    4.8350 O   0  0  0  0  0  0  0  0  0  0  0  0
   45.9570   13.6890    2.2210 C   0  0  0  0  0  0  0  0  0  0  0  0
   47.2970   12.3770    2.5390 Br  0  0  0  0  0  0  0  0  0  0  0  0
   45.0370   11.2470    0.5430 C   0  0  0  0  0  0  0  0  0  0  0  0
   46.6410    7.5580    1.4770 C   0  0  0  0  0  0  0  0  0  0  0  0
   48.0730    7.2250    1.9470 C   0  0  0  0  0  0  0  0  0  0  0  0
   48.0290    5.9010    2.7460 C   0  0  0  0  0  0  0  0  0  0  0  0
   48.5940    8.3050    2.9130 C   0  0  0  0  0  0  0  0  0  0  0  0
   49.0130    7.0220    0.7310 C   0  0  0  0  0  0  0  0  0  0  0  0
   50.4143    6.7670   -1.3403 H   0  0  0  0  0  0  0  0  0  0  0  0
   48.8804    6.9098   -2.2639 H   0  0  0  0  0  0  0  0  0  0  0  0
   50.0584    8.2659   -2.2639 H   0  0  0  0  0  0  0  0  0  0  0  0
   49.7426    9.4779    1.0079 H   0  0  0  0  0  0  0  0  0  0  0  0
   50.6890    9.3220   -0.5109 H   0  0  0  0  0  0  0  0  0  0  0  0
   49.1316   10.2172   -0.5109 H   0  0  0  0  0  0  0  0  0  0  0  0
   47.4262    9.2003   -1.4716 H   0  0  0  0  0  0  0  0  0  0  0  0
   47.0406    7.4315   -1.2140 H   0  0  0  0  0  0  0  0  0  0  0  0
   46.9396    9.6111    0.9373 H   0  0  0  0  0  0  0  0  0  0  0  0
   44.5260    8.5630    0.6540 H   0  0  0  0  0  0  0  0  0  0  0  0
   44.3683    9.7512   -2.4450 H   0  0  0  0  0  0  0  0  0  0  0  0
   43.9103   12.1177   -3.0711 H   0  0  0  0  0  0  0  0  0  0  0  0
   44.2185   13.9365   -1.3954 H   0  0  0  0  0  0  0  0  0  0  0  0
   48.6249   15.3457    3.8450 H   0  0  0  0  0  0  0  0  0  0  0  0
   47.5300   16.3845    2.8418 H   0  0  0  0  0  0  0  0  0  0  0  0
   45.3342   10.9991    1.5727 H   0  0  0  0  0  0  0  0  0  0  0  0
   46.0469    7.8529    2.3545 H   0  0  0  0  0  0  0  0  0  0  0  0
   46.2449    6.6564    0.9869 H   0  0  0  0  0  0  0  0  0  0  0  0
   48.0364    6.1225    3.8234 H   0  0  0  0  0  0  0  0  0  0  0  0
   47.1120    5.3494    2.4913 H   0  0  0  0  0  0  0  0  0  0  0  0
   48.9073    5.2897    2.4913 H   0  0  0  0  0  0  0  0  0  0  0  0
   48.4354    7.9762    3.9506 H   0  0  0  0  0  0  0  0  0  0  0  0
   49.6683    8.4649    2.7392 H   0  0  0  0  0  0  0  0  0  0  0  0
   48.0505    9.2454    2.7392 H   0  0  0  0  0  0  0  0  0  0  0  0
   50.0465    7.0315    1.1076 H   0  0  0  0  0  0  0  0  0  0  0  0
   48.6874    6.0736    0.2787 H   0  0  0  0  0  0  0  0  0  0  0  0
  1  2  1  0
  2  3  1  0
  2  4  1  0
  4  5  1  0
  5  6  1  0
  6  7  1  0
  7  8  2  0
  8  9  1  0
  9 10  2  0
 10 11  1  0
 11 12  1  0
 12 13  1  0
 13 14  1  0
 14 15  1  0
 15 16  2  0
 15 17  1  0
 14 18  2  0
 18 19  1  0
 19 20  1  0
 20 21  1  0
 21 22  2  0
 21 23  1  0
 18 24  1  0
 24 25  1  0
 11 26  2  0
  5 27  1  0
 27 28  1  0
 28 29  1  0
 28 30  1  0
 28 31  1  0
 31  2  1  0
 26  7  1  0
 24 12  2  0
  1 32  1  0
  1 33  1  0
  1 34  1  0
  3 35  1  0
  3 36  1  0
  3 37  1  0
  4 38  1  0
  4 39  1  0
  5 40  1  0
  6 41  1  0
  8 42  1  0
  9 43  1  0
 10 44  1  0
 20 45  1  0
 20 46  1  0
 26 47  1  0
 27 48  1  0
 27 49  1  0
 29 50  1  0
 29 51  1  0
 29 52  1  0
 30 53  1  0
 30 54  1  0
 30 55  1  0
 31 56  1  0
 31 57  1  0
M  CHG  2  17  -1  23  -1
M  END
>  <meeko>  (4) 
{"is_sidechain": [false], "free_energy": -8.524, "intermolecular_energy": -11.433, "internal_energy": -0.831}

$$$$
2qbq_ligand
     RDKit          3D

 57 59  0  0  0  0  0  0  0  0999 V2000
   39.9930   14.8670   -3.9630 C   0  0  0  0  0  0  0  0  0  0  0  0
   41.5090   15.0080   -3.6940 C   0  0  0  0  0  0  0  0  0  0  0  0
   41.6540   15.8850   -2.4370 C   0  0  0  0  0  0  0  0  0  0  0  0
   42.0950   13.6010   -3.4500 C   0  0  0  0  0  0  0  0  0  0  0  0
   43.6310   13.5630   -3.4410 C   0  0  0  0  0  0  0  0  0  0  0  0
   44.0390   12.1560   -3.2590 N   0  0  0  0  0  0  0  0  0  0  0  0
   44.3240   11.8020   -1.9230 C   0  0  0  0  0  0  0  0  0  0  0  0
   44.2500   10.4730   -1.4940 C   0  0  0  0  0  0  0  0  0  0  0  0
   44.4790   10.1420   -0.1570 C   0  0  0  0  0  0  0  0  0  0  0  0
   44.7660   11.1440    0.7710 C   0  0  0  0  0  0  0  0  0  0  0  0
   44.8370   12.4810    0.3660 C   0  0  0  0  0  0  0  0  0  0  0  0
   45.0820   13.5570    1.3290 C   0  0  0  0  0  0  0  0  0  0  0  0
   44.1430   14.9870    1.2550 S   0  0  0  0  0  0  0  0  0  0  0  0
   44.9350   15.6800    2.6200 C   0  0  0  0  0  0  0  0  0  0  0  0
   44.5790   17.1520    3.1110 C   0  0  0  0  0  0  0  0  0  0  0  0
   44.2560   17.3350    4.3240 O   0  0  0  0  0  0  0  0  0  0  0  0
   44.6510   18.0710    2.2300 O   0  0  0  0  0  0  0  0  0  0  0  0
   45.8570   14.8010    3.1590 C   0  0  0  0  0  0  0  0  0  0  0  0
   46.6260   15.0570    4.2480 O   0  0  0  0  0  0  0  0  0  0  0  0
   47.7230   15.9440    3.9290 C   0  0  0  0  0  0  0  0  0  0  0  0
   47.7840   17.1450    4.8990 C   0  0  0  0  0  0  0  0  0  0  0  0
   46.8350   17.2440    5.7370 O   0  0  0  0  0  0  0  0  0  0  0  0
   48.8120   17.8850    4.8020 O   0  0  0  0  0  0  0  0  0  0  0  0
   45.9900   13.6260    2.3640 C   0  0  0  0  0  0  0  0  0  0  0  0
   47.3180   12.3110    2.7160 Br  0  0  0  0  0  0  0  0  0  0  0  0
   44.6300   12.7960   -0.9850 C   0  0  0  0  0  0  0  0  0  0  0  0
   44.1810   14.1240   -4.7640 C   0  0  0  0  0  0  0  0  0  0  0  0
   43.7010   15.5570   -5.0760 C   0  0  0  0  0  0  0  0  0  0  0  0
   44.0790   15.8910   -6.5380 C   0  0  0  0  0  0  0  0  0  0  0  0
   44.4320   16.5800   -4.1870 C   0  0  0  0  0  0  0  0  0  0  0  0
   42.1600   15.6580   -4.9410 C   0  0  0  0  0  0  0  0  0  0  0  0
   39.4538   14.8169   -3.0055 H   0  0  0  0  0  0  0  0  0  0  0  0
   39.6401   15.7362   -4.5374 H   0  0  0  0  0  0  0  0  0  0  0  0
   39.8065   13.9476   -4.5374 H   0  0  0  0  0  0  0  0  0  0  0  0
   41.5504   15.2585   -1.5388 H   0  0  0  0  0  0  0  0  0  0  0  0
   42.6437   16.3651   -2.4370 H   0  0  0  0  0  0  0  0  0  0  0  0
   40.8715   16.6581   -2.4370 H   0  0  0  0  0  0  0  0  0  0  0  0
   41.7332   13.2385   -2.4765 H   0  0  0  0  0  0  0  0  0  0  0  0
   41.7633   12.9662   -4.2848 H   0  0  0  0  0  0  0  0  0  0  0  0
   44.0329   14.1823   -2.6255 H   0  0  0  0  0  0  0  0  0  0  0  0
   44.8490   11.9390   -3.8410 H   0  0  0  0  0  0  0  0  0  0  0  0
   44.0089    9.6802   -2.2174 H   0  0  0  0  0  0  0  0  0  0  0  0
   44.4332    9.0912    0.1649 H   0  0  0  0  0  0  0  0  0  0  0  0
   44.9371   10.8813    1.8254 H   0  0  0  0  0  0  0  0  0  0  0  0
   48.6668   15.3829    3.9958 H   0  0  0  0  0  0  0  0  0  0  0  0
   47.5674   16.3313    2.9113 H   0  0  0  0  0  0  0  0  0  0  0  0
   44.7094   13.8427   -1.3138 H   0  0  0  0  0  0  0  0  0  0  0  0
   45.2796   14.1298   -4.7090 H   0  0  0  0  0  0  0  0  0  0  0  0
   43.8051   13.4760   -5.5695 H   0  0  0  0  0  0  0  0  0  0  0  0
   44.9033   16.6193   -6.5464 H   0  0  0  0  0  0  0  0  0  0  0  0
   44.3960   14.9726   -7.0537 H   0  0  0  0  0  0  0  0  0  0  0  0
   43.2066   16.3187   -7.0537 H   0  0  0  0  0  0  0  0  0  0  0  0
   44.2580   16.3364   -3.1285 H   0  0  0  0  0  0  0  0  0  0  0  0
   45.5109   16.5450   -4.3987 H   0  0  0  0  0  0  0  0  0  0  0  0
   44.0494   17.5893   -4.3987 H   0  0  0  0  0  0  0  0  0  0  0  0
   41.8991   16.7266   -4.9301 H   0  0  0  0  0  0  0  0  0  0  0  0
   41.7650   15.0871   -5.7942 H   0  0  0  0  0  0  0  0  0  0  0  0
  1  2  1  0
  2  3  1  0
  2  4  1  0
  4  5  1  0
  5  6  1  0
  6  7  1  0
  7  8  2  0
  8  9  1  0
  9 10  2  0
 10 11  1  0
 11 12  1  0
 12 13  1  0
 13 14  1  0
 14 15  1  0
 15 16  2  0
 15 17  1  0
 14 18  2  0
 18 19  1  0
 19 20  1  0
 20 21  1  0
 21 22  2  0
 21 23  1  0
 18 24  1  0
 24 25  1  0
 11 26  2  0
  5 27  1  0
 27 28  1  0
 28 29  1  0
 28 30  1  0
 28 31  1  0
 31  2  1  0
 26  7  1  0
 24 12  2  0
  1 32  1  0
  1 33  1  0
  1 34  1  0
  3 35  1  0
  3 36  1  0
  3 37  1  0
  4 38  1  0
  4 39  1  0
  5 40  1  0
  6 41  1  0
  8 42  1  0
  9 43  1  0
 10 44  1  0
 20 45  1  0
 20 46  1  0
 26 47  1  0
 27 48  1  0
 27 49  1  0
 29 50  1  0
 29 51  1  0
 29 52  1  0
 30 53  1  0
 30 54  1  0
 30 55  1  0
 31 56  1  0
 31 57  1  0
M  CHG  2  17  -1  23  -1
M  END
>  <meeko>  (5) 
{"is_sidechain": [false], "free_energy": -8.494, "intermolecular_energy": -11.23, "internal_energy": -0.993}

$$$$
2qbq_ligand
     RDKit          3D

 57 59  0  0  0  0  0  0  0  0999 V2000
   40.4840    7.9500   -3.4820 C   0  0  0  0  0  0  0  0  0  0  0  0
   41.7670    8.7860   -3.2700 C   0  0  0  0  0  0  0  0  0  0  0  0
   41.3510   10.2650   -3.3720 C   0  0  0  0  0  0  0  0  0  0  0  0
   42.3290    8.4710   -1.8680 C   0  0  0  0  0  0  0  0  0  0  0  0
   43.7450    9.0200   -1.6300 C   0  0  0  0  0  0  0  0  0  0  0  0
   44.1660    8.5920   -0.2810 N   0  0  0  0  0  0  0  0  0  0  0  0
   45.1910    9.3810    0.2840 C   0  0  0  0  0  0  0  0  0  0  0  0
   46.4220    8.8220    0.6400 C   0  0  0  0  0  0  0  0  0  0  0  0
   47.4080    9.5990    1.2510 C   0  0  0  0  0  0  0  0  0  0  0  0
   47.1630   10.9430    1.5310 C   0  0  0  0  0  0  0  0  0  0  0  0
   45.9350   11.5230    1.1910 C   0  0  0  0  0  0  0  0  0  0  0  0
   45.6320   12.9160    1.5220 C   0  0  0  0  0  0  0  0  0  0  0  0
   44.5940   13.8210    0.5040 S   0  0  0  0  0  0  0  0  0  0  0  0
   44.6910   15.2210    1.5020 C   0  0  0  0  0  0  0  0  0  0  0  0
   43.9630   16.5740    1.0870 C   0  0  0  0  0  0  0  0  0  0  0  0
   44.0600   17.5850    1.8470 O   0  0  0  0  0  0  0  0  0  0  0  0
   43.3180   16.5510   -0.0140 O   0  0  0  0  0  0  0  0  0  0  0  0
   45.4540   14.9750    2.6300 C   0  0  0  0  0  0  0  0  0  0  0  0
   45.7000   15.8800    3.6110 O   0  0  0  0  0  0  0  0  0  0  0  0
   46.9740   16.5390    3.4210 C   0  0  0  0  0  0  0  0  0  0  0  0
   47.4410   17.2560    4.7070 C   0  0  0  0  0  0  0  0  0  0  0  0
   46.5950   17.3330    5.6510 O   0  0  0  0  0  0  0  0  0  0  0  0
   48.6490   17.6490    4.7170 O   0  0  0  0  0  0  0  0  0  0  0  0
   46.0520   13.6820    2.5890 C   0  0  0  0  0  0  0  0  0  0  0  0
   47.3210   13.1130    3.8850 Br  0  0  0  0  0  0  0  0  0  0  0  0
   44.9630   10.7360    0.5550 C   0  0  0  0  0  0  0  0  0  0  0  0
   44.7070    8.4790   -2.7000 C   0  0  0  0  0  0  0  0  0  0  0  0
   44.2670    8.7940   -4.1450 C   0  0  0  0  0  0  0  0  0  0  0  0
   45.1430    7.9660   -5.1140 C   0  0  0  0  0  0  0  0  0  0  0  0
   44.5190   10.2760   -4.4810 C   0  0  0  0  0  0  0  0  0  0  0  0
   42.7880    8.3860   -4.3660 C   0  0  0  0  0  0  0  0  0  0  0  0
   40.0605    7.6741   -2.5050 H   0  0  0  0  0  0  0  0  0  0  0  0
   39.7490    8.5430   -4.0459 H   0  0  0  0  0  0  0  0  0  0  0  0
   40.7296    7.0380   -4.0459 H   0  0  0  0  0  0  0  0  0  0  0  0
   41.2333   10.6833   -2.3615 H   0  0  0  0  0  0  0  0  0  0  0  0
   42.1258   10.8273   -3.9137 H   0  0  0  0  0  0  0  0  0  0  0  0
   40.3966   10.3409   -3.9137 H   0  0  0  0  0  0  0  0  0  0  0  0
   41.6557    8.9109   -1.1175 H   0  0  0  0  0  0  0  0  0  0  0  0
   42.3919    7.3758   -1.7865 H   0  0  0  0  0  0  0  0  0  0  0  0
   43.7562   10.1178   -1.6989 H   0  0  0  0  0  0  0  0  0  0  0  0
   44.4650    7.6160   -0.2930 H   0  0  0  0  0  0  0  0  0  0  0  0
   46.6158    7.7585    0.4365 H   0  0  0  0  0  0  0  0  0  0  0  0
   48.3783    9.1510    1.5116 H   0  0  0  0  0  0  0  0  0  0  0  0
   47.9382   11.5502    2.0213 H   0  0  0  0  0  0  0  0  0  0  0  0
   47.7259   15.7875    3.1382 H   0  0  0  0  0  0  0  0  0  0  0  0
   46.8561   17.2940    2.6298 H   0  0  0  0  0  0  0  0  0  0  0  0
   44.0049   11.1913    0.2641 H   0  0  0  0  0  0  0  0  0  0  0  0
   45.6984    8.9256   -2.5336 H   0  0  0  0  0  0  0  0  0  0  0  0
   44.7180    7.3837   -2.5985 H   0  0  0  0  0  0  0  0  0  0  0  0
   45.8229    7.3234   -4.5354 H   0  0  0  0  0  0  0  0  0  0  0  0
   44.4976    7.3402   -5.7479 H   0  0  0  0  0  0  0  0  0  0  0  0
   45.7315    8.6456   -5.7479 H   0  0  0  0  0  0  0  0  0  0  0  0
   44.6169   10.8518   -3.5489 H   0  0  0  0  0  0  0  0  0  0  0  0
   45.4455   10.3667   -5.0670 H   0  0  0  0  0  0  0  0  0  0  0  0
   43.6746   10.6678   -5.0670 H   0  0  0  0  0  0  0  0  0  0  0  0
   42.4564    8.8447   -5.3092 H   0  0  0  0  0  0  0  0  0  0  0  0
   42.7948    7.2861   -4.3566 H   0  0  0  0  0  0  0  0  0  0  0  0
  1  2  1  0
  2  3  1  0
  2  4  1  0
  4  5  1  0
  5  6  1  0
  6  7  1  0
  7  8  2  0
  8  9  1  0
  9 10  2  0
 10 11  1  0
 11 12  1  0
 12 13  1  0
 13 14  1  0
 14 15  1  0
 15 16  2  0
 15 17  1  0
 14 18  2  0
 18 19  1  0
 19 20  1  0
 20 21  1  0
 21 22  2  0
 21 23  1  0
 18 24  1  0
 24 25  1  0
 11 26  2  0
  5 27  1  0
 27 28  1  0
 28 29  1  0
 28 30  1  0
 28 31  1  0
 31  2  1  0
 26  7  1  0
 24 12  2  0
  1 32  1  0
  1 33  1  0
  1 34  1  0
  3 35  1  0
  3 36  1  0
  3 37  1  0
  4 38  1  0
  4 39  1  0
  5 40  1  0
  6 41  1  0
  8 42  1  0
  9 43  1  0
 10 44  1  0
 20 45  1  0
 20 46  1  0
 26 47  1  0
 27 48  1  0
 27 49  1  0
 29 50  1  0
 29 51  1  0
 29 52  1  0
 30 53  1  0
 30 54  1  0
 30 55  1  0
 31 56  1  0
 31 57  1  0
M  CHG  2  17  -1  23  -1
M  END
>  <meeko>  (6) 
{"is_sidechain": [false], "free_energy": -8.325, "intermolecular_energy": -11.52, "internal_energy": -0.464}

$$$$
2qbq_ligand
     RDKit          3D

 57 59  0  0  0  0  0  0  0  0999 V2000
   43.6960   12.2230   -3.2640 C   0  0  0  0  0  0  0  0  0  0  0  0
   43.6680   10.6800   -3.1690 C   0  0  0  0  0  0  0  0  0  0  0  0
   44.6500   10.1560   -4.2330 C   0  0  0  0  0  0  0  0  0  0  0  0
   44.1260   10.2700   -1.7530 C   0  0  0  0  0  0  0  0  0  0  0  0
   43.8870    8.7860   -1.4300 C   0  0  0  0  0  0  0  0  0  0  0  0
   44.3160    8.5610   -0.0350 N   0  0  0  0  0  0  0  0  0  0  0  0
   45.3390    9.4270    0.4050 C   0  0  0  0  0  0  0  0  0  0  0  0
   46.6310    8.9550    0.6510 C   0  0  0  0  0  0  0  0  0  0  0  0
   47.6210    9.8090    1.1410 C   0  0  0  0  0  0  0  0  0  0  0  0
   47.3210   11.1450    1.4090 C   0  0  0  0  0  0  0  0  0  0  0  0
   46.0320   11.6380    1.1770 C   0  0  0  0  0  0  0  0  0  0  0  0
   45.6750   13.0210    1.5000 C   0  0  0  0  0  0  0  0  0  0  0  0
   44.6570   13.9000    0.4410 S   0  0  0  0  0  0  0  0  0  0  0  0
   44.6710   15.2980    1.4480 C   0  0  0  0  0  0  0  0  0  0  0  0
   43.9230   16.6320    1.0070 C   0  0  0  0  0  0  0  0  0  0  0  0
   43.3790   17.3560    1.8960 O   0  0  0  0  0  0  0  0  0  0  0  0
   43.9260   16.8910   -0.2420 O   0  0  0  0  0  0  0  0  0  0  0  0
   45.3920   15.0690    2.6070 C   0  0  0  0  0  0  0  0  0  0  0  0
   45.5700   15.9750    3.6010 O   0  0  0  0  0  0  0  0  0  0  0  0
   46.6920   16.8480    3.3310 C   0  0  0  0  0  0  0  0  0  0  0  0
   47.4890   17.1650    4.6160 C   0  0  0  0  0  0  0  0  0  0  0  0
   48.7510   17.2290    4.4980 O   0  0  0  0  0  0  0  0  0  0  0  0
   46.7960   17.3900    5.6570 O   0  0  0  0  0  0  0  0  0  0  0  0
   46.0280   13.7930    2.5860 C   0  0  0  0  0  0  0  0  0  0  0  0
   47.2560   13.2540    3.9330 Br  0  0  0  0  0  0  0  0  0  0  0  0
   45.0540   10.7740    0.6610 C   0  0  0  0  0  0  0  0  0  0  0  0
   42.3990    8.4410   -1.6070 C   0  0  0  0  0  0  0  0  0  0  0  0
   41.8520    8.7590   -3.0140 C   0  0  0  0  0  0  0  0  0  0  0  0
   40.3100    8.6410   -2.9780 C   0  0  0  0  0  0  0  0  0  0  0  0
   42.3480    7.7200   -4.0380 C   0  0  0  0  0  0  0  0  0  0  0  0
   42.2150   10.2080   -3.4270 C   0  0  0  0  0  0  0  0  0  0  0  0
   43.7038   12.6526   -2.2514 H   0  0  0  0  0  0  0  0  0  0  0  0
   44.6001   12.5408   -3.8041 H   0  0  0  0  0  0  0  0  0  0  0  0
   42.8041   12.5734   -3.8041 H   0  0  0  0  0  0  0  0  0  0  0  0
   45.5161    9.6939   -3.7367 H   0  0  0  0  0  0  0  0  0  0  0  0
   44.1449    9.4075   -4.8612 H   0  0  0  0  0  0  0  0  0  0  0  0
   44.9905   10.9923   -4.8612 H   0  0  0  0  0  0  0  0  0  0  0  0
   45.2029   10.4755   -1.6635 H   0  0  0  0  0  0  0  0  0  0  0  0
   43.5258   10.8542   -1.0400 H   0  0  0  0  0  0  0  0  0  0  0  0
   44.4602    8.1394   -2.1106 H   0  0  0  0  0  0  0  0  0  0  0  0
   44.6180    7.5940    0.0940 H   0  0  0  0  0  0  0  0  0  0  0  0
   46.8707    7.8992    0.4565 H   0  0  0  0  0  0  0  0  0  0  0  0
   48.6381    9.4283    1.3159 H   0  0  0  0  0  0  0  0  0  0  0  0
   48.1004   11.8131    1.8040 H   0  0  0  0  0  0  0  0  0  0  0  0
   47.3605   16.3569    2.6085 H   0  0  0  0  0  0  0  0  0  0  0  0
   46.3022   17.7936    2.9262 H   0  0  0  0  0  0  0  0  0  0  0  0
   44.0456   11.1617    0.4539 H   0  0  0  0  0  0  0  0  0  0  0  0
   42.2670    7.3654   -1.4179 H   0  0  0  0  0  0  0  0  0  0  0  0
   41.8376    9.0641   -0.8953 H   0  0  0  0  0  0  0  0  0  0  0  0
   39.9686    8.6149   -1.9327 H   0  0  0  0  0  0  0  0  0  0  0  0
   39.8639    9.5076   -3.4879 H   0  0  0  0  0  0  0  0  0  0  0  0
   40.0010    7.7166   -3.4879 H   0  0  0  0  0  0  0  0  0  0  0  0
   42.7630    6.8508   -3.5067 H   0  0  0  0  0  0  0  0  0  0  0  0
   41.5070    7.3968   -4.6691 H   0  0  0  0  0  0  0  0  0  0  0  0
   43.1281    8.1707   -4.6691 H   0  0  0  0  0  0  0  0  0  0  0  0
   42.0246   10.3010   -4.5064 H   0  0  0  0  0  0  0  0  0  0  0  0
   41.5929   10.8480   -2.7841 H   0  0  0  0  0  0  0  0  0  0  0  0
  1  2  1  0
  2  3  1  0
  2  4  1  0
  4  5  1  0
  5  6  1  0
  6  7  1  0
  7  8  2  0
  8  9  1  0
  9 10  2  0
 10 11  1  0
 11 12  1  0
 12 13  1  0
 13 14  1  0
 14 15  1  0
 15 16  2  0
 15 17  1  0
 14 18  2  0
 18 19  1  0
 19 20  1  0
 20 21  1  0
 21 22  2  0
 21 23  1  0
 18 24  1  0
 24 25  1  0
 11 26  2  0
  5 27  1  0
 27 28  1  0
 28 29  1  0
 28 30  1  0
 28 31  1  0
 31  2  1  0
 26  7  1  0
 24 12  2  0
  1 32  1  0
  1 33  1  0
  1 34  1  0
  3 35  1  0
  3 36  1  0
  3 37  1  0
  4 38  1  0
  4 39  1  0
  5 40  1  0
  6 41  1  0
  8 42  1  0
  9 43  1  0
 10 44  1  0
 20 45  1  0
 20 46  1  0
 26 47  1  0
 27 48  1  0
 27 49  1  0
 29 50  1  0
 29 51  1  0
 29 52  1  0
 30 53  1  0
 30 54  1  0
 30 55  1  0
 31 56  1  0
 31 57  1  0
M  CHG  2  17  -1  23  -1
M  END
>  <meeko>  (7) 
{"is_sidechain": [false], "free_energy": -8.039, "intermolecular_energy": -11.591, "internal_energy": 0.01}

$$$$
2qbq_ligand
     RDKit          3D

 57 59  0  0  0  0  0  0  0  0999 V2000
   45.3070   17.9650   -3.8890 C   0  0  0  0  0  0  0  0  0  0  0  0
   44.6090   16.7210   -3.2950 C   0  0  0  0  0  0  0  0  0  0  0  0
   45.5430   15.5250   -3.5560 C   0  0  0  0  0  0  0  0  0  0  0  0
   44.4160   16.9450   -1.7800 C   0  0  0  0  0  0  0  0  0  0  0  0
   43.4950   15.9110   -1.1140 C   0  0  0  0  0  0  0  0  0  0  0  0
   43.3610   16.2870    0.3080 N   0  0  0  0  0  0  0  0  0  0  0  0
   44.2810   15.6480    1.1660 C   0  0  0  0  0  0  0  0  0  0  0  0
   44.8950   16.3420    2.2140 C   0  0  0  0  0  0  0  0  0  0  0  0
   45.8460   15.7150    3.0220 C   0  0  0  0  0  0  0  0  0  0  0  0
   46.2070   14.3900    2.7760 C   0  0  0  0  0  0  0  0  0  0  0  0
   45.6110   13.6790    1.7290 C   0  0  0  0  0  0  0  0  0  0  0  0
   46.0110   12.3060    1.4150 C   0  0  0  0  0  0  0  0  0  0  0  0
   47.0270   11.4530    2.4980 S   0  0  0  0  0  0  0  0  0  0  0  0
   47.0050   10.0270    1.5320 C   0  0  0  0  0  0  0  0  0  0  0  0
   47.8630    8.7500    1.9400 C   0  0  0  0  0  0  0  0  0  0  0  0
   47.2750    7.6370    2.1020 O   0  0  0  0  0  0  0  0  0  0  0  0
   49.1180    8.9350    2.0730 O   0  0  0  0  0  0  0  0  0  0  0  0
   46.1800   10.1830    0.4330 C   0  0  0  0  0  0  0  0  0  0  0  0
   45.9480    9.2290   -0.5040 O   0  0  0  0  0  0  0  0  0  0  0  0
   44.7900    8.4280   -0.1730 C   0  0  0  0  0  0  0  0  0  0  0  0
   43.8070    8.3290   -1.3610 C   0  0  0  0  0  0  0  0  0  0  0  0
   42.6590    7.8490   -1.1070 O   0  0  0  0  0  0  0  0  0  0  0  0
   44.2250    8.7920   -2.4670 O   0  0  0  0  0  0  0  0  0  0  0  0
   45.6830   11.5160    0.3340 C   0  0  0  0  0  0  0  0  0  0  0  0
   44.6870   12.1150   -1.1710 Br  0  0  0  0  0  0  0  0  0  0  0  0
   44.6390   14.3140    0.9410 C   0  0  0  0  0  0  0  0  0  0  0  0
   42.1220   15.9020   -1.8080 C   0  0  0  0  0  0  0  0  0  0  0  0
   42.1970   15.6270   -3.3240 C   0  0  0  0  0  0  0  0  0  0  0  0
   40.8110   15.9260   -3.9440 C   0  0  0  0  0  0  0  0  0  0  0  0
   42.4870   14.1380   -3.5930 C   0  0  0  0  0  0  0  0  0  0  0  0
   43.2370   16.5580   -3.9980 C   0  0  0  0  0  0  0  0  0  0  0  0
   45.6677   18.6079   -3.0726 H   0  0  0  0  0  0  0  0  0  0  0  0
   46.1584   17.6469   -4.5087 H   0  0  0  0  0  0  0  0  0  0  0  0
   44.5918   18.5258   -4.5087 H   0  0  0  0  0  0  0  0  0  0  0  0
   45.8736   15.1016   -2.5961 H   0  0  0  0  0  0  0  0  0  0  0  0
   45.0034   14.7567   -4.1292 H   0  0  0  0  0  0  0  0  0  0  0  0
   46.4192   15.8623   -4.1292 H   0  0  0  0  0  0  0  0  0  0  0  0
   45.4014   16.8963   -1.2936 H   0  0  0  0  0  0  0  0  0  0  0  0
   43.9359   17.9273   -1.6594 H   0  0  0  0  0  0  0  0  0  0  0  0
   43.9165   14.8986   -1.1999 H   0  0  0  0  0  0  0  0  0  0  0  0
   42.4130   16.1030    0.6390 H   0  0  0  0  0  0  0  0  0  0  0  0
   44.6262   17.3917    2.4035 H   0  0  0  0  0  0  0  0  0  0  0  0
   46.3107   16.2661    3.8528 H   0  0  0  0  0  0  0  0  0  0  0  0
   46.9636   13.9022    3.4081 H   0  0  0  0  0  0  0  0  0  0  0  0
   45.1227    7.4157    0.1001 H   0  0  0  0  0  0  0  0  0  0  0  0
   44.2672    8.9101    0.6662 H   0  0  0  0  0  0  0  0  0  0  0  0
   44.1494   13.7528    0.1314 H   0  0  0  0  0  0  0  0  0  0  0  0
   41.5028   15.1206   -1.3432 H   0  0  0  0  0  0  0  0  0  0  0  0
   41.6917   16.9067   -1.6838 H   0  0  0  0  0  0  0  0  0  0  0  0
   40.0764   16.0845   -3.1407 H   0  0  0  0  0  0  0  0  0  0  0  0
   40.8751   16.8310   -4.5660 H   0  0  0  0  0  0  0  0  0  0  0  0
   40.4963   15.0751   -4.5660 H   0  0  0  0  0  0  0  0  0  0  0  0
   42.5906   13.6059   -2.6359 H   0  0  0  0  0  0  0  0  0  0  0  0
   41.6571   13.7008   -4.1676 H   0  0  0  0  0  0  0  0  0  0  0  0
   43.4203   14.0442   -4.1676 H   0  0  0  0  0  0  0  0  0  0  0  0
   43.4279   16.1638   -5.0070 H   0  0  0  0  0  0  0  0  0  0  0  0
   42.7825   17.5591   -3.9640 H   0  0  0  0  0  0  0  0  0  0  0  0
  1  2  1  0
  2  3  1  0
  2  4  1  0
  4  5  1  0
  5  6  1  0
  6  7  1  0
  7  8  2  0
  8  9  1  0
  9 10  2  0
 10 11  1  0
 11 12  1  0
 12 13  1  0
 13 14  1  0
 14 15  1  0
 15 16  2  0
 15 17  1  0
 14 18  2  0
 18 19  1  0
 19 20  1  0
 20 21  1  0
 21 22  2  0
 21 23  1  0
 18 24  1  0
 24 25  1  0
 11 26  2  0
  5 27  1  0
 27 28  1  0
 28 29  1  0
 28 30  1  0
 28 31  1  0
 31  2  1  0
 26  7  1  0
 24 12  2  0
  1 32  1  0
  1 33  1  0
  1 34  1  0
  3 35  1  0
  3 36  1  0
  3 37  1  0
  4 38  1  0
  4 39  1  0
  5 40  1  0
  6 41  1  0
  8 42  1  0
  9 43  1  0
 10 44  1  0
 20 45  1  0
 20 46  1  0
 26 47  1  0
 27 48  1  0
 27 49  1  0
 29 50  1  0
 29 51  1  0
 29 52  1  0
 30 53  1  0
 30 54  1  0
 30 55  1  0
 31 56  1  0
 31 57  1  0
M  CHG  2  17  -1  23  -1
M  END
>  <meeko>  (8) 
{"is_sidechain": [false], "free_energy": -8.011, "intermolecular_energy": -10.446, "internal_energy": -1.096}

$$$$
2qbq_ligand
     RDKit          3D

 57 59  0  0  0  0  0  0  0  0999 V2000
   49.2610    8.0820    3.9520 C   0  0  0  0  0  0  0  0  0  0  0  0
   49.1540    7.5080    2.5210 C   0  0  0  0  0  0  0  0  0  0  0  0
   48.1160    6.3720    2.5790 C   0  0  0  0  0  0  0  0  0  0  0  0
   48.6810    8.6340    1.5780 C   0  0  0  0  0  0  0  0  0  0  0  0
   48.7930    8.2800    0.0860 C   0  0  0  0  0  0  0  0  0  0  0  0
   48.3650    9.4650   -0.6840 N   0  0  0  0  0  0  0  0  0  0  0  0
   47.0700    9.9270   -0.3680 C   0  0  0  0  0  0  0  0  0  0  0  0
   45.9310    9.2200   -0.7680 C   0  0  0  0  0  0  0  0  0  0  0  0
   44.6540    9.7160   -0.4990 C   0  0  0  0  0  0  0  0  0  0  0  0
   44.5040   10.9370    0.1590 C   0  0  0  0  0  0  0  0  0  0  0  0
   45.6290   11.6650    0.5620 C   0  0  0  0  0  0  0  0  0  0  0  0
   45.5000   12.9740    1.2050 C   0  0  0  0  0  0  0  0  0  0  0  0
   44.5110   14.1740    0.4880 S   0  0  0  0  0  0  0  0  0  0  0  0
   44.8180   15.3050    1.7510 C   0  0  0  0  0  0  0  0  0  0  0  0
   44.2210   16.7790    1.6930 C   0  0  0  0  0  0  0  0  0  0  0  0
   43.0080   16.9400    1.3540 O   0  0  0  0  0  0  0  0  0  0  0  0
   45.0200   17.7230    2.0030 O   0  0  0  0  0  0  0  0  0  0  0  0
   45.6120   14.7460    2.7370 C   0  0  0  0  0  0  0  0  0  0  0  0
   46.0120   15.3860    3.8650 O   0  0  0  0  0  0  0  0  0  0  0  0
   47.2980   16.0240    3.6890 C   0  0  0  0  0  0  0  0  0  0  0  0
   47.5270   17.1410    4.7310 C   0  0  0  0  0  0  0  0  0  0  0  0
   46.5640   17.3810    5.5230 O   0  0  0  0  0  0  0  0  0  0  0  0
   48.6810   17.6710    4.7330 O   0  0  0  0  0  0  0  0  0  0  0  0
   46.0610   13.4430    2.3740 C   0  0  0  0  0  0  0  0  0  0  0  0
   47.3320   12.4850    3.4140 Br  0  0  0  0  0  0  0  0  0  0  0  0
   46.9060   11.1430    0.3070 C   0  0  0  0  0  0  0  0  0  0  0  0
   50.2420    7.8990   -0.2580 C   0  0  0  0  0  0  0  0  0  0  0  0
   50.7960    6.7360    0.5920 C   0  0  0  0  0  0  0  0  0  0  0  0
   52.3220    6.6420    0.3570 C   0  0  0  0  0  0  0  0  0  0  0  0
   50.1960    5.3930    0.1330 C   0  0  0  0  0  0  0  0  0  0  0  0
   50.5560    7.0000    2.1000 C   0  0  0  0  0  0  0  0  0  0  0  0
   49.1104    7.2742    4.6833 H   0  0  0  0  0  0  0  0  0  0  0  0
   50.2573    8.5256    4.0956 H   0  0  0  0  0  0  0  0  0  0  0  0
   48.4914    8.8548    4.0956 H   0  0  0  0  0  0  0  0  0  0  0  0
   47.8952    6.1303    3.6292 H   0  0  0  0  0  0  0  0  0  0  0  0
   47.1926    6.6929    2.0746 H   0  0  0  0  0  0  0  0  0  0  0  0
   48.5187    5.4812    2.0746 H   0  0  0  0  0  0  0  0  0  0  0  0
   47.6276    8.8562    1.8038 H   0  0  0  0  0  0  0  0  0  0  0  0
   49.3397    9.4974    1.7534 H   0  0  0  0  0  0  0  0  0  0  0  0
   48.1561    7.4179   -0.1613 H   0  0  0  0  0  0  0  0  0  0  0  0
   48.4160    9.2770   -1.6870 H   0  0  0  0  0  0  0  0  0  0  0  0
   46.0427    8.2636   -1.2998 H   0  0  0  0  0  0  0  0  0  0  0  0
   43.7660    9.1440   -0.8059 H   0  0  0  0  0  0  0  0  0  0  0  0
   43.4966   11.3293    0.3620 H   0  0  0  0  0  0  0  0  0  0  0  0
   48.0893   15.2676    3.7970 H   0  0  0  0  0  0  0  0  0  0  0  0
   47.3221   16.4782    2.6874 H   0  0  0  0  0  0  0  0  0  0  0  0
   47.7939   11.6985    0.6431 H   0  0  0  0  0  0  0  0  0  0  0  0
   50.2816    7.6047   -1.3172 H   0  0  0  0  0  0  0  0  0  0  0  0
   50.8655    8.7795   -0.0435 H   0  0  0  0  0  0  0  0  0  0  0  0
   52.8410    6.6100    1.3263 H   0  0  0  0  0  0  0  0  0  0  0  0
   52.5499    5.7281   -0.2112 H   0  0  0  0  0  0  0  0  0  0  0  0
   52.6603    7.5210   -0.2112 H   0  0  0  0  0  0  0  0  0  0  0  0
   49.9272    4.7914    1.0138 H   0  0  0  0  0  0  0  0  0  0  0  0
   49.2962    5.5808   -0.4712 H   0  0  0  0  0  0  0  0  0  0  0  0
   50.9363    4.8481   -0.4712 H   0  0  0  0  0  0  0  0  0  0  0  0
   50.7385    6.0554    2.6334 H   0  0  0  0  0  0  0  0  0  0  0  0
   51.2410    7.8224    2.3540 H   0  0  0  0  0  0  0  0  0  0  0  0
  1  2  1  0
  2  3  1  0
  2  4  1  0
  4  5  1  0
  5  6  1  0
  6  7  1  0
  7  8  2  0
  8  9  1  0
  9 10  2  0
 10 11  1  0
 11 12  1  0
 12 13  1  0
 13 14  1  0
 14 15  1  0
 15 16  2  0
 15 17  1  0
 14 18  2  0
 18 19  1  0
 19 20  1  0
 20 21  1  0
 21 22  2  0
 21 23  1  0
 18 24  1  0
 24 25  1  0
 11 26  2  0
  5 27  1  0
 27 28  1  0
 28 29  1  0
 28 30  1  0
 28 31  1  0
 31  2  1  0
 26  7  1  0
 24 12  2  0
  1 32  1  0
  1 33  1  0
  1 34  1  0
  3 35  1  0
  3 36  1  0
  3 37  1  0
  4 38  1  0
  4 39  1  0
  5 40  1  0
  6 41  1  0
  8 42  1  0
  9 43  1  0
 10 44  1  0
 20 45  1  0
 20 46  1  0
 26 47  1  0
 27 48  1  0
 27 49  1  0
 29 50  1  0
 29 51  1  0
 29 52  1  0
 30 53  1  0
 30 54  1  0
 30 55  1  0
 31 56  1  0
 31 57  1  0
M  CHG  2  17  -1  23  -1
M  END
>  <meeko>  (9) 
{"is_sidechain": [false], "free_energy": -7.95, "intermolecular_energy": -10.778, "internal_energy": -0.677}

$$$$
