4w9i_ligand
     RDKit          3D

 61 64  0  0  0  0  0  0  0  0999 V2000
   10.5260   50.3070   91.1790 C   0  0  0  0  0  0  0  0  0  0  0  0
   11.9630   50.7460   91.0900 C   0  0  0  0  0  0  0  0  0  0  0  0
   12.6110   50.5700   90.0590 O   0  0  0  0  0  0  0  0  0  0  0  0
   12.5150   51.3350   92.2060 N   0  0  0  0  0  0  0  0  0  0  0  0
   13.3520   50.5430   93.1000 C   0  0  0  0  0  0  0  0  0  0  0  0
   13.7110   51.4850   94.2470 C   0  0  2  0  0  0  0  0  0  0  0  0
   13.9060   50.8160   95.4800 O   0  0  0  0  0  0  0  0  0  0  0  0
   12.5100   52.4220   94.3090 C   0  0  0  0  0  0  0  0  0  0  0  0
   12.0810   52.5770   92.8450 C   0  0  1  0  0  0  0  0  0  0  0  0
   12.5500   53.9500   92.2930 C   0  0  0  0  0  0  0  0  0  0  0  0
   12.3220   54.9550   92.9780 O   0  0  0  0  0  0  0  0  0  0  0  0
   13.2140   54.0840   91.0910 N   0  0  0  0  0  0  0  0  0  0  0  0
   14.6520   54.0790   90.8450 C   0  0  0  0  0  0  0  0  0  0  0  0
   14.8440   55.0590   89.6880 C   0  0  2  0  0  0  0  0  0  0  0  0
   14.9560   56.3960   90.1760 O   0  0  0  0  0  0  0  0  0  0  0  0
   13.5720   54.9040   88.8740 C   0  0  0  0  0  0  0  0  0  0  0  0
   12.4880   54.6470   89.9310 C   0  0  1  0  0  0  0  0  0  0  0  0
   11.4300   53.7070   89.3230 C   0  0  0  0  0  0  0  0  0  0  0  0
   10.2610   53.7150   89.7030 O   0  0  0  0  0  0  0  0  0  0  0  0
   11.8570   53.0070   88.2170 N   0  0  0  0  0  0  0  0  0  0  0  0
   10.9520   52.2620   87.3760 C   0  0  0  0  0  0  0  0  0  0  0  0
   11.6120   51.9490   86.0580 C   0  0  0  0  0  0  0  0  0  0  0  0
   11.5210   50.6700   85.4940 C   0  0  0  0  0  0  0  0  0  0  0  0
   12.1650   50.3810   84.2870 C   0  0  0  0  0  0  0  0  0  0  0  0
   12.9160   51.3620   83.6240 C   0  0  0  0  0  0  0  0  0  0  0  0
   13.6030   51.0630   82.3690 C   0  0  0  0  0  0  0  0  0  0  0  0
   12.8120   50.1450   81.1470 S   0  0  0  0  0  0  0  0  0  0  0  0
   14.1920   50.3030   80.1500 C   0  0  0  0  0  0  0  0  0  0  0  0
   15.1970   50.9830   80.6530 N   0  0  0  0  0  0  0  0  0  0  0  0
   14.8700   51.4240   81.9280 C   0  0  0  0  0  0  0  0  0  0  0  0
   15.8870   52.2110   82.6760 C   0  0  0  0  0  0  0  0  0  0  0  0
   13.0140   52.6370   84.1950 C   0  0  0  0  0  0  0  0  0  0  0  0
   12.3700   52.9270   85.4000 C   0  0  0  0  0  0  0  0  0  0  0  0
   10.2346   50.2180   92.2360 H   0  0  0  0  0  0  0  0  0  0  0  0
    9.8842   51.0501   90.6830 H   0  0  0  0  0  0  0  0  0  0  0  0
   10.4090   49.3321   90.6830 H   0  0  0  0  0  0  0  0  0  0  0  0
   12.7977   49.6704   93.4759 H   0  0  0  0  0  0  0  0  0  0  0  0
   14.2461   50.1540   92.5908 H   0  0  0  0  0  0  0  0  0  0  0  0
   14.6683   51.9983   94.0738 H   0  0  0  0  0  0  0  0  0  0  0  0
   14.7870   51.0410   95.8250 H   0  0  0  0  0  0  0  0  0  0  0  0
   11.7005   51.9801   94.9085 H   0  0  0  0  0  0  0  0  0  0  0  0
   12.7499   53.3852   94.7830 H   0  0  0  0  0  0  0  0  0  0  0  0
   11.0022   52.6578   92.6458 H   0  0  0  0  0  0  0  0  0  0  0  0
   15.2004   54.4173   91.7365 H   0  0  0  0  0  0  0  0  0  0  0  0
   15.0335   53.0742   90.6107 H   0  0  0  0  0  0  0  0  0  0  0  0
   15.7570   54.8597   89.1076 H   0  0  0  0  0  0  0  0  0  0  0  0
   14.1760   56.6000   90.7200 H   0  0  0  0  0  0  0  0  0  0  0  0
   13.3560   55.8212   88.3065 H   0  0  0  0  0  0  0  0  0  0  0  0
   13.6396   54.0968   88.1298 H   0  0  0  0  0  0  0  0  0  0  0  0
   11.9349   55.5407   90.2556 H   0  0  0  0  0  0  0  0  0  0  0  0
   12.7840   53.2010   87.8720 H   0  0  0  0  0  0  0  0  0  0  0  0
   10.6781   51.3225   87.8783 H   0  0  0  0  0  0  0  0  0  0  0  0
   10.0500   52.8647   87.1938 H   0  0  0  0  0  0  0  0  0  0  0  0
   10.9392   49.8880   86.0039 H   0  0  0  0  0  0  0  0  0  0  0  0
   12.0816   49.3736   83.8531 H   0  0  0  0  0  0  0  0  0  0  0  0
   14.2358   49.8602   79.1440 H   0  0  0  0  0  0  0  0  0  0  0  0
   15.7253   52.0858   83.7568 H   0  0  0  0  0  0  0  0  0  0  0  0
   16.8935   51.8542   82.4121 H   0  0  0  0  0  0  0  0  0  0  0  0
   15.7942   53.2748   82.4121 H   0  0  0  0  0  0  0  0  0  0  0  0
   13.6032   53.4167   83.6902 H   0  0  0  0  0  0  0  0  0  0  0  0
   12.4586   53.9327   85.8367 H   0  0  0  0  0  0  0  0  0  0  0  0
  1  2  1  0
  2  3  2  0
  2  4  1  0
  4  5  1  0
  5  6  1  0
  6  7  1  0
  6  8  1  0
  8  9  1  0
  9 10  1  0
 10 11  2  0
 10 12  1  0
 12 13  1  0
 13 14  1  0
 14 15  1  0
 14 16  1  0
 16 17  1  0
 17 18  1  0
 18 19  2  0
 18 20  1  0
 20 21  1  0
 21 22  1  0
 22 23  2  0
 23 24  1  0
 24 25  2  0
 25 26  1  0
 26 27  1  0
 27 28  1  0
 28 29  2  0
 29 30  1  0
 30 31  1  0
 25 32  1  0
 32 33  2  0
  9  4  1  0
 17 12  1  0
 33 22  1  0
 30 26  2  0
  1 34  1  0
  1 35  1  0
  1 36  1  0
  5 37  1  0
  5 38  1  0
  6 39  1  6
  7 40  1  0
  8 41  1  0
  8 42  1  0
  9 43  1  1
 13 44  1  0
 13 45  1  0
 14 46  1  6
 15 47  1  0
 16 48  1  0
 16 49  1  0
 17 50  1  1
 20 51  1  0
 21 52  1  0
 21 53  1  0
 23 54  1  0
 24 55  1  0
 28 56  1  0
 31 57  1  0
 31 58  1  0
 31 59  1  0
 32 60  1  0
 33 61  1  0
M  END
>  <meeko>  (1) 
{"is_sidechain": [false], "free_energy": -7.629, "intermolecular_energy": -11.198, "internal_energy": -1.789}

$$$$
4w9i_ligand
     RDKit          3D

 61 64  0  0  0  0  0  0  0  0999 V2000
   11.4690   56.2320   95.0670 C   0  0  0  0  0  0  0  0  0  0  0  0
   10.5260   55.1270   94.6730 C   0  0  0  0  0  0  0  0  0  0  0  0
    9.3080   55.2940   94.7230 O   0  0  0  0  0  0  0  0  0  0  0  0
   11.0810   53.9330   94.2730 N   0  0  0  0  0  0  0  0  0  0  0  0
   10.8610   52.7310   95.0680 C   0  0  0  0  0  0  0  0  0  0  0  0
   11.6800   51.6420   94.3800 C   0  0  2  0  0  0  0  0  0  0  0  0
   12.1570   50.6520   95.2730 O   0  0  0  0  0  0  0  0  0  0  0  0
   12.8290   52.4220   93.7530 C   0  0  0  0  0  0  0  0  0  0  0  0
   12.1930   53.7550   93.3390 C   0  0  1  0  0  0  0  0  0  0  0  0
   11.9430   53.7740   91.8070 C   0  0  0  0  0  0  0  0  0  0  0  0
   10.7900   53.5680   91.4070 O   0  0  0  0  0  0  0  0  0  0  0  0
   12.9440   54.0220   90.8910 N   0  0  0  0  0  0  0  0  0  0  0  0
   14.2930   54.5200   91.1360 C   0  0  0  0  0  0  0  0  0  0  0  0
   14.6090   55.3820   89.9140 C   0  0  2  0  0  0  0  0  0  0  0  0
   14.1120   56.7080   90.0920 O   0  0  0  0  0  0  0  0  0  0  0  0
   13.8630   54.6900   88.7870 C   0  0  0  0  0  0  0  0  0  0  0  0
   12.5890   54.1600   89.4600 C   0  0  1  0  0  0  0  0  0  0  0  0
   12.1880   52.8420   88.7720 C   0  0  0  0  0  0  0  0  0  0  0  0
   12.2440   51.7620   89.3570 O   0  0  0  0  0  0  0  0  0  0  0  0
   11.6010   52.9990   87.5370 N   0  0  0  0  0  0  0  0  0  0  0  0
   10.9500   51.9130   86.8450 C   0  0  0  0  0  0  0  0  0  0  0  0
   11.6970   51.5870   85.5780 C   0  0  0  0  0  0  0  0  0  0  0  0
   12.5280   52.5340   84.9680 C   0  0  0  0  0  0  0  0  0  0  0  0
   13.1900   52.2320   83.7750 C   0  0  0  0  0  0  0  0  0  0  0  0
   13.0300   50.9790   83.1660 C   0  0  0  0  0  0  0  0  0  0  0  0
   13.7090   50.6610   81.9100 C   0  0  0  0  0  0  0  0  0  0  0  0
   12.9320   49.6770   80.7320 S   0  0  0  0  0  0  0  0  0  0  0  0
   14.2910   49.8470   79.7090 C   0  0  0  0  0  0  0  0  0  0  0  0
   15.2800   50.5770   80.1740 N   0  0  0  0  0  0  0  0  0  0  0  0
   14.9560   51.0500   81.4390 C   0  0  0  0  0  0  0  0  0  0  0  0
   15.9570   51.8950   82.1440 C   0  0  0  0  0  0  0  0  0  0  0  0
   12.1910   50.0360   83.7720 C   0  0  0  0  0  0  0  0  0  0  0  0
   11.5290   50.3380   84.9650 C   0  0  0  0  0  0  0  0  0  0  0  0
   11.5225   56.2947   96.1639 H   0  0  0  0  0  0  0  0  0  0  0  0
   12.4700   56.0214   94.6625 H   0  0  0  0  0  0  0  0  0  0  0  0
   11.1036   57.1875   94.6625 H   0  0  0  0  0  0  0  0  0  0  0  0
   11.2096   52.8819   96.1003 H   0  0  0  0  0  0  0  0  0  0  0  0
    9.7948   52.4674   95.1291 H   0  0  0  0  0  0  0  0  0  0  0  0
   11.0800   51.0725   93.6550 H   0  0  0  0  0  0  0  0  0  0  0  0
   13.0490   50.9000   95.5720 H   0  0  0  0  0  0  0  0  0  0  0  0
   13.6355   52.5841   94.4832 H   0  0  0  0  0  0  0  0  0  0  0  0
   13.2872   51.8912   92.9055 H   0  0  0  0  0  0  0  0  0  0  0  0
   12.8146   54.6574   93.4355 H   0  0  0  0  0  0  0  0  0  0  0  0
   14.3242   55.1226   92.0557 H   0  0  0  0  0  0  0  0  0  0  0  0
   15.0209   53.7070   91.2746 H   0  0  0  0  0  0  0  0  0  0  0  0
   15.6888   55.4755   89.7262 H   0  0  0  0  0  0  0  0  0  0  0  0
   13.2220   56.6620   90.4830 H   0  0  0  0  0  0  0  0  0  0  0  0
   13.6155   55.4021   87.9860 H   0  0  0  0  0  0  0  0  0  0  0  0
   14.4549   53.8939   88.3118 H   0  0  0  0  0  0  0  0  0  0  0  0
   11.7103   54.8158   89.3718 H   0  0  0  0  0  0  0  0  0  0  0  0
   11.4360   53.9410   87.2160 H   0  0  0  0  0  0  0  0  0  0  0  0
   10.9314   51.0260   87.4953 H   0  0  0  0  0  0  0  0  0  0  0  0
    9.9222   52.2115   86.5912 H   0  0  0  0  0  0  0  0  0  0  0  0
   12.6608   53.5229   85.4310 H   0  0  0  0  0  0  0  0  0  0  0  0
   13.8431   52.9846   83.3090 H   0  0  0  0  0  0  0  0  0  0  0  0
   14.3352   49.3723   78.7177 H   0  0  0  0  0  0  0  0  0  0  0  0
   15.8282   51.7862   83.2310 H   0  0  0  0  0  0  0  0  0  0  0  0
   16.9709   51.5755   81.8611 H   0  0  0  0  0  0  0  0  0  0  0  0
   15.8122   52.9481   81.8611 H   0  0  0  0  0  0  0  0  0  0  0  0
   12.0519   49.0497   83.3053 H   0  0  0  0  0  0  0  0  0  0  0  0
   10.8699   49.5884   85.4272 H   0  0  0  0  0  0  0  0  0  0  0  0
  1  2  1  0
  2  3  2  0
  2  4  1  0
  4  5  1  0
  5  6  1  0
  6  7  1  0
  6  8  1  0
  8  9  1  0
  9 10  1  0
 10 11  2  0
 10 12  1  0
 12 13  1  0
 13 14  1  0
 14 15  1  0
 14 16  1  0
 16 17  1  0
 17 18  1  0
 18 19  2  0
 18 20  1  0
 20 21  1  0
 21 22  1  0
 22 23  2  0
 23 24  1  0
 24 25  2  0
 25 26  1  0
 26 27  1  0
 27 28  1  0
 28 29  2  0
 29 30  1  0
 30 31  1  0
 25 32  1  0
 32 33  2  0
  9  4  1  0
 17 12  1  0
 33 22  1  0
 30 26  2  0
  1 34  1  0
  1 35  1  0
  1 36  1  0
  5 37  1  0
  5 38  1  0
  6 39  1  6
  7 40  1  0
  8 41  1  0
  8 42  1  0
  9 43  1  6
 13 44  1  0
 13 45  1  0
 14 46  1  6
 15 47  1  0
 16 48  1  0
 16 49  1  0
 17 50  1  1
 20 51  1  0
 21 52  1  0
 21 53  1  0
 23 54  1  0
 24 55  1  0
 28 56  1  0
 31 57  1  0
 31 58  1  0
 31 59  1  0
 32 60  1  0
 33 61  1  0
M  END
>  <meeko>  (2) 
{"is_sidechain": [false], "free_energy": -7.625, "intermolecular_energy": -12.432, "internal_energy": -0.549}

$$$$
4w9i_ligand
     RDKit          3D

 61 64  0  0  0  0  0  0  0  0999 V2000
   15.4890   52.1450   80.2180 C   0  0  0  0  0  0  0  0  0  0  0  0
   14.9910   51.5920   81.5260 C   0  0  0  0  0  0  0  0  0  0  0  0
   15.6180   51.7840   82.5680 O   0  0  0  0  0  0  0  0  0  0  0  0
   13.8250   50.8610   81.5020 N   0  0  0  0  0  0  0  0  0  0  0  0
   13.5600   49.9600   80.3870 C   0  0  0  0  0  0  0  0  0  0  0  0
   12.1680   49.3950   80.6530 C   0  0  2  0  0  0  0  0  0  0  0  0
   11.4580   49.0760   79.4690 O   0  0  0  0  0  0  0  0  0  0  0  0
   11.4840   50.5180   81.4240 C   0  0  0  0  0  0  0  0  0  0  0  0
   12.6090   51.1290   82.2680 C   0  0  1  0  0  0  0  0  0  0  0  0
   12.4870   50.6570   83.7420 C   0  0  0  0  0  0  0  0  0  0  0  0
   13.1980   49.7120   84.1050 O   0  0  0  0  0  0  0  0  0  0  0  0
   11.6370   51.2550   84.6490 N   0  0  0  0  0  0  0  0  0  0  0  0
   10.4760   50.6770   85.3190 C   0  0  0  0  0  0  0  0  0  0  0  0
    9.4930   51.8400   85.4500 C   0  0  2  0  0  0  0  0  0  0  0  0
    8.7120   51.9730   84.2630 O   0  0  0  0  0  0  0  0  0  0  0  0
   10.3940   53.0500   85.6230 C   0  0  0  0  0  0  0  0  0  0  0  0
   11.6110   52.7320   84.7430 C   0  0  1  0  0  0  0  0  0  0  0  0
   12.8600   53.3510   85.3980 C   0  0  0  0  0  0  0  0  0  0  0  0
   13.8500   53.6630   84.7410 O   0  0  0  0  0  0  0  0  0  0  0  0
   12.7010   53.6860   86.7240 N   0  0  0  0  0  0  0  0  0  0  0  0
   13.6660   54.4830   87.4420 C   0  0  0  0  0  0  0  0  0  0  0  0
   13.4420   54.3530   88.9260 C   0  0  0  0  0  0  0  0  0  0  0  0
   14.3740   54.8580   89.8410 C   0  0  0  0  0  0  0  0  0  0  0  0
   14.1730   54.7020   91.2160 C   0  0  0  0  0  0  0  0  0  0  0  0
   13.0400   54.0340   91.7020 C   0  0  0  0  0  0  0  0  0  0  0  0
   12.8300   53.8560   93.1370 C   0  0  0  0  0  0  0  0  0  0  0  0
   12.1160   55.1130   94.0700 S   0  0  0  0  0  0  0  0  0  0  0  0
   12.2210   54.1250   95.4620 C   0  0  0  0  0  0  0  0  0  0  0  0
   12.7460   52.9340   95.2900 N   0  0  0  0  0  0  0  0  0  0  0  0
   13.1010   52.7680   93.9580 C   0  0  0  0  0  0  0  0  0  0  0  0
   13.7250   51.4780   93.5580 C   0  0  0  0  0  0  0  0  0  0  0  0
   12.1140   53.5210   90.7850 C   0  0  0  0  0  0  0  0  0  0  0  0
   12.3150   53.6770   89.4110 C   0  0  0  0  0  0  0  0  0  0  0  0
   16.2135   52.9496   80.4122 H   0  0  0  0  0  0  0  0  0  0  0  0
   15.9761   51.3438   79.6429 H   0  0  0  0  0  0  0  0  0  0  0  0
   14.6413   52.5459   79.6429 H   0  0  0  0  0  0  0  0  0  0  0  0
   13.5779   50.5094   79.4342 H   0  0  0  0  0  0  0  0  0  0  0  0
   14.3183   49.1669   80.3095 H   0  0  0  0  0  0  0  0  0  0  0  0
   12.2085   48.4407   81.1985 H   0  0  0  0  0  0  0  0  0  0  0  0
   11.6500   49.7500   78.7950 H   0  0  0  0  0  0  0  0  0  0  0  0
   11.0626   51.2648   80.7350 H   0  0  0  0  0  0  0  0  0  0  0  0
   10.6431   50.1597   82.0360 H   0  0  0  0  0  0  0  0  0  0  0  0
   12.5850   52.2180   82.4216 H   0  0  0  0  0  0  0  0  0  0  0  0
   10.0417   49.8667   84.7150 H   0  0  0  0  0  0  0  0  0  0  0  0
   10.7321   50.2334   86.2925 H   0  0  0  0  0  0  0  0  0  0  0  0
    8.7821   51.7068   86.2788 H   0  0  0  0  0  0  0  0  0  0  0  0
    7.9740   51.3420   84.2980 H   0  0  0  0  0  0  0  0  0  0  0  0
    9.8905   53.9654   85.2788 H   0  0  0  0  0  0  0  0  0  0  0  0
   10.6654   53.2305   86.6736 H   0  0  0  0  0  0  0  0  0  0  0  0
   11.5722   53.1541   83.7279 H   0  0  0  0  0  0  0  0  0  0  0  0
   11.7890   53.5530   87.1330 H   0  0  0  0  0  0  0  0  0  0  0  0
   14.6803   54.1361   87.1952 H   0  0  0  0  0  0  0  0  0  0  0  0
   13.5504   55.5375   87.1511 H   0  0  0  0  0  0  0  0  0  0  0  0
   15.2702   55.3809   89.4757 H   0  0  0  0  0  0  0  0  0  0  0  0
   14.9112   55.1074   91.9236 H   0  0  0  0  0  0  0  0  0  0  0  0
   11.8686   54.4680   96.4459 H   0  0  0  0  0  0  0  0  0  0  0  0
   14.0002   50.9091   94.4583 H   0  0  0  0  0  0  0  0  0  0  0  0
   13.0096   50.8945   92.9600 H   0  0  0  0  0  0  0  0  0  0  0  0
   14.6266   51.6767   92.9600 H   0  0  0  0  0  0  0  0  0  0  0  0
   11.2215   52.9911   91.1493 H   0  0  0  0  0  0  0  0  0  0  0  0
   11.5808   53.2648   88.7031 H   0  0  0  0  0  0  0  0  0  0  0  0
  1  2  1  0
  2  3  2  0
  2  4  1  0
  4  5  1  0
  5  6  1  0
  6  7  1  0
  6  8  1  0
  8  9  1  0
  9 10  1  0
 10 11  2  0
 10 12  1  0
 12 13  1  0
 13 14  1  0
 14 15  1  0
 14 16  1  0
 16 17  1  0
 17 18  1  0
 18 19  2  0
 18 20  1  0
 20 21  1  0
 21 22  1  0
 22 23  2  0
 23 24  1  0
 24 25  2  0
 25 26  1  0
 26 27  1  0
 27 28  1  0
 28 29  2  0
 29 30  1  0
 30 31  1  0
 25 32  1  0
 32 33  2  0
  9  4  1  0
 17 12  1  0
 33 22  1  0
 30 26  2  0
  1 34  1  0
  1 35  1  0
  1 36  1  0
  5 37  1  0
  5 38  1  0
  6 39  1  1
  7 40  1  0
  8 41  1  0
  8 42  1  0
  9 43  1  1
 13 44  1  0
 13 45  1  0
 14 46  1  1
 15 47  1  0
 16 48  1  0
 16 49  1  0
 17 50  1  6
 20 51  1  0
 21 52  1  0
 21 53  1  0
 23 54  1  0
 24 55  1  0
 28 56  1  0
 31 57  1  0
 31 58  1  0
 31 59  1  0
 32 60  1  0
 33 61  1  0
M  END
>  <meeko>  (3) 
{"is_sidechain": [false], "free_energy": -7.398, "intermolecular_energy": -11.07, "internal_energy": -1.578}

$$$$
4w9i_ligand
     RDKit          3D

 61 64  0  0  0  0  0  0  0  0999 V2000
   12.9280   54.5970   94.1160 C   0  0  0  0  0  0  0  0  0  0  0  0
   12.2500   53.9920   92.9170 C   0  0  0  0  0  0  0  0  0  0  0  0
   11.2660   53.2650   93.0520 O   0  0  0  0  0  0  0  0  0  0  0  0
   12.7820   54.2740   91.6790 N   0  0  0  0  0  0  0  0  0  0  0  0
   14.1320   54.8180   91.5800 C   0  0  0  0  0  0  0  0  0  0  0  0
   14.3470   55.0790   90.0910 C   0  0  2  0  0  0  0  0  0  0  0  0
   15.2230   56.1620   89.8340 O   0  0  0  0  0  0  0  0  0  0  0  0
   12.9390   55.3740   89.5870 C   0  0  0  0  0  0  0  0  0  0  0  0
   12.0430   54.4580   90.4300 C   0  0  1  0  0  0  0  0  0  0  0  0
   11.5960   53.2300   89.5930 C   0  0  0  0  0  0  0  0  0  0  0  0
   12.4770   52.4820   89.1500 O   0  0  0  0  0  0  0  0  0  0  0  0
   10.2710   52.9410   89.3410 N   0  0  0  0  0  0  0  0  0  0  0  0
    9.1190   53.1320   90.2170 C   0  0  0  0  0  0  0  0  0  0  0  0
    8.1920   51.9620   89.8900 C   0  0  2  0  0  0  0  0  0  0  0  0
    8.5510   50.8090   90.6510 O   0  0  0  0  0  0  0  0  0  0  0  0
    8.4420   51.7120   88.4130 C   0  0  0  0  0  0  0  0  0  0  0  0
    9.9360   52.0150   88.2360 C   0  0  1  0  0  0  0  0  0  0  0  0
   10.1500   52.6000   86.8270 C   0  0  0  0  0  0  0  0  0  0  0  0
    9.2380   53.1380   86.2030 O   0  0  0  0  0  0  0  0  0  0  0  0
   11.4640   52.6330   86.4160 N   0  0  0  0  0  0  0  0  0  0  0  0
   11.8890   53.3500   85.2400 C   0  0  0  0  0  0  0  0  0  0  0  0
   12.1770   52.3830   84.1200 C   0  0  0  0  0  0  0  0  0  0  0  0
   13.4870   51.9800   83.8370 C   0  0  0  0  0  0  0  0  0  0  0  0
   13.7460   51.1080   82.7750 C   0  0  0  0  0  0  0  0  0  0  0  0
   12.7010   50.6280   81.9730 C   0  0  0  0  0  0  0  0  0  0  0  0
   12.9660   49.7270   80.8530 C   0  0  0  0  0  0  0  0  0  0  0  0
   11.9290   48.3870   80.5570 S   0  0  0  0  0  0  0  0  0  0  0  0
   12.8750   47.9690   79.1950 C   0  0  0  0  0  0  0  0  0  0  0  0
   13.9030   48.7460   78.9430 N   0  0  0  0  0  0  0  0  0  0  0  0
   13.9660   49.7600   79.8890 C   0  0  0  0  0  0  0  0  0  0  0  0
   15.0740   50.7460   79.7810 C   0  0  0  0  0  0  0  0  0  0  0  0
   11.3920   51.0410   82.2520 C   0  0  0  0  0  0  0  0  0  0  0  0
   11.1330   51.9110   83.3130 C   0  0  0  0  0  0  0  0  0  0  0  0
   12.4765   54.1941   95.0346 H   0  0  0  0  0  0  0  0  0  0  0  0
   13.9996   54.3495   94.0950 H   0  0  0  0  0  0  0  0  0  0  0  0
   12.8036   55.6897   94.0950 H   0  0  0  0  0  0  0  0  0  0  0  0
   14.2142   55.7540   92.1520 H   0  0  0  0  0  0  0  0  0  0  0  0
   14.8851   54.1295   91.9909 H   0  0  0  0  0  0  0  0  0  0  0  0
   14.8297   54.2271   89.5898 H   0  0  0  0  0  0  0  0  0  0  0  0
   16.1410   55.8440   89.8790 H   0  0  0  0  0  0  0  0  0  0  0  0
   12.6795   56.4307   89.7482 H   0  0  0  0  0  0  0  0  0  0  0  0
   12.8300   55.1953   88.5071 H   0  0  0  0  0  0  0  0  0  0  0  0
   11.0573   54.8515   90.7193 H   0  0  0  0  0  0  0  0  0  0  0  0
    9.4246   53.1026   91.2733 H   0  0  0  0  0  0  0  0  0  0  0  0
    8.6330   54.1067   90.0627 H   0  0  0  0  0  0  0  0  0  0  0  0
    7.1381   52.1750   90.1223 H   0  0  0  0  0  0  0  0  0  0  0  0
    8.3890   50.0140   90.1150 H   0  0  0  0  0  0  0  0  0  0  0  0
    8.2206   50.6672   88.1498 H   0  0  0  0  0  0  0  0  0  0  0  0
    7.8037   52.3295   87.7639 H   0  0  0  0  0  0  0  0  0  0  0  0
   10.5967   51.1374   88.2932 H   0  0  0  0  0  0  0  0  0  0  0  0
   12.1660   52.3290   87.0740 H   0  0  0  0  0  0  0  0  0  0  0  0
   11.0926   54.0416   84.9278 H   0  0  0  0  0  0  0  0  0  0  0  0
   12.8042   53.9140   85.4731 H   0  0  0  0  0  0  0  0  0  0  0  0
   14.3184   52.3516   84.4540 H   0  0  0  0  0  0  0  0  0  0  0  0
   14.7799   50.7955   82.5667 H   0  0  0  0  0  0  0  0  0  0  0  0
   12.6359   47.0989   78.5660 H   0  0  0  0  0  0  0  0  0  0  0  0
   15.4035   51.0392   80.7887 H   0  0  0  0  0  0  0  0  0  0  0  0
   15.9161   50.2931   79.2372 H   0  0  0  0  0  0  0  0  0  0  0  0
   14.7220   51.6350   79.2372 H   0  0  0  0  0  0  0  0  0  0  0  0
   10.5610   50.6769   81.6300 H   0  0  0  0  0  0  0  0  0  0  0  0
   10.0999   52.2288   83.5173 H   0  0  0  0  0  0  0  0  0  0  0  0
  1  2  1  0
  2  3  2  0
  2  4  1  0
  4  5  1  0
  5  6  1  0
  6  7  1  0
  6  8  1  0
  8  9  1  0
  9 10  1  0
 10 11  2  0
 10 12  1  0
 12 13  1  0
 13 14  1  0
 14 15  1  0
 14 16  1  0
 16 17  1  0
 17 18  1  0
 18 19  2  0
 18 20  1  0
 20 21  1  0
 21 22  1  0
 22 23  2  0
 23 24  1  0
 24 25  2  0
 25 26  1  0
 26 27  1  0
 27 28  1  0
 28 29  2  0
 29 30  1  0
 30 31  1  0
 25 32  1  0
 32 33  2  0
  9  4  1  0
 17 12  1  0
 33 22  1  0
 30 26  2  0
  1 34  1  0
  1 35  1  0
  1 36  1  0
  5 37  1  0
  5 38  1  0
  6 39  1  6
  7 40  1  0
  8 41  1  0
  8 42  1  0
  9 43  1  1
 13 44  1  0
 13 45  1  0
 14 46  1  6
 15 47  1  0
 16 48  1  0
 16 49  1  0
 17 50  1  1
 20 51  1  0
 21 52  1  0
 21 53  1  0
 23 54  1  0
 24 55  1  0
 28 56  1  0
 31 57  1  0
 31 58  1  0
 31 59  1  0
 32 60  1  0
 33 61  1  0
M  END
>  <meeko>  (4) 
{"is_sidechain": [false], "free_energy": -6.967, "intermolecular_energy": -10.988, "internal_energy": -1.026}

$$$$
4w9i_ligand
     RDKit          3D

 61 64  0  0  0  0  0  0  0  0999 V2000
   13.2850   52.9630   93.5540 C   0  0  0  0  0  0  0  0  0  0  0  0
   12.3340   53.5870   92.5690 C   0  0  0  0  0  0  0  0  0  0  0  0
   11.1290   53.6480   92.8120 O   0  0  0  0  0  0  0  0  0  0  0  0
   12.8650   54.0680   91.3930 N   0  0  0  0  0  0  0  0  0  0  0  0
   14.2370   54.5620   91.3690 C   0  0  0  0  0  0  0  0  0  0  0  0
   14.4480   55.0810   89.9490 C   0  0  2  0  0  0  0  0  0  0  0  0
   15.3700   56.1550   89.8780 O   0  0  0  0  0  0  0  0  0  0  0  0
   13.0500   55.5240   89.5350 C   0  0  0  0  0  0  0  0  0  0  0  0
   12.1210   54.5090   90.2140 C   0  0  1  0  0  0  0  0  0  0  0  0
   11.6090   53.4760   89.1750 C   0  0  0  0  0  0  0  0  0  0  0  0
   12.4470   52.9210   88.4530 O   0  0  0  0  0  0  0  0  0  0  0  0
   10.2760   53.1510   89.0410 N   0  0  0  0  0  0  0  0  0  0  0  0
    9.1610   54.0250   88.6890 C   0  0  0  0  0  0  0  0  0  0  0  0
    7.9780   53.4750   89.4850 C   0  0  2  0  0  0  0  0  0  0  0  0
    7.9620   54.0230   90.8030 O   0  0  0  0  0  0  0  0  0  0  0  0
    8.2510   51.9820   89.5430 C   0  0  0  0  0  0  0  0  0  0  0  0
    9.7810   51.8910   89.6390 C   0  0  1  0  0  0  0  0  0  0  0  0
   10.2380   50.6150   88.9070 C   0  0  0  0  0  0  0  0  0  0  0  0
   10.3530   49.5390   89.4900 O   0  0  0  0  0  0  0  0  0  0  0  0
   10.3250   50.7420   87.5390 N   0  0  0  0  0  0  0  0  0  0  0  0
   10.5070   49.6080   86.6660 C   0  0  0  0  0  0  0  0  0  0  0  0
   11.3740   49.9910   85.4950 C   0  0  0  0  0  0  0  0  0  0  0  0
   12.0320   49.0150   84.7370 C   0  0  0  0  0  0  0  0  0  0  0  0
   12.8610   49.3830   83.6730 C   0  0  0  0  0  0  0  0  0  0  0  0
   13.0520   50.7340   83.3510 C   0  0  0  0  0  0  0  0  0  0  0  0
   13.9280   51.1270   82.2480 C   0  0  0  0  0  0  0  0  0  0  0  0
   13.6910   50.4660   80.6770 S   0  0  0  0  0  0  0  0  0  0  0  0
   14.9940   51.4080   80.0960 C   0  0  0  0  0  0  0  0  0  0  0  0
   15.5950   52.1740   80.9770 N   0  0  0  0  0  0  0  0  0  0  0  0
   14.9910   52.0210   82.2180 C   0  0  0  0  0  0  0  0  0  0  0  0
   15.5360   52.8030   83.3600 C   0  0  0  0  0  0  0  0  0  0  0  0
   12.4020   51.7090   84.1160 C   0  0  0  0  0  0  0  0  0  0  0  0
   11.5730   51.3420   85.1790 C   0  0  0  0  0  0  0  0  0  0  0  0
   12.9491   53.1834   94.5780 H   0  0  0  0  0  0  0  0  0  0  0  0
   13.3078   51.8738   93.4020 H   0  0  0  0  0  0  0  0  0  0  0  0
   14.2933   53.3756   93.4020 H   0  0  0  0  0  0  0  0  0  0  0  0
   14.3682   55.3733   92.1002 H   0  0  0  0  0  0  0  0  0  0  0  0
   14.9620   53.7781   91.6333 H   0  0  0  0  0  0  0  0  0  0  0  0
   14.8857   54.3154   89.2915 H   0  0  0  0  0  0  0  0  0  0  0  0
   15.3060   56.5680   89.0000 H   0  0  0  0  0  0  0  0  0  0  0  0
   12.8417   56.5437   89.8913 H   0  0  0  0  0  0  0  0  0  0  0  0
   12.9210   55.5506   88.4429 H   0  0  0  0  0  0  0  0  0  0  0  0
   11.1576   54.8844   90.5894 H   0  0  0  0  0  0  0  0  0  0  0  0
    9.3751   55.0643   88.9787 H   0  0  0  0  0  0  0  0  0  0  0  0
    8.9664   54.0395   87.6065 H   0  0  0  0  0  0  0  0  0  0  0  0
    7.0068   53.7214   89.0310 H   0  0  0  0  0  0  0  0  0  0  0  0
    7.0410   54.0730   91.1130 H   0  0  0  0  0  0  0  0  0  0  0  0
    7.7757   51.5311   90.4266 H   0  0  0  0  0  0  0  0  0  0  0  0
    7.8472   51.4423   88.6737 H   0  0  0  0  0  0  0  0  0  0  0  0
   10.1773   51.8017   90.6612 H   0  0  0  0  0  0  0  0  0  0  0  0
   10.0390   51.6200   87.1330 H   0  0  0  0  0  0  0  0  0  0  0  0
   10.9894   48.7924   87.2246 H   0  0  0  0  0  0  0  0  0  0  0  0
    9.5256   49.2777   86.2949 H   0  0  0  0  0  0  0  0  0  0  0  0
   11.8958   47.9509   84.9803 H   0  0  0  0  0  0  0  0  0  0  0  0
   13.3681   48.6053   83.0831 H   0  0  0  0  0  0  0  0  0  0  0  0
   15.3111   51.3743   79.0432 H   0  0  0  0  0  0  0  0  0  0  0  0
   15.2151   52.3425   84.3060 H   0  0  0  0  0  0  0  0  0  0  0  0
   16.6348   52.8088   83.3092 H   0  0  0  0  0  0  0  0  0  0  0  0
   15.1611   53.8359   83.3092 H   0  0  0  0  0  0  0  0  0  0  0  0
   12.5450   52.7735   83.8783 H   0  0  0  0  0  0  0  0  0  0  0  0
   11.0720   52.1203   85.7733 H   0  0  0  0  0  0  0  0  0  0  0  0
  1  2  1  0
  2  3  2  0
  2  4  1  0
  4  5  1  0
  5  6  1  0
  6  7  1  0
  6  8  1  0
  8  9  1  0
  9 10  1  0
 10 11  2  0
 10 12  1  0
 12 13  1  0
 13 14  1  0
 14 15  1  0
 14 16  1  0
 16 17  1  0
 17 18  1  0
 18 19  2  0
 18 20  1  0
 20 21  1  0
 21 22  1  0
 22 23  2  0
 23 24  1  0
 24 25  2  0
 25 26  1  0
 26 27  1  0
 27 28  1  0
 28 29  2  0
 29 30  1  0
 30 31  1  0
 25 32  1  0
 32 33  2  0
  9  4  1  0
 17 12  1  0
 33 22  1  0
 30 26  2  0
  1 34  1  0
  1 35  1  0
  1 36  1  0
  5 37  1  0
  5 38  1  0
  6 39  1  6
  7 40  1  0
  8 41  1  0
  8 42  1  0
  9 43  1  1
 13 44  1  0
 13 45  1  0
 14 46  1  6
 15 47  1  0
 16 48  1  0
 16 49  1  0
 17 50  1  1
 20 51  1  0
 21 52  1  0
 21 53  1  0
 23 54  1  0
 24 55  1  0
 28 56  1  0
 31 57  1  0
 31 58  1  0
 31 59  1  0
 32 60  1  0
 33 61  1  0
M  END
>  <meeko>  (5) 
{"is_sidechain": [false], "free_energy": -6.962, "intermolecular_energy": -10.683, "internal_energy": -1.324}

$$$$
4w9i_ligand
     RDKit          3D

 61 64  0  0  0  0  0  0  0  0999 V2000
   14.2550   50.3970   94.2760 C   0  0  0  0  0  0  0  0  0  0  0  0
   13.8430   51.3140   93.1560 C   0  0  0  0  0  0  0  0  0  0  0  0
   14.1800   51.0800   91.9960 O   0  0  0  0  0  0  0  0  0  0  0  0
   13.0930   52.4200   93.4860 N   0  0  0  0  0  0  0  0  0  0  0  0
   13.2090   53.0000   94.8190 C   0  0  0  0  0  0  0  0  0  0  0  0
   12.1890   54.1350   94.8510 C   0  0  2  0  0  0  0  0  0  0  0  0
   11.6560   54.3720   96.1410 O   0  0  0  0  0  0  0  0  0  0  0  0
   11.1120   53.6540   93.8860 C   0  0  0  0  0  0  0  0  0  0  0  0
   11.8910   52.8980   92.8030 C   0  0  1  0  0  0  0  0  0  0  0  0
   12.0090   53.7690   91.5230 C   0  0  0  0  0  0  0  0  0  0  0  0
   12.8670   54.6610   91.5090 O   0  0  0  0  0  0  0  0  0  0  0  0
   11.2110   53.5780   90.4150 N   0  0  0  0  0  0  0  0  0  0  0  0
    9.7580   53.6810   90.3160 C   0  0  0  0  0  0  0  0  0  0  0  0
    9.3700   52.6150   89.2920 C   0  0  2  0  0  0  0  0  0  0  0  0
    9.2130   51.3440   89.9240 O   0  0  0  0  0  0  0  0  0  0  0  0
   10.5530   52.5850   88.3420 C   0  0  0  0  0  0  0  0  0  0  0  0
   11.7620   52.8480   89.2510 C   0  0  1  0  0  0  0  0  0  0  0  0
   12.8140   53.6340   88.4460 C   0  0  0  0  0  0  0  0  0  0  0  0
   13.8560   54.0360   88.9590 O   0  0  0  0  0  0  0  0  0  0  0  0
   12.5750   53.6830   87.0910 N   0  0  0  0  0  0  0  0  0  0  0  0
   13.5560   54.1650   86.1490 C   0  0  0  0  0  0  0  0  0  0  0  0
   13.6160   53.2500   84.9530 C   0  0  0  0  0  0  0  0  0  0  0  0
   14.7140   53.2740   84.0840 C   0  0  0  0  0  0  0  0  0  0  0  0
   14.7450   52.4450   82.9590 C   0  0  0  0  0  0  0  0  0  0  0  0
   13.6770   51.5810   82.6780 C   0  0  0  0  0  0  0  0  0  0  0  0
   13.6960   50.7210   81.4960 C   0  0  0  0  0  0  0  0  0  0  0  0
   12.5240   49.4740   81.3140 S   0  0  0  0  0  0  0  0  0  0  0  0
   13.2160   49.0590   79.8060 C   0  0  0  0  0  0  0  0  0  0  0  0
   14.2510   49.7720   79.4260 N   0  0  0  0  0  0  0  0  0  0  0  0
   14.5370   50.7300   80.3900 C   0  0  0  0  0  0  0  0  0  0  0  0
   15.6890   51.6390   80.1490 C   0  0  0  0  0  0  0  0  0  0  0  0
   12.5760   51.5650   83.5430 C   0  0  0  0  0  0  0  0  0  0  0  0
   12.5450   52.3930   84.6670 C   0  0  0  0  0  0  0  0  0  0  0  0
   14.0391   50.8776   95.2416 H   0  0  0  0  0  0  0  0  0  0  0  0
   13.6943   49.4535   94.2025 H   0  0  0  0  0  0  0  0  0  0  0  0
   15.3328   50.1897   94.2025 H   0  0  0  0  0  0  0  0  0  0  0  0
   12.9751   52.2492   95.5882 H   0  0  0  0  0  0  0  0  0  0  0  0
   14.2288   53.3574   95.0248 H   0  0  0  0  0  0  0  0  0  0  0  0
   12.6379   55.1000   94.5729 H   0  0  0  0  0  0  0  0  0  0  0  0
   12.3790   54.6330   96.7380 H   0  0  0  0  0  0  0  0  0  0  0  0
   10.4020   52.9855   94.3949 H   0  0  0  0  0  0  0  0  0  0  0  0
   10.5128   54.4804   93.4760 H   0  0  0  0  0  0  0  0  0  0  0  0
   11.4125   52.0050   92.3746 H   0  0  0  0  0  0  0  0  0  0  0  0
    9.2862   53.4766   91.2884 H   0  0  0  0  0  0  0  0  0  0  0  0
    9.4284   54.6875   90.0187 H   0  0  0  0  0  0  0  0  0  0  0  0
    8.4163   52.8341   88.7895 H   0  0  0  0  0  0  0  0  0  0  0  0
    8.6920   50.7650   89.3430 H   0  0  0  0  0  0  0  0  0  0  0  0
   10.6373   51.6035   87.8525 H   0  0  0  0  0  0  0  0  0  0  0  0
   10.4642   53.3216   87.5299 H   0  0  0  0  0  0  0  0  0  0  0  0
   12.2793   51.9450   89.6074 H   0  0  0  0  0  0  0  0  0  0  0  0
   11.7820   53.1690   86.7380 H   0  0  0  0  0  0  0  0  0  0  0  0
   13.2781   55.1771   85.8197 H   0  0  0  0  0  0  0  0  0  0  0  0
   14.5424   54.1883   86.6354 H   0  0  0  0  0  0  0  0  0  0  0  0
   15.5576   53.9497   84.2881 H   0  0  0  0  0  0  0  0  0  0  0  0
   15.6159   52.4707   82.2875 H   0  0  0  0  0  0  0  0  0  0  0  0
   12.8164   48.2406   79.1891 H   0  0  0  0  0  0  0  0  0  0  0  0
   16.1050   51.9672   81.1130 H   0  0  0  0  0  0  0  0  0  0  0  0
   16.4634   51.1060   79.5779 H   0  0  0  0  0  0  0  0  0  0  0  0
   15.3507   52.5162   79.5779 H   0  0  0  0  0  0  0  0  0  0  0  0
   11.7288   50.8948   83.3355 H   0  0  0  0  0  0  0  0  0  0  0  0
   11.6710   52.3723   85.3346 H   0  0  0  0  0  0  0  0  0  0  0  0
  1  2  1  0
  2  3  2  0
  2  4  1  0
  4  5  1  0
  5  6  1  0
  6  7  1  0
  6  8  1  0
  8  9  1  0
  9 10  1  0
 10 11  2  0
 10 12  1  0
 12 13  1  0
 13 14  1  0
 14 15  1  0
 14 16  1  0
 16 17  1  0
 17 18  1  0
 18 19  2  0
 18 20  1  0
 20 21  1  0
 21 22  1  0
 22 23  2  0
 23 24  1  0
 24 25  2  0
 25 26  1  0
 26 27  1  0
 27 28  1  0
 28 29  2  0
 29 30  1  0
 30 31  1  0
 25 32  1  0
 32 33  2  0
  9  4  1  0
 17 12  1  0
 33 22  1  0
 30 26  2  0
  1 34  1  0
  1 35  1  0
  1 36  1  0
  5 37  1  0
  5 38  1  0
  6 39  1  6
  7 40  1  0
  8 41  1  0
  8 42  1  0
  9 43  1  6
 13 44  1  0
 13 45  1  0
 14 46  1  6
 15 47  1  0
 16 48  1  0
 16 49  1  0
 17 50  1  1
 20 51  1  0
 21 52  1  0
 21 53  1  0
 23 54  1  0
 24 55  1  0
 28 56  1  0
 31 57  1  0
 31 58  1  0
 31 59  1  0
 32 60  1  0
 33 61  1  0
M  END
>  <meeko>  (6) 
{"is_sidechain": [false], "free_energy": -6.875, "intermolecular_energy": -11.59, "internal_energy": -0.29}

$$$$
4w9i_ligand
     RDKit          3D

 61 64  0  0  0  0  0  0  0  0999 V2000
   15.1820   52.8340   83.2490 C   0  0  0  0  0  0  0  0  0  0  0  0
   14.9450   51.6150   82.3980 C   0  0  0  0  0  0  0  0  0  0  0  0
   15.8810   51.0550   81.8290 O   0  0  0  0  0  0  0  0  0  0  0  0
   13.6480   51.1690   82.2770 N   0  0  0  0  0  0  0  0  0  0  0  0
   13.1720   50.6740   80.9910 C   0  0  0  0  0  0  0  0  0  0  0  0
   11.6950   50.3540   81.2090 C   0  0  2  0  0  0  0  0  0  0  0  0
   10.9090   50.5150   80.0420 O   0  0  0  0  0  0  0  0  0  0  0  0
   11.2870   51.3440   82.2940 C   0  0  0  0  0  0  0  0  0  0  0  0
   12.5340   51.4650   83.1780 C   0  0  1  0  0  0  0  0  0  0  0  0
   12.3440   50.6500   84.4850 C   0  0  0  0  0  0  0  0  0  0  0  0
   13.0010   49.6090   84.6180 O   0  0  0  0  0  0  0  0  0  0  0  0
   11.4900   51.0460   85.4930 N   0  0  0  0  0  0  0  0  0  0  0  0
   10.4790   50.2550   86.1870 C   0  0  0  0  0  0  0  0  0  0  0  0
    9.3540   51.2470   86.4800 C   0  0  2  0  0  0  0  0  0  0  0  0
    8.4720   51.3510   85.3630 O   0  0  0  0  0  0  0  0  0  0  0  0
   10.0840   52.5610   86.6950 C   0  0  0  0  0  0  0  0  0  0  0  0
   11.2620   52.4920   85.7130 C   0  0  1  0  0  0  0  0  0  0  0  0
   12.4570   53.2390   86.3350 C   0  0  0  0  0  0  0  0  0  0  0  0
   13.2980   53.8080   85.6420 O   0  0  0  0  0  0  0  0  0  0  0  0
   12.4000   53.3660   87.7040 N   0  0  0  0  0  0  0  0  0  0  0  0
   13.2950   54.2260   88.4400 C   0  0  0  0  0  0  0  0  0  0  0  0
   13.0400   54.0940   89.9190 C   0  0  0  0  0  0  0  0  0  0  0  0
   11.8680   53.4930   90.3960 C   0  0  0  0  0  0  0  0  0  0  0  0
   11.6260   53.4060   91.7700 C   0  0  0  0  0  0  0  0  0  0  0  0
   12.5470   53.9210   92.6930 C   0  0  0  0  0  0  0  0  0  0  0  0
   12.2940   53.8450   94.1310 C   0  0  0  0  0  0  0  0  0  0  0  0
   12.5390   52.3660   94.9750 S   0  0  0  0  0  0  0  0  0  0  0  0
   12.0840   53.1350   96.4330 C   0  0  0  0  0  0  0  0  0  0  0  0
   11.7610   54.4050   96.3420 N   0  0  0  0  0  0  0  0  0  0  0  0
   11.8780   54.8240   95.0240 C   0  0  0  0  0  0  0  0  0  0  0  0
   11.5460   56.2390   94.7100 C   0  0  0  0  0  0  0  0  0  0  0  0
   13.7140   54.5300   92.2140 C   0  0  0  0  0  0  0  0  0  0  0  0
   13.9570   54.6170   90.8410 C   0  0  0  0  0  0  0  0  0  0  0  0
   15.1278   52.5554   84.3118 H   0  0  0  0  0  0  0  0  0  0  0  0
   16.1773   53.2472   83.0285 H   0  0  0  0  0  0  0  0  0  0  0  0
   14.4140   53.5901   83.0285 H   0  0  0  0  0  0  0  0  0  0  0  0
   13.2897   51.4434   80.2137 H   0  0  0  0  0  0  0  0  0  0  0  0
   13.7386   49.7937   80.6532 H   0  0  0  0  0  0  0  0  0  0  0  0
   11.5384   49.3008   81.4852 H   0  0  0  0  0  0  0  0  0  0  0  0
   10.1140   51.0300   80.2660 H   0  0  0  0  0  0  0  0  0  0  0  0
   11.0235   52.3176   81.8551 H   0  0  0  0  0  0  0  0  0  0  0  0
   10.4014   51.0129   82.8563 H   0  0  0  0  0  0  0  0  0  0  0  0
   12.7479   52.4547   83.6078 H   0  0  0  0  0  0  0  0  0  0  0  0
   10.1188   49.4361   85.5470 H   0  0  0  0  0  0  0  0  0  0  0  0
   10.8703   49.7836   87.1006 H   0  0  0  0  0  0  0  0  0  0  0  0
    8.7359   50.9486   87.3396 H   0  0  0  0  0  0  0  0  0  0  0  0
    8.3910   50.4780   84.9420 H   0  0  0  0  0  0  0  0  0  0  0  0
    9.4303   53.4147   86.4631 H   0  0  0  0  0  0  0  0  0  0  0  0
   10.4072   52.7019   87.7370 H   0  0  0  0  0  0  0  0  0  0  0  0
   11.0857   52.9772   84.7416 H   0  0  0  0  0  0  0  0  0  0  0  0
   11.5770   53.0170   88.1710 H   0  0  0  0  0  0  0  0  0  0  0  0
   14.3348   53.9400   88.2231 H   0  0  0  0  0  0  0  0  0  0  0  0
   13.1228   55.2692   88.1366 H   0  0  0  0  0  0  0  0  0  0  0  0
   11.1335   53.0870   89.6849 H   0  0  0  0  0  0  0  0  0  0  0  0
   10.7031   52.9284   92.1308 H   0  0  0  0  0  0  0  0  0  0  0  0
   12.0630   52.5970   97.3922 H   0  0  0  0  0  0  0  0  0  0  0  0
   11.4141   56.8011   95.6463 H   0  0  0  0  0  0  0  0  0  0  0  0
   12.3635   56.6865   94.1257 H   0  0  0  0  0  0  0  0  0  0  0  0
   10.6147   56.2762   94.1257 H   0  0  0  0  0  0  0  0  0  0  0  0
   14.4450   54.9431   92.9247 H   0  0  0  0  0  0  0  0  0  0  0  0
   14.8767   55.1006   90.4801 H   0  0  0  0  0  0  0  0  0  0  0  0
  1  2  1  0
  2  3  2  0
  2  4  1  0
  4  5  1  0
  5  6  1  0
  6  7  1  0
  6  8  1  0
  8  9  1  0
  9 10  1  0
 10 11  2  0
 10 12  1  0
 12 13  1  0
 13 14  1  0
 14 15  1  0
 14 16  1  0
 16 17  1  0
 17 18  1  0
 18 19  2  0
 18 20  1  0
 20 21  1  0
 21 22  1  0
 22 23  2  0
 23 24  1  0
 24 25  2  0
 25 26  1  0
 26 27  1  0
 27 28  1  0
 28 29  2  0
 29 30  1  0
 30 31  1  0
 25 32  1  0
 32 33  2  0
  9  4  1  0
 17 12  1  0
 33 22  1  0
 30 26  2  0
  1 34  1  0
  1 35  1  0
  1 36  1  0
  5 37  1  0
  5 38  1  0
  6 39  1  1
  7 40  1  0
  8 41  1  0
  8 42  1  0
  9 43  1  1
 13 44  1  0
 13 45  1  0
 14 46  1  1
 15 47  1  0
 16 48  1  0
 16 49  1  0
 17 50  1  6
 20 51  1  0
 21 52  1  0
 21 53  1  0
 23 54  1  0
 24 55  1  0
 28 56  1  0
 31 57  1  0
 31 58  1  0
 31 59  1  0
 32 60  1  0
 33 61  1  0
M  END
>  <meeko>  (7) 
{"is_sidechain": [false], "free_energy": -6.844, "intermolecular_energy": -10.497, "internal_energy": -1.336}

$$$$
4w9i_ligand
     RDKit          3D

 61 64  0  0  0  0  0  0  0  0999 V2000
   14.8020   53.4000   83.9180 C   0  0  0  0  0  0  0  0  0  0  0  0
   13.5020   52.9960   84.5600 C   0  0  0  0  0  0  0  0  0  0  0  0
   13.0340   53.6460   85.4940 O   0  0  0  0  0  0  0  0  0  0  0  0
   12.8760   51.8720   84.0690 N   0  0  0  0  0  0  0  0  0  0  0  0
   13.3420   51.2710   82.8250 C   0  0  0  0  0  0  0  0  0  0  0  0
   12.3780   50.1180   82.5540 C   0  0  2  0  0  0  0  0  0  0  0  0
   12.2010   49.8500   81.1750 O   0  0  0  0  0  0  0  0  0  0  0  0
   11.0810   50.5990   83.1950 C   0  0  0  0  0  0  0  0  0  0  0  0
   11.5440   51.3860   84.4280 C   0  0  1  0  0  0  0  0  0  0  0  0
   11.3350   50.5400   85.7120 C   0  0  0  0  0  0  0  0  0  0  0  0
   12.0860   49.5730   85.8950 O   0  0  0  0  0  0  0  0  0  0  0  0
   10.3640   50.8310   86.6470 N   0  0  0  0  0  0  0  0  0  0  0  0
    9.0770   50.1740   86.8520 C   0  0  0  0  0  0  0  0  0  0  0  0
    8.1410   51.2990   87.2940 C   0  0  2  0  0  0  0  0  0  0  0  0
    7.5920   51.9700   86.1590 O   0  0  0  0  0  0  0  0  0  0  0  0
    9.0510   52.2370   88.0670 C   0  0  0  0  0  0  0  0  0  0  0  0
   10.3900   52.1490   87.3220 C   0  0  1  0  0  0  0  0  0  0  0  0
   11.5280   52.3190   88.3450 C   0  0  0  0  0  0  0  0  0  0  0  0
   12.1760   51.3610   88.7600 O   0  0  0  0  0  0  0  0  0  0  0  0
   11.8690   53.6270   88.6060 N   0  0  0  0  0  0  0  0  0  0  0  0
   13.0530   53.9850   89.3480 C   0  0  0  0  0  0  0  0  0  0  0  0
   12.7160   54.1550   90.8070 C   0  0  0  0  0  0  0  0  0  0  0  0
   13.6490   54.6920   91.7030 C   0  0  0  0  0  0  0  0  0  0  0  0
   13.3380   54.8140   93.0610 C   0  0  0  0  0  0  0  0  0  0  0  0
   12.0920   54.3980   93.5490 C   0  0  0  0  0  0  0  0  0  0  0  0
   11.7650   54.5100   94.9700 C   0  0  0  0  0  0  0  0  0  0  0  0
   11.7640   53.1110   95.9710 S   0  0  0  0  0  0  0  0  0  0  0  0
   11.3530   54.0850   97.3140 C   0  0  0  0  0  0  0  0  0  0  0  0
   11.2140   55.3700   97.0780 N   0  0  0  0  0  0  0  0  0  0  0  0
   11.4490   55.6260   95.7340 C   0  0  0  0  0  0  0  0  0  0  0  0
   11.3310   57.0310   95.2620 C   0  0  0  0  0  0  0  0  0  0  0  0
   11.1640   53.8530   92.6530 C   0  0  0  0  0  0  0  0  0  0  0  0
   11.4740   53.7300   91.2970 C   0  0  0  0  0  0  0  0  0  0  0  0
   15.5411   53.6297   84.6996 H   0  0  0  0  0  0  0  0  0  0  0  0
   15.1740   52.5751   83.2926 H   0  0  0  0  0  0  0  0  0  0  0  0
   14.6409   54.2905   83.2926 H   0  0  0  0  0  0  0  0  0  0  0  0
   13.3074   52.0039   82.0054 H   0  0  0  0  0  0  0  0  0  0  0  0
   14.3845   50.9277   82.8985 H   0  0  0  0  0  0  0  0  0  0  0  0
   12.7502   49.1659   82.9603 H   0  0  0  0  0  0  0  0  0  0  0  0
   12.0530   48.8950   81.0550 H   0  0  0  0  0  0  0  0  0  0  0  0
   10.5212   51.2475   82.5050 H   0  0  0  0  0  0  0  0  0  0  0  0
   10.4039   49.7710   83.4517 H   0  0  0  0  0  0  0  0  0  0  0  0
   10.9611   52.2782   84.7004 H   0  0  0  0  0  0  0  0  0  0  0  0
    8.7207   49.7160   85.9175 H   0  0  0  0  0  0  0  0  0  0  0  0
    9.1343   49.3618   87.5916 H   0  0  0  0  0  0  0  0  0  0  0  0
    7.2881   50.9364   87.8866 H   0  0  0  0  0  0  0  0  0  0  0  0
    6.6380   51.7880   86.1160 H   0  0  0  0  0  0  0  0  0  0  0  0
    8.6599   53.2649   88.0489 H   0  0  0  0  0  0  0  0  0  0  0  0
    9.1377   51.9644   89.1292 H   0  0  0  0  0  0  0  0  0  0  0  0
   10.5538   52.9332   86.5683 H   0  0  0  0  0  0  0  0  0  0  0  0
   11.3960   54.3460   88.0800 H   0  0  0  0  0  0  0  0  0  0  0  0
   13.8057   53.1903   89.2383 H   0  0  0  0  0  0  0  0  0  0  0  0
   13.4511   54.9329   88.9568 H   0  0  0  0  0  0  0  0  0  0  0  0
   14.6328   55.0199   91.3362 H   0  0  0  0  0  0  0  0  0  0  0  0
   14.0789   55.2408   93.7530 H   0  0  0  0  0  0  0  0  0  0  0  0
   11.2128   53.6601   98.3189 H   0  0  0  0  0  0  0  0  0  0  0  0
   11.2743   57.7055   96.1291 H   0  0  0  0  0  0  0  0  0  0  0  0
   12.2107   57.2886   94.6539 H   0  0  0  0  0  0  0  0  0  0  0  0
   10.4207   57.1383   94.6539 H   0  0  0  0  0  0  0  0  0  0  0  0
   10.1825   53.5189   93.0205 H   0  0  0  0  0  0  0  0  0  0  0  0
   10.7360   53.2952   90.6068 H   0  0  0  0  0  0  0  0  0  0  0  0
  1  2  1  0
  2  3  2  0
  2  4  1  0
  4  5  1  0
  5  6  1  0
  6  7  1  0
  6  8  1  0
  8  9  1  0
  9 10  1  0
 10 11  2  0
 10 12  1  0
 12 13  1  0
 13 14  1  0
 14 15  1  0
 14 16  1  0
 16 17  1  0
 17 18  1  0
 18 19  2  0
 18 20  1  0
 20 21  1  0
 21 22  1  0
 22 23  2  0
 23 24  1  0
 24 25  2  0
 25 26  1  0
 26 27  1  0
 27 28  1  0
 28 29  2  0
 29 30  1  0
 30 31  1  0
 25 32  1  0
 32 33  2  0
  9  4  1  0
 17 12  1  0
 33 22  1  0
 30 26  2  0
  1 34  1  0
  1 35  1  0
  1 36  1  0
  5 37  1  0
  5 38  1  0
  6 39  1  1
  7 40  1  0
  8 41  1  0
  8 42  1  0
  9 43  1  1
 13 44  1  0
 13 45  1  0
 14 46  1  1
 15 47  1  0
 16 48  1  0
 16 49  1  0
 17 50  1  6
 20 51  1  0
 21 52  1  0
 21 53  1  0
 23 54  1  0
 24 55  1  0
 28 56  1  0
 31 57  1  0
 31 58  1  0
 31 59  1  0
 32 60  1  0
 33 61  1  0
M  END
>  <meeko>  (8) 
{"is_sidechain": [false], "free_energy": -6.564, "intermolecular_energy": -10.069, "internal_energy": -1.353}

$$$$
4w9i_ligand
     RDKit          3D

 61 64  0  0  0  0  0  0  0  0999 V2000
   12.1760   55.2630   94.3100 C   0  0  0  0  0  0  0  0  0  0  0  0
   12.8110   54.0340   93.7170 C   0  0  0  0  0  0  0  0  0  0  0  0
   13.3020   53.1690   94.4420 O   0  0  0  0  0  0  0  0  0  0  0  0
   12.8300   53.9290   92.3450 N   0  0  0  0  0  0  0  0  0  0  0  0
   14.0520   54.2410   91.6130 C   0  0  0  0  0  0  0  0  0  0  0  0
   13.6810   54.0990   90.1390 C   0  0  2  0  0  0  0  0  0  0  0  0
   14.4240   54.9560   89.2900 O   0  0  0  0  0  0  0  0  0  0  0  0
   12.1980   54.4530   90.1230 C   0  0  0  0  0  0  0  0  0  0  0  0
   11.6700   53.9030   91.4540 C   0  0  1  0  0  0  0  0  0  0  0  0
   10.8920   52.5820   91.2150 C   0  0  0  0  0  0  0  0  0  0  0  0
    9.7500   52.6610   90.7450 O   0  0  0  0  0  0  0  0  0  0  0  0
   11.4270   51.3410   91.4910 N   0  0  0  0  0  0  0  0  0  0  0  0
   11.5480   50.6740   92.7850 C   0  0  0  0  0  0  0  0  0  0  0  0
   12.8540   49.8860   92.6860 C   0  0  2  0  0  0  0  0  0  0  0  0
   13.9660   50.7110   93.0330 O   0  0  0  0  0  0  0  0  0  0  0  0
   12.9260   49.4990   91.2200 C   0  0  0  0  0  0  0  0  0  0  0  0
   12.3090   50.7000   90.4900 C   0  0  1  0  0  0  0  0  0  0  0  0
   11.5800   50.1850   89.2350 C   0  0  0  0  0  0  0  0  0  0  0  0
   11.0270   49.0870   89.2110 O   0  0  0  0  0  0  0  0  0  0  0  0
   11.4460   51.1160   88.2300 N   0  0  0  0  0  0  0  0  0  0  0  0
   10.5980   50.9010   87.0830 C   0  0  0  0  0  0  0  0  0  0  0  0
   11.4190   50.9380   85.8200 C   0  0  0  0  0  0  0  0  0  0  0  0
   12.0200   49.7760   85.3190 C   0  0  0  0  0  0  0  0  0  0  0  0
   12.8070   49.8280   84.1640 C   0  0  0  0  0  0  0  0  0  0  0  0
   13.0130   51.0410   83.4930 C   0  0  0  0  0  0  0  0  0  0  0  0
   13.8450   51.1040   82.2930 C   0  0  0  0  0  0  0  0  0  0  0  0
   13.3560   50.2920   80.8570 S   0  0  0  0  0  0  0  0  0  0  0  0
   14.7530   50.8780   80.0630 C   0  0  0  0  0  0  0  0  0  0  0  0
   15.5560   51.6290   80.7810 N   0  0  0  0  0  0  0  0  0  0  0  0
   15.0450   51.7660   82.0640 C   0  0  0  0  0  0  0  0  0  0  0  0
   15.8200   52.5780   83.0400 C   0  0  0  0  0  0  0  0  0  0  0  0
   12.4190   52.2030   84.0010 C   0  0  0  0  0  0  0  0  0  0  0  0
   11.6320   52.1520   85.1540 C   0  0  0  0  0  0  0  0  0  0  0  0
   12.2089   55.1994   95.4077 H   0  0  0  0  0  0  0  0  0  0  0  0
   12.7255   56.1562   93.9779 H   0  0  0  0  0  0  0  0  0  0  0  0
   11.1296   55.3316   93.9779 H   0  0  0  0  0  0  0  0  0  0  0  0
   14.3811   55.2677   91.8310 H   0  0  0  0  0  0  0  0  0  0  0  0
   14.8818   53.5761   91.8946 H   0  0  0  0  0  0  0  0  0  0  0  0
   13.9030   53.0928   89.7540 H   0  0  0  0  0  0  0  0  0  0  0  0
   13.9930   55.8280   89.2670 H   0  0  0  0  0  0  0  0  0  0  0  0
   12.0568   55.5424   90.0667 H   0  0  0  0  0  0  0  0  0  0  0  0
   11.6721   54.0326   89.2531 H   0  0  0  0  0  0  0  0  0  0  0  0
   10.8882   54.4872   91.9615 H   0  0  0  0  0  0  0  0  0  0  0  0
   11.5991   51.4113   93.5997 H   0  0  0  0  0  0  0  0  0  0  0  0
   10.6849   50.0290   93.0065 H   0  0  0  0  0  0  0  0  0  0  0  0
   12.8829   49.0209   93.3648 H   0  0  0  0  0  0  0  0  0  0  0  0
   14.5540   50.2150   93.6280 H   0  0  0  0  0  0  0  0  0  0  0  0
   13.9691   49.3445   90.9069 H   0  0  0  0  0  0  0  0  0  0  0  0
   12.4017   48.5564   91.0040 H   0  0  0  0  0  0  0  0  0  0  0  0
   13.0335   51.4424   90.1241 H   0  0  0  0  0  0  0  0  0  0  0  0
   11.7790   52.0510   88.4140 H   0  0  0  0  0  0  0  0  0  0  0  0
   10.1088   49.9197   87.1707 H   0  0  0  0  0  0  0  0  0  0  0  0
    9.8378   51.6950   87.0425 H   0  0  0  0  0  0  0  0  0  0  0  0
   11.8721   48.8170   85.8371 H   0  0  0  0  0  0  0  0  0  0  0  0
   13.2691   48.9073   83.7783 H   0  0  0  0  0  0  0  0  0  0  0  0
   14.9667   50.6393   79.0107 H   0  0  0  0  0  0  0  0  0  0  0  0
   15.5412   52.2859   84.0632 H   0  0  0  0  0  0  0  0  0  0  0  0
   16.8957   52.4042   82.8893 H   0  0  0  0  0  0  0  0  0  0  0  0
   15.5962   53.6444   82.8893 H   0  0  0  0  0  0  0  0  0  0  0  0
   12.5734   53.1637   83.4879 H   0  0  0  0  0  0  0  0  0  0  0  0
   11.1751   53.0740   85.5428 H   0  0  0  0  0  0  0  0  0  0  0  0
  1  2  1  0
  2  3  2  0
  2  4  1  0
  4  5  1  0
  5  6  1  0
  6  7  1  0
  6  8  1  0
  8  9  1  0
  9 10  1  0
 10 11  2  0
 10 12  1  0
 12 13  1  0
 13 14  1  0
 14 15  1  0
 14 16  1  0
 16 17  1  0
 17 18  1  0
 18 19  2  0
 18 20  1  0
 20 21  1  0
 21 22  1  0
 22 23  2  0
 23 24  1  0
 24 25  2  0
 25 26  1  0
 26 27  1  0
 27 28  1  0
 28 29  2  0
 29 30  1  0
 30 31  1  0
 25 32  1  0
 32 33  2  0
  9  4  1  0
 17 12  1  0
 33 22  1  0
 30 26  2  0
  1 34  1  0
  1 35  1  0
  1 36  1  0
  5 37  1  0
  5 38  1  0
  6 39  1  6
  7 40  1  0
  8 41  1  0
  8 42  1  0
  9 43  1  1
 13 44  1  0
 13 45  1  0
 14 46  1  1
 15 47  1  0
 16 48  1  0
 16 49  1  0
 17 50  1  6
 20 51  1  0
 21 52  1  0
 21 53  1  0
 23 54  1  0
 24 55  1  0
 28 56  1  0
 31 57  1  0
 31 58  1  0
 31 59  1  0
 32 60  1  0
 33 61  1  0
M  END
>  <meeko>  (9) 
{"is_sidechain": [false], "free_energy": -6.431, "intermolecular_energy": -9.308, "internal_energy": -1.919}

$$$$
