2zcq_ligand
     RDKit          3D

 42 43  0  0  0  0  0  0  0  0999 V2000
   22.7490   51.1420   33.4110 O   0  0  0  0  0  0  0  0  0  0  0  0
   21.4730   50.6980   34.1090 P   0  0  1  0  0  5  0  0  0  0  0  0
   20.1690   50.8140   33.3590 O   0  0  0  0  0  0  0  0  0  0  0  0
   21.6940   49.1300   34.4690 O   0  0  0  0  0  0  0  0  0  0  0  0
   21.4700   51.5190   35.7050 C   0  0  1  0  0  0  0  0  0  0  0  0
   20.2090   51.3920   36.5710 C   0  0  0  0  0  0  0  0  0  0  0  0
   19.1830   52.5280   36.5130 C   0  0  0  0  0  0  0  0  0  0  0  0
   19.4380   53.6930   37.4710 C   0  0  0  0  0  0  0  0  0  0  0  0
   18.5290   54.8580   37.1440 C   0  0  0  0  0  0  0  0  0  0  0  0
   18.9780   55.9350   36.3660 C   0  0  0  0  0  0  0  0  0  0  0  0
   18.1030   56.9660   36.0140 C   0  0  0  0  0  0  0  0  0  0  0  0
   16.7700   56.9200   36.4220 C   0  0  0  0  0  0  0  0  0  0  0  0
   16.3180   55.8400   37.1820 C   0  0  0  0  0  0  0  0  0  0  0  0
   15.0080   55.8070   37.6010 O   0  0  0  0  0  0  0  0  0  0  0  0
   14.7730   56.4230   38.8120 C   0  0  0  0  0  0  0  0  0  0  0  0
   14.8440   55.6320   39.9600 C   0  0  0  0  0  0  0  0  0  0  0  0
   14.5820   56.1940   41.2110 C   0  0  0  0  0  0  0  0  0  0  0  0
   14.2340   57.5420   41.3110 C   0  0  0  0  0  0  0  0  0  0  0  0
   14.1390   58.3250   40.1590 C   0  0  0  0  0  0  0  0  0  0  0  0
   14.4020   57.7650   38.9080 C   0  0  0  0  0  0  0  0  0  0  0  0
   17.1940   54.8280   37.5670 C   0  0  0  0  0  0  0  0  0  0  0  0
   22.9810   51.2750   36.5900 S   0  0  0  0  0  0  0  0  0  0  0  0
   23.6040   52.5980   36.7070 O   0  0  0  0  0  0  0  0  0  0  0  0
   23.7680   50.2900   35.8550 O   0  0  0  0  0  0  0  0  0  0  0  0
   22.5170   50.7610   37.8870 O   0  0  0  0  0  0  0  0  0  0  0  0
   20.8330   48.6530   34.3170 H   0  0  0  0  0  0  0  0  0  0  0  0
   21.4154   52.5826   35.4298 H   0  0  0  0  0  0  0  0  0  0  0  0
   19.6937   50.4692   36.2662 H   0  0  0  0  0  0  0  0  0  0  0  0
   20.5818   51.4092   37.6058 H   0  0  0  0  0  0  0  0  0  0  0  0
   19.1763   52.9270   35.4879 H   0  0  0  0  0  0  0  0  0  0  0  0
   18.2243   52.0861   36.8222 H   0  0  0  0  0  0  0  0  0  0  0  0
   19.2455   53.3622   38.5023 H   0  0  0  0  0  0  0  0  0  0  0  0
   20.4837   54.0176   37.3654 H   0  0  0  0  0  0  0  0  0  0  0  0
   20.0252   55.9683   36.0309 H   0  0  0  0  0  0  0  0  0  0  0  0
   18.4656   57.8143   35.4149 H   0  0  0  0  0  0  0  0  0  0  0  0
   16.0789   57.7302   36.1464 H   0  0  0  0  0  0  0  0  0  0  0  0
   15.1062   54.5668   39.8791 H   0  0  0  0  0  0  0  0  0  0  0  0
   14.6498   55.5746   42.1175 H   0  0  0  0  0  0  0  0  0  0  0  0
   14.0347   57.9872   42.2969 H   0  0  0  0  0  0  0  0  0  0  0  0
   13.8564   59.3852   40.2375 H   0  0  0  0  0  0  0  0  0  0  0  0
   14.3171   58.3799   37.9998 H   0  0  0  0  0  0  0  0  0  0  0  0
   16.8373   54.0048   38.2035 H   0  0  0  0  0  0  0  0  0  0  0  0
  1  2  2  0
  2  3  1  6
  2  4  1  0
  2  5  1  0
  5  6  1  0
  6  7  1  0
  7  8  1  0
  8  9  1  0
  9 10  2  0
 10 11  1  0
 11 12  2  0
 12 13  1  0
 13 14  1  0
 14 15  1  0
 15 16  2  0
 16 17  1  0
 17 18  2  0
 18 19  1  0
 19 20  2  0
 13 21  2  0
  5 22  1  0
 22 23  2  0
 22 24  2  0
 22 25  1  0
 21  9  1  0
 20 15  1  0
  4 26  1  0
  5 27  1  6
  6 28  1  0
  6 29  1  0
  7 30  1  0
  7 31  1  0
  8 32  1  0
  8 33  1  0
 10 34  1  0
 11 35  1  0
 12 36  1  0
 16 37  1  0
 17 38  1  0
 18 39  1  0
 19 40  1  0
 20 41  1  0
 21 42  1  0
M  CHG  2   3  -1  25  -1
M  END
>  <meeko>  (1) 
{"is_sidechain": [false], "free_energy": -9.68, "intermolecular_energy": -14.49, "internal_energy": -0.664}

$$$$
2zcq_ligand
     RDKit          3D

 42 43  0  0  0  0  0  0  0  0999 V2000
   15.5030   49.3760   37.7300 O   0  0  0  0  0  0  0  0  0  0  0  0
   16.4820   50.2260   36.9340 P   0  0  1  0  0  5  0  0  0  0  0  0
   16.9800   49.6960   35.6130 O   0  0  0  0  0  0  0  0  0  0  0  0
   15.7120   51.6260   36.6430 O   0  0  0  0  0  0  0  0  0  0  0  0
   17.7920   50.6740   38.0780 C   0  0  1  0  0  0  0  0  0  0  0  0
   19.0510   51.3330   37.4980 C   0  0  0  0  0  0  0  0  0  0  0  0
   18.8650   52.4280   36.4430 C   0  0  0  0  0  0  0  0  0  0  0  0
   19.6080   53.7370   36.7170 C   0  0  0  0  0  0  0  0  0  0  0  0
   18.6430   54.9020   36.7270 C   0  0  0  0  0  0  0  0  0  0  0  0
   19.0030   56.1490   36.1980 C   0  0  0  0  0  0  0  0  0  0  0  0
   18.0740   57.1920   36.1500 C   0  0  0  0  0  0  0  0  0  0  0  0
   16.7750   56.9920   36.6160 C   0  0  0  0  0  0  0  0  0  0  0  0
   16.4100   55.7450   37.1280 C   0  0  0  0  0  0  0  0  0  0  0  0
   15.1340   55.5550   37.6060 O   0  0  0  0  0  0  0  0  0  0  0  0
   14.8630   56.1930   38.7980 C   0  0  0  0  0  0  0  0  0  0  0  0
   15.0920   55.4790   39.9750 C   0  0  0  0  0  0  0  0  0  0  0  0
   14.8030   56.0620   41.2110 C   0  0  0  0  0  0  0  0  0  0  0  0
   14.2710   57.3510   41.2660 C   0  0  0  0  0  0  0  0  0  0  0  0
   14.0190   58.0540   40.0860 C   0  0  0  0  0  0  0  0  0  0  0  0
   14.3080   57.4730   38.8510 C   0  0  0  0  0  0  0  0  0  0  0  0
   17.3420   54.7130   37.2120 C   0  0  0  0  0  0  0  0  0  0  0  0
   17.1720   51.4590   39.5360 S   0  0  0  0  0  0  0  0  0  0  0  0
   17.0810   50.4090   40.5570 O   0  0  0  0  0  0  0  0  0  0  0  0
   15.9030   52.0910   39.1900 O   0  0  0  0  0  0  0  0  0  0  0  0
   18.2190   52.4450   39.8430 O   0  0  0  0  0  0  0  0  0  0  0  0
   14.8880   51.4240   36.1230 H   0  0  0  0  0  0  0  0  0  0  0  0
   18.1990   49.6965   38.3761 H   0  0  0  0  0  0  0  0  0  0  0  0
   19.6046   51.7779   38.3380 H   0  0  0  0  0  0  0  0  0  0  0  0
   19.5671   50.5209   36.9650 H   0  0  0  0  0  0  0  0  0  0  0  0
   19.2174   52.0333   35.4786 H   0  0  0  0  0  0  0  0  0  0  0  0
   17.7942   52.6797   36.4533 H   0  0  0  0  0  0  0  0  0  0  0  0
   20.1071   53.6720   37.6951 H   0  0  0  0  0  0  0  0  0  0  0  0
   20.3510   53.8974   35.9219 H   0  0  0  0  0  0  0  0  0  0  0  0
   20.0231   56.3077   35.8182 H   0  0  0  0  0  0  0  0  0  0  0  0
   18.3677   58.1714   35.7443 H   0  0  0  0  0  0  0  0  0  0  0  0
   16.0422   57.8116   36.5805 H   0  0  0  0  0  0  0  0  0  0  0  0
   15.4996   54.4583   39.9294 H   0  0  0  0  0  0  0  0  0  0  0  0
   14.9946   55.5055   42.1403 H   0  0  0  0  0  0  0  0  0  0  0  0
   14.0501   57.8135   42.2393 H   0  0  0  0  0  0  0  0  0  0  0  0
   13.5922   59.0669   40.1303 H   0  0  0  0  0  0  0  0  0  0  0  0
   14.0991   58.0222   37.9211 H   0  0  0  0  0  0  0  0  0  0  0  0
   17.0565   53.7494   37.6592 H   0  0  0  0  0  0  0  0  0  0  0  0
  1  2  2  0
  2  3  1  6
  2  4  1  0
  2  5  1  0
  5  6  1  0
  6  7  1  0
  7  8  1  0
  8  9  1  0
  9 10  2  0
 10 11  1  0
 11 12  2  0
 12 13  1  0
 13 14  1  0
 14 15  1  0
 15 16  2  0
 16 17  1  0
 17 18  2  0
 18 19  1  0
 19 20  2  0
 13 21  2  0
  5 22  1  0
 22 23  2  0
 22 24  2  0
 22 25  1  0
 21  9  1  0
 20 15  1  0
  4 26  1  0
  5 27  1  1
  6 28  1  0
  6 29  1  0
  7 30  1  0
  7 31  1  0
  8 32  1  0
  8 33  1  0
 10 34  1  0
 11 35  1  0
 12 36  1  0
 16 37  1  0
 17 38  1  0
 18 39  1  0
 19 40  1  0
 20 41  1  0
 21 42  1  0
M  CHG  2   3  -1  25  -1
M  END
>  <meeko>  (2) 
{"is_sidechain": [false], "free_energy": -9.459, "intermolecular_energy": -13.581, "internal_energy": -1.243}

$$$$
2zcq_ligand
     RDKit          3D

 42 43  0  0  0  0  0  0  0  0999 V2000
   16.4190   49.6000   37.8020 O   0  0  0  0  0  0  0  0  0  0  0  0
   17.1640   50.5340   38.7420 P   0  0  1  0  0  5  0  0  0  0  0  0
   17.1790   50.2060   40.2140 O   0  0  0  0  0  0  0  0  0  0  0  0
   18.7040   50.5390   38.2250 O   0  0  0  0  0  0  0  0  0  0  0  0
   16.5700   52.1870   38.3720 C   0  0  1  0  0  0  0  0  0  0  0  0
   15.1580   52.5610   38.8470 C   0  0  0  0  0  0  0  0  0  0  0  0
   14.9170   52.6750   40.3560 C   0  0  0  0  0  0  0  0  0  0  0  0
   13.5070   53.1060   40.7640 C   0  0  0  0  0  0  0  0  0  0  0  0
   13.4870   54.5730   41.1360 C   0  0  0  0  0  0  0  0  0  0  0  0
   12.9340   55.0080   42.3480 C   0  0  0  0  0  0  0  0  0  0  0  0
   12.9900   56.3580   42.7060 C   0  0  0  0  0  0  0  0  0  0  0  0
   13.6130   57.2780   41.8650 C   0  0  0  0  0  0  0  0  0  0  0  0
   14.1800   56.8430   40.6650 C   0  0  0  0  0  0  0  0  0  0  0  0
   14.7770   57.7560   39.8260 O   0  0  0  0  0  0  0  0  0  0  0  0
   14.4700   57.6000   38.4910 C   0  0  0  0  0  0  0  0  0  0  0  0
   13.1200   57.5650   38.1410 C   0  0  0  0  0  0  0  0  0  0  0  0
   12.7490   57.3740   36.8090 C   0  0  0  0  0  0  0  0  0  0  0  0
   13.7300   57.2020   35.8310 C   0  0  0  0  0  0  0  0  0  0  0  0
   15.0800   57.2120   36.1860 C   0  0  0  0  0  0  0  0  0  0  0  0
   15.4520   57.4040   37.5180 C   0  0  0  0  0  0  0  0  0  0  0  0
   14.0950   55.5060   40.2850 C   0  0  0  0  0  0  0  0  0  0  0  0
   17.7900   53.4270   38.6890 S   0  0  0  0  0  0  0  0  0  0  0  0
   18.4910   53.0080   39.9080 O   0  0  0  0  0  0  0  0  0  0  0  0
   17.0990   54.7090   38.7880 O   0  0  0  0  0  0  0  0  0  0  0  0
   18.6480   53.3490   37.4980 O   0  0  0  0  0  0  0  0  0  0  0  0
   19.0190   51.4830   38.2030 H   0  0  0  0  0  0  0  0  0  0  0  0
   16.4109   52.1496   37.2842 H   0  0  0  0  0  0  0  0  0  0  0  0
   14.9094   53.5352   38.4008 H   0  0  0  0  0  0  0  0  0  0  0  0
   14.5272   51.7177   38.5294 H   0  0  0  0  0  0  0  0  0  0  0  0
   15.1150   51.6913   40.8067 H   0  0  0  0  0  0  0  0  0  0  0  0
   15.5914   53.4678   40.7119 H   0  0  0  0  0  0  0  0  0  0  0  0
   12.8192   52.9367   39.9224 H   0  0  0  0  0  0  0  0  0  0  0  0
   13.1928   52.5139   41.6362 H   0  0  0  0  0  0  0  0  0  0  0  0
   12.4532   54.2831   43.0213 H   0  0  0  0  0  0  0  0  0  0  0  0
   12.5418   56.6945   43.6525 H   0  0  0  0  0  0  0  0  0  0  0  0
   13.6580   58.3409   42.1447 H   0  0  0  0  0  0  0  0  0  0  0  0
   12.3479   57.6879   38.9148 H   0  0  0  0  0  0  0  0  0  0  0  0
   11.6850   57.3590   36.5304 H   0  0  0  0  0  0  0  0  0  0  0  0
   13.4391   57.0585   34.7799 H   0  0  0  0  0  0  0  0  0  0  0  0
   15.8517   57.0684   35.4154 H   0  0  0  0  0  0  0  0  0  0  0  0
   16.5153   57.4009   37.7999 H   0  0  0  0  0  0  0  0  0  0  0  0
   14.5050   55.1822   39.3170 H   0  0  0  0  0  0  0  0  0  0  0  0
  1  2  2  0
  2  3  1  1
  2  4  1  0
  2  5  1  0
  5  6  1  0
  6  7  1  0
  7  8  1  0
  8  9  1  0
  9 10  2  0
 10 11  1  0
 11 12  2  0
 12 13  1  0
 13 14  1  0
 14 15  1  0
 15 16  2  0
 16 17  1  0
 17 18  2  0
 18 19  1  0
 19 20  2  0
 13 21  2  0
  5 22  1  0
 22 23  2  0
 22 24  2  0
 22 25  1  0
 21  9  1  0
 20 15  1  0
  4 26  1  0
  5 27  1  6
  6 28  1  0
  6 29  1  0
  7 30  1  0
  7 31  1  0
  8 32  1  0
  8 33  1  0
 10 34  1  0
 11 35  1  0
 12 36  1  0
 16 37  1  0
 17 38  1  0
 18 39  1  0
 19 40  1  0
 20 41  1  0
 21 42  1  0
M  CHG  2   3  -1  25  -1
M  END
>  <meeko>  (3) 
{"is_sidechain": [false], "free_energy": -9.378, "intermolecular_energy": -13.563, "internal_energy": -1.139}

$$$$
2zcq_ligand
     RDKit          3D

 42 43  0  0  0  0  0  0  0  0999 V2000
   18.9970   54.0440   39.7590 O   0  0  0  0  0  0  0  0  0  0  0  0
   19.8460   54.1860   38.5060 P   0  0  1  0  0  5  0  0  0  0  0  0
   21.0370   55.1110   38.5490 O   0  0  0  0  0  0  0  0  0  0  0  0
   20.3960   52.6940   38.1770 O   0  0  0  0  0  0  0  0  0  0  0  0
   18.7010   54.5380   37.1690 C   0  0  1  0  0  0  0  0  0  0  0  0
   19.0460   55.6930   36.2190 C   0  0  0  0  0  0  0  0  0  0  0  0
   18.1730   56.9520   36.2750 C   0  0  0  0  0  0  0  0  0  0  0  0
   16.8310   56.8530   35.5480 C   0  0  0  0  0  0  0  0  0  0  0  0
   15.6870   57.0710   36.5140 C   0  0  0  0  0  0  0  0  0  0  0  0
   14.4350   57.5180   36.0690 C   0  0  0  0  0  0  0  0  0  0  0  0
   13.3700   57.6440   36.9650 C   0  0  0  0  0  0  0  0  0  0  0  0
   13.5440   57.3080   38.3080 C   0  0  0  0  0  0  0  0  0  0  0  0
   14.7860   56.8470   38.7480 C   0  0  0  0  0  0  0  0  0  0  0  0
   14.9610   56.5370   40.0780 O   0  0  0  0  0  0  0  0  0  0  0  0
   14.3230   55.3870   40.4910 C   0  0  0  0  0  0  0  0  0  0  0  0
   14.7750   54.1760   39.9650 C   0  0  0  0  0  0  0  0  0  0  0  0
   14.1440   52.9820   40.3210 C   0  0  0  0  0  0  0  0  0  0  0  0
   13.0520   53.0040   41.1900 C   0  0  0  0  0  0  0  0  0  0  0  0
   12.5860   54.2190   41.6960 C   0  0  0  0  0  0  0  0  0  0  0  0
   13.2160   55.4120   41.3420 C   0  0  0  0  0  0  0  0  0  0  0  0
   15.8610   56.7550   37.8680 C   0  0  0  0  0  0  0  0  0  0  0  0
   18.1510   53.0700   36.3500 S   0  0  0  0  0  0  0  0  0  0  0  0
   19.3360   52.4910   35.7100 O   0  0  0  0  0  0  0  0  0  0  0  0
   17.0820   53.4520   35.4320 O   0  0  0  0  0  0  0  0  0  0  0  0
   17.6590   52.2440   37.4630 O   0  0  0  0  0  0  0  0  0  0  0  0
   20.2080   52.4990   37.2190 H   0  0  0  0  0  0  0  0  0  0  0  0
   17.8366   54.9666   37.6974 H   0  0  0  0  0  0  0  0  0  0  0  0
   20.0791   56.0005   36.4386 H   0  0  0  0  0  0  0  0  0  0  0  0
   18.8754   55.2832   35.2126 H   0  0  0  0  0  0  0  0  0  0  0  0
   17.9703   57.1776   37.3324 H   0  0  0  0  0  0  0  0  0  0  0  0
   18.7413   57.7380   35.7562 H   0  0  0  0  0  0  0  0  0  0  0  0
   16.7894   57.6185   34.7592 H   0  0  0  0  0  0  0  0  0  0  0  0
   16.7383   55.8491   35.1079 H   0  0  0  0  0  0  0  0  0  0  0  0
   14.2901   57.7710   35.0084 H   0  0  0  0  0  0  0  0  0  0  0  0
   12.3941   58.0082   36.6114 H   0  0  0  0  0  0  0  0  0  0  0  0
   12.7076   57.4058   39.0157 H   0  0  0  0  0  0  0  0  0  0  0  0
   15.6278   54.1619   39.2704 H   0  0  0  0  0  0  0  0  0  0  0  0
   14.5072   52.0255   39.9170 H   0  0  0  0  0  0  0  0  0  0  0  0
   12.5583   52.0637   41.4764 H   0  0  0  0  0  0  0  0  0  0  0  0
   11.7207   54.2354   42.3749 H   0  0  0  0  0  0  0  0  0  0  0  0
   12.8419   56.3700   41.7321 H   0  0  0  0  0  0  0  0  0  0  0  0
   16.8469   56.4343   38.2357 H   0  0  0  0  0  0  0  0  0  0  0  0
  1  2  2  0
  2  3  1  1
  2  4  1  0
  2  5  1  0
  5  6  1  0
  6  7  1  0
  7  8  1  0
  8  9  1  0
  9 10  2  0
 10 11  1  0
 11 12  2  0
 12 13  1  0
 13 14  1  0
 14 15  1  0
 15 16  2  0
 16 17  1  0
 17 18  2  0
 18 19  1  0
 19 20  2  0
 13 21  2  0
  5 22  1  0
 22 23  2  0
 22 24  2  0
 22 25  1  0
 21  9  1  0
 20 15  1  0
  4 26  1  0
  5 27  1  1
  6 28  1  0
  6 29  1  0
  7 30  1  0
  7 31  1  0
  8 32  1  0
  8 33  1  0
 10 34  1  0
 11 35  1  0
 12 36  1  0
 16 37  1  0
 17 38  1  0
 18 39  1  0
 19 40  1  0
 20 41  1  0
 21 42  1  0
M  CHG  2   3  -1  25  -1
M  END
>  <meeko>  (4) 
{"is_sidechain": [false], "free_energy": -9.376, "intermolecular_energy": -13.094, "internal_energy": -1.605}

$$$$
2zcq_ligand
     RDKit          3D

 42 43  0  0  0  0  0  0  0  0999 V2000
   18.3180   53.6440   37.2660 O   0  0  0  0  0  0  0  0  0  0  0  0
   16.9450   53.0300   37.0380 P   0  0  1  0  0  5  0  0  0  0  0  0
   15.8530   53.9060   36.4780 O   0  0  0  0  0  0  0  0  0  0  0  0
   17.1800   51.8100   35.9920 O   0  0  0  0  0  0  0  0  0  0  0  0
   16.5060   52.2140   38.5750 C   0  0  1  0  0  0  0  0  0  0  0  0
   15.0490   52.3160   39.0470 C   0  0  0  0  0  0  0  0  0  0  0  0
   14.7950   52.6160   40.5280 C   0  0  0  0  0  0  0  0  0  0  0  0
   13.3830   53.0980   40.8670 C   0  0  0  0  0  0  0  0  0  0  0  0
   13.3980   54.5680   41.2290 C   0  0  0  0  0  0  0  0  0  0  0  0
   12.8330   55.0280   42.4270 C   0  0  0  0  0  0  0  0  0  0  0  0
   12.9200   56.3780   42.7770 C   0  0  0  0  0  0  0  0  0  0  0  0
   13.5850   57.2740   41.9420 C   0  0  0  0  0  0  0  0  0  0  0  0
   14.1620   56.8150   40.7570 C   0  0  0  0  0  0  0  0  0  0  0  0
   14.8010   57.7040   39.9230 O   0  0  0  0  0  0  0  0  0  0  0  0
   14.4510   57.6020   38.5930 C   0  0  0  0  0  0  0  0  0  0  0  0
   13.0900   57.6030   38.2840 C   0  0  0  0  0  0  0  0  0  0  0  0
   12.6760   57.4680   36.9570 C   0  0  0  0  0  0  0  0  0  0  0  0
   13.6240   57.3150   35.9440 C   0  0  0  0  0  0  0  0  0  0  0  0
   14.9840   57.2890   36.2580 C   0  0  0  0  0  0  0  0  0  0  0  0
   15.3990   57.4250   37.5830 C   0  0  0  0  0  0  0  0  0  0  0  0
   14.0470   55.4770   40.3840 C   0  0  0  0  0  0  0  0  0  0  0  0
   17.1900   50.5870   38.6930 S   0  0  0  0  0  0  0  0  0  0  0  0
   18.5470   50.6740   38.1410 O   0  0  0  0  0  0  0  0  0  0  0  0
   16.2950   49.6810   37.9800 O   0  0  0  0  0  0  0  0  0  0  0  0
   17.1920   50.3410   40.1420 O   0  0  0  0  0  0  0  0  0  0  0  0
   16.4320   51.8170   35.3350 H   0  0  0  0  0  0  0  0  0  0  0  0
   17.0043   52.8389   39.3308 H   0  0  0  0  0  0  0  0  0  0  0  0
   14.5709   53.1168   38.4638 H   0  0  0  0  0  0  0  0  0  0  0  0
   14.6384   51.3068   38.8954 H   0  0  0  0  0  0  0  0  0  0  0  0
   14.9853   51.6949   41.0984 H   0  0  0  0  0  0  0  0  0  0  0  0
   15.4692   53.4449   40.7894 H   0  0  0  0  0  0  0  0  0  0  0  0
   12.7295   52.9464   39.9952 H   0  0  0  0  0  0  0  0  0  0  0  0
   13.0074   52.5234   41.7265 H   0  0  0  0  0  0  0  0  0  0  0  0
   12.3182   54.3220   43.0952 H   0  0  0  0  0  0  0  0  0  0  0  0
   12.4633   56.7338   43.7123 H   0  0  0  0  0  0  0  0  0  0  0  0
   13.6547   58.3372   42.2154 H   0  0  0  0  0  0  0  0  0  0  0  0
   12.3438   57.7101   39.0851 H   0  0  0  0  0  0  0  0  0  0  0  0
   11.6041   57.4822   36.7104 H   0  0  0  0  0  0  0  0  0  0  0  0
   13.2993   57.2149   34.8978 H   0  0  0  0  0  0  0  0  0  0  0  0
   15.7296   57.1611   35.4594 H   0  0  0  0  0  0  0  0  0  0  0  0
   16.4701   57.3929   37.8315 H   0  0  0  0  0  0  0  0  0  0  0  0
   14.4659   55.1350   39.4261 H   0  0  0  0  0  0  0  0  0  0  0  0
  1  2  2  0
  2  3  1  6
  2  4  1  0
  2  5  1  0
  5  6  1  0
  6  7  1  0
  7  8  1  0
  8  9  1  0
  9 10  2  0
 10 11  1  0
 11 12  2  0
 12 13  1  0
 13 14  1  0
 14 15  1  0
 15 16  2  0
 16 17  1  0
 17 18  2  0
 18 19  1  0
 19 20  2  0
 13 21  2  0
  5 22  1  0
 22 23  2  0
 22 24  2  0
 22 25  1  0
 21  9  1  0
 20 15  1  0
  4 26  1  0
  5 27  1  1
  6 28  1  0
  6 29  1  0
  7 30  1  0
  7 31  1  0
  8 32  1  0
  8 33  1  0
 10 34  1  0
 11 35  1  0
 12 36  1  0
 16 37  1  0
 17 38  1  0
 18 39  1  0
 19 40  1  0
 20 41  1  0
 21 42  1  0
M  CHG  2   3  -1  25  -1
M  END
>  <meeko>  (5) 
{"is_sidechain": [false], "free_energy": -9.233, "intermolecular_energy": -13.302, "internal_energy": -1.183}

$$$$
2zcq_ligand
     RDKit          3D

 42 43  0  0  0  0  0  0  0  0999 V2000
   15.8860   52.8750   38.5430 O   0  0  0  0  0  0  0  0  0  0  0  0
   17.3010   53.3290   38.8660 P   0  0  1  0  0  5  0  0  0  0  0  0
   17.4820   54.5980   39.6630 O   0  0  0  0  0  0  0  0  0  0  0  0
   17.9670   52.1170   39.7170 O   0  0  0  0  0  0  0  0  0  0  0  0
   18.1940   53.3160   37.3090 C   0  0  1  0  0  0  0  0  0  0  0  0
   18.1790   54.5990   36.4660 C   0  0  0  0  0  0  0  0  0  0  0  0
   16.8950   54.9390   35.7020 C   0  0  0  0  0  0  0  0  0  0  0  0
   16.6040   56.4320   35.5390 C   0  0  0  0  0  0  0  0  0  0  0  0
   15.4700   56.8540   36.4490 C   0  0  0  0  0  0  0  0  0  0  0  0
   14.1690   57.0230   35.9580 C   0  0  0  0  0  0  0  0  0  0  0  0
   13.1210   57.3420   36.8260 C   0  0  0  0  0  0  0  0  0  0  0  0
   13.3650   57.4790   38.1920 C   0  0  0  0  0  0  0  0  0  0  0  0
   14.6580   57.2940   38.6850 C   0  0  0  0  0  0  0  0  0  0  0  0
   14.9000   57.4500   40.0300 O   0  0  0  0  0  0  0  0  0  0  0  0
   14.1580   56.6260   40.8500 C   0  0  0  0  0  0  0  0  0  0  0  0
   14.0670   55.2790   40.4940 C   0  0  0  0  0  0  0  0  0  0  0  0
   13.3010   54.4040   41.2670 C   0  0  0  0  0  0  0  0  0  0  0  0
   12.6150   54.8810   42.3850 C   0  0  0  0  0  0  0  0  0  0  0  0
   12.6870   56.2330   42.7250 C   0  0  0  0  0  0  0  0  0  0  0  0
   13.4530   57.1090   41.9540 C   0  0  0  0  0  0  0  0  0  0  0  0
   15.7120   57.0120   37.8200 C   0  0  0  0  0  0  0  0  0  0  0  0
   19.7890   52.5660   37.4540 S   0  0  0  0  0  0  0  0  0  0  0  0
   20.4870   52.8440   36.1940 O   0  0  0  0  0  0  0  0  0  0  0  0
   19.5850   51.1500   37.7430 O   0  0  0  0  0  0  0  0  0  0  0  0
   20.3830   53.2860   38.5910 O   0  0  0  0  0  0  0  0  0  0  0  0
   17.6520   51.2560   39.3280 H   0  0  0  0  0  0  0  0  0  0  0  0
   17.5748   52.6588   36.6808 H   0  0  0  0  0  0  0  0  0  0  0  0
   18.3891   55.4392   37.1442 H   0  0  0  0  0  0  0  0  0  0  0  0
   18.9290   54.4224   35.6809 H   0  0  0  0  0  0  0  0  0  0  0  0
   16.9704   54.4964   34.6978 H   0  0  0  0  0  0  0  0  0  0  0  0
   16.0682   54.5330   36.3033 H   0  0  0  0  0  0  0  0  0  0  0  0
   17.5064   57.0067   35.7949 H   0  0  0  0  0  0  0  0  0  0  0  0
   16.3138   56.6259   34.4958 H   0  0  0  0  0  0  0  0  0  0  0  0
   13.9709   56.9039   34.8826 H   0  0  0  0  0  0  0  0  0  0  0  0
   12.1041   57.4849   36.4317 H   0  0  0  0  0  0  0  0  0  0  0  0
   12.5428   57.7316   38.8778 H   0  0  0  0  0  0  0  0  0  0  0  0
   14.5983   54.9074   39.6054 H   0  0  0  0  0  0  0  0  0  0  0  0
   13.2383   53.3400   40.9951 H   0  0  0  0  0  0  0  0  0  0  0  0
   12.0172   54.1911   42.9987 H   0  0  0  0  0  0  0  0  0  0  0  0
   12.1393   56.6087   43.6018 H   0  0  0  0  0  0  0  0  0  0  0  0
   13.5010   58.1764   42.2154 H   0  0  0  0  0  0  0  0  0  0  0  0
   16.7347   56.9133   38.2130 H   0  0  0  0  0  0  0  0  0  0  0  0
  1  2  2  0
  2  3  1  1
  2  4  1  0
  2  5  1  0
  5  6  1  0
  6  7  1  0
  7  8  1  0
  8  9  1  0
  9 10  2  0
 10 11  1  0
 11 12  2  0
 12 13  1  0
 13 14  1  0
 14 15  1  0
 15 16  2  0
 16 17  1  0
 17 18  2  0
 18 19  1  0
 19 20  2  0
 13 21  2  0
  5 22  1  0
 22 23  2  0
 22 24  2  0
 22 25  1  0
 21  9  1  0
 20 15  1  0
  4 26  1  0
  5 27  1  6
  6 28  1  0
  6 29  1  0
  7 30  1  0
  7 31  1  0
  8 32  1  0
  8 33  1  0
 10 34  1  0
 11 35  1  0
 12 36  1  0
 16 37  1  0
 17 38  1  0
 18 39  1  0
 19 40  1  0
 20 41  1  0
 21 42  1  0
M  CHG  2   3  -1  25  -1
M  END
>  <meeko>  (6) 
{"is_sidechain": [false], "free_energy": -9.224, "intermolecular_energy": -12.861, "internal_energy": -1.611}

$$$$
2zcq_ligand
     RDKit          3D

 42 43  0  0  0  0  0  0  0  0999 V2000
   17.8410   50.7460   36.2690 O   0  0  0  0  0  0  0  0  0  0  0  0
   18.6990   51.3460   37.3720 P   0  0  1  0  0  5  0  0  0  0  0  0
   18.3960   50.9680   38.8010 O   0  0  0  0  0  0  0  0  0  0  0  0
   20.2190   50.8730   37.0510 O   0  0  0  0  0  0  0  0  0  0  0  0
   18.7180   53.1170   37.0770 C   0  0  1  0  0  0  0  0  0  0  0  0
   17.3720   53.8140   36.8320 C   0  0  0  0  0  0  0  0  0  0  0  0
   17.2210   54.6520   35.5580 C   0  0  0  0  0  0  0  0  0  0  0  0
   17.2750   56.1670   35.7590 C   0  0  0  0  0  0  0  0  0  0  0  0
   16.0950   56.6350   36.5820 C   0  0  0  0  0  0  0  0  0  0  0  0
   14.9650   57.2020   35.9770 C   0  0  0  0  0  0  0  0  0  0  0  0
   13.8550   57.5610   36.7470 C   0  0  0  0  0  0  0  0  0  0  0  0
   13.8610   57.3430   38.1240 C   0  0  0  0  0  0  0  0  0  0  0  0
   14.9800   56.7630   38.7260 C   0  0  0  0  0  0  0  0  0  0  0  0
   14.9920   56.5670   40.0880 O   0  0  0  0  0  0  0  0  0  0  0  0
   14.3110   55.4480   40.5160 C   0  0  0  0  0  0  0  0  0  0  0  0
   14.7170   54.2140   40.0070 C   0  0  0  0  0  0  0  0  0  0  0  0
   14.0410   53.0490   40.3780 C   0  0  0  0  0  0  0  0  0  0  0  0
   12.9510   53.1240   41.2460 C   0  0  0  0  0  0  0  0  0  0  0  0
   12.5310   54.3620   41.7360 C   0  0  0  0  0  0  0  0  0  0  0  0
   13.2050   55.5260   41.3660 C   0  0  0  0  0  0  0  0  0  0  0  0
   16.1030   56.4370   37.9690 C   0  0  0  0  0  0  0  0  0  0  0  0
   19.7820   53.9740   38.1990 S   0  0  0  0  0  0  0  0  0  0  0  0
   19.1580   53.8590   39.5220 O   0  0  0  0  0  0  0  0  0  0  0  0
   19.9300   55.3410   37.7080 O   0  0  0  0  0  0  0  0  0  0  0  0
   21.0350   53.2100   38.1060 O   0  0  0  0  0  0  0  0  0  0  0  0
   20.6900   51.6260   36.6020 H   0  0  0  0  0  0  0  0  0  0  0  0
   19.1653   53.1917   36.0748 H   0  0  0  0  0  0  0  0  0  0  0  0
   16.5985   53.0324   36.8038 H   0  0  0  0  0  0  0  0  0  0  0  0
   17.2838   54.5409   37.6529 H   0  0  0  0  0  0  0  0  0  0  0  0
   18.0319   54.3719   34.8695 H   0  0  0  0  0  0  0  0  0  0  0  0
   16.2155   54.4336   35.1690 H   0  0  0  0  0  0  0  0  0  0  0  0
   18.2071   56.4299   36.2806 H   0  0  0  0  0  0  0  0  0  0  0  0
   17.2394   56.6578   34.7752 H   0  0  0  0  0  0  0  0  0  0  0  0
   14.9516   57.3655   34.8893 H   0  0  0  0  0  0  0  0  0  0  0  0
   12.9763   58.0157   36.2662 H   0  0  0  0  0  0  0  0  0  0  0  0
   12.9896   57.6261   38.7328 H   0  0  0  0  0  0  0  0  0  0  0  0
   15.5692   54.1584   39.3137 H   0  0  0  0  0  0  0  0  0  0  0  0
   14.3675   52.0742   39.9865 H   0  0  0  0  0  0  0  0  0  0  0  0
   12.4222   52.2068   41.5445 H   0  0  0  0  0  0  0  0  0  0  0  0
   11.6674   54.4197   42.4148 H   0  0  0  0  0  0  0  0  0  0  0  0
   12.8666   56.5026   41.7425 H   0  0  0  0  0  0  0  0  0  0  0  0
   16.9963   56.0240   38.4603 H   0  0  0  0  0  0  0  0  0  0  0  0
  1  2  2  0
  2  3  1  1
  2  4  1  0
  2  5  1  0
  5  6  1  0
  6  7  1  0
  7  8  1  0
  8  9  1  0
  9 10  2  0
 10 11  1  0
 11 12  2  0
 12 13  1  0
 13 14  1  0
 14 15  1  0
 15 16  2  0
 16 17  1  0
 17 18  2  0
 18 19  1  0
 19 20  2  0
 13 21  2  0
  5 22  1  0
 22 23  2  0
 22 24  2  0
 22 25  1  0
 21  9  1  0
 20 15  1  0
  4 26  1  0
  5 27  1  6
  6 28  1  0
  6 29  1  0
  7 30  1  0
  7 31  1  0
  8 32  1  0
  8 33  1  0
 10 34  1  0
 11 35  1  0
 12 36  1  0
 16 37  1  0
 17 38  1  0
 18 39  1  0
 19 40  1  0
 20 41  1  0
 21 42  1  0
M  CHG  2   3  -1  25  -1
M  END
>  <meeko>  (7) 
{"is_sidechain": [false], "free_energy": -9.194, "intermolecular_energy": -13.462, "internal_energy": -0.964}

$$$$
2zcq_ligand
     RDKit          3D

 42 43  0  0  0  0  0  0  0  0999 V2000
   22.7270   50.2840   37.5730 O   0  0  0  0  0  0  0  0  0  0  0  0
   22.2490   51.6030   36.9870 P   0  0  1  0  0  5  0  0  0  0  0  0
   21.8170   52.6940   37.9350 O   0  0  0  0  0  0  0  0  0  0  0  0
   23.4960   52.1730   36.1180 O   0  0  0  0  0  0  0  0  0  0  0  0
   21.0120   51.1790   35.7560 C   0  0  1  0  0  0  0  0  0  0  0  0
   19.8970   52.1980   35.4850 C   0  0  0  0  0  0  0  0  0  0  0  0
   18.6040   52.0780   36.2980 C   0  0  0  0  0  0  0  0  0  0  0  0
   18.5180   52.9780   37.5310 C   0  0  0  0  0  0  0  0  0  0  0  0
   18.1050   54.3800   37.1370 C   0  0  0  0  0  0  0  0  0  0  0  0
   19.0130   55.2650   36.5400 C   0  0  0  0  0  0  0  0  0  0  0  0
   18.5940   56.5300   36.1170 C   0  0  0  0  0  0  0  0  0  0  0  0
   17.2620   56.9120   36.2730 C   0  0  0  0  0  0  0  0  0  0  0  0
   16.3530   56.0250   36.8530 C   0  0  0  0  0  0  0  0  0  0  0  0
   15.0440   56.4110   37.0250 O   0  0  0  0  0  0  0  0  0  0  0  0
   14.7370   56.8620   38.2910 C   0  0  0  0  0  0  0  0  0  0  0  0
   14.3580   58.1990   38.4230 C   0  0  0  0  0  0  0  0  0  0  0  0
   14.0690   58.7210   39.6860 C   0  0  0  0  0  0  0  0  0  0  0  0
   14.1750   57.9080   40.8160 C   0  0  0  0  0  0  0  0  0  0  0  0
   14.5770   56.5780   40.6840 C   0  0  0  0  0  0  0  0  0  0  0  0
   14.8660   56.0550   39.4230 C   0  0  0  0  0  0  0  0  0  0  0  0
   16.7720   54.7780   37.3090 C   0  0  0  0  0  0  0  0  0  0  0  0
   21.7280   50.4840   34.2960 S   0  0  0  0  0  0  0  0  0  0  0  0
   20.6800   49.6630   33.6790 O   0  0  0  0  0  0  0  0  0  0  0  0
   22.9250   49.7520   34.6980 O   0  0  0  0  0  0  0  0  0  0  0  0
   22.0470   51.6750   33.4940 O   0  0  0  0  0  0  0  0  0  0  0  0
   23.1560   52.9000   35.5280 H   0  0  0  0  0  0  0  0  0  0  0  0
   20.4364   50.3839   36.2526 H   0  0  0  0  0  0  0  0  0  0  0  0
   20.3132   53.1980   35.6770 H   0  0  0  0  0  0  0  0  0  0  0  0
   19.5898   52.0018   34.4471 H   0  0  0  0  0  0  0  0  0  0  0  0
   17.7623   52.3287   35.6357 H   0  0  0  0  0  0  0  0  0  0  0  0
   18.5780   51.0449   36.6748 H   0  0  0  0  0  0  0  0  0  0  0  0
   17.7755   52.5648   38.2295 H   0  0  0  0  0  0  0  0  0  0  0  0
   19.5073   53.0202   38.0100 H   0  0  0  0  0  0  0  0  0  0  0  0
   20.0617   54.9625   36.4034 H   0  0  0  0  0  0  0  0  0  0  0  0
   19.3153   57.2241   35.6610 H   0  0  0  0  0  0  0  0  0  0  0  0
   16.9293   57.9065   35.9410 H   0  0  0  0  0  0  0  0  0  0  0  0
   14.2870   58.8412   37.5328 H   0  0  0  0  0  0  0  0  0  0  0  0
   13.7584   59.7711   39.7901 H   0  0  0  0  0  0  0  0  0  0  0  0
   13.9416   58.3158   41.8106 H   0  0  0  0  0  0  0  0  0  0  0  0
   14.6662   55.9406   41.5760 H   0  0  0  0  0  0  0  0  0  0  0  0
   15.1944   55.0101   39.3211 H   0  0  0  0  0  0  0  0  0  0  0  0
   16.0568   54.1049   37.8044 H   0  0  0  0  0  0  0  0  0  0  0  0
  1  2  2  0
  2  3  1  1
  2  4  1  0
  2  5  1  0
  5  6  1  0
  6  7  1  0
  7  8  1  0
  8  9  1  0
  9 10  2  0
 10 11  1  0
 11 12  2  0
 12 13  1  0
 13 14  1  0
 14 15  1  0
 15 16  2  0
 16 17  1  0
 17 18  2  0
 18 19  1  0
 19 20  2  0
 13 21  2  0
  5 22  1  0
 22 23  2  0
 22 24  2  0
 22 25  1  0
 21  9  1  0
 20 15  1  0
  4 26  1  0
  5 27  1  1
  6 28  1  0
  6 29  1  0
  7 30  1  0
  7 31  1  0
  8 32  1  0
  8 33  1  0
 10 34  1  0
 11 35  1  0
 12 36  1  0
 16 37  1  0
 17 38  1  0
 18 39  1  0
 19 40  1  0
 20 41  1  0
 21 42  1  0
M  CHG  2   3  -1  25  -1
M  END
>  <meeko>  (8) 
{"is_sidechain": [false], "free_energy": -9.07, "intermolecular_energy": -13.489, "internal_energy": -0.752}

$$$$
2zcq_ligand
     RDKit          3D

 42 43  0  0  0  0  0  0  0  0999 V2000
   17.2030   54.7790   36.1280 O   0  0  0  0  0  0  0  0  0  0  0  0
   18.0600   53.5430   36.3530 P   0  0  1  0  0  5  0  0  0  0  0  0
   17.6220   52.2430   35.7250 O   0  0  0  0  0  0  0  0  0  0  0  0
   19.5230   53.9090   35.7520 O   0  0  0  0  0  0  0  0  0  0  0  0
   18.3260   53.4400   38.1260 C   0  0  1  0  0  0  0  0  0  0  0  0
   18.0350   52.1000   38.8150 C   0  0  0  0  0  0  0  0  0  0  0  0
   16.9290   52.0640   39.8750 C   0  0  0  0  0  0  0  0  0  0  0  0
   15.4990   52.0810   39.3330 C   0  0  0  0  0  0  0  0  0  0  0  0
   14.7110   53.2170   39.9510 C   0  0  0  0  0  0  0  0  0  0  0  0
   13.6440   52.9700   40.8250 C   0  0  0  0  0  0  0  0  0  0  0  0
   12.9750   54.0310   41.4420 C   0  0  0  0  0  0  0  0  0  0  0  0
   13.3790   55.3440   41.2020 C   0  0  0  0  0  0  0  0  0  0  0  0
   14.4530   55.5900   40.3450 C   0  0  0  0  0  0  0  0  0  0  0  0
   14.8360   56.8870   40.0930 O   0  0  0  0  0  0  0  0  0  0  0  0
   14.3930   57.3980   38.8910 C   0  0  0  0  0  0  0  0  0  0  0  0
   15.2090   57.2130   37.7740 C   0  0  0  0  0  0  0  0  0  0  0  0
   14.8280   57.7380   36.5380 C   0  0  0  0  0  0  0  0  0  0  0  0
   13.6390   58.4610   36.4240 C   0  0  0  0  0  0  0  0  0  0  0  0
   12.8370   58.6660   37.5480 C   0  0  0  0  0  0  0  0  0  0  0  0
   13.2160   58.1410   38.7840 C   0  0  0  0  0  0  0  0  0  0  0  0
   15.0990   54.5390   39.6980 C   0  0  0  0  0  0  0  0  0  0  0  0
   19.8470   54.1920   38.6220 S   0  0  0  0  0  0  0  0  0  0  0  0
   19.8960   55.4960   37.9520 O   0  0  0  0  0  0  0  0  0  0  0  0
   20.9270   53.2780   38.2640 O   0  0  0  0  0  0  0  0  0  0  0  0
   19.6860   54.3190   40.0780 O   0  0  0  0  0  0  0  0  0  0  0  0
   19.3960   54.3050   34.8470 H   0  0  0  0  0  0  0  0  0  0  0  0
   17.5064   54.0523   38.5302 H   0  0  0  0  0  0  0  0  0  0  0  0
   17.7595   51.3808   38.0296 H   0  0  0  0  0  0  0  0  0  0  0  0
   18.9564   51.8693   39.3698 H   0  0  0  0  0  0  0  0  0  0  0  0
   17.0564   51.1458   40.4671 H   0  0  0  0  0  0  0  0  0  0  0  0
   17.0415   52.9879   40.4614 H   0  0  0  0  0  0  0  0  0  0  0  0
   15.5272   52.2120   38.2412 H   0  0  0  0  0  0  0  0  0  0  0  0
   15.0105   51.1291   39.5882 H   0  0  0  0  0  0  0  0  0  0  0  0
   13.3309   51.9350   41.0268 H   0  0  0  0  0  0  0  0  0  0  0  0
   12.1299   53.8302   42.1169 H   0  0  0  0  0  0  0  0  0  0  0  0
   12.8542   56.1812   41.6854 H   0  0  0  0  0  0  0  0  0  0  0  0
   16.1517   56.6539   37.8675 H   0  0  0  0  0  0  0  0  0  0  0  0
   15.4642   57.5822   35.6543 H   0  0  0  0  0  0  0  0  0  0  0  0
   13.3344   58.8689   35.4489 H   0  0  0  0  0  0  0  0  0  0  0  0
   11.9044   59.2425   37.4592 H   0  0  0  0  0  0  0  0  0  0  0  0
   12.5891   58.3121   39.6716 H   0  0  0  0  0  0  0  0  0  0  0  0
   15.9135   54.7471   38.9886 H   0  0  0  0  0  0  0  0  0  0  0  0
  1  2  2  0
  2  3  1  6
  2  4  1  0
  2  5  1  0
  5  6  1  0
  6  7  1  0
  7  8  1  0
  8  9  1  0
  9 10  2  0
 10 11  1  0
 11 12  2  0
 12 13  1  0
 13 14  1  0
 14 15  1  0
 15 16  2  0
 16 17  1  0
 17 18  2  0
 18 19  1  0
 19 20  2  0
 13 21  2  0
  5 22  1  0
 22 23  2  0
 22 24  2  0
 22 25  1  0
 21  9  1  0
 20 15  1  0
  4 26  1  0
  5 27  1  1
  6 28  1  0
  6 29  1  0
  7 30  1  0
  7 31  1  0
  8 32  1  0
  8 33  1  0
 10 34  1  0
 11 35  1  0
 12 36  1  0
 16 37  1  0
 17 38  1  0
 18 39  1  0
 19 40  1  0
 20 41  1  0
 21 42  1  0
M  CHG  2   3  -1  25  -1
M  END
>  <meeko>  (9) 
{"is_sidechain": [false], "free_energy": -9.029, "intermolecular_energy": -12.601, "internal_energy": -1.579}

$$$$
