4djv_ligand
     RDKit          3D

 50 53  0  0  0  0  0  0  0  0999 V2000
   30.0120    8.8500   23.6090 C   0  0  0  0  0  0  0  0  0  0  0  0
   29.3230    8.5850   22.3900 O   0  0  0  0  0  0  0  0  0  0  0  0
   28.9730    9.6700   21.6340 C   0  0  0  0  0  0  0  0  0  0  0  0
   29.7990   10.7410   21.3010 C   0  0  0  0  0  0  0  0  0  0  0  0
   29.3030   11.7840   20.5160 C   0  0  0  0  0  0  0  0  0  0  0  0
   27.9830   11.7600   20.0610 C   0  0  0  0  0  0  0  0  0  0  0  0
   27.1330   10.6920   20.3810 C   0  0  0  0  0  0  0  0  0  0  0  0
   25.7450   10.6540   19.9000 C   0  0  0  0  0  0  0  0  0  0  0  0
   25.4530   10.5520   18.5340 C   0  0  0  0  0  0  0  0  0  0  0  0
   24.1330   10.5110   18.0870 C   0  0  0  0  0  0  0  0  0  0  0  0
   23.0740   10.5800   18.9950 C   0  0  0  0  0  0  0  0  0  0  0  0
   23.3210   10.6890   20.3720 C   0  0  0  0  0  0  0  0  0  0  0  0
   22.2070   10.7900   21.4100 C   0  0  1  0  0  0  0  0  0  0  0  0
   20.7960   10.7740   20.8330 C   0  0  0  0  0  0  0  0  0  0  0  0
   20.1880   11.9140   20.2760 C   0  0  0  0  0  0  0  0  0  0  0  0
   18.8960   11.8490   19.7480 C   0  0  0  0  0  0  0  0  0  0  0  0
   18.1900   10.6490   19.7640 C   0  0  0  0  0  0  0  0  0  0  0  0
   18.7750    9.5110   20.3070 C   0  0  0  0  0  0  0  0  0  0  0  0
   20.0660    9.5700   20.8350 C   0  0  0  0  0  0  0  0  0  0  0  0
   22.4110    9.6270   22.3320 N   0  0  0  0  0  0  0  0  0  0  0  0
   22.6400   10.0420   23.5990 C   0  0  0  0  0  0  0  0  0  0  0  0
   22.8720    9.1770   24.5870 N   0  0  0  0  0  0  0  0  0  0  0  0
   22.6090   11.3690   23.7230 N   0  0  0  0  0  0  0  0  0  0  0  0
   22.7920   12.1950   24.9050 C   0  0  0  0  0  0  0  0  0  0  0  0
   22.3560   11.9670   22.4480 C   0  0  0  0  0  0  0  0  0  0  0  0
   22.2960   13.1680   22.2680 O   0  0  0  0  0  0  0  0  0  0  0  0
   24.6670   10.7160   20.8010 C   0  0  0  0  0  0  0  0  0  0  0  0
   27.6510    9.6540   21.1750 C   0  0  0  0  0  0  0  0  0  0  0  0
   29.3613    8.5997   24.4599 H   0  0  0  0  0  0  0  0  0  0  0  0
   30.9257    8.2391   23.6540 H   0  0  0  0  0  0  0  0  0  0  0  0
   30.2808    9.9157   23.6540 H   0  0  0  0  0  0  0  0  0  0  0  0
   30.8400   10.7652   21.6557 H   0  0  0  0  0  0  0  0  0  0  0  0
   29.9561   12.6296   20.2545 H   0  0  0  0  0  0  0  0  0  0  0  0
   27.6056   12.5889   19.4442 H   0  0  0  0  0  0  0  0  0  0  0  0
   26.2752   10.5036   17.8049 H   0  0  0  0  0  0  0  0  0  0  0  0
   23.9239   10.4236   17.0106 H   0  0  0  0  0  0  0  0  0  0  0  0
   22.0376   10.5486   18.6276 H   0  0  0  0  0  0  0  0  0  0  0  0
   20.7361   12.8675   20.2560 H   0  0  0  0  0  0  0  0  0  0  0  0
   18.4345   12.7500   19.3177 H   0  0  0  0  0  0  0  0  0  0  0  0
   17.1727   10.6017   19.3483 H   0  0  0  0  0  0  0  0  0  0  0  0
   18.2194    8.5617   20.3207 H   0  0  0  0  0  0  0  0  0  0  0  0
   20.5198    8.6621   21.2590 H   0  0  0  0  0  0  0  0  0  0  0  0
   22.4930    8.6680   22.0310 H   0  0  0  0  0  0  0  0  0  0  0  0
   23.0490    9.4940   25.5320 H   0  0  0  0  0  0  0  0  0  0  0  0
   22.8860    8.1770   24.4290 H   0  0  0  0  0  0  0  0  0  0  0  0
   22.6557   11.5800   25.8068 H   0  0  0  0  0  0  0  0  0  0  0  0
   23.8063   12.6208   24.9014 H   0  0  0  0  0  0  0  0  0  0  0  0
   22.0525   13.0093   24.9014 H   0  0  0  0  0  0  0  0  0  0  0  0
   24.8792   10.7881   21.8779 H   0  0  0  0  0  0  0  0  0  0  0  0
   27.0009    8.8079   21.4423 H   0  0  0  0  0  0  0  0  0  0  0  0
  1  2  1  0
  2  3  1  0
  3  4  2  0
  4  5  1  0
  5  6  2  0
  6  7  1  0
  7  8  1  0
  8  9  2  0
  9 10  1  0
 10 11  2  0
 11 12  1  0
 13 12  1  6
 13 14  1  0
 14 15  2  0
 15 16  1  0
 16 17  2  0
 17 18  1  0
 18 19  2  0
 13 20  1  0
 20 21  1  0
 21 22  2  0
 21 23  1  0
 23 24  1  0
 23 25  1  0
 25 26  2  0
 12 27  2  0
  7 28  2  0
 28  3  1  0
 27  8  1  0
 25 13  1  0
 19 14  1  0
  1 29  1  0
  1 30  1  0
  1 31  1  0
  4 32  1  0
  5 33  1  0
  6 34  1  0
  9 35  1  0
 10 36  1  0
 11 37  1  0
 15 38  1  0
 16 39  1  0
 17 40  1  0
 18 41  1  0
 19 42  1  0
 20 43  1  0
 22 44  1  0
 22 45  1  0
 24 46  1  0
 24 47  1  0
 24 48  1  0
 27 49  1  0
 28 50  1  0
M  CHG  1  22   1
M  END
>  <meeko>  (1) 
{"is_sidechain": [false], "free_energy": -10.197, "intermolecular_energy": -12.581, "internal_energy": -1.132}

$$$$
4djv_ligand
     RDKit          3D

 50 53  0  0  0  0  0  0  0  0999 V2000
   27.7610   13.3480   23.5780 C   0  0  0  0  0  0  0  0  0  0  0  0
   28.8880   12.6320   23.0820 O   0  0  0  0  0  0  0  0  0  0  0  0
   28.6620   11.7800   22.0360 C   0  0  0  0  0  0  0  0  0  0  0  0
   29.5960   10.9270   21.4530 C   0  0  0  0  0  0  0  0  0  0  0  0
   29.2210   10.1070   20.3870 C   0  0  0  0  0  0  0  0  0  0  0  0
   27.9120   10.1360   19.9010 C   0  0  0  0  0  0  0  0  0  0  0  0
   26.9530   10.9840   20.4720 C   0  0  0  0  0  0  0  0  0  0  0  0
   25.5700   11.0140   19.9730 C   0  0  0  0  0  0  0  0  0  0  0  0
   25.2940   11.1090   18.6040 C   0  0  0  0  0  0  0  0  0  0  0  0
   23.9800   11.1330   18.1400 C   0  0  0  0  0  0  0  0  0  0  0  0
   22.9110   11.0700   19.0350 C   0  0  0  0  0  0  0  0  0  0  0  0
   23.1410   10.9810   20.4170 C   0  0  0  0  0  0  0  0  0  0  0  0
   22.0140   10.9310   21.4450 C   0  0  1  0  0  0  0  0  0  0  0  0
   20.6160   10.8050   20.8520 C   0  0  0  0  0  0  0  0  0  0  0  0
   19.9190   11.8980   20.3050 C   0  0  0  0  0  0  0  0  0  0  0  0
   18.6430   11.7330   19.7610 C   0  0  0  0  0  0  0  0  0  0  0  0
   18.0410   10.4780   19.7510 C   0  0  0  0  0  0  0  0  0  0  0  0
   18.7150    9.3840   20.2830 C   0  0  0  0  0  0  0  0  0  0  0  0
   19.9900    9.5440   20.8270 C   0  0  0  0  0  0  0  0  0  0  0  0
   22.3220    9.7550   22.3200 N   0  0  0  0  0  0  0  0  0  0  0  0
   22.5000   10.1350   23.6060 C   0  0  0  0  0  0  0  0  0  0  0  0
   22.8070    9.2560   24.5600 N   0  0  0  0  0  0  0  0  0  0  0  0
   22.3420   11.4470   23.7840 N   0  0  0  0  0  0  0  0  0  0  0  0
   22.4360   12.2360   25.0020 C   0  0  0  0  0  0  0  0  0  0  0  0
   22.0430   12.0720   22.5320 C   0  0  0  0  0  0  0  0  0  0  0  0
   21.8690   13.2680   22.4010 O   0  0  0  0  0  0  0  0  0  0  0  0
   24.4820   10.9460   20.8610 C   0  0  0  0  0  0  0  0  0  0  0  0
   27.3520   11.8020   21.5420 C   0  0  0  0  0  0  0  0  0  0  0  0
   27.7757   13.3387   24.6779 H   0  0  0  0  0  0  0  0  0  0  0  0
   27.8001   14.3872   23.2196 H   0  0  0  0  0  0  0  0  0  0  0  0
   26.8368   12.8711   23.2196 H   0  0  0  0  0  0  0  0  0  0  0  0
   30.6282   10.8994   21.8321 H   0  0  0  0  0  0  0  0  0  0  0  0
   29.9604    9.4346   19.9275 H   0  0  0  0  0  0  0  0  0  0  0  0
   27.6302    9.4855   19.0599 H   0  0  0  0  0  0  0  0  0  0  0  0
   26.1248   11.1654   17.8852 H   0  0  0  0  0  0  0  0  0  0  0  0
   23.7839   11.2021   17.0598 H   0  0  0  0  0  0  0  0  0  0  0  0
   21.8792   11.0903   18.6542 H   0  0  0  0  0  0  0  0  0  0  0  0
   20.3846   12.8946   20.3057 H   0  0  0  0  0  0  0  0  0  0  0  0
   18.1116   12.5986   19.3387 H   0  0  0  0  0  0  0  0  0  0  0  0
   17.0353   10.3519   19.3236 H   0  0  0  0  0  0  0  0  0  0  0  0
   18.2422    8.3908   20.2749 H   0  0  0  0  0  0  0  0  0  0  0  0
   20.5144    8.6711   21.2429 H   0  0  0  0  0  0  0  0  0  0  0  0
   22.4980    8.8210   21.9820 H   0  0  0  0  0  0  0  0  0  0  0  0
   22.9460    9.5480   25.5200 H   0  0  0  0  0  0  0  0  0  0  0  0
   22.9180    8.2700   24.3620 H   0  0  0  0  0  0  0  0  0  0  0  0
   22.3569   11.5724   25.8757 H   0  0  0  0  0  0  0  0  0  0  0  0
   23.4029   12.7599   25.0258 H   0  0  0  0  0  0  0  0  0  0  0  0
   21.6192   12.9724   25.0258 H   0  0  0  0  0  0  0  0  0  0  0  0
   24.6818   10.8626   21.9395 H   0  0  0  0  0  0  0  0  0  0  0  0
   26.6165   12.4772   22.0037 H   0  0  0  0  0  0  0  0  0  0  0  0
  1  2  1  0
  2  3  1  0
  3  4  2  0
  4  5  1  0
  5  6  2  0
  6  7  1  0
  7  8  1  0
  8  9  2  0
  9 10  1  0
 10 11  2  0
 11 12  1  0
 13 12  1  6
 13 14  1  0
 14 15  2  0
 15 16  1  0
 16 17  2  0
 17 18  1  0
 18 19  2  0
 13 20  1  0
 20 21  1  0
 21 22  2  0
 21 23  1  0
 23 24  1  0
 23 25  1  0
 25 26  2  0
 12 27  2  0
  7 28  2  0
 28  3  1  0
 27  8  1  0
 25 13  1  0
 19 14  1  0
  1 29  1  0
  1 30  1  0
  1 31  1  0
  4 32  1  0
  5 33  1  0
  6 34  1  0
  9 35  1  0
 10 36  1  0
 11 37  1  0
 15 38  1  0
 16 39  1  0
 17 40  1  0
 18 41  1  0
 19 42  1  0
 20 43  1  0
 22 44  1  0
 22 45  1  0
 24 46  1  0
 24 47  1  0
 24 48  1  0
 27 49  1  0
 28 50  1  0
M  CHG  1  22   1
M  END
>  <meeko>  (2) 
{"is_sidechain": [false], "free_energy": -9.627, "intermolecular_energy": -11.879, "internal_energy": -1.131}

$$$$
4djv_ligand
     RDKit          3D

 50 53  0  0  0  0  0  0  0  0999 V2000
   29.9100    9.2160   23.4280 C   0  0  0  0  0  0  0  0  0  0  0  0
   29.5580   10.5050   22.9360 O   0  0  0  0  0  0  0  0  0  0  0  0
   28.7900   10.5420   21.8050 C   0  0  0  0  0  0  0  0  0  0  0  0
   28.9050    9.6980   20.7040 C   0  0  0  0  0  0  0  0  0  0  0  0
   28.0460    9.8520   19.6140 C   0  0  0  0  0  0  0  0  0  0  0  0
   27.0680   10.8490   19.6220 C   0  0  0  0  0  0  0  0  0  0  0  0
   26.9300   11.7100   20.7190 C   0  0  0  0  0  0  0  0  0  0  0  0
   25.8980   12.7570   20.7400 C   0  0  0  0  0  0  0  0  0  0  0  0
   26.0810   13.9710   20.0680 C   0  0  0  0  0  0  0  0  0  0  0  0
   25.0960   14.9560   20.0900 C   0  0  0  0  0  0  0  0  0  0  0  0
   23.9050   14.7520   20.7910 C   0  0  0  0  0  0  0  0  0  0  0  0
   23.6820   13.5530   21.4860 C   0  0  0  0  0  0  0  0  0  0  0  0
   22.4130   13.2810   22.2870 C   0  0  1  0  0  0  0  0  0  0  0  0
   21.2330   12.7830   21.4610 C   0  0  0  0  0  0  0  0  0  0  0  0
   21.3840   12.1930   20.1930 C   0  0  0  0  0  0  0  0  0  0  0  0
   20.2740   11.7400   19.4770 C   0  0  0  0  0  0  0  0  0  0  0  0
   18.9950   11.8640   20.0130 C   0  0  0  0  0  0  0  0  0  0  0  0
   18.8230   12.4410   21.2660 C   0  0  0  0  0  0  0  0  0  0  0  0
   19.9300   12.8950   21.9850 C   0  0  0  0  0  0  0  0  0  0  0  0
   22.7990   12.2670   23.3190 N   0  0  0  0  0  0  0  0  0  0  0  0
   22.6180   12.7480   24.5700 C   0  0  0  0  0  0  0  0  0  0  0  0
   22.9190   12.0250   25.6490 N   0  0  0  0  0  0  0  0  0  0  0  0
   22.1270   13.9880   24.5820 N   0  0  0  0  0  0  0  0  0  0  0  0
   21.7850   14.8400   25.7090 C   0  0  0  0  0  0  0  0  0  0  0  0
   21.9530   14.4510   23.2390 C   0  0  0  0  0  0  0  0  0  0  0  0
   21.5370   15.5590   22.9570 O   0  0  0  0  0  0  0  0  0  0  0  0
   24.6920   12.5660   21.4370 C   0  0  0  0  0  0  0  0  0  0  0  0
   27.8070   11.5390   21.8040 C   0  0  0  0  0  0  0  0  0  0  0  0
   29.9062    9.2298   24.5279 H   0  0  0  0  0  0  0  0  0  0  0  0
   29.1814    8.4746   23.0681 H   0  0  0  0  0  0  0  0  0  0  0  0
   30.9143    8.9478   23.0681 H   0  0  0  0  0  0  0  0  0  0  0  0
   29.6724    8.9100   20.6927 H   0  0  0  0  0  0  0  0  0  0  0  0
   28.1401    9.1847   18.7446 H   0  0  0  0  0  0  0  0  0  0  0  0
   26.3979   10.9597   18.7567 H   0  0  0  0  0  0  0  0  0  0  0  0
   27.0150   14.1498   19.5151 H   0  0  0  0  0  0  0  0  0  0  0  0
   25.2573   15.9014   19.5514 H   0  0  0  0  0  0  0  0  0  0  0  0
   23.1353   15.5378   20.7984 H   0  0  0  0  0  0  0  0  0  0  0  0
   22.3896   12.0871   19.7598 H   0  0  0  0  0  0  0  0  0  0  0  0
   20.4106   11.2834   18.4856 H   0  0  0  0  0  0  0  0  0  0  0  0
   18.1227   11.5063   19.4463 H   0  0  0  0  0  0  0  0  0  0  0  0
   17.8134   12.5399   21.6914 H   0  0  0  0  0  0  0  0  0  0  0  0
   19.7826   13.3475   22.9767 H   0  0  0  0  0  0  0  0  0  0  0  0
   23.2510   11.3890   23.1150 H   0  0  0  0  0  0  0  0  0  0  0  0
   22.7870   12.3930   26.5830 H   0  0  0  0  0  0  0  0  0  0  0  0
   23.2930   11.0870   25.5750 H   0  0  0  0  0  0  0  0  0  0  0  0
   21.9983   14.3087   26.6483 H   0  0  0  0  0  0  0  0  0  0  0  0
   22.3825   15.7626   25.6658 H   0  0  0  0  0  0  0  0  0  0  0  0
   20.7155   15.0934   25.6658 H   0  0  0  0  0  0  0  0  0  0  0  0
   24.5288   11.6139   21.9632 H   0  0  0  0  0  0  0  0  0  0  0  0
   27.7188   12.2055   22.6746 H   0  0  0  0  0  0  0  0  0  0  0  0
  1  2  1  0
  2  3  1  0
  3  4  2  0
  4  5  1  0
  5  6  2  0
  6  7  1  0
  7  8  1  0
  8  9  2  0
  9 10  1  0
 10 11  2  0
 11 12  1  0
 13 12  1  6
 13 14  1  0
 14 15  2  0
 15 16  1  0
 16 17  2  0
 17 18  1  0
 18 19  2  0
 13 20  1  0
 20 21  1  0
 21 22  2  0
 21 23  1  0
 23 24  1  0
 23 25  1  0
 25 26  2  0
 12 27  2  0
  7 28  2  0
 28  3  1  0
 27  8  1  0
 25 13  1  0
 19 14  1  0
  1 29  1  0
  1 30  1  0
  1 31  1  0
  4 32  1  0
  5 33  1  0
  6 34  1  0
  9 35  1  0
 10 36  1  0
 11 37  1  0
 15 38  1  0
 16 39  1  0
 17 40  1  0
 18 41  1  0
 19 42  1  0
 20 43  1  0
 22 44  1  0
 22 45  1  0
 24 46  1  0
 24 47  1  0
 24 48  1  0
 27 49  1  0
 28 50  1  0
M  CHG  1  22   1
M  END
>  <meeko>  (3) 
{"is_sidechain": [false], "free_energy": -9.377, "intermolecular_energy": -11.508, "internal_energy": -1.193}

$$$$
4djv_ligand
     RDKit          3D

 50 53  0  0  0  0  0  0  0  0999 V2000
   17.7080    9.8720   20.3970 C   0  0  0  0  0  0  0  0  0  0  0  0
   17.6760   11.2890   20.5390 O   0  0  0  0  0  0  0  0  0  0  0  0
   18.8350   11.8920   20.9440 C   0  0  0  0  0  0  0  0  0  0  0  0
   18.9490   12.8940   21.9040 C   0  0  0  0  0  0  0  0  0  0  0  0
   20.2040   13.4180   22.2180 C   0  0  0  0  0  0  0  0  0  0  0  0
   21.3490   12.9410   21.5760 C   0  0  0  0  0  0  0  0  0  0  0  0
   21.2610   11.9310   20.6080 C   0  0  0  0  0  0  0  0  0  0  0  0
   22.4620   11.4170   19.9340 C   0  0  0  0  0  0  0  0  0  0  0  0
   22.4430   10.1950   19.2490 C   0  0  0  0  0  0  0  0  0  0  0  0
   23.5850    9.7170   18.6090 C   0  0  0  0  0  0  0  0  0  0  0  0
   24.7760   10.4470   18.6450 C   0  0  0  0  0  0  0  0  0  0  0  0
   24.8420   11.6730   19.3250 C   0  0  0  0  0  0  0  0  0  0  0  0
   26.1180   12.5030   19.4170 C   0  0  1  0  0  0  0  0  0  0  0  0
   27.3100   11.7740   20.0270 C   0  0  0  0  0  0  0  0  0  0  0  0
   27.3530   10.3770   20.1780 C   0  0  0  0  0  0  0  0  0  0  0  0
   28.4720    9.7510   20.7320 C   0  0  0  0  0  0  0  0  0  0  0  0
   29.5660   10.5060   21.1440 C   0  0  0  0  0  0  0  0  0  0  0  0
   29.5450   11.8890   21.0010 C   0  0  0  0  0  0  0  0  0  0  0  0
   28.4290   12.5190   20.4470 C   0  0  0  0  0  0  0  0  0  0  0  0
   26.4230   12.9280   18.0140 N   0  0  0  0  0  0  0  0  0  0  0  0
   26.4180   14.2750   17.8980 C   0  0  0  0  0  0  0  0  0  0  0  0
   26.6420   14.8780   16.7300 N   0  0  0  0  0  0  0  0  0  0  0  0
   26.1640   14.8930   19.0510 N   0  0  0  0  0  0  0  0  0  0  0  0
   26.0840   16.3150   19.3450 C   0  0  0  0  0  0  0  0  0  0  0  0
   25.9520   13.9230   20.0820 C   0  0  0  0  0  0  0  0  0  0  0  0
   25.6820   14.2110   21.2320 O   0  0  0  0  0  0  0  0  0  0  0  0
   23.6670   12.1410   19.9550 C   0  0  0  0  0  0  0  0  0  0  0  0
   19.9880   11.4200   20.3050 C   0  0  0  0  0  0  0  0  0  0  0  0
   17.7186    9.4039   21.3924 H   0  0  0  0  0  0  0  0  0  0  0  0
   16.8172    9.5387   19.8445 H   0  0  0  0  0  0  0  0  0  0  0  0
   18.6130    9.5792   19.8445 H   0  0  0  0  0  0  0  0  0  0  0  0
   18.0510   13.2722   22.4144 H   0  0  0  0  0  0  0  0  0  0  0  0
   20.2918   14.2110   22.9753 H   0  0  0  0  0  0  0  0  0  0  0  0
   22.3317   13.3630   21.8331 H   0  0  0  0  0  0  0  0  0  0  0  0
   21.5150    9.6054   19.2159 H   0  0  0  0  0  0  0  0  0  0  0  0
   23.5486    8.7579   18.0715 H   0  0  0  0  0  0  0  0  0  0  0  0
   25.6698   10.0573   18.1358 H   0  0  0  0  0  0  0  0  0  0  0  0
   26.4946    9.7692   19.8558 H   0  0  0  0  0  0  0  0  0  0  0  0
   28.4886    8.6567   20.8431 H   0  0  0  0  0  0  0  0  0  0  0  0
   30.4450   10.0101   21.5816 H   0  0  0  0  0  0  0  0  0  0  0  0
   30.4091   12.4877   21.3249 H   0  0  0  0  0  0  0  0  0  0  0  0
   28.4236   13.6135   20.3369 H   0  0  0  0  0  0  0  0  0  0  0  0
   26.4990   12.2970   17.2300 H   0  0  0  0  0  0  0  0  0  0  0  0
   26.6300   15.8870   16.6480 H   0  0  0  0  0  0  0  0  0  0  0  0
   26.8260   14.3530   15.8840 H   0  0  0  0  0  0  0  0  0  0  0  0
   26.0756   16.4642   20.4348 H   0  0  0  0  0  0  0  0  0  0  0  0
   26.9547   16.8286   18.9113 H   0  0  0  0  0  0  0  0  0  0  0  0
   25.1612   16.7277   18.9113 H   0  0  0  0  0  0  0  0  0  0  0  0
   23.6961   13.1067   20.4809 H   0  0  0  0  0  0  0  0  0  0  0  0
   19.8946   10.6289   19.5464 H   0  0  0  0  0  0  0  0  0  0  0  0
  1  2  1  0
  2  3  1  0
  3  4  2  0
  4  5  1  0
  5  6  2  0
  6  7  1  0
  7  8  1  0
  8  9  2  0
  9 10  1  0
 10 11  2  0
 11 12  1  0
 13 12  1  6
 13 14  1  0
 14 15  2  0
 15 16  1  0
 16 17  2  0
 17 18  1  0
 18 19  2  0
 13 20  1  0
 20 21  1  0
 21 22  2  0
 21 23  1  0
 23 24  1  0
 23 25  1  0
 25 26  2  0
 12 27  2  0
  7 28  2  0
 28  3  1  0
 27  8  1  0
 25 13  1  0
 19 14  1  0
  1 29  1  0
  1 30  1  0
  1 31  1  0
  4 32  1  0
  5 33  1  0
  6 34  1  0
  9 35  1  0
 10 36  1  0
 11 37  1  0
 15 38  1  0
 16 39  1  0
 17 40  1  0
 18 41  1  0
 19 42  1  0
 20 43  1  0
 22 44  1  0
 22 45  1  0
 24 46  1  0
 24 47  1  0
 24 48  1  0
 27 49  1  0
 28 50  1  0
M  CHG  1  22   1
M  END
>  <meeko>  (4) 
{"is_sidechain": [false], "free_energy": -9.345, "intermolecular_energy": -11.99, "internal_energy": -0.672}

$$$$
4djv_ligand
     RDKit          3D

 50 53  0  0  0  0  0  0  0  0999 V2000
   27.0940   17.2800   17.5070 C   0  0  0  0  0  0  0  0  0  0  0  0
   27.0090   15.8950   17.1870 O   0  0  0  0  0  0  0  0  0  0  0  0
   27.1000   15.0170   18.2320 C   0  0  0  0  0  0  0  0  0  0  0  0
   28.0230   15.0700   19.2730 C   0  0  0  0  0  0  0  0  0  0  0  0
   27.9970   14.1010   20.2780 C   0  0  0  0  0  0  0  0  0  0  0  0
   27.0470   13.0770   20.2460 C   0  0  0  0  0  0  0  0  0  0  0  0
   26.1060   13.0030   19.2100 C   0  0  0  0  0  0  0  0  0  0  0  0
   25.0960   11.9350   19.1730 C   0  0  0  0  0  0  0  0  0  0  0  0
   25.0920   10.9750   18.1540 C   0  0  0  0  0  0  0  0  0  0  0  0
   24.1340    9.9630   18.1300 C   0  0  0  0  0  0  0  0  0  0  0  0
   23.1530    9.8920   19.1210 C   0  0  0  0  0  0  0  0  0  0  0  0
   23.1150   10.8370   20.1580 C   0  0  0  0  0  0  0  0  0  0  0  0
   22.0560   10.8240   21.2560 C   0  0  1  0  0  0  0  0  0  0  0  0
   20.6210   10.7190   20.7540 C   0  0  0  0  0  0  0  0  0  0  0  0
   19.8190    9.5840   20.9700 C   0  0  0  0  0  0  0  0  0  0  0  0
   18.5030    9.5370   20.5010 C   0  0  0  0  0  0  0  0  0  0  0  0
   17.9650   10.6200   19.8130 C   0  0  0  0  0  0  0  0  0  0  0  0
   18.7400   11.7530   19.5920 C   0  0  0  0  0  0  0  0  0  0  0  0
   20.0550   11.8050   20.0590 C   0  0  0  0  0  0  0  0  0  0  0  0
   22.3960    9.6540   22.1280 N   0  0  0  0  0  0  0  0  0  0  0  0
   22.6630   10.0490   23.3930 C   0  0  0  0  0  0  0  0  0  0  0  0
   23.0130    9.1770   24.3390 N   0  0  0  0  0  0  0  0  0  0  0  0
   22.5420   11.3660   23.5620 N   0  0  0  0  0  0  0  0  0  0  0  0
   22.7290   12.1690   24.7590 C   0  0  0  0  0  0  0  0  0  0  0  0
   22.1760   11.9790   22.3220 C   0  0  0  0  0  0  0  0  0  0  0  0
   22.0170   13.1770   22.1840 O   0  0  0  0  0  0  0  0  0  0  0  0
   24.1050   11.8450   20.1670 C   0  0  0  0  0  0  0  0  0  0  0  0
   26.1520   13.9870   18.2080 C   0  0  0  0  0  0  0  0  0  0  0  0
   27.1016   17.4040   18.6000 H   0  0  0  0  0  0  0  0  0  0  0  0
   28.0195   17.6979   17.0841 H   0  0  0  0  0  0  0  0  0  0  0  0
   26.2266   17.8079   17.0841 H   0  0  0  0  0  0  0  0  0  0  0  0
   28.7723   15.8748   19.3037 H   0  0  0  0  0  0  0  0  0  0  0  0
   28.7280   14.1440   21.0989 H   0  0  0  0  0  0  0  0  0  0  0  0
   27.0375   12.3196   21.0437 H   0  0  0  0  0  0  0  0  0  0  0  0
   25.8545   11.0200   17.3624 H   0  0  0  0  0  0  0  0  0  0  0  0
   24.1509    9.2145   17.3241 H   0  0  0  0  0  0  0  0  0  0  0  0
   22.4030    9.0880   19.0887 H   0  0  0  0  0  0  0  0  0  0  0  0
   20.2325    8.7225   21.5148 H   0  0  0  0  0  0  0  0  0  0  0  0
   17.8905    8.6404   20.6766 H   0  0  0  0  0  0  0  0  0  0  0  0
   16.9292   10.5800   19.4449 H   0  0  0  0  0  0  0  0  0  0  0  0
   18.3164   12.6102   19.0482 H   0  0  0  0  0  0  0  0  0  0  0  0
   20.6577   12.7078   19.8813 H   0  0  0  0  0  0  0  0  0  0  0  0
   22.5320    8.7130   21.7930 H   0  0  0  0  0  0  0  0  0  0  0  0
   23.2180    9.4790   25.2840 H   0  0  0  0  0  0  0  0  0  0  0  0
   23.0920    8.1860   24.1490 H   0  0  0  0  0  0  0  0  0  0  0  0
   22.5825   11.5397   25.6493 H   0  0  0  0  0  0  0  0  0  0  0  0
   23.7478   12.5838   24.7668 H   0  0  0  0  0  0  0  0  0  0  0  0
   21.9983   12.9912   24.7668 H   0  0  0  0  0  0  0  0  0  0  0  0
   24.1006   12.5857   20.9803 H   0  0  0  0  0  0  0  0  0  0  0  0
   25.4247   13.9471   17.3837 H   0  0  0  0  0  0  0  0  0  0  0  0
  1  2  1  0
  2  3  1  0
  3  4  2  0
  4  5  1  0
  5  6  2  0
  6  7  1  0
  7  8  1  0
  8  9  2  0
  9 10  1  0
 10 11  2  0
 11 12  1  0
 13 12  1  6
 13 14  1  0
 14 15  2  0
 15 16  1  0
 16 17  2  0
 17 18  1  0
 18 19  2  0
 13 20  1  0
 20 21  1  0
 21 22  2  0
 21 23  1  0
 23 24  1  0
 23 25  1  0
 25 26  2  0
 12 27  2  0
  7 28  2  0
 28  3  1  0
 27  8  1  0
 25 13  1  0
 19 14  1  0
  1 29  1  0
  1 30  1  0
  1 31  1  0
  4 32  1  0
  5 33  1  0
  6 34  1  0
  9 35  1  0
 10 36  1  0
 11 37  1  0
 15 38  1  0
 16 39  1  0
 17 40  1  0
 18 41  1  0
 19 42  1  0
 20 43  1  0
 22 44  1  0
 22 45  1  0
 24 46  1  0
 24 47  1  0
 24 48  1  0
 27 49  1  0
 28 50  1  0
M  CHG  1  22   1
M  END
>  <meeko>  (5) 
{"is_sidechain": [false], "free_energy": -9.272, "intermolecular_energy": -11.422, "internal_energy": -1.15}

$$$$
4djv_ligand
     RDKit          3D

 50 53  0  0  0  0  0  0  0  0999 V2000
   21.3330   14.8010   23.0490 C   0  0  0  0  0  0  0  0  0  0  0  0
   20.2090   13.9280   23.1050 O   0  0  0  0  0  0  0  0  0  0  0  0
   20.0160   13.1060   22.0290 C   0  0  0  0  0  0  0  0  0  0  0  0
   18.7880   12.7290   21.4910 C   0  0  0  0  0  0  0  0  0  0  0  0
   18.7430   11.8800   20.3830 C   0  0  0  0  0  0  0  0  0  0  0  0
   19.9250   11.4070   19.8080 C   0  0  0  0  0  0  0  0  0  0  0  0
   21.1740   11.7740   20.3300 C   0  0  0  0  0  0  0  0  0  0  0  0
   22.4230   11.2880   19.7260 C   0  0  0  0  0  0  0  0  0  0  0  0
   22.4740   10.0630   19.0500 C   0  0  0  0  0  0  0  0  0  0  0  0
   23.6620    9.6120   18.4770 C   0  0  0  0  0  0  0  0  0  0  0  0
   24.8290   10.3730   18.5730 C   0  0  0  0  0  0  0  0  0  0  0  0
   24.8250   11.6040   19.2480 C   0  0  0  0  0  0  0  0  0  0  0  0
   26.0720   12.4690   19.4050 C   0  0  1  0  0  0  0  0  0  0  0  0
   27.2560   11.7670   20.0600 C   0  0  0  0  0  0  0  0  0  0  0  0
   27.2870   10.3800   20.2910 C   0  0  0  0  0  0  0  0  0  0  0  0
   28.3990    9.7780   20.8850 C   0  0  0  0  0  0  0  0  0  0  0  0
   29.4980   10.5470   21.2570 C   0  0  0  0  0  0  0  0  0  0  0  0
   29.4890   11.9190   21.0350 C   0  0  0  0  0  0  0  0  0  0  0  0
   28.3800   12.5250   20.4410 C   0  0  0  0  0  0  0  0  0  0  0  0
   26.4270   12.9160   18.0200 N   0  0  0  0  0  0  0  0  0  0  0  0
   26.3890   14.2640   17.9170 C   0  0  0  0  0  0  0  0  0  0  0  0
   26.6470   14.8860   16.7660 N   0  0  0  0  0  0  0  0  0  0  0  0
   26.0660   14.8630   19.0640 N   0  0  0  0  0  0  0  0  0  0  0  0
   25.9330   16.2780   19.3670 C   0  0  0  0  0  0  0  0  0  0  0  0
   25.8370   13.8760   20.0740 C   0  0  0  0  0  0  0  0  0  0  0  0
   25.5080   14.1440   21.2150 O   0  0  0  0  0  0  0  0  0  0  0  0
   23.6060   12.0440   19.8090 C   0  0  0  0  0  0  0  0  0  0  0  0
   21.1950   12.6260   21.4470 C   0  0  0  0  0  0  0  0  0  0  0  0
   21.6546   15.0508   24.0709 H   0  0  0  0  0  0  0  0  0  0  0  0
   22.1572   14.3039   22.5164 H   0  0  0  0  0  0  0  0  0  0  0  0
   21.0553   15.7226   22.5164 H   0  0  0  0  0  0  0  0  0  0  0  0
   17.8540   13.0997   21.9385 H   0  0  0  0  0  0  0  0  0  0  0  0
   17.7718   11.5822   19.9609 H   0  0  0  0  0  0  0  0  0  0  0  0
   19.8756   10.7389   18.9356 H   0  0  0  0  0  0  0  0  0  0  0  0
   21.5651    9.4487   18.9700 H   0  0  0  0  0  0  0  0  0  0  0  0
   23.6804    8.6493   17.9451 H   0  0  0  0  0  0  0  0  0  0  0  0
   25.7593   10.0048   18.1158 H   0  0  0  0  0  0  0  0  0  0  0  0
   26.4250    9.7615   20.0004 H   0  0  0  0  0  0  0  0  0  0  0  0
   28.4061    8.6919   21.0594 H   0  0  0  0  0  0  0  0  0  0  0  0
   30.3715   10.0700   21.7255 H   0  0  0  0  0  0  0  0  0  0  0  0
   30.3568   12.5284   21.3276 H   0  0  0  0  0  0  0  0  0  0  0  0
   28.3845   13.6113   20.2680 H   0  0  0  0  0  0  0  0  0  0  0  0
   26.5560   12.2970   17.2350 H   0  0  0  0  0  0  0  0  0  0  0  0
   26.6100   15.8950   16.6930 H   0  0  0  0  0  0  0  0  0  0  0  0
   26.8830   14.3750   15.9240 H   0  0  0  0  0  0  0  0  0  0  0  0
   25.9197   16.4197   20.4577 H   0  0  0  0  0  0  0  0  0  0  0  0
   26.7835   16.8267   18.9363 H   0  0  0  0  0  0  0  0  0  0  0  0
   24.9951   16.6586   18.9363 H   0  0  0  0  0  0  0  0  0  0  0  0
   23.5809   13.0127   20.3295 H   0  0  0  0  0  0  0  0  0  0  0  0
   22.1634   12.9236   21.8754 H   0  0  0  0  0  0  0  0  0  0  0  0
  1  2  1  0
  2  3  1  0
  3  4  2  0
  4  5  1  0
  5  6  2  0
  6  7  1  0
  7  8  1  0
  8  9  2  0
  9 10  1  0
 10 11  2  0
 11 12  1  0
 13 12  1  6
 13 14  1  0
 14 15  2  0
 15 16  1  0
 16 17  2  0
 17 18  1  0
 18 19  2  0
 13 20  1  0
 20 21  1  0
 21 22  2  0
 21 23  1  0
 23 24  1  0
 23 25  1  0
 25 26  2  0
 12 27  2  0
  7 28  2  0
 28  3  1  0
 27  8  1  0
 25 13  1  0
 19 14  1  0
  1 29  1  0
  1 30  1  0
  1 31  1  0
  4 32  1  0
  5 33  1  0
  6 34  1  0
  9 35  1  0
 10 36  1  0
 11 37  1  0
 15 38  1  0
 16 39  1  0
 17 40  1  0
 18 41  1  0
 19 42  1  0
 20 43  1  0
 22 44  1  0
 22 45  1  0
 24 46  1  0
 24 47  1  0
 24 48  1  0
 27 49  1  0
 28 50  1  0
M  CHG  1  22   1
M  END
>  <meeko>  (6) 
{"is_sidechain": [false], "free_energy": -9.267, "intermolecular_energy": -11.792, "internal_energy": -0.774}

$$$$
4djv_ligand
     RDKit          3D

 50 53  0  0  0  0  0  0  0  0999 V2000
   24.6530   14.5430   18.9970 C   0  0  0  0  0  0  0  0  0  0  0  0
   24.7870   13.4260   18.1240 O   0  0  0  0  0  0  0  0  0  0  0  0
   24.0910   12.2970   18.4590 C   0  0  0  0  0  0  0  0  0  0  0  0
   24.4910   10.9840   18.2270 C   0  0  0  0  0  0  0  0  0  0  0  0
   23.6740    9.9250   18.6280 C   0  0  0  0  0  0  0  0  0  0  0  0
   22.4560   10.1750   19.2630 C   0  0  0  0  0  0  0  0  0  0  0  0
   22.0320   11.4880   19.5110 C   0  0  0  0  0  0  0  0  0  0  0  0
   20.7550   11.7600   20.1870 C   0  0  0  0  0  0  0  0  0  0  0  0
   19.5310   11.5410   19.5440 C   0  0  0  0  0  0  0  0  0  0  0  0
   18.3260   11.7970   20.1950 C   0  0  0  0  0  0  0  0  0  0  0  0
   18.3170   12.2880   21.5020 C   0  0  0  0  0  0  0  0  0  0  0  0
   19.5200   12.5290   22.1830 C   0  0  0  0  0  0  0  0  0  0  0  0
   19.5740   13.0840   23.6030 C   0  0  1  0  0  0  0  0  0  0  0  0
   19.8510   14.5800   23.6920 C   0  0  0  0  0  0  0  0  0  0  0  0
   21.0800   15.1520   23.3150 C   0  0  0  0  0  0  0  0  0  0  0  0
   21.2850   16.5310   23.4020 C   0  0  0  0  0  0  0  0  0  0  0  0
   20.2690   17.3630   23.8640 C   0  0  0  0  0  0  0  0  0  0  0  0
   19.0460   16.8190   24.2390 C   0  0  0  0  0  0  0  0  0  0  0  0
   18.8360   15.4410   24.1530 C   0  0  0  0  0  0  0  0  0  0  0  0
   18.2450   12.7580   24.2120 N   0  0  0  0  0  0  0  0  0  0  0  0
   18.3860   11.9600   25.2950 C   0  0  0  0  0  0  0  0  0  0  0  0
   17.3320   11.5220   25.9840 N   0  0  0  0  0  0  0  0  0  0  0  0
   19.6600   11.6750   25.5660 N   0  0  0  0  0  0  0  0  0  0  0  0
   20.2240   10.8700   26.6380 C   0  0  0  0  0  0  0  0  0  0  0  0
   20.5100   12.2990   24.5990 C   0  0  0  0  0  0  0  0  0  0  0  0
   21.7220   12.1890   24.5960 O   0  0  0  0  0  0  0  0  0  0  0  0
   20.7280   12.2490   21.5060 C   0  0  0  0  0  0  0  0  0  0  0  0
   22.8680   12.5380   19.0970 C   0  0  0  0  0  0  0  0  0  0  0  0
   24.6942   14.1993   20.0411 H   0  0  0  0  0  0  0  0  0  0  0  0
   25.4724   15.2532   18.8121 H   0  0  0  0  0  0  0  0  0  0  0  0
   23.6889   15.0393   18.8121 H   0  0  0  0  0  0  0  0  0  0  0  0
   25.4501   10.7808   17.7281 H   0  0  0  0  0  0  0  0  0  0  0  0
   23.9917    8.8883   18.4426 H   0  0  0  0  0  0  0  0  0  0  0  0
   21.8214    9.3315   19.5725 H   0  0  0  0  0  0  0  0  0  0  0  0
   19.5204   11.1619   18.5114 H   0  0  0  0  0  0  0  0  0  0  0  0
   17.3746   11.6109   19.6753 H   0  0  0  0  0  0  0  0  0  0  0  0
   17.3580   12.4878   22.0025 H   0  0  0  0  0  0  0  0  0  0  0  0
   21.8898   14.5049   22.9470 H   0  0  0  0  0  0  0  0  0  0  0  0
   22.2527   16.9610   23.1044 H   0  0  0  0  0  0  0  0  0  0  0  0
   20.4336   18.4485   23.9322 H   0  0  0  0  0  0  0  0  0  0  0  0
   18.2421   17.4751   24.6042 H   0  0  0  0  0  0  0  0  0  0  0  0
   17.8633   15.0217   24.4497 H   0  0  0  0  0  0  0  0  0  0  0  0
   17.3550   12.9960   23.8020 H   0  0  0  0  0  0  0  0  0  0  0  0
   17.4440   10.9190   26.7900 H   0  0  0  0  0  0  0  0  0  0  0  0
   16.3850   11.7710   25.7260 H   0  0  0  0  0  0  0  0  0  0  0  0
   19.9276   11.2931   27.6091 H   0  0  0  0  0  0  0  0  0  0  0  0
   19.8499    9.8387   26.5578 H   0  0  0  0  0  0  0  0  0  0  0  0
   21.3211   10.8694   26.5578 H   0  0  0  0  0  0  0  0  0  0  0  0
   21.6809   12.4193   22.0285 H   0  0  0  0  0  0  0  0  0  0  0  0
   22.5539   13.5764   19.2786 H   0  0  0  0  0  0  0  0  0  0  0  0
  1  2  1  0
  2  3  1  0
  3  4  2  0
  4  5  1  0
  5  6  2  0
  6  7  1  0
  7  8  1  0
  8  9  2  0
  9 10  1  0
 10 11  2  0
 11 12  1  0
 13 12  1  6
 13 14  1  0
 14 15  2  0
 15 16  1  0
 16 17  2  0
 17 18  1  0
 18 19  2  0
 13 20  1  0
 20 21  1  0
 21 22  2  0
 21 23  1  0
 23 24  1  0
 23 25  1  0
 25 26  2  0
 12 27  2  0
  7 28  2  0
 28  3  1  0
 27  8  1  0
 25 13  1  0
 19 14  1  0
  1 29  1  0
  1 30  1  0
  1 31  1  0
  4 32  1  0
  5 33  1  0
  6 34  1  0
  9 35  1  0
 10 36  1  0
 11 37  1  0
 15 38  1  0
 16 39  1  0
 17 40  1  0
 18 41  1  0
 19 42  1  0
 20 43  1  0
 22 44  1  0
 22 45  1  0
 24 46  1  0
 24 47  1  0
 24 48  1  0
 27 49  1  0
 28 50  1  0
M  CHG  1  22   1
M  END
>  <meeko>  (7) 
{"is_sidechain": [false], "free_energy": -9.259, "intermolecular_energy": -11.4, "internal_energy": -1.155}

$$$$
4djv_ligand
     RDKit          3D

 50 53  0  0  0  0  0  0  0  0999 V2000
   17.5420    9.0390   20.0440 C   0  0  0  0  0  0  0  0  0  0  0  0
   17.9710   10.3570   19.7150 O   0  0  0  0  0  0  0  0  0  0  0  0
   17.9790   11.2720   20.7310 C   0  0  0  0  0  0  0  0  0  0  0  0
   16.9090   11.5840   21.5650 C   0  0  0  0  0  0  0  0  0  0  0  0
   17.0640   12.5440   22.5680 C   0  0  0  0  0  0  0  0  0  0  0  0
   18.2890   13.1920   22.7410 C   0  0  0  0  0  0  0  0  0  0  0  0
   19.3820   12.8930   21.9160 C   0  0  0  0  0  0  0  0  0  0  0  0
   20.6780   13.5640   22.0970 C   0  0  0  0  0  0  0  0  0  0  0  0
   20.8610   14.5340   23.0890 C   0  0  0  0  0  0  0  0  0  0  0  0
   22.0940   15.1610   23.2560 C   0  0  0  0  0  0  0  0  0  0  0  0
   23.1720   14.8380   22.4300 C   0  0  0  0  0  0  0  0  0  0  0  0
   23.0320   13.8750   21.4180 C   0  0  0  0  0  0  0  0  0  0  0  0
   24.1660   13.4950   20.4700 C   0  0  1  0  0  0  0  0  0  0  0  0
   24.0250   12.1200   19.8290 C   0  0  0  0  0  0  0  0  0  0  0  0
   23.7380   10.9590   20.5690 C   0  0  0  0  0  0  0  0  0  0  0  0
   23.6070    9.7200   19.9360 C   0  0  0  0  0  0  0  0  0  0  0  0
   23.7570    9.6190   18.5560 C   0  0  0  0  0  0  0  0  0  0  0  0
   24.0370   10.7550   17.8050 C   0  0  0  0  0  0  0  0  0  0  0  0
   24.1690   11.9950   18.4330 C   0  0  0  0  0  0  0  0  0  0  0  0
   24.1880   14.5650   19.4220 N   0  0  0  0  0  0  0  0  0  0  0  0
   25.3730   15.2180   19.4150 C   0  0  0  0  0  0  0  0  0  0  0  0
   25.6110   16.2280   18.5770 N   0  0  0  0  0  0  0  0  0  0  0  0
   26.2310   14.7440   20.3190 N   0  0  0  0  0  0  0  0  0  0  0  0
   27.5920   15.1600   20.6140 C   0  0  0  0  0  0  0  0  0  0  0  0
   25.6190   13.6780   21.0510 C   0  0  0  0  0  0  0  0  0  0  0  0
   26.1720   13.0760   21.9530 O   0  0  0  0  0  0  0  0  0  0  0  0
   21.7750   13.2450   21.2770 C   0  0  0  0  0  0  0  0  0  0  0  0
   19.2030   11.9270   20.9120 C   0  0  0  0  0  0  0  0  0  0  0  0
   17.5057    8.9275   21.1377 H   0  0  0  0  0  0  0  0  0  0  0  0
   16.5405    8.8639   19.6242 H   0  0  0  0  0  0  0  0  0  0  0  0
   18.2486    8.3079   19.6242 H   0  0  0  0  0  0  0  0  0  0  0  0
   15.9425   11.0752   21.4344 H   0  0  0  0  0  0  0  0  0  0  0  0
   16.2169   12.7908   23.2249 H   0  0  0  0  0  0  0  0  0  0  0  0
   18.3974   13.9462   23.5344 H   0  0  0  0  0  0  0  0  0  0  0  0
   20.0208   14.8049   23.7452 H   0  0  0  0  0  0  0  0  0  0  0  0
   22.2190   15.9169   24.0453 H   0  0  0  0  0  0  0  0  0  0  0  0
   24.1391   15.3421   22.5732 H   0  0  0  0  0  0  0  0  0  0  0  0
   23.6151   11.0270   21.6600 H   0  0  0  0  0  0  0  0  0  0  0  0
   23.3846    8.8216   20.5304 H   0  0  0  0  0  0  0  0  0  0  0  0
   23.6542    8.6423   18.0605 H   0  0  0  0  0  0  0  0  0  0  0  0
   24.1547   10.6767   16.7141 H   0  0  0  0  0  0  0  0  0  0  0  0
   24.3887   12.8876   17.8289 H   0  0  0  0  0  0  0  0  0  0  0  0
   23.3880   14.8480   18.8770 H   0  0  0  0  0  0  0  0  0  0  0  0
   26.4970   16.7170   18.5810 H   0  0  0  0  0  0  0  0  0  0  0  0
   24.9160   16.5460   17.9130 H   0  0  0  0  0  0  0  0  0  0  0  0
   27.7340   15.2034   21.7039 H   0  0  0  0  0  0  0  0  0  0  0  0
   28.2985   14.4368   20.1807 H   0  0  0  0  0  0  0  0  0  0  0  0
   27.7735   16.1546   20.1807 H   0  0  0  0  0  0  0  0  0  0  0  0
   21.6502   12.4780   20.4984 H   0  0  0  0  0  0  0  0  0  0  0  0
   20.0464   11.6788   20.2509 H   0  0  0  0  0  0  0  0  0  0  0  0
  1  2  1  0
  2  3  1  0
  3  4  2  0
  4  5  1  0
  5  6  2  0
  6  7  1  0
  7  8  1  0
  8  9  2  0
  9 10  1  0
 10 11  2  0
 11 12  1  0
 13 12  1  1
 13 14  1  0
 14 15  2  0
 15 16  1  0
 16 17  2  0
 17 18  1  0
 18 19  2  0
 13 20  1  0
 20 21  1  0
 21 22  2  0
 21 23  1  0
 23 24  1  0
 23 25  1  0
 25 26  2  0
 12 27  2  0
  7 28  2  0
 28  3  1  0
 27  8  1  0
 25 13  1  0
 19 14  1  0
  1 29  1  0
  1 30  1  0
  1 31  1  0
  4 32  1  0
  5 33  1  0
  6 34  1  0
  9 35  1  0
 10 36  1  0
 11 37  1  0
 15 38  1  0
 16 39  1  0
 17 40  1  0
 18 41  1  0
 19 42  1  0
 20 43  1  0
 22 44  1  0
 22 45  1  0
 24 46  1  0
 24 47  1  0
 24 48  1  0
 27 49  1  0
 28 50  1  0
M  CHG  1  22   1
M  END
>  <meeko>  (8) 
{"is_sidechain": [false], "free_energy": -9.131, "intermolecular_energy": -11.221, "internal_energy": -1.177}

$$$$
4djv_ligand
     RDKit          3D

 50 53  0  0  0  0  0  0  0  0999 V2000
   18.2990    9.2970   19.9610 C   0  0  0  0  0  0  0  0  0  0  0  0
   17.9990   10.6600   19.6730 O   0  0  0  0  0  0  0  0  0  0  0  0
   18.0850   11.5410   20.7150 C   0  0  0  0  0  0  0  0  0  0  0  0
   17.0580   11.8820   21.5910 C   0  0  0  0  0  0  0  0  0  0  0  0
   17.2920   12.8010   22.6160 C   0  0  0  0  0  0  0  0  0  0  0  0
   18.5540   13.3800   22.7700 C   0  0  0  0  0  0  0  0  0  0  0  0
   19.6050   13.0520   21.9020 C   0  0  0  0  0  0  0  0  0  0  0  0
   20.9380   13.6500   22.0620 C   0  0  0  0  0  0  0  0  0  0  0  0
   21.1810   14.6370   23.0250 C   0  0  0  0  0  0  0  0  0  0  0  0
   22.4490   15.1950   23.1720 C   0  0  0  0  0  0  0  0  0  0  0  0
   23.5040   14.7840   22.3540 C   0  0  0  0  0  0  0  0  0  0  0  0
   23.3050   13.8020   21.3710 C   0  0  0  0  0  0  0  0  0  0  0  0
   24.4110   13.3280   20.4340 C   0  0  1  0  0  0  0  0  0  0  0  0
   25.3770   14.4190   19.9860 C   0  0  0  0  0  0  0  0  0  0  0  0
   24.9610   15.5630   19.2810 C   0  0  0  0  0  0  0  0  0  0  0  0
   25.8810   16.5430   18.9000 C   0  0  0  0  0  0  0  0  0  0  0  0
   27.2290   16.4020   19.2190 C   0  0  0  0  0  0  0  0  0  0  0  0
   27.6600   15.2800   19.9180 C   0  0  0  0  0  0  0  0  0  0  0  0
   26.7440   14.2980   20.3010 C   0  0  0  0  0  0  0  0  0  0  0  0
   25.1400   12.2560   21.1840 N   0  0  0  0  0  0  0  0  0  0  0  0
   25.0770   11.0730   20.5310 C   0  0  0  0  0  0  0  0  0  0  0  0
   25.6370    9.9690   21.0260 N   0  0  0  0  0  0  0  0  0  0  0  0
   24.4040   11.1510   19.3820 N   0  0  0  0  0  0  0  0  0  0  0  0
   24.1270   10.1180   18.3970 C   0  0  0  0  0  0  0  0  0  0  0  0
   23.9280   12.4870   19.1920 C   0  0  0  0  0  0  0  0  0  0  0  0
   23.2660   12.8360   18.2330 O   0  0  0  0  0  0  0  0  0  0  0  0
   22.0130   13.2430   21.2500 C   0  0  0  0  0  0  0  0  0  0  0  0
   19.3460   12.1270   20.8760 C   0  0  0  0  0  0  0  0  0  0  0  0
   18.3311    9.1510   21.0508 H   0  0  0  0  0  0  0  0  0  0  0  0
   17.5216    8.6509   19.5273 H   0  0  0  0  0  0  0  0  0  0  0  0
   19.2759    9.0370   19.5273 H   0  0  0  0  0  0  0  0  0  0  0  0
   16.0628   11.4277   21.4757 H   0  0  0  0  0  0  0  0  0  0  0  0
   16.4785   13.0704   23.3057 H   0  0  0  0  0  0  0  0  0  0  0  0
   18.7252   14.1020   23.5821 H   0  0  0  0  0  0  0  0  0  0  0  0
   20.3601   14.9762   23.6739 H   0  0  0  0  0  0  0  0  0  0  0  0
   22.6207   15.9653   23.9383 H   0  0  0  0  0  0  0  0  0  0  0  0
   24.4997   15.2339   22.4813 H   0  0  0  0  0  0  0  0  0  0  0  0
   23.8981   15.6875   19.0265 H   0  0  0  0  0  0  0  0  0  0  0  0
   25.5390   17.4295   18.3458 H   0  0  0  0  0  0  0  0  0  0  0  0
   27.9508   17.1759   18.9189 H   0  0  0  0  0  0  0  0  0  0  0  0
   28.7247   15.1657   20.1698 H   0  0  0  0  0  0  0  0  0  0  0  0
   27.0957   13.4166   20.8572 H   0  0  0  0  0  0  0  0  0  0  0  0
   25.5220   12.3650   22.1110 H   0  0  0  0  0  0  0  0  0  0  0  0
   25.5800    9.0850   20.5360 H   0  0  0  0  0  0  0  0  0  0  0  0
   26.1330    9.9720   21.9090 H   0  0  0  0  0  0  0  0  0  0  0  0
   23.8752    9.1789   18.9115 H   0  0  0  0  0  0  0  0  0  0  0  0
   23.2806   10.4294   17.7672 H   0  0  0  0  0  0  0  0  0  0  0  0
   25.0156    9.9642   17.7672 H   0  0  0  0  0  0  0  0  0  0  0  0
   21.8413   12.4622   20.4945 H   0  0  0  0  0  0  0  0  0  0  0  0
   20.1551   11.8566   20.1816 H   0  0  0  0  0  0  0  0  0  0  0  0
  1  2  1  0
  2  3  1  0
  3  4  2  0
  4  5  1  0
  5  6  2  0
  6  7  1  0
  7  8  1  0
  8  9  2  0
  9 10  1  0
 10 11  2  0
 11 12  1  0
 13 12  1  1
 13 14  1  0
 14 15  2  0
 15 16  1  0
 16 17  2  0
 17 18  1  0
 18 19  2  0
 13 20  1  0
 20 21  1  0
 21 22  2  0
 21 23  1  0
 23 24  1  0
 23 25  1  0
 25 26  2  0
 12 27  2  0
  7 28  2  0
 28  3  1  0
 27  8  1  0
 25 13  1  0
 19 14  1  0
  1 29  1  0
  1 30  1  0
  1 31  1  0
  4 32  1  0
  5 33  1  0
  6 34  1  0
  9 35  1  0
 10 36  1  0
 11 37  1  0
 15 38  1  0
 16 39  1  0
 17 40  1  0
 18 41  1  0
 19 42  1  0
 20 43  1  0
 22 44  1  0
 22 45  1  0
 24 46  1  0
 24 47  1  0
 24 48  1  0
 27 49  1  0
 28 50  1  0
M  CHG  1  22   1
M  END
>  <meeko>  (9) 
{"is_sidechain": [false], "free_energy": -8.997, "intermolecular_energy": -10.911, "internal_energy": -1.321}

$$$$
