4jia_ligand
     RDKit          3D

 58 62  0  0  0  0  0  0  0  0999 V2000
    7.1620  -25.5590  -20.1120 C   0  0  0  0  0  0  0  0  0  0  0  0
    8.1320  -24.6070  -20.5330 O   0  0  0  0  0  0  0  0  0  0  0  0
    9.4400  -25.0050  -20.5110 C   0  0  0  0  0  0  0  0  0  0  0  0
    9.6480  -26.2940  -20.0180 C   0  0  0  0  0  0  0  0  0  0  0  0
   10.9370  -26.8300  -19.9410 C   0  0  0  0  0  0  0  0  0  0  0  0
   12.0430  -26.0780  -20.3590 C   0  0  0  0  0  0  0  0  0  0  0  0
   13.4050  -26.6390  -20.2900 C   0  0  0  0  0  0  0  0  0  0  0  0
   13.5730  -27.9500  -20.0040 C   0  0  0  0  0  0  0  0  0  0  0  0
   14.9120  -28.5120  -19.9430 C   0  0  0  0  0  0  0  0  0  0  0  0
   16.0020  -27.7560  -20.1710 C   0  0  0  0  0  0  0  0  0  0  0  0
   15.8460  -26.3780  -20.4780 C   0  0  0  0  0  0  0  0  0  0  0  0
   16.7250  -25.4380  -20.7360 N   0  0  0  0  0  0  0  0  0  0  0  0
   15.9560  -24.3320  -20.9510 C   0  0  0  0  0  0  0  0  0  0  0  0
   16.4770  -23.1260  -21.2390 N   0  0  0  0  0  0  0  0  0  0  0  0
   17.7810  -22.6810  -21.5130 C   0  0  0  0  0  0  0  0  0  0  0  0
   18.1510  -22.4530  -22.8440 C   0  0  0  0  0  0  0  0  0  0  0  0
   19.4330  -21.9920  -23.1850 C   0  0  0  0  0  0  0  0  0  0  0  0
   20.3970  -21.7280  -22.2060 C   0  0  0  0  0  0  0  0  0  0  0  0
   21.6920  -21.2620  -22.4910 N   0  0  0  0  0  0  0  0  0  0  0  0
   22.7840  -21.6960  -21.5980 C   0  0  0  0  0  0  0  0  0  0  0  0
   24.0570  -20.8650  -21.8610 C   0  0  0  0  0  0  0  0  0  0  0  0
   24.4640  -20.9000  -23.3330 N   0  0  0  0  0  0  0  0  0  0  0  0
   25.0970  -22.1930  -23.7500 C   0  0  0  0  0  0  0  0  0  0  0  0
   23.2960  -20.4790  -24.2220 C   0  0  0  0  0  0  0  0  0  0  0  0
   22.0210  -21.3000  -23.9340 C   0  0  0  0  0  0  0  0  0  0  0  0
   20.0250  -21.9720  -20.8770 C   0  0  0  0  0  0  0  0  0  0  0  0
   18.7440  -22.4330  -20.5360 C   0  0  0  0  0  0  0  0  0  0  0  0
   14.6440  -24.5330  -20.8420 N   0  0  0  0  0  0  0  0  0  0  0  0
   14.5520  -25.8530  -20.5330 N   0  0  0  0  0  0  0  0  0  0  0  0
   11.8290  -24.7830  -20.8490 C   0  0  0  0  0  0  0  0  0  0  0  0
   10.5360  -24.2490  -20.9260 C   0  0  0  0  0  0  0  0  0  0  0  0
    7.1310  -25.5894  -19.0129 H   0  0  0  0  0  0  0  0  0  0  0  0
    6.1734  -25.2708  -20.4988 H   0  0  0  0  0  0  0  0  0  0  0  0
    7.4316  -26.5528  -20.4988 H   0  0  0  0  0  0  0  0  0  0  0  0
    8.7883  -26.8948  -19.6864 H   0  0  0  0  0  0  0  0  0  0  0  0
   11.0837  -27.8477  -19.5501 H   0  0  0  0  0  0  0  0  0  0  0  0
   12.6979  -28.5899  -19.8179 H   0  0  0  0  0  0  0  0  0  0  0  0
   15.0373  -29.5787  -19.7053 H   0  0  0  0  0  0  0  0  0  0  0  0
   17.0062  -28.2020  -20.1200 H   0  0  0  0  0  0  0  0  0  0  0  0
   15.7800  -22.3940  -21.2740 H   0  0  0  0  0  0  0  0  0  0  0  0
   17.4186  -22.6398  -23.6432 H   0  0  0  0  0  0  0  0  0  0  0  0
   19.6846  -21.8352  -24.2443 H   0  0  0  0  0  0  0  0  0  0  0  0
   22.4723  -21.5601  -20.5519 H   0  0  0  0  0  0  0  0  0  0  0  0
   23.0037  -22.7561  -21.7926 H   0  0  0  0  0  0  0  0  0  0  0  0
   23.8676  -19.8216  -21.5688 H   0  0  0  0  0  0  0  0  0  0  0  0
   24.8766  -21.2990  -21.2695 H   0  0  0  0  0  0  0  0  0  0  0  0
   25.1830  -20.1750  -23.4460 H   0  0  0  0  0  0  0  0  0  0  0  0
   25.3787  -22.7685  -22.8559 H   0  0  0  0  0  0  0  0  0  0  0  0
   24.3818  -22.7747  -24.3501 H   0  0  0  0  0  0  0  0  0  0  0  0
   25.9951  -21.9848  -24.3501 H   0  0  0  0  0  0  0  0  0  0  0  0
   23.0804  -19.4151  -24.0440 H   0  0  0  0  0  0  0  0  0  0  0  0
   23.5850  -20.6584  -25.2681 H   0  0  0  0  0  0  0  0  0  0  0  0
   21.1822  -20.8783  -24.5073 H   0  0  0  0  0  0  0  0  0  0  0  0
   22.1972  -22.3446  -24.2303 H   0  0  0  0  0  0  0  0  0  0  0  0
   20.7593  -21.7969  -20.0769 H   0  0  0  0  0  0  0  0  0  0  0  0
   18.4952  -22.6018  -19.4779 H   0  0  0  0  0  0  0  0  0  0  0  0
   12.6869  -24.1779  -21.1774 H   0  0  0  0  0  0  0  0  0  0  0  0
   10.3849  -23.2311  -21.3147 H   0  0  0  0  0  0  0  0  0  0  0  0
  1  2  1  0
  2  3  1  0
  3  4  2  0
  4  5  1  0
  5  6  2  0
  6  7  1  0
  7  8  2  0
  8  9  1  0
  9 10  2  0
 10 11  1  0
 11 12  2  0
 12 13  1  0
 13 14  1  0
 14 15  1  0
 15 16  2  0
 16 17  1  0
 17 18  2  0
 18 19  1  0
 19 20  1  0
 20 21  1  0
 21 22  1  0
 22 23  1  0
 22 24  1  0
 24 25  1  0
 18 26  1  0
 26 27  2  0
 13 28  2  0
 28 29  1  0
  6 30  1  0
 30 31  2  0
 31  3  1  0
 29  7  1  0
 29 11  1  0
 27 15  1  0
 25 19  1  0
  1 32  1  0
  1 33  1  0
  1 34  1  0
  4 35  1  0
  5 36  1  0
  8 37  1  0
  9 38  1  0
 10 39  1  0
 14 40  1  0
 16 41  1  0
 17 42  1  0
 20 43  1  0
 20 44  1  0
 21 45  1  0
 21 46  1  0
 22 47  1  0
 23 48  1  0
 23 49  1  0
 23 50  1  0
 24 51  1  0
 24 52  1  0
 25 53  1  0
 25 54  1  0
 26 55  1  0
 27 56  1  0
 30 57  1  0
 31 58  1  0
M  CHG  1  22   1
M  END
>  <meeko>  (1) 
{"is_sidechain": [false], "free_energy": -9.691, "intermolecular_energy": -12.523, "internal_energy": -0.237}

$$$$
4jia_ligand
     RDKit          3D

 58 62  0  0  0  0  0  0  0  0999 V2000
   16.0520  -28.6490  -19.4330 C   0  0  0  0  0  0  0  0  0  0  0  0
   14.7900  -29.2380  -19.7240 O   0  0  0  0  0  0  0  0  0  0  0  0
   13.7150  -28.3960  -19.7870 C   0  0  0  0  0  0  0  0  0  0  0  0
   13.8480  -27.3480  -20.7000 C   0  0  0  0  0  0  0  0  0  0  0  0
   12.8230  -26.4130  -20.8680 C   0  0  0  0  0  0  0  0  0  0  0  0
   11.6430  -26.5130  -20.1200 C   0  0  0  0  0  0  0  0  0  0  0  0
   10.5520  -25.5360  -20.2980 C   0  0  0  0  0  0  0  0  0  0  0  0
    9.2730  -25.9690  -20.3640 C   0  0  0  0  0  0  0  0  0  0  0  0
    8.1920  -25.0120  -20.5300 C   0  0  0  0  0  0  0  0  0  0  0  0
    8.4310  -23.6910  -20.6160 C   0  0  0  0  0  0  0  0  0  0  0  0
    9.7680  -23.2150  -20.5440 C   0  0  0  0  0  0  0  0  0  0  0  0
   10.2660  -22.0030  -20.6020 N   0  0  0  0  0  0  0  0  0  0  0  0
   11.6090  -22.2020  -20.4740 C   0  0  0  0  0  0  0  0  0  0  0  0
   12.5020  -21.1960  -20.4950 N   0  0  0  0  0  0  0  0  0  0  0  0
   13.9040  -21.1550  -20.5560 C   0  0  0  0  0  0  0  0  0  0  0  0
   14.6320  -21.1450  -19.3600 C   0  0  0  0  0  0  0  0  0  0  0  0
   16.0360  -21.1210  -19.3500 C   0  0  0  0  0  0  0  0  0  0  0  0
   16.7730  -21.1200  -20.5390 C   0  0  0  0  0  0  0  0  0  0  0  0
   18.1770  -21.1010  -20.5880 N   0  0  0  0  0  0  0  0  0  0  0  0
   18.8500  -22.2050  -21.2980 C   0  0  0  0  0  0  0  0  0  0  0  0
   20.3630  -22.1960  -20.9960 C   0  0  0  0  0  0  0  0  0  0  0  0
   20.9960  -20.8400  -21.3050 N   0  0  0  0  0  0  0  0  0  0  0  0
   21.1810  -20.5830  -22.7690 C   0  0  0  0  0  0  0  0  0  0  0  0
   20.2480  -19.7240  -20.5790 C   0  0  0  0  0  0  0  0  0  0  0  0
   18.7330  -19.7560  -20.8690 C   0  0  0  0  0  0  0  0  0  0  0  0
   16.0380  -21.1150  -21.7330 C   0  0  0  0  0  0  0  0  0  0  0  0
   14.6350  -21.1370  -21.7430 C   0  0  0  0  0  0  0  0  0  0  0  0
   11.9750  -23.4760  -20.3380 N   0  0  0  0  0  0  0  0  0  0  0  0
   10.7960  -24.1490  -20.3840 N   0  0  0  0  0  0  0  0  0  0  0  0
   11.5160  -27.5640  -19.2030 C   0  0  0  0  0  0  0  0  0  0  0  0
   12.5440  -28.5010  -19.0370 C   0  0  0  0  0  0  0  0  0  0  0  0
   16.1850  -28.5869  -18.3428 H   0  0  0  0  0  0  0  0  0  0  0  0
   16.8532  -29.2662  -19.8656 H   0  0  0  0  0  0  0  0  0  0  0  0
   16.0935  -27.6385  -19.8656 H   0  0  0  0  0  0  0  0  0  0  0  0
   14.7697  -27.2573  -21.2936 H   0  0  0  0  0  0  0  0  0  0  0  0
   12.9436  -25.5937  -21.5920 H   0  0  0  0  0  0  0  0  0  0  0  0
    9.0509  -27.0440  -20.2922 H   0  0  0  0  0  0  0  0  0  0  0  0
    7.1555  -25.3759  -20.5866 H   0  0  0  0  0  0  0  0  0  0  0  0
    7.5974  -22.9843  -20.7412 H   0  0  0  0  0  0  0  0  0  0  0  0
   12.0670  -20.2830  -20.4710 H   0  0  0  0  0  0  0  0  0  0  0  0
   14.0898  -21.1562  -18.4030 H   0  0  0  0  0  0  0  0  0  0  0  0
   16.5674  -21.1026  -18.3871 H   0  0  0  0  0  0  0  0  0  0  0  0
   18.4205  -23.1627  -20.9689 H   0  0  0  0  0  0  0  0  0  0  0  0
   18.7016  -22.0760  -22.3803 H   0  0  0  0  0  0  0  0  0  0  0  0
   20.5147  -22.4252  -19.9309 H   0  0  0  0  0  0  0  0  0  0  0  0
   20.8435  -22.9510  -21.6356 H   0  0  0  0  0  0  0  0  0  0  0  0
   21.9370  -20.8660  -20.8920 H   0  0  0  0  0  0  0  0  0  0  0  0
   21.8185  -19.6974  -22.9081 H   0  0  0  0  0  0  0  0  0  0  0  0
   21.6591  -21.4561  -23.2370 H   0  0  0  0  0  0  0  0  0  0  0  0
   20.2013  -20.4067  -23.2370 H   0  0  0  0  0  0  0  0  0  0  0  0
   20.4043  -19.8384  -19.4962 H   0  0  0  0  0  0  0  0  0  0  0  0
   20.6415  -18.7623  -20.9398 H   0  0  0  0  0  0  0  0  0  0  0  0
   18.2272  -19.0153  -20.2322 H   0  0  0  0  0  0  0  0  0  0  0  0
   18.5698  -19.5192  -21.9307 H   0  0  0  0  0  0  0  0  0  0  0  0
   16.5777  -21.0932  -22.6912 H   0  0  0  0  0  0  0  0  0  0  0  0
   14.1020  -21.1401  -22.7053 H   0  0  0  0  0  0  0  0  0  0  0  0
   10.5970  -27.6548  -18.6053 H   0  0  0  0  0  0  0  0  0  0  0  0
   12.4273  -29.3213  -18.3135 H   0  0  0  0  0  0  0  0  0  0  0  0
  1  2  1  0
  2  3  1  0
  3  4  2  0
  4  5  1  0
  5  6  2  0
  6  7  1  0
  7  8  2  0
  8  9  1  0
  9 10  2  0
 10 11  1  0
 11 12  2  0
 12 13  1  0
 13 14  1  0
 14 15  1  0
 15 16  2  0
 16 17  1  0
 17 18  2  0
 18 19  1  0
 19 20  1  0
 20 21  1  0
 21 22  1  0
 22 23  1  0
 22 24  1  0
 24 25  1  0
 18 26  1  0
 26 27  2  0
 13 28  2  0
 28 29  1  0
  6 30  1  0
 30 31  2  0
 31  3  1  0
 29  7  1  0
 29 11  1  0
 27 15  1  0
 25 19  1  0
  1 32  1  0
  1 33  1  0
  1 34  1  0
  4 35  1  0
  5 36  1  0
  8 37  1  0
  9 38  1  0
 10 39  1  0
 14 40  1  0
 16 41  1  0
 17 42  1  0
 20 43  1  0
 20 44  1  0
 21 45  1  0
 21 46  1  0
 22 47  1  0
 23 48  1  0
 23 49  1  0
 23 50  1  0
 24 51  1  0
 24 52  1  0
 25 53  1  0
 25 54  1  0
 26 55  1  0
 27 56  1  0
 30 57  1  0
 31 58  1  0
M  CHG  1  22   1
M  END
>  <meeko>  (2) 
{"is_sidechain": [false], "free_energy": -9.414, "intermolecular_energy": -11.714, "internal_energy": -0.688}

$$$$
4jia_ligand
     RDKit          3D

 58 62  0  0  0  0  0  0  0  0999 V2000
    7.6940  -23.1810  -21.9470 C   0  0  0  0  0  0  0  0  0  0  0  0
    8.8940  -22.9070  -21.2330 O   0  0  0  0  0  0  0  0  0  0  0  0
    9.6780  -23.9790  -20.9060 C   0  0  0  0  0  0  0  0  0  0  0  0
   11.0510  -23.7290  -20.9410 C   0  0  0  0  0  0  0  0  0  0  0  0
   11.9680  -24.7350  -20.6270 C   0  0  0  0  0  0  0  0  0  0  0  0
   11.5220  -26.0150  -20.2730 C   0  0  0  0  0  0  0  0  0  0  0  0
   12.4830  -27.0810  -19.9310 C   0  0  0  0  0  0  0  0  0  0  0  0
   12.0380  -28.2220  -19.3590 C   0  0  0  0  0  0  0  0  0  0  0  0
   12.9770  -29.2800  -19.0270 C   0  0  0  0  0  0  0  0  0  0  0  0
   14.2930  -29.1560  -19.2820 C   0  0  0  0  0  0  0  0  0  0  0  0
   14.7800  -27.9670  -19.8870 C   0  0  0  0  0  0  0  0  0  0  0  0
   15.9910  -27.5980  -20.2330 N   0  0  0  0  0  0  0  0  0  0  0  0
   15.8070  -26.3540  -20.7620 C   0  0  0  0  0  0  0  0  0  0  0  0
   16.8200  -25.6050  -21.2350 N   0  0  0  0  0  0  0  0  0  0  0  0
   17.2960  -24.3220  -20.9200 C   0  0  0  0  0  0  0  0  0  0  0  0
   16.6530  -23.2080  -21.4750 C   0  0  0  0  0  0  0  0  0  0  0  0
   17.0680  -21.8980  -21.1870 C   0  0  0  0  0  0  0  0  0  0  0  0
   18.1380  -21.6450  -20.3220 C   0  0  0  0  0  0  0  0  0  0  0  0
   18.5920  -20.3560  -19.9960 N   0  0  0  0  0  0  0  0  0  0  0  0
   19.9520  -19.9820  -20.4310 C   0  0  0  0  0  0  0  0  0  0  0  0
   20.3980  -18.6780  -19.7390 C   0  0  0  0  0  0  0  0  0  0  0  0
   19.3920  -17.5480  -19.9530 N   0  0  0  0  0  0  0  0  0  0  0  0
   19.4370  -16.9560  -21.3290 C   0  0  0  0  0  0  0  0  0  0  0  0
   17.9940  -17.9890  -19.5250 C   0  0  0  0  0  0  0  0  0  0  0  0
   17.5670  -19.3070  -20.2040 C   0  0  0  0  0  0  0  0  0  0  0  0
   18.7860  -22.7650  -19.7810 C   0  0  0  0  0  0  0  0  0  0  0  0
   18.3720  -24.0740  -20.0690 C   0  0  0  0  0  0  0  0  0  0  0  0
   14.5450  -25.9280  -20.7660 N   0  0  0  0  0  0  0  0  0  0  0  0
   13.8630  -26.9590  -20.2000 N   0  0  0  0  0  0  0  0  0  0  0  0
   10.1440  -26.2620  -20.2440 C   0  0  0  0  0  0  0  0  0  0  0  0
    9.2260  -25.2510  -20.5580 C   0  0  0  0  0  0  0  0  0  0  0  0
    6.8775  -23.3674  -21.2339 H   0  0  0  0  0  0  0  0  0  0  0  0
    7.4385  -22.3181  -22.5795 H   0  0  0  0  0  0  0  0  0  0  0  0
    7.8384  -24.0693  -22.5795 H   0  0  0  0  0  0  0  0  0  0  0  0
   11.4148  -22.7288  -21.2189 H   0  0  0  0  0  0  0  0  0  0  0  0
   13.0465  -24.5209  -20.6579 H   0  0  0  0  0  0  0  0  0  0  0  0
   10.9665  -28.3494  -19.1452 H   0  0  0  0  0  0  0  0  0  0  0  0
   12.6045  -30.2022  -18.5571 H   0  0  0  0  0  0  0  0  0  0  0  0
   14.9863  -29.9700  -19.0236 H   0  0  0  0  0  0  0  0  0  0  0  0
   17.3490  -26.0710  -21.9600 H   0  0  0  0  0  0  0  0  0  0  0  0
   15.8014  -23.3635  -22.1536 H   0  0  0  0  0  0  0  0  0  0  0  0
   16.5403  -21.0521  -21.6517 H   0  0  0  0  0  0  0  0  0  0  0  0
   20.6514  -20.7893  -20.1683 H   0  0  0  0  0  0  0  0  0  0  0  0
   19.9479  -19.8249  -21.5197 H   0  0  0  0  0  0  0  0  0  0  0  0
   20.4993  -18.8646  -18.6597 H   0  0  0  0  0  0  0  0  0  0  0  0
   21.3575  -18.3688  -20.1791 H   0  0  0  0  0  0  0  0  0  0  0  0
   19.6650  -16.7990  -19.3040 H   0  0  0  0  0  0  0  0  0  0  0  0
   19.5202  -15.8617  -21.2548 H   0  0  0  0  0  0  0  0  0  0  0  0
   20.3075  -17.3540  -21.8711 H   0  0  0  0  0  0  0  0  0  0  0  0
   18.5164  -17.2178  -21.8711 H   0  0  0  0  0  0  0  0  0  0  0  0
   17.9860  -18.1332  -18.4345 H   0  0  0  0  0  0  0  0  0  0  0  0
   17.2841  -17.2059  -19.8297 H   0  0  0  0  0  0  0  0  0  0  0  0
   16.6127  -19.6434  -19.7726 H   0  0  0  0  0  0  0  0  0  0  0  0
   17.4547  -19.1297  -21.2838 H   0  0  0  0  0  0  0  0  0  0  0  0
   19.6447  -22.6124  -19.1107 H   0  0  0  0  0  0  0  0  0  0  0  0
   18.9067  -24.9211  -19.6146 H   0  0  0  0  0  0  0  0  0  0  0  0
    9.7774  -27.2626  -19.9712 H   0  0  0  0  0  0  0  0  0  0  0  0
    8.1467  -25.4614  -20.5299 H   0  0  0  0  0  0  0  0  0  0  0  0
  1  2  1  0
  2  3  1  0
  3  4  2  0
  4  5  1  0
  5  6  2  0
  6  7  1  0
  7  8  2  0
  8  9  1  0
  9 10  2  0
 10 11  1  0
 11 12  2  0
 12 13  1  0
 13 14  1  0
 14 15  1  0
 15 16  2  0
 16 17  1  0
 17 18  2  0
 18 19  1  0
 19 20  1  0
 20 21  1  0
 21 22  1  0
 22 23  1  0
 22 24  1  0
 24 25  1  0
 18 26  1  0
 26 27  2  0
 13 28  2  0
 28 29  1  0
  6 30  1  0
 30 31  2  0
 31  3  1  0
 29  7  1  0
 29 11  1  0
 27 15  1  0
 25 19  1  0
  1 32  1  0
  1 33  1  0
  1 34  1  0
  4 35  1  0
  5 36  1  0
  8 37  1  0
  9 38  1  0
 10 39  1  0
 14 40  1  0
 16 41  1  0
 17 42  1  0
 20 43  1  0
 20 44  1  0
 21 45  1  0
 21 46  1  0
 22 47  1  0
 23 48  1  0
 23 49  1  0
 23 50  1  0
 24 51  1  0
 24 52  1  0
 25 53  1  0
 25 54  1  0
 26 55  1  0
 27 56  1  0
 30 57  1  0
 31 58  1  0
M  CHG  1  22   1
M  END
>  <meeko>  (3) 
{"is_sidechain": [false], "free_energy": -9.385, "intermolecular_energy": -12.086, "internal_energy": -0.278}

$$$$
4jia_ligand
     RDKit          3D

 58 62  0  0  0  0  0  0  0  0999 V2000
   15.2610  -29.1760  -19.7300 C   0  0  0  0  0  0  0  0  0  0  0  0
   13.8770  -29.1890  -19.3970 O   0  0  0  0  0  0  0  0  0  0  0  0
   13.1580  -28.0670  -19.7030 C   0  0  0  0  0  0  0  0  0  0  0  0
   11.9520  -27.9420  -19.0100 C   0  0  0  0  0  0  0  0  0  0  0  0
   11.1160  -26.8420  -19.2240 C   0  0  0  0  0  0  0  0  0  0  0  0
   11.4780  -25.8450  -20.1390 C   0  0  0  0  0  0  0  0  0  0  0  0
   10.6070  -24.6760  -20.3630 C   0  0  0  0  0  0  0  0  0  0  0  0
    9.3870  -24.8490  -20.9210 C   0  0  0  0  0  0  0  0  0  0  0  0
    8.5200  -23.7040  -21.1360 C   0  0  0  0  0  0  0  0  0  0  0  0
    8.8990  -22.4610  -20.7870 C   0  0  0  0  0  0  0  0  0  0  0  0
   10.1740  -22.2580  -20.1950 C   0  0  0  0  0  0  0  0  0  0  0  0
   10.7750  -21.1710  -19.7730 N   0  0  0  0  0  0  0  0  0  0  0  0
   11.9740  -21.6280  -19.3100 C   0  0  0  0  0  0  0  0  0  0  0  0
   12.9140  -20.8170  -18.7920 N   0  0  0  0  0  0  0  0  0  0  0  0
   14.1820  -20.4070  -19.2360 C   0  0  0  0  0  0  0  0  0  0  0  0
   15.0840  -21.3760  -19.6910 C   0  0  0  0  0  0  0  0  0  0  0  0
   16.3610  -21.0310  -20.1640 C   0  0  0  0  0  0  0  0  0  0  0  0
   16.7850  -19.6990  -20.2140 C   0  0  0  0  0  0  0  0  0  0  0  0
   18.0480  -19.2980  -20.6810 N   0  0  0  0  0  0  0  0  0  0  0  0
   18.4510  -17.8990  -20.4410 C   0  0  0  0  0  0  0  0  0  0  0  0
   19.7040  -17.5500  -21.2710 C   0  0  0  0  0  0  0  0  0  0  0  0
   20.8460  -18.5330  -21.0160 N   0  0  0  0  0  0  0  0  0  0  0  0
   21.5330  -18.3270  -19.7010 C   0  0  0  0  0  0  0  0  0  0  0  0
   20.3760  -19.9680  -21.2410 C   0  0  0  0  0  0  0  0  0  0  0  0
   19.1090  -20.2990  -20.4250 C   0  0  0  0  0  0  0  0  0  0  0  0
   15.8820  -18.7350  -19.7430 C   0  0  0  0  0  0  0  0  0  0  0  0
   14.6070  -19.0790  -19.2690 C   0  0  0  0  0  0  0  0  0  0  0  0
   12.1510  -22.9440  -19.4200 N   0  0  0  0  0  0  0  0  0  0  0  0
   10.9960  -23.3700  -19.9940 N   0  0  0  0  0  0  0  0  0  0  0  0
   12.6870  -25.9760  -20.8340 C   0  0  0  0  0  0  0  0  0  0  0  0
   13.5230  -27.0800  -20.6170 C   0  0  0  0  0  0  0  0  0  0  0  0
   15.8601  -29.1704  -18.8075 H   0  0  0  0  0  0  0  0  0  0  0  0
   15.5046  -30.0719  -20.3199 H   0  0  0  0  0  0  0  0  0  0  0  0
   15.4878  -28.2757  -20.3199 H   0  0  0  0  0  0  0  0  0  0  0  0
   11.6566  -28.7175  -18.2879 H   0  0  0  0  0  0  0  0  0  0  0  0
   10.1688  -26.7590  -18.6708 H   0  0  0  0  0  0  0  0  0  0  0  0
    9.0520  -25.8557  -21.2115 H   0  0  0  0  0  0  0  0  0  0  0  0
    7.5317  -23.8562  -21.5943 H   0  0  0  0  0  0  0  0  0  0  0  0
    8.2261  -21.6080  -20.9590 H   0  0  0  0  0  0  0  0  0  0  0  0
   12.6420  -20.4160  -17.9040 H   0  0  0  0  0  0  0  0  0  0  0  0
   14.7852  -22.4346  -19.6778 H   0  0  0  0  0  0  0  0  0  0  0  0
   17.0423  -21.8256  -20.5024 H   0  0  0  0  0  0  0  0  0  0  0  0
   17.6271  -17.2299  -20.7298 H   0  0  0  0  0  0  0  0  0  0  0  0
   18.6839  -17.7730  -19.3733 H   0  0  0  0  0  0  0  0  0  0  0  0
   19.4425  -17.5774  -22.3391 H   0  0  0  0  0  0  0  0  0  0  0  0
   20.0433  -16.5471  -20.9725 H   0  0  0  0  0  0  0  0  0  0  0  0
   21.5480  -18.3460  -21.7440 H   0  0  0  0  0  0  0  0  0  0  0  0
   20.8291  -18.5381  -18.8825 H   0  0  0  0  0  0  0  0  0  0  0  0
   22.3952  -19.0061  -19.6274 H   0  0  0  0  0  0  0  0  0  0  0  0
   21.8793  -17.2855  -19.6274 H   0  0  0  0  0  0  0  0  0  0  0  0
   20.1553  -20.1054  -22.3098 H   0  0  0  0  0  0  0  0  0  0  0  0
   21.1785  -20.6431  -20.9089 H   0  0  0  0  0  0  0  0  0  0  0  0
   18.7432  -21.2954  -20.7136 H   0  0  0  0  0  0  0  0  0  0  0  0
   19.3620  -20.2819  -19.3546 H   0  0  0  0  0  0  0  0  0  0  0  0
   16.1824  -17.6768  -19.7452 H   0  0  0  0  0  0  0  0  0  0  0  0
   13.9301  -18.2867  -18.9169 H   0  0  0  0  0  0  0  0  0  0  0  0
   12.9839  -25.2035  -21.5586 H   0  0  0  0  0  0  0  0  0  0  0  0
   14.4700  -27.1677  -21.1697 H   0  0  0  0  0  0  0  0  0  0  0  0
  1  2  1  0
  2  3  1  0
  3  4  2  0
  4  5  1  0
  5  6  2  0
  6  7  1  0
  7  8  2  0
  8  9  1  0
  9 10  2  0
 10 11  1  0
 11 12  2  0
 12 13  1  0
 13 14  1  0
 14 15  1  0
 15 16  2  0
 16 17  1  0
 17 18  2  0
 18 19  1  0
 19 20  1  0
 20 21  1  0
 21 22  1  0
 22 23  1  0
 22 24  1  0
 24 25  1  0
 18 26  1  0
 26 27  2  0
 13 28  2  0
 28 29  1  0
  6 30  1  0
 30 31  2  0
 31  3  1  0
 29  7  1  0
 29 11  1  0
 27 15  1  0
 25 19  1  0
  1 32  1  0
  1 33  1  0
  1 34  1  0
  4 35  1  0
  5 36  1  0
  8 37  1  0
  9 38  1  0
 10 39  1  0
 14 40  1  0
 16 41  1  0
 17 42  1  0
 20 43  1  0
 20 44  1  0
 21 45  1  0
 21 46  1  0
 22 47  1  0
 23 48  1  0
 23 49  1  0
 23 50  1  0
 24 51  1  0
 24 52  1  0
 25 53  1  0
 25 54  1  0
 26 55  1  0
 27 56  1  0
 30 57  1  0
 31 58  1  0
M  CHG  1  22   1
M  END
>  <meeko>  (4) 
{"is_sidechain": [false], "free_energy": -9.18, "intermolecular_energy": -11.397, "internal_energy": -0.702}

$$$$
4jia_ligand
     RDKit          3D

 58 62  0  0  0  0  0  0  0  0999 V2000
   17.8820  -27.3980  -18.6590 C   0  0  0  0  0  0  0  0  0  0  0  0
   17.4340  -26.6450  -19.7790 O   0  0  0  0  0  0  0  0  0  0  0  0
   17.3720  -25.2880  -19.6270 C   0  0  0  0  0  0  0  0  0  0  0  0
   17.1380  -24.5800  -20.8080 C   0  0  0  0  0  0  0  0  0  0  0  0
   17.0500  -23.1850  -20.7980 C   0  0  0  0  0  0  0  0  0  0  0  0
   17.1940  -22.4740  -19.5990 C   0  0  0  0  0  0  0  0  0  0  0  0
   17.0920  -21.0030  -19.5780 C   0  0  0  0  0  0  0  0  0  0  0  0
   15.9030  -20.4200  -19.3080 C   0  0  0  0  0  0  0  0  0  0  0  0
   15.7960  -18.9710  -19.2770 C   0  0  0  0  0  0  0  0  0  0  0  0
   16.8630  -18.1840  -19.5070 C   0  0  0  0  0  0  0  0  0  0  0  0
   18.1230  -18.7760  -19.7880 C   0  0  0  0  0  0  0  0  0  0  0  0
   19.2960  -18.2480  -20.0440 N   0  0  0  0  0  0  0  0  0  0  0  0
   20.1020  -19.3330  -20.2270 C   0  0  0  0  0  0  0  0  0  0  0  0
   21.4100  -19.2300  -20.5270 N   0  0  0  0  0  0  0  0  0  0  0  0
   22.2880  -20.0210  -21.2860 C   0  0  0  0  0  0  0  0  0  0  0  0
   23.5710  -20.2740  -20.7850 C   0  0  0  0  0  0  0  0  0  0  0  0
   24.4920  -21.0710  -21.4840 C   0  0  0  0  0  0  0  0  0  0  0  0
   24.1630  -21.6590  -22.7110 C   0  0  0  0  0  0  0  0  0  0  0  0
   25.0440  -22.4670  -23.4510 N   0  0  0  0  0  0  0  0  0  0  0  0
   24.7010  -22.7350  -24.8610 C   0  0  0  0  0  0  0  0  0  0  0  0
   25.5880  -23.8640  -25.4250 C   0  0  0  0  0  0  0  0  0  0  0  0
   27.0750  -23.5670  -25.2360 N   0  0  0  0  0  0  0  0  0  0  0  0
   27.6060  -22.5360  -26.1850 C   0  0  0  0  0  0  0  0  0  0  0  0
   27.3780  -23.2610  -23.7720 C   0  0  0  0  0  0  0  0  0  0  0  0
   26.4700  -22.1460  -23.2110 C   0  0  0  0  0  0  0  0  0  0  0  0
   22.8830  -21.3880  -23.2130 C   0  0  0  0  0  0  0  0  0  0  0  0
   21.9630  -20.5920  -22.5150 C   0  0  0  0  0  0  0  0  0  0  0  0
   19.4930  -20.5110  -20.0960 N   0  0  0  0  0  0  0  0  0  0  0  0
   18.2090  -20.1710  -19.8130 N   0  0  0  0  0  0  0  0  0  0  0  0
   17.4330  -23.1890  -18.4180 C   0  0  0  0  0  0  0  0  0  0  0  0
   17.5200  -24.5870  -18.4310 C   0  0  0  0  0  0  0  0  0  0  0  0
   17.5799  -26.8902  -17.7312 H   0  0  0  0  0  0  0  0  0  0  0  0
   17.4345  -28.4024  -18.6897 H   0  0  0  0  0  0  0  0  0  0  0  0
   18.9782  -27.4839  -18.6897 H   0  0  0  0  0  0  0  0  0  0  0  0
   17.0217  -25.1259  -21.7559 H   0  0  0  0  0  0  0  0  0  0  0  0
   16.8666  -22.6420  -21.7369 H   0  0  0  0  0  0  0  0  0  0  0  0
   15.0170  -21.0417  -19.1119 H   0  0  0  0  0  0  0  0  0  0  0  0
   14.8220  -18.5077  -19.0609 H   0  0  0  0  0  0  0  0  0  0  0  0
   16.7600  -17.0892  -19.4776 H   0  0  0  0  0  0  0  0  0  0  0  0
   21.8410  -18.4050  -20.1300 H   0  0  0  0  0  0  0  0  0  0  0  0
   23.8649  -19.8372  -19.8192 H   0  0  0  0  0  0  0  0  0  0  0  0
   25.4928  -21.2367  -21.0585 H   0  0  0  0  0  0  0  0  0  0  0  0
   23.6452  -23.0367  -24.9261 H   0  0  0  0  0  0  0  0  0  0  0  0
   24.8699  -21.8210  -25.4492 H   0  0  0  0  0  0  0  0  0  0  0  0
   25.3436  -24.8020  -24.9050 H   0  0  0  0  0  0  0  0  0  0  0  0
   25.3907  -23.9465  -26.5040 H   0  0  0  0  0  0  0  0  0  0  0  0
   27.5680  -24.4430  -25.4520 H   0  0  0  0  0  0  0  0  0  0  0  0
   28.0367  -21.6998  -25.6146 H   0  0  0  0  0  0  0  0  0  0  0  0
   28.3840  -22.9869  -26.8185 H   0  0  0  0  0  0  0  0  0  0  0  0
   26.7871  -22.1644  -26.8185 H   0  0  0  0  0  0  0  0  0  0  0  0
   27.2243  -24.1750  -23.1796 H   0  0  0  0  0  0  0  0  0  0  0  0
   28.4197  -22.9135  -23.7075 H   0  0  0  0  0  0  0  0  0  0  0  0
   26.6420  -22.0496  -22.1288 H   0  0  0  0  0  0  0  0  0  0  0  0
   26.7120  -21.2011  -23.7196 H   0  0  0  0  0  0  0  0  0  0  0  0
   22.5907  -21.8128  -24.1847 H   0  0  0  0  0  0  0  0  0  0  0  0
   20.9664  -20.4151  -22.9457 H   0  0  0  0  0  0  0  0  0  0  0  0
   17.5538  -22.6459  -17.4691 H   0  0  0  0  0  0  0  0  0  0  0  0
   17.7057  -25.1335  -17.4946 H   0  0  0  0  0  0  0  0  0  0  0  0
  1  2  1  0
  2  3  1  0
  3  4  2  0
  4  5  1  0
  5  6  2  0
  6  7  1  0
  7  8  2  0
  8  9  1  0
  9 10  2  0
 10 11  1  0
 11 12  2  0
 12 13  1  0
 13 14  1  0
 14 15  1  0
 15 16  2  0
 16 17  1  0
 17 18  2  0
 18 19  1  0
 19 20  1  0
 20 21  1  0
 21 22  1  0
 22 23  1  0
 22 24  1  0
 24 25  1  0
 18 26  1  0
 26 27  2  0
 13 28  2  0
 28 29  1  0
  6 30  1  0
 30 31  2  0
 31  3  1  0
 29  7  1  0
 29 11  1  0
 27 15  1  0
 25 19  1  0
  1 32  1  0
  1 33  1  0
  1 34  1  0
  4 35  1  0
  5 36  1  0
  8 37  1  0
  9 38  1  0
 10 39  1  0
 14 40  1  0
 16 41  1  0
 17 42  1  0
 20 43  1  0
 20 44  1  0
 21 45  1  0
 21 46  1  0
 22 47  1  0
 23 48  1  0
 23 49  1  0
 23 50  1  0
 24 51  1  0
 24 52  1  0
 25 53  1  0
 25 54  1  0
 26 55  1  0
 27 56  1  0
 30 57  1  0
 31 58  1  0
M  CHG  1  22   1
M  END
>  <meeko>  (5) 
{"is_sidechain": [false], "free_energy": -9.088, "intermolecular_energy": -11.078, "internal_energy": -0.902}

$$$$
4jia_ligand
     RDKit          3D

 58 62  0  0  0  0  0  0  0  0999 V2000
    7.3200  -25.1250  -20.5200 C   0  0  0  0  0  0  0  0  0  0  0  0
    8.4920  -24.3440  -20.7230 O   0  0  0  0  0  0  0  0  0  0  0  0
    9.6920  -24.9810  -20.5790 C   0  0  0  0  0  0  0  0  0  0  0  0
    9.6080  -26.2680  -20.0450 C   0  0  0  0  0  0  0  0  0  0  0  0
   10.7600  -27.0350  -19.8440 C   0  0  0  0  0  0  0  0  0  0  0  0
   12.0200  -26.5210  -20.1760 C   0  0  0  0  0  0  0  0  0  0  0  0
   13.2390  -27.3270  -19.9770 C   0  0  0  0  0  0  0  0  0  0  0  0
   13.1340  -28.5940  -19.5160 C   0  0  0  0  0  0  0  0  0  0  0  0
   14.3290  -29.3970  -19.3250 C   0  0  0  0  0  0  0  0  0  0  0  0
   15.5530  -28.9110  -19.6030 C   0  0  0  0  0  0  0  0  0  0  0  0
   15.6850  -27.5840  -20.0920 C   0  0  0  0  0  0  0  0  0  0  0  0
   16.7400  -26.8810  -20.4320 N   0  0  0  0  0  0  0  0  0  0  0  0
   16.2150  -25.6840  -20.8210 C   0  0  0  0  0  0  0  0  0  0  0  0
   16.9740  -24.6560  -21.2410 N   0  0  0  0  0  0  0  0  0  0  0  0
   16.8850  -23.2640  -21.0760 C   0  0  0  0  0  0  0  0  0  0  0  0
   16.0520  -22.5340  -21.9330 C   0  0  0  0  0  0  0  0  0  0  0  0
   15.9050  -21.1430  -21.8100 C   0  0  0  0  0  0  0  0  0  0  0  0
   16.5770  -20.4230  -20.8160 C   0  0  0  0  0  0  0  0  0  0  0  0
   16.4630  -19.0330  -20.6460 N   0  0  0  0  0  0  0  0  0  0  0  0
   16.3800  -18.5190  -19.2650 C   0  0  0  0  0  0  0  0  0  0  0  0
   15.9560  -17.0350  -19.2680 C   0  0  0  0  0  0  0  0  0  0  0  0
   16.8710  -16.1850  -20.1470 N   0  0  0  0  0  0  0  0  0  0  0  0
   18.2090  -15.9090  -19.5320 C   0  0  0  0  0  0  0  0  0  0  0  0
   16.9580  -16.7720  -21.5550 C   0  0  0  0  0  0  0  0  0  0  0  0
   17.3580  -18.2610  -21.5400 C   0  0  0  0  0  0  0  0  0  0  0  0
   17.4200  -21.1580  -19.9710 C   0  0  0  0  0  0  0  0  0  0  0  0
   17.5680  -22.5480  -20.0940 C   0  0  0  0  0  0  0  0  0  0  0  0
   14.8870  -25.6040  -20.7440 N   0  0  0  0  0  0  0  0  0  0  0  0
   14.5250  -26.8250  -20.2710 N   0  0  0  0  0  0  0  0  0  0  0  0
   12.1000  -25.2270  -20.7070 C   0  0  0  0  0  0  0  0  0  0  0  0
   10.9440  -24.4620  -20.9090 C   0  0  0  0  0  0  0  0  0  0  0  0
    7.1411  -25.2442  -19.4412 H   0  0  0  0  0  0  0  0  0  0  0  0
    6.4584  -24.6199  -20.9809 H   0  0  0  0  0  0  0  0  0  0  0  0
    7.4545  -26.1147  -20.9809 H   0  0  0  0  0  0  0  0  0  0  0  0
    8.6247  -26.6835  -19.7793 H   0  0  0  0  0  0  0  0  0  0  0  0
   10.6761  -28.0477  -19.4228 H   0  0  0  0  0  0  0  0  0  0  0  0
   12.1445  -29.0160  -19.2859 H   0  0  0  0  0  0  0  0  0  0  0  0
   14.2317  -30.4246  -18.9449 H   0  0  0  0  0  0  0  0  0  0  0  0
   16.4448  -29.5371  -19.4526 H   0  0  0  0  0  0  0  0  0  0  0  0
   17.7780  -24.9530  -21.7780 H   0  0  0  0  0  0  0  0  0  0  0  0
   15.4988  -23.0638  -22.7225 H   0  0  0  0  0  0  0  0  0  0  0  0
   15.2472  -20.6076  -22.5104 H   0  0  0  0  0  0  0  0  0  0  0  0
   15.6388  -19.1066  -18.7035 H   0  0  0  0  0  0  0  0  0  0  0  0
   17.3690  -18.6066  -18.7915 H   0  0  0  0  0  0  0  0  0  0  0  0
   14.9266  -16.9597  -19.6483 H   0  0  0  0  0  0  0  0  0  0  0  0
   16.0255  -16.6577  -18.2371 H   0  0  0  0  0  0  0  0  0  0  0  0
   16.4030  -15.2750  -20.2470 H   0  0  0  0  0  0  0  0  0  0  0  0
   18.1195  -15.9275  -18.4358 H   0  0  0  0  0  0  0  0  0  0  0  0
   18.9264  -16.6781  -19.8543 H   0  0  0  0  0  0  0  0  0  0  0  0
   18.5635  -14.9188  -19.8543 H   0  0  0  0  0  0  0  0  0  0  0  0
   15.9763  -16.6735  -22.0414 H   0  0  0  0  0  0  0  0  0  0  0  0
   17.7337  -16.2188  -22.1048 H   0  0  0  0  0  0  0  0  0  0  0  0
   17.2855  -18.6650  -22.5606 H   0  0  0  0  0  0  0  0  0  0  0  0
   18.3899  -18.3471  -21.1688 H   0  0  0  0  0  0  0  0  0  0  0  0
   17.9826  -20.6291  -19.1876 H   0  0  0  0  0  0  0  0  0  0  0  0
   18.2356  -23.0828  -19.4024 H   0  0  0  0  0  0  0  0  0  0  0  0
   13.0823  -24.8067  -20.9684 H   0  0  0  0  0  0  0  0  0  0  0  0
   11.0238  -23.4486  -21.3293 H   0  0  0  0  0  0  0  0  0  0  0  0
  1  2  1  0
  2  3  1  0
  3  4  2  0
  4  5  1  0
  5  6  2  0
  6  7  1  0
  7  8  2  0
  8  9  1  0
  9 10  2  0
 10 11  1  0
 11 12  2  0
 12 13  1  0
 13 14  1  0
 14 15  1  0
 15 16  2  0
 16 17  1  0
 17 18  2  0
 18 19  1  0
 19 20  1  0
 20 21  1  0
 21 22  1  0
 22 23  1  0
 22 24  1  0
 24 25  1  0
 18 26  1  0
 26 27  2  0
 13 28  2  0
 28 29  1  0
  6 30  1  0
 30 31  2  0
 31  3  1  0
 29  7  1  0
 29 11  1  0
 27 15  1  0
 25 19  1  0
  1 32  1  0
  1 33  1  0
  1 34  1  0
  4 35  1  0
  5 36  1  0
  8 37  1  0
  9 38  1  0
 10 39  1  0
 14 40  1  0
 16 41  1  0
 17 42  1  0
 20 43  1  0
 20 44  1  0
 21 45  1  0
 21 46  1  0
 22 47  1  0
 23 48  1  0
 23 49  1  0
 23 50  1  0
 24 51  1  0
 24 52  1  0
 25 53  1  0
 25 54  1  0
 26 55  1  0
 27 56  1  0
 30 57  1  0
 31 58  1  0
M  CHG  1  22   1
M  END
>  <meeko>  (6) 
{"is_sidechain": [false], "free_energy": -9.071, "intermolecular_energy": -11.709, "internal_energy": -0.25}

$$$$
4jia_ligand
     RDKit          3D

 58 62  0  0  0  0  0  0  0  0999 V2000
   21.2110  -28.3660  -18.5720 C   0  0  0  0  0  0  0  0  0  0  0  0
   20.8350  -27.2020  -19.2980 O   0  0  0  0  0  0  0  0  0  0  0  0
   19.5120  -27.0750  -19.6220 C   0  0  0  0  0  0  0  0  0  0  0  0
   18.6270  -27.4490  -18.6090 C   0  0  0  0  0  0  0  0  0  0  0  0
   17.2450  -27.3690  -18.8040 C   0  0  0  0  0  0  0  0  0  0  0  0
   16.7260  -26.9100  -20.0210 C   0  0  0  0  0  0  0  0  0  0  0  0
   15.2690  -26.8120  -20.2310 C   0  0  0  0  0  0  0  0  0  0  0  0
   14.5430  -27.9400  -20.4010 C   0  0  0  0  0  0  0  0  0  0  0  0
   13.1060  -27.8530  -20.5990 C   0  0  0  0  0  0  0  0  0  0  0  0
   12.4700  -26.6670  -20.6140 C   0  0  0  0  0  0  0  0  0  0  0  0
   13.2150  -25.4710  -20.4320 C   0  0  0  0  0  0  0  0  0  0  0  0
   12.8470  -24.2110  -20.4060 N   0  0  0  0  0  0  0  0  0  0  0  0
   14.0170  -23.5420  -20.1970 C   0  0  0  0  0  0  0  0  0  0  0  0
   14.0860  -22.2010  -20.1150 N   0  0  0  0  0  0  0  0  0  0  0  0
   15.1250  -21.2770  -20.3150 C   0  0  0  0  0  0  0  0  0  0  0  0
   15.5760  -21.0380  -21.6190 C   0  0  0  0  0  0  0  0  0  0  0  0
   16.5980  -20.1150  -21.8890 C   0  0  0  0  0  0  0  0  0  0  0  0
   17.2070  -19.3810  -20.8650 C   0  0  0  0  0  0  0  0  0  0  0  0
   18.2310  -18.4430  -21.0790 N   0  0  0  0  0  0  0  0  0  0  0  0
   17.8390  -17.0290  -21.2360 C   0  0  0  0  0  0  0  0  0  0  0  0
   19.0270  -16.1960  -21.7610 C   0  0  0  0  0  0  0  0  0  0  0  0
   20.2670  -16.3590  -20.8830 N   0  0  0  0  0  0  0  0  0  0  0  0
   20.1850  -15.6160  -19.5840 C   0  0  0  0  0  0  0  0  0  0  0  0
   20.6150  -17.8370  -20.7180 C   0  0  0  0  0  0  0  0  0  0  0  0
   19.4140  -18.6640  -20.2150 C   0  0  0  0  0  0  0  0  0  0  0  0
   16.7610  -19.6350  -19.5610 C   0  0  0  0  0  0  0  0  0  0  0  0
   15.7400  -20.5580  -19.2910 C   0  0  0  0  0  0  0  0  0  0  0  0
   15.0950  -24.3180  -20.0900 N   0  0  0  0  0  0  0  0  0  0  0  0
   14.5960  -25.5720  -20.2420 N   0  0  0  0  0  0  0  0  0  0  0  0
   17.6190  -26.5400  -21.0350 C   0  0  0  0  0  0  0  0  0  0  0  0
   19.0030  -26.6210  -20.8370 C   0  0  0  0  0  0  0  0  0  0  0  0
   21.1452  -28.1623  -17.4930 H   0  0  0  0  0  0  0  0  0  0  0  0
   20.5346  -29.1940  -18.8308 H   0  0  0  0  0  0  0  0  0  0  0  0
   22.2439  -28.6418  -18.8308 H   0  0  0  0  0  0  0  0  0  0  0  0
   19.0212  -27.8103  -17.6477 H   0  0  0  0  0  0  0  0  0  0  0  0
   16.5609  -27.6685  -17.9964 H   0  0  0  0  0  0  0  0  0  0  0  0
   15.0392  -28.9217  -20.3894 H   0  0  0  0  0  0  0  0  0  0  0  0
   12.5254  -28.7766  -20.7397 H   0  0  0  0  0  0  0  0  0  0  0  0
   11.3814  -26.6239  -20.7660 H   0  0  0  0  0  0  0  0  0  0  0  0
   13.2020  -21.7750  -19.8680 H   0  0  0  0  0  0  0  0  0  0  0  0
   15.1171  -21.5882  -22.4537 H   0  0  0  0  0  0  0  0  0  0  0  0
   16.9274  -19.9653  -22.9278 H   0  0  0  0  0  0  0  0  0  0  0  0
   17.0052  -16.9613  -21.9503 H   0  0  0  0  0  0  0  0  0  0  0  0
   17.5312  -16.6335  -20.2568 H   0  0  0  0  0  0  0  0  0  0  0  0
   19.2684  -16.5248  -22.7826 H   0  0  0  0  0  0  0  0  0  0  0  0
   18.7343  -15.1358  -21.7454 H   0  0  0  0  0  0  0  0  0  0  0  0
   21.0440  -15.9410  -21.4100 H   0  0  0  0  0  0  0  0  0  0  0  0
   20.2635  -16.3277  -18.7489 H   0  0  0  0  0  0  0  0  0  0  0  0
   21.0084  -14.8890  -19.5248 H   0  0  0  0  0  0  0  0  0  0  0  0
   19.2229  -15.0860  -19.5248 H   0  0  0  0  0  0  0  0  0  0  0  0
   20.9377  -18.2360  -21.6910 H   0  0  0  0  0  0  0  0  0  0  0  0
   21.4167  -17.9143  -19.9688 H   0  0  0  0  0  0  0  0  0  0  0  0
   19.6784  -19.7316  -20.2301 H   0  0  0  0  0  0  0  0  0  0  0  0
   19.1693  -18.3473  -19.1904 H   0  0  0  0  0  0  0  0  0  0  0  0
   17.2258  -19.0940  -18.7236 H   0  0  0  0  0  0  0  0  0  0  0  0
   15.4183  -20.7177  -18.2513 H   0  0  0  0  0  0  0  0  0  0  0  0
   17.2282  -26.1814  -21.9987 H   0  0  0  0  0  0  0  0  0  0  0  0
   19.6904  -26.3253  -21.6432 H   0  0  0  0  0  0  0  0  0  0  0  0
  1  2  1  0
  2  3  1  0
  3  4  2  0
  4  5  1  0
  5  6  2  0
  6  7  1  0
  7  8  2  0
  8  9  1  0
  9 10  2  0
 10 11  1  0
 11 12  2  0
 12 13  1  0
 13 14  1  0
 14 15  1  0
 15 16  2  0
 16 17  1  0
 17 18  2  0
 18 19  1  0
 19 20  1  0
 20 21  1  0
 21 22  1  0
 22 23  1  0
 22 24  1  0
 24 25  1  0
 18 26  1  0
 26 27  2  0
 13 28  2  0
 28 29  1  0
  6 30  1  0
 30 31  2  0
 31  3  1  0
 29  7  1  0
 29 11  1  0
 27 15  1  0
 25 19  1  0
  1 32  1  0
  1 33  1  0
  1 34  1  0
  4 35  1  0
  5 36  1  0
  8 37  1  0
  9 38  1  0
 10 39  1  0
 14 40  1  0
 16 41  1  0
 17 42  1  0
 20 43  1  0
 20 44  1  0
 21 45  1  0
 21 46  1  0
 22 47  1  0
 23 48  1  0
 23 49  1  0
 23 50  1  0
 24 51  1  0
 24 52  1  0
 25 53  1  0
 25 54  1  0
 26 55  1  0
 27 56  1  0
 30 57  1  0
 31 58  1  0
M  CHG  1  22   1
M  END
>  <meeko>  (7) 
{"is_sidechain": [false], "free_energy": -9.024, "intermolecular_energy": -10.977, "internal_energy": -0.922}

$$$$
4jia_ligand
     RDKit          3D

 58 62  0  0  0  0  0  0  0  0999 V2000
    7.2120  -25.3510  -20.1490 C   0  0  0  0  0  0  0  0  0  0  0  0
    8.2650  -24.5020  -20.5900 O   0  0  0  0  0  0  0  0  0  0  0  0
    9.5350  -25.0030  -20.5160 C   0  0  0  0  0  0  0  0  0  0  0  0
   10.5300  -24.1400  -20.9800 C   0  0  0  0  0  0  0  0  0  0  0  0
   11.8740  -24.5230  -20.9610 C   0  0  0  0  0  0  0  0  0  0  0  0
   12.2440  -25.7830  -20.4750 C   0  0  0  0  0  0  0  0  0  0  0  0
   13.6620  -26.1910  -20.4420 C   0  0  0  0  0  0  0  0  0  0  0  0
   14.0160  -27.4100  -20.9090 C   0  0  0  0  0  0  0  0  0  0  0  0
   15.4110  -27.8160  -20.8890 C   0  0  0  0  0  0  0  0  0  0  0  0
   16.3720  -27.0010  -20.4170 C   0  0  0  0  0  0  0  0  0  0  0  0
   16.0220  -25.7150  -19.9260 C   0  0  0  0  0  0  0  0  0  0  0  0
   16.7490  -24.7480  -19.4190 N   0  0  0  0  0  0  0  0  0  0  0  0
   15.8360  -23.7750  -19.1380 C   0  0  0  0  0  0  0  0  0  0  0  0
   16.1720  -22.5960  -18.5830 N   0  0  0  0  0  0  0  0  0  0  0  0
   16.8890  -21.4830  -19.0510 C   0  0  0  0  0  0  0  0  0  0  0  0
   16.2060  -20.2780  -19.2590 C   0  0  0  0  0  0  0  0  0  0  0  0
   16.8660  -19.1240  -19.7080 C   0  0  0  0  0  0  0  0  0  0  0  0
   18.2430  -19.1210  -19.9580 C   0  0  0  0  0  0  0  0  0  0  0  0
   18.9540  -17.9950  -20.4050 N   0  0  0  0  0  0  0  0  0  0  0  0
   18.1890  -16.9280  -21.0780 C   0  0  0  0  0  0  0  0  0  0  0  0
   19.1450  -15.9310  -21.7660 C   0  0  0  0  0  0  0  0  0  0  0  0
   20.1820  -15.3740  -20.7910 N   0  0  0  0  0  0  0  0  0  0  0  0
   19.6290  -14.3510  -19.8460 C   0  0  0  0  0  0  0  0  0  0  0  0
   20.9240  -16.5100  -20.0920 C   0  0  0  0  0  0  0  0  0  0  0  0
   19.9590  -17.5140  -19.4280 C   0  0  0  0  0  0  0  0  0  0  0  0
   18.9180  -20.3340  -19.7620 C   0  0  0  0  0  0  0  0  0  0  0  0
   18.2580  -21.4880  -19.3140 C   0  0  0  0  0  0  0  0  0  0  0  0
   14.5760  -24.0840  -19.4430 N   0  0  0  0  0  0  0  0  0  0  0  0
   14.6760  -25.3400  -19.9530 N   0  0  0  0  0  0  0  0  0  0  0  0
   11.2430  -26.6470  -20.0130 C   0  0  0  0  0  0  0  0  0  0  0  0
    9.8970  -26.2600  -20.0330 C   0  0  0  0  0  0  0  0  0  0  0  0
    7.1909  -25.3680  -19.0493 H   0  0  0  0  0  0  0  0  0  0  0  0
    6.2517  -24.9715  -20.5283 H   0  0  0  0  0  0  0  0  0  0  0  0
    7.3792  -26.3699  -20.5283 H   0  0  0  0  0  0  0  0  0  0  0  0
   10.2528  -23.1475  -21.3648 H   0  0  0  0  0  0  0  0  0  0  0  0
   12.6453  -23.8309  -21.3298 H   0  0  0  0  0  0  0  0  0  0  0  0
   13.2491  -28.0929  -21.3033 H   0  0  0  0  0  0  0  0  0  0  0  0
   15.6874  -28.8110  -21.2679 H   0  0  0  0  0  0  0  0  0  0  0  0
   17.4221  -27.3286  -20.4114 H   0  0  0  0  0  0  0  0  0  0  0  0
   15.8270  -22.4930  -17.6380 H   0  0  0  0  0  0  0  0  0  0  0  0
   15.1240  -20.2352  -19.0653 H   0  0  0  0  0  0  0  0  0  0  0  0
   16.2884  -18.2014  -19.8670 H   0  0  0  0  0  0  0  0  0  0  0  0
   17.5288  -17.3775  -21.8344 H   0  0  0  0  0  0  0  0  0  0  0  0
   17.5926  -16.3893  -20.3270 H   0  0  0  0  0  0  0  0  0  0  0  0
   19.6674  -16.4463  -22.5854 H   0  0  0  0  0  0  0  0  0  0  0  0
   18.5464  -15.0899  -22.1458 H   0  0  0  0  0  0  0  0  0  0  0  0
   20.8810  -14.8900  -21.3680 H   0  0  0  0  0  0  0  0  0  0  0  0
   19.8047  -14.6760  -18.8099 H   0  0  0  0  0  0  0  0  0  0  0  0
   20.1283  -13.3859  -20.0172 H   0  0  0  0  0  0  0  0  0  0  0  0
   18.5481  -14.2401  -20.0172 H   0  0  0  0  0  0  0  0  0  0  0  0
   21.5350  -17.0440  -20.8346 H   0  0  0  0  0  0  0  0  0  0  0  0
   21.5495  -16.0692  -19.3017 H   0  0  0  0  0  0  0  0  0  0  0  0
   20.5341  -18.3716  -19.0489 H   0  0  0  0  0  0  0  0  0  0  0  0
   19.4371  -17.0105  -18.6009 H   0  0  0  0  0  0  0  0  0  0  0  0
   19.9979  -20.3824  -19.9657 H   0  0  0  0  0  0  0  0  0  0  0  0
   18.8319  -22.4149  -19.1674 H   0  0  0  0  0  0  0  0  0  0  0  0
   11.5172  -27.6411  -19.6300 H   0  0  0  0  0  0  0  0  0  0  0  0
    9.1228  -26.9501  -19.6664 H   0  0  0  0  0  0  0  0  0  0  0  0
  1  2  1  0
  2  3  1  0
  3  4  2  0
  4  5  1  0
  5  6  2  0
  6  7  1  0
  7  8  2  0
  8  9  1  0
  9 10  2  0
 10 11  1  0
 11 12  2  0
 12 13  1  0
 13 14  1  0
 14 15  1  0
 15 16  2  0
 16 17  1  0
 17 18  2  0
 18 19  1  0
 19 20  1  0
 20 21  1  0
 21 22  1  0
 22 23  1  0
 22 24  1  0
 24 25  1  0
 18 26  1  0
 26 27  2  0
 13 28  2  0
 28 29  1  0
  6 30  1  0
 30 31  2  0
 31  3  1  0
 29  7  1  0
 29 11  1  0
 27 15  1  0
 25 19  1  0
  1 32  1  0
  1 33  1  0
  1 34  1  0
  4 35  1  0
  5 36  1  0
  8 37  1  0
  9 38  1  0
 10 39  1  0
 14 40  1  0
 16 41  1  0
 17 42  1  0
 20 43  1  0
 20 44  1  0
 21 45  1  0
 21 46  1  0
 22 47  1  0
 23 48  1  0
 23 49  1  0
 23 50  1  0
 24 51  1  0
 24 52  1  0
 25 53  1  0
 25 54  1  0
 26 55  1  0
 27 56  1  0
 30 57  1  0
 31 58  1  0
M  CHG  1  22   1
M  END
>  <meeko>  (8) 
{"is_sidechain": [false], "free_energy": -8.971, "intermolecular_energy": -11.287, "internal_energy": -0.543}

$$$$
4jia_ligand
     RDKit          3D

 58 62  0  0  0  0  0  0  0  0999 V2000
   19.7880  -22.6520  -20.8880 C   0  0  0  0  0  0  0  0  0  0  0  0
   19.6830  -23.8060  -21.7140 O   0  0  0  0  0  0  0  0  0  0  0  0
   18.7030  -24.7060  -21.3990 C   0  0  0  0  0  0  0  0  0  0  0  0
   17.6340  -24.1720  -20.6760 C   0  0  0  0  0  0  0  0  0  0  0  0
   16.5610  -24.9790  -20.2880 C   0  0  0  0  0  0  0  0  0  0  0  0
   16.5410  -26.3400  -20.6200 C   0  0  0  0  0  0  0  0  0  0  0  0
   15.4080  -27.1970  -20.2230 C   0  0  0  0  0  0  0  0  0  0  0  0
   15.6440  -28.4500  -19.7740 C   0  0  0  0  0  0  0  0  0  0  0  0
   14.5340  -29.2970  -19.3720 C   0  0  0  0  0  0  0  0  0  0  0  0
   13.2620  -28.8620  -19.4310 C   0  0  0  0  0  0  0  0  0  0  0  0
   12.9930  -27.5460  -19.8960 C   0  0  0  0  0  0  0  0  0  0  0  0
   11.8670  -26.8900  -20.0500 N   0  0  0  0  0  0  0  0  0  0  0  0
   12.2680  -25.6780  -20.5280 C   0  0  0  0  0  0  0  0  0  0  0  0
   11.4040  -24.6930  -20.8370 N   0  0  0  0  0  0  0  0  0  0  0  0
   11.3970  -23.3090  -20.6000 C   0  0  0  0  0  0  0  0  0  0  0  0
   10.4690  -22.7840  -19.6920 C   0  0  0  0  0  0  0  0  0  0  0  0
   10.4210  -21.4120  -19.3970 C   0  0  0  0  0  0  0  0  0  0  0  0
   11.3090  -20.5070  -19.9890 C   0  0  0  0  0  0  0  0  0  0  0  0
   11.3080  -19.1260  -19.7270 N   0  0  0  0  0  0  0  0  0  0  0  0
   12.3090  -18.6120  -18.7740 C   0  0  0  0  0  0  0  0  0  0  0  0
   11.9750  -17.1590  -18.3740 C   0  0  0  0  0  0  0  0  0  0  0  0
   11.8210  -16.2550  -19.5960 N   0  0  0  0  0  0  0  0  0  0  0  0
   13.1240  -15.8880  -20.2390 C   0  0  0  0  0  0  0  0  0  0  0  0
   10.8040  -16.8420  -20.5710 C   0  0  0  0  0  0  0  0  0  0  0  0
   11.1330  -18.3020  -20.9460 C   0  0  0  0  0  0  0  0  0  0  0  0
   12.2260  -21.0370  -20.9070 C   0  0  0  0  0  0  0  0  0  0  0  0
   12.2730  -22.4080  -21.2030 C   0  0  0  0  0  0  0  0  0  0  0  0
   13.5840  -25.5420  -20.6800 N   0  0  0  0  0  0  0  0  0  0  0  0
   14.0720  -26.7440  -20.2770 N   0  0  0  0  0  0  0  0  0  0  0  0
   17.6180  -26.8710  -21.3410 C   0  0  0  0  0  0  0  0  0  0  0  0
   18.6920  -26.0600  -21.7300 C   0  0  0  0  0  0  0  0  0  0  0  0
   19.7605  -22.9542  -19.8307 H   0  0  0  0  0  0  0  0  0  0  0  0
   20.7368  -22.1363  -21.0974 H   0  0  0  0  0  0  0  0  0  0  0  0
   18.9479  -21.9735  -21.0974 H   0  0  0  0  0  0  0  0  0  0  0  0
   17.6366  -23.1049  -20.4091 H   0  0  0  0  0  0  0  0  0  0  0  0
   15.7270  -24.5430  -19.7185 H   0  0  0  0  0  0  0  0  0  0  0  0
   16.6752  -28.8280  -19.7130 H   0  0  0  0  0  0  0  0  0  0  0  0
   14.7379  -30.3161  -19.0116 H   0  0  0  0  0  0  0  0  0  0  0  0
   12.4365  -29.5199  -19.1217 H   0  0  0  0  0  0  0  0  0  0  0  0
   10.6000  -25.0230  -21.3550 H   0  0  0  0  0  0  0  0  0  0  0  0
    9.7596  -23.4637  -19.1973 H   0  0  0  0  0  0  0  0  0  0  0  0
    9.6691  -21.0406  -18.6852 H   0  0  0  0  0  0  0  0  0  0  0  0
   12.3107  -19.2444  -17.8740 H   0  0  0  0  0  0  0  0  0  0  0  0
   13.2996  -18.6317  -19.2518 H   0  0  0  0  0  0  0  0  0  0  0  0
   11.0329  -17.1537  -17.8062 H   0  0  0  0  0  0  0  0  0  0  0  0
   12.8058  -16.7724  -17.7654 H   0  0  0  0  0  0  0  0  0  0  0  0
   11.4100  -15.3790  -19.2500 H   0  0  0  0  0  0  0  0  0  0  0  0
   13.8711  -15.6776  -19.4595 H   0  0  0  0  0  0  0  0  0  0  0  0
   13.4721  -16.7230  -20.8647 H   0  0  0  0  0  0  0  0  0  0  0  0
   12.9852  -14.9940  -20.8647 H   0  0  0  0  0  0  0  0  0  0  0  0
    9.8080  -16.8116  -20.1052 H   0  0  0  0  0  0  0  0  0  0  0  0
   10.8331  -16.2415  -21.4922 H   0  0  0  0  0  0  0  0  0  0  0  0
   10.3095  -18.7154  -21.5468 H   0  0  0  0  0  0  0  0  0  0  0  0
   12.0696  -18.3179  -21.5227 H   0  0  0  0  0  0  0  0  0  0  0  0
   12.9299  -20.3580  -21.4105 H   0  0  0  0  0  0  0  0  0  0  0  0
   13.0156  -22.7788  -21.9249 H   0  0  0  0  0  0  0  0  0  0  0  0
   17.6206  -27.9388  -21.6053 H   0  0  0  0  0  0  0  0  0  0  0  0
   19.5287  -26.4928  -22.2980 H   0  0  0  0  0  0  0  0  0  0  0  0
  1  2  1  0
  2  3  1  0
  3  4  2  0
  4  5  1  0
  5  6  2  0
  6  7  1  0
  7  8  2  0
  8  9  1  0
  9 10  2  0
 10 11  1  0
 11 12  2  0
 12 13  1  0
 13 14  1  0
 14 15  1  0
 15 16  2  0
 16 17  1  0
 17 18  2  0
 18 19  1  0
 19 20  1  0
 20 21  1  0
 21 22  1  0
 22 23  1  0
 22 24  1  0
 24 25  1  0
 18 26  1  0
 26 27  2  0
 13 28  2  0
 28 29  1  0
  6 30  1  0
 30 31  2  0
 31  3  1  0
 29  7  1  0
 29 11  1  0
 27 15  1  0
 25 19  1  0
  1 32  1  0
  1 33  1  0
  1 34  1  0
  4 35  1  0
  5 36  1  0
  8 37  1  0
  9 38  1  0
 10 39  1  0
 14 40  1  0
 16 41  1  0
 17 42  1  0
 20 43  1  0
 20 44  1  0
 21 45  1  0
 21 46  1  0
 22 47  1  0
 23 48  1  0
 23 49  1  0
 23 50  1  0
 24 51  1  0
 24 52  1  0
 25 53  1  0
 25 54  1  0
 26 55  1  0
 27 56  1  0
 30 57  1  0
 31 58  1  0
M  CHG  1  22   1
M  END
>  <meeko>  (9) 
{"is_sidechain": [false], "free_energy": -8.776, "intermolecular_energy": -11.061, "internal_energy": -0.517}

$$$$
