3arp_ligand
     RDKit          3D

 74 77  0  0  0  0  0  0  0  0999 V2000
   14.9790  -13.7390   16.6980 C   0  0  0  0  0  0  0  0  0  0  0  0
   16.0860  -13.1920   17.5650 C   0  0  0  0  0  0  0  0  0  0  0  0
   17.3370  -13.8060   17.4860 C   0  0  0  0  0  0  0  0  0  0  0  0
   18.3960  -13.3960   18.2800 C   0  0  0  0  0  0  0  0  0  0  0  0
   19.6450  -13.9910   18.0620 N   0  0  0  0  0  0  0  0  0  0  0  0
   18.2160  -12.2640   19.0950 C   0  0  0  0  0  0  0  0  0  0  0  0
   19.2810  -11.7070   19.8440 C   0  0  0  0  0  0  0  0  0  0  0  0
   19.1020  -10.6000   20.6700 C   0  0  0  0  0  0  0  0  0  0  0  0
   17.8530  -10.0130   20.7660 C   0  0  0  0  0  0  0  0  0  0  0  0
   16.7860  -10.5290   20.0300 C   0  0  0  0  0  0  0  0  0  0  0  0
   16.9320  -11.6510   19.1790 C   0  0  0  0  0  0  0  0  0  0  0  0
   15.8860  -12.1520   18.4290 N   0  0  0  0  0  0  0  0  0  0  0  0
   14.5130  -11.5650   18.5590 C   0  0  0  0  0  0  0  0  0  0  0  0
   13.9490  -11.8520   19.9510 C   0  0  0  0  0  0  0  0  0  0  0  0
   13.0040  -10.7580   20.4520 C   0  0  0  0  0  0  0  0  0  0  0  0
   13.2240  -10.2850   21.8940 C   0  0  0  0  0  0  0  0  0  0  0  0
   13.8920   -8.9090   21.9830 C   0  0  0  0  0  0  0  0  0  0  0  0
   15.1120   -8.8730   22.9170 C   0  0  0  0  0  0  0  0  0  0  0  0
   14.8450   -8.1270   24.2310 C   0  0  0  0  0  0  0  0  0  0  0  0
   13.5530   -7.2970   24.2220 C   0  0  0  0  0  0  0  0  0  0  0  0
   12.5340   -7.7390   25.2750 C   0  0  0  0  0  0  0  0  0  0  0  0
   11.1110   -7.2310   25.0110 C   0  0  0  0  0  0  0  0  0  0  0  0
   10.3280   -8.1870   24.1590 N   0  0  0  0  0  0  0  0  0  0  0  0
    9.7030   -9.2550   24.7450 C   0  0  0  0  0  0  0  0  0  0  0  0
    9.8550   -9.5740   26.2110 C   0  0  0  0  0  0  0  0  0  0  0  0
    8.9180  -10.1160   23.9730 C   0  0  0  0  0  0  0  0  0  0  0  0
    8.7370   -9.9120   22.6150 C   0  0  0  0  0  0  0  0  0  0  0  0
    8.0140  -10.8740   21.9000 N   0  0  0  0  0  0  0  0  0  0  0  0
    9.4800   -8.8920   21.9940 C   0  0  0  0  0  0  0  0  0  0  0  0
    9.4650   -8.7090   20.5920 C   0  0  0  0  0  0  0  0  0  0  0  0
   10.1940   -7.6980   19.9700 C   0  0  0  0  0  0  0  0  0  0  0  0
   10.9650   -6.8430   20.7360 C   0  0  0  0  0  0  0  0  0  0  0  0
   11.0090   -7.0020   22.1230 C   0  0  0  0  0  0  0  0  0  0  0  0
   10.2770   -8.0160   22.7880 C   0  0  0  0  0  0  0  0  0  0  0  0
   14.1757  -14.1359   17.3361 H   0  0  0  0  0  0  0  0  0  0  0  0
   14.5792  -12.9347   16.0629 H   0  0  0  0  0  0  0  0  0  0  0  0
   15.3750  -14.5451   16.0629 H   0  0  0  0  0  0  0  0  0  0  0  0
   17.4856  -14.6341   16.7774 H   0  0  0  0  0  0  0  0  0  0  0  0
   20.3050  -13.9550   18.8340 H   0  0  0  0  0  0  0  0  0  0  0  0
   20.1110  -13.7600   17.1890 H   0  0  0  0  0  0  0  0  0  0  0  0
   20.2797  -12.1624   19.7712 H   0  0  0  0  0  0  0  0  0  0  0  0
   19.9491  -10.1947   21.2429 H   0  0  0  0  0  0  0  0  0  0  0  0
   17.7016   -9.1421   21.4206 H   0  0  0  0  0  0  0  0  0  0  0  0
   15.7999  -10.0488   20.1136 H   0  0  0  0  0  0  0  0  0  0  0  0
   14.5663  -10.4771   18.4051 H   0  0  0  0  0  0  0  0  0  0  0  0
   13.8546  -12.0179   17.8031 H   0  0  0  0  0  0  0  0  0  0  0  0
   13.3969  -12.8027   19.9160 H   0  0  0  0  0  0  0  0  0  0  0  0
   14.7994  -11.8955   20.6473 H   0  0  0  0  0  0  0  0  0  0  0  0
   13.1187   -9.8862   19.7911 H   0  0  0  0  0  0  0  0  0  0  0  0
   11.9995  -11.2060   20.4380 H   0  0  0  0  0  0  0  0  0  0  0  0
   12.2474  -10.2327   22.3975 H   0  0  0  0  0  0  0  0  0  0  0  0
   13.8992  -11.0077   22.3755 H   0  0  0  0  0  0  0  0  0  0  0  0
   14.2183   -8.6156   20.9743 H   0  0  0  0  0  0  0  0  0  0  0  0
   13.1467   -8.2166   22.4014 H   0  0  0  0  0  0  0  0  0  0  0  0
   15.4011   -9.9074   23.1547 H   0  0  0  0  0  0  0  0  0  0  0  0
   15.9114   -8.3315   22.3901 H   0  0  0  0  0  0  0  0  0  0  0  0
   14.7760   -8.8670   25.0419 H   0  0  0  0  0  0  0  0  0  0  0  0
   15.6773   -7.4220   24.3735 H   0  0  0  0  0  0  0  0  0  0  0  0
   13.8140   -6.2452   24.4105 H   0  0  0  0  0  0  0  0  0  0  0  0
   13.0834   -7.4414   23.2378 H   0  0  0  0  0  0  0  0  0  0  0  0
   12.5114   -8.8386   25.2957 H   0  0  0  0  0  0  0  0  0  0  0  0
   12.8559   -7.3064   26.2338 H   0  0  0  0  0  0  0  0  0  0  0  0
   10.5933   -7.1054   25.9734 H   0  0  0  0  0  0  0  0  0  0  0  0
   11.1834   -6.2739   24.4737 H   0  0  0  0  0  0  0  0  0  0  0  0
    9.4583   -8.7414   26.8105 H   0  0  0  0  0  0  0  0  0  0  0  0
    9.2980  -10.4930   26.4460 H   0  0  0  0  0  0  0  0  0  0  0  0
   10.9196   -9.7203   26.4460 H   0  0  0  0  0  0  0  0  0  0  0  0
    8.4320  -10.9767   24.4557 H   0  0  0  0  0  0  0  0  0  0  0  0
    8.1430  -11.8430   22.1780 H   0  0  0  0  0  0  0  0  0  0  0  0
    8.0240  -10.7900   20.8860 H   0  0  0  0  0  0  0  0  0  0  0  0
    8.8585   -9.3864   19.9729 H   0  0  0  0  0  0  0  0  0  0  0  0
   10.1566   -7.5806   18.8769 H   0  0  0  0  0  0  0  0  0  0  0  0
   11.5421   -6.0399   20.2544 H   0  0  0  0  0  0  0  0  0  0  0  0
   11.6320   -6.3179   22.7178 H   0  0  0  0  0  0  0  0  0  0  0  0
  1  2  1  0
  2  3  2  0
  3  4  1  0
  4  5  1  0
  4  6  2  0
  6  7  1  0
  7  8  2  0
  8  9  1  0
  9 10  2  0
 10 11  1  0
 11 12  2  0
 12 13  1  0
 13 14  1  0
 14 15  1  0
 15 16  1  0
 16 17  1  0
 17 18  1  0
 18 19  1  0
 19 20  1  0
 20 21  1  0
 21 22  1  0
 22 23  1  0
 23 24  2  0
 24 25  1  0
 24 26  1  0
 26 27  2  0
 27 28  1  0
 27 29  1  0
 29 30  2  0
 30 31  1  0
 31 32  2  0
 32 33  1  0
 33 34  2  0
 12  2  1  0
 34 23  1  0
 11  6  1  0
 34 29  1  0
  1 35  1  0
  1 36  1  0
  1 37  1  0
  3 38  1  0
  5 39  1  0
  5 40  1  0
  7 41  1  0
  8 42  1  0
  9 43  1  0
 10 44  1  0
 13 45  1  0
 13 46  1  0
 14 47  1  0
 14 48  1  0
 15 49  1  0
 15 50  1  0
 16 51  1  0
 16 52  1  0
 17 53  1  0
 17 54  1  0
 18 55  1  0
 18 56  1  0
 19 57  1  0
 19 58  1  0
 20 59  1  0
 20 60  1  0
 21 61  1  0
 21 62  1  0
 22 63  1  0
 22 64  1  0
 25 65  1  0
 25 66  1  0
 25 67  1  0
 26 68  1  0
 28 69  1  0
 28 70  1  0
 30 71  1  0
 31 72  1  0
 32 73  1  0
 33 74  1  0
M  CHG  2  12   1  23   1
M  END
>  <meeko>  (1) 
{"is_sidechain": [false], "free_energy": -9.881, "intermolecular_energy": -16.812, "internal_energy": -1.994}

$$$$
3arp_ligand
     RDKit          3D

 74 77  0  0  0  0  0  0  0  0999 V2000
   14.8570  -13.7810   16.7100 C   0  0  0  0  0  0  0  0  0  0  0  0
   15.9600  -13.2210   17.5730 C   0  0  0  0  0  0  0  0  0  0  0  0
   17.2200  -13.8170   17.4880 C   0  0  0  0  0  0  0  0  0  0  0  0
   18.2770  -13.3940   18.2780 C   0  0  0  0  0  0  0  0  0  0  0  0
   19.5330  -13.9710   18.0530 N   0  0  0  0  0  0  0  0  0  0  0  0
   18.0840  -12.2660   19.0960 C   0  0  0  0  0  0  0  0  0  0  0  0
   19.1440  -11.6960   19.8410 C   0  0  0  0  0  0  0  0  0  0  0  0
   18.9540  -10.5930   20.6700 C   0  0  0  0  0  0  0  0  0  0  0  0
   17.6970  -10.0240   20.7730 C   0  0  0  0  0  0  0  0  0  0  0  0
   16.6340  -10.5530   20.0400 C   0  0  0  0  0  0  0  0  0  0  0  0
   16.7920  -11.6720   19.1870 C   0  0  0  0  0  0  0  0  0  0  0  0
   15.7500  -12.1850   18.4410 N   0  0  0  0  0  0  0  0  0  0  0  0
   14.3700  -11.6170   18.5780 C   0  0  0  0  0  0  0  0  0  0  0  0
   13.8390  -11.8640   19.9900 C   0  0  0  0  0  0  0  0  0  0  0  0
   12.8960  -10.7610   20.4770 C   0  0  0  0  0  0  0  0  0  0  0  0
   13.1310  -10.2550   21.9050 C   0  0  0  0  0  0  0  0  0  0  0  0
   13.8710   -8.9150   21.9570 C   0  0  0  0  0  0  0  0  0  0  0  0
   14.9890   -8.8650   23.0100 C   0  0  0  0  0  0  0  0  0  0  0  0
   14.8040   -7.7390   24.0350 C   0  0  0  0  0  0  0  0  0  0  0  0
   13.6090   -7.9460   24.9770 C   0  0  0  0  0  0  0  0  0  0  0  0
   13.0590   -6.6430   25.5650 C   0  0  0  0  0  0  0  0  0  0  0  0
   11.5880   -6.3800   25.2190 C   0  0  0  0  0  0  0  0  0  0  0  0
   11.3200   -6.5630   23.7540 N   0  0  0  0  0  0  0  0  0  0  0  0
   11.8320   -5.6640   22.8580 C   0  0  0  0  0  0  0  0  0  0  0  0
   12.5760   -4.4270   23.2920 C   0  0  0  0  0  0  0  0  0  0  0  0
   11.6440   -5.8590   21.4870 C   0  0  0  0  0  0  0  0  0  0  0  0
   10.9570   -6.9570   20.9980 C   0  0  0  0  0  0  0  0  0  0  0  0
   10.7320   -7.0260   19.6170 N   0  0  0  0  0  0  0  0  0  0  0  0
   10.3250   -7.8080   21.9210 C   0  0  0  0  0  0  0  0  0  0  0  0
    9.4850   -8.8660   21.5030 C   0  0  0  0  0  0  0  0  0  0  0  0
    8.8590   -9.7170   22.4130 C   0  0  0  0  0  0  0  0  0  0  0  0
    9.0510   -9.5270   23.7680 C   0  0  0  0  0  0  0  0  0  0  0  0
    9.8670   -8.4850   24.2140 C   0  0  0  0  0  0  0  0  0  0  0  0
   10.5220   -7.6050   23.3190 C   0  0  0  0  0  0  0  0  0  0  0  0
   14.0598  -14.1858   17.3508 H   0  0  0  0  0  0  0  0  0  0  0  0
   14.4468  -12.9820   16.0749 H   0  0  0  0  0  0  0  0  0  0  0  0
   15.2600  -14.5837   16.0749 H   0  0  0  0  0  0  0  0  0  0  0  0
   17.3772  -14.6417   16.7772 H   0  0  0  0  0  0  0  0  0  0  0  0
   19.5570  -14.9840   17.9710 H   0  0  0  0  0  0  0  0  0  0  0  0
   20.2930  -13.6460   18.6430 H   0  0  0  0  0  0  0  0  0  0  0  0
   20.1484  -12.1376   19.7629 H   0  0  0  0  0  0  0  0  0  0  0  0
   19.7981  -10.1768   21.2394 H   0  0  0  0  0  0  0  0  0  0  0  0
   17.5361   -9.1572   21.4308 H   0  0  0  0  0  0  0  0  0  0  0  0
   15.6420  -10.0859   20.1276 H   0  0  0  0  0  0  0  0  0  0  0  0
   14.4011  -10.5345   18.3850 H   0  0  0  0  0  0  0  0  0  0  0  0
   13.7048  -12.1072   17.8519 H   0  0  0  0  0  0  0  0  0  0  0  0
   13.2938  -12.8194   19.9971 H   0  0  0  0  0  0  0  0  0  0  0  0
   14.7047  -11.8795   20.6685 H   0  0  0  0  0  0  0  0  0  0  0  0
   13.0006   -9.9041   19.7953 H   0  0  0  0  0  0  0  0  0  0  0  0
   11.8927  -11.2119   20.4845 H   0  0  0  0  0  0  0  0  0  0  0  0
   12.1551  -10.1347   22.3981 H   0  0  0  0  0  0  0  0  0  0  0  0
   13.7632  -10.9971   22.4145 H   0  0  0  0  0  0  0  0  0  0  0  0
   14.3163   -8.7260   20.9691 H   0  0  0  0  0  0  0  0  0  0  0  0
   13.1313   -8.1510   22.2382 H   0  0  0  0  0  0  0  0  0  0  0  0
   15.0080   -9.8256   23.5456 H   0  0  0  0  0  0  0  0  0  0  0  0
   15.9314   -8.6702   22.4771 H   0  0  0  0  0  0  0  0  0  0  0  0
   15.7175   -7.6713   24.6440 H   0  0  0  0  0  0  0  0  0  0  0  0
   14.6068   -6.8183   23.4662 H   0  0  0  0  0  0  0  0  0  0  0  0
   12.8038   -8.4406   24.4139 H   0  0  0  0  0  0  0  0  0  0  0  0
   13.9650   -8.5557   25.8206 H   0  0  0  0  0  0  0  0  0  0  0  0
   13.1549   -6.6889   26.6599 H   0  0  0  0  0  0  0  0  0  0  0  0
   13.6434   -5.8213   25.1253 H   0  0  0  0  0  0  0  0  0  0  0  0
   10.9578   -7.0804   25.7867 H   0  0  0  0  0  0  0  0  0  0  0  0
   11.3555   -5.3375   25.4820 H   0  0  0  0  0  0  0  0  0  0  0  0
   12.6031   -4.3820   24.3907 H   0  0  0  0  0  0  0  0  0  0  0  0
   13.6036   -4.4611   22.9010 H   0  0  0  0  0  0  0  0  0  0  0  0
   12.0643   -3.5352   22.9010 H   0  0  0  0  0  0  0  0  0  0  0  0
   12.0517   -5.1222   20.7792 H   0  0  0  0  0  0  0  0  0  0  0  0
   10.3260   -6.2040   19.1790 H   0  0  0  0  0  0  0  0  0  0  0  0
   10.2870   -7.8720   19.2710 H   0  0  0  0  0  0  0  0  0  0  0  0
    9.3204   -9.0225   20.4267 H   0  0  0  0  0  0  0  0  0  0  0  0
    8.2163  -10.5345   22.0544 H   0  0  0  0  0  0  0  0  0  0  0  0
    8.5626  -10.1944   24.4933 H   0  0  0  0  0  0  0  0  0  0  0  0
   10.0053   -8.3434   25.2960 H   0  0  0  0  0  0  0  0  0  0  0  0
  1  2  1  0
  2  3  2  0
  3  4  1  0
  4  5  1  0
  4  6  2  0
  6  7  1  0
  7  8  2  0
  8  9  1  0
  9 10  2  0
 10 11  1  0
 11 12  2  0
 12 13  1  0
 13 14  1  0
 14 15  1  0
 15 16  1  0
 16 17  1  0
 17 18  1  0
 18 19  1  0
 19 20  1  0
 20 21  1  0
 21 22  1  0
 22 23  1  0
 23 24  2  0
 24 25  1  0
 24 26  1  0
 26 27  2  0
 27 28  1  0
 27 29  1  0
 29 30  2  0
 30 31  1  0
 31 32  2  0
 32 33  1  0
 33 34  2  0
 12  2  1  0
 34 23  1  0
 11  6  1  0
 34 29  1  0
  1 35  1  0
  1 36  1  0
  1 37  1  0
  3 38  1  0
  5 39  1  0
  5 40  1  0
  7 41  1  0
  8 42  1  0
  9 43  1  0
 10 44  1  0
 13 45  1  0
 13 46  1  0
 14 47  1  0
 14 48  1  0
 15 49  1  0
 15 50  1  0
 16 51  1  0
 16 52  1  0
 17 53  1  0
 17 54  1  0
 18 55  1  0
 18 56  1  0
 19 57  1  0
 19 58  1  0
 20 59  1  0
 20 60  1  0
 21 61  1  0
 21 62  1  0
 22 63  1  0
 22 64  1  0
 25 65  1  0
 25 66  1  0
 25 67  1  0
 26 68  1  0
 28 69  1  0
 28 70  1  0
 30 71  1  0
 31 72  1  0
 32 73  1  0
 33 74  1  0
M  CHG  2  12   1  23   1
M  END
>  <meeko>  (2) 
{"is_sidechain": [false], "free_energy": -9.844, "intermolecular_energy": -16.48, "internal_energy": -2.264}

$$$$
3arp_ligand
     RDKit          3D

 74 77  0  0  0  0  0  0  0  0999 V2000
    6.8000   -5.8410   35.0580 C   0  0  0  0  0  0  0  0  0  0  0  0
    7.5990   -5.2220   33.9380 C   0  0  0  0  0  0  0  0  0  0  0  0
    7.9070   -3.8630   34.0320 C   0  0  0  0  0  0  0  0  0  0  0  0
    8.5980   -3.2060   33.0260 C   0  0  0  0  0  0  0  0  0  0  0  0
    8.9620   -1.8720   33.2480 N   0  0  0  0  0  0  0  0  0  0  0  0
    9.0860   -3.9670   31.9490 C   0  0  0  0  0  0  0  0  0  0  0  0
    9.9030   -3.3970   30.9430 C   0  0  0  0  0  0  0  0  0  0  0  0
   10.3690   -4.1410   29.8620 C   0  0  0  0  0  0  0  0  0  0  0  0
   10.0360   -5.4790   29.7580 C   0  0  0  0  0  0  0  0  0  0  0  0
    9.2440   -6.0750   30.7410 C   0  0  0  0  0  0  0  0  0  0  0  0
    8.7550   -5.3500   31.8540 C   0  0  0  0  0  0  0  0  0  0  0  0
    7.9910   -5.9390   32.8420 N   0  0  0  0  0  0  0  0  0  0  0  0
    7.5750   -7.3740   32.7220 C   0  0  0  0  0  0  0  0  0  0  0  0
    8.7900   -8.2880   32.8830 C   0  0  0  0  0  0  0  0  0  0  0  0
    8.7230   -9.5360   32.0000 C   0  0  0  0  0  0  0  0  0  0  0  0
    7.5470   -9.6030   31.0170 C   0  0  0  0  0  0  0  0  0  0  0  0
    7.9400   -9.2430   29.5810 C   0  0  0  0  0  0  0  0  0  0  0  0
    8.3330  -10.4560   28.7240 C   0  0  0  0  0  0  0  0  0  0  0  0
    9.0580  -10.0730   27.4270 C   0  0  0  0  0  0  0  0  0  0  0  0
    9.3410   -8.5690   27.2960 C   0  0  0  0  0  0  0  0  0  0  0  0
    9.4080   -8.0820   25.8460 C   0  0  0  0  0  0  0  0  0  0  0  0
   10.6190   -8.6150   25.0700 C   0  0  0  0  0  0  0  0  0  0  0  0
   10.5880   -8.1890   23.6310 N   0  0  0  0  0  0  0  0  0  0  0  0
   11.3490   -7.1250   23.2280 C   0  0  0  0  0  0  0  0  0  0  0  0
   12.1440   -6.2880   24.1980 C   0  0  0  0  0  0  0  0  0  0  0  0
   11.3800   -6.7580   21.8800 C   0  0  0  0  0  0  0  0  0  0  0  0
   10.6650   -7.4580   20.9210 C   0  0  0  0  0  0  0  0  0  0  0  0
   10.6770   -6.9660   19.6100 N   0  0  0  0  0  0  0  0  0  0  0  0
    9.7890   -8.4680   21.3540 C   0  0  0  0  0  0  0  0  0  0  0  0
    8.9170   -9.1300   20.4600 C   0  0  0  0  0  0  0  0  0  0  0  0
    8.0490  -10.1360   20.8810 C   0  0  0  0  0  0  0  0  0  0  0  0
    8.0240  -10.5020   22.2140 C   0  0  0  0  0  0  0  0  0  0  0  0
    8.8660   -9.8600   23.1250 C   0  0  0  0  0  0  0  0  0  0  0  0
    9.7630   -8.8380   22.7310 C   0  0  0  0  0  0  0  0  0  0  0  0
    7.2145   -5.5199   36.0250 H   0  0  0  0  0  0  0  0  0  0  0  0
    5.7514   -5.5172   34.9828 H   0  0  0  0  0  0  0  0  0  0  0  0
    6.8515   -6.9372   34.9828 H   0  0  0  0  0  0  0  0  0  0  0  0
    7.5941   -3.3014   34.9246 H   0  0  0  0  0  0  0  0  0  0  0  0
    8.5440   -1.1800   32.6320 H   0  0  0  0  0  0  0  0  0  0  0  0
    9.9540   -1.6870   33.3660 H   0  0  0  0  0  0  0  0  0  0  0  0
   10.1779   -2.3345   31.0175 H   0  0  0  0  0  0  0  0  0  0  0  0
   10.9987   -3.6667   29.0948 H   0  0  0  0  0  0  0  0  0  0  0  0
   10.3940   -6.0719   28.9034 H   0  0  0  0  0  0  0  0  0  0  0  0
    8.9920   -7.1417   30.6477 H   0  0  0  0  0  0  0  0  0  0  0  0
    6.8386   -7.6062   33.5055 H   0  0  0  0  0  0  0  0  0  0  0  0
    7.1297   -7.5382   31.7297 H   0  0  0  0  0  0  0  0  0  0  0  0
    9.6935   -7.7194   32.6177 H   0  0  0  0  0  0  0  0  0  0  0  0
    8.8094   -8.6269   33.9293 H   0  0  0  0  0  0  0  0  0  0  0  0
    9.6534   -9.5847   31.4152 H   0  0  0  0  0  0  0  0  0  0  0  0
    8.5802  -10.3802   32.6906 H   0  0  0  0  0  0  0  0  0  0  0  0
    7.1441  -10.6265   31.0231 H   0  0  0  0  0  0  0  0  0  0  0  0
    6.8022   -8.8639   31.3473 H   0  0  0  0  0  0  0  0  0  0  0  0
    7.0853   -8.7424   29.1025 H   0  0  0  0  0  0  0  0  0  0  0  0
    8.8261   -8.5942   29.6440 H   0  0  0  0  0  0  0  0  0  0  0  0
    8.9966  -11.1024   29.3172 H   0  0  0  0  0  0  0  0  0  0  0  0
    7.4025  -10.9684   28.4382 H   0  0  0  0  0  0  0  0  0  0  0  0
   10.0171  -10.6105   27.3941 H   0  0  0  0  0  0  0  0  0  0  0  0
    8.3928  -10.3475   26.5950 H   0  0  0  0  0  0  0  0  0  0  0  0
    8.5402   -8.0183   27.8112 H   0  0  0  0  0  0  0  0  0  0  0  0
   10.3291   -8.3865   27.7436 H   0  0  0  0  0  0  0  0  0  0  0  0
    8.4936   -8.4072   25.3282 H   0  0  0  0  0  0  0  0  0  0  0  0
    9.5054   -6.9868   25.8797 H   0  0  0  0  0  0  0  0  0  0  0  0
   11.5383   -8.2304   25.5359 H   0  0  0  0  0  0  0  0  0  0  0  0
   10.5904   -9.7141   25.1028 H   0  0  0  0  0  0  0  0  0  0  0  0
   11.8779   -6.5682   25.2279 H   0  0  0  0  0  0  0  0  0  0  0  0
   13.2183   -6.4611   24.0369 H   0  0  0  0  0  0  0  0  0  0  0  0
   11.9159   -5.2240   24.0369 H   0  0  0  0  0  0  0  0  0  0  0  0
   11.9862   -5.8931   21.5728 H   0  0  0  0  0  0  0  0  0  0  0  0
   11.4350   -6.3360   19.3650 H   0  0  0  0  0  0  0  0  0  0  0  0
    9.7920   -6.6190   19.2470 H   0  0  0  0  0  0  0  0  0  0  0  0
    8.9236   -8.8421   19.3984 H   0  0  0  0  0  0  0  0  0  0  0  0
    7.3881  -10.6355   20.1573 H   0  0  0  0  0  0  0  0  0  0  0  0
    7.3436  -11.2958   22.5559 H   0  0  0  0  0  0  0  0  0  0  0  0
    8.8310  -10.1583   24.1832 H   0  0  0  0  0  0  0  0  0  0  0  0
  1  2  1  0
  2  3  2  0
  3  4  1  0
  4  5  1  0
  4  6  2  0
  6  7  1  0
  7  8  2  0
  8  9  1  0
  9 10  2  0
 10 11  1  0
 11 12  2  0
 12 13  1  0
 13 14  1  0
 14 15  1  0
 15 16  1  0
 16 17  1  0
 17 18  1  0
 18 19  1  0
 19 20  1  0
 20 21  1  0
 21 22  1  0
 22 23  1  0
 23 24  2  0
 24 25  1  0
 24 26  1  0
 26 27  2  0
 27 28  1  0
 27 29  1  0
 29 30  2  0
 30 31  1  0
 31 32  2  0
 32 33  1  0
 33 34  2  0
 12  2  1  0
 34 23  1  0
 11  6  1  0
 34 29  1  0
  1 35  1  0
  1 36  1  0
  1 37  1  0
  3 38  1  0
  5 39  1  0
  5 40  1  0
  7 41  1  0
  8 42  1  0
  9 43  1  0
 10 44  1  0
 13 45  1  0
 13 46  1  0
 14 47  1  0
 14 48  1  0
 15 49  1  0
 15 50  1  0
 16 51  1  0
 16 52  1  0
 17 53  1  0
 17 54  1  0
 18 55  1  0
 18 56  1  0
 19 57  1  0
 19 58  1  0
 20 59  1  0
 20 60  1  0
 21 61  1  0
 21 62  1  0
 22 63  1  0
 22 64  1  0
 25 65  1  0
 25 66  1  0
 25 67  1  0
 26 68  1  0
 28 69  1  0
 28 70  1  0
 30 71  1  0
 31 72  1  0
 32 73  1  0
 33 74  1  0
M  CHG  2  12   1  23   1
M  END
>  <meeko>  (3) 
{"is_sidechain": [false], "free_energy": -9.756, "intermolecular_energy": -17.491, "internal_energy": -1.103}

$$$$
3arp_ligand
     RDKit          3D

 74 77  0  0  0  0  0  0  0  0999 V2000
    9.7140   -9.2470   26.3190 C   0  0  0  0  0  0  0  0  0  0  0  0
    9.7880   -9.0060   24.8320 C   0  0  0  0  0  0  0  0  0  0  0  0
    9.0810   -9.8730   23.9960 C   0  0  0  0  0  0  0  0  0  0  0  0
    9.1300   -9.7500   22.6160 C   0  0  0  0  0  0  0  0  0  0  0  0
    8.3070  -10.5900   21.8560 N   0  0  0  0  0  0  0  0  0  0  0  0
    9.8240   -8.6550   22.0720 C   0  0  0  0  0  0  0  0  0  0  0  0
    9.8230   -8.3880   20.6810 C   0  0  0  0  0  0  0  0  0  0  0  0
   10.5270   -7.3180   20.1350 C   0  0  0  0  0  0  0  0  0  0  0  0
   11.2490   -6.4790   20.9640 C   0  0  0  0  0  0  0  0  0  0  0  0
   11.2600   -6.7070   22.3410 C   0  0  0  0  0  0  0  0  0  0  0  0
   10.5540   -7.7830   22.9300 C   0  0  0  0  0  0  0  0  0  0  0  0
   10.5410   -7.9990   24.2950 N   0  0  0  0  0  0  0  0  0  0  0  0
   11.3590   -7.1340   25.2050 C   0  0  0  0  0  0  0  0  0  0  0  0
   10.5070   -5.9840   25.7420 C   0  0  0  0  0  0  0  0  0  0  0  0
   11.0680   -4.6050   25.3850 C   0  0  0  0  0  0  0  0  0  0  0  0
   12.5930   -4.4580   25.4610 C   0  0  0  0  0  0  0  0  0  0  0  0
   13.1600   -3.4980   24.4100 C   0  0  0  0  0  0  0  0  0  0  0  0
   14.3180   -4.0900   23.5920 C   0  0  0  0  0  0  0  0  0  0  0  0
   14.7340   -5.4910   24.0580 C   0  0  0  0  0  0  0  0  0  0  0  0
   16.2340   -5.6250   24.3590 C   0  0  0  0  0  0  0  0  0  0  0  0
   16.9520   -6.6320   23.4570 C   0  0  0  0  0  0  0  0  0  0  0  0
   16.6440   -8.0960   23.7960 C   0  0  0  0  0  0  0  0  0  0  0  0
   16.6350   -8.9610   22.5700 N   0  0  0  0  0  0  0  0  0  0  0  0
   15.4420   -9.2830   21.9810 C   0  0  0  0  0  0  0  0  0  0  0  0
   14.1150   -8.8860   22.5770 C   0  0  0  0  0  0  0  0  0  0  0  0
   15.4230  -10.0330   20.8020 C   0  0  0  0  0  0  0  0  0  0  0  0
   16.5930  -10.4570   20.1930 C   0  0  0  0  0  0  0  0  0  0  0  0
   16.4820  -11.2830   19.0690 N   0  0  0  0  0  0  0  0  0  0  0  0
   17.8080  -10.2350   20.8660 C   0  0  0  0  0  0  0  0  0  0  0  0
   19.0300  -10.7610   20.3870 C   0  0  0  0  0  0  0  0  0  0  0  0
   20.2380  -10.5410   21.0460 C   0  0  0  0  0  0  0  0  0  0  0  0
   20.2560   -9.7930   22.2080 C   0  0  0  0  0  0  0  0  0  0  0  0
   19.0640   -9.2670   22.7130 C   0  0  0  0  0  0  0  0  0  0  0  0
   17.8200   -9.4670   22.0670 C   0  0  0  0  0  0  0  0  0  0  0  0
    9.9961   -8.3281   26.8539 H   0  0  0  0  0  0  0  0  0  0  0  0
    8.6874   -9.5307   26.5938 H   0  0  0  0  0  0  0  0  0  0  0  0
   10.4045  -10.0580   26.5938 H   0  0  0  0  0  0  0  0  0  0  0  0
    8.4711  -10.6720   24.4429 H   0  0  0  0  0  0  0  0  0  0  0  0
    8.6780  -10.8990   20.9620 H   0  0  0  0  0  0  0  0  0  0  0  0
    7.3370  -10.3030   21.7550 H   0  0  0  0  0  0  0  0  0  0  0  0
    9.2488   -9.0458   20.0120 H   0  0  0  0  0  0  0  0  0  0  0  0
   10.5090   -7.1409   19.0495 H   0  0  0  0  0  0  0  0  0  0  0  0
   11.8126   -5.6350   20.5397 H   0  0  0  0  0  0  0  0  0  0  0  0
   11.8354   -6.0292   22.9887 H   0  0  0  0  0  0  0  0  0  0  0  0
   11.7274   -7.7381   26.0472 H   0  0  0  0  0  0  0  0  0  0  0  0
   12.2084   -6.7204   24.6415 H   0  0  0  0  0  0  0  0  0  0  0  0
    9.4951   -6.0707   25.3194 H   0  0  0  0  0  0  0  0  0  0  0  0
   10.5026   -6.0629   26.8392 H   0  0  0  0  0  0  0  0  0  0  0  0
   10.7586   -4.3723   24.3554 H   0  0  0  0  0  0  0  0  0  0  0  0
   10.6661   -3.9166   26.1430 H   0  0  0  0  0  0  0  0  0  0  0  0
   12.8585   -4.0799   26.4593 H   0  0  0  0  0  0  0  0  0  0  0  0
   13.0271   -5.4497   25.2659 H   0  0  0  0  0  0  0  0  0  0  0  0
   12.3504   -3.2240   23.7175 H   0  0  0  0  0  0  0  0  0  0  0  0
   13.5613   -2.6291   24.9522 H   0  0  0  0  0  0  0  0  0  0  0  0
   14.0068   -4.1502   22.5387 H   0  0  0  0  0  0  0  0  0  0  0  0
   15.1863   -3.4289   23.7297 H   0  0  0  0  0  0  0  0  0  0  0  0
   14.1738   -5.7324   24.9734 H   0  0  0  0  0  0  0  0  0  0  0  0
   14.5103   -6.1825   23.2323 H   0  0  0  0  0  0  0  0  0  0  0  0
   16.7051   -4.6401   24.2247 H   0  0  0  0  0  0  0  0  0  0  0  0
   16.3243   -5.9945   25.3912 H   0  0  0  0  0  0  0  0  0  0  0  0
   16.6467   -6.4452   22.4168 H   0  0  0  0  0  0  0  0  0  0  0  0
   18.0315   -6.4876   23.6112 H   0  0  0  0  0  0  0  0  0  0  0  0
   17.4111   -8.4699   24.4901 H   0  0  0  0  0  0  0  0  0  0  0  0
   15.6440   -8.1386   24.2523 H   0  0  0  0  0  0  0  0  0  0  0  0
   14.1850   -8.9070   23.6746 H   0  0  0  0  0  0  0  0  0  0  0  0
   13.8534   -7.8703   22.2456 H   0  0  0  0  0  0  0  0  0  0  0  0
   13.3385   -9.5912   22.2456 H   0  0  0  0  0  0  0  0  0  0  0  0
   14.4560  -10.2929   20.3466 H   0  0  0  0  0  0  0  0  0  0  0  0
   15.8380  -10.9830   18.3420 H   0  0  0  0  0  0  0  0  0  0  0  0
   16.3810  -12.2800   19.2460 H   0  0  0  0  0  0  0  0  0  0  0  0
   19.0270  -11.3623   19.4659 H   0  0  0  0  0  0  0  0  0  0  0  0
   21.1719  -10.9603   20.6436 H   0  0  0  0  0  0  0  0  0  0  0  0
   21.2053   -9.6124   22.7335 H   0  0  0  0  0  0  0  0  0  0  0  0
   19.0930   -8.6788   23.6421 H   0  0  0  0  0  0  0  0  0  0  0  0
  1  2  1  0
  2  3  2  0
  3  4  1  0
  4  5  1  0
  4  6  2  0
  6  7  1  0
  7  8  2  0
  8  9  1  0
  9 10  2  0
 10 11  1  0
 11 12  2  0
 12 13  1  0
 13 14  1  0
 14 15  1  0
 15 16  1  0
 16 17  1  0
 17 18  1  0
 18 19  1  0
 19 20  1  0
 20 21  1  0
 21 22  1  0
 22 23  1  0
 23 24  2  0
 24 25  1  0
 24 26  1  0
 26 27  2  0
 27 28  1  0
 27 29  1  0
 29 30  2  0
 30 31  1  0
 31 32  2  0
 32 33  1  0
 33 34  2  0
 12  2  1  0
 34 23  1  0
 11  6  1  0
 34 29  1  0
  1 35  1  0
  1 36  1  0
  1 37  1  0
  3 38  1  0
  5 39  1  0
  5 40  1  0
  7 41  1  0
  8 42  1  0
  9 43  1  0
 10 44  1  0
 13 45  1  0
 13 46  1  0
 14 47  1  0
 14 48  1  0
 15 49  1  0
 15 50  1  0
 16 51  1  0
 16 52  1  0
 17 53  1  0
 17 54  1  0
 18 55  1  0
 18 56  1  0
 19 57  1  0
 19 58  1  0
 20 59  1  0
 20 60  1  0
 21 61  1  0
 21 62  1  0
 22 63  1  0
 22 64  1  0
 25 65  1  0
 25 66  1  0
 25 67  1  0
 26 68  1  0
 28 69  1  0
 28 70  1  0
 30 71  1  0
 31 72  1  0
 32 73  1  0
 33 74  1  0
M  CHG  2  12   1  23   1
M  END
>  <meeko>  (4) 
{"is_sidechain": [false], "free_energy": -9.725, "intermolecular_energy": -16.407, "internal_energy": -2.135}

$$$$
3arp_ligand
     RDKit          3D

 74 77  0  0  0  0  0  0  0  0999 V2000
   12.6350   -6.5610   24.1890 C   0  0  0  0  0  0  0  0  0  0  0  0
   11.6470   -7.2000   23.2460 C   0  0  0  0  0  0  0  0  0  0  0  0
   11.6670   -6.7950   21.9100 C   0  0  0  0  0  0  0  0  0  0  0  0
   10.7640   -7.2990   20.9870 C   0  0  0  0  0  0  0  0  0  0  0  0
   10.9230   -6.9240   19.6460 N   0  0  0  0  0  0  0  0  0  0  0  0
    9.8900   -8.3190   21.4010 C   0  0  0  0  0  0  0  0  0  0  0  0
    9.0210   -8.9710   20.4930 C   0  0  0  0  0  0  0  0  0  0  0  0
    8.1370   -9.9670   20.9030 C   0  0  0  0  0  0  0  0  0  0  0  0
    8.1000  -10.3430   22.2330 C   0  0  0  0  0  0  0  0  0  0  0  0
    8.9540   -9.7300   23.1510 C   0  0  0  0  0  0  0  0  0  0  0  0
    9.8660   -8.7170   22.7690 C   0  0  0  0  0  0  0  0  0  0  0  0
   10.7310   -8.1230   23.6680 N   0  0  0  0  0  0  0  0  0  0  0  0
   10.6700   -8.4790   25.1230 C   0  0  0  0  0  0  0  0  0  0  0  0
    9.8150   -7.4600   25.8770 C   0  0  0  0  0  0  0  0  0  0  0  0
   10.6020   -6.6860   26.9380 C   0  0  0  0  0  0  0  0  0  0  0  0
   10.3140   -5.1830   27.0270 C   0  0  0  0  0  0  0  0  0  0  0  0
   11.5140   -4.3660   27.5170 C   0  0  0  0  0  0  0  0  0  0  0  0
   12.4650   -5.1520   28.4330 C   0  0  0  0  0  0  0  0  0  0  0  0
   12.8130   -4.4050   29.7270 C   0  0  0  0  0  0  0  0  0  0  0  0
   11.9460   -3.1630   29.9790 C   0  0  0  0  0  0  0  0  0  0  0  0
   11.0760   -3.2680   31.2350 C   0  0  0  0  0  0  0  0  0  0  0  0
    9.5750   -3.3740   30.9410 C   0  0  0  0  0  0  0  0  0  0  0  0
    8.8890   -4.3240   31.8800 N   0  0  0  0  0  0  0  0  0  0  0  0
    8.3460   -3.8460   33.0420 C   0  0  0  0  0  0  0  0  0  0  0  0
    8.4990   -2.4100   33.4740 C   0  0  0  0  0  0  0  0  0  0  0  0
    7.6490   -4.7070   33.8940 C   0  0  0  0  0  0  0  0  0  0  0  0
    7.4760   -6.0470   33.5870 C   0  0  0  0  0  0  0  0  0  0  0  0
    6.8480   -6.8590   34.5400 N   0  0  0  0  0  0  0  0  0  0  0  0
    8.1410   -6.5600   32.4600 C   0  0  0  0  0  0  0  0  0  0  0  0
    8.1360   -7.9420   32.1580 C   0  0  0  0  0  0  0  0  0  0  0  0
    8.7880   -8.4570   31.0400 C   0  0  0  0  0  0  0  0  0  0  0  0
    9.4720   -7.6030   30.1950 C   0  0  0  0  0  0  0  0  0  0  0  0
    9.5050   -6.2340   30.4700 C   0  0  0  0  0  0  0  0  0  0  0  0
    8.8490   -5.6750   31.5940 C   0  0  0  0  0  0  0  0  0  0  0  0
   12.3306   -6.7578   25.2276 H   0  0  0  0  0  0  0  0  0  0  0  0
   13.6353   -6.9837   24.0137 H   0  0  0  0  0  0  0  0  0  0  0  0
   12.6598   -5.4753   24.0137 H   0  0  0  0  0  0  0  0  0  0  0  0
   12.4163   -6.0593   21.5825 H   0  0  0  0  0  0  0  0  0  0  0  0
   10.3560   -7.4230   18.9660 H   0  0  0  0  0  0  0  0  0  0  0  0
   11.8780   -6.8340   19.3120 H   0  0  0  0  0  0  0  0  0  0  0  0
    9.0444   -8.6825   19.4318 H   0  0  0  0  0  0  0  0  0  0  0  0
    7.4723  -10.4514   20.1726 H   0  0  0  0  0  0  0  0  0  0  0  0
    7.3996  -11.1229   22.5666 H   0  0  0  0  0  0  0  0  0  0  0  0
    8.9172  -10.0439   24.2046 H   0  0  0  0  0  0  0  0  0  0  0  0
   10.2268   -9.4796   25.2346 H   0  0  0  0  0  0  0  0  0  0  0  0
   11.6885   -8.4727   25.5386 H   0  0  0  0  0  0  0  0  0  0  0  0
    9.4047   -6.7418   25.1518 H   0  0  0  0  0  0  0  0  0  0  0  0
    9.0220   -8.0171   26.3973 H   0  0  0  0  0  0  0  0  0  0  0  0
   10.3730   -7.1308   27.9176 H   0  0  0  0  0  0  0  0  0  0  0  0
   11.6581   -6.7679   26.6413 H   0  0  0  0  0  0  0  0  0  0  0  0
   10.0299   -4.8218   26.0276 H   0  0  0  0  0  0  0  0  0  0  0  0
    9.5055   -5.0482   27.7606 H   0  0  0  0  0  0  0  0  0  0  0  0
   12.0818   -4.0229   26.6396 H   0  0  0  0  0  0  0  0  0  0  0  0
   11.1132   -3.5313   28.1108 H   0  0  0  0  0  0  0  0  0  0  0  0
   11.9859   -6.1060   28.6982 H   0  0  0  0  0  0  0  0  0  0  0  0
   13.4036   -5.3007   27.8790 H   0  0  0  0  0  0  0  0  0  0  0  0
   12.6820   -5.0965   30.5724 H   0  0  0  0  0  0  0  0  0  0  0  0
   13.8510   -4.0554   29.6254 H   0  0  0  0  0  0  0  0  0  0  0  0
   12.6090   -2.2920   30.0869 H   0  0  0  0  0  0  0  0  0  0  0  0
   11.2643   -3.0657   29.1212 H   0  0  0  0  0  0  0  0  0  0  0  0
   11.3835   -4.1628   31.7961 H   0  0  0  0  0  0  0  0  0  0  0  0
   11.2257   -2.3403   31.8069 H   0  0  0  0  0  0  0  0  0  0  0  0
    9.1202   -2.3780   31.0468 H   0  0  0  0  0  0  0  0  0  0  0  0
    9.4532   -3.7573   29.9172 H   0  0  0  0  0  0  0  0  0  0  0  0
    8.5047   -2.3562   34.5727 H   0  0  0  0  0  0  0  0  0  0  0  0
    9.4451   -2.0081   33.0823 H   0  0  0  0  0  0  0  0  0  0  0  0
    7.6589   -1.8178   33.0823 H   0  0  0  0  0  0  0  0  0  0  0  0
    7.2279   -4.3117   34.8302 H   0  0  0  0  0  0  0  0  0  0  0  0
    7.4260   -7.2020   35.3010 H   0  0  0  0  0  0  0  0  0  0  0  0
    6.2530   -7.6020   34.1820 H   0  0  0  0  0  0  0  0  0  0  0  0
    7.6004   -8.6316   32.8271 H   0  0  0  0  0  0  0  0  0  0  0  0
    8.7588   -9.5365   30.8308 H   0  0  0  0  0  0  0  0  0  0  0  0
    9.9886   -8.0004   29.3089 H   0  0  0  0  0  0  0  0  0  0  0  0
   10.0585   -5.5682   29.7915 H   0  0  0  0  0  0  0  0  0  0  0  0
  1  2  1  0
  2  3  2  0
  3  4  1  0
  4  5  1  0
  4  6  2  0
  6  7  1  0
  7  8  2  0
  8  9  1  0
  9 10  2  0
 10 11  1  0
 11 12  2  0
 12 13  1  0
 13 14  1  0
 14 15  1  0
 15 16  1  0
 16 17  1  0
 17 18  1  0
 18 19  1  0
 19 20  1  0
 20 21  1  0
 21 22  1  0
 22 23  1  0
 23 24  2  0
 24 25  1  0
 24 26  1  0
 26 27  2  0
 27 28  1  0
 27 29  1  0
 29 30  2  0
 30 31  1  0
 31 32  2  0
 32 33  1  0
 33 34  2  0
 12  2  1  0
 34 23  1  0
 11  6  1  0
 34 29  1  0
  1 35  1  0
  1 36  1  0
  1 37  1  0
  3 38  1  0
  5 39  1  0
  5 40  1  0
  7 41  1  0
  8 42  1  0
  9 43  1  0
 10 44  1  0
 13 45  1  0
 13 46  1  0
 14 47  1  0
 14 48  1  0
 15 49  1  0
 15 50  1  0
 16 51  1  0
 16 52  1  0
 17 53  1  0
 17 54  1  0
 18 55  1  0
 18 56  1  0
 19 57  1  0
 19 58  1  0
 20 59  1  0
 20 60  1  0
 21 61  1  0
 21 62  1  0
 22 63  1  0
 22 64  1  0
 25 65  1  0
 25 66  1  0
 25 67  1  0
 26 68  1  0
 28 69  1  0
 28 70  1  0
 30 71  1  0
 31 72  1  0
 32 73  1  0
 33 74  1  0
M  CHG  2  12   1  23   1
M  END
>  <meeko>  (5) 
{"is_sidechain": [false], "free_energy": -9.649, "intermolecular_energy": -16.587, "internal_energy": -1.825}

$$$$
3arp_ligand
     RDKit          3D

 74 77  0  0  0  0  0  0  0  0999 V2000
   12.7770   -4.6920   23.2900 C   0  0  0  0  0  0  0  0  0  0  0  0
   11.8900   -5.8260   22.8400 C   0  0  0  0  0  0  0  0  0  0  0  0
   11.6750   -5.9790   21.4690 C   0  0  0  0  0  0  0  0  0  0  0  0
   10.8390   -6.9670   20.9730 C   0  0  0  0  0  0  0  0  0  0  0  0
   10.7650   -7.1210   19.5820 N   0  0  0  0  0  0  0  0  0  0  0  0
   10.2930   -7.8930   21.8790 C   0  0  0  0  0  0  0  0  0  0  0  0
    9.5290   -9.0010   21.4430 C   0  0  0  0  0  0  0  0  0  0  0  0
    8.9670   -9.9080   22.3390 C   0  0  0  0  0  0  0  0  0  0  0  0
    9.1580   -9.7360   23.6980 C   0  0  0  0  0  0  0  0  0  0  0  0
    9.9190   -8.6610   24.1590 C   0  0  0  0  0  0  0  0  0  0  0  0
   10.5070   -7.7210   23.2780 C   0  0  0  0  0  0  0  0  0  0  0  0
   11.2810   -6.6690   23.7270 N   0  0  0  0  0  0  0  0  0  0  0  0
   11.4570   -6.4330   25.1970 C   0  0  0  0  0  0  0  0  0  0  0  0
   12.8360   -6.9170   25.6440 C   0  0  0  0  0  0  0  0  0  0  0  0
   13.3620   -8.0860   24.8070 C   0  0  0  0  0  0  0  0  0  0  0  0
   14.7380   -7.8870   24.1610 C   0  0  0  0  0  0  0  0  0  0  0  0
   15.0080   -8.8520   23.0030 C   0  0  0  0  0  0  0  0  0  0  0  0
   13.8640   -8.9250   21.9790 C   0  0  0  0  0  0  0  0  0  0  0  0
   13.2140  -10.3120   21.8950 C   0  0  0  0  0  0  0  0  0  0  0  0
   12.9470  -10.7860   20.4590 C   0  0  0  0  0  0  0  0  0  0  0  0
   13.9550  -11.8250   19.9600 C   0  0  0  0  0  0  0  0  0  0  0  0
   14.4870  -11.5440   18.5490 C   0  0  0  0  0  0  0  0  0  0  0  0
   15.8840  -12.0610   18.3680 N   0  0  0  0  0  0  0  0  0  0  0  0
   16.1120  -13.0920   17.4970 C   0  0  0  0  0  0  0  0  0  0  0  0
   14.9940  -13.8070   16.7820 C   0  0  0  0  0  0  0  0  0  0  0  0
   17.4160  -13.5400   17.2700 C   0  0  0  0  0  0  0  0  0  0  0  0
   18.5040  -12.9560   17.8980 C   0  0  0  0  0  0  0  0  0  0  0  0
   19.7650  -13.5270   17.6880 N   0  0  0  0  0  0  0  0  0  0  0  0
   18.2560  -11.9850   18.8850 C   0  0  0  0  0  0  0  0  0  0  0  0
   19.2970  -11.4440   19.6740 C   0  0  0  0  0  0  0  0  0  0  0  0
   19.0600  -10.4780   20.6490 C   0  0  0  0  0  0  0  0  0  0  0  0
   17.7700  -10.0310   20.8680 C   0  0  0  0  0  0  0  0  0  0  0  0
   16.7180  -10.5520   20.1120 C   0  0  0  0  0  0  0  0  0  0  0  0
   16.9230  -11.5310   19.1090 C   0  0  0  0  0  0  0  0  0  0  0  0
   12.8020   -4.6600   24.3893 H   0  0  0  0  0  0  0  0  0  0  0  0
   13.7954   -4.8478   22.9045 H   0  0  0  0  0  0  0  0  0  0  0  0
   12.3805   -3.7411   22.9045 H   0  0  0  0  0  0  0  0  0  0  0  0
   12.1805   -5.3000   20.7665 H   0  0  0  0  0  0  0  0  0  0  0  0
    9.9410   -7.5970   19.2230 H   0  0  0  0  0  0  0  0  0  0  0  0
   11.6010   -7.4660   19.1200 H   0  0  0  0  0  0  0  0  0  0  0  0
    9.3740   -9.1509   20.3643 H   0  0  0  0  0  0  0  0  0  0  0  0
    8.3742  -10.7568   21.9673 H   0  0  0  0  0  0  0  0  0  0  0  0
    8.7119  -10.4436   24.4124 H   0  0  0  0  0  0  0  0  0  0  0  0
   10.0670   -8.5398   25.2422 H   0  0  0  0  0  0  0  0  0  0  0  0
   11.3631   -5.3573   25.4068 H   0  0  0  0  0  0  0  0  0  0  0  0
   10.6838   -6.9898   25.7467 H   0  0  0  0  0  0  0  0  0  0  0  0
   13.5448   -6.0799   25.5609 H   0  0  0  0  0  0  0  0  0  0  0  0
   12.7390   -7.2728   26.6803 H   0  0  0  0  0  0  0  0  0  0  0  0
   13.4224   -8.9679   25.4617 H   0  0  0  0  0  0  0  0  0  0  0  0
   12.6554   -8.1924   23.9707 H   0  0  0  0  0  0  0  0  0  0  0  0
   14.7989   -6.8573   23.7790 H   0  0  0  0  0  0  0  0  0  0  0  0
   15.4936   -8.0869   24.9350 H   0  0  0  0  0  0  0  0  0  0  0  0
   15.9195   -8.5231   22.4824 H   0  0  0  0  0  0  0  0  0  0  0  0
   15.1128   -9.8562   23.4396 H   0  0  0  0  0  0  0  0  0  0  0  0
   13.0927   -8.1944   22.2642 H   0  0  0  0  0  0  0  0  0  0  0  0
   14.2958   -8.7066   20.9912 H   0  0  0  0  0  0  0  0  0  0  0  0
   13.8822  -11.0380   22.3812 H   0  0  0  0  0  0  0  0  0  0  0  0
   12.2368  -10.2384   22.3947 H   0  0  0  0  0  0  0  0  0  0  0  0
   11.9415  -11.2303   20.4206 H   0  0  0  0  0  0  0  0  0  0  0  0
   13.0402   -9.9059   19.8058 H   0  0  0  0  0  0  0  0  0  0  0  0
   14.8075  -11.8426   20.6549 H   0  0  0  0  0  0  0  0  0  0  0  0
   13.4267  -12.7889   19.9170 H   0  0  0  0  0  0  0  0  0  0  0  0
   13.8284  -12.0330   17.8161 H   0  0  0  0  0  0  0  0  0  0  0  0
   14.5033  -10.4543   18.4000 H   0  0  0  0  0  0  0  0  0  0  0  0
   14.3077  -14.2459   17.5211 H   0  0  0  0  0  0  0  0  0  0  0  0
   14.4454  -13.0918   16.1516 H   0  0  0  0  0  0  0  0  0  0  0  0
   15.4132  -14.6050   16.1516 H   0  0  0  0  0  0  0  0  0  0  0  0
   17.5827  -14.3768   16.5757 H   0  0  0  0  0  0  0  0  0  0  0  0
   20.5010  -12.9050   17.3680 H   0  0  0  0  0  0  0  0  0  0  0  0
   19.7860  -14.4010   17.1690 H   0  0  0  0  0  0  0  0  0  0  0  0
   20.3263  -11.7970   19.5128 H   0  0  0  0  0  0  0  0  0  0  0  0
   19.8939  -10.0732   21.2412 H   0  0  0  0  0  0  0  0  0  0  0  0
   17.5732   -9.2676   21.6351 H   0  0  0  0  0  0  0  0  0  0  0  0
   15.6966  -10.1903   20.3015 H   0  0  0  0  0  0  0  0  0  0  0  0
  1  2  1  0
  2  3  2  0
  3  4  1  0
  4  5  1  0
  4  6  2  0
  6  7  1  0
  7  8  2  0
  8  9  1  0
  9 10  2  0
 10 11  1  0
 11 12  2  0
 12 13  1  0
 13 14  1  0
 14 15  1  0
 15 16  1  0
 16 17  1  0
 17 18  1  0
 18 19  1  0
 19 20  1  0
 20 21  1  0
 21 22  1  0
 22 23  1  0
 23 24  2  0
 24 25  1  0
 24 26  1  0
 26 27  2  0
 27 28  1  0
 27 29  1  0
 29 30  2  0
 30 31  1  0
 31 32  2  0
 32 33  1  0
 33 34  2  0
 12  2  1  0
 34 23  1  0
 11  6  1  0
 34 29  1  0
  1 35  1  0
  1 36  1  0
  1 37  1  0
  3 38  1  0
  5 39  1  0
  5 40  1  0
  7 41  1  0
  8 42  1  0
  9 43  1  0
 10 44  1  0
 13 45  1  0
 13 46  1  0
 14 47  1  0
 14 48  1  0
 15 49  1  0
 15 50  1  0
 16 51  1  0
 16 52  1  0
 17 53  1  0
 17 54  1  0
 18 55  1  0
 18 56  1  0
 19 57  1  0
 19 58  1  0
 20 59  1  0
 20 60  1  0
 21 61  1  0
 21 62  1  0
 22 63  1  0
 22 64  1  0
 25 65  1  0
 25 66  1  0
 25 67  1  0
 26 68  1  0
 28 69  1  0
 28 70  1  0
 30 71  1  0
 31 72  1  0
 32 73  1  0
 33 74  1  0
M  CHG  2  12   1  23   1
M  END
>  <meeko>  (6) 
{"is_sidechain": [false], "free_energy": -9.632, "intermolecular_energy": -16.403, "internal_energy": -1.979}

$$$$
3arp_ligand
     RDKit          3D

 74 77  0  0  0  0  0  0  0  0999 V2000
   18.9770   -8.3170   23.3690 C   0  0  0  0  0  0  0  0  0  0  0  0
   17.8420   -8.9310   22.5870 C   0  0  0  0  0  0  0  0  0  0  0  0
   18.1620   -9.6680   21.4460 C   0  0  0  0  0  0  0  0  0  0  0  0
   17.1780  -10.2280   20.6460 C   0  0  0  0  0  0  0  0  0  0  0  0
   17.5870  -11.0430   19.5820 N   0  0  0  0  0  0  0  0  0  0  0  0
   15.8420  -10.1330   21.0720 C   0  0  0  0  0  0  0  0  0  0  0  0
   14.7900  -10.7790   20.3780 C   0  0  0  0  0  0  0  0  0  0  0  0
   13.4620  -10.6690   20.7840 C   0  0  0  0  0  0  0  0  0  0  0  0
   13.1470   -9.9130   21.8980 C   0  0  0  0  0  0  0  0  0  0  0  0
   14.1620   -9.2750   22.6130 C   0  0  0  0  0  0  0  0  0  0  0  0
   15.5220   -9.3670   22.2310 C   0  0  0  0  0  0  0  0  0  0  0  0
   16.5340   -8.7580   22.9470 N   0  0  0  0  0  0  0  0  0  0  0  0
   16.2100   -7.8920   24.1260 C   0  0  0  0  0  0  0  0  0  0  0  0
   16.1380   -6.4260   23.6960 C   0  0  0  0  0  0  0  0  0  0  0  0
   15.3830   -5.5450   24.6950 C   0  0  0  0  0  0  0  0  0  0  0  0
   13.9180   -5.2460   24.3570 C   0  0  0  0  0  0  0  0  0  0  0  0
   13.6610   -3.7700   24.0380 C   0  0  0  0  0  0  0  0  0  0  0  0
   12.4100   -3.1970   24.7220 C   0  0  0  0  0  0  0  0  0  0  0  0
   11.1940   -4.1280   24.6360 C   0  0  0  0  0  0  0  0  0  0  0  0
   10.7720   -4.7240   25.9870 C   0  0  0  0  0  0  0  0  0  0  0  0
   10.1360   -6.1120   25.8730 C   0  0  0  0  0  0  0  0  0  0  0  0
   11.0780   -7.1790   25.3000 C   0  0  0  0  0  0  0  0  0  0  0  0
   10.3700   -8.0840   24.3350 N   0  0  0  0  0  0  0  0  0  0  0  0
    9.7040   -9.1830   24.8080 C   0  0  0  0  0  0  0  0  0  0  0  0
    9.7360   -9.5820   26.2610 C   0  0  0  0  0  0  0  0  0  0  0  0
    8.9870   -9.9980   23.9280 C   0  0  0  0  0  0  0  0  0  0  0  0
    8.9170   -9.7180   22.5730 C   0  0  0  0  0  0  0  0  0  0  0  0
    8.2580  -10.6390   21.7490 N   0  0  0  0  0  0  0  0  0  0  0  0
    9.7040   -8.6660   22.0730 C   0  0  0  0  0  0  0  0  0  0  0  0
    9.8040   -8.4060   20.6860 C   0  0  0  0  0  0  0  0  0  0  0  0
   10.5780   -7.3630   20.1830 C   0  0  0  0  0  0  0  0  0  0  0  0
   11.2810   -6.5530   21.0560 C   0  0  0  0  0  0  0  0  0  0  0  0
   11.2120   -6.7890   22.4300 C   0  0  0  0  0  0  0  0  0  0  0  0
   10.4310   -7.8370   22.9760 C   0  0  0  0  0  0  0  0  0  0  0  0
   18.7801   -8.4235   24.4460 H   0  0  0  0  0  0  0  0  0  0  0  0
   19.9165   -8.8299   23.1156 H   0  0  0  0  0  0  0  0  0  0  0  0
   19.0618   -7.2500   23.1156 H   0  0  0  0  0  0  0  0  0  0  0  0
   19.2190   -9.8078   21.1753 H   0  0  0  0  0  0  0  0  0  0  0  0
   17.4350  -10.6760   18.6470 H   0  0  0  0  0  0  0  0  0  0  0  0
   17.3090  -12.0190   19.6280 H   0  0  0  0  0  0  0  0  0  0  0  0
   15.0286  -11.3857   19.4920 H   0  0  0  0  0  0  0  0  0  0  0  0
   12.6678  -11.1811   20.2210 H   0  0  0  0  0  0  0  0  0  0  0  0
   12.0997   -9.8146   22.2198 H   0  0  0  0  0  0  0  0  0  0  0  0
   13.8968   -8.6823   23.5009 H   0  0  0  0  0  0  0  0  0  0  0  0
   15.2398   -8.1964   24.5455 H   0  0  0  0  0  0  0  0  0  0  0  0
   16.9979   -8.0068   24.8849 H   0  0  0  0  0  0  0  0  0  0  0  0
   17.1630   -6.0402   23.5935 H   0  0  0  0  0  0  0  0  0  0  0  0
   15.5878   -6.3893   22.7442 H   0  0  0  0  0  0  0  0  0  0  0  0
   15.4064   -6.0491   25.6724 H   0  0  0  0  0  0  0  0  0  0  0  0
   15.8952   -4.5717   24.6769 H   0  0  0  0  0  0  0  0  0  0  0  0
   13.6313   -5.8478   23.4820 H   0  0  0  0  0  0  0  0  0  0  0  0
   13.3199   -5.4972   25.2454 H   0  0  0  0  0  0  0  0  0  0  0  0
   14.5339   -3.1869   24.3667 H   0  0  0  0  0  0  0  0  0  0  0  0
   13.4933   -3.7009   22.9531 H   0  0  0  0  0  0  0  0  0  0  0  0
   12.6413   -3.0212   25.7829 H   0  0  0  0  0  0  0  0  0  0  0  0
   12.1473   -2.2670   24.1966 H   0  0  0  0  0  0  0  0  0  0  0  0
   10.3471   -3.5554   24.2300 H   0  0  0  0  0  0  0  0  0  0  0  0
   11.4812   -4.9708   23.9901 H   0  0  0  0  0  0  0  0  0  0  0  0
   11.6636   -4.8015   26.6266 H   0  0  0  0  0  0  0  0  0  0  0  0
   10.0098   -4.0539   26.4111 H   0  0  0  0  0  0  0  0  0  0  0  0
    9.8191   -6.4319   26.8766 H   0  0  0  0  0  0  0  0  0  0  0  0
    9.2914   -6.0213   25.1741 H   0  0  0  0  0  0  0  0  0  0  0  0
   11.9069   -6.6792   24.7774 H   0  0  0  0  0  0  0  0  0  0  0  0
   11.4503   -7.7915   26.1344 H   0  0  0  0  0  0  0  0  0  0  0  0
    9.6639   -8.6824   26.8899 H   0  0  0  0  0  0  0  0  0  0  0  0
    8.8885  -10.2492   26.4768 H   0  0  0  0  0  0  0  0  0  0  0  0
   10.6790  -10.1056   26.4768 H   0  0  0  0  0  0  0  0  0  0  0  0
    8.4655  -10.8834   24.3207 H   0  0  0  0  0  0  0  0  0  0  0  0
    7.7890  -10.2640   20.9290 H   0  0  0  0  0  0  0  0  0  0  0  0
    7.6680  -11.3240   22.2150 H   0  0  0  0  0  0  0  0  0  0  0  0
    9.2531   -9.0478   19.9827 H   0  0  0  0  0  0  0  0  0  0  0  0
   10.6297   -7.1848   19.0988 H   0  0  0  0  0  0  0  0  0  0  0  0
   11.8929   -5.7250   20.6687 H   0  0  0  0  0  0  0  0  0  0  0  0
   11.7826   -6.1402   23.1108 H   0  0  0  0  0  0  0  0  0  0  0  0
  1  2  1  0
  2  3  2  0
  3  4  1  0
  4  5  1  0
  4  6  2  0
  6  7  1  0
  7  8  2  0
  8  9  1  0
  9 10  2  0
 10 11  1  0
 11 12  2  0
 12 13  1  0
 13 14  1  0
 14 15  1  0
 15 16  1  0
 16 17  1  0
 17 18  1  0
 18 19  1  0
 19 20  1  0
 20 21  1  0
 21 22  1  0
 22 23  1  0
 23 24  2  0
 24 25  1  0
 24 26  1  0
 26 27  2  0
 27 28  1  0
 27 29  1  0
 29 30  2  0
 30 31  1  0
 31 32  2  0
 32 33  1  0
 33 34  2  0
 12  2  1  0
 34 23  1  0
 11  6  1  0
 34 29  1  0
  1 35  1  0
  1 36  1  0
  1 37  1  0
  3 38  1  0
  5 39  1  0
  5 40  1  0
  7 41  1  0
  8 42  1  0
  9 43  1  0
 10 44  1  0
 13 45  1  0
 13 46  1  0
 14 47  1  0
 14 48  1  0
 15 49  1  0
 15 50  1  0
 16 51  1  0
 16 52  1  0
 17 53  1  0
 17 54  1  0
 18 55  1  0
 18 56  1  0
 19 57  1  0
 19 58  1  0
 20 59  1  0
 20 60  1  0
 21 61  1  0
 21 62  1  0
 22 63  1  0
 22 64  1  0
 25 65  1  0
 25 66  1  0
 25 67  1  0
 26 68  1  0
 28 69  1  0
 28 70  1  0
 30 71  1  0
 31 72  1  0
 32 73  1  0
 33 74  1  0
M  CHG  2  12   1  23   1
M  END
>  <meeko>  (7) 
{"is_sidechain": [false], "free_energy": -9.464, "intermolecular_energy": -15.483, "internal_energy": -2.613}

$$$$
3arp_ligand
     RDKit          3D

 74 77  0  0  0  0  0  0  0  0999 V2000
   14.2800   -8.9950   22.2690 C   0  0  0  0  0  0  0  0  0  0  0  0
   15.3540   -9.6910   21.4710 C   0  0  0  0  0  0  0  0  0  0  0  0
   14.9550  -10.4830   20.3930 C   0  0  0  0  0  0  0  0  0  0  0  0
   15.8730  -11.1920   19.6360 C   0  0  0  0  0  0  0  0  0  0  0  0
   15.4010  -11.8740   18.5070 N   0  0  0  0  0  0  0  0  0  0  0  0
   17.2410  -11.0090   19.9070 C   0  0  0  0  0  0  0  0  0  0  0  0
   18.2460  -11.6000   19.1040 C   0  0  0  0  0  0  0  0  0  0  0  0
   19.6010  -11.4400   19.3830 C   0  0  0  0  0  0  0  0  0  0  0  0
   19.9920  -10.6790   20.4690 C   0  0  0  0  0  0  0  0  0  0  0  0
   19.0250  -10.0700   21.2720 C   0  0  0  0  0  0  0  0  0  0  0  0
   17.6400  -10.2100   21.0170 C   0  0  0  0  0  0  0  0  0  0  0  0
   16.6790   -9.5910   21.7940 N   0  0  0  0  0  0  0  0  0  0  0  0
   17.0780   -8.8050   23.0060 C   0  0  0  0  0  0  0  0  0  0  0  0
   17.1920   -7.3220   22.6560 C   0  0  0  0  0  0  0  0  0  0  0  0
   17.9880   -6.5220   23.6900 C   0  0  0  0  0  0  0  0  0  0  0  0
   17.1860   -5.9580   24.8690 C   0  0  0  0  0  0  0  0  0  0  0  0
   17.4010   -6.7350   26.1720 C   0  0  0  0  0  0  0  0  0  0  0  0
   16.1300   -7.4170   26.7030 C   0  0  0  0  0  0  0  0  0  0  0  0
   14.9290   -7.2770   25.7590 C   0  0  0  0  0  0  0  0  0  0  0  0
   13.5700   -7.3430   26.4700 C   0  0  0  0  0  0  0  0  0  0  0  0
   12.5050   -8.1130   25.6850 C   0  0  0  0  0  0  0  0  0  0  0  0
   11.2880   -7.2650   25.2940 C   0  0  0  0  0  0  0  0  0  0  0  0
   11.1100   -7.2000   23.8060 N   0  0  0  0  0  0  0  0  0  0  0  0
   11.7250   -6.2030   23.0970 C   0  0  0  0  0  0  0  0  0  0  0  0
   12.4980   -5.0950   23.7670 C   0  0  0  0  0  0  0  0  0  0  0  0
   11.6200   -6.1680   21.7040 C   0  0  0  0  0  0  0  0  0  0  0  0
   10.9140   -7.1340   21.0050 C   0  0  0  0  0  0  0  0  0  0  0  0
   10.7800   -6.9710   19.6210 N   0  0  0  0  0  0  0  0  0  0  0  0
   10.1810   -8.0800   21.7420 C   0  0  0  0  0  0  0  0  0  0  0  0
    9.3200   -9.0080   21.1110 C   0  0  0  0  0  0  0  0  0  0  0  0
    8.5940   -9.9530   21.8340 C   0  0  0  0  0  0  0  0  0  0  0  0
    8.7030   -9.9900   23.2110 C   0  0  0  0  0  0  0  0  0  0  0  0
    9.5380   -9.0800   23.8660 C   0  0  0  0  0  0  0  0  0  0  0  0
   10.2940   -8.1110   23.1630 C   0  0  0  0  0  0  0  0  0  0  0  0
   14.4794   -9.1242   23.3430 H   0  0  0  0  0  0  0  0  0  0  0  0
   14.2771   -7.9229   22.0230 H   0  0  0  0  0  0  0  0  0  0  0  0
   13.3002   -9.4303   22.0230 H   0  0  0  0  0  0  0  0  0  0  0  0
   13.8866  -10.5455   20.1388 H   0  0  0  0  0  0  0  0  0  0  0  0
   14.9080  -11.3160   17.8140 H   0  0  0  0  0  0  0  0  0  0  0  0
   14.9050  -12.7430   18.6770 H   0  0  0  0  0  0  0  0  0  0  0  0
   17.9478  -12.2034   18.2340 H   0  0  0  0  0  0  0  0  0  0  0  0
   20.3570  -11.9171   18.7420 H   0  0  0  0  0  0  0  0  0  0  0  0
   21.0602  -10.5537   20.6997 H   0  0  0  0  0  0  0  0  0  0  0  0
   19.3501   -9.4625   22.1295 H   0  0  0  0  0  0  0  0  0  0  0  0
   16.3186   -8.9362   23.7910 H   0  0  0  0  0  0  0  0  0  0  0  0
   18.0532   -9.1663   23.3645 H   0  0  0  0  0  0  0  0  0  0  0  0
   17.6923   -7.2296   21.6807 H   0  0  0  0  0  0  0  0  0  0  0  0
   16.1723   -6.9098   22.6356 H   0  0  0  0  0  0  0  0  0  0  0  0
   18.7671   -7.1823   24.0986 H   0  0  0  0  0  0  0  0  0  0  0  0
   18.3765   -5.6456   23.1505 H   0  0  0  0  0  0  0  0  0  0  0  0
   17.4900   -4.9133   25.0307 H   0  0  0  0  0  0  0  0  0  0  0  0
   16.1203   -6.0429   24.6098 H   0  0  0  0  0  0  0  0  0  0  0  0
   18.1614   -7.5094   25.9929 H   0  0  0  0  0  0  0  0  0  0  0  0
   17.7154   -6.0053   26.9327 H   0  0  0  0  0  0  0  0  0  0  0  0
   16.3407   -8.4874   26.8442 H   0  0  0  0  0  0  0  0  0  0  0  0
   15.8629   -6.9201   27.6473 H   0  0  0  0  0  0  0  0  0  0  0  0
   15.0041   -6.3079   25.2439 H   0  0  0  0  0  0  0  0  0  0  0  0
   14.9679   -8.1282   25.0633 H   0  0  0  0  0  0  0  0  0  0  0  0
   13.7100   -7.8369   27.4429 H   0  0  0  0  0  0  0  0  0  0  0  0
   13.2096   -6.3089   26.5741 H   0  0  0  0  0  0  0  0  0  0  0  0
   12.9662   -8.5021   24.7652 H   0  0  0  0  0  0  0  0  0  0  0  0
   12.1383   -8.9136   26.3443 H   0  0  0  0  0  0  0  0  0  0  0  0
   10.3863   -7.7084   25.7415 H   0  0  0  0  0  0  0  0  0  0  0  0
   11.4506   -6.2420   25.6642 H   0  0  0  0  0  0  0  0  0  0  0  0
   12.4223   -5.2035   24.8590 H   0  0  0  0  0  0  0  0  0  0  0  0
   13.5544   -5.1505   23.4654 H   0  0  0  0  0  0  0  0  0  0  0  0
   12.0812   -4.1228   23.4654 H   0  0  0  0  0  0  0  0  0  0  0  0
   12.1095   -5.3541   21.1490 H   0  0  0  0  0  0  0  0  0  0  0  0
   11.6330   -7.0110   19.0710 H   0  0  0  0  0  0  0  0  0  0  0  0
   10.1900   -6.2030   19.3090 H   0  0  0  0  0  0  0  0  0  0  0  0
    9.2203   -8.9832   20.0158 H   0  0  0  0  0  0  0  0  0  0  0  0
    7.9382  -10.6650   21.3115 H   0  0  0  0  0  0  0  0  0  0  0  0
    8.1347  -10.7330   23.7898 H   0  0  0  0  0  0  0  0  0  0  0  0
    9.6100   -9.1180   24.9630 H   0  0  0  0  0  0  0  0  0  0  0  0
  1  2  1  0
  2  3  2  0
  3  4  1  0
  4  5  1  0
  4  6  2  0
  6  7  1  0
  7  8  2  0
  8  9  1  0
  9 10  2  0
 10 11  1  0
 11 12  2  0
 12 13  1  0
 13 14  1  0
 14 15  1  0
 15 16  1  0
 16 17  1  0
 17 18  1  0
 18 19  1  0
 19 20  1  0
 20 21  1  0
 21 22  1  0
 22 23  1  0
 23 24  2  0
 24 25  1  0
 24 26  1  0
 26 27  2  0
 27 28  1  0
 27 29  1  0
 29 30  2  0
 30 31  1  0
 31 32  2  0
 32 33  1  0
 33 34  2  0
 12  2  1  0
 34 23  1  0
 11  6  1  0
 34 29  1  0
  1 35  1  0
  1 36  1  0
  1 37  1  0
  3 38  1  0
  5 39  1  0
  5 40  1  0
  7 41  1  0
  8 42  1  0
  9 43  1  0
 10 44  1  0
 13 45  1  0
 13 46  1  0
 14 47  1  0
 14 48  1  0
 15 49  1  0
 15 50  1  0
 16 51  1  0
 16 52  1  0
 17 53  1  0
 17 54  1  0
 18 55  1  0
 18 56  1  0
 19 57  1  0
 19 58  1  0
 20 59  1  0
 20 60  1  0
 21 61  1  0
 21 62  1  0
 22 63  1  0
 22 64  1  0
 25 65  1  0
 25 66  1  0
 25 67  1  0
 26 68  1  0
 28 69  1  0
 28 70  1  0
 30 71  1  0
 31 72  1  0
 32 73  1  0
 33 74  1  0
M  CHG  2  12   1  23   1
M  END
>  <meeko>  (8) 
{"is_sidechain": [false], "free_energy": -9.404, "intermolecular_energy": -15.86, "internal_energy": -2.135}

$$$$
3arp_ligand
     RDKit          3D

 74 77  0  0  0  0  0  0  0  0999 V2000
    9.0720   -2.4370   32.1210 C   0  0  0  0  0  0  0  0  0  0  0  0
    8.8570   -3.9300   32.1400 C   0  0  0  0  0  0  0  0  0  0  0  0
    8.2090   -4.4800   33.2480 C   0  0  0  0  0  0  0  0  0  0  0  0
    8.0100   -5.8460   33.3660 C   0  0  0  0  0  0  0  0  0  0  0  0
    7.2560   -6.3050   34.4540 N   0  0  0  0  0  0  0  0  0  0  0  0
    8.3790   -6.6670   32.2860 C   0  0  0  0  0  0  0  0  0  0  0  0
    8.1010   -8.0560   32.2760 C   0  0  0  0  0  0  0  0  0  0  0  0
    8.4850   -8.8770   31.2180 C   0  0  0  0  0  0  0  0  0  0  0  0
    9.1530   -8.3320   30.1360 C   0  0  0  0  0  0  0  0  0  0  0  0
    9.4290   -6.9640   30.1090 C   0  0  0  0  0  0  0  0  0  0  0  0
    9.0520   -6.1000   31.1650 C   0  0  0  0  0  0  0  0  0  0  0  0
    9.3010   -4.7420   31.1340 N   0  0  0  0  0  0  0  0  0  0  0  0
   10.0700   -4.1400   29.9970 C   0  0  0  0  0  0  0  0  0  0  0  0
   11.5690   -4.3610   30.2020 C   0  0  0  0  0  0  0  0  0  0  0  0
   12.3240   -4.5970   28.8910 C   0  0  0  0  0  0  0  0  0  0  0  0
   12.8120   -6.0300   28.6430 C   0  0  0  0  0  0  0  0  0  0  0  0
   12.1000   -6.7160   27.4740 C   0  0  0  0  0  0  0  0  0  0  0  0
   11.0580   -5.8280   26.7770 C   0  0  0  0  0  0  0  0  0  0  0  0
    9.7810   -6.5840   26.3880 C   0  0  0  0  0  0  0  0  0  0  0  0
    9.8520   -8.0960   26.6470 C   0  0  0  0  0  0  0  0  0  0  0  0
    9.6750   -8.9440   25.3850 C   0  0  0  0  0  0  0  0  0  0  0  0
    9.8880   -8.1650   24.0810 C   0  0  0  0  0  0  0  0  0  0  0  0
   10.7400   -8.9280   23.1090 N   0  0  0  0  0  0  0  0  0  0  0  0
   10.1470   -9.7910   22.2270 C   0  0  0  0  0  0  0  0  0  0  0  0
    8.6690  -10.0870   22.2590 C   0  0  0  0  0  0  0  0  0  0  0  0
   10.9210  -10.4580   21.2740 C   0  0  0  0  0  0  0  0  0  0  0  0
   12.2890  -10.2620   21.1840 C   0  0  0  0  0  0  0  0  0  0  0  0
   13.0020  -11.0420   20.2650 N   0  0  0  0  0  0  0  0  0  0  0  0
   12.9120   -9.4760   22.1690 C   0  0  0  0  0  0  0  0  0  0  0  0
   14.3180   -9.3430   22.2360 C   0  0  0  0  0  0  0  0  0  0  0  0
   14.9420   -8.5610   23.2060 C   0  0  0  0  0  0  0  0  0  0  0  0
   14.1740   -7.8960   24.1440 C   0  0  0  0  0  0  0  0  0  0  0  0
   12.7830   -8.0140   24.1120 C   0  0  0  0  0  0  0  0  0  0  0  0
   12.1160   -8.7950   23.1370 C   0  0  0  0  0  0  0  0  0  0  0  0
    9.1261   -2.0612   33.1534 H   0  0  0  0  0  0  0  0  0  0  0  0
   10.0123   -2.2086   31.5979 H   0  0  0  0  0  0  0  0  0  0  0  0
    8.2344   -1.9526   31.5979 H   0  0  0  0  0  0  0  0  0  0  0  0
    7.8483   -3.8135   34.0453 H   0  0  0  0  0  0  0  0  0  0  0  0
    7.2900   -7.3040   34.6400 H   0  0  0  0  0  0  0  0  0  0  0  0
    6.3000   -5.9670   34.5160 H   0  0  0  0  0  0  0  0  0  0  0  0
    7.5661   -8.4994   33.1288 H   0  0  0  0  0  0  0  0  0  0  0  0
    8.2582   -9.9531   31.2428 H   0  0  0  0  0  0  0  0  0  0  0  0
    9.4656   -8.9746   29.2997 H   0  0  0  0  0  0  0  0  0  0  0  0
    9.9561   -6.5441   29.2396 H   0  0  0  0  0  0  0  0  0  0  0  0
    9.7577   -4.6143   29.0549 H   0  0  0  0  0  0  0  0  0  0  0  0
    9.8673   -3.0596   29.9570 H   0  0  0  0  0  0  0  0  0  0  0  0
   11.9903   -3.4719   30.6939 H   0  0  0  0  0  0  0  0  0  0  0  0
   11.6871   -5.2654   30.8170 H   0  0  0  0  0  0  0  0  0  0  0  0
   11.6542   -4.3218   28.0630 H   0  0  0  0  0  0  0  0  0  0  0  0
   13.2336   -3.9821   28.9585 H   0  0  0  0  0  0  0  0  0  0  0  0
   13.8900   -5.9996   28.4264 H   0  0  0  0  0  0  0  0  0  0  0  0
   12.5887   -6.6126   29.5489 H   0  0  0  0  0  0  0  0  0  0  0  0
   12.8565   -7.0111   26.7320 H   0  0  0  0  0  0  0  0  0  0  0  0
   11.5595   -7.5792   27.8895 H   0  0  0  0  0  0  0  0  0  0  0  0
   10.7851   -5.0088   27.4585 H   0  0  0  0  0  0  0  0  0  0  0  0
   11.5143   -5.4580   25.8470 H   0  0  0  0  0  0  0  0  0  0  0  0
    8.9432   -6.1716   26.9694 H   0  0  0  0  0  0  0  0  0  0  0  0
    9.6476   -6.4507   25.3043 H   0  0  0  0  0  0  0  0  0  0  0  0
   10.8334   -8.3276   27.0865 H   0  0  0  0  0  0  0  0  0  0  0  0
    9.0208   -8.3464   27.3225 H   0  0  0  0  0  0  0  0  0  0  0  0
   10.4004   -9.7703   25.4178 H   0  0  0  0  0  0  0  0  0  0  0  0
    8.6335   -9.2980   25.3803 H   0  0  0  0  0  0  0  0  0  0  0  0
    8.9090   -7.9693   23.6191 H   0  0  0  0  0  0  0  0  0  0  0  0
   10.4051   -7.2252   24.3246 H   0  0  0  0  0  0  0  0  0  0  0  0
    8.3311  -10.1547   23.3036 H   0  0  0  0  0  0  0  0  0  0  0  0
    8.1224   -9.2805   21.7484 H   0  0  0  0  0  0  0  0  0  0  0  0
    8.4751  -11.0418   21.7484 H   0  0  0  0  0  0  0  0  0  0  0  0
   10.4319  -11.1557   20.5783 H   0  0  0  0  0  0  0  0  0  0  0  0
   13.9600  -10.7630   20.0750 H   0  0  0  0  0  0  0  0  0  0  0  0
   12.5210  -11.2770   19.4000 H   0  0  0  0  0  0  0  0  0  0  0  0
   14.9389   -9.8736   21.4991 H   0  0  0  0  0  0  0  0  0  0  0  0
   16.0383   -8.4733   23.2254 H   0  0  0  0  0  0  0  0  0  0  0  0
   14.6574   -7.2758   24.9132 H   0  0  0  0  0  0  0  0  0  0  0  0
   12.1862   -7.4833   24.8684 H   0  0  0  0  0  0  0  0  0  0  0  0
  1  2  1  0
  2  3  2  0
  3  4  1  0
  4  5  1  0
  4  6  2  0
  6  7  1  0
  7  8  2  0
  8  9  1  0
  9 10  2  0
 10 11  1  0
 11 12  2  0
 12 13  1  0
 13 14  1  0
 14 15  1  0
 15 16  1  0
 16 17  1  0
 17 18  1  0
 18 19  1  0
 19 20  1  0
 20 21  1  0
 21 22  1  0
 22 23  1  0
 23 24  2  0
 24 25  1  0
 24 26  1  0
 26 27  2  0
 27 28  1  0
 27 29  1  0
 29 30  2  0
 30 31  1  0
 31 32  2  0
 32 33  1  0
 33 34  2  0
 12  2  1  0
 34 23  1  0
 11  6  1  0
 34 29  1  0
  1 35  1  0
  1 36  1  0
  1 37  1  0
  3 38  1  0
  5 39  1  0
  5 40  1  0
  7 41  1  0
  8 42  1  0
  9 43  1  0
 10 44  1  0
 13 45  1  0
 13 46  1  0
 14 47  1  0
 14 48  1  0
 15 49  1  0
 15 50  1  0
 16 51  1  0
 16 52  1  0
 17 53  1  0
 17 54  1  0
 18 55  1  0
 18 56  1  0
 19 57  1  0
 19 58  1  0
 20 59  1  0
 20 60  1  0
 21 61  1  0
 21 62  1  0
 22 63  1  0
 22 64  1  0
 25 65  1  0
 25 66  1  0
 25 67  1  0
 26 68  1  0
 28 69  1  0
 28 70  1  0
 30 71  1  0
 31 72  1  0
 32 73  1  0
 33 74  1  0
M  CHG  2  12   1  23   1
M  END
>  <meeko>  (9) 
{"is_sidechain": [false], "free_energy": -9.358, "intermolecular_energy": -15.721, "internal_energy": -2.195}

$$$$
