4kz6_ligand
     RDKit          3D

 31 31  0  0  0  0  0  0  0  0999 V2000
   77.9770    8.1580   27.4020 C   0  0  0  0  0  0  0  0  0  0  0  0
   78.3120    7.2630   26.2070 C   0  0  2  0  0  0  0  0  0  0  0  0
   77.0970    6.4650   25.7060 C   0  0  0  0  0  0  0  0  0  0  0  0
   77.4380    5.6960   24.4190 C   0  0  0  0  0  0  0  0  0  0  0  0
   78.7560    4.9090   24.5140 C   0  0  0  0  0  0  0  0  0  0  0  0
   79.8930    5.7990   25.0450 C   0  0  2  0  0  0  0  0  0  0  0  0
   81.3260    5.2090   24.8910 C   0  0  0  0  0  0  0  0  0  0  0  0
   82.2590    5.9510   25.3140 O   0  0  0  0  0  0  0  0  0  0  0  0
   81.4000    4.0630   24.3620 O   0  0  0  0  0  0  0  0  0  0  0  0
   79.4490    6.3450   26.3760 N   0  0  0  0  0  0  0  0  0  0  0  0
   79.5180    5.5670   27.5420 C   0  0  0  0  0  0  0  0  0  0  0  0
   78.6830    4.6970   27.8090 O   0  0  0  0  0  0  0  0  0  0  0  0
   80.6560    5.8310   28.5130 C   0  0  0  0  0  0  0  0  0  0  0  0
   80.1260    6.1410   29.9090 C   0  0  0  0  0  0  0  0  0  0  0  0
   81.3680    5.7790   31.1950 S   0  0  0  0  0  0  0  0  0  0  0  0
   78.1806    7.6139   28.3361 H   0  0  0  0  0  0  0  0  0  0  0  0
   78.5959    9.0666   27.3645 H   0  0  0  0  0  0  0  0  0  0  0  0
   76.9136    8.4369   27.3645 H   0  0  0  0  0  0  0  0  0  0  0  0
   78.6243    8.0009   25.4534 H   0  0  0  0  0  0  0  0  0  0  0  0
   76.7912    5.7489   26.4830 H   0  0  0  0  0  0  0  0  0  0  0  0
   76.2799    7.1686   25.4887 H   0  0  0  0  0  0  0  0  0  0  0  0
   76.6227    4.9882   24.2083 H   0  0  0  0  0  0  0  0  0  0  0  0
   77.5582    6.4389   23.6167 H   0  0  0  0  0  0  0  0  0  0  0  0
   78.6178    4.0570   25.1959 H   0  0  0  0  0  0  0  0  0  0  0  0
   79.0273    4.5573   23.5077 H   0  0  0  0  0  0  0  0  0  0  0  0
   80.0602    6.6730   24.3984 H   0  0  0  0  0  0  0  0  0  0  0  0
   81.2997    4.9404   28.5627 H   0  0  0  0  0  0  0  0  0  0  0  0
   81.2262    6.7008   28.1547 H   0  0  0  0  0  0  0  0  0  0  0  0
   79.8588    7.2068   29.9608 H   0  0  0  0  0  0  0  0  0  0  0  0
   79.2466    5.5060   30.0918 H   0  0  0  0  0  0  0  0  0  0  0  0
   81.0710    6.8250   31.9850 H   0  0  0  0  0  0  0  0  0  0  0  0
  1  2  1  0
  2  3  1  0
  3  4  1  0
  4  5  1  0
  5  6  1  0
  6  7  1  0
  7  8  2  0
  7  9  1  0
  6 10  1  0
 10 11  1  0
 11 12  2  0
 11 13  1  0
 13 14  1  0
 14 15  1  0
 10  2  1  0
  1 16  1  0
  1 17  1  0
  1 18  1  0
  2 19  1  6
  3 20  1  0
  3 21  1  0
  4 22  1  0
  4 23  1  0
  5 24  1  0
  5 25  1  0
  6 26  1  6
 13 27  1  0
 13 28  1  0
 14 29  1  0
 14 30  1  0
 15 31  1  0
M  CHG  1   9  -1
M  END
>  <meeko>  (1) 
{"is_sidechain": [false], "free_energy": -5.504, "intermolecular_energy": -6.952, "internal_energy": -0.321}

$$$$
4kz6_ligand
     RDKit          3D

 31 31  0  0  0  0  0  0  0  0999 V2000
   81.2610    7.6940   30.3180 C   0  0  0  0  0  0  0  0  0  0  0  0
   80.4730    7.7410   29.0070 C   0  0  2  0  0  0  0  0  0  0  0  0
   80.0350    9.1660   28.6300 C   0  0  0  0  0  0  0  0  0  0  0  0
   79.3790    9.1890   27.2400 C   0  0  0  0  0  0  0  0  0  0  0  0
   78.3120    8.0970   27.0550 C   0  0  0  0  0  0  0  0  0  0  0  0
   78.8510    6.7210   27.4830 C   0  0  2  0  0  0  0  0  0  0  0  0
   77.9810    5.5030   27.0540 C   0  0  0  0  0  0  0  0  0  0  0  0
   76.8880    5.7970   26.4880 O   0  0  0  0  0  0  0  0  0  0  0  0
   78.4570    4.3610   27.3170 O   0  0  0  0  0  0  0  0  0  0  0  0
   79.3100    6.8450   28.9110 N   0  0  0  0  0  0  0  0  0  0  0  0
   78.3950    6.8130   29.9760 C   0  0  0  0  0  0  0  0  0  0  0  0
   77.6360    7.7550   30.2250 O   0  0  0  0  0  0  0  0  0  0  0  0
   78.3650    5.5770   30.8570 C   0  0  0  0  0  0  0  0  0  0  0  0
   78.7700    5.9120   32.2880 C   0  0  0  0  0  0  0  0  0  0  0  0
   80.0290    4.7540   32.9200 S   0  0  0  0  0  0  0  0  0  0  0  0
   80.5629    7.7356   31.1671 H   0  0  0  0  0  0  0  0  0  0  0  0
   81.8398    6.7597   30.3646 H   0  0  0  0  0  0  0  0  0  0  0  0
   81.9467    8.5528   30.3646 H   0  0  0  0  0  0  0  0  0  0  0  0
   81.2125    7.3623   28.2861 H   0  0  0  0  0  0  0  0  0  0  0  0
   79.3123    9.5296   29.3753 H   0  0  0  0  0  0  0  0  0  0  0  0
   80.9244    9.8130   28.6094 H   0  0  0  0  0  0  0  0  0  0  0  0
   78.9038   10.1703   27.0940 H   0  0  0  0  0  0  0  0  0  0  0  0
   80.1718    8.9995   26.5014 H   0  0  0  0  0  0  0  0  0  0  0  0
   77.4330    8.3455   27.6679 H   0  0  0  0  0  0  0  0  0  0  0  0
   78.0390    8.0507   25.9904 H   0  0  0  0  0  0  0  0  0  0  0  0
   79.7399    6.4348   26.9017 H   0  0  0  0  0  0  0  0  0  0  0  0
   77.3460    5.1627   30.8598 H   0  0  0  0  0  0  0  0  0  0  0  0
   79.0797    4.8441   30.4545 H   0  0  0  0  0  0  0  0  0  0  0  0
   79.1795    6.9326   32.3131 H   0  0  0  0  0  0  0  0  0  0  0  0
   77.8774    5.8302   32.9256 H   0  0  0  0  0  0  0  0  0  0  0  0
   80.9000    4.9190   31.9100 H   0  0  0  0  0  0  0  0  0  0  0  0
  1  2  1  0
  2  3  1  0
  3  4  1  0
  4  5  1  0
  5  6  1  0
  6  7  1  0
  7  8  2  0
  7  9  1  0
  6 10  1  0
 10 11  1  0
 11 12  2  0
 11 13  1  0
 13 14  1  0
 14 15  1  0
 10  2  1  0
  1 16  1  0
  1 17  1  0
  1 18  1  0
  2 19  1  6
  3 20  1  0
  3 21  1  0
  4 22  1  0
  4 23  1  0
  5 24  1  0
  5 25  1  0
  6 26  1  6
 13 27  1  0
 13 28  1  0
 14 29  1  0
 14 30  1  0
 15 31  1  0
M  CHG  1   9  -1
M  END
>  <meeko>  (2) 
{"is_sidechain": [false], "free_energy": -5.441, "intermolecular_energy": -6.868, "internal_energy": -0.324}

$$$$
4kz6_ligand
     RDKit          3D

 31 31  0  0  0  0  0  0  0  0999 V2000
   78.2960    6.3720   30.0710 C   0  0  0  0  0  0  0  0  0  0  0  0
   79.1610    7.0680   29.0170 C   0  0  2  0  0  0  0  0  0  0  0  0
   78.5610    8.4030   28.5470 C   0  0  0  0  0  0  0  0  0  0  0  0
   79.5290    9.1380   27.6040 C   0  0  0  0  0  0  0  0  0  0  0  0
   80.0930    8.2360   26.4930 C   0  0  0  0  0  0  0  0  0  0  0  0
   80.6440    6.9230   27.0750 C   0  0  2  0  0  0  0  0  0  0  0  0
   81.5140    6.0760   26.0990 C   0  0  0  0  0  0  0  0  0  0  0  0
   82.6170    5.6780   26.5730 O   0  0  0  0  0  0  0  0  0  0  0  0
   81.0270    5.8830   24.9480 O   0  0  0  0  0  0  0  0  0  0  0  0
   79.5230    6.2670   27.8380 N   0  0  0  0  0  0  0  0  0  0  0  0
   78.5160    5.5470   27.1760 C   0  0  0  0  0  0  0  0  0  0  0  0
   78.3970    4.3220   27.2860 O   0  0  0  0  0  0  0  0  0  0  0  0
   77.5590    6.3120   26.2790 C   0  0  0  0  0  0  0  0  0  0  0  0
   77.4410    5.6500   24.9110 C   0  0  0  0  0  0  0  0  0  0  0  0
   76.2420    6.5180   23.8460 S   0  0  0  0  0  0  0  0  0  0  0  0
   78.6451    6.6529   31.0756 H   0  0  0  0  0  0  0  0  0  0  0  0
   77.2476    6.6812   29.9474 H   0  0  0  0  0  0  0  0  0  0  0  0
   78.3737    5.2817   29.9474 H   0  0  0  0  0  0  0  0  0  0  0  0
   80.0964    7.2406   29.5696 H   0  0  0  0  0  0  0  0  0  0  0  0
   77.6188    8.2067   28.0144 H   0  0  0  0  0  0  0  0  0  0  0  0
   78.3796    9.0364   29.4279 H   0  0  0  0  0  0  0  0  0  0  0  0
   78.9921    9.9760   27.1354 H   0  0  0  0  0  0  0  0  0  0  0  0
   80.3800    9.4808   28.2108 H   0  0  0  0  0  0  0  0  0  0  0  0
   79.2911    8.0034   25.7768 H   0  0  0  0  0  0  0  0  0  0  0  0
   80.9145    8.7692   25.9922 H   0  0  0  0  0  0  0  0  0  0  0  0
   81.4435    7.1077   27.8076 H   0  0  0  0  0  0  0  0  0  0  0  0
   76.5663    6.3381   26.7522 H   0  0  0  0  0  0  0  0  0  0  0  0
   77.9487    7.3314   26.1413 H   0  0  0  0  0  0  0  0  0  0  0  0
   78.4265    5.6620   24.4225 H   0  0  0  0  0  0  0  0  0  0  0  0
   77.0875    4.6187   25.0573 H   0  0  0  0  0  0  0  0  0  0  0  0
   76.7900    7.7390   23.9710 H   0  0  0  0  0  0  0  0  0  0  0  0
  1  2  1  0
  2  3  1  0
  3  4  1  0
  4  5  1  0
  5  6  1  0
  6  7  1  0
  7  8  2  0
  7  9  1  0
  6 10  1  0
 10 11  1  0
 11 12  2  0
 11 13  1  0
 13 14  1  0
 14 15  1  0
 10  2  1  0
  1 16  1  0
  1 17  1  0
  1 18  1  0
  2 19  1  1
  3 20  1  0
  3 21  1  0
  4 22  1  0
  4 23  1  0
  5 24  1  0
  5 25  1  0
  6 26  1  1
 13 27  1  0
 13 28  1  0
 14 29  1  0
 14 30  1  0
 15 31  1  0
M  CHG  1   9  -1
M  END
>  <meeko>  (3) 
{"is_sidechain": [false], "free_energy": -5.24, "intermolecular_energy": -6.955, "internal_energy": 0.015}

$$$$
4kz6_ligand
     RDKit          3D

 31 31  0  0  0  0  0  0  0  0999 V2000
   80.3950    5.6370   25.8680 C   0  0  0  0  0  0  0  0  0  0  0  0
   79.3750    6.3400   26.7660 C   0  0  2  0  0  0  0  0  0  0  0  0
   79.1200    7.7970   26.3450 C   0  0  0  0  0  0  0  0  0  0  0  0
   77.9850    8.4180   27.1760 C   0  0  0  0  0  0  0  0  0  0  0  0
   78.1430    8.1820   28.6880 C   0  0  0  0  0  0  0  0  0  0  0  0
   78.4150    6.6980   28.9900 C   0  0  2  0  0  0  0  0  0  0  0  0
   78.2830    6.2880   30.4860 C   0  0  0  0  0  0  0  0  0  0  0  0
   78.6070    7.1850   31.3180 O   0  0  0  0  0  0  0  0  0  0  0  0
   77.8710    5.1130   30.7050 O   0  0  0  0  0  0  0  0  0  0  0  0
   79.6420    6.3020   28.2120 N   0  0  0  0  0  0  0  0  0  0  0  0
   80.9290    6.6270   28.6680 C   0  0  0  0  0  0  0  0  0  0  0  0
   81.4030    7.7630   28.5600 O   0  0  0  0  0  0  0  0  0  0  0  0
   81.7670    5.5260   29.2940 C   0  0  0  0  0  0  0  0  0  0  0  0
   82.0230    5.8030   30.7710 C   0  0  0  0  0  0  0  0  0  0  0  0
   83.7260    6.3890   31.0600 S   0  0  0  0  0  0  0  0  0  0  0  0
   81.1406    5.1231   26.4925 H   0  0  0  0  0  0  0  0  0  0  0  0
   79.8792    4.9017   25.2330 H   0  0  0  0  0  0  0  0  0  0  0  0
   80.8985    6.3808   25.2330 H   0  0  0  0  0  0  0  0  0  0  0  0
   78.4741    5.7299   26.6044 H   0  0  0  0  0  0  0  0  0  0  0  0
   80.0391    8.3819   26.4970 H   0  0  0  0  0  0  0  0  0  0  0  0
   78.8269    7.8102   25.2848 H   0  0  0  0  0  0  0  0  0  0  0  0
   77.9689    9.5022   26.9910 H   0  0  0  0  0  0  0  0  0  0  0  0
   77.0483    7.9323   26.8651 H   0  0  0  0  0  0  0  0  0  0  0  0
   78.9846    8.7847   29.0600 H   0  0  0  0  0  0  0  0  0  0  0  0
   77.2079    8.4752   29.1876 H   0  0  0  0  0  0  0  0  0  0  0  0
   77.6015    6.0537   28.6253 H   0  0  0  0  0  0  0  0  0  0  0  0
   81.2341    4.5688   29.1952 H   0  0  0  0  0  0  0  0  0  0  0  0
   82.7352    5.4853   28.7734 H   0  0  0  0  0  0  0  0  0  0  0  0
   81.3173    6.5725   31.1173 H   0  0  0  0  0  0  0  0  0  0  0  0
   81.8840    4.8635   31.3260 H   0  0  0  0  0  0  0  0  0  0  0  0
   83.9580    5.6370   32.1490 H   0  0  0  0  0  0  0  0  0  0  0  0
  1  2  1  0
  2  3  1  0
  3  4  1  0
  4  5  1  0
  5  6  1  0
  6  7  1  0
  7  8  2  0
  7  9  1  0
  6 10  1  0
 10 11  1  0
 11 12  2  0
 11 13  1  0
 13 14  1  0
 14 15  1  0
 10  2  1  0
  1 16  1  0
  1 17  1  0
  1 18  1  0
  2 19  1  1
  3 20  1  0
  3 21  1  0
  4 22  1  0
  4 23  1  0
  5 24  1  0
  5 25  1  0
  6 26  1  6
 13 27  1  0
 13 28  1  0
 14 29  1  0
 14 30  1  0
 15 31  1  0
M  CHG  1   9  -1
M  END
>  <meeko>  (4) 
{"is_sidechain": [false], "free_energy": -5.016, "intermolecular_energy": -6.268, "internal_energy": -0.388}

$$$$
4kz6_ligand
     RDKit          3D

 31 31  0  0  0  0  0  0  0  0999 V2000
   77.1120    7.3770   28.8670 C   0  0  0  0  0  0  0  0  0  0  0  0
   78.5970    7.6450   28.6110 C   0  0  2  0  0  0  0  0  0  0  0  0
   78.8320    8.5590   27.3970 C   0  0  0  0  0  0  0  0  0  0  0  0
   80.3200    8.9230   27.2650 C   0  0  0  0  0  0  0  0  0  0  0  0
   81.2540    7.7050   27.3700 C   0  0  0  0  0  0  0  0  0  0  0  0
   80.9130    6.8540   28.6050 C   0  0  2  0  0  0  0  0  0  0  0  0
   81.9750    5.7810   28.9870 C   0  0  0  0  0  0  0  0  0  0  0  0
   82.7680    5.4560   28.0560 O   0  0  0  0  0  0  0  0  0  0  0  0
   81.9290    5.3540   30.1760 O   0  0  0  0  0  0  0  0  0  0  0  0
   79.4630    6.4630   28.4930 N   0  0  0  0  0  0  0  0  0  0  0  0
   79.0560    5.4100   27.6590 C   0  0  0  0  0  0  0  0  0  0  0  0
   78.4350    4.4300   28.0850 O   0  0  0  0  0  0  0  0  0  0  0  0
   79.4170    5.4790   26.1860 C   0  0  0  0  0  0  0  0  0  0  0  0
   78.4350    4.6780   25.3400 C   0  0  0  0  0  0  0  0  0  0  0  0
   76.8530    5.5600   25.1300 S   0  0  0  0  0  0  0  0  0  0  0  0
   76.9270    7.3436   29.9508 H   0  0  0  0  0  0  0  0  0  0  0  0
   76.5114    8.1813   28.4171 H   0  0  0  0  0  0  0  0  0  0  0  0
   76.8304    6.4135   28.4171 H   0  0  0  0  0  0  0  0  0  0  0  0
   78.8985    8.1532   29.5388 H   0  0  0  0  0  0  0  0  0  0  0  0
   78.5064    8.0374   26.4849 H   0  0  0  0  0  0  0  0  0  0  0  0
   78.2545    9.4847   27.5367 H   0  0  0  0  0  0  0  0  0  0  0  0
   80.4775    9.4009   26.2868 H   0  0  0  0  0  0  0  0  0  0  0  0
   80.5667    9.5967   28.0988 H   0  0  0  0  0  0  0  0  0  0  0  0
   81.1434    7.0879   26.4662 H   0  0  0  0  0  0  0  0  0  0  0  0
   82.2891    8.0644   27.4669 H   0  0  0  0  0  0  0  0  0  0  0  0
   81.0000    7.4356   29.5346 H   0  0  0  0  0  0  0  0  0  0  0  0
   79.3972    6.5296   25.8605 H   0  0  0  0  0  0  0  0  0  0  0  0
   80.4214    5.0507   26.0531 H   0  0  0  0  0  0  0  0  0  0  0  0
   78.8791    4.5012   24.3493 H   0  0  0  0  0  0  0  0  0  0  0  0
   78.2327    3.7277   25.8557 H   0  0  0  0  0  0  0  0  0  0  0  0
   77.2180    6.2590   24.0410 H   0  0  0  0  0  0  0  0  0  0  0  0
  1  2  1  0
  2  3  1  0
  3  4  1  0
  4  5  1  0
  5  6  1  0
  6  7  1  0
  7  8  2  0
  7  9  1  0
  6 10  1  0
 10 11  1  0
 11 12  2  0
 11 13  1  0
 13 14  1  0
 14 15  1  0
 10  2  1  0
  1 16  1  0
  1 17  1  0
  1 18  1  0
  2 19  1  1
  3 20  1  0
  3 21  1  0
  4 22  1  0
  4 23  1  0
  5 24  1  0
  5 25  1  0
  6 26  1  1
 13 27  1  0
 13 28  1  0
 14 29  1  0
 14 30  1  0
 15 31  1  0
M  CHG  1   9  -1
M  END
>  <meeko>  (5) 
{"is_sidechain": [false], "free_energy": -4.864, "intermolecular_energy": -6.465, "internal_energy": 0.001}

$$$$
4kz6_ligand
     RDKit          3D

 31 31  0  0  0  0  0  0  0  0999 V2000
   71.6640   11.1400   16.2400 C   0  0  0  0  0  0  0  0  0  0  0  0
   71.7790   11.3680   14.7310 C   0  0  2  0  0  0  0  0  0  0  0  0
   70.4850   11.9250   14.1170 C   0  0  0  0  0  0  0  0  0  0  0  0
   70.6880   12.2780   12.6340 C   0  0  0  0  0  0  0  0  0  0  0  0
   71.3750   11.1580   11.8340 C   0  0  0  0  0  0  0  0  0  0  0  0
   72.6430   10.6650   12.5510 C   0  0  2  0  0  0  0  0  0  0  0  0
   73.5820    9.7630   11.6970 C   0  0  0  0  0  0  0  0  0  0  0  0
   72.9990    8.8600   11.0300 O   0  0  0  0  0  0  0  0  0  0  0  0
   74.8170   10.0290   11.7640 O   0  0  0  0  0  0  0  0  0  0  0  0
   72.2310   10.2200   13.9300 N   0  0  0  0  0  0  0  0  0  0  0  0
   71.6290    8.9710   14.1430 C   0  0  0  0  0  0  0  0  0  0  0  0
   70.4980    8.7000   13.7240 O   0  0  0  0  0  0  0  0  0  0  0  0
   72.3980    7.9300   14.9370 C   0  0  0  0  0  0  0  0  0  0  0  0
   72.1610    6.5300   14.3830 C   0  0  0  0  0  0  0  0  0  0  0  0
   73.1470    5.2790   15.2710 S   0  0  0  0  0  0  0  0  0  0  0  0
   72.0969   11.9984   16.7746 H   0  0  0  0  0  0  0  0  0  0  0  0
   70.6043   11.0333   16.5150 H   0  0  0  0  0  0  0  0  0  0  0  0
   72.2081   10.2244   16.5150 H   0  0  0  0  0  0  0  0  0  0  0  0
   72.5836   12.1160   14.6757 H   0  0  0  0  0  0  0  0  0  0  0  0
   69.6915   11.1679   14.2015 H   0  0  0  0  0  0  0  0  0  0  0  0
   70.2037   12.8392   14.6602 H   0  0  0  0  0  0  0  0  0  0  0  0
   69.7042   12.4765   12.1838 H   0  0  0  0  0  0  0  0  0  0  0  0
   71.3453   13.1591   12.5943 H   0  0  0  0  0  0  0  0  0  0  0  0
   70.6759   10.3164   11.7207 H   0  0  0  0  0  0  0  0  0  0  0  0
   71.6621   11.5565   10.8497 H   0  0  0  0  0  0  0  0  0  0  0  0
   73.3694   11.4781   12.6967 H   0  0  0  0  0  0  0  0  0  0  0  0
   73.4724    8.1598   14.8842 H   0  0  0  0  0  0  0  0  0  0  0  0
   72.0469    7.9568   15.9791 H   0  0  0  0  0  0  0  0  0  0  0  0
   71.0943    6.2818   14.4852 H   0  0  0  0  0  0  0  0  0  0  0  0
   72.4674    6.5223   13.3266 H   0  0  0  0  0  0  0  0  0  0  0  0
   72.6800    4.2150   14.5950 H   0  0  0  0  0  0  0  0  0  0  0  0
  1  2  1  0
  2  3  1  0
  3  4  1  0
  4  5  1  0
  5  6  1  0
  6  7  1  0
  7  8  2  0
  7  9  1  0
  6 10  1  0
 10 11  1  0
 11 12  2  0
 11 13  1  0
 13 14  1  0
 14 15  1  0
 10  2  1  0
  1 16  1  0
  1 17  1  0
  1 18  1  0
  2 19  1  1
  3 20  1  0
  3 21  1  0
  4 22  1  0
  4 23  1  0
  5 24  1  0
  5 25  1  0
  6 26  1  1
 13 27  1  0
 13 28  1  0
 14 29  1  0
 14 30  1  0
 15 31  1  0
M  CHG  1   9  -1
M  END
>  <meeko>  (6) 
{"is_sidechain": [false], "free_energy": -4.852, "intermolecular_energy": -6.245, "internal_energy": -0.204}

$$$$
4kz6_ligand
     RDKit          3D

 31 31  0  0  0  0  0  0  0  0999 V2000
   81.9230    5.8480   27.5580 C   0  0  0  0  0  0  0  0  0  0  0  0
   80.4940    6.3690   27.3880 C   0  0  2  0  0  0  0  0  0  0  0  0
   80.3470    7.3070   26.1780 C   0  0  0  0  0  0  0  0  0  0  0  0
   78.8730    7.6880   25.9550 C   0  0  0  0  0  0  0  0  0  0  0  0
   78.1650    8.1460   27.2410 C   0  0  0  0  0  0  0  0  0  0  0  0
   78.3990    7.1460   28.3860 C   0  0  2  0  0  0  0  0  0  0  0  0
   77.4860    7.3380   29.6340 C   0  0  0  0  0  0  0  0  0  0  0  0
   77.1510    6.2700   30.2220 O   0  0  0  0  0  0  0  0  0  0  0  0
   77.1800    8.5320   29.9180 O   0  0  0  0  0  0  0  0  0  0  0  0
   79.8880    7.0100   28.5640 N   0  0  0  0  0  0  0  0  0  0  0  0
   80.6290    7.9760   29.2620 C   0  0  0  0  0  0  0  0  0  0  0  0
   80.9090    9.0760   28.7740 O   0  0  0  0  0  0  0  0  0  0  0  0
   81.1170    7.6350   30.6590 C   0  0  0  0  0  0  0  0  0  0  0  0
   80.7470    6.2050   31.0360 C   0  0  0  0  0  0  0  0  0  0  0  0
   79.9020    6.1330   32.6500 S   0  0  0  0  0  0  0  0  0  0  0  0
   82.1571    5.7626   28.6294 H   0  0  0  0  0  0  0  0  0  0  0  0
   82.0118    4.8596   27.0834 H   0  0  0  0  0  0  0  0  0  0  0  0
   82.6271    6.5473   27.0834 H   0  0  0  0  0  0  0  0  0  0  0  0
   79.9319    5.4378   27.2239 H   0  0  0  0  0  0  0  0  0  0  0  0
   80.9321    8.2210   26.3576 H   0  0  0  0  0  0  0  0  0  0  0  0
   80.7148    6.7854   25.2821 H   0  0  0  0  0  0  0  0  0  0  0  0
   78.8305    8.5069   25.2218 H   0  0  0  0  0  0  0  0  0  0  0  0
   78.3526    6.7869   25.5982 H   0  0  0  0  0  0  0  0  0  0  0  0
   78.5580    9.1299   27.5369 H   0  0  0  0  0  0  0  0  0  0  0  0
   77.0845    8.2057   27.0436 H   0  0  0  0  0  0  0  0  0  0  0  0
   78.0303    6.1419   28.1292 H   0  0  0  0  0  0  0  0  0  0  0  0
   82.2110    7.7441   30.6939 H   0  0  0  0  0  0  0  0  0  0  0  0
   80.6370    8.3199   31.3735 H   0  0  0  0  0  0  0  0  0  0  0  0
   80.0789    5.7941   30.2648 H   0  0  0  0  0  0  0  0  0  0  0  0
   81.6741    5.6172   31.1068 H   0  0  0  0  0  0  0  0  0  0  0  0
   80.6530    7.0720   33.2520 H   0  0  0  0  0  0  0  0  0  0  0  0
  1  2  1  0
  2  3  1  0
  3  4  1  0
  4  5  1  0
  5  6  1  0
  6  7  1  0
  7  8  2  0
  7  9  1  0
  6 10  1  0
 10 11  1  0
 11 12  2  0
 11 13  1  0
 13 14  1  0
 14 15  1  0
 10  2  1  0
  1 16  1  0
  1 17  1  0
  1 18  1  0
  2 19  1  6
  3 20  1  0
  3 21  1  0
  4 22  1  0
  4 23  1  0
  5 24  1  0
  5 25  1  0
  6 26  1  6
 13 27  1  0
 13 28  1  0
 14 29  1  0
 14 30  1  0
 15 31  1  0
M  CHG  1   9  -1
M  END
>  <meeko>  (7) 
{"is_sidechain": [false], "free_energy": -4.811, "intermolecular_energy": -5.953, "internal_energy": -0.444}

$$$$
4kz6_ligand
     RDKit          3D

 31 31  0  0  0  0  0  0  0  0999 V2000
   81.3790    9.2640   27.4880 C   0  0  0  0  0  0  0  0  0  0  0  0
   80.3270    8.3700   26.8280 C   0  0  2  0  0  0  0  0  0  0  0  0
   78.9910    8.3690   27.5890 C   0  0  0  0  0  0  0  0  0  0  0  0
   77.9200    7.5800   26.8170 C   0  0  0  0  0  0  0  0  0  0  0  0
   78.4110    6.2040   26.3360 C   0  0  0  0  0  0  0  0  0  0  0  0
   79.7620    6.3230   25.6100 C   0  0  2  0  0  0  0  0  0  0  0  0
   80.2030    5.0590   24.8140 C   0  0  0  0  0  0  0  0  0  0  0  0
   81.1970    5.2270   24.0490 O   0  0  0  0  0  0  0  0  0  0  0  0
   79.5240    4.0120   25.0160 O   0  0  0  0  0  0  0  0  0  0  0  0
   80.7250    6.9790   26.5640 N   0  0  0  0  0  0  0  0  0  0  0  0
   81.3450    6.2490   27.5900 C   0  0  0  0  0  0  0  0  0  0  0  0
   82.5270    5.8950   27.5300 O   0  0  0  0  0  0  0  0  0  0  0  0
   80.5130    5.8670   28.8020 C   0  0  0  0  0  0  0  0  0  0  0  0
   81.3630    5.8490   30.0680 C   0  0  0  0  0  0  0  0  0  0  0  0
   81.3620    7.4700   30.9020 S   0  0  0  0  0  0  0  0  0  0  0  0
   81.2902    9.1886   28.5818 H   0  0  0  0  0  0  0  0  0  0  0  0
   82.3831    8.9387   27.1783 H   0  0  0  0  0  0  0  0  0  0  0  0
   81.2199   10.3074   27.1783 H   0  0  0  0  0  0  0  0  0  0  0  0
   80.2095    8.8473   25.8439 H   0  0  0  0  0  0  0  0  0  0  0  0
   79.1388    7.9052   28.5754 H   0  0  0  0  0  0  0  0  0  0  0  0
   78.6493    9.4086   27.7005 H   0  0  0  0  0  0  0  0  0  0  0  0
   77.0524    7.4308   27.4765 H   0  0  0  0  0  0  0  0  0  0  0  0
   77.6628    8.1665   25.9226 H   0  0  0  0  0  0  0  0  0  0  0  0
   78.5270    5.5396   27.2050 H   0  0  0  0  0  0  0  0  0  0  0  0
   77.6707    5.7940   25.6332 H   0  0  0  0  0  0  0  0  0  0  0  0
   79.6968    6.9889   24.7369 H   0  0  0  0  0  0  0  0  0  0  0  0
   79.7007    6.5984   28.9251 H   0  0  0  0  0  0  0  0  0  0  0  0
   80.1042    4.8585   28.6413 H   0  0  0  0  0  0  0  0  0  0  0  0
   80.9598    5.0928   30.7576 H   0  0  0  0  0  0  0  0  0  0  0  0
   82.3982    5.6099   29.7833 H   0  0  0  0  0  0  0  0  0  0  0  0
   82.5820    7.3520   31.4550 H   0  0  0  0  0  0  0  0  0  0  0  0
  1  2  1  0
  2  3  1  0
  3  4  1  0
  4  5  1  0
  5  6  1  0
  6  7  1  0
  7  8  2  0
  7  9  1  0
  6 10  1  0
 10 11  1  0
 11 12  2  0
 11 13  1  0
 13 14  1  0
 14 15  1  0
 10  2  1  0
  1 16  1  0
  1 17  1  0
  1 18  1  0
  2 19  1  6
  3 20  1  0
  3 21  1  0
  4 22  1  0
  4 23  1  0
  5 24  1  0
  5 25  1  0
  6 26  1  6
 13 27  1  0
 13 28  1  0
 14 29  1  0
 14 30  1  0
 15 31  1  0
M  CHG  1   9  -1
M  END
>  <meeko>  (8) 
{"is_sidechain": [false], "free_energy": -4.717, "intermolecular_energy": -6.19, "internal_energy": -0.088}

$$$$
4kz6_ligand
     RDKit          3D

 31 31  0  0  0  0  0  0  0  0999 V2000
   70.3090   11.1160   12.5640 C   0  0  0  0  0  0  0  0  0  0  0  0
   70.8710   10.2450   13.6900 C   0  0  2  0  0  0  0  0  0  0  0  0
   71.6310   11.0640   14.7470 C   0  0  0  0  0  0  0  0  0  0  0  0
   72.0490   10.1770   15.9320 C   0  0  0  0  0  0  0  0  0  0  0  0
   72.7230    8.8650   15.4970 C   0  0  0  0  0  0  0  0  0  0  0  0
   71.8880    8.1440   14.4250 C   0  0  2  0  0  0  0  0  0  0  0  0
   72.3040    6.6710   14.1380 C   0  0  0  0  0  0  0  0  0  0  0  0
   73.0980    6.1630   14.9810 O   0  0  0  0  0  0  0  0  0  0  0  0
   71.8070    6.1470   13.0990 O   0  0  0  0  0  0  0  0  0  0  0  0
   71.7040    9.1050   13.2810 N   0  0  0  0  0  0  0  0  0  0  0  0
   72.7230    9.3190   12.3390 C   0  0  0  0  0  0  0  0  0  0  0  0
   72.7290    8.7670   11.2340 O   0  0  0  0  0  0  0  0  0  0  0  0
   73.8630   10.2490   12.7130 C   0  0  0  0  0  0  0  0  0  0  0  0
   74.1000   11.2930   11.6290 C   0  0  0  0  0  0  0  0  0  0  0  0
   73.7760   12.9810   12.2370 S   0  0  0  0  0  0  0  0  0  0  0  0
   69.7607   11.9658   12.9967 H   0  0  0  0  0  0  0  0  0  0  0  0
   71.1359   11.4911   11.9430 H   0  0  0  0  0  0  0  0  0  0  0  0
   69.6265   10.5172   11.9430 H   0  0  0  0  0  0  0  0  0  0  0  0
   69.9553    9.8145   14.1214 H   0  0  0  0  0  0  0  0  0  0  0  0
   72.5309   11.4986   14.2873 H   0  0  0  0  0  0  0  0  0  0  0  0
   70.9680   11.8588   15.1195 H   0  0  0  0  0  0  0  0  0  0  0  0
   72.7544   10.7413   16.5596 H   0  0  0  0  0  0  0  0  0  0  0  0
   71.1332    9.9088   16.4792 H   0  0  0  0  0  0  0  0  0  0  0  0
   73.7179    9.0910   15.0859 H   0  0  0  0  0  0  0  0  0  0  0  0
   72.8084    8.2076   16.3748 H   0  0  0  0  0  0  0  0  0  0  0  0
   70.8772    7.9070   14.7886 H   0  0  0  0  0  0  0  0  0  0  0  0
   73.6151   10.7598   13.6551 H   0  0  0  0  0  0  0  0  0  0  0  0
   74.7786    9.6500   12.8261 H   0  0  0  0  0  0  0  0  0  0  0  0
   75.1461   11.2290   11.2949 H   0  0  0  0  0  0  0  0  0  0  0  0
   73.4081   11.0887   10.7987 H   0  0  0  0  0  0  0  0  0  0  0  0
   73.7050   13.5630   11.0270 H   0  0  0  0  0  0  0  0  0  0  0  0
  1  2  1  0
  2  3  1  0
  3  4  1  0
  4  5  1  0
  5  6  1  0
  6  7  1  0
  7  8  2  0
  7  9  1  0
  6 10  1  0
 10 11  1  0
 11 12  2  0
 11 13  1  0
 13 14  1  0
 14 15  1  0
 10  2  1  0
  1 16  1  0
  1 17  1  0
  1 18  1  0
  2 19  1  1
  3 20  1  0
  3 21  1  0
  4 22  1  0
  4 23  1  0
  5 24  1  0
  5 25  1  0
  6 26  1  1
 13 27  1  0
 13 28  1  0
 14 29  1  0
 14 30  1  0
 15 31  1  0
M  CHG  1   9  -1
M  END
>  <meeko>  (9) 
{"is_sidechain": [false], "free_energy": -4.711, "intermolecular_energy": -6.216, "internal_energy": -0.055}

$$$$
