3ueu_ligand
     RDKit          3D

 37 36  0  0  0  0  0  0  0  0999 V2000
   -4.2190   17.2740   16.8020 C   0  0  0  0  0  0  0  0  0  0  0  0
   -3.5760   15.9670   17.2370 C   0  0  0  0  0  0  0  0  0  0  0  0
   -2.2280   16.2080   17.9180 C   0  0  0  0  0  0  0  0  0  0  0  0
   -1.4640   14.9190   18.2360 C   0  0  0  0  0  0  0  0  0  0  0  0
   -2.3420   13.6660   18.1820 C   0  0  0  0  0  0  0  0  0  0  0  0
   -1.7300   12.4620   18.9070 C   0  0  0  0  0  0  0  0  0  0  0  0
   -1.9580   11.0950   18.2530 C   0  0  0  0  0  0  0  0  0  0  0  0
   -2.9390   10.2070   19.0230 C   0  0  0  0  0  0  0  0  0  0  0  0
   -3.2080   10.7660   20.4230 C   0  0  0  0  0  0  0  0  0  0  0  0
   -4.1330    9.8830   21.2640 C   0  0  0  0  0  0  0  0  0  0  0  0
   -5.2720   10.6530   21.9260 C   0  0  0  0  0  0  0  0  0  0  0  0
   -5.0000   11.1030   23.3660 C   0  0  0  0  0  0  0  0  0  0  0  0
   -5.6570   12.1250   23.7200 O   0  0  0  0  0  0  0  0  0  0  0  0
   -4.1650   10.4240   24.0240 O   0  0  0  0  0  0  0  0  0  0  0  0
   -4.5051   17.8555   17.6908 H   0  0  0  0  0  0  0  0  0  0  0  0
   -3.5027   17.8526   16.2002 H   0  0  0  0  0  0  0  0  0  0  0  0
   -5.1145   17.0596   16.2002 H   0  0  0  0  0  0  0  0  0  0  0  0
   -4.2471   15.4554   17.9426 H   0  0  0  0  0  0  0  0  0  0  0  0
   -3.4065   15.3499   16.3423 H   0  0  0  0  0  0  0  0  0  0  0  0
   -1.6071   16.8253   17.2521 H   0  0  0  0  0  0  0  0  0  0  0  0
   -2.4348   16.7060   18.8768 H   0  0  0  0  0  0  0  0  0  0  0  0
   -0.6496   14.8065   17.5052 H   0  0  0  0  0  0  0  0  0  0  0  0
   -1.0874   15.0089   19.2656 H   0  0  0  0  0  0  0  0  0  0  0  0
   -3.3106   13.8986   18.6487 H   0  0  0  0  0  0  0  0  0  0  0  0
   -2.4468   13.3883   17.1228 H   0  0  0  0  0  0  0  0  0  0  0  0
   -0.6443   12.6259   18.9737 H   0  0  0  0  0  0  0  0  0  0  0  0
   -2.2394   12.4128   19.8807 H   0  0  0  0  0  0  0  0  0  0  0  0
   -2.3548   11.2554   17.2397 H   0  0  0  0  0  0  0  0  0  0  0  0
   -0.9889   10.5747   18.2433 H   0  0  0  0  0  0  0  0  0  0  0  0
   -3.8877   10.1553   18.4686 H   0  0  0  0  0  0  0  0  0  0  0  0
   -2.4959    9.2055   19.1263 H   0  0  0  0  0  0  0  0  0  0  0  0
   -2.2472   10.8647   20.9493 H   0  0  0  0  0  0  0  0  0  0  0  0
   -3.7135   11.7344   20.2938 H   0  0  0  0  0  0  0  0  0  0  0  0
   -4.5673    9.1120   20.6107 H   0  0  0  0  0  0  0  0  0  0  0  0
   -3.5227    9.4504   22.0705 H   0  0  0  0  0  0  0  0  0  0  0  0
   -5.4746   11.5491   21.3211 H   0  0  0  0  0  0  0  0  0  0  0  0
   -6.1233    9.9583   21.9771 H   0  0  0  0  0  0  0  0  0  0  0  0
  1  2  1  0
  2  3  1  0
  3  4  1  0
  4  5  1  0
  5  6  1  0
  6  7  1  0
  7  8  1  0
  8  9  1  0
  9 10  1  0
 10 11  1  0
 11 12  1  0
 12 13  2  0
 12 14  1  0
  1 15  1  0
  1 16  1  0
  1 17  1  0
  2 18  1  0
  2 19  1  0
  3 20  1  0
  3 21  1  0
  4 22  1  0
  4 23  1  0
  5 24  1  0
  5 25  1  0
  6 26  1  0
  6 27  1  0
  7 28  1  0
  7 29  1  0
  8 30  1  0
  8 31  1  0
  9 32  1  0
  9 33  1  0
 10 34  1  0
 10 35  1  0
 11 36  1  0
 11 37  1  0
M  CHG  1  14  -1
M  END
>  <meeko>  (1) 
{"is_sidechain": [false], "free_energy": -6.244, "intermolecular_energy": -9.895, "internal_energy": -0.482}

$$$$
3ueu_ligand
     RDKit          3D

 37 36  0  0  0  0  0  0  0  0999 V2000
   -4.2830   17.3230   16.4640 C   0  0  0  0  0  0  0  0  0  0  0  0
   -3.1810   17.0510   17.4760 C   0  0  0  0  0  0  0  0  0  0  0  0
   -2.3500   15.8310   17.0810 C   0  0  0  0  0  0  0  0  0  0  0  0
   -1.7630   15.0760   18.2790 C   0  0  0  0  0  0  0  0  0  0  0  0
   -1.9530   13.5600   18.1920 C   0  0  0  0  0  0  0  0  0  0  0  0
   -3.3940   13.1430   17.8770 C   0  0  0  0  0  0  0  0  0  0  0  0
   -3.6980   11.6450   17.9730 C   0  0  0  0  0  0  0  0  0  0  0  0
   -2.4660   10.7920   18.2850 C   0  0  0  0  0  0  0  0  0  0  0  0
   -2.5280   10.2360   19.7110 C   0  0  0  0  0  0  0  0  0  0  0  0
   -3.8950   10.4180   20.3760 C   0  0  0  0  0  0  0  0  0  0  0  0
   -3.8070   10.8980   21.8230 C   0  0  0  0  0  0  0  0  0  0  0  0
   -5.0720   10.6720   22.6580 C   0  0  0  0  0  0  0  0  0  0  0  0
   -5.6870    9.6000   22.3830 O   0  0  0  0  0  0  0  0  0  0  0  0
   -5.3590   11.5620   23.5050 O   0  0  0  0  0  0  0  0  0  0  0  0
   -5.2188   17.5540   16.9941 H   0  0  0  0  0  0  0  0  0  0  0  0
   -3.9985   18.1779   15.8329 H   0  0  0  0  0  0  0  0  0  0  0  0
   -4.4289   16.4339   15.8329 H   0  0  0  0  0  0  0  0  0  0  0  0
   -2.5220   17.9299   17.5324 H   0  0  0  0  0  0  0  0  0  0  0  0
   -3.6485   16.8504   18.4513 H   0  0  0  0  0  0  0  0  0  0  0  0
   -2.9928   15.1404   16.5154 H   0  0  0  0  0  0  0  0  0  0  0  0
   -1.5025   16.1971   16.4830 H   0  0  0  0  0  0  0  0  0  0  0  0
   -0.6854   15.2902   18.3326 H   0  0  0  0  0  0  0  0  0  0  0  0
   -2.2995   15.4204   19.1754 H   0  0  0  0  0  0  0  0  0  0  0  0
   -1.2966   13.1715   17.3994 H   0  0  0  0  0  0  0  0  0  0  0  0
   -1.7039   13.1448   19.1797 H   0  0  0  0  0  0  0  0  0  0  0  0
   -4.0570   13.6663   18.5816 H   0  0  0  0  0  0  0  0  0  0  0  0
   -3.5552   13.4103   16.8222 H   0  0  0  0  0  0  0  0  0  0  0  0
   -4.4398   11.4904   18.7704 H   0  0  0  0  0  0  0  0  0  0  0  0
   -4.0719   11.3265   16.9888 H   0  0  0  0  0  0  0  0  0  0  0  0
   -2.4198    9.9538   17.5741 H   0  0  0  0  0  0  0  0  0  0  0  0
   -1.5707   11.4246   18.1949 H   0  0  0  0  0  0  0  0  0  0  0  0
   -2.2975    9.1610   19.6764 H   0  0  0  0  0  0  0  0  0  0  0  0
   -1.7977   10.7988   20.3109 H   0  0  0  0  0  0  0  0  0  0  0  0
   -4.4683   11.1575   19.7977 H   0  0  0  0  0  0  0  0  0  0  0  0
   -4.3828    9.4322   20.3902 H   0  0  0  0  0  0  0  0  0  0  0  0
   -2.9770   10.3647   22.3096 H   0  0  0  0  0  0  0  0  0  0  0  0
   -3.6591   11.9871   21.7773 H   0  0  0  0  0  0  0  0  0  0  0  0
  1  2  1  0
  2  3  1  0
  3  4  1  0
  4  5  1  0
  5  6  1  0
  6  7  1  0
  7  8  1  0
  8  9  1  0
  9 10  1  0
 10 11  1  0
 11 12  1  0
 12 13  2  0
 12 14  1  0
  1 15  1  0
  1 16  1  0
  1 17  1  0
  2 18  1  0
  2 19  1  0
  3 20  1  0
  3 21  1  0
  4 22  1  0
  4 23  1  0
  5 24  1  0
  5 25  1  0
  6 26  1  0
  6 27  1  0
  7 28  1  0
  7 29  1  0
  8 30  1  0
  8 31  1  0
  9 32  1  0
  9 33  1  0
 10 34  1  0
 10 35  1  0
 11 36  1  0
 11 37  1  0
M  CHG  1  14  -1
M  END
>  <meeko>  (2) 
{"is_sidechain": [false], "free_energy": -5.925, "intermolecular_energy": -9.217, "internal_energy": -0.654}

$$$$
3ueu_ligand
     RDKit          3D

 37 36  0  0  0  0  0  0  0  0999 V2000
   -4.4680   17.2810   16.7510 C   0  0  0  0  0  0  0  0  0  0  0  0
   -3.1560   17.1380   17.5080 C   0  0  0  0  0  0  0  0  0  0  0  0
   -2.4140   15.8650   17.0990 C   0  0  0  0  0  0  0  0  0  0  0  0
   -1.6670   15.1950   18.2560 C   0  0  0  0  0  0  0  0  0  0  0  0
   -1.8480   13.6750   18.2940 C   0  0  0  0  0  0  0  0  0  0  0  0
   -3.2460   13.2170   17.8630 C   0  0  0  0  0  0  0  0  0  0  0  0
   -3.4930   11.7050   17.8810 C   0  0  0  0  0  0  0  0  0  0  0  0
   -3.1090   11.0390   19.2050 C   0  0  0  0  0  0  0  0  0  0  0  0
   -1.9740   10.0310   19.0060 C   0  0  0  0  0  0  0  0  0  0  0  0
   -1.9570    9.4020   17.6100 C   0  0  0  0  0  0  0  0  0  0  0  0
   -1.5320    7.9360   17.6100 C   0  0  0  0  0  0  0  0  0  0  0  0
   -2.1260    7.0890   18.7390 C   0  0  0  0  0  0  0  0  0  0  0  0
   -3.3820    6.9450   18.6700 O   0  0  0  0  0  0  0  0  0  0  0  0
   -1.3190    6.6420   19.5990 O   0  0  0  0  0  0  0  0  0  0  0  0
   -5.2971   17.3714   17.4682 H   0  0  0  0  0  0  0  0  0  0  0  0
   -4.4304   18.1804   16.1188 H   0  0  0  0  0  0  0  0  0  0  0  0
   -4.6250   16.3947   16.1188 H   0  0  0  0  0  0  0  0  0  0  0  0
   -2.5201   18.0088   17.2905 H   0  0  0  0  0  0  0  0  0  0  0  0
   -3.3804   17.0786   18.5832 H   0  0  0  0  0  0  0  0  0  0  0  0
   -3.1460   15.1494   16.6963 H   0  0  0  0  0  0  0  0  0  0  0  0
   -1.6603   16.1555   16.3523 H   0  0  0  0  0  0  0  0  0  0  0  0
   -0.5944   15.4165   18.1540 H   0  0  0  0  0  0  0  0  0  0  0  0
   -2.0859   15.5966   19.1905 H   0  0  0  0  0  0  0  0  0  0  0  0
   -1.1084   13.2189   17.6195 H   0  0  0  0  0  0  0  0  0  0  0  0
   -1.7101   13.3577   19.3382 H   0  0  0  0  0  0  0  0  0  0  0  0
   -3.9767   13.6854   18.5387 H   0  0  0  0  0  0  0  0  0  0  0  0
   -3.3463   13.5212   16.8107 H   0  0  0  0  0  0  0  0  0  0  0  0
   -4.5626   11.5248   17.6980 H   0  0  0  0  0  0  0  0  0  0  0  0
   -2.8559   11.2639   17.1003 H   0  0  0  0  0  0  0  0  0  0  0  0
   -2.7818   11.8130   19.9149 H   0  0  0  0  0  0  0  0  0  0  0  0
   -3.9875   10.5037   19.5945 H   0  0  0  0  0  0  0  0  0  0  0  0
   -1.0164   10.5478   19.1673 H   0  0  0  0  0  0  0  0  0  0  0  0
   -2.1333    9.2160   19.7274 H   0  0  0  0  0  0  0  0  0  0  0  0
   -2.9688    9.4716   17.1840 H   0  0  0  0  0  0  0  0  0  0  0  0
   -1.2157    9.9547   17.0142 H   0  0  0  0  0  0  0  0  0  0  0  0
   -1.8399    7.4916   16.6520 H   0  0  0  0  0  0  0  0  0  0  0  0
   -0.4428    7.9321   17.7638 H   0  0  0  0  0  0  0  0  0  0  0  0
  1  2  1  0
  2  3  1  0
  3  4  1  0
  4  5  1  0
  5  6  1  0
  6  7  1  0
  7  8  1  0
  8  9  1  0
  9 10  1  0
 10 11  1  0
 11 12  1  0
 12 13  2  0
 12 14  1  0
  1 15  1  0
  1 16  1  0
  1 17  1  0
  2 18  1  0
  2 19  1  0
  3 20  1  0
  3 21  1  0
  4 22  1  0
  4 23  1  0
  5 24  1  0
  5 25  1  0
  6 26  1  0
  6 27  1  0
  7 28  1  0
  7 29  1  0
  8 30  1  0
  8 31  1  0
  9 32  1  0
  9 33  1  0
 10 34  1  0
 10 35  1  0
 11 36  1  0
 11 37  1  0
M  CHG  1  14  -1
M  END
>  <meeko>  (3) 
{"is_sidechain": [false], "free_energy": -5.884, "intermolecular_energy": -9.194, "internal_energy": -0.612}

$$$$
3ueu_ligand
     RDKit          3D

 37 36  0  0  0  0  0  0  0  0999 V2000
   -5.4400   11.6970   23.5240 C   0  0  0  0  0  0  0  0  0  0  0  0
   -4.3620   10.6830   23.1750 C   0  0  0  0  0  0  0  0  0  0  0  0
   -4.7350    9.8790   21.9290 C   0  0  0  0  0  0  0  0  0  0  0  0
   -3.9850   10.3210   20.6680 C   0  0  0  0  0  0  0  0  0  0  0  0
   -3.2760    9.1690   19.9510 C   0  0  0  0  0  0  0  0  0  0  0  0
   -2.0510    9.6160   19.1450 C   0  0  0  0  0  0  0  0  0  0  0  0
   -2.2520   10.8280   18.2300 C   0  0  0  0  0  0  0  0  0  0  0  0
   -1.4140   12.0430   18.6340 C   0  0  0  0  0  0  0  0  0  0  0  0
   -2.2550   13.3230   18.6130 C   0  0  0  0  0  0  0  0  0  0  0  0
   -1.5650   14.4940   17.9070 C   0  0  0  0  0  0  0  0  0  0  0  0
   -2.3450   15.8020   17.9950 C   0  0  0  0  0  0  0  0  0  0  0  0
   -3.3890   16.0100   16.8930 C   0  0  0  0  0  0  0  0  0  0  0  0
   -3.3580   15.1320   15.9820 O   0  0  0  0  0  0  0  0  0  0  0  0
   -4.1430   17.0150   17.0080 O   0  0  0  0  0  0  0  0  0  0  0  0
   -5.5266   11.7784   24.6176 H   0  0  0  0  0  0  0  0  0  0  0  0
   -5.1713   12.6773   23.1035 H   0  0  0  0  0  0  0  0  0  0  0  0
   -6.4020   11.3689   23.1035 H   0  0  0  0  0  0  0  0  0  0  0  0
   -3.4174   11.2148   22.9883 H   0  0  0  0  0  0  0  0  0  0  0  0
   -4.2568    9.9851   24.0188 H   0  0  0  0  0  0  0  0  0  0  0  0
   -4.5058    8.8197   22.1169 H   0  0  0  0  0  0  0  0  0  0  0  0
   -5.8060   10.0482   21.7439 H   0  0  0  0  0  0  0  0  0  0  0  0
   -4.7073   10.7735   19.9726 H   0  0  0  0  0  0  0  0  0  0  0  0
   -3.2101   11.0353   20.9830 H   0  0  0  0  0  0  0  0  0  0  0  0
   -2.9495    8.4373   20.7047 H   0  0  0  0  0  0  0  0  0  0  0  0
   -3.9947    8.7387   19.2380 H   0  0  0  0  0  0  0  0  0  0  0  0
   -1.2509    9.8626   19.8585 H   0  0  0  0  0  0  0  0  0  0  0  0
   -1.8154    8.7759   18.4751 H   0  0  0  0  0  0  0  0  0  0  0  0
   -1.9761   10.5400   17.2049 H   0  0  0  0  0  0  0  0  0  0  0  0
   -3.3088   11.1225   18.3103 H   0  0  0  0  0  0  0  0  0  0  0  0
   -1.0216   11.8873   19.6498 H   0  0  0  0  0  0  0  0  0  0  0  0
   -0.5895   12.1542   17.9145 H   0  0  0  0  0  0  0  0  0  0  0  0
   -3.2003   13.1103   18.0923 H   0  0  0  0  0  0  0  0  0  0  0  0
   -2.4143   13.6235   19.6591 H   0  0  0  0  0  0  0  0  0  0  0  0
   -0.5777   14.6456   18.3678 H   0  0  0  0  0  0  0  0  0  0  0  0
   -1.4919   14.2318   16.8412 H   0  0  0  0  0  0  0  0  0  0  0  0
   -2.8636   15.8252   18.9648 H   0  0  0  0  0  0  0  0  0  0  0  0
   -1.6066   16.6084   17.8745 H   0  0  0  0  0  0  0  0  0  0  0  0
  1  2  1  0
  2  3  1  0
  3  4  1  0
  4  5  1  0
  5  6  1  0
  6  7  1  0
  7  8  1  0
  8  9  1  0
  9 10  1  0
 10 11  1  0
 11 12  1  0
 12 13  2  0
 12 14  1  0
  1 15  1  0
  1 16  1  0
  1 17  1  0
  2 18  1  0
  2 19  1  0
  3 20  1  0
  3 21  1  0
  4 22  1  0
  4 23  1  0
  5 24  1  0
  5 25  1  0
  6 26  1  0
  6 27  1  0
  7 28  1  0
  7 29  1  0
  8 30  1  0
  8 31  1  0
  9 32  1  0
  9 33  1  0
 10 34  1  0
 10 35  1  0
 11 36  1  0
 11 37  1  0
M  CHG  1  14  -1
M  END
>  <meeko>  (4) 
{"is_sidechain": [false], "free_energy": -5.697, "intermolecular_energy": -9.111, "internal_energy": -0.398}

$$$$
3ueu_ligand
     RDKit          3D

 37 36  0  0  0  0  0  0  0  0999 V2000
   -3.7810   17.2140   17.2630 C   0  0  0  0  0  0  0  0  0  0  0  0
   -2.7280   16.1780   16.9020 C   0  0  0  0  0  0  0  0  0  0  0  0
   -1.9630   15.7070   18.1390 C   0  0  0  0  0  0  0  0  0  0  0  0
   -1.9940   14.1880   18.3350 C   0  0  0  0  0  0  0  0  0  0  0  0
   -3.1670   13.5080   17.6240 C   0  0  0  0  0  0  0  0  0  0  0  0
   -3.4780   12.1080   18.1630 C   0  0  0  0  0  0  0  0  0  0  0  0
   -2.3930   11.4650   19.0330 C   0  0  0  0  0  0  0  0  0  0  0  0
   -1.3360   10.7040   18.2280 C   0  0  0  0  0  0  0  0  0  0  0  0
   -1.9710    9.5700   17.4190 C   0  0  0  0  0  0  0  0  0  0  0  0
   -2.6080    8.4830   18.2900 C   0  0  0  0  0  0  0  0  0  0  0  0
   -1.6080    7.7640   19.1920 C   0  0  0  0  0  0  0  0  0  0  0  0
   -1.1230    6.4080   18.6690 C   0  0  0  0  0  0  0  0  0  0  0  0
   -0.2670    5.8440   19.4120 O   0  0  0  0  0  0  0  0  0  0  0  0
   -1.6150    6.0120   17.5760 O   0  0  0  0  0  0  0  0  0  0  0  0
   -3.8594   17.2911   18.3575 H   0  0  0  0  0  0  0  0  0  0  0  0
   -3.4928   18.1904   16.8463 H   0  0  0  0  0  0  0  0  0  0  0  0
   -4.7525   16.9099   16.8463 H   0  0  0  0  0  0  0  0  0  0  0  0
   -3.2220   15.3129   16.4356 H   0  0  0  0  0  0  0  0  0  0  0  0
   -2.0117   16.6397   16.2065 H   0  0  0  0  0  0  0  0  0  0  0  0
   -0.9142   16.0241   18.0415 H   0  0  0  0  0  0  0  0  0  0  0  0
   -2.4550   16.1563   19.0142 H   0  0  0  0  0  0  0  0  0  0  0  0
   -1.0567   13.7665   17.9429 H   0  0  0  0  0  0  0  0  0  0  0  0
   -2.1146   14.0016   19.4124 H   0  0  0  0  0  0  0  0  0  0  0  0
   -4.0614   14.1360   17.7488 H   0  0  0  0  0  0  0  0  0  0  0  0
   -2.8830   13.3929   16.5676 H   0  0  0  0  0  0  0  0  0  0  0  0
   -4.3957   12.1760   18.7656 H   0  0  0  0  0  0  0  0  0  0  0  0
   -3.5672   11.4629   17.2765 H   0  0  0  0  0  0  0  0  0  0  0  0
   -1.8902   12.2584   19.6055 H   0  0  0  0  0  0  0  0  0  0  0  0
   -2.8925   10.7329   19.6846 H   0  0  0  0  0  0  0  0  0  0  0  0
   -0.8379   11.4018   17.5389 H   0  0  0  0  0  0  0  0  0  0  0  0
   -0.6090   10.2686   18.9293 H   0  0  0  0  0  0  0  0  0  0  0  0
   -2.7498    9.9981   16.7708 H   0  0  0  0  0  0  0  0  0  0  0  0
   -1.1653    9.0926   16.8420 H   0  0  0  0  0  0  0  0  0  0  0  0
   -3.3760    8.9501   18.9240 H   0  0  0  0  0  0  0  0  0  0  0  0
   -3.0315    7.7293   17.6099 H   0  0  0  0  0  0  0  0  0  0  0  0
   -0.7305    8.4156   19.3161 H   0  0  0  0  0  0  0  0  0  0  0  0
   -2.1364    7.5589   20.1347 H   0  0  0  0  0  0  0  0  0  0  0  0
  1  2  1  0
  2  3  1  0
  3  4  1  0
  4  5  1  0
  5  6  1  0
  6  7  1  0
  7  8  1  0
  8  9  1  0
  9 10  1  0
 10 11  1  0
 11 12  1  0
 12 13  2  0
 12 14  1  0
  1 15  1  0
  1 16  1  0
  1 17  1  0
  2 18  1  0
  2 19  1  0
  3 20  1  0
  3 21  1  0
  4 22  1  0
  4 23  1  0
  5 24  1  0
  5 25  1  0
  6 26  1  0
  6 27  1  0
  7 28  1  0
  7 29  1  0
  8 30  1  0
  8 31  1  0
  9 32  1  0
  9 33  1  0
 10 34  1  0
 10 35  1  0
 11 36  1  0
 11 37  1  0
M  CHG  1  14  -1
M  END
>  <meeko>  (5) 
{"is_sidechain": [false], "free_energy": -5.655, "intermolecular_energy": -8.853, "internal_energy": -0.59}

$$$$
3ueu_ligand
     RDKit          3D

 37 36  0  0  0  0  0  0  0  0999 V2000
    0.1560    5.4740   19.0070 C   0  0  0  0  0  0  0  0  0  0  0  0
   -0.9360    6.4940   19.2900 C   0  0  0  0  0  0  0  0  0  0  0  0
   -1.5740    7.0010   17.9970 C   0  0  0  0  0  0  0  0  0  0  0  0
   -2.2430    8.3720   18.1420 C   0  0  0  0  0  0  0  0  0  0  0  0
   -2.0130    9.0170   19.5110 C   0  0  0  0  0  0  0  0  0  0  0  0
   -2.7370   10.3560   19.6830 C   0  0  0  0  0  0  0  0  0  0  0  0
   -1.8460   11.5760   19.9380 C   0  0  0  0  0  0  0  0  0  0  0  0
   -1.7090   12.4960   18.7220 C   0  0  0  0  0  0  0  0  0  0  0  0
   -2.9390   12.3970   17.8150 C   0  0  0  0  0  0  0  0  0  0  0  0
   -3.5750   13.7540   17.5010 C   0  0  0  0  0  0  0  0  0  0  0  0
   -2.6980   14.9410   17.8900 C   0  0  0  0  0  0  0  0  0  0  0  0
   -3.1390   16.2890   17.3100 C   0  0  0  0  0  0  0  0  0  0  0  0
   -3.8230   16.1960   16.2490 O   0  0  0  0  0  0  0  0  0  0  0  0
   -2.7760   17.3220   17.9360 O   0  0  0  0  0  0  0  0  0  0  0  0
    0.5603    5.0964   19.9577 H   0  0  0  0  0  0  0  0  0  0  0  0
   -0.2643    4.6376   18.4293 H   0  0  0  0  0  0  0  0  0  0  0  0
    0.9618    5.9503   18.4293 H   0  0  0  0  0  0  0  0  0  0  0  0
   -1.7122    6.0241   19.9118 H   0  0  0  0  0  0  0  0  0  0  0  0
   -0.4833    7.3502   19.8116 H   0  0  0  0  0  0  0  0  0  0  0  0
   -0.7908    7.0754   17.2282 H   0  0  0  0  0  0  0  0  0  0  0  0
   -2.3617    6.2841   17.7222 H   0  0  0  0  0  0  0  0  0  0  0  0
   -1.8384    9.0413   17.3685 H   0  0  0  0  0  0  0  0  0  0  0  0
   -3.3267    8.2186   18.0324 H   0  0  0  0  0  0  0  0  0  0  0  0
   -2.3715    8.3248   20.2871 H   0  0  0  0  0  0  0  0  0  0  0  0
   -0.9350    9.2177   19.5980 H   0  0  0  0  0  0  0  0  0  0  0  0
   -3.3135   10.5466   18.7657 H   0  0  0  0  0  0  0  0  0  0  0  0
   -3.3523   10.2451   20.5880 H   0  0  0  0  0  0  0  0  0  0  0  0
   -2.2784   12.1560   20.7666 H   0  0  0  0  0  0  0  0  0  0  0  0
   -0.8400   11.1988   20.1737 H   0  0  0  0  0  0  0  0  0  0  0  0
   -1.6000   13.5346   19.0676 H   0  0  0  0  0  0  0  0  0  0  0  0
   -0.8244   12.1855   18.1466 H   0  0  0  0  0  0  0  0  0  0  0  0
   -2.6366   11.9263   16.8679 H   0  0  0  0  0  0  0  0  0  0  0  0
   -3.6920   11.8027   18.3534 H   0  0  0  0  0  0  0  0  0  0  0  0
   -3.7708   13.8051   16.4198 H   0  0  0  0  0  0  0  0  0  0  0  0
   -4.4979   13.8245   18.0954 H   0  0  0  0  0  0  0  0  0  0  0  0
   -2.7023   15.0236   18.9869 H   0  0  0  0  0  0  0  0  0  0  0  0
   -1.7013   14.7373   17.4715 H   0  0  0  0  0  0  0  0  0  0  0  0
  1  2  1  0
  2  3  1  0
  3  4  1  0
  4  5  1  0
  5  6  1  0
  6  7  1  0
  7  8  1  0
  8  9  1  0
  9 10  1  0
 10 11  1  0
 11 12  1  0
 12 13  2  0
 12 14  1  0
  1 15  1  0
  1 16  1  0
  1 17  1  0
  2 18  1  0
  2 19  1  0
  3 20  1  0
  3 21  1  0
  4 22  1  0
  4 23  1  0
  5 24  1  0
  5 25  1  0
  6 26  1  0
  6 27  1  0
  7 28  1  0
  7 29  1  0
  8 30  1  0
  8 31  1  0
  9 32  1  0
  9 33  1  0
 10 34  1  0
 10 35  1  0
 11 36  1  0
 11 37  1  0
M  CHG  1  14  -1
M  END
>  <meeko>  (6) 
{"is_sidechain": [false], "free_energy": -5.464, "intermolecular_energy": -8.566, "internal_energy": -0.575}

$$$$
3ueu_ligand
     RDKit          3D

 37 36  0  0  0  0  0  0  0  0999 V2000
   -2.2220   16.2980   17.9200 C   0  0  0  0  0  0  0  0  0  0  0  0
   -2.0930   14.7830   17.9360 C   0  0  0  0  0  0  0  0  0  0  0  0
   -3.3810   14.1090   17.4630 C   0  0  0  0  0  0  0  0  0  0  0  0
   -3.4720   12.6280   17.8440 C   0  0  0  0  0  0  0  0  0  0  0  0
   -2.3440   12.1710   18.7720 C   0  0  0  0  0  0  0  0  0  0  0  0
   -1.4960   11.0360   18.1870 C   0  0  0  0  0  0  0  0  0  0  0  0
   -2.1940    9.6800   18.0430 C   0  0  0  0  0  0  0  0  0  0  0  0
   -2.9580    9.2500   19.2980 C   0  0  0  0  0  0  0  0  0  0  0  0
   -2.7850    7.7520   19.5630 C   0  0  0  0  0  0  0  0  0  0  0  0
   -1.5440    7.1550   18.8920 C   0  0  0  0  0  0  0  0  0  0  0  0
   -1.3600    5.6650   19.1720 C   0  0  0  0  0  0  0  0  0  0  0  0
    0.0920    5.2180   19.3700 C   0  0  0  0  0  0  0  0  0  0  0  0
    0.2650    4.4550   20.3650 O   0  0  0  0  0  0  0  0  0  0  0  0
    0.9380    5.6530   18.5420 O   0  0  0  0  0  0  0  0  0  0  0  0
   -2.2540   16.6742   18.9532 H   0  0  0  0  0  0  0  0  0  0  0  0
   -1.3577   16.7341   17.3976 H   0  0  0  0  0  0  0  0  0  0  0  0
   -3.1476   16.5817   17.3976 H   0  0  0  0  0  0  0  0  0  0  0  0
   -1.2687   14.4869   17.2705 H   0  0  0  0  0  0  0  0  0  0  0  0
   -1.8940   14.4632   18.9695 H   0  0  0  0  0  0  0  0  0  0  0  0
   -4.2352   14.6370   17.9119 H   0  0  0  0  0  0  0  0  0  0  0  0
   -3.3885   14.1612   16.3643 H   0  0  0  0  0  0  0  0  0  0  0  0
   -4.4327   12.4565   18.3516 H   0  0  0  0  0  0  0  0  0  0  0  0
   -3.3846   12.0466   16.9143 H   0  0  0  0  0  0  0  0  0  0  0  0
   -1.6867   13.0303   18.9711 H   0  0  0  0  0  0  0  0  0  0  0  0
   -2.8141   11.7856   19.6888 H   0  0  0  0  0  0  0  0  0  0  0  0
   -1.1591   11.3486   17.1876 H   0  0  0  0  0  0  0  0  0  0  0  0
   -0.6807   10.8741   18.9075 H   0  0  0  0  0  0  0  0  0  0  0  0
   -2.9055    9.7418   17.2064 H   0  0  0  0  0  0  0  0  0  0  0  0
   -1.4093    8.9291   17.8688 H   0  0  0  0  0  0  0  0  0  0  0  0
   -2.5762    9.8140   20.1618 H   0  0  0  0  0  0  0  0  0  0  0  0
   -4.0274    9.4560   19.1435 H   0  0  0  0  0  0  0  0  0  0  0  0
   -2.7028    7.5972   20.6489 H   0  0  0  0  0  0  0  0  0  0  0  0
   -3.6617    7.2432   19.1358 H   0  0  0  0  0  0  0  0  0  0  0  0
   -1.6332    7.2970   17.8049 H   0  0  0  0  0  0  0  0  0  0  0  0
   -0.6683    7.6741   19.3089 H   0  0  0  0  0  0  0  0  0  0  0  0
   -1.9208    5.4176   20.0854 H   0  0  0  0  0  0  0  0  0  0  0  0
   -1.7252    5.1369   18.2788 H   0  0  0  0  0  0  0  0  0  0  0  0
  1  2  1  0
  2  3  1  0
  3  4  1  0
  4  5  1  0
  5  6  1  0
  6  7  1  0
  7  8  1  0
  8  9  1  0
  9 10  1  0
 10 11  1  0
 11 12  1  0
 12 13  2  0
 12 14  1  0
  1 15  1  0
  1 16  1  0
  1 17  1  0
  2 18  1  0
  2 19  1  0
  3 20  1  0
  3 21  1  0
  4 22  1  0
  4 23  1  0
  5 24  1  0
  5 25  1  0
  6 26  1  0
  6 27  1  0
  7 28  1  0
  7 29  1  0
  8 30  1  0
  8 31  1  0
  9 32  1  0
  9 33  1  0
 10 34  1  0
 10 35  1  0
 11 36  1  0
 11 37  1  0
M  CHG  1  14  -1
M  END
>  <meeko>  (7) 
{"is_sidechain": [false], "free_energy": -5.326, "intermolecular_energy": -8.414, "internal_energy": -0.507}

$$$$
3ueu_ligand
     RDKit          3D

 37 36  0  0  0  0  0  0  0  0999 V2000
   -1.6280   15.3570   18.2890 C   0  0  0  0  0  0  0  0  0  0  0  0
   -2.9990   14.9360   17.7800 C   0  0  0  0  0  0  0  0  0  0  0  0
   -3.1880   13.4220   17.8750 C   0  0  0  0  0  0  0  0  0  0  0  0
   -1.9140   12.6710   18.2760 C   0  0  0  0  0  0  0  0  0  0  0  0
   -2.0060   12.0150   19.6560 C   0  0  0  0  0  0  0  0  0  0  0  0
   -1.8340   10.4920   19.6190 C   0  0  0  0  0  0  0  0  0  0  0  0
   -2.6530    9.7480   18.5600 C   0  0  0  0  0  0  0  0  0  0  0  0
   -1.7940    9.0870   17.4780 C   0  0  0  0  0  0  0  0  0  0  0  0
   -1.8660    7.5610   17.5730 C   0  0  0  0  0  0  0  0  0  0  0  0
   -3.2440    7.0410   17.9920 C   0  0  0  0  0  0  0  0  0  0  0  0
   -3.5410    5.6320   17.4880 C   0  0  0  0  0  0  0  0  0  0  0  0
   -4.9110    5.0750   17.8890 C   0  0  0  0  0  0  0  0  0  0  0  0
   -5.7870    5.1530   16.9780 O   0  0  0  0  0  0  0  0  0  0  0  0
   -5.0170    4.6160   19.0590 O   0  0  0  0  0  0  0  0  0  0  0  0
   -1.6293   15.3566   19.3890 H   0  0  0  0  0  0  0  0  0  0  0  0
   -0.8682   14.6508   17.9230 H   0  0  0  0  0  0  0  0  0  0  0  0
   -1.3955   16.3679   17.9230 H   0  0  0  0  0  0  0  0  0  0  0  0
   -3.7730   15.4320   18.3842 H   0  0  0  0  0  0  0  0  0  0  0  0
   -3.0813   15.2297   16.7231 H   0  0  0  0  0  0  0  0  0  0  0  0
   -3.9652   13.2145   18.6253 H   0  0  0  0  0  0  0  0  0  0  0  0
   -3.4705   13.0677   16.8727 H   0  0  0  0  0  0  0  0  0  0  0  0
   -1.7213   11.8869   17.5290 H   0  0  0  0  0  0  0  0  0  0  0  0
   -1.1007   13.4103   18.3206 H   0  0  0  0  0  0  0  0  0  0  0  0
   -1.2191   12.4393   20.2969 H   0  0  0  0  0  0  0  0  0  0  0  0
   -3.0143   12.2185   20.0457 H   0  0  0  0  0  0  0  0  0  0  0  0
   -0.7711   10.2780   19.4336 H   0  0  0  0  0  0  0  0  0  0  0  0
   -2.2046   10.1287   20.5889 H   0  0  0  0  0  0  0  0  0  0  0  0
   -3.2434    8.9670   19.0615 H   0  0  0  0  0  0  0  0  0  0  0  0
   -3.2882   10.4934   18.0590 H   0  0  0  0  0  0  0  0  0  0  0  0
   -2.1566    9.4029   16.4887 H   0  0  0  0  0  0  0  0  0  0  0  0
   -0.7488    9.3972   17.6239 H   0  0  0  0  0  0  0  0  0  0  0  0
   -1.6189    7.1385   16.5879 H   0  0  0  0  0  0  0  0  0  0  0  0
   -1.1522    7.2505   18.3502 H   0  0  0  0  0  0  0  0  0  0  0  0
   -3.2950    7.0358   19.0908 H   0  0  0  0  0  0  0  0  0  0  0  0
   -3.9929    7.7101   17.5431 H   0  0  0  0  0  0  0  0  0  0  0  0
   -3.4861    5.6441   16.3894 H   0  0  0  0  0  0  0  0  0  0  0  0
   -2.7934    4.9747   17.9561 H   0  0  0  0  0  0  0  0  0  0  0  0
  1  2  1  0
  2  3  1  0
  3  4  1  0
  4  5  1  0
  5  6  1  0
  6  7  1  0
  7  8  1  0
  8  9  1  0
  9 10  1  0
 10 11  1  0
 11 12  1  0
 12 13  2  0
 12 14  1  0
  1 15  1  0
  1 16  1  0
  1 17  1  0
  2 18  1  0
  2 19  1  0
  3 20  1  0
  3 21  1  0
  4 22  1  0
  4 23  1  0
  5 24  1  0
  5 25  1  0
  6 26  1  0
  6 27  1  0
  7 28  1  0
  7 29  1  0
  8 30  1  0
  8 31  1  0
  9 32  1  0
  9 33  1  0
 10 34  1  0
 10 35  1  0
 11 36  1  0
 11 37  1  0
M  CHG  1  14  -1
M  END
>  <meeko>  (8) 
{"is_sidechain": [false], "free_energy": -5.277, "intermolecular_energy": -8.377, "internal_energy": -0.466}

$$$$
3ueu_ligand
     RDKit          3D

 37 36  0  0  0  0  0  0  0  0999 V2000
   -3.0590   15.9650   17.5290 C   0  0  0  0  0  0  0  0  0  0  0  0
   -1.8370   15.4790   18.2940 C   0  0  0  0  0  0  0  0  0  0  0  0
   -1.7520   13.9530   18.2970 C   0  0  0  0  0  0  0  0  0  0  0  0
   -3.0600   13.2670   17.8910 C   0  0  0  0  0  0  0  0  0  0  0  0
   -3.2330   11.8770   18.5110 C   0  0  0  0  0  0  0  0  0  0  0  0
   -2.2500   10.8380   17.9610 C   0  0  0  0  0  0  0  0  0  0  0  0
   -2.0710    9.5700   18.8010 C   0  0  0  0  0  0  0  0  0  0  0  0
   -3.1740    9.3690   19.8440 C   0  0  0  0  0  0  0  0  0  0  0  0
   -3.1770    7.9310   20.3720 C   0  0  0  0  0  0  0  0  0  0  0  0
   -2.0030    7.0920   19.8600 C   0  0  0  0  0  0  0  0  0  0  0  0
   -2.4350    5.8160   19.1420 C   0  0  0  0  0  0  0  0  0  0  0  0
   -3.0830    6.0310   17.7710 C   0  0  0  0  0  0  0  0  0  0  0  0
   -2.2700    6.3770   16.8650 O   0  0  0  0  0  0  0  0  0  0  0  0
   -4.3300    5.8500   17.6970 O   0  0  0  0  0  0  0  0  0  0  0  0
   -3.8381   16.2748   18.2411 H   0  0  0  0  0  0  0  0  0  0  0  0
   -2.7793   16.8203   16.8964 H   0  0  0  0  0  0  0  0  0  0  0  0
   -3.4431   15.1512   16.8964 H   0  0  0  0  0  0  0  0  0  0  0  0
   -0.9322   15.8870   17.8198 H   0  0  0  0  0  0  0  0  0  0  0  0
   -1.9208   15.8233   19.3354 H   0  0  0  0  0  0  0  0  0  0  0  0
   -0.9650   13.6468   17.5921 H   0  0  0  0  0  0  0  0  0  0  0  0
   -1.5313   13.6434   19.3292 H   0  0  0  0  0  0  0  0  0  0  0  0
   -3.9005   13.8997   18.2124 H   0  0  0  0  0  0  0  0  0  0  0  0
   -3.0338   13.1358   16.7992 H   0  0  0  0  0  0  0  0  0  0  0  0
   -3.0821   11.9587   19.5975 H   0  0  0  0  0  0  0  0  0  0  0  0
   -4.2460   11.5319   18.2564 H   0  0  0  0  0  0  0  0  0  0  0  0
   -2.6043   10.5342   16.9649 H   0  0  0  0  0  0  0  0  0  0  0  0
   -1.2674   11.3325   17.9588 H   0  0  0  0  0  0  0  0  0  0  0  0
   -2.0681    8.7020   18.1253 H   0  0  0  0  0  0  0  0  0  0  0  0
   -1.1226    9.6750   19.3483 H   0  0  0  0  0  0  0  0  0  0  0  0
   -3.0052   10.0597   20.6833 H   0  0  0  0  0  0  0  0  0  0  0  0
   -4.1456    9.5691   19.3686 H   0  0  0  0  0  0  0  0  0  0  0  0
   -3.1296    7.9630   21.4705 H   0  0  0  0  0  0  0  0  0  0  0  0
   -4.0993    7.4540   20.0089 H   0  0  0  0  0  0  0  0  0  0  0  0
   -1.4166    7.7045   19.1593 H   0  0  0  0  0  0  0  0  0  0  0  0
   -1.4158    6.7864   20.7385 H   0  0  0  0  0  0  0  0  0  0  0  0
   -1.5449    5.1848   19.0032 H   0  0  0  0  0  0  0  0  0  0  0  0
   -3.2052    5.3528   19.7762 H   0  0  0  0  0  0  0  0  0  0  0  0
  1  2  1  0
  2  3  1  0
  3  4  1  0
  4  5  1  0
  5  6  1  0
  6  7  1  0
  7  8  1  0
  8  9  1  0
  9 10  1  0
 10 11  1  0
 11 12  1  0
 12 13  2  0
 12 14  1  0
  1 15  1  0
  1 16  1  0
  1 17  1  0
  2 18  1  0
  2 19  1  0
  3 20  1  0
  3 21  1  0
  4 22  1  0
  4 23  1  0
  5 24  1  0
  5 25  1  0
  6 26  1  0
  6 27  1  0
  7 28  1  0
  7 29  1  0
  8 30  1  0
  8 31  1  0
  9 32  1  0
  9 33  1  0
 10 34  1  0
 10 35  1  0
 11 36  1  0
 11 37  1  0
M  CHG  1  14  -1
M  END
>  <meeko>  (9) 
{"is_sidechain": [false], "free_energy": -5.232, "intermolecular_energy": -8.137, "internal_energy": -0.637}

$$$$
