5c2h_ligand
     RDKit          3D

 55 58  0  0  0  0  0  0  0  0999 V2000
   11.7770   42.4380   56.2480 C   0  0  0  0  0  0  0  0  0  0  0  0
   10.9790   42.1350   57.4660 C   0  0  0  0  0  0  0  0  0  0  0  0
    9.7860   42.6280   57.7150 N   0  0  0  0  0  0  0  0  0  0  0  0
    9.3170   42.1530   58.9310 C   0  0  0  0  0  0  0  0  0  0  0  0
    7.9720   42.5870   59.3910 C   0  0  0  0  0  0  0  0  0  0  0  0
   10.1820   41.2970   59.5930 C   0  0  0  0  0  0  0  0  0  0  0  0
   10.0000   40.6050   60.9110 C   0  0  0  0  0  0  0  0  0  0  0  0
   10.2070   39.1600   60.8080 N   0  0  0  0  0  0  0  0  0  0  0  0
    9.0320   38.3940   60.7070 C   0  0  0  0  0  0  0  0  0  0  0  0
    8.3830   38.3630   59.5330 N   0  0  0  0  0  0  0  0  0  0  0  0
    7.2690   37.6290   59.4470 C   0  0  0  0  0  0  0  0  0  0  0  0
    6.6290   37.7020   58.2330 O   0  0  0  0  0  0  0  0  0  0  0  0
    5.5530   36.7840   58.0500 C   0  0  0  0  0  0  0  0  0  0  0  0
    5.1910   36.6520   56.5720 C   0  0  0  0  0  0  0  0  0  0  0  0
    4.8330   35.2210   56.1710 C   0  0  0  0  0  0  0  0  0  0  0  0
    3.6240   35.1940   55.2690 C   0  0  0  0  0  0  0  0  0  0  0  0
    3.7050   34.6440   53.9960 C   0  0  0  0  0  0  0  0  0  0  0  0
    2.5710   34.6560   53.1930 C   0  0  0  0  0  0  0  0  0  0  0  0
    1.3830   35.2180   53.6730 C   0  0  0  0  0  0  0  0  0  0  0  0
    0.2110   35.2530   52.8970 C   0  0  0  0  0  0  0  0  0  0  0  0
   -0.9540   35.8220   53.4060 C   0  0  0  0  0  0  0  0  0  0  0  0
   -0.9530   36.3560   54.6900 C   0  0  0  0  0  0  0  0  0  0  0  0
    0.2150   36.3190   55.4580 C   0  0  0  0  0  0  0  0  0  0  0  0
    1.3900   35.7590   54.9750 C   0  0  0  0  0  0  0  0  0  0  0  0
    2.4870   35.7480   55.7550 N   0  0  0  0  0  0  0  0  0  0  0  0
    6.7320   36.9290   60.4420 N   0  0  0  0  0  0  0  0  0  0  0  0
    7.4190   36.9670   61.5910 C   0  0  0  0  0  0  0  0  0  0  0  0
    6.6480   36.0500   62.8320 Cl  0  0  0  0  0  0  0  0  0  0  0  0
    8.5980   37.6590   61.8010 C   0  0  0  0  0  0  0  0  0  0  0  0
    9.3080   37.6520   63.1190 C   0  0  0  0  0  0  0  0  0  0  0  0
   11.6040   41.0730   58.6610 S   0  0  0  0  0  0  0  0  0  0  0  0
   12.7677   42.8142   56.5429 H   0  0  0  0  0  0  0  0  0  0  0  0
   11.8956   41.5223   55.6501 H   0  0  0  0  0  0  0  0  0  0  0  0
   11.2579   43.2016   55.6501 H   0  0  0  0  0  0  0  0  0  0  0  0
    7.9457   42.5955   60.4907 H   0  0  0  0  0  0  0  0  0  0  0  0
    7.7633   43.5981   59.0114 H   0  0  0  0  0  0  0  0  0  0  0  0
    7.2116   41.8886   59.0114 H   0  0  0  0  0  0  0  0  0  0  0  0
   10.7234   41.0164   61.6304 H   0  0  0  0  0  0  0  0  0  0  0  0
    8.9653   40.7759   61.2429 H   0  0  0  0  0  0  0  0  0  0  0  0
   10.7710   38.8270   61.5850 H   0  0  0  0  0  0  0  0  0  0  0  0
    5.8515   35.7984   58.4366 H   0  0  0  0  0  0  0  0  0  0  0  0
    4.6743   37.1614   58.5935 H   0  0  0  0  0  0  0  0  0  0  0  0
    4.3278   37.3011   56.3630 H   0  0  0  0  0  0  0  0  0  0  0  0
    6.0760   36.9459   55.9886 H   0  0  0  0  0  0  0  0  0  0  0  0
    5.6863   34.7727   55.6410 H   0  0  0  0  0  0  0  0  0  0  0  0
    4.6004   34.6514   57.0828 H   0  0  0  0  0  0  0  0  0  0  0  0
    4.6469   34.2082   53.6313 H   0  0  0  0  0  0  0  0  0  0  0  0
    2.6072   34.2245   52.1818 H   0  0  0  0  0  0  0  0  0  0  0  0
    0.2142   34.8286   51.8822 H   0  0  0  0  0  0  0  0  0  0  0  0
   -1.8691   35.8488   52.7961 H   0  0  0  0  0  0  0  0  0  0  0  0
   -1.8688   36.8064   55.1005 H   0  0  0  0  0  0  0  0  0  0  0  0
    0.2025   36.7450   56.4721 H   0  0  0  0  0  0  0  0  0  0  0  0
    8.5689   37.6593   63.9337 H   0  0  0  0  0  0  0  0  0  0  0  0
    9.9295   36.7477   63.1959 H   0  0  0  0  0  0  0  0  0  0  0  0
    9.9472   38.5439   63.1959 H   0  0  0  0  0  0  0  0  0  0  0  0
  1  2  1  0
  2  3  2  0
  3  4  1  0
  4  5  1  0
  4  6  2  0
  6  7  1  0
  7  8  1  0
  8  9  1  0
  9 10  2  0
 10 11  1  0
 11 12  1  0
 12 13  1  0
 13 14  1  0
 14 15  1  0
 15 16  1  0
 16 17  2  0
 17 18  1  0
 18 19  2  0
 19 20  1  0
 20 21  2  0
 21 22  1  0
 22 23  2  0
 23 24  1  0
 24 25  2  0
 11 26  2  0
 26 27  1  0
 27 28  1  0
 27 29  2  0
 29 30  1  0
  6 31  1  0
 31  2  1  0
 29  9  1  0
 25 16  1  0
 24 19  1  0
  1 32  1  0
  1 33  1  0
  1 34  1  0
  5 35  1  0
  5 36  1  0
  5 37  1  0
  7 38  1  0
  7 39  1  0
  8 40  1  0
 13 41  1  0
 13 42  1  0
 14 43  1  0
 14 44  1  0
 15 45  1  0
 15 46  1  0
 17 47  1  0
 18 48  1  0
 20 49  1  0
 21 50  1  0
 22 51  1  0
 23 52  1  0
 30 53  1  0
 30 54  1  0
 30 55  1  0
M  END
>  <meeko>  (1) 
{"is_sidechain": [false], "free_energy": -10.155, "intermolecular_energy": -14.905, "internal_energy": -0.758}

$$$$
5c2h_ligand
     RDKit          3D

 55 58  0  0  0  0  0  0  0  0999 V2000
   12.8140   43.3500   57.0020 C   0  0  0  0  0  0  0  0  0  0  0  0
   12.0860   42.5350   58.0100 C   0  0  0  0  0  0  0  0  0  0  0  0
   12.5820   42.1740   59.1730 N   0  0  0  0  0  0  0  0  0  0  0  0
   11.6540   41.4190   59.8750 C   0  0  0  0  0  0  0  0  0  0  0  0
   12.0210   40.9220   61.2270 C   0  0  0  0  0  0  0  0  0  0  0  0
   10.4530   41.2160   59.2160 C   0  0  0  0  0  0  0  0  0  0  0  0
    9.2410   40.4600   59.6740 C   0  0  0  0  0  0  0  0  0  0  0  0
    9.4400   39.0110   59.6140 N   0  0  0  0  0  0  0  0  0  0  0  0
    8.3280   38.2390   59.9930 C   0  0  0  0  0  0  0  0  0  0  0  0
    7.3540   38.0300   59.0940 N   0  0  0  0  0  0  0  0  0  0  0  0
    6.3030   37.2910   59.4640 C   0  0  0  0  0  0  0  0  0  0  0  0
    5.3200   37.1770   58.5090 O   0  0  0  0  0  0  0  0  0  0  0  0
    5.3240   35.9620   57.7650 C   0  0  0  0  0  0  0  0  0  0  0  0
    5.0460   36.2250   56.2860 C   0  0  0  0  0  0  0  0  0  0  0  0
    4.7570   34.9470   55.4970 C   0  0  0  0  0  0  0  0  0  0  0  0
    3.4290   35.0340   54.7870 C   0  0  0  0  0  0  0  0  0  0  0  0
    3.2770   34.5150   53.5070 C   0  0  0  0  0  0  0  0  0  0  0  0
    2.0400   34.6330   52.8840 C   0  0  0  0  0  0  0  0  0  0  0  0
    0.9840   35.2670   53.5470 C   0  0  0  0  0  0  0  0  0  0  0  0
   -0.2840   35.4100   52.9560 C   0  0  0  0  0  0  0  0  0  0  0  0
   -1.3140   36.0480   53.6440 C   0  0  0  0  0  0  0  0  0  0  0  0
   -1.0810   36.5450   54.9220 C   0  0  0  0  0  0  0  0  0  0  0  0
    0.1820   36.4010   55.5050 C   0  0  0  0  0  0  0  0  0  0  0  0
    1.2250   35.7690   54.8420 C   0  0  0  0  0  0  0  0  0  0  0  0
    2.4220   35.6570   55.4470 N   0  0  0  0  0  0  0  0  0  0  0  0
    6.1280   36.7510   60.6660 N   0  0  0  0  0  0  0  0  0  0  0  0
    7.1310   36.9640   61.5290 C   0  0  0  0  0  0  0  0  0  0  0  0
    6.8190   36.2460   63.0660 Cl  0  0  0  0  0  0  0  0  0  0  0  0
    8.2830   37.6800   61.2620 C   0  0  0  0  0  0  0  0  0  0  0  0
    9.3610   37.8730   62.2830 C   0  0  0  0  0  0  0  0  0  0  0  0
   10.4860   42.0030   57.6920 S   0  0  0  0  0  0  0  0  0  0  0  0
   13.4620   44.0754   57.5157 H   0  0  0  0  0  0  0  0  0  0  0  0
   13.4292   42.6905   56.3722 H   0  0  0  0  0  0  0  0  0  0  0  0
   12.0895   43.8871   56.3722 H   0  0  0  0  0  0  0  0  0  0  0  0
   11.5512   41.5582   61.9915 H   0  0  0  0  0  0  0  0  0  0  0  0
   11.6692   39.8865   61.3450 H   0  0  0  0  0  0  0  0  0  0  0  0
   13.1142   40.9535   61.3450 H   0  0  0  0  0  0  0  0  0  0  0  0
    9.0172   40.7445   60.7127 H   0  0  0  0  0  0  0  0  0  0  0  0
    8.4086   40.7155   59.0018 H   0  0  0  0  0  0  0  0  0  0  0  0
   10.2510   38.7430   60.1650 H   0  0  0  0  0  0  0  0  0  0  0  0
    6.3083   35.4815   57.8661 H   0  0  0  0  0  0  0  0  0  0  0  0
    4.5331   35.3069   58.1592 H   0  0  0  0  0  0  0  0  0  0  0  0
    4.1744   36.8913   56.2060 H   0  0  0  0  0  0  0  0  0  0  0  0
    5.9507   36.6800   55.8565 H   0  0  0  0  0  0  0  0  0  0  0  0
    5.5529   34.7969   54.7527 H   0  0  0  0  0  0  0  0  0  0  0  0
    4.7212   34.1029   56.2014 H   0  0  0  0  0  0  0  0  0  0  0  0
    4.1177   34.0213   52.9976 H   0  0  0  0  0  0  0  0  0  0  0  0
    1.8918   34.2287   51.8718 H   0  0  0  0  0  0  0  0  0  0  0  0
   -0.4637   35.0159   51.9448 H   0  0  0  0  0  0  0  0  0  0  0  0
   -2.3050   36.1579   53.1795 H   0  0  0  0  0  0  0  0  0  0  0  0
   -1.8882   37.0501   55.4728 H   0  0  0  0  0  0  0  0  0  0  0  0
    0.3535   36.7992   56.5160 H   0  0  0  0  0  0  0  0  0  0  0  0
    8.9289   37.7956   63.2916 H   0  0  0  0  0  0  0  0  0  0  0  0
   10.1313   37.0985   62.1538 H   0  0  0  0  0  0  0  0  0  0  0  0
    9.8148   38.8667   62.1538 H   0  0  0  0  0  0  0  0  0  0  0  0
  1  2  1  0
  2  3  2  0
  3  4  1  0
  4  5  1  0
  4  6  2  0
  6  7  1  0
  7  8  1  0
  8  9  1  0
  9 10  2  0
 10 11  1  0
 11 12  1  0
 12 13  1  0
 13 14  1  0
 14 15  1  0
 15 16  1  0
 16 17  2  0
 17 18  1  0
 18 19  2  0
 19 20  1  0
 20 21  2  0
 21 22  1  0
 22 23  2  0
 23 24  1  0
 24 25  2  0
 11 26  2  0
 26 27  1  0
 27 28  1  0
 27 29  2  0
 29 30  1  0
  6 31  1  0
 31  2  1  0
 29  9  1  0
 25 16  1  0
 24 19  1  0
  1 32  1  0
  1 33  1  0
  1 34  1  0
  5 35  1  0
  5 36  1  0
  5 37  1  0
  7 38  1  0
  7 39  1  0
  8 40  1  0
 13 41  1  0
 13 42  1  0
 14 43  1  0
 14 44  1  0
 15 45  1  0
 15 46  1  0
 17 47  1  0
 18 48  1  0
 20 49  1  0
 21 50  1  0
 22 51  1  0
 23 52  1  0
 30 53  1  0
 30 54  1  0
 30 55  1  0
M  END
>  <meeko>  (2) 
{"is_sidechain": [false], "free_energy": -10.068, "intermolecular_energy": -14.779, "internal_energy": -0.757}

$$$$
5c2h_ligand
     RDKit          3D

 55 58  0  0  0  0  0  0  0  0999 V2000
    8.6050   31.8840   54.4260 C   0  0  0  0  0  0  0  0  0  0  0  0
    7.2550   32.0280   53.8210 C   0  0  0  0  0  0  0  0  0  0  0  0
    6.2160   31.2870   54.1370 N   0  0  0  0  0  0  0  0  0  0  0  0
    5.1100   31.6700   53.3940 C   0  0  0  0  0  0  0  0  0  0  0  0
    3.8240   30.9570   53.6130 C   0  0  0  0  0  0  0  0  0  0  0  0
    5.3380   32.7110   52.5090 C   0  0  0  0  0  0  0  0  0  0  0  0
    4.3810   33.3730   51.5620 C   0  0  0  0  0  0  0  0  0  0  0  0
    4.1690   34.7830   51.8890 N   0  0  0  0  0  0  0  0  0  0  0  0
    3.5100   35.0210   53.1090 C   0  0  0  0  0  0  0  0  0  0  0  0
    4.2460   35.1420   54.2250 N   0  0  0  0  0  0  0  0  0  0  0  0
    3.6090   35.3720   55.3770 C   0  0  0  0  0  0  0  0  0  0  0  0
    4.4260   35.4180   56.4820 O   0  0  0  0  0  0  0  0  0  0  0  0
    5.8150   35.5930   56.2120 C   0  0  0  0  0  0  0  0  0  0  0  0
    6.3520   36.8500   56.8940 C   0  0  0  0  0  0  0  0  0  0  0  0
    5.9510   36.9470   58.3660 C   0  0  0  0  0  0  0  0  0  0  0  0
    7.0610   37.5440   59.1950 C   0  0  0  0  0  0  0  0  0  0  0  0
    7.9270   38.4800   58.6450 C   0  0  0  0  0  0  0  0  0  0  0  0
    8.9460   38.9910   59.4400 C   0  0  0  0  0  0  0  0  0  0  0  0
    9.0820   38.5560   60.7630 C   0  0  0  0  0  0  0  0  0  0  0  0
   10.0980   39.0440   61.6040 C   0  0  0  0  0  0  0  0  0  0  0  0
   10.2050   38.5880   62.9160 C   0  0  0  0  0  0  0  0  0  0  0  0
    9.3010   37.6440   63.3910 C   0  0  0  0  0  0  0  0  0  0  0  0
    8.2930   37.1620   62.5500 C   0  0  0  0  0  0  0  0  0  0  0  0
    8.1630   37.5990   61.2400 C   0  0  0  0  0  0  0  0  0  0  0  0
    7.1760   37.1030   60.4720 N   0  0  0  0  0  0  0  0  0  0  0  0
    2.2910   35.4770   55.5200 N   0  0  0  0  0  0  0  0  0  0  0  0
    1.5930   35.3710   54.3810 C   0  0  0  0  0  0  0  0  0  0  0  0
   -0.1050   35.5010   54.6550 Cl  0  0  0  0  0  0  0  0  0  0  0  0
    2.1300   35.1670   53.1240 C   0  0  0  0  0  0  0  0  0  0  0  0
    1.2800   35.0610   51.8970 C   0  0  0  0  0  0  0  0  0  0  0  0
    6.9690   33.2270   52.6270 S   0  0  0  0  0  0  0  0  0  0  0  0
    8.5183   31.8933   55.5225 H   0  0  0  0  0  0  0  0  0  0  0  0
    9.0526   30.9330   54.1016 H   0  0  0  0  0  0  0  0  0  0  0  0
    9.2432   32.7192   54.1016 H   0  0  0  0  0  0  0  0  0  0  0  0
    3.6404   30.8552   54.6928 H   0  0  0  0  0  0  0  0  0  0  0  0
    3.0045   31.5296   53.1541 H   0  0  0  0  0  0  0  0  0  0  0  0
    3.8755   29.9586   53.1541 H   0  0  0  0  0  0  0  0  0  0  0  0
    4.7861   33.3027   50.5417 H   0  0  0  0  0  0  0  0  0  0  0  0
    3.4128   32.8573   51.6438 H   0  0  0  0  0  0  0  0  0  0  0  0
    3.6770   35.2510   51.1340 H   0  0  0  0  0  0  0  0  0  0  0  0
    6.3669   34.7177   56.5853 H   0  0  0  0  0  0  0  0  0  0  0  0
    5.9497   35.6995   55.1255 H   0  0  0  0  0  0  0  0  0  0  0  0
    7.4501   36.8422   56.8294 H   0  0  0  0  0  0  0  0  0  0  0  0
    5.9170   37.7174   56.3760 H   0  0  0  0  0  0  0  0  0  0  0  0
    5.0567   37.5815   58.4533 H   0  0  0  0  0  0  0  0  0  0  0  0
    5.7445   35.9328   58.7386 H   0  0  0  0  0  0  0  0  0  0  0  0
    7.8089   38.8099   57.6023 H   0  0  0  0  0  0  0  0  0  0  0  0
    9.6441   39.7358   59.0301 H   0  0  0  0  0  0  0  0  0  0  0  0
   10.8119   39.7896   61.2239 H   0  0  0  0  0  0  0  0  0  0  0  0
   10.9997   38.9723   63.5723 H   0  0  0  0  0  0  0  0  0  0  0  0
    9.3786   37.2775   64.4252 H   0  0  0  0  0  0  0  0  0  0  0  0
    7.5839   36.4159   62.9380 H   0  0  0  0  0  0  0  0  0  0  0  0
    0.2279   34.9298   52.1900 H   0  0  0  0  0  0  0  0  0  0  0  0
    1.3825   35.9789   51.2995 H   0  0  0  0  0  0  0  0  0  0  0  0
    1.6048   34.1964   51.2995 H   0  0  0  0  0  0  0  0  0  0  0  0
  1  2  1  0
  2  3  2  0
  3  4  1  0
  4  5  1  0
  4  6  2  0
  6  7  1  0
  7  8  1  0
  8  9  1  0
  9 10  2  0
 10 11  1  0
 11 12  1  0
 12 13  1  0
 13 14  1  0
 14 15  1  0
 15 16  1  0
 16 17  2  0
 17 18  1  0
 18 19  2  0
 19 20  1  0
 20 21  2  0
 21 22  1  0
 22 23  2  0
 23 24  1  0
 24 25  2  0
 11 26  2  0
 26 27  1  0
 27 28  1  0
 27 29  2  0
 29 30  1  0
  6 31  1  0
 31  2  1  0
 29  9  1  0
 25 16  1  0
 24 19  1  0
  1 32  1  0
  1 33  1  0
  1 34  1  0
  5 35  1  0
  5 36  1  0
  5 37  1  0
  7 38  1  0
  7 39  1  0
  8 40  1  0
 13 41  1  0
 13 42  1  0
 14 43  1  0
 14 44  1  0
 15 45  1  0
 15 46  1  0
 17 47  1  0
 18 48  1  0
 20 49  1  0
 21 50  1  0
 22 51  1  0
 23 52  1  0
 30 53  1  0
 30 54  1  0
 30 55  1  0
M  END
>  <meeko>  (3) 
{"is_sidechain": [false], "free_energy": -9.343, "intermolecular_energy": -13.72, "internal_energy": -0.751}

$$$$
5c2h_ligand
     RDKit          3D

 55 58  0  0  0  0  0  0  0  0999 V2000
   13.6740   46.3670   54.8580 C   0  0  0  0  0  0  0  0  0  0  0  0
   13.1070   45.1840   54.1580 C   0  0  0  0  0  0  0  0  0  0  0  0
   13.5980   44.6670   53.0540 N   0  0  0  0  0  0  0  0  0  0  0  0
   12.8400   43.5760   52.6570 C   0  0  0  0  0  0  0  0  0  0  0  0
   13.2410   42.8400   51.4290 C   0  0  0  0  0  0  0  0  0  0  0  0
   11.7660   43.2840   53.4820 C   0  0  0  0  0  0  0  0  0  0  0  0
   10.7500   42.1880   53.3580 C   0  0  0  0  0  0  0  0  0  0  0  0
   11.3280   40.8690   53.6150 N   0  0  0  0  0  0  0  0  0  0  0  0
   11.2620   40.4380   54.9520 C   0  0  0  0  0  0  0  0  0  0  0  0
   12.2220   40.8330   55.8040 N   0  0  0  0  0  0  0  0  0  0  0  0
   12.1460   40.4200   57.0730 C   0  0  0  0  0  0  0  0  0  0  0  0
   13.1990   40.8130   57.8650 O   0  0  0  0  0  0  0  0  0  0  0  0
   13.0230   40.6120   59.2650 C   0  0  0  0  0  0  0  0  0  0  0  0
   12.7730   41.9370   59.9820 C   0  0  0  0  0  0  0  0  0  0  0  0
   11.9760   41.7740   61.2760 C   0  0  0  0  0  0  0  0  0  0  0  0
   10.7650   40.9000   61.0630 C   0  0  0  0  0  0  0  0  0  0  0  0
    9.7740   41.2740   60.1640 C   0  0  0  0  0  0  0  0  0  0  0  0
    8.6670   40.4460   60.0120 C   0  0  0  0  0  0  0  0  0  0  0  0
    8.5710   39.2680   60.7600 C   0  0  0  0  0  0  0  0  0  0  0  0
    7.4710   38.4000   60.6400 C   0  0  0  0  0  0  0  0  0  0  0  0
    7.4060   37.2350   61.4010 C   0  0  0  0  0  0  0  0  0  0  0  0
    8.4380   36.9330   62.2830 C   0  0  0  0  0  0  0  0  0  0  0  0
    9.5300   37.8000   62.3990 C   0  0  0  0  0  0  0  0  0  0  0  0
    9.6200   38.9660   61.6530 C   0  0  0  0  0  0  0  0  0  0  0  0
   10.6920   39.7660   61.8020 N   0  0  0  0  0  0  0  0  0  0  0  0
   11.2000   39.6300   57.5690 N   0  0  0  0  0  0  0  0  0  0  0  0
   10.2480   39.2740   56.6950 C   0  0  0  0  0  0  0  0  0  0  0  0
    9.0710   38.2380   57.4120 Cl  0  0  0  0  0  0  0  0  0  0  0  0
   10.1920   39.6580   55.3680 C   0  0  0  0  0  0  0  0  0  0  0  0
    9.0930   39.2170   54.4520 C   0  0  0  0  0  0  0  0  0  0  0  0
   11.7190   44.3940   54.7890 S   0  0  0  0  0  0  0  0  0  0  0  0
   13.6028   46.2184   55.9456 H   0  0  0  0  0  0  0  0  0  0  0  0
   14.7292   46.4907   54.5731 H   0  0  0  0  0  0  0  0  0  0  0  0
   13.1094   47.2670   54.5731 H   0  0  0  0  0  0  0  0  0  0  0  0
   13.7497   41.9063   51.7108 H   0  0  0  0  0  0  0  0  0  0  0  0
   12.3463   42.6049   50.8338 H   0  0  0  0  0  0  0  0  0  0  0  0
   13.9237   43.4643   50.8338 H   0  0  0  0  0  0  0  0  0  0  0  0
    9.9431   42.3689   54.0833 H   0  0  0  0  0  0  0  0  0  0  0  0
   10.3688   42.1952   52.3262 H   0  0  0  0  0  0  0  0  0  0  0  0
   12.2900   40.8340   53.2880 H   0  0  0  0  0  0  0  0  0  0  0  0
   12.1617   39.9473   59.4273 H   0  0  0  0  0  0  0  0  0  0  0  0
   13.9403   40.1614   59.6720 H   0  0  0  0  0  0  0  0  0  0  0  0
   13.7441   42.3937   60.2235 H   0  0  0  0  0  0  0  0  0  0  0  0
   12.1786   42.5699   59.3066 H   0  0  0  0  0  0  0  0  0  0  0  0
   12.6209   41.3141   62.0393 H   0  0  0  0  0  0  0  0  0  0  0  0
   11.6359   42.7674   61.6037 H   0  0  0  0  0  0  0  0  0  0  0  0
    9.8630   42.2050   59.5849 H   0  0  0  0  0  0  0  0  0  0  0  0
    7.8688   40.7169   59.3052 H   0  0  0  0  0  0  0  0  0  0  0  0
    6.6570   38.6425   59.9410 H   0  0  0  0  0  0  0  0  0  0  0  0
    6.5441   36.5584   61.3049 H   0  0  0  0  0  0  0  0  0  0  0  0
    8.3959   36.0151   62.8877 H   0  0  0  0  0  0  0  0  0  0  0  0
   10.3392   37.5502   63.1009 H   0  0  0  0  0  0  0  0  0  0  0  0
    8.2349   38.8727   55.0480 H   0  0  0  0  0  0  0  0  0  0  0  0
    8.7838   40.0607   53.8175 H   0  0  0  0  0  0  0  0  0  0  0  0
    9.4528   38.3936   53.8175 H   0  0  0  0  0  0  0  0  0  0  0  0
  1  2  1  0
  2  3  2  0
  3  4  1  0
  4  5  1  0
  4  6  2  0
  6  7  1  0
  7  8  1  0
  8  9  1  0
  9 10  2  0
 10 11  1  0
 11 12  1  0
 12 13  1  0
 13 14  1  0
 14 15  1  0
 15 16  1  0
 16 17  2  0
 17 18  1  0
 18 19  2  0
 19 20  1  0
 20 21  2  0
 21 22  1  0
 22 23  2  0
 23 24  1  0
 24 25  2  0
 11 26  2  0
 26 27  1  0
 27 28  1  0
 27 29  2  0
 29 30  1  0
  6 31  1  0
 31  2  1  0
 29  9  1  0
 25 16  1  0
 24 19  1  0
  1 32  1  0
  1 33  1  0
  1 34  1  0
  5 35  1  0
  5 36  1  0
  5 37  1  0
  7 38  1  0
  7 39  1  0
  8 40  1  0
 13 41  1  0
 13 42  1  0
 14 43  1  0
 14 44  1  0
 15 45  1  0
 15 46  1  0
 17 47  1  0
 18 48  1  0
 20 49  1  0
 21 50  1  0
 22 51  1  0
 23 52  1  0
 30 53  1  0
 30 54  1  0
 30 55  1  0
M  END
>  <meeko>  (4) 
{"is_sidechain": [false], "free_energy": -9.093, "intermolecular_energy": -12.786, "internal_energy": -1.318}

$$$$
5c2h_ligand
     RDKit          3D

 55 58  0  0  0  0  0  0  0  0999 V2000
   14.5050   43.3620   47.5870 C   0  0  0  0  0  0  0  0  0  0  0  0
   14.0560   42.9860   48.9530 C   0  0  0  0  0  0  0  0  0  0  0  0
   12.8240   43.1170   49.3940 N   0  0  0  0  0  0  0  0  0  0  0  0
   12.7360   42.6800   50.7070 C   0  0  0  0  0  0  0  0  0  0  0  0
   11.4160   42.7350   51.3870 C   0  0  0  0  0  0  0  0  0  0  0  0
   13.9260   42.2210   51.2470 C   0  0  0  0  0  0  0  0  0  0  0  0
   14.1940   41.6790   52.6200 C   0  0  0  0  0  0  0  0  0  0  0  0
   14.9400   42.6260   53.4500 N   0  0  0  0  0  0  0  0  0  0  0  0
   14.3900   42.8690   54.7210 C   0  0  0  0  0  0  0  0  0  0  0  0
   14.7120   42.0440   55.7300 N   0  0  0  0  0  0  0  0  0  0  0  0
   14.1860   42.2880   56.9340 C   0  0  0  0  0  0  0  0  0  0  0  0
   14.5120   41.3620   57.8980 O   0  0  0  0  0  0  0  0  0  0  0  0
   13.5580   41.2030   58.9440 C   0  0  0  0  0  0  0  0  0  0  0  0
   12.5680   40.0870   58.6180 C   0  0  0  0  0  0  0  0  0  0  0  0
   11.1280   40.5860   58.4880 C   0  0  0  0  0  0  0  0  0  0  0  0
   10.1790   39.7190   59.2770 C   0  0  0  0  0  0  0  0  0  0  0  0
   10.3510   39.5470   60.6450 C   0  0  0  0  0  0  0  0  0  0  0  0
    9.4620   38.7260   61.3290 C   0  0  0  0  0  0  0  0  0  0  0  0
    8.4250   38.0920   60.6360 C   0  0  0  0  0  0  0  0  0  0  0  0
    7.5020   37.2530   61.2860 C   0  0  0  0  0  0  0  0  0  0  0  0
    6.4820   36.6370   60.5640 C   0  0  0  0  0  0  0  0  0  0  0  0
    6.3790   36.8570   59.1950 C   0  0  0  0  0  0  0  0  0  0  0  0
    7.2990   37.6920   58.5540 C   0  0  0  0  0  0  0  0  0  0  0  0
    8.3250   38.3180   59.2480 C   0  0  0  0  0  0  0  0  0  0  0  0
    9.1840   39.1130   58.5840 N   0  0  0  0  0  0  0  0  0  0  0  0
   13.3480   43.2790   57.2220 N   0  0  0  0  0  0  0  0  0  0  0  0
   13.0670   44.0930   56.1940 C   0  0  0  0  0  0  0  0  0  0  0  0
   11.9630   45.3380   56.6450 Cl  0  0  0  0  0  0  0  0  0  0  0  0
   13.5690   43.9710   54.9120 C   0  0  0  0  0  0  0  0  0  0  0  0
   13.2060   44.9240   53.8160 C   0  0  0  0  0  0  0  0  0  0  0  0
   15.1750   42.3270   50.0760 S   0  0  0  0  0  0  0  0  0  0  0  0
   15.3466   44.0667   47.6587 H   0  0  0  0  0  0  0  0  0  0  0  0
   14.8270   42.4602   47.0457 H   0  0  0  0  0  0  0  0  0  0  0  0
   13.6737   43.8374   47.0457 H   0  0  0  0  0  0  0  0  0  0  0  0
   11.5645   42.7288   52.4769 H   0  0  0  0  0  0  0  0  0  0  0  0
   10.8906   43.6558   51.0937 H   0  0  0  0  0  0  0  0  0  0  0  0
   10.8158   41.8611   51.0937 H   0  0  0  0  0  0  0  0  0  0  0  0
   13.2331   41.4596   53.1085 H   0  0  0  0  0  0  0  0  0  0  0  0
   14.8037   40.7698   52.5121 H   0  0  0  0  0  0  0  0  0  0  0  0
   15.0690   43.5040   52.9550 H   0  0  0  0  0  0  0  0  0  0  0  0
   14.0853   40.9547   59.8769 H   0  0  0  0  0  0  0  0  0  0  0  0
   13.0001   42.1445   59.0550 H   0  0  0  0  0  0  0  0  0  0  0  0
   12.8651   39.6215   57.6667 H   0  0  0  0  0  0  0  0  0  0  0  0
   12.5941   39.3696   59.4514 H   0  0  0  0  0  0  0  0  0  0  0  0
   11.0699   41.6177   58.8653 H   0  0  0  0  0  0  0  0  0  0  0  0
   10.8387   40.5450   57.4275 H   0  0  0  0  0  0  0  0  0  0  0  0
   11.1731   40.0498   61.1754 H   0  0  0  0  0  0  0  0  0  0  0  0
    9.5736   38.5751   62.4129 H   0  0  0  0  0  0  0  0  0  0  0  0
    7.5859   37.0824   62.3694 H   0  0  0  0  0  0  0  0  0  0  0  0
    5.7621   35.9802   61.0743 H   0  0  0  0  0  0  0  0  0  0  0  0
    5.5759   36.3754   58.6179 H   0  0  0  0  0  0  0  0  0  0  0  0
    7.2072   37.8573   57.4704 H   0  0  0  0  0  0  0  0  0  0  0  0
   12.8468   45.8669   54.2540 H   0  0  0  0  0  0  0  0  0  0  0  0
   14.0915   45.1224   53.1943 H   0  0  0  0  0  0  0  0  0  0  0  0
   12.4129   44.4830   53.1943 H   0  0  0  0  0  0  0  0  0  0  0  0
  1  2  1  0
  2  3  2  0
  3  4  1  0
  4  5  1  0
  4  6  2  0
  6  7  1  0
  7  8  1  0
  8  9  1  0
  9 10  2  0
 10 11  1  0
 11 12  1  0
 12 13  1  0
 13 14  1  0
 14 15  1  0
 15 16  1  0
 16 17  2  0
 17 18  1  0
 18 19  2  0
 19 20  1  0
 20 21  2  0
 21 22  1  0
 22 23  2  0
 23 24  1  0
 24 25  2  0
 11 26  2  0
 26 27  1  0
 27 28  1  0
 27 29  2  0
 29 30  1  0
  6 31  1  0
 31  2  1  0
 29  9  1  0
 25 16  1  0
 24 19  1  0
  1 32  1  0
  1 33  1  0
  1 34  1  0
  5 35  1  0
  5 36  1  0
  5 37  1  0
  7 38  1  0
  7 39  1  0
  8 40  1  0
 13 41  1  0
 13 42  1  0
 14 43  1  0
 14 44  1  0
 15 45  1  0
 15 46  1  0
 17 47  1  0
 18 48  1  0
 20 49  1  0
 21 50  1  0
 22 51  1  0
 23 52  1  0
 30 53  1  0
 30 54  1  0
 30 55  1  0
M  END
>  <meeko>  (5) 
{"is_sidechain": [false], "free_energy": -9.078, "intermolecular_energy": -13.084, "internal_energy": -0.998}

$$$$
5c2h_ligand
     RDKit          3D

 55 58  0  0  0  0  0  0  0  0999 V2000
    6.6370   37.0610   60.9450 C   0  0  0  0  0  0  0  0  0  0  0  0
    7.4010   37.5730   59.7760 C   0  0  0  0  0  0  0  0  0  0  0  0
    7.1500   37.2540   58.5260 N   0  0  0  0  0  0  0  0  0  0  0  0
    8.0420   37.8950   57.6800 C   0  0  0  0  0  0  0  0  0  0  0  0
    7.9170   37.6730   56.2150 C   0  0  0  0  0  0  0  0  0  0  0  0
    8.9710   38.6990   58.3180 C   0  0  0  0  0  0  0  0  0  0  0  0
   10.0690   39.5300   57.7220 C   0  0  0  0  0  0  0  0  0  0  0  0
   11.1150   39.8430   58.6970 N   0  0  0  0  0  0  0  0  0  0  0  0
   12.0440   40.8140   58.2850 C   0  0  0  0  0  0  0  0  0  0  0  0
   12.3630   40.8880   56.9830 N   0  0  0  0  0  0  0  0  0  0  0  0
   13.2450   41.8180   56.6020 C   0  0  0  0  0  0  0  0  0  0  0  0
   13.5680   41.7860   55.2660 O   0  0  0  0  0  0  0  0  0  0  0  0
   13.5490   43.0460   54.6000 C   0  0  0  0  0  0  0  0  0  0  0  0
   12.3750   43.9000   55.0760 C   0  0  0  0  0  0  0  0  0  0  0  0
   11.0190   43.3520   54.6290 C   0  0  0  0  0  0  0  0  0  0  0  0
    9.9220   43.7770   55.5740 C   0  0  0  0  0  0  0  0  0  0  0  0
    9.1560   44.9030   55.3040 C   0  0  0  0  0  0  0  0  0  0  0  0
    8.1670   45.2680   56.2110 C   0  0  0  0  0  0  0  0  0  0  0  0
    7.9660   44.5050   57.3660 C   0  0  0  0  0  0  0  0  0  0  0  0
    6.9780   44.8340   58.3110 C   0  0  0  0  0  0  0  0  0  0  0  0
    6.8060   44.0530   59.4520 C   0  0  0  0  0  0  0  0  0  0  0  0
    7.6180   42.9420   59.6520 C   0  0  0  0  0  0  0  0  0  0  0  0
    8.5990   42.6180   58.7090 C   0  0  0  0  0  0  0  0  0  0  0  0
    8.7920   43.3790   57.5640 C   0  0  0  0  0  0  0  0  0  0  0  0
    9.7500   43.0250   56.6880 N   0  0  0  0  0  0  0  0  0  0  0  0
   13.8550   42.6770   57.4130 N   0  0  0  0  0  0  0  0  0  0  0  0
   13.4950   42.5870   58.7010 C   0  0  0  0  0  0  0  0  0  0  0  0
   14.3410   43.7220   59.6860 Cl  0  0  0  0  0  0  0  0  0  0  0  0
   12.5730   41.6950   59.2180 C   0  0  0  0  0  0  0  0  0  0  0  0
   12.2240   41.6570   60.6730 C   0  0  0  0  0  0  0  0  0  0  0  0
    8.7080   38.6600   60.0120 S   0  0  0  0  0  0  0  0  0  0  0  0
    7.1258   37.3885   61.8744 H   0  0  0  0  0  0  0  0  0  0  0  0
    5.6101   37.4540   60.9125 H   0  0  0  0  0  0  0  0  0  0  0  0
    6.6101   35.9618   60.9125 H   0  0  0  0  0  0  0  0  0  0  0  0
    7.3849   36.7279   56.0314 H   0  0  0  0  0  0  0  0  0  0  0  0
    7.3542   38.5041   55.7649 H   0  0  0  0  0  0  0  0  0  0  0  0
    8.9194   37.6228   55.7649 H   0  0  0  0  0  0  0  0  0  0  0  0
   10.5188   38.9756   56.8852 H   0  0  0  0  0  0  0  0  0  0  0  0
    9.6286   40.4789   57.3819 H   0  0  0  0  0  0  0  0  0  0  0  0
   11.6000   38.9970   58.9780 H   0  0  0  0  0  0  0  0  0  0  0  0
   14.4888   43.5778   54.8097 H   0  0  0  0  0  0  0  0  0  0  0  0
   13.4384   42.8695   53.5199 H   0  0  0  0  0  0  0  0  0  0  0  0
   12.3925   43.9389   56.1752 H   0  0  0  0  0  0  0  0  0  0  0  0
   12.4908   44.8982   54.6285 H   0  0  0  0  0  0  0  0  0  0  0  0
   10.7925   43.7319   53.6218 H   0  0  0  0  0  0  0  0  0  0  0  0
   11.0705   42.2532   54.6257 H   0  0  0  0  0  0  0  0  0  0  0  0
    9.3277   45.4938   54.3921 H   0  0  0  0  0  0  0  0  0  0  0  0
    7.5443   46.1546   56.0206 H   0  0  0  0  0  0  0  0  0  0  0  0
    6.3371   45.7131   58.1485 H   0  0  0  0  0  0  0  0  0  0  0  0
    6.0329   44.3136   60.1898 H   0  0  0  0  0  0  0  0  0  0  0  0
    7.4892   42.3194   60.5497 H   0  0  0  0  0  0  0  0  0  0  0  0
    9.2346   41.7365   58.8792 H   0  0  0  0  0  0  0  0  0  0  0  0
   13.1407   41.7568   61.2727 H   0  0  0  0  0  0  0  0  0  0  0  0
   11.5402   42.4860   60.9078 H   0  0  0  0  0  0  0  0  0  0  0  0
   11.7346   40.7003   60.9078 H   0  0  0  0  0  0  0  0  0  0  0  0
  1  2  1  0
  2  3  2  0
  3  4  1  0
  4  5  1  0
  4  6  2  0
  6  7  1  0
  7  8  1  0
  8  9  1  0
  9 10  2  0
 10 11  1  0
 11 12  1  0
 12 13  1  0
 13 14  1  0
 14 15  1  0
 15 16  1  0
 16 17  2  0
 17 18  1  0
 18 19  2  0
 19 20  1  0
 20 21  2  0
 21 22  1  0
 22 23  2  0
 23 24  1  0
 24 25  2  0
 11 26  2  0
 26 27  1  0
 27 28  1  0
 27 29  2  0
 29 30  1  0
  6 31  1  0
 31  2  1  0
 29  9  1  0
 25 16  1  0
 24 19  1  0
  1 32  1  0
  1 33  1  0
  1 34  1  0
  5 35  1  0
  5 36  1  0
  5 37  1  0
  7 38  1  0
  7 39  1  0
  8 40  1  0
 13 41  1  0
 13 42  1  0
 14 43  1  0
 14 44  1  0
 15 45  1  0
 15 46  1  0
 17 47  1  0
 18 48  1  0
 20 49  1  0
 21 50  1  0
 22 51  1  0
 23 52  1  0
 30 53  1  0
 30 54  1  0
 30 55  1  0
M  END
>  <meeko>  (6) 
{"is_sidechain": [false], "free_energy": -9.051, "intermolecular_energy": -12.729, "internal_energy": -1.313}

$$$$
5c2h_ligand
     RDKit          3D

 55 58  0  0  0  0  0  0  0  0999 V2000
   12.5710   40.3760   51.1980 C   0  0  0  0  0  0  0  0  0  0  0  0
   12.6930   41.3590   52.3070 C   0  0  0  0  0  0  0  0  0  0  0  0
   13.7950   41.5760   52.9900 N   0  0  0  0  0  0  0  0  0  0  0  0
   13.5770   42.5480   53.9540 C   0  0  0  0  0  0  0  0  0  0  0  0
   14.7110   42.9480   54.8290 C   0  0  0  0  0  0  0  0  0  0  0  0
   12.2890   43.0550   53.9870 C   0  0  0  0  0  0  0  0  0  0  0  0
   11.7090   44.1040   54.8890 C   0  0  0  0  0  0  0  0  0  0  0  0
   10.2480   44.0390   54.9410 N   0  0  0  0  0  0  0  0  0  0  0  0
    9.7110   43.6650   56.1860 C   0  0  0  0  0  0  0  0  0  0  0  0
   10.2730   42.6410   56.8470 N   0  0  0  0  0  0  0  0  0  0  0  0
    9.7570   42.2970   58.0310 C   0  0  0  0  0  0  0  0  0  0  0  0
   10.3470   41.2000   58.6140 O   0  0  0  0  0  0  0  0  0  0  0  0
   10.6440   41.3280   60.0020 C   0  0  0  0  0  0  0  0  0  0  0  0
    9.5340   40.7200   60.8580 C   0  0  0  0  0  0  0  0  0  0  0  0
    9.7320   39.2260   61.1190 C   0  0  0  0  0  0  0  0  0  0  0  0
    8.6460   38.4110   60.4620 C   0  0  0  0  0  0  0  0  0  0  0  0
    7.7460   37.6840   61.2310 C   0  0  0  0  0  0  0  0  0  0  0  0
    6.7720   36.9330   60.5830 C   0  0  0  0  0  0  0  0  0  0  0  0
    6.7180   36.9200   59.1850 C   0  0  0  0  0  0  0  0  0  0  0  0
    5.7510   36.1760   58.4860 C   0  0  0  0  0  0  0  0  0  0  0  0
    5.7270   36.1850   57.0930 C   0  0  0  0  0  0  0  0  0  0  0  0
    6.6660   36.9360   56.3940 C   0  0  0  0  0  0  0  0  0  0  0  0
    7.6250   37.6740   57.0940 C   0  0  0  0  0  0  0  0  0  0  0  0
    7.6730   37.6830   58.4810 C   0  0  0  0  0  0  0  0  0  0  0  0
    8.6160   38.4110   59.1070 N   0  0  0  0  0  0  0  0  0  0  0  0
    8.7110   42.8770   58.6120 N   0  0  0  0  0  0  0  0  0  0  0  0
    8.1900   43.9070   57.9320 C   0  0  0  0  0  0  0  0  0  0  0  0
    6.8300   44.5910   58.7430 Cl  0  0  0  0  0  0  0  0  0  0  0  0
    8.6490   44.3830   56.7170 C   0  0  0  0  0  0  0  0  0  0  0  0
    8.0110   45.5430   56.0190 C   0  0  0  0  0  0  0  0  0  0  0  0
   11.3390   42.3050   52.7720 S   0  0  0  0  0  0  0  0  0  0  0  0
   12.4457   39.3660   51.6154 H   0  0  0  0  0  0  0  0  0  0  0  0
   11.6972   40.6280   50.5791 H   0  0  0  0  0  0  0  0  0  0  0  0
   13.4799   40.4068   50.5791 H   0  0  0  0  0  0  0  0  0  0  0  0
   14.4151   42.8436   55.8833 H   0  0  0  0  0  0  0  0  0  0  0  0
   15.5771   42.3011   54.6254 H   0  0  0  0  0  0  0  0  0  0  0  0
   14.9796   43.9951   54.6254 H   0  0  0  0  0  0  0  0  0  0  0  0
   12.1068   43.9583   55.9041 H   0  0  0  0  0  0  0  0  0  0  0  0
   11.9901   45.0888   54.4876 H   0  0  0  0  0  0  0  0  0  0  0  0
    9.8950   43.4250   54.2130 H   0  0  0  0  0  0  0  0  0  0  0  0
   11.5894   40.8084   60.2169 H   0  0  0  0  0  0  0  0  0  0  0  0
   10.7280   42.3975   60.2452 H   0  0  0  0  0  0  0  0  0  0  0  0
    9.5093   41.2446   61.8245 H   0  0  0  0  0  0  0  0  0  0  0  0
    8.5905   40.8354   60.3044 H   0  0  0  0  0  0  0  0  0  0  0  0
   10.7073   38.9169   60.7149 H   0  0  0  0  0  0  0  0  0  0  0  0
    9.6905   39.0526   62.2045 H   0  0  0  0  0  0  0  0  0  0  0  0
    7.8029   37.7022   62.3294 H   0  0  0  0  0  0  0  0  0  0  0  0
    6.0453   36.3502   61.1681 H   0  0  0  0  0  0  0  0  0  0  0  0
    5.0094   35.5836   59.0420 H   0  0  0  0  0  0  0  0  0  0  0  0
    4.9696   35.6014   56.5491 H   0  0  0  0  0  0  0  0  0  0  0  0
    6.6541   36.9492   55.2941 H   0  0  0  0  0  0  0  0  0  0  0  0
    8.3622   38.2641   56.5297 H   0  0  0  0  0  0  0  0  0  0  0  0
    7.6216   46.2510   56.7654 H   0  0  0  0  0  0  0  0  0  0  0  0
    8.7582   46.0481   55.3893 H   0  0  0  0  0  0  0  0  0  0  0  0
    7.1843   45.1825   55.3893 H   0  0  0  0  0  0  0  0  0  0  0  0
  1  2  1  0
  2  3  2  0
  3  4  1  0
  4  5  1  0
  4  6  2  0
  6  7  1  0
  7  8  1  0
  8  9  1  0
  9 10  2  0
 10 11  1  0
 11 12  1  0
 12 13  1  0
 13 14  1  0
 14 15  1  0
 15 16  1  0
 16 17  2  0
 17 18  1  0
 18 19  2  0
 19 20  1  0
 20 21  2  0
 21 22  1  0
 22 23  2  0
 23 24  1  0
 24 25  2  0
 11 26  2  0
 26 27  1  0
 27 28  1  0
 27 29  2  0
 29 30  1  0
  6 31  1  0
 31  2  1  0
 29  9  1  0
 25 16  1  0
 24 19  1  0
  1 32  1  0
  1 33  1  0
  1 34  1  0
  5 35  1  0
  5 36  1  0
  5 37  1  0
  7 38  1  0
  7 39  1  0
  8 40  1  0
 13 41  1  0
 13 42  1  0
 14 43  1  0
 14 44  1  0
 15 45  1  0
 15 46  1  0
 17 47  1  0
 18 48  1  0
 20 49  1  0
 21 50  1  0
 22 51  1  0
 23 52  1  0
 30 53  1  0
 30 54  1  0
 30 55  1  0
M  END
>  <meeko>  (7) 
{"is_sidechain": [false], "free_energy": -8.913, "intermolecular_energy": -12.996, "internal_energy": -0.844}

$$$$
5c2h_ligand
     RDKit          3D

 55 58  0  0  0  0  0  0  0  0999 V2000
    8.2210   42.1960   50.8930 C   0  0  0  0  0  0  0  0  0  0  0  0
    9.1680   41.7640   51.9550 C   0  0  0  0  0  0  0  0  0  0  0  0
    8.9960   41.9850   53.2390 N   0  0  0  0  0  0  0  0  0  0  0  0
   10.0570   41.4600   53.9620 C   0  0  0  0  0  0  0  0  0  0  0  0
   10.0450   41.5960   55.4420 C   0  0  0  0  0  0  0  0  0  0  0  0
   11.0320   40.8430   53.1960 C   0  0  0  0  0  0  0  0  0  0  0  0
   12.3000   40.1740   53.6400 C   0  0  0  0  0  0  0  0  0  0  0  0
   13.4640   41.0480   53.4930 N   0  0  0  0  0  0  0  0  0  0  0  0
   13.6240   42.0050   54.5100 C   0  0  0  0  0  0  0  0  0  0  0  0
   13.8950   41.5830   55.7550 N   0  0  0  0  0  0  0  0  0  0  0  0
   14.0500   42.5030   56.7120 C   0  0  0  0  0  0  0  0  0  0  0  0
   14.2600   41.9880   57.9700 O   0  0  0  0  0  0  0  0  0  0  0  0
   13.5520   42.6360   59.0250 C   0  0  0  0  0  0  0  0  0  0  0  0
   12.5340   41.6910   59.6610 C   0  0  0  0  0  0  0  0  0  0  0  0
   11.1420   41.8080   59.0400 C   0  0  0  0  0  0  0  0  0  0  0  0
   10.2140   40.7480   59.5800 C   0  0  0  0  0  0  0  0  0  0  0  0
   10.1020   40.5390   60.9480 C   0  0  0  0  0  0  0  0  0  0  0  0
    9.2480   39.5400   61.4010 C   0  0  0  0  0  0  0  0  0  0  0  0
    8.5280   38.7700   60.4810 C   0  0  0  0  0  0  0  0  0  0  0  0
    7.6520   37.7490   60.8920 C   0  0  0  0  0  0  0  0  0  0  0  0
    6.9510   37.0010   59.9490 C   0  0  0  0  0  0  0  0  0  0  0  0
    7.1210   37.2690   58.5950 C   0  0  0  0  0  0  0  0  0  0  0  0
    7.9930   38.2860   58.1920 C   0  0  0  0  0  0  0  0  0  0  0  0
    8.7040   39.0460   59.1100 C   0  0  0  0  0  0  0  0  0  0  0  0
    9.5310   40.0120   58.6700 N   0  0  0  0  0  0  0  0  0  0  0  0
   13.9410   43.8170   56.5420 N   0  0  0  0  0  0  0  0  0  0  0  0
   13.6910   44.2010   55.2820 C   0  0  0  0  0  0  0  0  0  0  0  0
   13.5480   45.9140   55.1490 Cl  0  0  0  0  0  0  0  0  0  0  0  0
   13.5430   43.3550   54.1980 C   0  0  0  0  0  0  0  0  0  0  0  0
   13.2640   43.8630   52.8180 C   0  0  0  0  0  0  0  0  0  0  0  0
   10.5990   40.9120   51.5380 S   0  0  0  0  0  0  0  0  0  0  0  0
    7.3136   42.6099   51.3571 H   0  0  0  0  0  0  0  0  0  0  0  0
    8.6972   42.9660   50.2682 H   0  0  0  0  0  0  0  0  0  0  0  0
    7.9517   41.3317   50.2682 H   0  0  0  0  0  0  0  0  0  0  0  0
   10.1328   40.6008   55.9024 H   0  0  0  0  0  0  0  0  0  0  0  0
   10.8913   42.2228   55.7595 H   0  0  0  0  0  0  0  0  0  0  0  0
    9.1020   42.0650   55.7595 H   0  0  0  0  0  0  0  0  0  0  0  0
   12.2001   39.8913   54.6984 H   0  0  0  0  0  0  0  0  0  0  0  0
   12.4574   39.2904   53.0040 H   0  0  0  0  0  0  0  0  0  0  0  0
   13.4510   41.5050   52.5860 H   0  0  0  0  0  0  0  0  0  0  0  0
   14.2692   42.9619   59.7927 H   0  0  0  0  0  0  0  0  0  0  0  0
   13.0152   43.5008   58.6079 H   0  0  0  0  0  0  0  0  0  0  0  0
   12.8885   40.6574   59.5348 H   0  0  0  0  0  0  0  0  0  0  0  0
   12.4456   41.9678   60.7219 H   0  0  0  0  0  0  0  0  0  0  0  0
   10.7275   42.8001   59.2722 H   0  0  0  0  0  0  0  0  0  0  0  0
   11.2327   41.6710   57.9523 H   0  0  0  0  0  0  0  0  0  0  0  0
   10.6770   41.1511   61.6585 H   0  0  0  0  0  0  0  0  0  0  0  0
    9.1386   39.3554   62.4799 H   0  0  0  0  0  0  0  0  0  0  0  0
    7.5199   37.5402   61.9639 H   0  0  0  0  0  0  0  0  0  0  0  0
    6.2669   36.2030   60.2734 H   0  0  0  0  0  0  0  0  0  0  0  0
    6.5716   36.6832   57.8433 H   0  0  0  0  0  0  0  0  0  0  0  0
    8.1185   38.4888   57.1182 H   0  0  0  0  0  0  0  0  0  0  0  0
   12.7354   44.8255   52.8815 H   0  0  0  0  0  0  0  0  0  0  0  0
   14.2130   44.0008   52.2791 H   0  0  0  0  0  0  0  0  0  0  0  0
   12.6386   43.1360   52.2791 H   0  0  0  0  0  0  0  0  0  0  0  0
  1  2  1  0
  2  3  2  0
  3  4  1  0
  4  5  1  0
  4  6  2  0
  6  7  1  0
  7  8  1  0
  8  9  1  0
  9 10  2  0
 10 11  1  0
 11 12  1  0
 12 13  1  0
 13 14  1  0
 14 15  1  0
 15 16  1  0
 16 17  2  0
 17 18  1  0
 18 19  2  0
 19 20  1  0
 20 21  2  0
 21 22  1  0
 22 23  2  0
 23 24  1  0
 24 25  2  0
 11 26  2  0
 26 27  1  0
 27 28  1  0
 27 29  2  0
 29 30  1  0
  6 31  1  0
 31  2  1  0
 29  9  1  0
 25 16  1  0
 24 19  1  0
  1 32  1  0
  1 33  1  0
  1 34  1  0
  5 35  1  0
  5 36  1  0
  5 37  1  0
  7 38  1  0
  7 39  1  0
  8 40  1  0
 13 41  1  0
 13 42  1  0
 14 43  1  0
 14 44  1  0
 15 45  1  0
 15 46  1  0
 17 47  1  0
 18 48  1  0
 20 49  1  0
 21 50  1  0
 22 51  1  0
 23 52  1  0
 30 53  1  0
 30 54  1  0
 30 55  1  0
M  END
>  <meeko>  (8) 
{"is_sidechain": [false], "free_energy": -8.913, "intermolecular_energy": -12.275, "internal_energy": -1.565}

$$$$
5c2h_ligand
     RDKit          3D

 55 58  0  0  0  0  0  0  0  0999 V2000
    9.1550   37.5120   55.5430 C   0  0  0  0  0  0  0  0  0  0  0  0
    9.7220   38.8730   55.3510 C   0  0  0  0  0  0  0  0  0  0  0  0
    9.5070   39.8880   56.1580 N   0  0  0  0  0  0  0  0  0  0  0  0
   10.1730   41.0140   55.6980 C   0  0  0  0  0  0  0  0  0  0  0  0
   10.0660   42.2730   56.4820 C   0  0  0  0  0  0  0  0  0  0  0  0
   10.8900   40.8270   54.5280 C   0  0  0  0  0  0  0  0  0  0  0  0
   11.7190   41.8140   53.7590 C   0  0  0  0  0  0  0  0  0  0  0  0
   13.1300   41.7630   54.1410 N   0  0  0  0  0  0  0  0  0  0  0  0
   13.4750   42.5450   55.2570 C   0  0  0  0  0  0  0  0  0  0  0  0
   13.6510   41.9360   56.4400 N   0  0  0  0  0  0  0  0  0  0  0  0
   13.9830   42.6900   57.4940 C   0  0  0  0  0  0  0  0  0  0  0  0
   14.0800   42.0010   58.6800 O   0  0  0  0  0  0  0  0  0  0  0  0
   12.9040   41.9950   59.4840 C   0  0  0  0  0  0  0  0  0  0  0  0
   12.8400   40.7380   60.3510 C   0  0  0  0  0  0  0  0  0  0  0  0
   11.7800   40.8250   61.4500 C   0  0  0  0  0  0  0  0  0  0  0  0
   10.5420   40.0500   61.0730 C   0  0  0  0  0  0  0  0  0  0  0  0
    9.8350   40.3650   59.9200 C   0  0  0  0  0  0  0  0  0  0  0  0
    8.6900   39.6350   59.6200 C   0  0  0  0  0  0  0  0  0  0  0  0
    8.2730   38.6120   60.4780 C   0  0  0  0  0  0  0  0  0  0  0  0
    7.1220   37.8470   60.2170 C   0  0  0  0  0  0  0  0  0  0  0  0
    6.7350   36.8360   61.0930 C   0  0  0  0  0  0  0  0  0  0  0  0
    7.4940   36.5840   62.2300 C   0  0  0  0  0  0  0  0  0  0  0  0
    8.6380   37.3470   62.4850 C   0  0  0  0  0  0  0  0  0  0  0  0
    9.0470   38.3610   61.6300 C   0  0  0  0  0  0  0  0  0  0  0  0
   10.1550   39.0660   61.9210 N   0  0  0  0  0  0  0  0  0  0  0  0
   14.1410   44.0100   57.4760 N   0  0  0  0  0  0  0  0  0  0  0  0
   13.9780   44.5790   56.2740 C   0  0  0  0  0  0  0  0  0  0  0  0
   14.1830   46.2900   56.3400 Cl  0  0  0  0  0  0  0  0  0  0  0  0
   13.6680   43.9110   55.1030 C   0  0  0  0  0  0  0  0  0  0  0  0
   13.5030   44.6210   53.7950 C   0  0  0  0  0  0  0  0  0  0  0  0
   10.7350   39.2010   54.0050 S   0  0  0  0  0  0  0  0  0  0  0  0
    9.0667   37.3000   56.6188 H   0  0  0  0  0  0  0  0  0  0  0  0
    8.1603   37.4600   55.0761 H   0  0  0  0  0  0  0  0  0  0  0  0
    9.8185   36.7692   55.0761 H   0  0  0  0  0  0  0  0  0  0  0  0
   10.0859   42.0386   57.5566 H   0  0  0  0  0  0  0  0  0  0  0  0
   10.9114   42.9319   56.2347 H   0  0  0  0  0  0  0  0  0  0  0  0
    9.1215   42.7798   56.2347 H   0  0  0  0  0  0  0  0  0  0  0  0
   11.6337   41.5888   52.6857 H   0  0  0  0  0  0  0  0  0  0  0  0
   11.3427   42.8223   53.9863 H   0  0  0  0  0  0  0  0  0  0  0  0
   13.7190   42.0100   53.3510 H   0  0  0  0  0  0  0  0  0  0  0  0
   12.9090   42.8814   60.1353 H   0  0  0  0  0  0  0  0  0  0  0  0
   12.0262   42.0088   58.8213 H   0  0  0  0  0  0  0  0  0  0  0  0
   12.6065   39.8783   59.7057 H   0  0  0  0  0  0  0  0  0  0  0  0
   13.8173   40.6273   60.8437 H   0  0  0  0  0  0  0  0  0  0  0  0
   12.1934   40.4108   62.3814 H   0  0  0  0  0  0  0  0  0  0  0  0
   11.5033   41.8809   61.5857 H   0  0  0  0  0  0  0  0  0  0  0  0
   10.1737   41.1753   59.2576 H   0  0  0  0  0  0  0  0  0  0  0  0
    8.1139   39.8614   58.7107 H   0  0  0  0  0  0  0  0  0  0  0  0
    6.5242   38.0484   59.3159 H   0  0  0  0  0  0  0  0  0  0  0  0
    5.8337   36.2401   60.8864 H   0  0  0  0  0  0  0  0  0  0  0  0
    7.1958   35.7870   62.9270 H   0  0  0  0  0  0  0  0  0  0  0  0
    9.2300   37.1377   63.3882 H   0  0  0  0  0  0  0  0  0  0  0  0
   13.2575   45.6773   53.9796 H   0  0  0  0  0  0  0  0  0  0  0  0
   14.4400   44.5570   53.2223 H   0  0  0  0  0  0  0  0  0  0  0  0
   12.6903   44.1503   53.2223 H   0  0  0  0  0  0  0  0  0  0  0  0
  1  2  1  0
  2  3  2  0
  3  4  1  0
  4  5  1  0
  4  6  2  0
  6  7  1  0
  7  8  1  0
  8  9  1  0
  9 10  2  0
 10 11  1  0
 11 12  1  0
 12 13  1  0
 13 14  1  0
 14 15  1  0
 15 16  1  0
 16 17  2  0
 17 18  1  0
 18 19  2  0
 19 20  1  0
 20 21  2  0
 21 22  1  0
 22 23  2  0
 23 24  1  0
 24 25  2  0
 11 26  2  0
 26 27  1  0
 27 28  1  0
 27 29  2  0
 29 30  1  0
  6 31  1  0
 31  2  1  0
 29  9  1  0
 25 16  1  0
 24 19  1  0
  1 32  1  0
  1 33  1  0
  1 34  1  0
  5 35  1  0
  5 36  1  0
  5 37  1  0
  7 38  1  0
  7 39  1  0
  8 40  1  0
 13 41  1  0
 13 42  1  0
 14 43  1  0
 14 44  1  0
 15 45  1  0
 15 46  1  0
 17 47  1  0
 18 48  1  0
 20 49  1  0
 21 50  1  0
 22 51  1  0
 23 52  1  0
 30 53  1  0
 30 54  1  0
 30 55  1  0
M  END
>  <meeko>  (9) 
{"is_sidechain": [false], "free_energy": -8.808, "intermolecular_energy": -12.436, "internal_energy": -1.251}

$$$$
