4eor_ligand
     RDKit          3D

 50 53  0  0  0  0  0  0  0  0999 V2000
   -3.4930  -28.9420   26.8740 N   0  0  0  0  0  0  0  0  0  0  0  0
   -2.9350  -27.8830   25.6890 S   0  0  0  0  0  0  0  0  0  0  0  0
   -2.8470  -28.6670   24.4780 O   0  0  0  0  0  0  0  0  0  0  0  0
   -1.8100  -27.1600   26.2310 O   0  0  0  0  0  0  0  0  0  0  0  0
   -4.3020  -26.7660   25.5410 C   0  0  0  0  0  0  0  0  0  0  0  0
   -4.9240  -26.2860   26.6920 C   0  0  0  0  0  0  0  0  0  0  0  0
   -6.0010  -25.4020   26.5710 C   0  0  0  0  0  0  0  0  0  0  0  0
   -6.4680  -24.9780   25.3140 C   0  0  0  0  0  0  0  0  0  0  0  0
   -7.5610  -24.1070   25.2710 N   0  0  0  0  0  0  0  0  0  0  0  0
   -8.0040  -23.1380   24.3720 C   0  0  0  0  0  0  0  0  0  0  0  0
   -7.0010  -22.4760   23.7530 N   0  0  0  0  0  0  0  0  0  0  0  0
   -7.2940  -21.5020   22.8500 C   0  0  0  0  0  0  0  0  0  0  0  0
   -6.2820  -20.8170   22.2080 O   0  0  0  0  0  0  0  0  0  0  0  0
   -5.9340  -21.3650   20.9380 C   0  0  0  0  0  0  0  0  0  0  0  0
   -4.5260  -21.9800   21.0000 C   0  0  0  0  0  0  0  0  0  0  0  0
   -3.6590  -21.2940   22.0700 C   0  0  0  0  0  0  0  0  0  0  0  0
   -2.2620  -21.9070   22.1380 C   0  0  0  0  0  0  0  0  0  0  0  0
   -2.3200  -23.4140   22.3680 C   0  0  0  0  0  0  0  0  0  0  0  0
   -3.1880  -24.1090   21.3230 C   0  0  0  0  0  0  0  0  0  0  0  0
   -4.5860  -23.4950   21.2550 C   0  0  0  0  0  0  0  0  0  0  0  0
   -8.6270  -21.2010   22.5810 C   0  0  0  0  0  0  0  0  0  0  0  0
   -9.2650  -20.3020   21.7510 N   0  0  0  0  0  0  0  0  0  0  0  0
  -10.5500  -20.5080   21.9490 C   0  0  0  0  0  0  0  0  0  0  0  0
  -10.7700  -21.4960   22.8680 N   0  0  0  0  0  0  0  0  0  0  0  0
   -9.5520  -21.9490   23.2820 C   0  0  0  0  0  0  0  0  0  0  0  0
   -9.3160  -22.9140   24.1780 N   0  0  0  0  0  0  0  0  0  0  0  0
   -5.8170  -25.4730   24.1770 C   0  0  0  0  0  0  0  0  0  0  0  0
   -4.7360  -26.3560   24.2820 C   0  0  0  0  0  0  0  0  0  0  0  0
   -3.7450  -28.4740   27.7450 H   0  0  0  0  0  0  0  0  0  0  0  0
   -4.2730  -29.4800   26.4920 H   0  0  0  0  0  0  0  0  0  0  0  0
   -4.5714  -26.5993   27.6858 H   0  0  0  0  0  0  0  0  0  0  0  0
   -6.4946  -25.0295   27.4807 H   0  0  0  0  0  0  0  0  0  0  0  0
   -8.1750  -24.1030   26.0740 H   0  0  0  0  0  0  0  0  0  0  0  0
   -6.6607  -22.1447   20.6660 H   0  0  0  0  0  0  0  0  0  0  0  0
   -5.9462  -20.5649   20.1833 H   0  0  0  0  0  0  0  0  0  0  0  0
   -4.0583  -21.8131   20.0184 H   0  0  0  0  0  0  0  0  0  0  0  0
   -3.5686  -20.2254   21.8252 H   0  0  0  0  0  0  0  0  0  0  0  0
   -4.1441  -21.4329   23.0474 H   0  0  0  0  0  0  0  0  0  0  0  0
   -1.7395  -21.7105   21.1902 H   0  0  0  0  0  0  0  0  0  0  0  0
   -1.7270  -21.4505   22.9838 H   0  0  0  0  0  0  0  0  0  0  0  0
   -1.3002  -23.8228   22.3140 H   0  0  0  0  0  0  0  0  0  0  0  0
   -2.7636  -23.5939   23.3584 H   0  0  0  0  0  0  0  0  0  0  0  0
   -2.7074  -24.0126   20.3383 H   0  0  0  0  0  0  0  0  0  0  0  0
   -3.2899  -25.1665   21.6083 H   0  0  0  0  0  0  0  0  0  0  0  0
   -5.1465  -23.9728   20.4380 H   0  0  0  0  0  0  0  0  0  0  0  0
   -5.0830  -23.6621   22.2220 H   0  0  0  0  0  0  0  0  0  0  0  0
  -11.3497  -19.9526   21.4371 H   0  0  0  0  0  0  0  0  0  0  0  0
  -11.6620  -21.8390   23.1900 H   0  0  0  0  0  0  0  0  0  0  0  0
   -6.1626  -25.1612   23.1803 H   0  0  0  0  0  0  0  0  0  0  0  0
   -4.2321  -26.7240   23.3761 H   0  0  0  0  0  0  0  0  0  0  0  0
  1  2  1  0
  2  3  2  0
  2  4  2  0
  2  5  1  0
  5  6  2  0
  6  7  1  0
  7  8  2  0
  8  9  1  0
  9 10  1  0
 10 11  2  0
 11 12  1  0
 12 13  1  0
 13 14  1  0
 14 15  1  0
 15 16  1  0
 16 17  1  0
 17 18  1  0
 18 19  1  0
 19 20  1  0
 12 21  2  0
 21 22  1  0
 22 23  2  0
 23 24  1  0
 24 25  1  0
 25 26  2  0
  8 27  1  0
 27 28  2  0
 28  5  1  0
 26 10  1  0
 20 15  1  0
 25 21  1  0
  1 29  1  0
  1 30  1  0
  6 31  1  0
  7 32  1  0
  9 33  1  0
 14 34  1  0
 14 35  1  0
 15 36  1  0
 16 37  1  0
 16 38  1  0
 17 39  1  0
 17 40  1  0
 18 41  1  0
 18 42  1  0
 19 43  1  0
 19 44  1  0
 20 45  1  0
 20 46  1  0
 23 47  1  0
 24 48  1  0
 27 49  1  0
 28 50  1  0
M  END
>  <meeko>  (1) 
{"is_sidechain": [false], "free_energy": -9.112, "intermolecular_energy": -12.575, "internal_energy": -1.168}

$$$$
4eor_ligand
     RDKit          3D

 50 53  0  0  0  0  0  0  0  0999 V2000
   -3.4220  -26.5040   30.6700 N   0  0  0  0  0  0  0  0  0  0  0  0
   -2.9260  -27.5560   29.4510 S   0  0  0  0  0  0  0  0  0  0  0  0
   -3.3930  -28.8630   29.8520 O   0  0  0  0  0  0  0  0  0  0  0  0
   -1.5400  -27.2800   29.1600 O   0  0  0  0  0  0  0  0  0  0  0  0
   -3.9080  -27.0000   28.0850 C   0  0  0  0  0  0  0  0  0  0  0  0
   -4.9580  -26.1130   28.3100 C   0  0  0  0  0  0  0  0  0  0  0  0
   -5.7290  -25.6740   27.2290 C   0  0  0  0  0  0  0  0  0  0  0  0
   -5.4640  -26.1010   25.9150 C   0  0  0  0  0  0  0  0  0  0  0  0
   -6.2890  -25.6330   24.8870 N   0  0  0  0  0  0  0  0  0  0  0  0
   -6.2280  -24.5640   23.9940 C   0  0  0  0  0  0  0  0  0  0  0  0
   -7.1210  -23.5850   24.2640 N   0  0  0  0  0  0  0  0  0  0  0  0
   -7.1700  -22.4820   23.4690 C   0  0  0  0  0  0  0  0  0  0  0  0
   -8.0740  -21.4730   23.7290 O   0  0  0  0  0  0  0  0  0  0  0  0
   -9.3410  -21.6610   23.1000 C   0  0  0  0  0  0  0  0  0  0  0  0
   -9.6420  -20.4770   22.1650 C   0  0  0  0  0  0  0  0  0  0  0  0
   -8.5370  -19.4100   22.2350 C   0  0  0  0  0  0  0  0  0  0  0  0
   -8.8310  -18.2360   21.3030 C   0  0  0  0  0  0  0  0  0  0  0  0
   -9.0510  -18.7000   19.8670 C   0  0  0  0  0  0  0  0  0  0  0  0
  -10.1350  -19.7690   19.7820 C   0  0  0  0  0  0  0  0  0  0  0  0
   -9.8410  -20.9440   20.7140 C   0  0  0  0  0  0  0  0  0  0  0  0
   -6.2970  -22.3830   22.3870 C   0  0  0  0  0  0  0  0  0  0  0  0
   -6.0800  -21.4360   21.4070 N   0  0  0  0  0  0  0  0  0  0  0  0
   -5.1070  -21.9270   20.6680 C   0  0  0  0  0  0  0  0  0  0  0  0
   -4.6870  -23.1450   21.1270 N   0  0  0  0  0  0  0  0  0  0  0  0
   -5.4390  -23.4510   22.2240 C   0  0  0  0  0  0  0  0  0  0  0  0
   -5.3520  -24.5560   22.9740 N   0  0  0  0  0  0  0  0  0  0  0  0
   -4.3970  -26.9870   25.7210 C   0  0  0  0  0  0  0  0  0  0  0  0
   -3.6160  -27.4330   26.7930 C   0  0  0  0  0  0  0  0  0  0  0  0
   -2.6850  -25.8710   30.9790 H   0  0  0  0  0  0  0  0  0  0  0  0
   -4.2490  -25.9980   30.3500 H   0  0  0  0  0  0  0  0  0  0  0  0
   -5.1788  -25.7610   29.3285 H   0  0  0  0  0  0  0  0  0  0  0  0
   -6.5619  -24.9787   27.4103 H   0  0  0  0  0  0  0  0  0  0  0  0
   -7.1660  -26.1160   24.7480 H   0  0  0  0  0  0  0  0  0  0  0  0
   -9.3232  -22.5924   22.5150 H   0  0  0  0  0  0  0  0  0  0  0  0
  -10.1229  -21.7213   23.8713 H   0  0  0  0  0  0  0  0  0  0  0  0
  -10.5815  -20.0227   22.5129 H   0  0  0  0  0  0  0  0  0  0  0  0
   -8.4653  -19.0372   23.2674 H   0  0  0  0  0  0  0  0  0  0  0  0
   -7.5906  -19.8727   21.9185 H   0  0  0  0  0  0  0  0  0  0  0  0
   -9.7367  -17.7198   21.6540 H   0  0  0  0  0  0  0  0  0  0  0  0
   -7.9631  -17.5603   21.3169 H   0  0  0  0  0  0  0  0  0  0  0  0
   -9.3522  -17.8369   19.2552 H   0  0  0  0  0  0  0  0  0  0  0  0
   -8.1101  -19.1342   19.4979 H   0  0  0  0  0  0  0  0  0  0  0  0
  -11.0998  -19.3223   20.0642 H   0  0  0  0  0  0  0  0  0  0  0  0
  -10.1644  -20.1478   18.7497 H   0  0  0  0  0  0  0  0  0  0  0  0
  -10.6850  -21.6485   20.6780 H   0  0  0  0  0  0  0  0  0  0  0  0
   -8.9122  -21.4275   20.3769 H   0  0  0  0  0  0  0  0  0  0  0  0
   -4.6836  -21.4195   19.7887 H   0  0  0  0  0  0  0  0  0  0  0  0
   -3.9580  -23.7230   20.7370 H   0  0  0  0  0  0  0  0  0  0  0  0
   -4.1680  -27.3397   24.7046 H   0  0  0  0  0  0  0  0  0  0  0  0
   -2.7764  -28.1215   26.6169 H   0  0  0  0  0  0  0  0  0  0  0  0
  1  2  1  0
  2  3  2  0
  2  4  2  0
  2  5  1  0
  5  6  2  0
  6  7  1  0
  7  8  2  0
  8  9  1  0
  9 10  1  0
 10 11  2  0
 11 12  1  0
 12 13  1  0
 13 14  1  0
 14 15  1  0
 15 16  1  0
 16 17  1  0
 17 18  1  0
 18 19  1  0
 19 20  1  0
 12 21  2  0
 21 22  1  0
 22 23  2  0
 23 24  1  0
 24 25  1  0
 25 26  2  0
  8 27  1  0
 27 28  2  0
 28  5  1  0
 26 10  1  0
 20 15  1  0
 25 21  1  0
  1 29  1  0
  1 30  1  0
  6 31  1  0
  7 32  1  0
  9 33  1  0
 14 34  1  0
 14 35  1  0
 15 36  1  0
 16 37  1  0
 16 38  1  0
 17 39  1  0
 17 40  1  0
 18 41  1  0
 18 42  1  0
 19 43  1  0
 19 44  1  0
 20 45  1  0
 20 46  1  0
 23 47  1  0
 24 48  1  0
 27 49  1  0
 28 50  1  0
M  END
>  <meeko>  (2) 
{"is_sidechain": [false], "free_energy": -8.905, "intermolecular_energy": -12.76, "internal_energy": -0.697}

$$$$
4eor_ligand
     RDKit          3D

 50 53  0  0  0  0  0  0  0  0999 V2000
   -5.1690  -26.0370   30.7130 N   0  0  0  0  0  0  0  0  0  0  0  0
   -4.0290  -26.9490   29.8720 S   0  0  0  0  0  0  0  0  0  0  0  0
   -4.3600  -28.3290   30.1420 O   0  0  0  0  0  0  0  0  0  0  0  0
   -2.7260  -26.3930   30.1440 O   0  0  0  0  0  0  0  0  0  0  0  0
   -4.4560  -26.5830   28.1920 C   0  0  0  0  0  0  0  0  0  0  0  0
   -5.4910  -25.6890   27.9260 C   0  0  0  0  0  0  0  0  0  0  0  0
   -5.8240  -25.4020   26.5980 C   0  0  0  0  0  0  0  0  0  0  0  0
   -5.1310  -25.9860   25.5220 C   0  0  0  0  0  0  0  0  0  0  0  0
   -5.5320  -25.6630   24.2220 N   0  0  0  0  0  0  0  0  0  0  0  0
   -4.9930  -24.8850   23.1980 C   0  0  0  0  0  0  0  0  0  0  0  0
   -5.8440  -23.9440   22.7310 N   0  0  0  0  0  0  0  0  0  0  0  0
   -5.4450  -23.1150   21.7280 C   0  0  0  0  0  0  0  0  0  0  0  0
   -6.3000  -22.1480   21.2400 O   0  0  0  0  0  0  0  0  0  0  0  0
   -6.3960  -20.9940   22.0720 C   0  0  0  0  0  0  0  0  0  0  0  0
   -7.6560  -20.1900   21.7100 C   0  0  0  0  0  0  0  0  0  0  0  0
   -7.6820  -19.8280   20.2150 C   0  0  0  0  0  0  0  0  0  0  0  0
   -8.9350  -19.0340   19.8520 C   0  0  0  0  0  0  0  0  0  0  0  0
  -10.2060  -19.7740   20.2560 C   0  0  0  0  0  0  0  0  0  0  0  0
  -10.1900  -20.1530   21.7330 C   0  0  0  0  0  0  0  0  0  0  0  0
   -8.9370  -20.9470   22.0970 C   0  0  0  0  0  0  0  0  0  0  0  0
   -4.1640  -23.2550   21.1980 C   0  0  0  0  0  0  0  0  0  0  0  0
   -3.4550  -22.6070   20.2080 N   0  0  0  0  0  0  0  0  0  0  0  0
   -2.2830  -23.2070   20.1800 C   0  0  0  0  0  0  0  0  0  0  0  0
   -2.2050  -24.2110   21.1050 N   0  0  0  0  0  0  0  0  0  0  0  0
   -3.3990  -24.2550   21.7630 C   0  0  0  0  0  0  0  0  0  0  0  0
   -3.7440  -25.0950   22.7460 N   0  0  0  0  0  0  0  0  0  0  0  0
   -4.0920  -26.8740   25.8240 C   0  0  0  0  0  0  0  0  0  0  0  0
   -3.7460  -27.1710   27.1470 C   0  0  0  0  0  0  0  0  0  0  0  0
   -6.0460  -25.9210   30.2060 H   0  0  0  0  0  0  0  0  0  0  0  0
   -5.3140  -26.4600   31.6320 H   0  0  0  0  0  0  0  0  0  0  0  0
   -6.0407  -25.2137   28.7518 H   0  0  0  0  0  0  0  0  0  0  0  0
   -6.6475  -24.7029   26.3901 H   0  0  0  0  0  0  0  0  0  0  0  0
   -6.4330  -26.0070   23.9220 H   0  0  0  0  0  0  0  0  0  0  0  0
   -6.4535  -21.3074   23.1248 H   0  0  0  0  0  0  0  0  0  0  0  0
   -5.5080  -20.3630   21.9193 H   0  0  0  0  0  0  0  0  0  0  0  0
   -7.6191  -19.2563   22.2903 H   0  0  0  0  0  0  0  0  0  0  0  0
   -6.7945  -19.2227   19.9785 H   0  0  0  0  0  0  0  0  0  0  0  0
   -7.6856  -20.7622   19.6342 H   0  0  0  0  0  0  0  0  0  0  0  0
   -8.9061  -18.0647   20.3712 H   0  0  0  0  0  0  0  0  0  0  0  0
   -8.9500  -18.8953   18.7609 H   0  0  0  0  0  0  0  0  0  0  0  0
  -11.0732  -19.1253   20.0634 H   0  0  0  0  0  0  0  0  0  0  0  0
  -10.2681  -20.6992   19.6642 H   0  0  0  0  0  0  0  0  0  0  0  0
  -10.2185  -19.2344   22.3374 H   0  0  0  0  0  0  0  0  0  0  0  0
  -11.0678  -20.7843   21.9354 H   0  0  0  0  0  0  0  0  0  0  0  0
   -8.9312  -21.1274   23.1821 H   0  0  0  0  0  0  0  0  0  0  0  0
   -8.9573  -21.8962   21.5415 H   0  0  0  0  0  0  0  0  0  0  0  0
   -1.4662  -22.9337   19.4958 H   0  0  0  0  0  0  0  0  0  0  0  0
   -1.4170  -24.8160   21.2800 H   0  0  0  0  0  0  0  0  0  0  0  0
   -3.5350  -27.3490   25.0030 H   0  0  0  0  0  0  0  0  0  0  0  0
   -2.9190  -27.8641   27.3607 H   0  0  0  0  0  0  0  0  0  0  0  0
  1  2  1  0
  2  3  2  0
  2  4  2  0
  2  5  1  0
  5  6  2  0
  6  7  1  0
  7  8  2  0
  8  9  1  0
  9 10  1  0
 10 11  2  0
 11 12  1  0
 12 13  1  0
 13 14  1  0
 14 15  1  0
 15 16  1  0
 16 17  1  0
 17 18  1  0
 18 19  1  0
 19 20  1  0
 12 21  2  0
 21 22  1  0
 22 23  2  0
 23 24  1  0
 24 25  1  0
 25 26  2  0
  8 27  1  0
 27 28  2  0
 28  5  1  0
 26 10  1  0
 20 15  1  0
 25 21  1  0
  1 29  1  0
  1 30  1  0
  6 31  1  0
  7 32  1  0
  9 33  1  0
 14 34  1  0
 14 35  1  0
 15 36  1  0
 16 37  1  0
 16 38  1  0
 17 39  1  0
 17 40  1  0
 18 41  1  0
 18 42  1  0
 19 43  1  0
 19 44  1  0
 20 45  1  0
 20 46  1  0
 23 47  1  0
 24 48  1  0
 27 49  1  0
 28 50  1  0
M  END
>  <meeko>  (3) 
{"is_sidechain": [false], "free_energy": -8.861, "intermolecular_energy": -12.717, "internal_energy": -0.68}

$$$$
4eor_ligand
     RDKit          3D

 50 53  0  0  0  0  0  0  0  0999 V2000
   -3.9680  -28.5640   28.1950 N   0  0  0  0  0  0  0  0  0  0  0  0
   -4.0990  -26.8870   28.2870 S   0  0  0  0  0  0  0  0  0  0  0  0
   -2.8520  -26.4320   28.8580 O   0  0  0  0  0  0  0  0  0  0  0  0
   -5.3820  -26.5720   28.8680 O   0  0  0  0  0  0  0  0  0  0  0  0
   -4.1330  -26.4410   26.5740 C   0  0  0  0  0  0  0  0  0  0  0  0
   -2.9430  -26.4050   25.8500 C   0  0  0  0  0  0  0  0  0  0  0  0
   -2.9730  -26.0540   24.4960 C   0  0  0  0  0  0  0  0  0  0  0  0
   -4.1800  -25.7450   23.8440 C   0  0  0  0  0  0  0  0  0  0  0  0
   -4.1310  -25.3860   22.4930 N   0  0  0  0  0  0  0  0  0  0  0  0
   -3.7810  -24.2270   21.8010 C   0  0  0  0  0  0  0  0  0  0  0  0
   -4.6210  -23.1910   22.0230 N   0  0  0  0  0  0  0  0  0  0  0  0
   -4.3970  -21.9990   21.4080 C   0  0  0  0  0  0  0  0  0  0  0  0
   -5.2450  -20.9310   21.6230 O   0  0  0  0  0  0  0  0  0  0  0  0
   -6.4370  -21.2770   22.3250 C   0  0  0  0  0  0  0  0  0  0  0  0
   -7.6040  -20.4010   21.8400 C   0  0  0  0  0  0  0  0  0  0  0  0
   -7.5590  -20.2000   20.3160 C   0  0  0  0  0  0  0  0  0  0  0  0
   -8.7210  -19.3340   19.8300 C   0  0  0  0  0  0  0  0  0  0  0  0
  -10.0670  -19.9040   20.2660 C   0  0  0  0  0  0  0  0  0  0  0  0
  -10.1220  -20.1230   21.7740 C   0  0  0  0  0  0  0  0  0  0  0  0
   -8.9610  -20.9890   22.2600 C   0  0  0  0  0  0  0  0  0  0  0  0
   -3.3020  -21.8670   20.5560 C   0  0  0  0  0  0  0  0  0  0  0  0
   -2.7920  -20.8370   19.7940 N   0  0  0  0  0  0  0  0  0  0  0  0
   -1.7270  -21.3420   19.2070 C   0  0  0  0  0  0  0  0  0  0  0  0
   -1.5270  -22.6490   19.5560 N   0  0  0  0  0  0  0  0  0  0  0  0
   -2.5260  -23.0000   20.4170 C   0  0  0  0  0  0  0  0  0  0  0  0
   -2.7040  -24.1930   20.9960 N   0  0  0  0  0  0  0  0  0  0  0  0
   -5.3590  -25.7970   24.5970 C   0  0  0  0  0  0  0  0  0  0  0  0
   -5.3450  -26.1480   25.9520 C   0  0  0  0  0  0  0  0  0  0  0  0
   -4.5810  -29.0530   28.8470 H   0  0  0  0  0  0  0  0  0  0  0  0
   -4.1320  -28.8530   27.2290 H   0  0  0  0  0  0  0  0  0  0  0  0
   -1.9885  -26.6504   26.3386 H   0  0  0  0  0  0  0  0  0  0  0  0
   -2.0312  -26.0190   23.9287 H   0  0  0  0  0  0  0  0  0  0  0  0
   -4.4590  -26.0700   21.8250 H   0  0  0  0  0  0  0  0  0  0  0  0
   -6.6744  -22.3352   22.1409 H   0  0  0  0  0  0  0  0  0  0  0  0
   -6.2837  -21.1118   23.4017 H   0  0  0  0  0  0  0  0  0  0  0  0
   -7.4910  -19.4184   22.3213 H   0  0  0  0  0  0  0  0  0  0  0  0
   -6.6115  -19.7097   20.0481 H   0  0  0  0  0  0  0  0  0  0  0  0
   -7.6394  -21.1863   19.8356 H   0  0  0  0  0  0  0  0  0  0  0  0
   -8.6103  -18.3218   20.2462 H   0  0  0  0  0  0  0  0  0  0  0  0
   -8.6969  -19.3115   18.7305 H   0  0  0  0  0  0  0  0  0  0  0  0
  -10.8625  -19.2009   19.9782 H   0  0  0  0  0  0  0  0  0  0  0  0
  -10.2049  -20.8770   19.7718 H   0  0  0  0  0  0  0  0  0  0  0  0
  -10.0744  -19.1466   22.2783 H   0  0  0  0  0  0  0  0  0  0  0  0
  -11.0617  -20.6430   22.0118 H   0  0  0  0  0  0  0  0  0  0  0  0
   -8.9982  -21.0533   23.3575 H   0  0  0  0  0  0  0  0  0  0  0  0
   -9.0604  -21.9857   21.8053 H   0  0  0  0  0  0  0  0  0  0  0  0
   -1.0772  -20.7807   18.5195 H   0  0  0  0  0  0  0  0  0  0  0  0
   -0.7840  -23.2550   19.2440 H   0  0  0  0  0  0  0  0  0  0  0  0
   -6.3173  -25.5568   24.1133 H   0  0  0  0  0  0  0  0  0  0  0  0
   -6.2847  -26.1922   26.5221 H   0  0  0  0  0  0  0  0  0  0  0  0
  1  2  1  0
  2  3  2  0
  2  4  2  0
  2  5  1  0
  5  6  2  0
  6  7  1  0
  7  8  2  0
  8  9  1  0
  9 10  1  0
 10 11  2  0
 11 12  1  0
 12 13  1  0
 13 14  1  0
 14 15  1  0
 15 16  1  0
 16 17  1  0
 17 18  1  0
 18 19  1  0
 19 20  1  0
 12 21  2  0
 21 22  1  0
 22 23  2  0
 23 24  1  0
 24 25  1  0
 25 26  2  0
  8 27  1  0
 27 28  2  0
 28  5  1  0
 26 10  1  0
 20 15  1  0
 25 21  1  0
  1 29  1  0
  1 30  1  0
  6 31  1  0
  7 32  1  0
  9 33  1  0
 14 34  1  0
 14 35  1  0
 15 36  1  0
 16 37  1  0
 16 38  1  0
 17 39  1  0
 17 40  1  0
 18 41  1  0
 18 42  1  0
 19 43  1  0
 19 44  1  0
 20 45  1  0
 20 46  1  0
 23 47  1  0
 24 48  1  0
 27 49  1  0
 28 50  1  0
M  END
>  <meeko>  (4) 
{"is_sidechain": [false], "free_energy": -8.746, "intermolecular_energy": -12.502, "internal_energy": -0.736}

$$$$
4eor_ligand
     RDKit          3D

 50 53  0  0  0  0  0  0  0  0999 V2000
   -7.7110  -19.3580   19.9930 N   0  0  0  0  0  0  0  0  0  0  0  0
   -8.9510  -19.1890   21.1200 S   0  0  0  0  0  0  0  0  0  0  0  0
  -10.1750  -19.4330   20.3900 O   0  0  0  0  0  0  0  0  0  0  0  0
   -8.7160  -17.9750   21.8630 O   0  0  0  0  0  0  0  0  0  0  0  0
   -8.6470  -20.5690   22.1890 C   0  0  0  0  0  0  0  0  0  0  0  0
   -7.3350  -20.9180   22.5020 C   0  0  0  0  0  0  0  0  0  0  0  0
   -7.0980  -22.0070   23.3470 C   0  0  0  0  0  0  0  0  0  0  0  0
   -8.1550  -22.7530   23.8990 C   0  0  0  0  0  0  0  0  0  0  0  0
   -7.8410  -23.8390   24.7230 N   0  0  0  0  0  0  0  0  0  0  0  0
   -6.7300  -24.6700   24.8640 C   0  0  0  0  0  0  0  0  0  0  0  0
   -5.9560  -24.7300   23.7570 N   0  0  0  0  0  0  0  0  0  0  0  0
   -4.8400  -25.5070   23.7580 C   0  0  0  0  0  0  0  0  0  0  0  0
   -4.0380  -25.5790   22.6360 O   0  0  0  0  0  0  0  0  0  0  0  0
   -3.0980  -24.5110   22.5330 C   0  0  0  0  0  0  0  0  0  0  0  0
   -3.8040  -23.2380   22.0350 C   0  0  0  0  0  0  0  0  0  0  0  0
   -2.8910  -22.0060   22.1560 C   0  0  0  0  0  0  0  0  0  0  0  0
   -3.5880  -20.7410   21.6570 C   0  0  0  0  0  0  0  0  0  0  0  0
   -4.0950  -20.9060   20.2280 C   0  0  0  0  0  0  0  0  0  0  0  0
   -4.9910  -22.1320   20.0880 C   0  0  0  0  0  0  0  0  0  0  0  0
   -4.2950  -23.3970   20.5870 C   0  0  0  0  0  0  0  0  0  0  0  0
   -4.5140  -26.2310   24.9030 C   0  0  0  0  0  0  0  0  0  0  0  0
   -3.4900  -27.0900   25.2420 N   0  0  0  0  0  0  0  0  0  0  0  0
   -3.7430  -27.4500   26.4830 C   0  0  0  0  0  0  0  0  0  0  0  0
   -4.8830  -26.8640   26.9580 N   0  0  0  0  0  0  0  0  0  0  0  0
   -5.3890  -26.0820   25.9610 C   0  0  0  0  0  0  0  0  0  0  0  0
   -6.4970  -25.3340   26.0100 N   0  0  0  0  0  0  0  0  0  0  0  0
   -9.4610  -22.3720   23.5710 C   0  0  0  0  0  0  0  0  0  0  0  0
   -9.7140  -21.2840   22.7270 C   0  0  0  0  0  0  0  0  0  0  0  0
   -7.0990  -18.5440   19.9430 H   0  0  0  0  0  0  0  0  0  0  0  0
   -7.1920  -20.2130   20.2010 H   0  0  0  0  0  0  0  0  0  0  0  0
   -6.4936  -20.3426   22.0885 H   0  0  0  0  0  0  0  0  0  0  0  0
   -6.0612  -22.2865   23.5854 H   0  0  0  0  0  0  0  0  0  0  0  0
   -8.5670  -24.1680   25.3430 H   0  0  0  0  0  0  0  0  0  0  0  0
   -2.6543  -24.3191   23.5211 H   0  0  0  0  0  0  0  0  0  0  0  0
   -2.3093  -24.7905   21.8190 H   0  0  0  0  0  0  0  0  0  0  0  0
   -4.6810  -23.0826   22.6806 H   0  0  0  0  0  0  0  0  0  0  0  0
   -2.6141  -21.8687   23.2117 H   0  0  0  0  0  0  0  0  0  0  0  0
   -1.9985  -22.1757   21.5358 H   0  0  0  0  0  0  0  0  0  0  0  0
   -4.4412  -20.5202   22.3153 H   0  0  0  0  0  0  0  0  0  0  0  0
   -2.8583  -19.9180   21.6704 H   0  0  0  0  0  0  0  0  0  0  0  0
   -4.6689  -20.0106   19.9473 H   0  0  0  0  0  0  0  0  0  0  0  0
   -3.2253  -21.0384   19.5676 H   0  0  0  0  0  0  0  0  0  0  0  0
   -5.9074  -21.9734   20.6754 H   0  0  0  0  0  0  0  0  0  0  0  0
   -5.2261  -22.2664   19.0219 H   0  0  0  0  0  0  0  0  0  0  0  0
   -5.0040  -24.2367   20.5405 H   0  0  0  0  0  0  0  0  0  0  0  0
   -3.4213  -23.5851   19.9457 H   0  0  0  0  0  0  0  0  0  0  0  0
   -3.1138  -28.1383   27.0664 H   0  0  0  0  0  0  0  0  0  0  0  0
   -5.2880  -26.9770   27.8750 H   0  0  0  0  0  0  0  0  0  0  0  0
  -10.3072  -22.9397   23.9853 H   0  0  0  0  0  0  0  0  0  0  0  0
  -10.7489  -20.9958   22.4904 H   0  0  0  0  0  0  0  0  0  0  0  0
  1  2  1  0
  2  3  2  0
  2  4  2  0
  2  5  1  0
  5  6  2  0
  6  7  1  0
  7  8  2  0
  8  9  1  0
  9 10  1  0
 10 11  2  0
 11 12  1  0
 12 13  1  0
 13 14  1  0
 14 15  1  0
 15 16  1  0
 16 17  1  0
 17 18  1  0
 18 19  1  0
 19 20  1  0
 12 21  2  0
 21 22  1  0
 22 23  2  0
 23 24  1  0
 24 25  1  0
 25 26  2  0
  8 27  1  0
 27 28  2  0
 28  5  1  0
 26 10  1  0
 20 15  1  0
 25 21  1  0
  1 29  1  0
  1 30  1  0
  6 31  1  0
  7 32  1  0
  9 33  1  0
 14 34  1  0
 14 35  1  0
 15 36  1  0
 16 37  1  0
 16 38  1  0
 17 39  1  0
 17 40  1  0
 18 41  1  0
 18 42  1  0
 19 43  1  0
 19 44  1  0
 20 45  1  0
 20 46  1  0
 23 47  1  0
 24 48  1  0
 27 49  1  0
 28 50  1  0
M  END
>  <meeko>  (5) 
{"is_sidechain": [false], "free_energy": -8.602, "intermolecular_energy": -12.097, "internal_energy": -0.941}

$$$$
4eor_ligand
     RDKit          3D

 50 53  0  0  0  0  0  0  0  0999 V2000
    2.1850  -20.4510   21.1150 N   0  0  0  0  0  0  0  0  0  0  0  0
    2.2950  -21.7970   20.1070 S   0  0  0  0  0  0  0  0  0  0  0  0
    3.2880  -22.6550   20.7120 O   0  0  0  0  0  0  0  0  0  0  0  0
    2.3970  -21.3270   18.7460 O   0  0  0  0  0  0  0  0  0  0  0  0
    0.7000  -22.5340   20.3290 C   0  0  0  0  0  0  0  0  0  0  0  0
    0.5430  -23.9040   20.1270 C   0  0  0  0  0  0  0  0  0  0  0  0
   -0.7180  -24.4840   20.3050 C   0  0  0  0  0  0  0  0  0  0  0  0
   -1.8320  -23.7180   20.6930 C   0  0  0  0  0  0  0  0  0  0  0  0
   -3.0640  -24.3630   20.8350 N   0  0  0  0  0  0  0  0  0  0  0  0
   -4.0200  -24.4340   21.8470 C   0  0  0  0  0  0  0  0  0  0  0  0
   -4.9240  -23.4290   21.8080 N   0  0  0  0  0  0  0  0  0  0  0  0
   -5.9120  -23.3770   22.7400 C   0  0  0  0  0  0  0  0  0  0  0  0
   -6.8440  -22.3580   22.7140 O   0  0  0  0  0  0  0  0  0  0  0  0
   -6.3950  -21.1880   22.0340 C   0  0  0  0  0  0  0  0  0  0  0  0
   -7.6000  -20.3150   21.6440 C   0  0  0  0  0  0  0  0  0  0  0  0
   -7.5810  -19.9690   20.1450 C   0  0  0  0  0  0  0  0  0  0  0  0
   -8.7800  -19.1070   19.7530 C   0  0  0  0  0  0  0  0  0  0  0  0
  -10.0980  -19.7660   20.1440 C   0  0  0  0  0  0  0  0  0  0  0  0
  -10.1280  -20.1280   21.6250 C   0  0  0  0  0  0  0  0  0  0  0  0
   -8.9290  -20.9910   22.0180 C   0  0  0  0  0  0  0  0  0  0  0  0
   -5.9740  -24.3610   23.7240 C   0  0  0  0  0  0  0  0  0  0  0  0
   -6.8140  -24.6080   24.7910 N   0  0  0  0  0  0  0  0  0  0  0  0
   -6.3440  -25.7050   25.3480 C   0  0  0  0  0  0  0  0  0  0  0  0
   -5.2410  -26.1750   24.6910 N   0  0  0  0  0  0  0  0  0  0  0  0
   -4.9900  -25.3270   23.6520 C   0  0  0  0  0  0  0  0  0  0  0  0
   -3.9990  -25.4230   22.7590 N   0  0  0  0  0  0  0  0  0  0  0  0
   -1.6390  -22.3450   20.8940 C   0  0  0  0  0  0  0  0  0  0  0  0
   -0.3840  -21.7520   20.7220 C   0  0  0  0  0  0  0  0  0  0  0  0
    2.0830  -19.5740   20.6050 H   0  0  0  0  0  0  0  0  0  0  0  0
    1.4220  -20.5980   21.7770 H   0  0  0  0  0  0  0  0  0  0  0  0
    1.4022  -24.5235   19.8304 H   0  0  0  0  0  0  0  0  0  0  0  0
   -0.8409  -25.5642   20.1376 H   0  0  0  0  0  0  0  0  0  0  0  0
   -3.3530  -24.9690   20.0790 H   0  0  0  0  0  0  0  0  0  0  0  0
   -5.7281  -20.6151   22.6951 H   0  0  0  0  0  0  0  0  0  0  0  0
   -5.8520  -21.4835   21.1242 H   0  0  0  0  0  0  0  0  0  0  0  0
   -7.5176  -19.3787   22.2154 H   0  0  0  0  0  0  0  0  0  0  0  0
   -6.6560  -19.4192   19.9170 H   0  0  0  0  0  0  0  0  0  0  0  0
   -7.6300  -20.9079   19.5739 H   0  0  0  0  0  0  0  0  0  0  0  0
   -8.7023  -18.1350   20.2621 H   0  0  0  0  0  0  0  0  0  0  0  0
   -8.7698  -18.9807   18.6603 H   0  0  0  0  0  0  0  0  0  0  0  0
  -10.9223  -19.0698   19.9301 H   0  0  0  0  0  0  0  0  0  0  0  0
  -10.2049  -20.6929   19.5614 H   0  0  0  0  0  0  0  0  0  0  0  0
  -10.1116  -19.2024   22.2191 H   0  0  0  0  0  0  0  0  0  0  0  0
  -11.0448  -20.7038   21.8198 H   0  0  0  0  0  0  0  0  0  0  0  0
   -8.9508  -21.1591   23.1049 H   0  0  0  0  0  0  0  0  0  0  0  0
   -8.9965  -21.9437   21.4723 H   0  0  0  0  0  0  0  0  0  0  0  0
   -6.7852  -26.1847   26.2341 H   0  0  0  0  0  0  0  0  0  0  0  0
   -4.7010  -26.9960   24.9200 H   0  0  0  0  0  0  0  0  0  0  0  0
   -2.4930  -21.7198   21.1936 H   0  0  0  0  0  0  0  0  0  0  0  0
   -0.2535  -20.6737   20.8961 H   0  0  0  0  0  0  0  0  0  0  0  0
  1  2  1  0
  2  3  2  0
  2  4  2  0
  2  5  1  0
  5  6  2  0
  6  7  1  0
  7  8  2  0
  8  9  1  0
  9 10  1  0
 10 11  2  0
 11 12  1  0
 12 13  1  0
 13 14  1  0
 14 15  1  0
 15 16  1  0
 16 17  1  0
 17 18  1  0
 18 19  1  0
 19 20  1  0
 12 21  2  0
 21 22  1  0
 22 23  2  0
 23 24  1  0
 24 25  1  0
 25 26  2  0
  8 27  1  0
 27 28  2  0
 28  5  1  0
 26 10  1  0
 20 15  1  0
 25 21  1  0
  1 29  1  0
  1 30  1  0
  6 31  1  0
  7 32  1  0
  9 33  1  0
 14 34  1  0
 14 35  1  0
 15 36  1  0
 16 37  1  0
 16 38  1  0
 17 39  1  0
 17 40  1  0
 18 41  1  0
 18 42  1  0
 19 43  1  0
 19 44  1  0
 20 45  1  0
 20 46  1  0
 23 47  1  0
 24 48  1  0
 27 49  1  0
 28 50  1  0
M  END
>  <meeko>  (6) 
{"is_sidechain": [false], "free_energy": -8.479, "intermolecular_energy": -12.177, "internal_energy": -0.692}

$$$$
4eor_ligand
     RDKit          3D

 50 53  0  0  0  0  0  0  0  0999 V2000
   -8.7090  -18.6980   19.0120 N   0  0  0  0  0  0  0  0  0  0  0  0
   -8.9070  -19.2940   20.5750 S   0  0  0  0  0  0  0  0  0  0  0  0
  -10.1870  -19.9660   20.5750 O   0  0  0  0  0  0  0  0  0  0  0  0
   -8.5850  -18.2350   21.5000 O   0  0  0  0  0  0  0  0  0  0  0  0
   -7.6270  -20.5160   20.6520 C   0  0  0  0  0  0  0  0  0  0  0  0
   -6.9710  -20.8970   19.4830 C   0  0  0  0  0  0  0  0  0  0  0  0
   -5.9600  -21.8610   19.5470 C   0  0  0  0  0  0  0  0  0  0  0  0
   -5.5800  -22.4490   20.7670 C   0  0  0  0  0  0  0  0  0  0  0  0
   -4.5710  -23.4180   20.7510 N   0  0  0  0  0  0  0  0  0  0  0  0
   -3.7720  -24.0130   21.7270 C   0  0  0  0  0  0  0  0  0  0  0  0
   -4.4010  -24.9890   22.4190 N   0  0  0  0  0  0  0  0  0  0  0  0
   -3.7360  -25.6520   23.4020 C   0  0  0  0  0  0  0  0  0  0  0  0
   -4.3630  -26.6510   24.1190 O   0  0  0  0  0  0  0  0  0  0  0  0
   -5.2940  -26.1680   25.0850 C   0  0  0  0  0  0  0  0  0  0  0  0
   -4.5990  -26.0030   26.4460 C   0  0  0  0  0  0  0  0  0  0  0  0
   -5.5990  -25.5990   27.5430 C   0  0  0  0  0  0  0  0  0  0  0  0
   -4.9120  -25.4400   28.8980 C   0  0  0  0  0  0  0  0  0  0  0  0
   -4.1500  -26.7020   29.2930 C   0  0  0  0  0  0  0  0  0  0  0  0
   -3.1640  -27.1240   28.2090 C   0  0  0  0  0  0  0  0  0  0  0  0
   -3.8510  -27.2830   26.8540 C   0  0  0  0  0  0  0  0  0  0  0  0
   -2.4140  -25.3100   23.6810 C   0  0  0  0  0  0  0  0  0  0  0  0
   -1.4710  -25.7600   24.5810 N   0  0  0  0  0  0  0  0  0  0  0  0
   -0.4000  -25.0310   24.3460 C   0  0  0  0  0  0  0  0  0  0  0  0
   -0.6100  -24.1320   23.3370 N   0  0  0  0  0  0  0  0  0  0  0  0
   -1.8930  -24.2970   22.9020 C   0  0  0  0  0  0  0  0  0  0  0  0
   -2.5030  -23.6140   21.9270 N   0  0  0  0  0  0  0  0  0  0  0  0
   -6.2530  -22.0390   21.9240 C   0  0  0  0  0  0  0  0  0  0  0  0
   -7.2670  -21.0750   21.8760 C   0  0  0  0  0  0  0  0  0  0  0  0
   -9.4810  -18.9370   18.3890 H   0  0  0  0  0  0  0  0  0  0  0  0
   -8.5590  -17.6890   19.0620 H   0  0  0  0  0  0  0  0  0  0  0  0
   -7.2458  -20.4438   18.5191 H   0  0  0  0  0  0  0  0  0  0  0  0
   -5.4499  -22.1666   18.6216 H   0  0  0  0  0  0  0  0  0  0  0  0
   -4.2830  -23.7640   19.8470 H   0  0  0  0  0  0  0  0  0  0  0  0
   -5.6882  -25.1950   24.7566 H   0  0  0  0  0  0  0  0  0  0  0  0
   -6.1185  -26.8893   25.1849 H   0  0  0  0  0  0  0  0  0  0  0  0
   -3.8628  -25.1933   26.3348 H   0  0  0  0  0  0  0  0  0  0  0  0
   -6.0667  -24.6429   27.2653 H   0  0  0  0  0  0  0  0  0  0  0  0
   -6.3539  -26.3943   27.6308 H   0  0  0  0  0  0  0  0  0  0  0  0
   -4.2054  -24.5987   28.8435 H   0  0  0  0  0  0  0  0  0  0  0  0
   -5.6864  -25.2540   29.6567 H   0  0  0  0  0  0  0  0  0  0  0  0
   -3.5963  -26.5083   30.2235 H   0  0  0  0  0  0  0  0  0  0  0  0
   -4.8782  -27.5148   29.4315 H   0  0  0  0  0  0  0  0  0  0  0  0
   -2.3787  -26.3585   28.1233 H   0  0  0  0  0  0  0  0  0  0  0  0
   -2.7358  -28.0965   28.4935 H   0  0  0  0  0  0  0  0  0  0  0  0
   -3.0905  -27.5103   26.0925 H   0  0  0  0  0  0  0  0  0  0  0  0
   -4.5836  -28.0997   26.9330 H   0  0  0  0  0  0  0  0  0  0  0  0
    0.5481  -25.1327   24.8944 H   0  0  0  0  0  0  0  0  0  0  0  0
    0.0510  -23.4640   22.9710 H   0  0  0  0  0  0  0  0  0  0  0  0
   -5.9791  -22.4840   22.8920 H   0  0  0  0  0  0  0  0  0  0  0  0
   -7.7763  -20.7610   22.7991 H   0  0  0  0  0  0  0  0  0  0  0  0
  1  2  1  0
  2  3  2  0
  2  4  2  0
  2  5  1  0
  5  6  2  0
  6  7  1  0
  7  8  2  0
  8  9  1  0
  9 10  1  0
 10 11  2  0
 11 12  1  0
 12 13  1  0
 13 14  1  0
 14 15  1  0
 15 16  1  0
 16 17  1  0
 17 18  1  0
 18 19  1  0
 19 20  1  0
 12 21  2  0
 21 22  1  0
 22 23  2  0
 23 24  1  0
 24 25  1  0
 25 26  2  0
  8 27  1  0
 27 28  2  0
 28  5  1  0
 26 10  1  0
 20 15  1  0
 25 21  1  0
  1 29  1  0
  1 30  1  0
  6 31  1  0
  7 32  1  0
  9 33  1  0
 14 34  1  0
 14 35  1  0
 15 36  1  0
 16 37  1  0
 16 38  1  0
 17 39  1  0
 17 40  1  0
 18 41  1  0
 18 42  1  0
 19 43  1  0
 19 44  1  0
 20 45  1  0
 20 46  1  0
 23 47  1  0
 24 48  1  0
 27 49  1  0
 28 50  1  0
M  END
>  <meeko>  (7) 
{"is_sidechain": [false], "free_energy": -8.405, "intermolecular_energy": -11.975, "internal_energy": -0.792}

$$$$
4eor_ligand
     RDKit          3D

 50 53  0  0  0  0  0  0  0  0999 V2000
   -0.2170  -25.3650   20.5380 N   0  0  0  0  0  0  0  0  0  0  0  0
   -0.0810  -24.1020   21.6440 S   0  0  0  0  0  0  0  0  0  0  0  0
    1.1880  -23.4730   21.3590 O   0  0  0  0  0  0  0  0  0  0  0  0
   -0.4220  -24.6130   22.9490 O   0  0  0  0  0  0  0  0  0  0  0  0
   -1.3800  -23.0220   21.1070 C   0  0  0  0  0  0  0  0  0  0  0  0
   -1.8020  -21.9890   21.9420 C   0  0  0  0  0  0  0  0  0  0  0  0
   -2.8260  -21.1380   21.5140 C   0  0  0  0  0  0  0  0  0  0  0  0
   -3.4340  -21.2920   20.2560 C   0  0  0  0  0  0  0  0  0  0  0  0
   -4.4630  -20.4130   19.9030 N   0  0  0  0  0  0  0  0  0  0  0  0
   -5.8340  -20.3630   20.1530 C   0  0  0  0  0  0  0  0  0  0  0  0
   -6.2080  -21.0480   21.2560 N   0  0  0  0  0  0  0  0  0  0  0  0
   -7.5190  -21.0830   21.6150 C   0  0  0  0  0  0  0  0  0  0  0  0
   -7.9190  -21.7780   22.7390 O   0  0  0  0  0  0  0  0  0  0  0  0
   -6.8410  -22.1550   23.5930 C   0  0  0  0  0  0  0  0  0  0  0  0
   -6.4690  -23.6270   23.3480 C   0  0  0  0  0  0  0  0  0  0  0  0
   -4.9920  -23.7740   22.9430 C   0  0  0  0  0  0  0  0  0  0  0  0
   -4.6190  -25.2360   22.7050 C   0  0  0  0  0  0  0  0  0  0  0  0
   -4.9400  -26.1030   23.9180 C   0  0  0  0  0  0  0  0  0  0  0  0
   -6.3980  -25.9580   24.3410 C   0  0  0  0  0  0  0  0  0  0  0  0
   -6.7720  -24.4960   24.5800 C   0  0  0  0  0  0  0  0  0  0  0  0
   -8.4570  -20.4110   20.8330 C   0  0  0  0  0  0  0  0  0  0  0  0
   -9.8250  -20.2420   20.9000 N   0  0  0  0  0  0  0  0  0  0  0  0
  -10.1270  -19.4930   19.8600 C   0  0  0  0  0  0  0  0  0  0  0  0
   -9.0180  -19.1730   19.1260 N   0  0  0  0  0  0  0  0  0  0  0  0
   -7.9430  -19.7530   19.7340 C   0  0  0  0  0  0  0  0  0  0  0  0
   -6.6670  -19.6890   19.3390 N   0  0  0  0  0  0  0  0  0  0  0  0
   -2.9820  -22.3350   19.4380 C   0  0  0  0  0  0  0  0  0  0  0  0
   -1.9570  -23.1940   19.8510 C   0  0  0  0  0  0  0  0  0  0  0  0
   -0.6020  -26.2170   20.9470 H   0  0  0  0  0  0  0  0  0  0  0  0
   -0.7660  -25.0450   19.7390 H   0  0  0  0  0  0  0  0  0  0  0  0
   -1.3346  -21.8446   22.9272 H   0  0  0  0  0  0  0  0  0  0  0  0
   -3.1638  -20.3286   22.1779 H   0  0  0  0  0  0  0  0  0  0  0  0
   -4.2220  -19.6490   19.2880 H   0  0  0  0  0  0  0  0  0  0  0  0
   -5.9690  -21.5185   23.3822 H   0  0  0  0  0  0  0  0  0  0  0  0
   -7.1487  -22.0290   24.6416 H   0  0  0  0  0  0  0  0  0  0  0  0
   -7.0923  -23.9817   22.5139 H   0  0  0  0  0  0  0  0  0  0  0  0
   -4.8169  -23.2054   22.0178 H   0  0  0  0  0  0  0  0  0  0  0  0
   -4.3693  -23.3884   23.7638 H   0  0  0  0  0  0  0  0  0  0  0  0
   -5.1831  -25.6117   21.8386 H   0  0  0  0  0  0  0  0  0  0  0  0
   -3.5356  -25.2888   22.5219 H   0  0  0  0  0  0  0  0  0  0  0  0
   -4.7442  -27.1558   23.6663 H   0  0  0  0  0  0  0  0  0  0  0  0
   -4.3047  -25.7745   24.7538 H   0  0  0  0  0  0  0  0  0  0  0  0
   -7.0419  -26.3661   23.5480 H   0  0  0  0  0  0  0  0  0  0  0  0
   -6.5389  -26.5075   25.2835 H   0  0  0  0  0  0  0  0  0  0  0  0
   -7.8470  -24.4344   24.8050 H   0  0  0  0  0  0  0  0  0  0  0  0
   -6.1729  -24.1203   25.4226 H   0  0  0  0  0  0  0  0  0  0  0  0
  -11.1470  -19.1646   19.6117 H   0  0  0  0  0  0  0  0  0  0  0  0
   -8.9850  -18.6120   18.2890 H   0  0  0  0  0  0  0  0  0  0  0  0
   -3.4423  -22.4823   18.4499 H   0  0  0  0  0  0  0  0  0  0  0  0
   -1.6093  -23.9998   19.1879 H   0  0  0  0  0  0  0  0  0  0  0  0
  1  2  1  0
  2  3  2  0
  2  4  2  0
  2  5  1  0
  5  6  2  0
  6  7  1  0
  7  8  2  0
  8  9  1  0
  9 10  1  0
 10 11  2  0
 11 12  1  0
 12 13  1  0
 13 14  1  0
 14 15  1  0
 15 16  1  0
 16 17  1  0
 17 18  1  0
 18 19  1  0
 19 20  1  0
 12 21  2  0
 21 22  1  0
 22 23  2  0
 23 24  1  0
 24 25  1  0
 25 26  2  0
  8 27  1  0
 27 28  2  0
 28  5  1  0
 26 10  1  0
 20 15  1  0
 25 21  1  0
  1 29  1  0
  1 30  1  0
  6 31  1  0
  7 32  1  0
  9 33  1  0
 14 34  1  0
 14 35  1  0
 15 36  1  0
 16 37  1  0
 16 38  1  0
 17 39  1  0
 17 40  1  0
 18 41  1  0
 18 42  1  0
 19 43  1  0
 19 44  1  0
 20 45  1  0
 20 46  1  0
 23 47  1  0
 24 48  1  0
 27 49  1  0
 28 50  1  0
M  END
>  <meeko>  (8) 
{"is_sidechain": [false], "free_energy": -8.201, "intermolecular_energy": -11.368, "internal_energy": -1.117}

$$$$
4eor_ligand
     RDKit          3D

 50 53  0  0  0  0  0  0  0  0999 V2000
    1.7650  -21.1920   18.6290 N   0  0  0  0  0  0  0  0  0  0  0  0
    1.0290  -22.5810   18.0250 S   0  0  0  0  0  0  0  0  0  0  0  0
    1.7390  -23.6880   18.6250 O   0  0  0  0  0  0  0  0  0  0  0  0
    0.8890  -22.4270   16.5970 O   0  0  0  0  0  0  0  0  0  0  0  0
   -0.5790  -22.4770   18.7610 C   0  0  0  0  0  0  0  0  0  0  0  0
   -1.6840  -22.1980   17.9590 C   0  0  0  0  0  0  0  0  0  0  0  0
   -2.9520  -22.1180   18.5430 C   0  0  0  0  0  0  0  0  0  0  0  0
   -3.1420  -22.3220   19.9220 C   0  0  0  0  0  0  0  0  0  0  0  0
   -4.4370  -22.2100   20.4370 N   0  0  0  0  0  0  0  0  0  0  0  0
   -5.1050  -22.7590   21.5310 C   0  0  0  0  0  0  0  0  0  0  0  0
   -6.0620  -21.9510   22.0400 N   0  0  0  0  0  0  0  0  0  0  0  0
   -6.7910  -22.3640   23.1120 C   0  0  0  0  0  0  0  0  0  0  0  0
   -7.7720  -21.5520   23.6450 O   0  0  0  0  0  0  0  0  0  0  0  0
   -9.0600  -21.7530   23.0660 C   0  0  0  0  0  0  0  0  0  0  0  0
   -9.4420  -20.5380   22.2040 C   0  0  0  0  0  0  0  0  0  0  0  0
   -8.3270  -19.4780   22.1990 C   0  0  0  0  0  0  0  0  0  0  0  0
   -8.7010  -18.2730   21.3390 C   0  0  0  0  0  0  0  0  0  0  0  0
   -9.0650  -18.6880   19.9170 C   0  0  0  0  0  0  0  0  0  0  0  0
  -10.1610  -19.7490   19.9050 C   0  0  0  0  0  0  0  0  0  0  0  0
   -9.7860  -20.9550   20.7650 C   0  0  0  0  0  0  0  0  0  0  0  0
   -6.5350  -23.6150   23.6680 C   0  0  0  0  0  0  0  0  0  0  0  0
   -7.0650  -24.3280   24.7240 N   0  0  0  0  0  0  0  0  0  0  0  0
   -6.3930  -25.4600   24.7420 C   0  0  0  0  0  0  0  0  0  0  0  0
   -5.4550  -25.5100   23.7490 N   0  0  0  0  0  0  0  0  0  0  0  0
   -5.5320  -24.3380   23.0540 C   0  0  0  0  0  0  0  0  0  0  0  0
   -4.7880  -23.9780   22.0020 N   0  0  0  0  0  0  0  0  0  0  0  0
   -2.0130  -22.6080   20.6980 C   0  0  0  0  0  0  0  0  0  0  0  0
   -0.7370  -22.6930   20.1280 C   0  0  0  0  0  0  0  0  0  0  0  0
    2.4150  -20.7620   17.9700 H   0  0  0  0  0  0  0  0  0  0  0  0
    1.0390  -20.5390   18.9280 H   0  0  0  0  0  0  0  0  0  0  0  0
   -1.5599  -22.0422   16.8772 H   0  0  0  0  0  0  0  0  0  0  0  0
   -3.8216  -21.8901   17.9091 H   0  0  0  0  0  0  0  0  0  0  0  0
   -5.0940  -21.6540   19.9080 H   0  0  0  0  0  0  0  0  0  0  0  0
   -9.0402  -22.6549   22.4366 H   0  0  0  0  0  0  0  0  0  0  0  0
   -9.8025  -21.8755   23.8683 H   0  0  0  0  0  0  0  0  0  0  0  0
  -10.3394  -20.0921   22.6577 H   0  0  0  0  0  0  0  0  0  0  0  0
   -8.1516  -19.1395   23.2308 H   0  0  0  0  0  0  0  0  0  0  0  0
   -7.4201  -19.9346   21.7758 H   0  0  0  0  0  0  0  0  0  0  0  0
   -9.5635  -17.7639   21.7939 H   0  0  0  0  0  0  0  0  0  0  0  0
   -7.8301  -17.6029   21.2891 H   0  0  0  0  0  0  0  0  0  0  0  0
   -9.4182  -17.8037   19.3664 H   0  0  0  0  0  0  0  0  0  0  0  0
   -8.1685  -19.1139   19.4427 H   0  0  0  0  0  0  0  0  0  0  0  0
  -11.0897  -19.3073   20.2953 H   0  0  0  0  0  0  0  0  0  0  0  0
  -10.2949  -20.0936   18.8690 H   0  0  0  0  0  0  0  0  0  0  0  0
  -10.6348  -21.6542   20.7891 H   0  0  0  0  0  0  0  0  0  0  0  0
   -8.8982  -21.4306   20.3227 H   0  0  0  0  0  0  0  0  0  0  0  0
   -6.5655  -26.2679   25.4683 H   0  0  0  0  0  0  0  0  0  0  0  0
   -4.8170  -26.2650   23.5520 H   0  0  0  0  0  0  0  0  0  0  0  0
   -2.1307  -22.7696   21.7797 H   0  0  0  0  0  0  0  0  0  0  0  0
    0.1351  -22.9288   20.7556 H   0  0  0  0  0  0  0  0  0  0  0  0
  1  2  1  0
  2  3  2  0
  2  4  2  0
  2  5  1  0
  5  6  2  0
  6  7  1  0
  7  8  2  0
  8  9  1  0
  9 10  1  0
 10 11  2  0
 11 12  1  0
 12 13  1  0
 13 14  1  0
 14 15  1  0
 15 16  1  0
 16 17  1  0
 17 18  1  0
 18 19  1  0
 19 20  1  0
 12 21  2  0
 21 22  1  0
 22 23  2  0
 23 24  1  0
 24 25  1  0
 25 26  2  0
  8 27  1  0
 27 28  2  0
 28  5  1  0
 26 10  1  0
 20 15  1  0
 25 21  1  0
  1 29  1  0
  1 30  1  0
  6 31  1  0
  7 32  1  0
  9 33  1  0
 14 34  1  0
 14 35  1  0
 15 36  1  0
 16 37  1  0
 16 38  1  0
 17 39  1  0
 17 40  1  0
 18 41  1  0
 18 42  1  0
 19 43  1  0
 19 44  1  0
 20 45  1  0
 20 46  1  0
 23 47  1  0
 24 48  1  0
 27 49  1  0
 28 50  1  0
M  END
>  <meeko>  (9) 
{"is_sidechain": [false], "free_energy": -8.159, "intermolecular_energy": -11.951, "internal_energy": -0.476}

$$$$
