2zb1_ligand
     RDKit          3D

 47 50  0  0  0  0  0  0  0  0999 V2000
   37.1440   26.4410   35.9680 C   0  0  0  0  0  0  0  0  0  0  0  0
   38.1760   27.3810   35.5010 C   0  0  0  0  0  0  0  0  0  0  0  0
   39.3130   27.7280   36.0630 N   0  0  0  0  0  0  0  0  0  0  0  0
   39.9020   28.6390   35.2100 N   0  0  0  0  0  0  0  0  0  0  0  0
   39.0830   28.7840   34.1870 C   0  0  0  0  0  0  0  0  0  0  0  0
   39.2060   29.6180   32.9990 C   0  0  0  0  0  0  0  0  0  0  0  0
   38.1110   29.9010   32.1750 C   0  0  0  0  0  0  0  0  0  0  0  0
   38.2610   30.7010   31.0390 C   0  0  0  0  0  0  0  0  0  0  0  0
   39.5130   31.2350   30.6960 C   0  0  0  0  0  0  0  0  0  0  0  0
   39.6250   32.0940   29.4630 C   0  0  0  0  0  0  0  0  0  0  0  0
   40.6280   30.9730   31.5200 C   0  0  0  0  0  0  0  0  0  0  0  0
   41.9640   31.5150   31.2330 C   0  0  0  0  0  0  0  0  0  0  0  0
   42.4370   32.6470   31.9150 C   0  0  0  0  0  0  0  0  0  0  0  0
   43.7050   33.1710   31.6430 C   0  0  0  0  0  0  0  0  0  0  0  0
   44.5170   32.5710   30.6740 C   0  0  0  0  0  0  0  0  0  0  0  0
   45.8750   33.0890   30.3520 C   0  0  0  0  0  0  0  0  0  0  0  0
   46.3990   32.8020   29.2810 O   0  0  0  0  0  0  0  0  0  0  0  0
   46.4530   33.9060   31.3010 N   0  0  0  0  0  0  0  0  0  0  0  0
   47.7120   34.5710   31.0600 C   0  0  0  0  0  0  0  0  0  0  0  0
   48.6530   34.2770   32.1860 C   0  0  0  0  0  0  0  0  0  0  0  0
   48.5390   32.9870   32.9570 C   0  0  0  0  0  0  0  0  0  0  0  0
   49.7110   33.2120   32.0430 C   0  0  0  0  0  0  0  0  0  0  0  0
   44.0600   31.4350   29.9980 C   0  0  0  0  0  0  0  0  0  0  0  0
   42.7910   30.9170   30.2710 C   0  0  0  0  0  0  0  0  0  0  0  0
   40.4530   30.1620   32.6590 C   0  0  0  0  0  0  0  0  0  0  0  0
   37.9570   28.0080   34.3050 O   0  0  0  0  0  0  0  0  0  0  0  0
   37.1302   26.4284   37.0678 H   0  0  0  0  0  0  0  0  0  0  0  0
   36.1605   26.7601   35.5926 H   0  0  0  0  0  0  0  0  0  0  0  0
   37.3701   25.4321   35.5926 H   0  0  0  0  0  0  0  0  0  0  0  0
   37.1218   29.4894   32.4240 H   0  0  0  0  0  0  0  0  0  0  0  0
   37.3873   30.9148   30.4059 H   0  0  0  0  0  0  0  0  0  0  0  0
   39.7620   33.1445   29.7592 H   0  0  0  0  0  0  0  0  0  0  0  0
   40.4880   31.7662   28.8649 H   0  0  0  0  0  0  0  0  0  0  0  0
   38.7068   31.9984   28.8649 H   0  0  0  0  0  0  0  0  0  0  0  0
   41.8021   33.1284   32.6734 H   0  0  0  0  0  0  0  0  0  0  0  0
   44.0640   34.0548   32.1908 H   0  0  0  0  0  0  0  0  0  0  0  0
   45.8810   34.2580   32.0540 H   0  0  0  0  0  0  0  0  0  0  0  0
   48.1443   34.2075   30.1161 H   0  0  0  0  0  0  0  0  0  0  0  0
   47.5472   35.6565   30.9928 H   0  0  0  0  0  0  0  0  0  0  0  0
   48.6552   35.3452   32.4485 H   0  0  0  0  0  0  0  0  0  0  0  0
   48.6849   32.9835   34.0473 H   0  0  0  0  0  0  0  0  0  0  0  0
   47.7701   32.2068   33.0570 H   0  0  0  0  0  0  0  0  0  0  0  0
   50.7141   33.3733   32.4647 H   0  0  0  0  0  0  0  0  0  0  0  0
   50.1540   32.6648   31.1978 H   0  0  0  0  0  0  0  0  0  0  0  0
   44.7015   30.9477   29.2490 H   0  0  0  0  0  0  0  0  0  0  0  0
   42.4368   30.0301   29.7251 H   0  0  0  0  0  0  0  0  0  0  0  0
   41.3207   29.9492   33.3008 H   0  0  0  0  0  0  0  0  0  0  0  0
  1  2  1  0
  2  3  2  0
  3  4  1  0
  4  5  2  0
  5  6  1  0
  6  7  2  0
  7  8  1  0
  8  9  2  0
  9 10  1  0
  9 11  1  0
 11 12  1  0
 12 13  2  0
 13 14  1  0
 14 15  2  0
 15 16  1  0
 16 17  2  0
 16 18  1  0
 18 19  1  0
 19 20  1  0
 20 21  1  0
 21 22  1  0
 15 23  1  0
 23 24  2  0
 11 25  2  0
  5 26  1  0
 26  2  1  0
 25  6  1  0
 24 12  1  0
 22 20  1  0
  1 27  1  0
  1 28  1  0
  1 29  1  0
  7 30  1  0
  8 31  1  0
 10 32  1  0
 10 33  1  0
 10 34  1  0
 13 35  1  0
 14 36  1  0
 18 37  1  0
 19 38  1  0
 19 39  1  0
 20 40  1  0
 21 41  1  0
 21 42  1  0
 22 43  1  0
 22 44  1  0
 23 45  1  0
 24 46  1  0
 25 47  1  0
M  END
>  <meeko>  (1) 
{"is_sidechain": [false], "free_energy": -10.964, "intermolecular_energy": -14.169, "internal_energy": -0.921}

$$$$
2zb1_ligand
     RDKit          3D

 47 50  0  0  0  0  0  0  0  0999 V2000
   36.9850   26.4280   35.8940 C   0  0  0  0  0  0  0  0  0  0  0  0
   38.0830   27.3380   35.5320 C   0  0  0  0  0  0  0  0  0  0  0  0
   39.1450   27.6920   36.2230 N   0  0  0  0  0  0  0  0  0  0  0  0
   39.8530   28.5650   35.4230 N   0  0  0  0  0  0  0  0  0  0  0  0
   39.1740   28.6830   34.2980 C   0  0  0  0  0  0  0  0  0  0  0  0
   39.4610   29.4710   33.1070 C   0  0  0  0  0  0  0  0  0  0  0  0
   38.5730   29.5360   32.0290 C   0  0  0  0  0  0  0  0  0  0  0  0
   38.8790   30.2990   30.8980 C   0  0  0  0  0  0  0  0  0  0  0  0
   40.0850   31.0130   30.8160 C   0  0  0  0  0  0  0  0  0  0  0  0
   40.3690   31.8230   29.5780 C   0  0  0  0  0  0  0  0  0  0  0  0
   40.9890   30.9720   31.8990 C   0  0  0  0  0  0  0  0  0  0  0  0
   42.2600   31.7090   31.8910 C   0  0  0  0  0  0  0  0  0  0  0  0
   43.4480   31.0800   31.4870 C   0  0  0  0  0  0  0  0  0  0  0  0
   44.6630   31.7750   31.4820 C   0  0  0  0  0  0  0  0  0  0  0  0
   44.7050   33.1130   31.8910 C   0  0  0  0  0  0  0  0  0  0  0  0
   45.9720   33.8950   31.8990 C   0  0  0  0  0  0  0  0  0  0  0  0
   45.9700   35.0550   32.2990 O   0  0  0  0  0  0  0  0  0  0  0  0
   47.1000   33.2270   31.4720 N   0  0  0  0  0  0  0  0  0  0  0  0
   48.4100   33.8310   31.5450 C   0  0  0  0  0  0  0  0  0  0  0  0
   49.0090   33.8880   30.1750 C   0  0  0  0  0  0  0  0  0  0  0  0
   48.1250   34.0320   28.9630 C   0  0  0  0  0  0  0  0  0  0  0  0
   49.0040   35.1750   29.3890 C   0  0  0  0  0  0  0  0  0  0  0  0
   43.5250   33.7530   32.2820 C   0  0  0  0  0  0  0  0  0  0  0  0
   42.3140   33.0540   32.2890 C   0  0  0  0  0  0  0  0  0  0  0  0
   40.6610   30.1940   33.0270 C   0  0  0  0  0  0  0  0  0  0  0  0
   38.0300   27.9240   34.2970 O   0  0  0  0  0  0  0  0  0  0  0  0
   36.9078   26.3640   36.9894 H   0  0  0  0  0  0  0  0  0  0  0  0
   36.0400   26.8113   35.4816 H   0  0  0  0  0  0  0  0  0  0  0  0
   37.1863   25.4283   35.4816 H   0  0  0  0  0  0  0  0  0  0  0  0
   37.6241   28.9813   32.0711 H   0  0  0  0  0  0  0  0  0  0  0  0
   38.1656   30.3404   30.0617 H   0  0  0  0  0  0  0  0  0  0  0  0
   40.7201   32.8244   29.8676 H   0  0  0  0  0  0  0  0  0  0  0  0
   41.1447   31.3208   28.9812 H   0  0  0  0  0  0  0  0  0  0  0  0
   39.4496   31.9152   28.9812 H   0  0  0  0  0  0  0  0  0  0  0  0
   43.4239   30.0269   31.1701 H   0  0  0  0  0  0  0  0  0  0  0  0
   45.5845   31.2699   31.1568 H   0  0  0  0  0  0  0  0  0  0  0  0
   47.0590   32.2250   31.3560 H   0  0  0  0  0  0  0  0  0  0  0  0
   48.3220   34.8501   31.9496 H   0  0  0  0  0  0  0  0  0  0  0  0
   49.0551   33.2302   32.2029 H   0  0  0  0  0  0  0  0  0  0  0  0
   49.7834   33.1756   30.4955 H   0  0  0  0  0  0  0  0  0  0  0  0
   48.3566   33.4733   28.0442 H   0  0  0  0  0  0  0  0  0  0  0  0
   47.0496   33.9100   28.7666 H   0  0  0  0  0  0  0  0  0  0  0  0
   49.8785   35.4520   28.7820 H   0  0  0  0  0  0  0  0  0  0  0  0
   48.8377   36.2346   29.6333 H   0  0  0  0  0  0  0  0  0  0  0  0
   43.5494   34.8101   32.5852 H   0  0  0  0  0  0  0  0  0  0  0  0
   41.3936   33.5637   32.6099 H   0  0  0  0  0  0  0  0  0  0  0  0
   41.3665   30.1521   33.8699 H   0  0  0  0  0  0  0  0  0  0  0  0
  1  2  1  0
  2  3  2  0
  3  4  1  0
  4  5  2  0
  5  6  1  0
  6  7  2  0
  7  8  1  0
  8  9  2  0
  9 10  1  0
  9 11  1  0
 11 12  1  0
 12 13  2  0
 13 14  1  0
 14 15  2  0
 15 16  1  0
 16 17  2  0
 16 18  1  0
 18 19  1  0
 19 20  1  0
 20 21  1  0
 21 22  1  0
 15 23  1  0
 23 24  2  0
 11 25  2  0
  5 26  1  0
 26  2  1  0
 25  6  1  0
 24 12  1  0
 22 20  1  0
  1 27  1  0
  1 28  1  0
  1 29  1  0
  7 30  1  0
  8 31  1  0
 10 32  1  0
 10 33  1  0
 10 34  1  0
 13 35  1  0
 14 36  1  0
 18 37  1  0
 19 38  1  0
 19 39  1  0
 20 40  1  0
 21 41  1  0
 21 42  1  0
 22 43  1  0
 22 44  1  0
 23 45  1  0
 24 46  1  0
 25 47  1  0
M  END
>  <meeko>  (2) 
{"is_sidechain": [false], "free_energy": -10.938, "intermolecular_energy": -14.077, "internal_energy": -0.979}

$$$$
2zb1_ligand
     RDKit          3D

 47 50  0  0  0  0  0  0  0  0999 V2000
   49.2000   38.5010   27.0510 C   0  0  0  0  0  0  0  0  0  0  0  0
   49.5380   37.1550   27.5410 C   0  0  0  0  0  0  0  0  0  0  0  0
   50.3260   36.2420   27.0160 N   0  0  0  0  0  0  0  0  0  0  0  0
   50.2920   35.1630   27.8760 N   0  0  0  0  0  0  0  0  0  0  0  0
   49.4860   35.4940   28.8660 C   0  0  0  0  0  0  0  0  0  0  0  0
   49.0890   34.7360   30.0460 C   0  0  0  0  0  0  0  0  0  0  0  0
   50.0070   34.3760   31.0390 C   0  0  0  0  0  0  0  0  0  0  0  0
   49.5960   33.6450   32.1570 C   0  0  0  0  0  0  0  0  0  0  0  0
   48.2560   33.2520   32.3080 C   0  0  0  0  0  0  0  0  0  0  0  0
   47.8620   32.4680   33.5320 C   0  0  0  0  0  0  0  0  0  0  0  0
   47.3130   33.6160   31.3240 C   0  0  0  0  0  0  0  0  0  0  0  0
   45.8910   33.2560   31.4260 C   0  0  0  0  0  0  0  0  0  0  0  0
   45.3980   32.1070   30.7880 C   0  0  0  0  0  0  0  0  0  0  0  0
   44.0450   31.7610   30.8770 C   0  0  0  0  0  0  0  0  0  0  0  0
   43.1620   32.5700   31.6010 C   0  0  0  0  0  0  0  0  0  0  0  0
   41.7160   32.2420   31.7280 C   0  0  0  0  0  0  0  0  0  0  0  0
   41.1340   32.4510   32.7870 O   0  0  0  0  0  0  0  0  0  0  0  0
   41.1070   31.7400   30.5970 N   0  0  0  0  0  0  0  0  0  0  0  0
   39.6840   31.4970   30.5490 C   0  0  0  0  0  0  0  0  0  0  0  0
   39.3970   30.1210   31.0640 C   0  0  0  0  0  0  0  0  0  0  0  0
   38.7800   29.9320   32.4260 C   0  0  0  0  0  0  0  0  0  0  0  0
   37.9770   29.6310   31.1920 C   0  0  0  0  0  0  0  0  0  0  0  0
   43.6460   33.7100   32.2520 C   0  0  0  0  0  0  0  0  0  0  0  0
   44.9980   34.0530   32.1580 C   0  0  0  0  0  0  0  0  0  0  0  0
   47.7500   34.3510   30.2040 C   0  0  0  0  0  0  0  0  0  0  0  0
   48.9680   36.7560   28.7190 O   0  0  0  0  0  0  0  0  0  0  0  0
   49.0317   39.1712   27.9069 H   0  0  0  0  0  0  0  0  0  0  0  0
   50.0289   38.8876   26.4400 H   0  0  0  0  0  0  0  0  0  0  0  0
   48.2867   38.4502   26.4400 H   0  0  0  0  0  0  0  0  0  0  0  0
   51.0619   34.6711   30.9386 H   0  0  0  0  0  0  0  0  0  0  0  0
   50.3315   33.3739   32.9287 H   0  0  0  0  0  0  0  0  0  0  0  0
   48.1446   33.0303   34.4342 H   0  0  0  0  0  0  0  0  0  0  0  0
   46.7743   32.3039   33.5279 H   0  0  0  0  0  0  0  0  0  0  0  0
   48.3793   31.4973   33.5279 H   0  0  0  0  0  0  0  0  0  0  0  0
   46.0842   31.4702   30.2105 H   0  0  0  0  0  0  0  0  0  0  0  0
   43.6755   30.8531   30.3778 H   0  0  0  0  0  0  0  0  0  0  0  0
   41.5970   31.7910   29.7160 H   0  0  0  0  0  0  0  0  0  0  0  0
   39.1638   32.2384   31.1733 H   0  0  0  0  0  0  0  0  0  0  0  0
   39.3316   31.5816   29.5104 H   0  0  0  0  0  0  0  0  0  0  0  0
   40.3035   29.7545   30.5601 H   0  0  0  0  0  0  0  0  0  0  0  0
   39.1200   29.1110   33.0744 H   0  0  0  0  0  0  0  0  0  0  0  0
   38.6367   30.5712   33.3097 H   0  0  0  0  0  0  0  0  0  0  0  0
   37.7296   28.5898   30.9374 H   0  0  0  0  0  0  0  0  0  0  0  0
   37.0032   29.9588   30.7991 H   0  0  0  0  0  0  0  0  0  0  0  0
   42.9605   34.3384   32.8396 H   0  0  0  0  0  0  0  0  0  0  0  0
   45.3658   34.9580   32.6637 H   0  0  0  0  0  0  0  0  0  0  0  0
   47.0192   34.6310   29.4309 H   0  0  0  0  0  0  0  0  0  0  0  0
  1  2  1  0
  2  3  2  0
  3  4  1  0
  4  5  2  0
  5  6  1  0
  6  7  2  0
  7  8  1  0
  8  9  2  0
  9 10  1  0
  9 11  1  0
 11 12  1  0
 12 13  2  0
 13 14  1  0
 14 15  2  0
 15 16  1  0
 16 17  2  0
 16 18  1  0
 18 19  1  0
 19 20  1  0
 20 21  1  0
 21 22  1  0
 15 23  1  0
 23 24  2  0
 11 25  2  0
  5 26  1  0
 26  2  1  0
 25  6  1  0
 24 12  1  0
 22 20  1  0
  1 27  1  0
  1 28  1  0
  1 29  1  0
  7 30  1  0
  8 31  1  0
 10 32  1  0
 10 33  1  0
 10 34  1  0
 13 35  1  0
 14 36  1  0
 18 37  1  0
 19 38  1  0
 19 39  1  0
 20 40  1  0
 21 41  1  0
 21 42  1  0
 22 43  1  0
 22 44  1  0
 23 45  1  0
 24 46  1  0
 25 47  1  0
M  END
>  <meeko>  (3) 
{"is_sidechain": [false], "free_energy": -9.501, "intermolecular_energy": -12.233, "internal_energy": -0.965}

$$$$
2zb1_ligand
     RDKit          3D

 47 50  0  0  0  0  0  0  0  0999 V2000
   51.1560   34.3930   27.1740 C   0  0  0  0  0  0  0  0  0  0  0  0
   50.0600   33.6110   27.7690 C   0  0  0  0  0  0  0  0  0  0  0  0
   49.6960   32.3680   27.5440 N   0  0  0  0  0  0  0  0  0  0  0  0
   48.6110   32.1300   28.3640 N   0  0  0  0  0  0  0  0  0  0  0  0
   48.3900   33.2450   29.0320 C   0  0  0  0  0  0  0  0  0  0  0  0
   47.3740   33.5550   30.0300 C   0  0  0  0  0  0  0  0  0  0  0  0
   47.4500   34.6960   30.8350 C   0  0  0  0  0  0  0  0  0  0  0  0
   46.4620   34.9640   31.7860 C   0  0  0  0  0  0  0  0  0  0  0  0
   45.3740   34.0920   31.9600 C   0  0  0  0  0  0  0  0  0  0  0  0
   44.3340   34.4240   32.9970 C   0  0  0  0  0  0  0  0  0  0  0  0
   45.2730   32.9420   31.1490 C   0  0  0  0  0  0  0  0  0  0  0  0
   44.1530   31.9960   31.2610 C   0  0  0  0  0  0  0  0  0  0  0  0
   43.0530   32.0850   30.3930 C   0  0  0  0  0  0  0  0  0  0  0  0
   41.9820   31.1910   30.4990 C   0  0  0  0  0  0  0  0  0  0  0  0
   41.9930   30.1980   31.4840 C   0  0  0  0  0  0  0  0  0  0  0  0
   40.8800   29.2220   31.6340 C   0  0  0  0  0  0  0  0  0  0  0  0
   41.0000   28.0860   31.1870 O   0  0  0  0  0  0  0  0  0  0  0  0
   39.7670   29.6710   32.3140 N   0  0  0  0  0  0  0  0  0  0  0  0
   38.6690   28.7890   32.6350 C   0  0  0  0  0  0  0  0  0  0  0  0
   38.8740   28.2150   34.0020 C   0  0  0  0  0  0  0  0  0  0  0  0
   37.8460   27.2910   34.6020 C   0  0  0  0  0  0  0  0  0  0  0  0
   39.1840   26.7510   34.1810 C   0  0  0  0  0  0  0  0  0  0  0  0
   43.0900   30.0930   32.3460 C   0  0  0  0  0  0  0  0  0  0  0  0
   44.1570   30.9900   32.2390 C   0  0  0  0  0  0  0  0  0  0  0  0
   46.2820   32.6910   30.1980 C   0  0  0  0  0  0  0  0  0  0  0  0
   49.2800   34.2370   28.7030 O   0  0  0  0  0  0  0  0  0  0  0  0
   51.7703   34.8313   27.9744 H   0  0  0  0  0  0  0  0  0  0  0  0
   51.7800   33.7349   26.5515 H   0  0  0  0  0  0  0  0  0  0  0  0
   50.7367   35.1972   26.5515 H   0  0  0  0  0  0  0  0  0  0  0  0
   48.2960   35.3894   30.7184 H   0  0  0  0  0  0  0  0  0  0  0  0
   46.5369   35.8692   32.4064 H   0  0  0  0  0  0  0  0  0  0  0  0
   44.7612   34.2876   34.0015 H   0  0  0  0  0  0  0  0  0  0  0  0
   44.0137   35.4691   32.8736 H   0  0  0  0  0  0  0  0  0  0  0  0
   43.4674   33.7578   32.8736 H   0  0  0  0  0  0  0  0  0  0  0  0
   43.0330   32.8673   29.6200 H   0  0  0  0  0  0  0  0  0  0  0  0
   41.1305   31.2691   29.8070 H   0  0  0  0  0  0  0  0  0  0  0  0
   39.8260   30.5390   32.8250 H   0  0  0  0  0  0  0  0  0  0  0  0
   37.7257   29.3544   32.6123 H   0  0  0  0  0  0  0  0  0  0  0  0
   38.6255   27.9739   31.8976 H   0  0  0  0  0  0  0  0  0  0  0  0
   39.3541   29.1549   34.3122 H   0  0  0  0  0  0  0  0  0  0  0  0
   37.5953   27.3671   35.6704 H   0  0  0  0  0  0  0  0  0  0  0  0
   36.7997   27.0395   34.3740 H   0  0  0  0  0  0  0  0  0  0  0  0
   39.9122   26.4322   34.9413 H   0  0  0  0  0  0  0  0  0  0  0  0
   39.5216   25.9411   33.5176 H   0  0  0  0  0  0  0  0  0  0  0  0
   43.1130   29.3022   33.1103 H   0  0  0  0  0  0  0  0  0  0  0  0
   45.0093   30.9061   32.9294 H   0  0  0  0  0  0  0  0  0  0  0  0
   46.2112   31.7913   29.5691 H   0  0  0  0  0  0  0  0  0  0  0  0
  1  2  1  0
  2  3  2  0
  3  4  1  0
  4  5  2  0
  5  6  1  0
  6  7  2  0
  7  8  1  0
  8  9  2  0
  9 10  1  0
  9 11  1  0
 11 12  1  0
 12 13  2  0
 13 14  1  0
 14 15  2  0
 15 16  1  0
 16 17  2  0
 16 18  1  0
 18 19  1  0
 19 20  1  0
 20 21  1  0
 21 22  1  0
 15 23  1  0
 23 24  2  0
 11 25  2  0
  5 26  1  0
 26  2  1  0
 25  6  1  0
 24 12  1  0
 22 20  1  0
  1 27  1  0
  1 28  1  0
  1 29  1  0
  7 30  1  0
  8 31  1  0
 10 32  1  0
 10 33  1  0
 10 34  1  0
 13 35  1  0
 14 36  1  0
 18 37  1  0
 19 38  1  0
 19 39  1  0
 20 40  1  0
 21 41  1  0
 21 42  1  0
 22 43  1  0
 22 44  1  0
 23 45  1  0
 24 46  1  0
 25 47  1  0
M  END
>  <meeko>  (4) 
{"is_sidechain": [false], "free_energy": -8.93, "intermolecular_energy": -11.49, "internal_energy": -0.971}

$$$$
2zb1_ligand
     RDKit          3D

 47 50  0  0  0  0  0  0  0  0999 V2000
   51.1710   36.1090   25.9200 C   0  0  0  0  0  0  0  0  0  0  0  0
   50.2860   36.3200   27.0770 C   0  0  0  0  0  0  0  0  0  0  0  0
   49.5770   37.3760   27.4130 N   0  0  0  0  0  0  0  0  0  0  0  0
   48.9270   37.0470   28.5850 N   0  0  0  0  0  0  0  0  0  0  0  0
   49.2830   35.8130   28.8820 C   0  0  0  0  0  0  0  0  0  0  0  0
   48.8960   34.9690   30.0050 C   0  0  0  0  0  0  0  0  0  0  0  0
   49.7940   34.6340   31.0250 C   0  0  0  0  0  0  0  0  0  0  0  0
   49.3940   33.8190   32.0870 C   0  0  0  0  0  0  0  0  0  0  0  0
   48.0840   33.3160   32.1550 C   0  0  0  0  0  0  0  0  0  0  0  0
   47.6990   32.4440   33.3210 C   0  0  0  0  0  0  0  0  0  0  0  0
   47.1600   33.6540   31.1440 C   0  0  0  0  0  0  0  0  0  0  0  0
   45.7680   33.1790   31.1600 C   0  0  0  0  0  0  0  0  0  0  0  0
   44.8220   33.7700   32.0120 C   0  0  0  0  0  0  0  0  0  0  0  0
   43.4970   33.3200   32.0360 C   0  0  0  0  0  0  0  0  0  0  0  0
   43.1030   32.2620   31.2100 C   0  0  0  0  0  0  0  0  0  0  0  0
   41.7050   31.7500   31.1960 C   0  0  0  0  0  0  0  0  0  0  0  0
   40.7950   32.4720   30.8060 O   0  0  0  0  0  0  0  0  0  0  0  0
   41.5340   30.4450   31.6080 N   0  0  0  0  0  0  0  0  0  0  0  0
   40.2490   29.7890   31.5270 C   0  0  0  0  0  0  0  0  0  0  0  0
   39.8850   29.2400   32.8710 C   0  0  0  0  0  0  0  0  0  0  0  0
   38.9550   30.0030   33.7790 C   0  0  0  0  0  0  0  0  0  0  0  0
   38.4950   28.7230   33.1380 C   0  0  0  0  0  0  0  0  0  0  0  0
   44.0350   31.6750   30.3470 C   0  0  0  0  0  0  0  0  0  0  0  0
   45.3580   32.1260   30.3290 C   0  0  0  0  0  0  0  0  0  0  0  0
   47.5860   34.4740   30.0810 C   0  0  0  0  0  0  0  0  0  0  0  0
   50.1510   35.2830   27.9590 O   0  0  0  0  0  0  0  0  0  0  0  0
   52.1845   35.8674   26.2728 H   0  0  0  0  0  0  0  0  0  0  0  0
   50.7867   35.2773   25.3112 H   0  0  0  0  0  0  0  0  0  0  0  0
   51.2033   37.0246   25.3112 H   0  0  0  0  0  0  0  0  0  0  0  0
   50.8249   35.0162   30.9902 H   0  0  0  0  0  0  0  0  0  0  0  0
   50.1139   33.5680   32.8799 H   0  0  0  0  0  0  0  0  0  0  0  0
   47.9296   32.9662   34.2613 H   0  0  0  0  0  0  0  0  0  0  0  0
   46.6215   32.2272   33.2767 H   0  0  0  0  0  0  0  0  0  0  0  0
   48.2647   31.5017   33.2767 H   0  0  0  0  0  0  0  0  0  0  0  0
   45.1260   34.5978   32.6695 H   0  0  0  0  0  0  0  0  0  0  0  0
   42.7656   33.7981   32.7042 H   0  0  0  0  0  0  0  0  0  0  0  0
   42.3460   29.8570   31.7160 H   0  0  0  0  0  0  0  0  0  0  0  0
   39.4861   30.5145   31.2081 H   0  0  0  0  0  0  0  0  0  0  0  0
   40.3012   28.9680   30.7968 H   0  0  0  0  0  0  0  0  0  0  0  0
   40.8996   28.8252   32.9636 H   0  0  0  0  0  0  0  0  0  0  0  0
   39.1487   30.0373   34.8613 H   0  0  0  0  0  0  0  0  0  0  0  0
   38.5759   31.0350   33.8139 H   0  0  0  0  0  0  0  0  0  0  0  0
   38.3523   27.8212   33.7515 H   0  0  0  0  0  0  0  0  0  0  0  0
   37.6401   28.4315   32.5101 H   0  0  0  0  0  0  0  0  0  0  0  0
   43.7257   30.8562   29.6808 H   0  0  0  0  0  0  0  0  0  0  0  0
   46.0858   31.6497   29.6556 H   0  0  0  0  0  0  0  0  0  0  0  0
   46.8702   34.7338   29.2872 H   0  0  0  0  0  0  0  0  0  0  0  0
  1  2  1  0
  2  3  2  0
  3  4  1  0
  4  5  2  0
  5  6  1  0
  6  7  2  0
  7  8  1  0
  8  9  2  0
  9 10  1  0
  9 11  1  0
 11 12  1  0
 12 13  2  0
 13 14  1  0
 14 15  2  0
 15 16  1  0
 16 17  2  0
 16 18  1  0
 18 19  1  0
 19 20  1  0
 20 21  1  0
 21 22  1  0
 15 23  1  0
 23 24  2  0
 11 25  2  0
  5 26  1  0
 26  2  1  0
 25  6  1  0
 24 12  1  0
 22 20  1  0
  1 27  1  0
  1 28  1  0
  1 29  1  0
  7 30  1  0
  8 31  1  0
 10 32  1  0
 10 33  1  0
 10 34  1  0
 13 35  1  0
 14 36  1  0
 18 37  1  0
 19 38  1  0
 19 39  1  0
 20 40  1  0
 21 41  1  0
 21 42  1  0
 22 43  1  0
 22 44  1  0
 23 45  1  0
 24 46  1  0
 25 47  1  0
M  END
>  <meeko>  (5) 
{"is_sidechain": [false], "free_energy": -8.831, "intermolecular_energy": -11.467, "internal_energy": -0.867}

$$$$
2zb1_ligand
     RDKit          3D

 47 50  0  0  0  0  0  0  0  0999 V2000
   48.5510   40.2320   25.3980 C   0  0  0  0  0  0  0  0  0  0  0  0
   48.9290   39.4440   26.5810 C   0  0  0  0  0  0  0  0  0  0  0  0
   49.2760   39.8460   27.7850 N   0  0  0  0  0  0  0  0  0  0  0  0
   49.5290   38.7030   28.5150 N   0  0  0  0  0  0  0  0  0  0  0  0
   49.3190   37.6830   27.7070 C   0  0  0  0  0  0  0  0  0  0  0  0
   49.4340   36.2520   27.9530 C   0  0  0  0  0  0  0  0  0  0  0  0
   50.5570   35.5190   27.5550 C   0  0  0  0  0  0  0  0  0  0  0  0
   50.6360   34.1450   27.8020 C   0  0  0  0  0  0  0  0  0  0  0  0
   49.5910   33.4690   28.4520 C   0  0  0  0  0  0  0  0  0  0  0  0
   49.7240   31.9900   28.6980 C   0  0  0  0  0  0  0  0  0  0  0  0
   48.4560   34.1930   28.8740 C   0  0  0  0  0  0  0  0  0  0  0  0
   47.3330   33.5550   29.5760 C   0  0  0  0  0  0  0  0  0  0  0  0
   47.3990   33.3120   30.9570 C   0  0  0  0  0  0  0  0  0  0  0  0
   46.3360   32.7000   31.6310 C   0  0  0  0  0  0  0  0  0  0  0  0
   45.1910   32.3140   30.9260 C   0  0  0  0  0  0  0  0  0  0  0  0
   44.0320   31.6650   31.5980 C   0  0  0  0  0  0  0  0  0  0  0  0
   44.1880   30.6060   32.1950 O   0  0  0  0  0  0  0  0  0  0  0  0
   42.8320   32.3400   31.5230 N   0  0  0  0  0  0  0  0  0  0  0  0
   41.6610   31.8820   32.2340 C   0  0  0  0  0  0  0  0  0  0  0  0
   40.6000   31.4990   31.2500 C   0  0  0  0  0  0  0  0  0  0  0  0
   40.9740   30.8680   29.9340 C   0  0  0  0  0  0  0  0  0  0  0  0
   40.2860   30.0480   30.9880 C   0  0  0  0  0  0  0  0  0  0  0  0
   45.1090   32.5640   29.5510 C   0  0  0  0  0  0  0  0  0  0  0  0
   46.1750   33.1720   28.8820 C   0  0  0  0  0  0  0  0  0  0  0  0
   48.3960   35.5760   28.6110 C   0  0  0  0  0  0  0  0  0  0  0  0
   48.9300   38.0820   26.4520 O   0  0  0  0  0  0  0  0  0  0  0  0
   48.0960   41.1805   25.7193 H   0  0  0  0  0  0  0  0  0  0  0  0
   49.4469   40.4409   24.7950 H   0  0  0  0  0  0  0  0  0  0  0  0
   47.8274   39.6639   24.7950 H   0  0  0  0  0  0  0  0  0  0  0  0
   51.3863   36.0286   27.0426 H   0  0  0  0  0  0  0  0  0  0  0  0
   51.5283   33.5865   27.4830 H   0  0  0  0  0  0  0  0  0  0  0  0
   49.7412   31.7985   29.7811 H   0  0  0  0  0  0  0  0  0  0  0  0
   48.8695   31.4649   28.2464 H   0  0  0  0  0  0  0  0  0  0  0  0
   50.6585   31.6257   28.2464 H   0  0  0  0  0  0  0  0  0  0  0  0
   48.2986   33.6067   31.5172 H   0  0  0  0  0  0  0  0  0  0  0  0
   46.4008   32.5226   32.7147 H   0  0  0  0  0  0  0  0  0  0  0  0
   42.8290   33.2950   31.1960 H   0  0  0  0  0  0  0  0  0  0  0  0
   41.9234   31.0087   32.8492 H   0  0  0  0  0  0  0  0  0  0  0  0
   41.2867   32.6875   32.8829 H   0  0  0  0  0  0  0  0  0  0  0  0
   40.0146   32.3790   31.5549 H   0  0  0  0  0  0  0  0  0  0  0  0
   40.4350   31.1485   29.0171 H   0  0  0  0  0  0  0  0  0  0  0  0
   41.9051   30.7684   29.3568 H   0  0  0  0  0  0  0  0  0  0  0  0
   39.2435   29.7286   30.8426 H   0  0  0  0  0  0  0  0  0  0  0  0
   40.5050   29.1002   31.5016 H   0  0  0  0  0  0  0  0  0  0  0  0
   44.2028   32.2811   28.9954 H   0  0  0  0  0  0  0  0  0  0  0  0
   46.1054   33.3523   27.7991 H   0  0  0  0  0  0  0  0  0  0  0  0
   47.5089   36.1422   28.9312 H   0  0  0  0  0  0  0  0  0  0  0  0
  1  2  1  0
  2  3  2  0
  3  4  1  0
  4  5  2  0
  5  6  1  0
  6  7  2  0
  7  8  1  0
  8  9  2  0
  9 10  1  0
  9 11  1  0
 11 12  1  0
 12 13  2  0
 13 14  1  0
 14 15  2  0
 15 16  1  0
 16 17  2  0
 16 18  1  0
 18 19  1  0
 19 20  1  0
 20 21  1  0
 21 22  1  0
 15 23  1  0
 23 24  2  0
 11 25  2  0
  5 26  1  0
 26  2  1  0
 25  6  1  0
 24 12  1  0
 22 20  1  0
  1 27  1  0
  1 28  1  0
  1 29  1  0
  7 30  1  0
  8 31  1  0
 10 32  1  0
 10 33  1  0
 10 34  1  0
 13 35  1  0
 14 36  1  0
 18 37  1  0
 19 38  1  0
 19 39  1  0
 20 40  1  0
 21 41  1  0
 21 42  1  0
 22 43  1  0
 22 44  1  0
 23 45  1  0
 24 46  1  0
 25 47  1  0
M  END
>  <meeko>  (6) 
{"is_sidechain": [false], "free_energy": -8.35, "intermolecular_energy": -10.748, "internal_energy": -0.963}

$$$$
2zb1_ligand
     RDKit          3D

 47 50  0  0  0  0  0  0  0  0999 V2000
   38.6140   30.2090   31.2160 C   0  0  0  0  0  0  0  0  0  0  0  0
   40.0460   30.4100   30.9400 C   0  0  0  0  0  0  0  0  0  0  0  0
   40.8530   29.7370   30.1480 N   0  0  0  0  0  0  0  0  0  0  0  0
   42.0890   30.3400   30.2560 N   0  0  0  0  0  0  0  0  0  0  0  0
   41.9510   31.3390   31.1060 C   0  0  0  0  0  0  0  0  0  0  0  0
   42.9290   32.3060   31.5840 C   0  0  0  0  0  0  0  0  0  0  0  0
   42.6190   33.2500   32.5700 C   0  0  0  0  0  0  0  0  0  0  0  0
   43.5800   34.1680   33.0050 C   0  0  0  0  0  0  0  0  0  0  0  0
   44.8750   34.1670   32.4620 C   0  0  0  0  0  0  0  0  0  0  0  0
   45.8750   35.1730   32.9660 C   0  0  0  0  0  0  0  0  0  0  0  0
   45.2120   33.2140   31.4770 C   0  0  0  0  0  0  0  0  0  0  0  0
   46.5530   33.1420   30.8790 C   0  0  0  0  0  0  0  0  0  0  0  0
   47.6970   33.1190   31.6920 C   0  0  0  0  0  0  0  0  0  0  0  0
   48.9760   33.0560   31.1290 C   0  0  0  0  0  0  0  0  0  0  0  0
   49.1280   33.0230   29.7380 C   0  0  0  0  0  0  0  0  0  0  0  0
   50.4670   32.9510   29.0910 C   0  0  0  0  0  0  0  0  0  0  0  0
   51.2440   33.8940   29.1910 O   0  0  0  0  0  0  0  0  0  0  0  0
   50.7580   31.7760   28.4310 N   0  0  0  0  0  0  0  0  0  0  0  0
   52.0650   31.5290   27.8670 C   0  0  0  0  0  0  0  0  0  0  0  0
   52.8080   30.5640   28.7360 C   0  0  0  0  0  0  0  0  0  0  0  0
   52.0580   29.5930   29.6110 C   0  0  0  0  0  0  0  0  0  0  0  0
   52.8180   29.0920   28.4150 C   0  0  0  0  0  0  0  0  0  0  0  0
   47.9930   33.0320   28.9190 C   0  0  0  0  0  0  0  0  0  0  0  0
   46.7170   33.0990   29.4860 C   0  0  0  0  0  0  0  0  0  0  0  0
   44.2270   32.3010   31.0510 C   0  0  0  0  0  0  0  0  0  0  0  0
   40.6680   31.4450   31.5830 O   0  0  0  0  0  0  0  0  0  0  0  0
   38.4499   30.1860   32.3034 H   0  0  0  0  0  0  0  0  0  0  0  0
   38.0362   31.0348   30.7754 H   0  0  0  0  0  0  0  0  0  0  0  0
   38.2859   29.2560   30.7754 H   0  0  0  0  0  0  0  0  0  0  0  0
   41.6097   33.2699   33.0069 H   0  0  0  0  0  0  0  0  0  0  0  0
   43.3181   34.9005   33.7827 H   0  0  0  0  0  0  0  0  0  0  0  0
   45.8738   35.1718   34.0660 H   0  0  0  0  0  0  0  0  0  0  0  0
   46.8780   34.9080   32.6001 H   0  0  0  0  0  0  0  0  0  0  0  0
   45.6040   36.1744   32.6001 H   0  0  0  0  0  0  0  0  0  0  0  0
   47.5863   33.1509   32.7860 H   0  0  0  0  0  0  0  0  0  0  0  0
   49.8626   33.0324   31.7797 H   0  0  0  0  0  0  0  0  0  0  0  0
   50.1560   30.9780   28.5670 H   0  0  0  0  0  0  0  0  0  0  0  0
   51.9549   31.1045   26.8582 H   0  0  0  0  0  0  0  0  0  0  0  0
   52.6237   32.4747   27.8075 H   0  0  0  0  0  0  0  0  0  0  0  0
   53.5812   31.3284   28.9029 H   0  0  0  0  0  0  0  0  0  0  0  0
   52.4219   29.3728   30.6254 H   0  0  0  0  0  0  0  0  0  0  0  0
   51.0199   29.5068   29.9644 H   0  0  0  0  0  0  0  0  0  0  0  0
   53.7379   28.5052   28.5545 H   0  0  0  0  0  0  0  0  0  0  0  0
   52.5659   28.4875   27.5313 H   0  0  0  0  0  0  0  0  0  0  0  0
   48.1054   32.9862   27.8257 H   0  0  0  0  0  0  0  0  0  0  0  0
   45.8319   33.1182   28.8331 H   0  0  0  0  0  0  0  0  0  0  0  0
   44.4832   31.5622   30.2774 H   0  0  0  0  0  0  0  0  0  0  0  0
  1  2  1  0
  2  3  2  0
  3  4  1  0
  4  5  2  0
  5  6  1  0
  6  7  2  0
  7  8  1  0
  8  9  2  0
  9 10  1  0
  9 11  1  0
 11 12  1  0
 12 13  2  0
 13 14  1  0
 14 15  2  0
 15 16  1  0
 16 17  2  0
 16 18  1  0
 18 19  1  0
 19 20  1  0
 20 21  1  0
 21 22  1  0
 15 23  1  0
 23 24  2  0
 11 25  2  0
  5 26  1  0
 26  2  1  0
 25  6  1  0
 24 12  1  0
 22 20  1  0
  1 27  1  0
  1 28  1  0
  1 29  1  0
  7 30  1  0
  8 31  1  0
 10 32  1  0
 10 33  1  0
 10 34  1  0
 13 35  1  0
 14 36  1  0
 18 37  1  0
 19 38  1  0
 19 39  1  0
 20 40  1  0
 21 41  1  0
 21 42  1  0
 22 43  1  0
 22 44  1  0
 23 45  1  0
 24 46  1  0
 25 47  1  0
M  END
>  <meeko>  (7) 
{"is_sidechain": [false], "free_energy": -8.017, "intermolecular_energy": -10.789, "internal_energy": -0.492}

$$$$
