1lpg_ligand
     RDKit          3D

 78 82  0  0  0  0  0  0  0  0999 V2000
   -1.2250   12.6530   23.7860 C   0  0  0  0  0  0  0  0  0  0  0  0
   -1.3460   12.0480   25.1810 N   0  0  0  0  0  0  0  0  0  0  0  0
   -0.8990   13.0440   26.2480 C   0  0  0  0  0  0  0  0  0  0  0  0
   -2.8190   11.7320   25.4280 C   0  0  0  0  0  0  0  0  0  0  0  0
   -0.4630   10.8140   25.2600 C   0  0  0  0  0  0  0  0  0  0  0  0
    0.8250   10.8480   24.7010 C   0  0  0  0  0  0  0  0  0  0  0  0
    1.6730    9.7350   24.7630 C   0  0  0  0  0  0  0  0  0  0  0  0
    1.2570    8.5590   25.3920 C   0  0  0  0  0  0  0  0  0  0  0  0
    2.1600    7.3510   25.4630 C   0  0  0  0  0  0  0  0  0  0  0  0
    3.0330    7.2830   24.3160 N   0  0  0  0  0  0  0  0  0  0  0  0
    4.3900    7.5050   24.4100 C   0  0  0  0  0  0  0  0  0  0  0  0
    4.9110    7.7910   25.4850 O   0  0  0  0  0  0  0  0  0  0  0  0
    5.1350    7.3450   23.1660 C   0  0  0  0  0  0  0  0  0  0  0  0
    4.9060    6.4640   22.1170 C   0  0  0  0  0  0  0  0  0  0  0  0
    5.9300    6.6100   21.1470 C   0  0  0  0  0  0  0  0  0  0  0  0
    6.2050    5.9580   19.9260 C   0  0  0  0  0  0  0  0  0  0  0  0
    7.3430    6.3110   19.1940 C   0  0  0  0  0  0  0  0  0  0  0  0
    7.7450    5.7560   18.0110 O   0  0  0  0  0  0  0  0  0  0  0  0
    7.1120    4.5550   17.5570 C   0  0  0  0  0  0  0  0  0  0  0  0
    7.8500    3.2910   17.9400 C   0  0  0  0  0  0  0  0  0  0  0  0
    9.1560    3.0440   17.4930 C   0  0  0  0  0  0  0  0  0  0  0  0
    9.8060    1.8550   17.8230 C   0  0  0  0  0  0  0  0  0  0  0  0
    9.1550    0.8920   18.5920 C   0  0  0  0  0  0  0  0  0  0  0  0
    7.8510    1.1170   19.0290 C   0  0  0  0  0  0  0  0  0  0  0  0
    7.1990    2.3070   18.7000 C   0  0  0  0  0  0  0  0  0  0  0  0
    8.1970    7.2970   19.6840 C   0  0  0  0  0  0  0  0  0  0  0  0
    7.9400    7.9620   20.8880 C   0  0  0  0  0  0  0  0  0  0  0  0
    6.7860    7.6070   21.6050 C   0  0  0  0  0  0  0  0  0  0  0  0
    6.2500    8.0920   22.7910 N   0  0  0  0  0  0  0  0  0  0  0  0
    6.8170    9.2250   23.5290 C   0  0  0  0  0  0  0  0  0  0  0  0
    8.2050    8.9270   24.0600 C   0  0  0  0  0  0  0  0  0  0  0  0
    9.3290    9.4490   23.4070 C   0  0  0  0  0  0  0  0  0  0  0  0
   10.6150    9.2040   23.8890 C   0  0  0  0  0  0  0  0  0  0  0  0
   10.7990    8.4350   25.0360 C   0  0  0  0  0  0  0  0  0  0  0  0
    9.6960    7.9030   25.7180 C   0  0  0  0  0  0  0  0  0  0  0  0
    9.8860    7.0870   26.9270 C   0  0  0  0  0  0  0  0  0  0  0  0
    8.9820    7.1250   27.8810 N   0  0  0  0  0  0  0  0  0  0  0  0
   10.9580    6.3320   27.0310 N   0  0  0  0  0  0  0  0  0  0  0  0
    8.4050    8.1610   25.2240 C   0  0  0  0  0  0  0  0  0  0  0  0
   -0.0310    8.5140   25.9380 C   0  0  0  0  0  0  0  0  0  0  0  0
   -0.8810    9.6280   25.8760 C   0  0  0  0  0  0  0  0  0  0  0  0
   -1.0099   13.7285   23.8702 H   0  0  0  0  0  0  0  0  0  0  0  0
   -0.4082   12.1573   23.2409 H   0  0  0  0  0  0  0  0  0  0  0  0
   -2.1696   12.5095   23.2409 H   0  0  0  0  0  0  0  0  0  0  0  0
   -1.0884   12.6219   27.2460 H   0  0  0  0  0  0  0  0  0  0  0  0
    0.1762   13.2462   26.1334 H   0  0  0  0  0  0  0  0  0  0  0  0
   -1.4626   13.9817   26.1334 H   0  0  0  0  0  0  0  0  0  0  0  0
   -3.0087   11.6913   26.5108 H   0  0  0  0  0  0  0  0  0  0  0  0
   -3.4432   12.5167   24.9756 H   0  0  0  0  0  0  0  0  0  0  0  0
   -3.0664   10.7603   24.9756 H   0  0  0  0  0  0  0  0  0  0  0  0
    1.1743   11.7658   24.2053 H   0  0  0  0  0  0  0  0  0  0  0  0
    2.6752    9.7873   24.3125 H   0  0  0  0  0  0  0  0  0  0  0  0
    2.7710    7.4131   26.3756 H   0  0  0  0  0  0  0  0  0  0  0  0
    1.5324    6.4477   25.4767 H   0  0  0  0  0  0  0  0  0  0  0  0
    2.6470    6.9320   23.4550 H   0  0  0  0  0  0  0  0  0  0  0  0
    4.0617    5.7622   22.0492 H   0  0  0  0  0  0  0  0  0  0  0  0
    5.5277    5.1761   19.5520 H   0  0  0  0  0  0  0  0  0  0  0  0
    6.1017    4.5109   17.9899 H   0  0  0  0  0  0  0  0  0  0  0  0
    7.0988    4.5967   16.4579 H   0  0  0  0  0  0  0  0  0  0  0  0
    9.6724    3.7947   16.8766 H   0  0  0  0  0  0  0  0  0  0  0  0
   10.8344    1.6769   17.4757 H   0  0  0  0  0  0  0  0  0  0  0  0
    9.6698   -0.0443   18.8536 H   0  0  0  0  0  0  0  0  0  0  0  0
    7.3350    0.3566   19.6336 H   0  0  0  0  0  0  0  0  0  0  0  0
    6.1662    2.4747   19.0394 H   0  0  0  0  0  0  0  0  0  0  0  0
    9.0972    7.5596   19.1090 H   0  0  0  0  0  0  0  0  0  0  0  0
    8.6219    8.7400   21.2618 H   0  0  0  0  0  0  0  0  0  0  0  0
    6.8743   10.0930   22.8557 H   0  0  0  0  0  0  0  0  0  0  0  0
    6.1630    9.4278   24.3899 H   0  0  0  0  0  0  0  0  0  0  0  0
    9.1958   10.0602   22.5022 H   0  0  0  0  0  0  0  0  0  0  0  0
   11.4865    9.6193   23.3617 H   0  0  0  0  0  0  0  0  0  0  0  0
   11.8162    8.2441   25.4087 H   0  0  0  0  0  0  0  0  0  0  0  0
    8.1790    7.7380   27.7940 H   0  0  0  0  0  0  0  0  0  0  0  0
    9.0630    6.5830   28.7300 H   0  0  0  0  0  0  0  0  0  0  0  0
   11.6300    6.3010   26.2700 H   0  0  0  0  0  0  0  0  0  0  0  0
   11.1390    5.7510   27.8380 H   0  0  0  0  0  0  0  0  0  0  0  0
    7.5331    7.7558   25.7583 H   0  0  0  0  0  0  0  0  0  0  0  0
   -0.3819    7.5911   26.4230 H   0  0  0  0  0  0  0  0  0  0  0  0
   -1.8873    9.5693   26.3163 H   0  0  0  0  0  0  0  0  0  0  0  0
  1  2  1  0
  2  3  1  0
  2  4  1  0
  2  5  1  0
  5  6  2  0
  6  7  1  0
  7  8  2  0
  8  9  1  0
  9 10  1  0
 10 11  1  0
 11 12  2  0
 11 13  1  0
 13 14  2  0
 14 15  1  0
 15 16  2  0
 16 17  1  0
 17 18  1  0
 18 19  1  0
 19 20  1  0
 20 21  2  0
 21 22  1  0
 22 23  2  0
 23 24  1  0
 24 25  2  0
 17 26  2  0
 26 27  1  0
 27 28  2  0
 28 29  1  0
 29 30  1  0
 30 31  1  0
 31 32  2  0
 32 33  1  0
 33 34  2  0
 34 35  1  0
 35 36  1  0
 36 37  1  0
 36 38  2  0
 35 39  2  0
  8 40  1  0
 40 41  2  0
 41  5  1  0
 29 13  1  0
 39 31  1  0
 28 15  1  0
 25 20  1  0
  1 42  1  0
  1 43  1  0
  1 44  1  0
  3 45  1  0
  3 46  1  0
  3 47  1  0
  4 48  1  0
  4 49  1  0
  4 50  1  0
  6 51  1  0
  7 52  1  0
  9 53  1  0
  9 54  1  0
 10 55  1  0
 14 56  1  0
 16 57  1  0
 19 58  1  0
 19 59  1  0
 21 60  1  0
 22 61  1  0
 23 62  1  0
 24 63  1  0
 25 64  1  0
 26 65  1  0
 27 66  1  0
 30 67  1  0
 30 68  1  0
 32 69  1  0
 33 70  1  0
 34 71  1  0
 37 72  1  0
 37 73  1  0
 38 74  1  0
 38 75  1  0
 39 76  1  0
 40 77  1  0
 41 78  1  0
M  CHG  2   2   1  38   1
M  END
>  <meeko>  (1) 
{"is_sidechain": [false], "free_energy": -10.24, "intermolecular_energy": -16.226, "internal_energy": -1.298}

$$$$
1lpg_ligand
     RDKit          3D

 78 82  0  0  0  0  0  0  0  0999 V2000
    4.8570    1.9080   12.6710 C   0  0  0  0  0  0  0  0  0  0  0  0
    4.2030    0.7520   13.4220 N   0  0  0  0  0  0  0  0  0  0  0  0
    2.7870    0.4990   12.9090 C   0  0  0  0  0  0  0  0  0  0  0  0
    5.0270   -0.5050   13.1560 C   0  0  0  0  0  0  0  0  0  0  0  0
    4.1330    1.1030   14.9000 C   0  0  0  0  0  0  0  0  0  0  0  0
    3.2000    2.0550   15.3420 C   0  0  0  0  0  0  0  0  0  0  0  0
    3.0970    2.3970   16.6960 C   0  0  0  0  0  0  0  0  0  0  0  0
    3.9230    1.7910   17.6470 C   0  0  0  0  0  0  0  0  0  0  0  0
    3.8250    2.1520   19.1090 C   0  0  0  0  0  0  0  0  0  0  0  0
    4.7880    3.1680   19.4610 N   0  0  0  0  0  0  0  0  0  0  0  0
    4.4470    4.4970   19.5790 C   0  0  0  0  0  0  0  0  0  0  0  0
    3.2980    4.8760   19.3670 O   0  0  0  0  0  0  0  0  0  0  0  0
    5.5280    5.3840   19.9940 C   0  0  0  0  0  0  0  0  0  0  0  0
    6.0180    5.6260   21.2720 C   0  0  0  0  0  0  0  0  0  0  0  0
    7.0250    6.6220   21.2090 C   0  0  0  0  0  0  0  0  0  0  0  0
    7.8160    7.2610   22.1890 C   0  0  0  0  0  0  0  0  0  0  0  0
    8.7190    8.2570   21.8070 C   0  0  0  0  0  0  0  0  0  0  0  0
    9.5330    8.9710   22.6420 O   0  0  0  0  0  0  0  0  0  0  0  0
    9.0620    9.3050   23.9520 C   0  0  0  0  0  0  0  0  0  0  0  0
    9.7620    8.5570   25.0640 C   0  0  0  0  0  0  0  0  0  0  0  0
   11.1530    8.6280   25.2290 C   0  0  0  0  0  0  0  0  0  0  0  0
   11.7870    7.8990   26.2360 C   0  0  0  0  0  0  0  0  0  0  0  0
   11.0420    7.0810   27.0810 C   0  0  0  0  0  0  0  0  0  0  0  0
    9.6610    6.9880   26.9180 C   0  0  0  0  0  0  0  0  0  0  0  0
    9.0250    7.7160   25.9120 C   0  0  0  0  0  0  0  0  0  0  0  0
    8.8220    8.6140   20.4640 C   0  0  0  0  0  0  0  0  0  0  0  0
    8.0540    7.9900   19.4750 C   0  0  0  0  0  0  0  0  0  0  0  0
    7.1610    6.9810   19.8710 C   0  0  0  0  0  0  0  0  0  0  0  0
    6.3000    6.1700   19.1420 N   0  0  0  0  0  0  0  0  0  0  0  0
    6.2300    6.1800   17.6780 C   0  0  0  0  0  0  0  0  0  0  0  0
    6.7960    4.9130   17.0670 C   0  0  0  0  0  0  0  0  0  0  0  0
    6.4560    4.5600   15.7540 C   0  0  0  0  0  0  0  0  0  0  0  0
    6.9800    3.4100   15.1650 C   0  0  0  0  0  0  0  0  0  0  0  0
    7.8550    2.5920   15.8780 C   0  0  0  0  0  0  0  0  0  0  0  0
    8.2210    2.9200   17.1910 C   0  0  0  0  0  0  0  0  0  0  0  0
    9.1410    2.0590   17.9480 C   0  0  0  0  0  0  0  0  0  0  0  0
    8.6530    1.1210   18.7290 N   0  0  0  0  0  0  0  0  0  0  0  0
   10.4380    2.2400   17.8280 N   0  0  0  0  0  0  0  0  0  0  0  0
    7.6900    4.0850   17.7720 C   0  0  0  0  0  0  0  0  0  0  0  0
    4.8660    0.8530   17.2100 C   0  0  0  0  0  0  0  0  0  0  0  0
    4.9680    0.5100   15.8540 C   0  0  0  0  0  0  0  0  0  0  0  0
    5.2655    2.6301   13.3933 H   0  0  0  0  0  0  0  0  0  0  0  0
    5.6702    1.5214   12.0391 H   0  0  0  0  0  0  0  0  0  0  0  0
    4.1068    2.4059   12.0391 H   0  0  0  0  0  0  0  0  0  0  0  0
    2.1041    0.3770   13.7627 H   0  0  0  0  0  0  0  0  0  0  0  0
    2.4605    1.3530   12.2974 H   0  0  0  0  0  0  0  0  0  0  0  0
    2.7765   -0.4153   12.2974 H   0  0  0  0  0  0  0  0  0  0  0  0
    5.3240   -0.9581   14.1133 H   0  0  0  0  0  0  0  0  0  0  0  0
    4.4243   -1.2238   12.5815 H   0  0  0  0  0  0  0  0  0  0  0  0
    5.9265   -0.2390   12.5815 H   0  0  0  0  0  0  0  0  0  0  0  0
    2.5376    2.5412   14.6107 H   0  0  0  0  0  0  0  0  0  0  0  0
    2.3598    3.1490   17.0139 H   0  0  0  0  0  0  0  0  0  0  0  0
    2.8130    2.5287   19.3186 H   0  0  0  0  0  0  0  0  0  0  0  0
    4.0346    1.2516   19.7051 H   0  0  0  0  0  0  0  0  0  0  0  0
    5.7010    2.8620   19.7570 H   0  0  0  0  0  0  0  0  0  0  0  0
    5.6776    5.1232   22.1892 H   0  0  0  0  0  0  0  0  0  0  0  0
    7.7219    6.9763   23.2474 H   0  0  0  0  0  0  0  0  0  0  0  0
    9.2141   10.3829   24.1104 H   0  0  0  0  0  0  0  0  0  0  0  0
    8.0009    9.0178   23.9926 H   0  0  0  0  0  0  0  0  0  0  0  0
   11.7496    9.2641   24.5586 H   0  0  0  0  0  0  0  0  0  0  0  0
   12.8774    7.9708   26.3623 H   0  0  0  0  0  0  0  0  0  0  0  0
   11.5426    6.5089   27.8761 H   0  0  0  0  0  0  0  0  0  0  0  0
    9.0717    6.3398   27.5833 H   0  0  0  0  0  0  0  0  0  0  0  0
    7.9361    7.6300   25.7823 H   0  0  0  0  0  0  0  0  0  0  0  0
    9.5260    9.4077   20.1736 H   0  0  0  0  0  0  0  0  0  0  0  0
    8.1469    8.2811   18.4183 H   0  0  0  0  0  0  0  0  0  0  0  0
    5.1773    6.2795   17.3747 H   0  0  0  0  0  0  0  0  0  0  0  0
    6.8332    7.0264   17.3177 H   0  0  0  0  0  0  0  0  0  0  0  0
    5.7672    5.1981   15.1810 H   0  0  0  0  0  0  0  0  0  0  0  0
    6.7019    3.1472   14.1337 H   0  0  0  0  0  0  0  0  0  0  0  0
    8.2606    1.6840   15.4078 H   0  0  0  0  0  0  0  0  0  0  0  0
    7.6490    1.0180   18.8310 H   0  0  0  0  0  0  0  0  0  0  0  0
    9.2400    0.5000   19.2690 H   0  0  0  0  0  0  0  0  0  0  0  0
   10.7930    2.9550   17.2000 H   0  0  0  0  0  0  0  0  0  0  0  0
   11.1160    1.6780   18.3240 H   0  0  0  0  0  0  0  0  0  0  0  0
    7.9790    4.3550   18.7984 H   0  0  0  0  0  0  0  0  0  0  0  0
    5.5368    0.3780   17.9410 H   0  0  0  0  0  0  0  0  0  0  0  0
    5.7133   -0.2341   15.5363 H   0  0  0  0  0  0  0  0  0  0  0  0
  1  2  1  0
  2  3  1  0
  2  4  1  0
  2  5  1  0
  5  6  2  0
  6  7  1  0
  7  8  2  0
  8  9  1  0
  9 10  1  0
 10 11  1  0
 11 12  2  0
 11 13  1  0
 13 14  2  0
 14 15  1  0
 15 16  2  0
 16 17  1  0
 17 18  1  0
 18 19  1  0
 19 20  1  0
 20 21  2  0
 21 22  1  0
 22 23  2  0
 23 24  1  0
 24 25  2  0
 17 26  2  0
 26 27  1  0
 27 28  2  0
 28 29  1  0
 29 30  1  0
 30 31  1  0
 31 32  2  0
 32 33  1  0
 33 34  2  0
 34 35  1  0
 35 36  1  0
 36 37  1  0
 36 38  2  0
 35 39  2  0
  8 40  1  0
 40 41  2  0
 41  5  1  0
 29 13  1  0
 39 31  1  0
 28 15  1  0
 25 20  1  0
  1 42  1  0
  1 43  1  0
  1 44  1  0
  3 45  1  0
  3 46  1  0
  3 47  1  0
  4 48  1  0
  4 49  1  0
  4 50  1  0
  6 51  1  0
  7 52  1  0
  9 53  1  0
  9 54  1  0
 10 55  1  0
 14 56  1  0
 16 57  1  0
 19 58  1  0
 19 59  1  0
 21 60  1  0
 22 61  1  0
 23 62  1  0
 24 63  1  0
 25 64  1  0
 26 65  1  0
 27 66  1  0
 30 67  1  0
 30 68  1  0
 32 69  1  0
 33 70  1  0
 34 71  1  0
 37 72  1  0
 37 73  1  0
 38 74  1  0
 38 75  1  0
 39 76  1  0
 40 77  1  0
 41 78  1  0
M  CHG  2   2   1  38   1
M  END
>  <meeko>  (2) 
{"is_sidechain": [false], "free_energy": -9.909, "intermolecular_energy": -13.923, "internal_energy": -3.076}

$$$$
1lpg_ligand
     RDKit          3D

 78 82  0  0  0  0  0  0  0  0999 V2000
   -1.7000   14.2550   23.9410 C   0  0  0  0  0  0  0  0  0  0  0  0
   -2.0050   12.8890   23.3350 N   0  0  0  0  0  0  0  0  0  0  0  0
   -3.4050   12.4200   23.7250 C   0  0  0  0  0  0  0  0  0  0  0  0
   -1.9680   13.0320   21.8160 C   0  0  0  0  0  0  0  0  0  0  0  0
   -0.9890   11.8830   23.8510 C   0  0  0  0  0  0  0  0  0  0  0  0
   -1.3780   10.5480   24.0510 C   0  0  0  0  0  0  0  0  0  0  0  0
   -0.4690    9.5890   24.5160 C   0  0  0  0  0  0  0  0  0  0  0  0
    0.8570    9.9390   24.7860 C   0  0  0  0  0  0  0  0  0  0  0  0
    1.8460    8.9160   25.2900 C   0  0  0  0  0  0  0  0  0  0  0  0
    2.7230    8.4730   24.2320 N   0  0  0  0  0  0  0  0  0  0  0  0
    4.0390    8.8740   24.1510 C   0  0  0  0  0  0  0  0  0  0  0  0
    4.5170    9.6470   24.9770 O   0  0  0  0  0  0  0  0  0  0  0  0
    4.8010    8.2930   23.0520 C   0  0  0  0  0  0  0  0  0  0  0  0
    4.5930    8.4130   21.6830 C   0  0  0  0  0  0  0  0  0  0  0  0
    5.5360    7.6130   20.9910 C   0  0  0  0  0  0  0  0  0  0  0  0
    5.7530    7.3400   19.6230 C   0  0  0  0  0  0  0  0  0  0  0  0
    6.7680    6.4550   19.2470 C   0  0  0  0  0  0  0  0  0  0  0  0
    7.0810    6.0830   17.9680 O   0  0  0  0  0  0  0  0  0  0  0  0
    6.5320    4.8700   17.4450 C   0  0  0  0  0  0  0  0  0  0  0  0
    7.2800    3.6260   17.8690 C   0  0  0  0  0  0  0  0  0  0  0  0
    6.6610    2.6250   18.6310 C   0  0  0  0  0  0  0  0  0  0  0  0
    7.3780    1.5030   19.0480 C   0  0  0  0  0  0  0  0  0  0  0  0
    8.7260    1.3740   18.7200 C   0  0  0  0  0  0  0  0  0  0  0  0
    9.3590    2.3690   17.9780 C   0  0  0  0  0  0  0  0  0  0  0  0
    8.6420    3.4920   17.5590 C   0  0  0  0  0  0  0  0  0  0  0  0
    7.5470    5.8460   20.2280 C   0  0  0  0  0  0  0  0  0  0  0  0
    7.3550    6.1070   21.5890 C   0  0  0  0  0  0  0  0  0  0  0  0
    6.3420    7.0080   21.9510 C   0  0  0  0  0  0  0  0  0  0  0  0
    5.9310    7.4880   23.1890 N   0  0  0  0  0  0  0  0  0  0  0  0
    6.6060    7.1580   24.4460 C   0  0  0  0  0  0  0  0  0  0  0  0
    7.9720    7.8080   24.5530 C   0  0  0  0  0  0  0  0  0  0  0  0
    8.3020    8.8800   23.7120 C   0  0  0  0  0  0  0  0  0  0  0  0
    9.5450    9.5050   23.8050 C   0  0  0  0  0  0  0  0  0  0  0  0
   10.4800    9.0720   24.7430 C   0  0  0  0  0  0  0  0  0  0  0  0
   10.1800    8.0080   25.6040 C   0  0  0  0  0  0  0  0  0  0  0  0
   11.1650    7.5450   26.5930 C   0  0  0  0  0  0  0  0  0  0  0  0
   12.4430    7.5520   26.2840 N   0  0  0  0  0  0  0  0  0  0  0  0
   10.7490    7.1330   27.7710 N   0  0  0  0  0  0  0  0  0  0  0  0
    8.9210    7.3880   25.5030 C   0  0  0  0  0  0  0  0  0  0  0  0
    1.2460   11.2710   24.6030 C   0  0  0  0  0  0  0  0  0  0  0  0
    0.3360   12.2310   24.1390 C   0  0  0  0  0  0  0  0  0  0  0  0
   -1.7165   14.1812   25.0384 H   0  0  0  0  0  0  0  0  0  0  0  0
   -0.7052   14.5888   23.6108 H   0  0  0  0  0  0  0  0  0  0  0  0
   -2.4583   14.9802   23.6108 H   0  0  0  0  0  0  0  0  0  0  0  0
   -3.4900   12.3915   24.8213 H   0  0  0  0  0  0  0  0  0  0  0  0
   -4.1520   13.1170   23.3173 H   0  0  0  0  0  0  0  0  0  0  0  0
   -3.5814   11.4137   23.3173 H   0  0  0  0  0  0  0  0  0  0  0  0
   -1.7005   14.0657   21.5514 H   0  0  0  0  0  0  0  0  0  0  0  0
   -1.2189   12.3417   21.4009 H   0  0  0  0  0  0  0  0  0  0  0  0
   -2.9579   12.7917   21.4009 H   0  0  0  0  0  0  0  0  0  0  0  0
   -2.4154   10.2503   23.8386 H   0  0  0  0  0  0  0  0  0  0  0  0
   -0.8015    8.5518   24.6700 H   0  0  0  0  0  0  0  0  0  0  0  0
    2.4498    9.3653   26.0922 H   0  0  0  0  0  0  0  0  0  0  0  0
    1.2870    8.0466   25.6663 H   0  0  0  0  0  0  0  0  0  0  0  0
    2.3870    7.7480   23.6200 H   0  0  0  0  0  0  0  0  0  0  0  0
    3.8169    9.0327   21.2101 H   0  0  0  0  0  0  0  0  0  0  0  0
    5.1269    7.8210   18.8570 H   0  0  0  0  0  0  0  0  0  0  0  0
    5.4915    4.7833   17.7911 H   0  0  0  0  0  0  0  0  0  0  0  0
    6.6090    4.9310   16.3494 H   0  0  0  0  0  0  0  0  0  0  0  0
    5.5998    2.7252   18.9027 H   0  0  0  0  0  0  0  0  0  0  0  0
    6.8784    0.7193   19.6364 H   0  0  0  0  0  0  0  0  0  0  0  0
    9.2898    0.4877   19.0465 H   0  0  0  0  0  0  0  0  0  0  0  0
   10.4242    2.2700   17.7220 H   0  0  0  0  0  0  0  0  0  0  0  0
    9.1495    4.2783   16.9809 H   0  0  0  0  0  0  0  0  0  0  0  0
    8.3346    5.1407   19.9244 H   0  0  0  0  0  0  0  0  0  0  0  0
    7.9796    5.6204   22.3526 H   0  0  0  0  0  0  0  0  0  0  0  0
    5.9828    7.5042   25.2838 H   0  0  0  0  0  0  0  0  0  0  0  0
    6.7486    6.0677   24.4755 H   0  0  0  0  0  0  0  0  0  0  0  0
    7.5711    9.2325   22.9694 H   0  0  0  0  0  0  0  0  0  0  0  0
    9.7884   10.3430   23.1353 H   0  0  0  0  0  0  0  0  0  0  0  0
   11.4595    9.5684   24.8080 H   0  0  0  0  0  0  0  0  0  0  0  0
   12.7390    7.8440   25.3590 H   0  0  0  0  0  0  0  0  0  0  0  0
   13.1610    7.2470   26.9270 H   0  0  0  0  0  0  0  0  0  0  0  0
    9.7590    7.1590   27.9950 H   0  0  0  0  0  0  0  0  0  0  0  0
   11.3810    6.8050   28.4880 H   0  0  0  0  0  0  0  0  0  0  0  0
    8.6736    6.5577   26.1808 H   0  0  0  0  0  0  0  0  0  0  0  0
    2.2810   11.5689   24.8266 H   0  0  0  0  0  0  0  0  0  0  0  0
    0.6672   13.2706   23.9995 H   0  0  0  0  0  0  0  0  0  0  0  0
  1  2  1  0
  2  3  1  0
  2  4  1  0
  2  5  1  0
  5  6  2  0
  6  7  1  0
  7  8  2  0
  8  9  1  0
  9 10  1  0
 10 11  1  0
 11 12  2  0
 11 13  1  0
 13 14  2  0
 14 15  1  0
 15 16  2  0
 16 17  1  0
 17 18  1  0
 18 19  1  0
 19 20  1  0
 20 21  2  0
 21 22  1  0
 22 23  2  0
 23 24  1  0
 24 25  2  0
 17 26  2  0
 26 27  1  0
 27 28  2  0
 28 29  1  0
 29 30  1  0
 30 31  1  0
 31 32  2  0
 32 33  1  0
 33 34  2  0
 34 35  1  0
 35 36  1  0
 36 37  1  0
 36 38  2  0
 35 39  2  0
  8 40  1  0
 40 41  2  0
 41  5  1  0
 29 13  1  0
 39 31  1  0
 28 15  1  0
 25 20  1  0
  1 42  1  0
  1 43  1  0
  1 44  1  0
  3 45  1  0
  3 46  1  0
  3 47  1  0
  4 48  1  0
  4 49  1  0
  4 50  1  0
  6 51  1  0
  7 52  1  0
  9 53  1  0
  9 54  1  0
 10 55  1  0
 14 56  1  0
 16 57  1  0
 19 58  1  0
 19 59  1  0
 21 60  1  0
 22 61  1  0
 23 62  1  0
 24 63  1  0
 25 64  1  0
 26 65  1  0
 27 66  1  0
 30 67  1  0
 30 68  1  0
 32 69  1  0
 33 70  1  0
 34 71  1  0
 37 72  1  0
 37 73  1  0
 38 74  1  0
 38 75  1  0
 39 76  1  0
 40 77  1  0
 41 78  1  0
M  CHG  2   2   1  38   1
M  END
>  <meeko>  (3) 
{"is_sidechain": [false], "free_energy": -9.848, "intermolecular_energy": -15.481, "internal_energy": -1.422}

$$$$
1lpg_ligand
     RDKit          3D

 78 82  0  0  0  0  0  0  0  0999 V2000
    0.2910    0.6340   24.0910 C   0  0  0  0  0  0  0  0  0  0  0  0
    1.1440   -0.4190   23.3890 N   0  0  0  0  0  0  0  0  0  0  0  0
    2.1850   -1.0010   24.3410 C   0  0  0  0  0  0  0  0  0  0  0  0
    0.2220   -1.5550   22.9560 C   0  0  0  0  0  0  0  0  0  0  0  0
    1.8600    0.2300   22.2160 C   0  0  0  0  0  0  0  0  0  0  0  0
    3.0550    0.9360   22.4400 C   0  0  0  0  0  0  0  0  0  0  0  0
    3.7500    1.5390   21.3850 C   0  0  0  0  0  0  0  0  0  0  0  0
    3.2720    1.4470   20.0740 C   0  0  0  0  0  0  0  0  0  0  0  0
    4.0110    2.0950   18.9280 C   0  0  0  0  0  0  0  0  0  0  0  0
    4.9190    3.1130   19.4000 N   0  0  0  0  0  0  0  0  0  0  0  0
    4.5330    4.4260   19.5600 C   0  0  0  0  0  0  0  0  0  0  0  0
    3.3920    4.7880   19.2860 O   0  0  0  0  0  0  0  0  0  0  0  0
    5.5570    5.3150   20.0970 C   0  0  0  0  0  0  0  0  0  0  0  0
    5.7850    5.6920   21.4150 C   0  0  0  0  0  0  0  0  0  0  0  0
    6.8430    6.6340   21.4600 C   0  0  0  0  0  0  0  0  0  0  0  0
    7.4510    7.3570   22.5100 C   0  0  0  0  0  0  0  0  0  0  0  0
    8.4750    8.2630   22.2230 C   0  0  0  0  0  0  0  0  0  0  0  0
    9.1400    9.0420   23.1290 O   0  0  0  0  0  0  0  0  0  0  0  0
    8.7100    9.0400   24.4940 C   0  0  0  0  0  0  0  0  0  0  0  0
    9.6770    8.3630   25.4390 C   0  0  0  0  0  0  0  0  0  0  0  0
   11.0510    8.6390   25.4010 C   0  0  0  0  0  0  0  0  0  0  0  0
   11.9330    7.9750   26.2540 C   0  0  0  0  0  0  0  0  0  0  0  0
   11.4560    7.0170   27.1450 C   0  0  0  0  0  0  0  0  0  0  0  0
   10.0950    6.7200   27.1830 C   0  0  0  0  0  0  0  0  0  0  0  0
    9.2100    7.3840   26.3310 C   0  0  0  0  0  0  0  0  0  0  0  0
    8.8780    8.4500   20.9020 C   0  0  0  0  0  0  0  0  0  0  0  0
    8.2960    7.7400   19.8470 C   0  0  0  0  0  0  0  0  0  0  0  0
    7.2780    6.8220   20.1510 C   0  0  0  0  0  0  0  0  0  0  0  0
    6.5390    5.9610   19.3480 N   0  0  0  0  0  0  0  0  0  0  0  0
    6.7770    5.7950   17.9130 C   0  0  0  0  0  0  0  0  0  0  0  0
    7.4820    4.4920   17.5940 C   0  0  0  0  0  0  0  0  0  0  0  0
    8.5990    4.1010   18.3450 C   0  0  0  0  0  0  0  0  0  0  0  0
    9.2520    2.8970   18.0820 C   0  0  0  0  0  0  0  0  0  0  0  0
    8.7980    2.0600   17.0640 C   0  0  0  0  0  0  0  0  0  0  0  0
    7.6800    2.4180   16.2980 C   0  0  0  0  0  0  0  0  0  0  0  0
    7.2000    1.5400   15.2200 C   0  0  0  0  0  0  0  0  0  0  0  0
    6.9940    0.2650   15.4680 N   0  0  0  0  0  0  0  0  0  0  0  0
    6.9840    2.0470   14.0260 N   0  0  0  0  0  0  0  0  0  0  0  0
    7.0280    3.6320   16.5760 C   0  0  0  0  0  0  0  0  0  0  0  0
    2.0750    0.7590   19.8480 C   0  0  0  0  0  0  0  0  0  0  0  0
    1.3780    0.1550   20.9040 C   0  0  0  0  0  0  0  0  0  0  0  0
    0.3863    0.5163   25.1805 H   0  0  0  0  0  0  0  0  0  0  0  0
    0.6338    1.6377   23.7992 H   0  0  0  0  0  0  0  0  0  0  0  0
   -0.7620    0.5070   23.7992 H   0  0  0  0  0  0  0  0  0  0  0  0
    1.8704   -0.8251   25.3803 H   0  0  0  0  0  0  0  0  0  0  0  0
    2.2792   -2.0826   24.1645 H   0  0  0  0  0  0  0  0  0  0  0  0
    3.1558   -0.5148   24.1645 H   0  0  0  0  0  0  0  0  0  0  0  0
   -0.1850   -2.0565   23.8464 H   0  0  0  0  0  0  0  0  0  0  0  0
   -0.6042   -1.1477   22.3547 H   0  0  0  0  0  0  0  0  0  0  0  0
    0.7905   -2.2797   22.3547 H   0  0  0  0  0  0  0  0  0  0  0  0
    3.4511    1.0160   23.4631 H   0  0  0  0  0  0  0  0  0  0  0  0
    4.6800    2.0899   21.5889 H   0  0  0  0  0  0  0  0  0  0  0  0
    4.5836    1.3254   18.3897 H   0  0  0  0  0  0  0  0  0  0  0  0
    3.2742    2.5678   18.2620 H   0  0  0  0  0  0  0  0  0  0  0  0
    5.8160    2.8140   19.7440 H   0  0  0  0  0  0  0  0  0  0  0  0
    5.2304    5.3174   22.2880 H   0  0  0  0  0  0  0  0  0  0  0  0
    7.1200    7.2075   23.5483 H   0  0  0  0  0  0  0  0  0  0  0  0
    8.5815   10.0832   24.8184 H   0  0  0  0  0  0  0  0  0  0  0  0
    7.7715    8.4676   24.5327 H   0  0  0  0  0  0  0  0  0  0  0  0
   11.4373    9.3861   24.6920 H   0  0  0  0  0  0  0  0  0  0  0  0
   13.0074    8.2087   26.2227 H   0  0  0  0  0  0  0  0  0  0  0  0
   12.1525    6.4954   27.8179 H   0  0  0  0  0  0  0  0  0  0  0  0
    9.7175    5.9618   27.8848 H   0  0  0  0  0  0  0  0  0  0  0  0
    8.1382    7.1382   26.3588 H   0  0  0  0  0  0  0  0  0  0  0  0
    9.6753    9.1756   20.6833 H   0  0  0  0  0  0  0  0  0  0  0  0
    8.6261    7.8962   18.8094 H   0  0  0  0  0  0  0  0  0  0  0  0
    5.8095    5.8111   17.3898 H   0  0  0  0  0  0  0  0  0  0  0  0
    7.4264    6.6188   17.5820 H   0  0  0  0  0  0  0  0  0  0  0  0
    8.9654    4.7522   19.1523 H   0  0  0  0  0  0  0  0  0  0  0  0
   10.1284    2.6069   18.6801 H   0  0  0  0  0  0  0  0  0  0  0  0
    9.3200    1.1133   16.8606 H   0  0  0  0  0  0  0  0  0  0  0  0
    7.1980   -0.1120   16.3880 H   0  0  0  0  0  0  0  0  0  0  0  0
    6.6630   -0.3810   14.7650 H   0  0  0  0  0  0  0  0  0  0  0  0
    7.1270    3.0390   13.8650 H   0  0  0  0  0  0  0  0  0  0  0  0
    6.6530    1.4910   13.2490 H   0  0  0  0  0  0  0  0  0  0  0  0
    6.1444    3.9160   15.9856 H   0  0  0  0  0  0  0  0  0  0  0  0
    1.6744    0.6909   18.8258 H   0  0  0  0  0  0  0  0  0  0  0  0
    0.4414   -0.3842   20.6990 H   0  0  0  0  0  0  0  0  0  0  0  0
  1  2  1  0
  2  3  1  0
  2  4  1  0
  2  5  1  0
  5  6  2  0
  6  7  1  0
  7  8  2  0
  8  9  1  0
  9 10  1  0
 10 11  1  0
 11 12  2  0
 11 13  1  0
 13 14  2  0
 14 15  1  0
 15 16  2  0
 16 17  1  0
 17 18  1  0
 18 19  1  0
 19 20  1  0
 20 21  2  0
 21 22  1  0
 22 23  2  0
 23 24  1  0
 24 25  2  0
 17 26  2  0
 26 27  1  0
 27 28  2  0
 28 29  1  0
 29 30  1  0
 30 31  1  0
 31 32  2  0
 32 33  1  0
 33 34  2  0
 34 35  1  0
 35 36  1  0
 36 37  1  0
 36 38  2  0
 35 39  2  0
  8 40  1  0
 40 41  2  0
 41  5  1  0
 29 13  1  0
 39 31  1  0
 28 15  1  0
 25 20  1  0
  1 42  1  0
  1 43  1  0
  1 44  1  0
  3 45  1  0
  3 46  1  0
  3 47  1  0
  4 48  1  0
  4 49  1  0
  4 50  1  0
  6 51  1  0
  7 52  1  0
  9 53  1  0
  9 54  1  0
 10 55  1  0
 14 56  1  0
 16 57  1  0
 19 58  1  0
 19 59  1  0
 21 60  1  0
 22 61  1  0
 23 62  1  0
 24 63  1  0
 25 64  1  0
 26 65  1  0
 27 66  1  0
 30 67  1  0
 30 68  1  0
 32 69  1  0
 33 70  1  0
 34 71  1  0
 37 72  1  0
 37 73  1  0
 38 74  1  0
 38 75  1  0
 39 76  1  0
 40 77  1  0
 41 78  1  0
M  CHG  2   2   1  38   1
M  END
>  <meeko>  (4) 
{"is_sidechain": [false], "free_energy": -9.742, "intermolecular_energy": -14.89, "internal_energy": -1.844}

$$$$
1lpg_ligand
     RDKit          3D

 78 82  0  0  0  0  0  0  0  0999 V2000
    5.6070   -0.5760   13.2140 C   0  0  0  0  0  0  0  0  0  0  0  0
    5.4450   -0.1780   14.6780 N   0  0  0  0  0  0  0  0  0  0  0  0
    4.1420   -0.7290   15.2520 C   0  0  0  0  0  0  0  0  0  0  0  0
    6.5980   -0.7990   15.4620 C   0  0  0  0  0  0  0  0  0  0  0  0
    5.4220    1.3380   14.7770 C   0  0  0  0  0  0  0  0  0  0  0  0
    6.6340    2.0430   14.8740 C   0  0  0  0  0  0  0  0  0  0  0  0
    6.6560    3.4410   14.9550 C   0  0  0  0  0  0  0  0  0  0  0  0
    5.4650    4.1730   14.9360 C   0  0  0  0  0  0  0  0  0  0  0  0
    5.4740    5.6800   15.0260 C   0  0  0  0  0  0  0  0  0  0  0  0
    6.0450    6.1250   16.2750 N   0  0  0  0  0  0  0  0  0  0  0  0
    5.3600    6.9430   17.1470 C   0  0  0  0  0  0  0  0  0  0  0  0
    4.2310    7.3450   16.8810 O   0  0  0  0  0  0  0  0  0  0  0  0
    6.0600    7.2550   18.3880 C   0  0  0  0  0  0  0  0  0  0  0  0
    7.0160    8.2330   18.6310 C   0  0  0  0  0  0  0  0  0  0  0  0
    7.4760    8.1210   19.9670 C   0  0  0  0  0  0  0  0  0  0  0  0
    8.4470    8.8200   20.7170 C   0  0  0  0  0  0  0  0  0  0  0  0
    8.7060    8.4400   22.0370 C   0  0  0  0  0  0  0  0  0  0  0  0
    9.6250    9.0090   22.8750 O   0  0  0  0  0  0  0  0  0  0  0  0
    9.2370    9.3360   24.2130 C   0  0  0  0  0  0  0  0  0  0  0  0
    9.9000    8.4800   25.2690 C   0  0  0  0  0  0  0  0  0  0  0  0
    9.1660    7.5600   26.0310 C   0  0  0  0  0  0  0  0  0  0  0  0
    9.7880    6.8080   27.0290 C   0  0  0  0  0  0  0  0  0  0  0  0
   11.1460    6.9760   27.2870 C   0  0  0  0  0  0  0  0  0  0  0  0
   11.8850    7.8990   26.5480 C   0  0  0  0  0  0  0  0  0  0  0  0
   11.2650    8.6520   25.5490 C   0  0  0  0  0  0  0  0  0  0  0  0
    8.0090    7.3690   22.5940 C   0  0  0  0  0  0  0  0  0  0  0  0
    7.0380    6.6670   21.8720 C   0  0  0  0  0  0  0  0  0  0  0  0
    6.7780    7.0690   20.5520 C   0  0  0  0  0  0  0  0  0  0  0  0
    5.8730    6.6040   19.6060 N   0  0  0  0  0  0  0  0  0  0  0  0
    4.8840    5.5590   19.8820 C   0  0  0  0  0  0  0  0  0  0  0  0
    5.3200    4.2030   19.3620 C   0  0  0  0  0  0  0  0  0  0  0  0
    4.3570    3.2400   19.0330 C   0  0  0  0  0  0  0  0  0  0  0  0
    4.7340    1.9930   18.5350 C   0  0  0  0  0  0  0  0  0  0  0  0
    6.0820    1.6880   18.3550 C   0  0  0  0  0  0  0  0  0  0  0  0
    7.0710    2.6310   18.6680 C   0  0  0  0  0  0  0  0  0  0  0  0
    8.4940    2.3120   18.4840 C   0  0  0  0  0  0  0  0  0  0  0  0
    9.3240    3.2570   18.1020 N   0  0  0  0  0  0  0  0  0  0  0  0
    8.9130    1.0850   18.7060 N   0  0  0  0  0  0  0  0  0  0  0  0
    6.6770    3.8860   19.1650 C   0  0  0  0  0  0  0  0  0  0  0  0
    4.2550    3.4750   14.8550 C   0  0  0  0  0  0  0  0  0  0  0  0
    4.2320    2.0750   14.7730 C   0  0  0  0  0  0  0  0  0  0  0  0
    6.0211   -1.5933   13.1543 H   0  0  0  0  0  0  0  0  0  0  0  0
    4.6265   -0.5494   12.7161 H   0  0  0  0  0  0  0  0  0  0  0  0
    6.2902    0.1278   12.7161 H   0  0  0  0  0  0  0  0  0  0  0  0
    4.1882   -0.7095   16.3509 H   0  0  0  0  0  0  0  0  0  0  0  0
    3.2997   -0.1100   14.9094 H   0  0  0  0  0  0  0  0  0  0  0  0
    3.9993   -1.7645   14.9094 H   0  0  0  0  0  0  0  0  0  0  0  0
    6.4060   -0.6956   16.5402 H   0  0  0  0  0  0  0  0  0  0  0  0
    6.6836   -1.8652   15.2054 H   0  0  0  0  0  0  0  0  0  0  0  0
    7.5354   -0.2837   15.2054 H   0  0  0  0  0  0  0  0  0  0  0  0
    7.5828    1.4865   14.8865 H   0  0  0  0  0  0  0  0  0  0  0  0
    7.6185    3.9676   15.0342 H   0  0  0  0  0  0  0  0  0  0  0  0
    6.0693    6.0855   14.1946 H   0  0  0  0  0  0  0  0  0  0  0  0
    4.4355    6.0385   14.9704 H   0  0  0  0  0  0  0  0  0  0  0  0
    6.9150    5.7090   16.5650 H   0  0  0  0  0  0  0  0  0  0  0  0
    7.3623    8.9786   17.9001 H   0  0  0  0  0  0  0  0  0  0  0  0
    8.9965    9.6589   20.2650 H   0  0  0  0  0  0  0  0  0  0  0  0
    9.5005   10.3869   24.4032 H   0  0  0  0  0  0  0  0  0  0  0  0
    8.1549    9.1526   24.2859 H   0  0  0  0  0  0  0  0  0  0  0  0
    8.0905    7.4297   25.8407 H   0  0  0  0  0  0  0  0  0  0  0  0
    9.2042    6.0812   27.6129 H   0  0  0  0  0  0  0  0  0  0  0  0
   11.6351    6.3814   28.0727 H   0  0  0  0  0  0  0  0  0  0  0  0
   12.9574    8.0340   26.7522 H   0  0  0  0  0  0  0  0  0  0  0  0
   11.8509    9.3862   24.9765 H   0  0  0  0  0  0  0  0  0  0  0  0
    8.2284    7.0678   23.6290 H   0  0  0  0  0  0  0  0  0  0  0  0
    6.4942    5.8249   22.3250 H   0  0  0  0  0  0  0  0  0  0  0  0
    4.7363    5.4900   20.9699 H   0  0  0  0  0  0  0  0  0  0  0  0
    3.9516    5.8333   19.3669 H   0  0  0  0  0  0  0  0  0  0  0  0
    3.2901    3.4704   19.1692 H   0  0  0  0  0  0  0  0  0  0  0  0
    3.9650    1.2478   18.2835 H   0  0  0  0  0  0  0  0  0  0  0  0
    6.3717    0.7011   17.9649 H   0  0  0  0  0  0  0  0  0  0  0  0
    8.9750    4.1890   17.9050 H   0  0  0  0  0  0  0  0  0  0  0  0
   10.3110    3.0930   17.9630 H   0  0  0  0  0  0  0  0  0  0  0  0
    8.2570    0.3770   19.0240 H   0  0  0  0  0  0  0  0  0  0  0  0
    9.8790    0.8100   18.5960 H   0  0  0  0  0  0  0  0  0  0  0  0
    7.4454    4.6356   19.4048 H   0  0  0  0  0  0  0  0  0  0  0  0
    3.3070    4.0330   14.8556 H   0  0  0  0  0  0  0  0  0  0  0  0
    3.2677    1.5502   14.7048 H   0  0  0  0  0  0  0  0  0  0  0  0
  1  2  1  0
  2  3  1  0
  2  4  1  0
  2  5  1  0
  5  6  2  0
  6  7  1  0
  7  8  2  0
  8  9  1  0
  9 10  1  0
 10 11  1  0
 11 12  2  0
 11 13  1  0
 13 14  2  0
 14 15  1  0
 15 16  2  0
 16 17  1  0
 17 18  1  0
 18 19  1  0
 19 20  1  0
 20 21  2  0
 21 22  1  0
 22 23  2  0
 23 24  1  0
 24 25  2  0
 17 26  2  0
 26 27  1  0
 27 28  2  0
 28 29  1  0
 29 30  1  0
 30 31  1  0
 31 32  2  0
 32 33  1  0
 33 34  2  0
 34 35  1  0
 35 36  1  0
 36 37  1  0
 36 38  2  0
 35 39  2  0
  8 40  1  0
 40 41  2  0
 41  5  1  0
 29 13  1  0
 39 31  1  0
 28 15  1  0
 25 20  1  0
  1 42  1  0
  1 43  1  0
  1 44  1  0
  3 45  1  0
  3 46  1  0
  3 47  1  0
  4 48  1  0
  4 49  1  0
  4 50  1  0
  6 51  1  0
  7 52  1  0
  9 53  1  0
  9 54  1  0
 10 55  1  0
 14 56  1  0
 16 57  1  0
 19 58  1  0
 19 59  1  0
 21 60  1  0
 22 61  1  0
 23 62  1  0
 24 63  1  0
 25 64  1  0
 26 65  1  0
 27 66  1  0
 30 67  1  0
 30 68  1  0
 32 69  1  0
 33 70  1  0
 34 71  1  0
 37 72  1  0
 37 73  1  0
 38 74  1  0
 38 75  1  0
 39 76  1  0
 40 77  1  0
 41 78  1  0
M  CHG  2   2   1  38   1
M  END
>  <meeko>  (5) 
{"is_sidechain": [false], "free_energy": -9.736, "intermolecular_energy": -13.543, "internal_energy": -3.182}

$$$$
1lpg_ligand
     RDKit          3D

 78 82  0  0  0  0  0  0  0  0999 V2000
    5.9380   -0.4610   15.2180 C   0  0  0  0  0  0  0  0  0  0  0  0
    5.0990    0.6130   14.5310 N   0  0  0  0  0  0  0  0  0  0  0  0
    5.9610    1.4740   13.6110 C   0  0  0  0  0  0  0  0  0  0  0  0
    4.0550   -0.0910   13.6670 C   0  0  0  0  0  0  0  0  0  0  0  0
    4.4730    1.5020   15.5920 C   0  0  0  0  0  0  0  0  0  0  0  0
    4.9320    1.4250   16.9180 C   0  0  0  0  0  0  0  0  0  0  0  0
    4.3890    2.2350   17.9230 C   0  0  0  0  0  0  0  0  0  0  0  0
    3.3750    3.1510   17.6270 C   0  0  0  0  0  0  0  0  0  0  0  0
    2.7790    4.0280   18.7010 C   0  0  0  0  0  0  0  0  0  0  0  0
    3.8050    4.7610   19.4050 N   0  0  0  0  0  0  0  0  0  0  0  0
    4.1490    6.0520   19.0680 C   0  0  0  0  0  0  0  0  0  0  0  0
    3.6020    6.6290   18.1320 O   0  0  0  0  0  0  0  0  0  0  0  0
    5.1660    6.6670   19.9140 C   0  0  0  0  0  0  0  0  0  0  0  0
    5.0140    7.3240   21.1290 C   0  0  0  0  0  0  0  0  0  0  0  0
    6.2690    7.8260   21.5540 C   0  0  0  0  0  0  0  0  0  0  0  0
    6.6790    8.5850   22.6720 C   0  0  0  0  0  0  0  0  0  0  0  0
    8.0180    8.9670   22.7950 C   0  0  0  0  0  0  0  0  0  0  0  0
    8.5530    9.7140   23.8080 O   0  0  0  0  0  0  0  0  0  0  0  0
    9.9300    9.5300   24.1530 C   0  0  0  0  0  0  0  0  0  0  0  0
   10.1520    8.5540   25.2870 C   0  0  0  0  0  0  0  0  0  0  0  0
   11.4230    8.3600   25.8450 C   0  0  0  0  0  0  0  0  0  0  0  0
   11.6170    7.4260   26.8640 C   0  0  0  0  0  0  0  0  0  0  0  0
   10.5450    6.6650   27.3270 C   0  0  0  0  0  0  0  0  0  0  0  0
    9.2800    6.8360   26.7700 C   0  0  0  0  0  0  0  0  0  0  0  0
    9.0840    7.7700   25.7510 C   0  0  0  0  0  0  0  0  0  0  0  0
    8.9310    8.6030   21.8070 C   0  0  0  0  0  0  0  0  0  0  0  0
    8.5490    7.8450   20.6950 C   0  0  0  0  0  0  0  0  0  0  0  0
    7.2040    7.4560   20.5920 C   0  0  0  0  0  0  0  0  0  0  0  0
    6.5330    6.6920   19.6440 N   0  0  0  0  0  0  0  0  0  0  0  0
    7.2020    6.0330   18.5200 C   0  0  0  0  0  0  0  0  0  0  0  0
    7.4760    4.5670   18.7930 C   0  0  0  0  0  0  0  0  0  0  0  0
    6.9430    3.9590   19.9380 C   0  0  0  0  0  0  0  0  0  0  0  0
    7.1660    2.6080   20.2000 C   0  0  0  0  0  0  0  0  0  0  0  0
    7.9230    1.8380   19.3200 C   0  0  0  0  0  0  0  0  0  0  0  0
    8.4650    2.4120   18.1610 C   0  0  0  0  0  0  0  0  0  0  0  0
    9.2680    1.6040   17.2310 C   0  0  0  0  0  0  0  0  0  0  0  0
   10.2680    0.8880   17.6950 N   0  0  0  0  0  0  0  0  0  0  0  0
    8.9700    1.6120   15.9500 N   0  0  0  0  0  0  0  0  0  0  0  0
    8.2290    3.7750   17.9060 C   0  0  0  0  0  0  0  0  0  0  0  0
    2.9040    3.2220   16.3110 C   0  0  0  0  0  0  0  0  0  0  0  0
    3.4470    2.4100   15.3050 C   0  0  0  0  0  0  0  0  0  0  0  0
    5.8522   -0.3511   16.3091 H   0  0  0  0  0  0  0  0  0  0  0  0
    5.5755   -1.4559   14.9200 H   0  0  0  0  0  0  0  0  0  0  0  0
    6.9910   -0.3501   14.9200 H   0  0  0  0  0  0  0  0  0  0  0  0
    6.6102    2.1224   14.2177 H   0  0  0  0  0  0  0  0  0  0  0  0
    6.5817    0.8245   12.9762 H   0  0  0  0  0  0  0  0  0  0  0  0
    5.3122    2.0954   12.9762 H   0  0  0  0  0  0  0  0  0  0  0  0
    3.3178   -0.5881   14.3147 H   0  0  0  0  0  0  0  0  0  0  0  0
    3.5454    0.6486   13.0320 H   0  0  0  0  0  0  0  0  0  0  0  0
    4.5497   -0.8407   13.0320 H   0  0  0  0  0  0  0  0  0  0  0  0
    5.7331    0.7150   17.1713 H   0  0  0  0  0  0  0  0  0  0  0  0
    4.7633    2.1499   18.9538 H   0  0  0  0  0  0  0  0  0  0  0  0
    2.0828    4.7417   18.2362 H   0  0  0  0  0  0  0  0  0  0  0  0
    2.2519    3.3862   19.4223 H   0  0  0  0  0  0  0  0  0  0  0  0
    4.1760    4.3530   20.2470 H   0  0  0  0  0  0  0  0  0  0  0  0
    4.0663    7.4369   21.6760 H   0  0  0  0  0  0  0  0  0  0  0  0
    5.9486    8.8741   23.4420 H   0  0  0  0  0  0  0  0  0  0  0  0
   10.4626    9.1571   23.2657 H   0  0  0  0  0  0  0  0  0  0  0  0
   10.3074   10.5058   24.4927 H   0  0  0  0  0  0  0  0  0  0  0  0
   12.2756    8.9493   25.4765 H   0  0  0  0  0  0  0  0  0  0  0  0
   12.6169    7.2904   27.3020 H   0  0  0  0  0  0  0  0  0  0  0  0
   10.6979    5.9303   28.1313 H   0  0  0  0  0  0  0  0  0  0  0  0
    8.4340    6.2342   27.1335 H   0  0  0  0  0  0  0  0  0  0  0  0
    8.0846    7.8925   25.3081 H   0  0  0  0  0  0  0  0  0  0  0  0
    9.9798    8.9201   21.9041 H   0  0  0  0  0  0  0  0  0  0  0  0
    9.2809    7.5621   19.9241 H   0  0  0  0  0  0  0  0  0  0  0  0
    6.5604    6.1132   17.6301 H   0  0  0  0  0  0  0  0  0  0  0  0
    8.1694    6.5329   18.3641 H   0  0  0  0  0  0  0  0  0  0  0  0
    6.3409    4.5557   20.6390 H   0  0  0  0  0  0  0  0  0  0  0  0
    6.7425    2.1483   21.1052 H   0  0  0  0  0  0  0  0  0  0  0  0
    8.0967    0.7734   19.5355 H   0  0  0  0  0  0  0  0  0  0  0  0
   10.5000    0.9220   18.6820 H   0  0  0  0  0  0  0  0  0  0  0  0
   10.8500    0.3140   17.1000 H   0  0  0  0  0  0  0  0  0  0  0  0
    8.1780    2.1540   15.6190 H   0  0  0  0  0  0  0  0  0  0  0  0
    9.4870    1.0760   15.2670 H   0  0  0  0  0  0  0  0  0  0  0  0
    8.6416    4.2315   16.9942 H   0  0  0  0  0  0  0  0  0  0  0  0
    2.0957    3.9254   16.0621 H   0  0  0  0  0  0  0  0  0  0  0  0
    3.0619    2.4875   14.2775 H   0  0  0  0  0  0  0  0  0  0  0  0
  1  2  1  0
  2  3  1  0
  2  4  1  0
  2  5  1  0
  5  6  2  0
  6  7  1  0
  7  8  2  0
  8  9  1  0
  9 10  1  0
 10 11  1  0
 11 12  2  0
 11 13  1  0
 13 14  2  0
 14 15  1  0
 15 16  2  0
 16 17  1  0
 17 18  1  0
 18 19  1  0
 19 20  1  0
 20 21  2  0
 21 22  1  0
 22 23  2  0
 23 24  1  0
 24 25  2  0
 17 26  2  0
 26 27  1  0
 27 28  2  0
 28 29  1  0
 29 30  1  0
 30 31  1  0
 31 32  2  0
 32 33  1  0
 33 34  2  0
 34 35  1  0
 35 36  1  0
 36 37  1  0
 36 38  2  0
 35 39  2  0
  8 40  1  0
 40 41  2  0
 41  5  1  0
 29 13  1  0
 39 31  1  0
 28 15  1  0
 25 20  1  0
  1 42  1  0
  1 43  1  0
  1 44  1  0
  3 45  1  0
  3 46  1  0
  3 47  1  0
  4 48  1  0
  4 49  1  0
  4 50  1  0
  6 51  1  0
  7 52  1  0
  9 53  1  0
  9 54  1  0
 10 55  1  0
 14 56  1  0
 16 57  1  0
 19 58  1  0
 19 59  1  0
 21 60  1  0
 22 61  1  0
 23 62  1  0
 24 63  1  0
 25 64  1  0
 26 65  1  0
 27 66  1  0
 30 67  1  0
 30 68  1  0
 32 69  1  0
 33 70  1  0
 34 71  1  0
 37 72  1  0
 37 73  1  0
 38 74  1  0
 38 75  1  0
 39 76  1  0
 40 77  1  0
 41 78  1  0
M  CHG  2   2   1  38   1
M  END
>  <meeko>  (6) 
{"is_sidechain": [false], "free_energy": -9.586, "intermolecular_energy": -13.918, "internal_energy": -2.57}

$$$$
1lpg_ligand
     RDKit          3D

 78 82  0  0  0  0  0  0  0  0999 V2000
   -3.8260    9.1340   25.6880 C   0  0  0  0  0  0  0  0  0  0  0  0
   -2.9820    8.2990   24.7300 N   0  0  0  0  0  0  0  0  0  0  0  0
   -2.8510    6.8610   25.2290 C   0  0  0  0  0  0  0  0  0  0  0  0
   -3.7010    8.2610   23.3850 C   0  0  0  0  0  0  0  0  0  0  0  0
   -1.5950    8.9130   24.6330 C   0  0  0  0  0  0  0  0  0  0  0  0
   -1.3530    9.9270   23.6920 C   0  0  0  0  0  0  0  0  0  0  0  0
   -0.0920   10.5260   23.5790 C   0  0  0  0  0  0  0  0  0  0  0  0
    0.9610   10.1300   24.4100 C   0  0  0  0  0  0  0  0  0  0  0  0
    2.3250   10.7650   24.2970 C   0  0  0  0  0  0  0  0  0  0  0  0
    3.1880    9.9980   23.4300 N   0  0  0  0  0  0  0  0  0  0  0  0
    4.3540    9.4170   23.8780 C   0  0  0  0  0  0  0  0  0  0  0  0
    4.7180    9.5470   25.0440 O   0  0  0  0  0  0  0  0  0  0  0  0
    5.0800    8.6310   22.8860 C   0  0  0  0  0  0  0  0  0  0  0  0
    4.9490    8.6320   21.5030 C   0  0  0  0  0  0  0  0  0  0  0  0
    5.8090    7.6510   20.9480 C   0  0  0  0  0  0  0  0  0  0  0  0
    6.0480    7.2110   19.6280 C   0  0  0  0  0  0  0  0  0  0  0  0
    6.9530    6.1710   19.3990 C   0  0  0  0  0  0  0  0  0  0  0  0
    7.2700    5.6300   18.1840 O   0  0  0  0  0  0  0  0  0  0  0  0
    6.6740    4.3860   17.8010 C   0  0  0  0  0  0  0  0  0  0  0  0
    7.6190    3.2080   17.8690 C   0  0  0  0  0  0  0  0  0  0  0  0
    7.1440    1.8960   18.0080 C   0  0  0  0  0  0  0  0  0  0  0  0
    8.0320    0.8250   18.1100 C   0  0  0  0  0  0  0  0  0  0  0  0
    9.4060    1.0520   18.0870 C   0  0  0  0  0  0  0  0  0  0  0  0
    9.8940    2.3520   17.9660 C   0  0  0  0  0  0  0  0  0  0  0  0
    9.0060    3.4250   17.8640 C   0  0  0  0  0  0  0  0  0  0  0  0
    7.6030    5.5750   20.4780 C   0  0  0  0  0  0  0  0  0  0  0  0
    7.3880    6.0000   21.7940 C   0  0  0  0  0  0  0  0  0  0  0  0
    6.4860    7.0550   22.0070 C   0  0  0  0  0  0  0  0  0  0  0  0
    6.0880    7.7100   23.1660 N   0  0  0  0  0  0  0  0  0  0  0  0
    6.6590    7.4320   24.4860 C   0  0  0  0  0  0  0  0  0  0  0  0
    8.0790    7.9470   24.6180 C   0  0  0  0  0  0  0  0  0  0  0  0
    8.5310    8.9700   23.7730 C   0  0  0  0  0  0  0  0  0  0  0  0
    9.8270    9.4720   23.8890 C   0  0  0  0  0  0  0  0  0  0  0  0
   10.6940    8.9620   24.8540 C   0  0  0  0  0  0  0  0  0  0  0  0
   10.2720    7.9440   25.7190 C   0  0  0  0  0  0  0  0  0  0  0  0
   11.1840    7.4000   26.7360 C   0  0  0  0  0  0  0  0  0  0  0  0
   10.6880    6.8680   27.8310 N   0  0  0  0  0  0  0  0  0  0  0  0
   12.4820    7.4540   26.5300 N   0  0  0  0  0  0  0  0  0  0  0  0
    8.9610    7.4490   25.5950 C   0  0  0  0  0  0  0  0  0  0  0  0
    0.7290    9.1080   25.3380 C   0  0  0  0  0  0  0  0  0  0  0  0
   -0.5340    8.5090   25.4520 C   0  0  0  0  0  0  0  0  0  0  0  0
   -3.5659    8.8767   26.7254 H   0  0  0  0  0  0  0  0  0  0  0  0
   -3.6287   10.2022   25.5147 H   0  0  0  0  0  0  0  0  0  0  0  0
   -4.8920    8.9252   25.5147 H   0  0  0  0  0  0  0  0  0  0  0  0
   -2.8503    6.8532   26.3290 H   0  0  0  0  0  0  0  0  0  0  0  0
   -3.6986    6.2657   24.8587 H   0  0  0  0  0  0  0  0  0  0  0  0
   -1.9098    6.4287   24.8587 H   0  0  0  0  0  0  0  0  0  0  0  0
   -4.7869    8.2036   23.5512 H   0  0  0  0  0  0  0  0  0  0  0  0
   -3.4647    9.1729   22.8170 H   0  0  0  0  0  0  0  0  0  0  0  0
   -3.3699    7.3791   22.8170 H   0  0  0  0  0  0  0  0  0  0  0  0
   -2.1686   10.2568   23.0317 H   0  0  0  0  0  0  0  0  0  0  0  0
    0.0716   11.3149   22.8301 H   0  0  0  0  0  0  0  0  0  0  0  0
    2.2154   11.7800   23.8874 H   0  0  0  0  0  0  0  0  0  0  0  0
    2.7780   10.7977   25.2989 H   0  0  0  0  0  0  0  0  0  0  0  0
    2.8470    9.7780   22.5080 H   0  0  0  0  0  0  0  0  0  0  0  0
    4.2820    9.2912   20.9281 H   0  0  0  0  0  0  0  0  0  0  0  0
    5.5246    7.6843   18.7842 H   0  0  0  0  0  0  0  0  0  0  0  0
    5.8246    4.1879   18.4713 H   0  0  0  0  0  0  0  0  0  0  0  0
    6.3670    4.4891   16.7498 H   0  0  0  0  0  0  0  0  0  0  0  0
    6.0603    1.7095   18.0369 H   0  0  0  0  0  0  0  0  0  0  0  0
    7.6465   -0.2005   18.2088 H   0  0  0  0  0  0  0  0  0  0  0  0
   10.1052    0.2063   18.1642 H   0  0  0  0  0  0  0  0  0  0  0  0
   10.9789    2.5328   17.9508 H   0  0  0  0  0  0  0  0  0  0  0  0
    9.3969    4.4497   17.7790 H   0  0  0  0  0  0  0  0  0  0  0  0
    8.3039    4.7483   20.2903 H   0  0  0  0  0  0  0  0  0  0  0  0
    7.9099    5.5220   22.6361 H   0  0  0  0  0  0  0  0  0  0  0  0
    6.0343    7.9164   25.2509 H   0  0  0  0  0  0  0  0  0  0  0  0
    6.6828    6.3404   24.6196 H   0  0  0  0  0  0  0  0  0  0  0  0
    7.8552    9.3819   23.0090 H   0  0  0  0  0  0  0  0  0  0  0  0
   10.1663   10.2735   23.2164 H   0  0  0  0  0  0  0  0  0  0  0  0
   11.7156    9.3612   24.9368 H   0  0  0  0  0  0  0  0  0  0  0  0
    9.6850    6.8650   27.9840 H   0  0  0  0  0  0  0  0  0  0  0  0
   11.2700    6.4780   28.5600 H   0  0  0  0  0  0  0  0  0  0  0  0
   12.8410    7.8480   25.6660 H   0  0  0  0  0  0  0  0  0  0  0  0
   13.1550    7.0950   27.1940 H   0  0  0  0  0  0  0  0  0  0  0  0
    8.6181    6.6561   26.2760 H   0  0  0  0  0  0  0  0  0  0  0  0
    1.5497    8.7696   25.9876 H   0  0  0  0  0  0  0  0  0  0  0  0
   -0.6928    7.7123   26.1937 H   0  0  0  0  0  0  0  0  0  0  0  0
  1  2  1  0
  2  3  1  0
  2  4  1  0
  2  5  1  0
  5  6  2  0
  6  7  1  0
  7  8  2  0
  8  9  1  0
  9 10  1  0
 10 11  1  0
 11 12  2  0
 11 13  1  0
 13 14  2  0
 14 15  1  0
 15 16  2  0
 16 17  1  0
 17 18  1  0
 18 19  1  0
 19 20  1  0
 20 21  2  0
 21 22  1  0
 22 23  2  0
 23 24  1  0
 24 25  2  0
 17 26  2  0
 26 27  1  0
 27 28  2  0
 28 29  1  0
 29 30  1  0
 30 31  1  0
 31 32  2  0
 32 33  1  0
 33 34  2  0
 34 35  1  0
 35 36  1  0
 36 37  1  0
 36 38  2  0
 35 39  2  0
  8 40  1  0
 40 41  2  0
 41  5  1  0
 29 13  1  0
 39 31  1  0
 28 15  1  0
 25 20  1  0
  1 42  1  0
  1 43  1  0
  1 44  1  0
  3 45  1  0
  3 46  1  0
  3 47  1  0
  4 48  1  0
  4 49  1  0
  4 50  1  0
  6 51  1  0
  7 52  1  0
  9 53  1  0
  9 54  1  0
 10 55  1  0
 14 56  1  0
 16 57  1  0
 19 58  1  0
 19 59  1  0
 21 60  1  0
 22 61  1  0
 23 62  1  0
 24 63  1  0
 25 64  1  0
 26 65  1  0
 27 66  1  0
 30 67  1  0
 30 68  1  0
 32 69  1  0
 33 70  1  0
 34 71  1  0
 37 72  1  0
 37 73  1  0
 38 74  1  0
 38 75  1  0
 39 76  1  0
 40 77  1  0
 41 78  1  0
M  CHG  2   2   1  38   1
M  END
>  <meeko>  (7) 
{"is_sidechain": [false], "free_energy": -9.539, "intermolecular_energy": -15.244, "internal_energy": -1.169}

$$$$
1lpg_ligand
     RDKit          3D

 78 82  0  0  0  0  0  0  0  0999 V2000
   -0.6060   13.4550   22.0660 C   0  0  0  0  0  0  0  0  0  0  0  0
   -1.5250   13.0790   23.2240 N   0  0  0  0  0  0  0  0  0  0  0  0
   -1.5740   14.1930   24.2660 C   0  0  0  0  0  0  0  0  0  0  0  0
   -2.9340   12.9030   22.6640 C   0  0  0  0  0  0  0  0  0  0  0  0
   -0.9960   11.8150   23.8810 C   0  0  0  0  0  0  0  0  0  0  0  0
   -1.8950   10.8010   24.2530 C   0  0  0  0  0  0  0  0  0  0  0  0
   -1.4470    9.6170   24.8520 C   0  0  0  0  0  0  0  0  0  0  0  0
   -0.0850    9.4120   25.0890 C   0  0  0  0  0  0  0  0  0  0  0  0
    0.4120    8.1420   25.7360 C   0  0  0  0  0  0  0  0  0  0  0  0
    1.2030    7.3620   24.8140 N   0  0  0  0  0  0  0  0  0  0  0  0
    2.5730    7.2650   24.9190 C   0  0  0  0  0  0  0  0  0  0  0  0
    3.1840    7.8620   25.8010 O   0  0  0  0  0  0  0  0  0  0  0  0
    3.2130    6.3930   23.9400 C   0  0  0  0  0  0  0  0  0  0  0  0
    3.1920    5.0060   23.8580 C   0  0  0  0  0  0  0  0  0  0  0  0
    4.0190    4.5850   22.7860 C   0  0  0  0  0  0  0  0  0  0  0  0
    4.3810    3.3160   22.2850 C   0  0  0  0  0  0  0  0  0  0  0  0
    5.2680    3.2240   21.2090 C   0  0  0  0  0  0  0  0  0  0  0  0
    5.7210    2.0700   20.6330 O   0  0  0  0  0  0  0  0  0  0  0  0
    5.9020    2.0270   19.2140 C   0  0  0  0  0  0  0  0  0  0  0  0
    7.3510    2.0640   18.7800 C   0  0  0  0  0  0  0  0  0  0  0  0
    7.9610    3.2590   18.3730 C   0  0  0  0  0  0  0  0  0  0  0  0
    9.2870    3.2670   17.9380 C   0  0  0  0  0  0  0  0  0  0  0  0
   10.0150    2.0800   17.8920 C   0  0  0  0  0  0  0  0  0  0  0  0
    9.4160    0.8820   18.2780 C   0  0  0  0  0  0  0  0  0  0  0  0
    8.0890    0.8720   18.7140 C   0  0  0  0  0  0  0  0  0  0  0  0
    5.7920    4.3880   20.6490 C   0  0  0  0  0  0  0  0  0  0  0  0
    5.4410    5.6560   21.1230 C   0  0  0  0  0  0  0  0  0  0  0  0
    4.5380    5.7330   22.1950 C   0  0  0  0  0  0  0  0  0  0  0  0
    3.9830    6.8210   22.8590 N   0  0  0  0  0  0  0  0  0  0  0  0
    4.2110    8.2110   22.4600 C   0  0  0  0  0  0  0  0  0  0  0  0
    5.6610    8.6230   22.6160 C   0  0  0  0  0  0  0  0  0  0  0  0
    6.2460    8.6500   23.8890 C   0  0  0  0  0  0  0  0  0  0  0  0
    7.5840    9.0080   24.0550 C   0  0  0  0  0  0  0  0  0  0  0  0
    8.3630    9.3420   22.9480 C   0  0  0  0  0  0  0  0  0  0  0  0
    7.8110    9.3190   21.6600 C   0  0  0  0  0  0  0  0  0  0  0  0
    8.6280    9.6750   20.4900 C   0  0  0  0  0  0  0  0  0  0  0  0
    8.6070   10.9100   20.0390 N   0  0  0  0  0  0  0  0  0  0  0  0
    9.3680    8.7510   19.9170 N   0  0  0  0  0  0  0  0  0  0  0  0
    6.4620    8.9520   21.5060 C   0  0  0  0  0  0  0  0  0  0  0  0
    0.8140   10.4250   24.7350 C   0  0  0  0  0  0  0  0  0  0  0  0
    0.3650   11.6110   24.1350 C   0  0  0  0  0  0  0  0  0  0  0  0
    0.3436   13.8435   22.4627 H   0  0  0  0  0  0  0  0  0  0  0  0
   -0.4093   12.5651   21.4501 H   0  0  0  0  0  0  0  0  0  0  0  0
   -1.0895   14.2276   21.4501 H   0  0  0  0  0  0  0  0  0  0  0  0
   -1.5547   13.7532   25.2741 H   0  0  0  0  0  0  0  0  0  0  0  0
   -0.7041   14.8538   24.1375 H   0  0  0  0  0  0  0  0  0  0  0  0
   -2.4986   14.7749   24.1375 H   0  0  0  0  0  0  0  0  0  0  0  0
   -3.6500   12.8136   23.4943 H   0  0  0  0  0  0  0  0  0  0  0  0
   -3.1950   13.7755   22.0471 H   0  0  0  0  0  0  0  0  0  0  0  0
   -2.9724   11.9931   22.0471 H   0  0  0  0  0  0  0  0  0  0  0  0
   -2.9708   10.9398   24.0703 H   0  0  0  0  0  0  0  0  0  0  0  0
   -2.1732    8.8419   25.1383 H   0  0  0  0  0  0  0  0  0  0  0  0
    1.0297    8.4016   26.6084 H   0  0  0  0  0  0  0  0  0  0  0  0
   -0.4584    7.5429   26.0419 H   0  0  0  0  0  0  0  0  0  0  0  0
    0.7120    6.7700   24.1630 H   0  0  0  0  0  0  0  0  0  0  0  0
    2.6225    4.3386   24.5215 H   0  0  0  0  0  0  0  0  0  0  0  0
    3.9669    2.4038   22.7394 H   0  0  0  0  0  0  0  0  0  0  0  0
    5.4505    1.0983   18.8351 H   0  0  0  0  0  0  0  0  0  0  0  0
    5.4223    2.9276   18.8032 H   0  0  0  0  0  0  0  0  0  0  0  0
    7.3894    4.1985   18.3968 H   0  0  0  0  0  0  0  0  0  0  0  0
    9.7583    4.2123   17.6309 H   0  0  0  0  0  0  0  0  0  0  0  0
   11.0610    2.0882   17.5516 H   0  0  0  0  0  0  0  0  0  0  0  0
    9.9888   -0.0563   18.2392 H   0  0  0  0  0  0  0  0  0  0  0  0
    7.6185   -0.0779   19.0080 H   0  0  0  0  0  0  0  0  0  0  0  0
    6.5007    4.3070   19.8117 H   0  0  0  0  0  0  0  0  0  0  0  0
    5.8601    6.5662   20.6692 H   0  0  0  0  0  0  0  0  0  0  0  0
    3.9212    8.3285   21.4054 H   0  0  0  0  0  0  0  0  0  0  0  0
    3.6058    8.8535   23.1165 H   0  0  0  0  0  0  0  0  0  0  0  0
    5.6420    8.3853   24.7694 H   0  0  0  0  0  0  0  0  0  0  0  0
    8.0257    9.0268   25.0622 H   0  0  0  0  0  0  0  0  0  0  0  0
    9.4169    9.6252   23.0863 H   0  0  0  0  0  0  0  0  0  0  0  0
    8.0050   11.5990   20.4770 H   0  0  0  0  0  0  0  0  0  0  0  0
    9.1500   11.2080   19.2410 H   0  0  0  0  0  0  0  0  0  0  0  0
    9.3870    7.8100   20.2980 H   0  0  0  0  0  0  0  0  0  0  0  0
    9.9490    8.9400   19.1110 H   0  0  0  0  0  0  0  0  0  0  0  0
    6.0238    8.9214   20.4975 H   0  0  0  0  0  0  0  0  0  0  0  0
    1.8880   10.2891   24.9301 H   0  0  0  0  0  0  0  0  0  0  0  0
    1.0916   12.3901   23.8609 H   0  0  0  0  0  0  0  0  0  0  0  0
  1  2  1  0
  2  3  1  0
  2  4  1  0
  2  5  1  0
  5  6  2  0
  6  7  1  0
  7  8  2  0
  8  9  1  0
  9 10  1  0
 10 11  1  0
 11 12  2  0
 11 13  1  0
 13 14  2  0
 14 15  1  0
 15 16  2  0
 16 17  1  0
 17 18  1  0
 18 19  1  0
 19 20  1  0
 20 21  2  0
 21 22  1  0
 22 23  2  0
 23 24  1  0
 24 25  2  0
 17 26  2  0
 26 27  1  0
 27 28  2  0
 28 29  1  0
 29 30  1  0
 30 31  1  0
 31 32  2  0
 32 33  1  0
 33 34  2  0
 34 35  1  0
 35 36  1  0
 36 37  1  0
 36 38  2  0
 35 39  2  0
  8 40  1  0
 40 41  2  0
 41  5  1  0
 29 13  1  0
 39 31  1  0
 28 15  1  0
 25 20  1  0
  1 42  1  0
  1 43  1  0
  1 44  1  0
  3 45  1  0
  3 46  1  0
  3 47  1  0
  4 48  1  0
  4 49  1  0
  4 50  1  0
  6 51  1  0
  7 52  1  0
  9 53  1  0
  9 54  1  0
 10 55  1  0
 14 56  1  0
 16 57  1  0
 19 58  1  0
 19 59  1  0
 21 60  1  0
 22 61  1  0
 23 62  1  0
 24 63  1  0
 25 64  1  0
 26 65  1  0
 27 66  1  0
 30 67  1  0
 30 68  1  0
 32 69  1  0
 33 70  1  0
 34 71  1  0
 37 72  1  0
 37 73  1  0
 38 74  1  0
 38 75  1  0
 39 76  1  0
 40 77  1  0
 41 78  1  0
M  CHG  2   2   1  38   1
M  END
>  <meeko>  (8) 
{"is_sidechain": [false], "free_energy": -9.37, "intermolecular_energy": -14.572, "internal_energy": -1.573}

$$$$
1lpg_ligand
     RDKit          3D

 78 82  0  0  0  0  0  0  0  0999 V2000
   -2.1410   11.3120   24.8530 C   0  0  0  0  0  0  0  0  0  0  0  0
   -0.7630   11.9640   24.9070 N   0  0  0  0  0  0  0  0  0  0  0  0
   -0.5180   12.8240   23.6700 C   0  0  0  0  0  0  0  0  0  0  0  0
   -0.7260   12.8800   26.1270 C   0  0  0  0  0  0  0  0  0  0  0  0
    0.2950   10.8740   24.9630 C   0  0  0  0  0  0  0  0  0  0  0  0
   -0.0730    9.5720   25.3420 C   0  0  0  0  0  0  0  0  0  0  0  0
    0.8690    8.5370   25.3960 C   0  0  0  0  0  0  0  0  0  0  0  0
    2.2060    8.7770   25.0670 C   0  0  0  0  0  0  0  0  0  0  0  0
    3.2330    7.6720   25.1240 C   0  0  0  0  0  0  0  0  0  0  0  0
    3.4280    7.0720   23.8250 N   0  0  0  0  0  0  0  0  0  0  0  0
    4.5600    6.3550   23.5070 C   0  0  0  0  0  0  0  0  0  0  0  0
    5.4680    6.2120   24.3230 O   0  0  0  0  0  0  0  0  0  0  0  0
    4.5730    5.7710   22.1710 C   0  0  0  0  0  0  0  0  0  0  0  0
    4.3080    4.4630   21.7850 C   0  0  0  0  0  0  0  0  0  0  0  0
    4.5150    4.3320   20.3890 C   0  0  0  0  0  0  0  0  0  0  0  0
    4.4280    3.2410   19.4960 C   0  0  0  0  0  0  0  0  0  0  0  0
    4.7380    3.4260   18.1460 C   0  0  0  0  0  0  0  0  0  0  0  0
    4.7160    2.4640   17.1740 O   0  0  0  0  0  0  0  0  0  0  0  0
    5.4340    1.2440   17.3890 C   0  0  0  0  0  0  0  0  0  0  0  0
    6.9360    1.4180   17.4290 C   0  0  0  0  0  0  0  0  0  0  0  0
    7.6700    1.1580   18.5950 C   0  0  0  0  0  0  0  0  0  0  0  0
    9.0500    1.3620   18.6260 C   0  0  0  0  0  0  0  0  0  0  0  0
    9.7110    1.8400   17.4960 C   0  0  0  0  0  0  0  0  0  0  0  0
    8.9910    2.1190   16.3360 C   0  0  0  0  0  0  0  0  0  0  0  0
    7.6110    1.9150   16.3030 C   0  0  0  0  0  0  0  0  0  0  0  0
    5.1390    4.6830   17.6990 C   0  0  0  0  0  0  0  0  0  0  0  0
    5.2260    5.7800   18.5630 C   0  0  0  0  0  0  0  0  0  0  0  0
    4.8980    5.5820   19.9140 C   0  0  0  0  0  0  0  0  0  0  0  0
    4.8560    6.4580   20.9920 N   0  0  0  0  0  0  0  0  0  0  0  0
    5.0990    7.8980   20.8710 C   0  0  0  0  0  0  0  0  0  0  0  0
    6.5700    8.2440   20.9880 C   0  0  0  0  0  0  0  0  0  0  0  0
    7.3390    8.4260   19.8300 C   0  0  0  0  0  0  0  0  0  0  0  0
    8.6890    8.7630   19.9130 C   0  0  0  0  0  0  0  0  0  0  0  0
    9.2960    8.9290   21.1570 C   0  0  0  0  0  0  0  0  0  0  0  0
    8.5550    8.7620   22.3350 C   0  0  0  0  0  0  0  0  0  0  0  0
    9.1910    8.9320   23.6500 C   0  0  0  0  0  0  0  0  0  0  0  0
   10.4270    9.3760   23.7170 N   0  0  0  0  0  0  0  0  0  0  0  0
    8.5110    8.6390   24.7360 N   0  0  0  0  0  0  0  0  0  0  0  0
    7.1930    8.4260   22.2370 C   0  0  0  0  0  0  0  0  0  0  0  0
    2.5820   10.0750   24.7040 C   0  0  0  0  0  0  0  0  0  0  0  0
    1.6380   11.1110   24.6500 C   0  0  0  0  0  0  0  0  0  0  0  0
   -2.5054   11.1396   25.8765 H   0  0  0  0  0  0  0  0  0  0  0  0
   -2.8398   11.9750   24.3218 H   0  0  0  0  0  0  0  0  0  0  0  0
   -2.0715   10.3513   24.3218 H   0  0  0  0  0  0  0  0  0  0  0  0
   -0.2289   13.8389   23.9804 H   0  0  0  0  0  0  0  0  0  0  0  0
    0.2895   12.3804   23.0691 H   0  0  0  0  0  0  0  0  0  0  0  0
   -1.4381   12.8725   23.0691 H   0  0  0  0  0  0  0  0  0  0  0  0
   -0.7506   12.2717   27.0431 H   0  0  0  0  0  0  0  0  0  0  0  0
    0.1970   13.4781   26.1086 H   0  0  0  0  0  0  0  0  0  0  0  0
   -1.5978   13.5506   26.1086 H   0  0  0  0  0  0  0  0  0  0  0  0
   -1.1211    9.3616   25.6013 H   0  0  0  0  0  0  0  0  0  0  0  0
    0.5542    7.5277   25.6996 H   0  0  0  0  0  0  0  0  0  0  0  0
    4.1891    8.0886   25.4739 H   0  0  0  0  0  0  0  0  0  0  0  0
    2.8716    6.8962   25.8150 H   0  0  0  0  0  0  0  0  0  0  0  0
    2.6470    7.0740   23.1890 H   0  0  0  0  0  0  0  0  0  0  0  0
    3.9873    3.6545   22.4584 H   0  0  0  0  0  0  0  0  0  0  0  0
    4.1178    2.2509   19.8614 H   0  0  0  0  0  0  0  0  0  0  0  0
    5.1090    0.8149   18.3483 H   0  0  0  0  0  0  0  0  0  0  0  0
    5.2105    0.5864   16.5360 H   0  0  0  0  0  0  0  0  0  0  0  0
    7.1532    0.7898   19.4935 H   0  0  0  0  0  0  0  0  0  0  0  0
    9.6169    1.1453   19.5434 H   0  0  0  0  0  0  0  0  0  0  0  0
   10.7995    1.9968   17.5198 H   0  0  0  0  0  0  0  0  0  0  0  0
    9.5112    2.5006   15.4451 H   0  0  0  0  0  0  0  0  0  0  0  0
    7.0473    2.1456   15.3870 H   0  0  0  0  0  0  0  0  0  0  0  0
    5.3943    4.8168   16.6374 H   0  0  0  0  0  0  0  0  0  0  0  0
    5.5417    6.7675   18.1952 H   0  0  0  0  0  0  0  0  0  0  0  0
    4.7324    8.2377   19.8911 H   0  0  0  0  0  0  0  0  0  0  0  0
    4.5684    8.3995   21.6938 H   0  0  0  0  0  0  0  0  0  0  0  0
    6.8707    8.3012   18.8425 H   0  0  0  0  0  0  0  0  0  0  0  0
    9.2775    8.8985   18.9936 H   0  0  0  0  0  0  0  0  0  0  0  0
   10.3624    9.1925   21.2144 H   0  0  0  0  0  0  0  0  0  0  0  0
   10.9440    9.5660   22.8650 H   0  0  0  0  0  0  0  0  0  0  0  0
   10.9100    9.5130   24.5940 H   0  0  0  0  0  0  0  0  0  0  0  0
    7.5500    8.3200   24.6610 H   0  0  0  0  0  0  0  0  0  0  0  0
    8.8980    8.7370   25.6650 H   0  0  0  0  0  0  0  0  0  0  0  0
    6.6017    8.3027   23.1563 H   0  0  0  0  0  0  0  0  0  0  0  0
    3.6330   10.2860   24.4574 H   0  0  0  0  0  0  0  0  0  0  0  0
    1.9574   12.1223   24.3580 H   0  0  0  0  0  0  0  0  0  0  0  0
  1  2  1  0
  2  3  1  0
  2  4  1  0
  2  5  1  0
  5  6  2  0
  6  7  1  0
  7  8  2  0
  8  9  1  0
  9 10  1  0
 10 11  1  0
 11 12  2  0
 11 13  1  0
 13 14  2  0
 14 15  1  0
 15 16  2  0
 16 17  1  0
 17 18  1  0
 18 19  1  0
 19 20  1  0
 20 21  2  0
 21 22  1  0
 22 23  2  0
 23 24  1  0
 24 25  2  0
 17 26  2  0
 26 27  1  0
 27 28  2  0
 28 29  1  0
 29 30  1  0
 30 31  1  0
 31 32  2  0
 32 33  1  0
 33 34  2  0
 34 35  1  0
 35 36  1  0
 36 37  1  0
 36 38  2  0
 35 39  2  0
  8 40  1  0
 40 41  2  0
 41  5  1  0
 29 13  1  0
 39 31  1  0
 28 15  1  0
 25 20  1  0
  1 42  1  0
  1 43  1  0
  1 44  1  0
  3 45  1  0
  3 46  1  0
  3 47  1  0
  4 48  1  0
  4 49  1  0
  4 50  1  0
  6 51  1  0
  7 52  1  0
  9 53  1  0
  9 54  1  0
 10 55  1  0
 14 56  1  0
 16 57  1  0
 19 58  1  0
 19 59  1  0
 21 60  1  0
 22 61  1  0
 23 62  1  0
 24 63  1  0
 25 64  1  0
 26 65  1  0
 27 66  1  0
 30 67  1  0
 30 68  1  0
 32 69  1  0
 33 70  1  0
 34 71  1  0
 37 72  1  0
 37 73  1  0
 38 74  1  0
 38 75  1  0
 39 76  1  0
 40 77  1  0
 41 78  1  0
M  CHG  2   2   1  38   1
M  END
>  <meeko>  (9) 
{"is_sidechain": [false], "free_energy": -9.352, "intermolecular_energy": -13.932, "internal_energy": -2.184}

$$$$
