3r88_ligand
     RDKit          3D

 24 24  0  0  0  0  0  0  0  0999 V2000
   -7.9900  -29.7870    6.1270 C   0  0  0  0  0  0  0  0  0  0  0  0
   -6.9580  -30.6520    6.5790 O   0  0  0  0  0  0  0  0  0  0  0  0
   -5.6640  -30.2780    6.3020 C   0  0  0  0  0  0  0  0  0  0  0  0
   -5.3010  -29.3750    5.2960 C   0  0  0  0  0  0  0  0  0  0  0  0
   -3.9570  -29.0600    5.0530 C   0  0  0  0  0  0  0  0  0  0  0  0
   -3.6830  -28.0390    4.1000 N   0  0  0  0  0  0  0  0  0  0  0  0
   -2.9490  -29.5900    5.8800 C   0  0  0  0  0  0  0  0  0  0  0  0
   -1.4810  -29.2350    5.7130 C   0  0  0  0  0  0  0  0  0  0  0  0
   -0.9930  -29.2990    4.5400 O   0  0  0  0  0  0  0  0  0  0  0  0
   -0.8400  -28.9030    6.7640 O   0  0  0  0  0  0  0  0  0  0  0  0
   -3.3260  -30.4940    6.8950 C   0  0  0  0  0  0  0  0  0  0  0  0
   -4.6650  -30.8460    7.1100 C   0  0  0  0  0  0  0  0  0  0  0  0
   -5.0900  -31.7210    8.0820 O   0  0  0  0  0  0  0  0  0  0  0  0
   -4.6650  -31.4590    9.4120 C   0  0  0  0  0  0  0  0  0  0  0  0
   -8.5093  -29.3517    6.9935 H   0  0  0  0  0  0  0  0  0  0  0  0
   -7.5530  -28.9814    5.5187 H   0  0  0  0  0  0  0  0  0  0  0  0
   -8.7069  -30.3580    5.5187 H   0  0  0  0  0  0  0  0  0  0  0  0
   -6.0849  -28.9039    4.6849 H   0  0  0  0  0  0  0  0  0  0  0  0
   -3.1050  -28.4400    3.3650 H   0  0  0  0  0  0  0  0  0  0  0  0
   -4.5910  -27.8700    3.6110 H   0  0  0  0  0  0  0  0  0  0  0  0
   -2.5475  -30.9346    7.5352 H   0  0  0  0  0  0  0  0  0  0  0  0
   -5.3818  -31.9009   10.1198 H   0  0  0  0  0  0  0  0  0  0  0  0
   -3.6707  -31.9012    9.5730 H   0  0  0  0  0  0  0  0  0  0  0  0
   -4.6134  -30.3721    9.5730 H   0  0  0  0  0  0  0  0  0  0  0  0
  1  2  1  0
  2  3  1  0
  3  4  2  0
  4  5  1  0
  5  6  1  0
  5  7  2  0
  7  8  1  0
  8  9  2  0
  8 10  1  0
  7 11  1  0
 11 12  2  0
 12 13  1  0
 13 14  1  0
 12  3  1  0
  1 15  1  0
  1 16  1  0
  1 17  1  0
  4 18  1  0
  6 19  1  0
  6 20  1  0
 11 21  1  0
 14 22  1  0
 14 23  1  0
 14 24  1  0
M  CHG  1  10  -1
M  END
>  <meeko>  (1) 
{"is_sidechain": [false], "free_energy": -5.638, "intermolecular_energy": -6.792, "internal_energy": -0.408}

$$$$
3r88_ligand
     RDKit          3D

 24 24  0  0  0  0  0  0  0  0999 V2000
   -0.1430  -29.4980    6.7210 C   0  0  0  0  0  0  0  0  0  0  0  0
   -1.0430  -30.5290    7.1000 O   0  0  0  0  0  0  0  0  0  0  0  0
   -2.3700  -30.3450    6.7860 C   0  0  0  0  0  0  0  0  0  0  0  0
   -2.8360  -29.4530    5.8140 C   0  0  0  0  0  0  0  0  0  0  0  0
   -4.2070  -29.3000    5.5650 C   0  0  0  0  0  0  0  0  0  0  0  0
   -4.5880  -28.4690    4.4750 N   0  0  0  0  0  0  0  0  0  0  0  0
   -5.1400  -30.1110    6.2390 C   0  0  0  0  0  0  0  0  0  0  0  0
   -6.6330  -30.0430    5.9660 C   0  0  0  0  0  0  0  0  0  0  0  0
   -7.0180  -29.3210    4.9930 O   0  0  0  0  0  0  0  0  0  0  0  0
   -7.3950  -30.7110    6.7390 O   0  0  0  0  0  0  0  0  0  0  0  0
   -4.6580  -31.0120    7.2130 C   0  0  0  0  0  0  0  0  0  0  0  0
   -3.2920  -31.1330    7.4960 C   0  0  0  0  0  0  0  0  0  0  0  0
   -2.7680  -31.9920    8.4330 O   0  0  0  0  0  0  0  0  0  0  0  0
   -3.4750  -33.2020    8.6620 C   0  0  0  0  0  0  0  0  0  0  0  0
    0.2714  -29.0233    7.6226 H   0  0  0  0  0  0  0  0  0  0  0  0
    0.6750  -29.9267    6.1234 H   0  0  0  0  0  0  0  0  0  0  0  0
   -0.6782  -28.7454    6.1234 H   0  0  0  0  0  0  0  0  0  0  0  0
   -2.1129  -28.8606    5.2343 H   0  0  0  0  0  0  0  0  0  0  0  0
   -4.2850  -28.9190    3.6150 H   0  0  0  0  0  0  0  0  0  0  0  0
   -5.6290  -28.5490    4.4200 H   0  0  0  0  0  0  0  0  0  0  0  0
   -5.3757  -31.6366    7.7652 H   0  0  0  0  0  0  0  0  0  0  0  0
   -3.5732  -33.3700    9.7446 H   0  0  0  0  0  0  0  0  0  0  0  0
   -4.4752  -33.1335    8.2094 H   0  0  0  0  0  0  0  0  0  0  0  0
   -2.9243  -34.0398    8.2094 H   0  0  0  0  0  0  0  0  0  0  0  0
  1  2  1  0
  2  3  1  0
  3  4  2  0
  4  5  1  0
  5  6  1  0
  5  7  2  0
  7  8  1  0
  8  9  2  0
  8 10  1  0
  7 11  1  0
 11 12  2  0
 12 13  1  0
 13 14  1  0
 12  3  1  0
  1 15  1  0
  1 16  1  0
  1 17  1  0
  4 18  1  0
  6 19  1  0
  6 20  1  0
 11 21  1  0
 14 22  1  0
 14 23  1  0
 14 24  1  0
M  CHG  1  10  -1
M  END
>  <meeko>  (2) 
{"is_sidechain": [false], "free_energy": -5.505, "intermolecular_energy": -6.92, "internal_energy": -0.121}

$$$$
3r88_ligand
     RDKit          3D

 24 24  0  0  0  0  0  0  0  0999 V2000
   -5.9140  -30.9730    9.6090 C   0  0  0  0  0  0  0  0  0  0  0  0
   -5.3020  -31.7360    8.5790 O   0  0  0  0  0  0  0  0  0  0  0  0
   -4.7720  -31.0400    7.5180 C   0  0  0  0  0  0  0  0  0  0  0  0
   -5.5280  -30.3000    6.6020 C   0  0  0  0  0  0  0  0  0  0  0  0
   -4.9200  -29.6350    5.5270 C   0  0  0  0  0  0  0  0  0  0  0  0
   -5.7440  -28.8020    4.7190 N   0  0  0  0  0  0  0  0  0  0  0  0
   -3.5180  -29.6340    5.4010 C   0  0  0  0  0  0  0  0  0  0  0  0
   -2.7950  -28.8780    4.3010 C   0  0  0  0  0  0  0  0  0  0  0  0
   -3.2350  -27.7240    3.9960 O   0  0  0  0  0  0  0  0  0  0  0  0
   -1.7990  -29.4570    3.7550 O   0  0  0  0  0  0  0  0  0  0  0  0
   -2.7650  -30.3780    6.3340 C   0  0  0  0  0  0  0  0  0  0  0  0
   -3.3740  -31.0810    7.3820 C   0  0  0  0  0  0  0  0  0  0  0  0
   -2.6910  -31.8220    8.3180 O   0  0  0  0  0  0  0  0  0  0  0  0
   -2.0470  -33.0020    7.8570 C   0  0  0  0  0  0  0  0  0  0  0  0
   -5.6014  -31.3627   10.5890 H   0  0  0  0  0  0  0  0  0  0  0  0
   -5.6066  -29.9208    9.5178 H   0  0  0  0  0  0  0  0  0  0  0  0
   -7.0079  -31.0447    9.5178 H   0  0  0  0  0  0  0  0  0  0  0  0
   -6.6191  -30.2387    6.7273 H   0  0  0  0  0  0  0  0  0  0  0  0
   -6.6510  -29.2540    4.6240 H   0  0  0  0  0  0  0  0  0  0  0  0
   -5.9640  -27.9720    5.3150 H   0  0  0  0  0  0  0  0  0  0  0  0
   -1.6698  -30.4069    6.2359 H   0  0  0  0  0  0  0  0  0  0  0  0
   -1.7197  -33.6017    8.7191 H   0  0  0  0  0  0  0  0  0  0  0  0
   -2.7498  -33.5891    7.2476 H   0  0  0  0  0  0  0  0  0  0  0  0
   -1.1730  -32.7285    7.2476 H   0  0  0  0  0  0  0  0  0  0  0  0
  1  2  1  0
  2  3  1  0
  3  4  2  0
  4  5  1  0
  5  6  1  0
  5  7  2  0
  7  8  1  0
  8  9  2  0
  8 10  1  0
  7 11  1  0
 11 12  2  0
 12 13  1  0
 13 14  1  0
 12  3  1  0
  1 15  1  0
  1 16  1  0
  1 17  1  0
  4 18  1  0
  6 19  1  0
  6 20  1  0
 11 21  1  0
 14 22  1  0
 14 23  1  0
 14 24  1  0
M  CHG  1  10  -1
M  END
>  <meeko>  (3) 
{"is_sidechain": [false], "free_energy": -5.448, "intermolecular_energy": -6.589, "internal_energy": -0.382}

$$$$
3r88_ligand
     RDKit          3D

 24 24  0  0  0  0  0  0  0  0999 V2000
   -5.1240  -31.3980    9.9660 C   0  0  0  0  0  0  0  0  0  0  0  0
   -5.2850  -31.8500    8.6290 O   0  0  0  0  0  0  0  0  0  0  0  0
   -4.6400  -31.1360    7.6470 C   0  0  0  0  0  0  0  0  0  0  0  0
   -3.2540  -31.1400    7.4490 C   0  0  0  0  0  0  0  0  0  0  0  0
   -2.6620  -30.3660    6.4410 C   0  0  0  0  0  0  0  0  0  0  0  0
   -1.2640  -30.5270    6.2250 N   0  0  0  0  0  0  0  0  0  0  0  0
   -3.4680  -29.6320    5.5510 C   0  0  0  0  0  0  0  0  0  0  0  0
   -2.8940  -28.8290    4.3970 C   0  0  0  0  0  0  0  0  0  0  0  0
   -3.4120  -27.6920    4.1600 O   0  0  0  0  0  0  0  0  0  0  0  0
   -1.9350  -29.3560    3.7430 O   0  0  0  0  0  0  0  0  0  0  0  0
   -4.8640  -29.6400    5.7560 C   0  0  0  0  0  0  0  0  0  0  0  0
   -5.4550  -30.3760    6.7920 C   0  0  0  0  0  0  0  0  0  0  0  0
   -6.8070  -30.4200    7.0380 O   0  0  0  0  0  0  0  0  0  0  0  0
   -7.6610  -29.9140    6.0230 C   0  0  0  0  0  0  0  0  0  0  0  0
   -5.4100  -32.2009   10.6614 H   0  0  0  0  0  0  0  0  0  0  0  0
   -4.0726  -31.1229   10.1360 H   0  0  0  0  0  0  0  0  0  0  0  0
   -5.7647  -30.5202   10.1360 H   0  0  0  0  0  0  0  0  0  0  0  0
   -2.6179  -31.7618    8.0961 H   0  0  0  0  0  0  0  0  0  0  0  0
   -0.8020  -29.6620    6.4970 H   0  0  0  0  0  0  0  0  0  0  0  0
   -0.9480  -31.1960    6.9620 H   0  0  0  0  0  0  0  0  0  0  0  0
   -5.5064  -29.0521    5.0839 H   0  0  0  0  0  0  0  0  0  0  0  0
   -8.5194  -29.4054    6.4860 H   0  0  0  0  0  0  0  0  0  0  0  0
   -7.1048  -29.1996    5.3983 H   0  0  0  0  0  0  0  0  0  0  0  0
   -8.0204  -30.7450    5.3983 H   0  0  0  0  0  0  0  0  0  0  0  0
  1  2  1  0
  2  3  1  0
  3  4  2  0
  4  5  1  0
  5  6  1  0
  5  7  2  0
  7  8  1  0
  8  9  2  0
  8 10  1  0
  7 11  1  0
 11 12  2  0
 12 13  1  0
 13 14  1  0
 12  3  1  0
  1 15  1  0
  1 16  1  0
  1 17  1  0
  4 18  1  0
  6 19  1  0
  6 20  1  0
 11 21  1  0
 14 22  1  0
 14 23  1  0
 14 24  1  0
M  CHG  1  10  -1
M  END
>  <meeko>  (4) 
{"is_sidechain": [false], "free_energy": -5.236, "intermolecular_energy": -6.352, "internal_energy": -0.364}

$$$$
3r88_ligand
     RDKit          3D

 24 24  0  0  0  0  0  0  0  0999 V2000
   -0.3280  -29.2290    3.7190 C   0  0  0  0  0  0  0  0  0  0  0  0
   -0.6180  -29.1480    5.1070 O   0  0  0  0  0  0  0  0  0  0  0  0
   -1.9080  -29.4250    5.4930 C   0  0  0  0  0  0  0  0  0  0  0  0
   -3.0470  -28.8790    4.8900 C   0  0  0  0  0  0  0  0  0  0  0  0
   -4.3340  -29.1870    5.3540 C   0  0  0  0  0  0  0  0  0  0  0  0
   -5.4390  -28.6920    4.6060 N   0  0  0  0  0  0  0  0  0  0  0  0
   -4.5020  -30.1250    6.3900 C   0  0  0  0  0  0  0  0  0  0  0  0
   -5.8700  -30.5540    6.8930 C   0  0  0  0  0  0  0  0  0  0  0  0
   -6.0480  -30.5870    8.1520 O   0  0  0  0  0  0  0  0  0  0  0  0
   -6.7430  -30.8580    6.0150 O   0  0  0  0  0  0  0  0  0  0  0  0
   -3.3470  -30.6740    6.9870 C   0  0  0  0  0  0  0  0  0  0  0  0
   -2.0590  -30.3320    6.5550 C   0  0  0  0  0  0  0  0  0  0  0  0
   -0.9010  -30.8330    7.0990 O   0  0  0  0  0  0  0  0  0  0  0  0
   -0.7040  -32.2370    7.0070 C   0  0  0  0  0  0  0  0  0  0  0  0
    0.7230  -29.5226    3.5805 H   0  0  0  0  0  0  0  0  0  0  0  0
   -0.9828  -29.9786    3.2507 H   0  0  0  0  0  0  0  0  0  0  0  0
   -0.4996  -28.2486    3.2507 H   0  0  0  0  0  0  0  0  0  0  0  0
   -2.9304  -28.1955    4.0361 H   0  0  0  0  0  0  0  0  0  0  0  0
   -6.1630  -28.4110    5.2630 H   0  0  0  0  0  0  0  0  0  0  0  0
   -5.1180  -27.7780    4.2140 H   0  0  0  0  0  0  0  0  0  0  0  0
   -3.4613  -31.3900    7.8142 H   0  0  0  0  0  0  0  0  0  0  0  0
   -0.6438  -32.6658    8.0182 H   0  0  0  0  0  0  0  0  0  0  0  0
   -1.5473  -32.6909    6.4658 H   0  0  0  0  0  0  0  0  0  0  0  0
    0.2316  -32.4413    6.4658 H   0  0  0  0  0  0  0  0  0  0  0  0
  1  2  1  0
  2  3  1  0
  3  4  2  0
  4  5  1  0
  5  6  1  0
  5  7  2  0
  7  8  1  0
  8  9  2  0
  8 10  1  0
  7 11  1  0
 11 12  2  0
 12 13  1  0
 13 14  1  0
 12  3  1  0
  1 15  1  0
  1 16  1  0
  1 17  1  0
  4 18  1  0
  6 19  1  0
  6 20  1  0
 11 21  1  0
 14 22  1  0
 14 23  1  0
 14 24  1  0
M  CHG  1  10  -1
M  END
>  <meeko>  (5) 
{"is_sidechain": [false], "free_energy": -5.187, "intermolecular_energy": -6.251, "internal_energy": -0.405}

$$$$
3r88_ligand
     RDKit          3D

 24 24  0  0  0  0  0  0  0  0999 V2000
   -1.9770  -33.8300    8.4110 C   0  0  0  0  0  0  0  0  0  0  0  0
   -2.7390  -32.7380    8.9060 O   0  0  0  0  0  0  0  0  0  0  0  0
   -3.1500  -31.7980    7.9910 C   0  0  0  0  0  0  0  0  0  0  0  0
   -2.3180  -31.2170    7.0270 C   0  0  0  0  0  0  0  0  0  0  0  0
   -2.8000  -30.2440    6.1410 C   0  0  0  0  0  0  0  0  0  0  0  0
   -1.9240  -29.7990    5.1110 N   0  0  0  0  0  0  0  0  0  0  0  0
   -4.1640  -29.8940    6.1540 C   0  0  0  0  0  0  0  0  0  0  0  0
   -4.7640  -28.8990    5.1760 C   0  0  0  0  0  0  0  0  0  0  0  0
   -5.9610  -29.1000    4.7960 O   0  0  0  0  0  0  0  0  0  0  0  0
   -4.0210  -27.9340    4.8000 O   0  0  0  0  0  0  0  0  0  0  0  0
   -4.9960  -30.4910    7.1250 C   0  0  0  0  0  0  0  0  0  0  0  0
   -4.5050  -31.4290    8.0420 C   0  0  0  0  0  0  0  0  0  0  0  0
   -5.2670  -32.0410    9.0090 O   0  0  0  0  0  0  0  0  0  0  0  0
   -5.7590  -31.2160   10.0550 C   0  0  0  0  0  0  0  0  0  0  0  0
   -1.5735  -34.4082    9.2553 H   0  0  0  0  0  0  0  0  0  0  0  0
   -2.6203  -34.4776    7.7972 H   0  0  0  0  0  0  0  0  0  0  0  0
   -1.1472  -33.4497    7.7972 H   0  0  0  0  0  0  0  0  0  0  0  0
   -1.2654  -31.5302    6.9636 H   0  0  0  0  0  0  0  0  0  0  0  0
   -2.1830  -28.8460    4.8670 H   0  0  0  0  0  0  0  0  0  0  0  0
   -0.9970  -29.6710    5.5760 H   0  0  0  0  0  0  0  0  0  0  0  0
   -6.0594  -30.2120    7.1627 H   0  0  0  0  0  0  0  0  0  0  0  0
   -5.4948  -31.6591   11.0265 H   0  0  0  0  0  0  0  0  0  0  0  0
   -5.3103  -30.2149    9.9743 H   0  0  0  0  0  0  0  0  0  0  0  0
   -6.8530  -31.1350    9.9743 H   0  0  0  0  0  0  0  0  0  0  0  0
  1  2  1  0
  2  3  1  0
  3  4  2  0
  4  5  1  0
  5  6  1  0
  5  7  2  0
  7  8  1  0
  8  9  2  0
  8 10  1  0
  7 11  1  0
 11 12  2  0
 12 13  1  0
 13 14  1  0
 12  3  1  0
  1 15  1  0
  1 16  1  0
  1 17  1  0
  4 18  1  0
  6 19  1  0
  6 20  1  0
 11 21  1  0
 14 22  1  0
 14 23  1  0
 14 24  1  0
M  CHG  1  10  -1
M  END
>  <meeko>  (6) 
{"is_sidechain": [false], "free_energy": -5.156, "intermolecular_energy": -6.239, "internal_energy": -0.381}

$$$$
3r88_ligand
     RDKit          3D

 24 24  0  0  0  0  0  0  0  0999 V2000
   -2.4060  -28.6010    2.9680 C   0  0  0  0  0  0  0  0  0  0  0  0
   -2.8830  -28.0230    4.1740 O   0  0  0  0  0  0  0  0  0  0  0  0
   -3.4110  -28.8800    5.1110 C   0  0  0  0  0  0  0  0  0  0  0  0
   -4.7780  -29.1400    5.2610 C   0  0  0  0  0  0  0  0  0  0  0  0
   -5.2470  -30.0080    6.2570 C   0  0  0  0  0  0  0  0  0  0  0  0
   -6.6370  -30.3170    6.2590 N   0  0  0  0  0  0  0  0  0  0  0  0
   -4.3350  -30.7010    7.0750 C   0  0  0  0  0  0  0  0  0  0  0  0
   -4.7750  -31.7060    8.1260 C   0  0  0  0  0  0  0  0  0  0  0  0
   -5.7050  -31.3540    8.9180 O   0  0  0  0  0  0  0  0  0  0  0  0
   -4.1750  -32.8300    8.1420 O   0  0  0  0  0  0  0  0  0  0  0  0
   -2.9590  -30.4360    6.9100 C   0  0  0  0  0  0  0  0  0  0  0  0
   -2.4900  -29.5340    5.9470 C   0  0  0  0  0  0  0  0  0  0  0  0
   -1.1630  -29.2360    5.7430 O   0  0  0  0  0  0  0  0  0  0  0  0
   -0.4150  -28.8280    6.8800 C   0  0  0  0  0  0  0  0  0  0  0  0
   -1.7221  -29.4297    3.2039 H   0  0  0  0  0  0  0  0  0  0  0  0
   -3.2559  -28.9822    2.3829 H   0  0  0  0  0  0  0  0  0  0  0  0
   -1.8704  -27.8389    2.3829 H   0  0  0  0  0  0  0  0  0  0  0  0
   -5.4974  -28.6545    4.5852 H   0  0  0  0  0  0  0  0  0  0  0  0
   -6.7410  -31.2950    6.5180 H   0  0  0  0  0  0  0  0  0  0  0  0
   -7.0280  -29.8170    7.0890 H   0  0  0  0  0  0  0  0  0  0  0  0
   -2.2341  -30.9526    7.5562 H   0  0  0  0  0  0  0  0  0  0  0  0
   -0.9506  -29.1201    7.7953 H   0  0  0  0  0  0  0  0  0  0  0  0
    0.5724  -29.3125    6.8625 H   0  0  0  0  0  0  0  0  0  0  0  0
   -0.2878  -27.7355    6.8625 H   0  0  0  0  0  0  0  0  0  0  0  0
  1  2  1  0
  2  3  1  0
  3  4  2  0
  4  5  1  0
  5  6  1  0
  5  7  2  0
  7  8  1  0
  8  9  2  0
  8 10  1  0
  7 11  1  0
 11 12  2  0
 12 13  1  0
 13 14  1  0
 12  3  1  0
  1 15  1  0
  1 16  1  0
  1 17  1  0
  4 18  1  0
  6 19  1  0
  6 20  1  0
 11 21  1  0
 14 22  1  0
 14 23  1  0
 14 24  1  0
M  CHG  1  10  -1
M  END
>  <meeko>  (7) 
{"is_sidechain": [false], "free_energy": -5.105, "intermolecular_energy": -6.359, "internal_energy": -0.2}

$$$$
3r88_ligand
     RDKit          3D

 24 24  0  0  0  0  0  0  0  0999 V2000
   -0.5320  -28.9110    6.8970 C   0  0  0  0  0  0  0  0  0  0  0  0
   -1.2390  -29.2630    5.7160 O   0  0  0  0  0  0  0  0  0  0  0  0
   -2.5870  -29.5040    5.8440 C   0  0  0  0  0  0  0  0  0  0  0  0
   -3.1500  -30.3510    6.8050 C   0  0  0  0  0  0  0  0  0  0  0  0
   -4.5340  -30.5700    6.8600 C   0  0  0  0  0  0  0  0  0  0  0  0
   -5.0350  -31.3420    7.9460 N   0  0  0  0  0  0  0  0  0  0  0  0
   -5.3930  -29.8680    5.9930 C   0  0  0  0  0  0  0  0  0  0  0  0
   -6.9040  -30.0080    6.0470 C   0  0  0  0  0  0  0  0  0  0  0  0
   -7.5750  -29.4730    5.1080 O   0  0  0  0  0  0  0  0  0  0  0  0
   -7.3940  -30.6470    7.0350 O   0  0  0  0  0  0  0  0  0  0  0  0
   -4.8150  -29.0120    5.0320 C   0  0  0  0  0  0  0  0  0  0  0  0
   -3.4290  -28.8270    4.9450 C   0  0  0  0  0  0  0  0  0  0  0  0
   -2.8120  -28.0080    4.0300 O   0  0  0  0  0  0  0  0  0  0  0  0
   -2.2470  -28.6330    2.8860 C   0  0  0  0  0  0  0  0  0  0  0  0
   -1.1213  -29.2044    7.7783 H   0  0  0  0  0  0  0  0  0  0  0  0
    0.4366  -29.4320    6.9135 H   0  0  0  0  0  0  0  0  0  0  0  0
   -0.3640  -27.8240    6.9135 H   0  0  0  0  0  0  0  0  0  0  0  0
   -2.4947  -30.8545    7.5309 H   0  0  0  0  0  0  0  0  0  0  0  0
   -4.6560  -30.9570    8.8070 H   0  0  0  0  0  0  0  0  0  0  0  0
   -6.0480  -31.0970    8.0120 H   0  0  0  0  0  0  0  0  0  0  0  0
   -5.4710  -28.4747    4.3313 H   0  0  0  0  0  0  0  0  0  0  0  0
   -1.5412  -29.4138    3.2058 H   0  0  0  0  0  0  0  0  0  0  0  0
   -3.0474  -29.0869    2.2833 H   0  0  0  0  0  0  0  0  0  0  0  0
   -1.7149  -27.8823    2.2833 H   0  0  0  0  0  0  0  0  0  0  0  0
  1  2  1  0
  2  3  1  0
  3  4  2  0
  4  5  1  0
  5  6  1  0
  5  7  2  0
  7  8  1  0
  8  9  2  0
  8 10  1  0
  7 11  1  0
 11 12  2  0
 12 13  1  0
 13 14  1  0
 12  3  1  0
  1 15  1  0
  1 16  1  0
  1 17  1  0
  4 18  1  0
  6 19  1  0
  6 20  1  0
 11 21  1  0
 14 22  1  0
 14 23  1  0
 14 24  1  0
M  CHG  1  10  -1
M  END
>  <meeko>  (8) 
{"is_sidechain": [false], "free_energy": -5.078, "intermolecular_energy": -6.637, "internal_energy": 0.112}

$$$$
3r88_ligand
     RDKit          3D

 24 24  0  0  0  0  0  0  0  0999 V2000
   -2.3140  -28.5130    3.1380 C   0  0  0  0  0  0  0  0  0  0  0  0
   -3.3980  -28.3710    4.0450 O   0  0  0  0  0  0  0  0  0  0  0  0
   -3.4330  -29.2320    5.1150 C   0  0  0  0  0  0  0  0  0  0  0  0
   -2.3010  -29.8000    5.7100 C   0  0  0  0  0  0  0  0  0  0  0  0
   -2.4150  -30.6930    6.7850 C   0  0  0  0  0  0  0  0  0  0  0  0
   -1.2120  -31.1240    7.4120 N   0  0  0  0  0  0  0  0  0  0  0  0
   -3.6790  -30.9680    7.3410 C   0  0  0  0  0  0  0  0  0  0  0  0
   -3.8640  -31.8720    8.5480 C   0  0  0  0  0  0  0  0  0  0  0  0
   -4.3210  -33.0400    8.3400 O   0  0  0  0  0  0  0  0  0  0  0  0
   -3.5530  -31.3910    9.6870 O   0  0  0  0  0  0  0  0  0  0  0  0
   -4.8130  -30.3850    6.7380 C   0  0  0  0  0  0  0  0  0  0  0  0
   -4.7050  -29.5300    5.6340 C   0  0  0  0  0  0  0  0  0  0  0  0
   -5.7740  -28.9350    5.0060 O   0  0  0  0  0  0  0  0  0  0  0  0
   -7.0600  -29.4750    5.2780 C   0  0  0  0  0  0  0  0  0  0  0  0
   -1.3776  -28.6357    3.7021 H   0  0  0  0  0  0  0  0  0  0  0  0
   -2.4791  -29.3972    2.5048 H   0  0  0  0  0  0  0  0  0  0  0  0
   -2.2458  -27.6161    2.5048 H   0  0  0  0  0  0  0  0  0  0  0  0
   -1.3028  -29.5410    5.3272 H   0  0  0  0  0  0  0  0  0  0  0  0
   -0.8300  -30.3370    7.9320 H   0  0  0  0  0  0  0  0  0  0  0  0
   -1.5160  -31.7740    8.1720 H   0  0  0  0  0  0  0  0  0  0  0  0
   -5.8098  -30.6080    7.1461 H   0  0  0  0  0  0  0  0  0  0  0  0
   -7.2088  -29.5375    6.3661 H   0  0  0  0  0  0  0  0  0  0  0  0
   -7.8311  -28.8247    4.8392 H   0  0  0  0  0  0  0  0  0  0  0  0
   -7.1356  -30.4809    4.8392 H   0  0  0  0  0  0  0  0  0  0  0  0
  1  2  1  0
  2  3  1  0
  3  4  2  0
  4  5  1  0
  5  6  1  0
  5  7  2  0
  7  8  1  0
  8  9  2  0
  8 10  1  0
  7 11  1  0
 11 12  2  0
 12 13  1  0
 13 14  1  0
 12  3  1  0
  1 15  1  0
  1 16  1  0
  1 17  1  0
  4 18  1  0
  6 19  1  0
  6 20  1  0
 11 21  1  0
 14 22  1  0
 14 23  1  0
 14 24  1  0
M  CHG  1  10  -1
M  END
>  <meeko>  (9) 
{"is_sidechain": [false], "free_energy": -4.969, "intermolecular_energy": -6.033, "internal_energy": -0.361}

$$$$
