3arq_ligand
     RDKit          3D

 62 66  0  0  0  0  0  0  0  0999 V2000
   22.3680  -12.2020   18.4880 C   0  0  0  0  0  0  0  0  0  0  0  0
   21.6710  -13.0040   19.5590 C   0  0  0  0  0  0  0  0  0  0  0  0
   21.7600  -14.2320   19.5840 O   0  0  0  0  0  0  0  0  0  0  0  0
   20.8120  -12.2320   20.5850 C   0  0  2  0  0  0  0  0  0  0  0  0
   20.2730  -13.1280   21.5590 O   0  0  0  0  0  0  0  0  0  0  0  0
   19.6370  -11.5210   19.8750 C   0  0  0  0  0  0  0  0  0  0  0  0
   18.9650  -10.5030   20.7580 C   0  0  0  0  0  0  0  0  0  0  0  0
   19.5680   -9.9500   21.8190 C   0  0  0  0  0  0  0  0  0  0  0  0
   18.8320   -8.9210   22.5870 C   0  0  0  0  0  0  0  0  0  0  0  0
   19.4200   -8.0760   23.2520 O   0  0  0  0  0  0  0  0  0  0  0  0
   17.3550   -9.0000   22.5740 C   0  0  0  0  0  0  0  0  0  0  0  0
   16.5870   -8.4870   23.7410 C   0  0  0  0  0  0  0  0  0  0  0  0
   17.1210   -8.2880   24.8320 O   0  0  0  0  0  0  0  0  0  0  0  0
   15.1440   -8.2670   23.5500 C   0  0  0  0  0  0  0  0  0  0  0  0
   14.4170   -7.5220   24.4850 C   0  0  0  0  0  0  0  0  0  0  0  0
   13.0450   -7.3390   24.3080 C   0  0  0  0  0  0  0  0  0  0  0  0
   12.3990   -7.9050   23.2080 C   0  0  0  0  0  0  0  0  0  0  0  0
   13.1230   -8.6550   22.2810 C   0  0  0  0  0  0  0  0  0  0  0  0
   14.5010   -8.8320   22.4510 C   0  0  0  0  0  0  0  0  0  0  0  0
   15.2610   -9.6500   21.4880 C   0  0  0  0  0  0  0  0  0  0  0  0
   14.6670  -10.3980   20.7260 O   0  0  0  0  0  0  0  0  0  0  0  0
   16.7420   -9.5620   21.5240 C   0  0  0  0  0  0  0  0  0  0  0  0
   17.5690  -10.1190   20.4180 C   0  0  0  0  0  0  0  0  0  0  0  0
   17.1470  -10.2700   19.2830 O   0  0  0  0  0  0  0  0  0  0  0  0
   20.9640  -10.2890   22.2700 C   0  0  1  0  0  0  0  0  0  0  0  0
   20.8360  -10.9550   23.5390 O   0  0  0  0  0  0  0  0  0  0  0  0
   21.8500  -10.6350   24.4940 C   0  0  1  0  0  0  0  0  0  0  0  0
   21.3420   -9.5840   25.4690 C   0  0  0  0  0  0  0  0  0  0  0  0
   20.0780  -10.1540   26.1110 C   0  0  2  0  0  0  0  0  0  0  0  0
   19.4730   -9.1240   26.9980 N   0  0  0  0  0  0  0  0  0  0  0  0
   20.4100  -11.4200   26.9090 C   0  0  2  0  0  0  0  0  0  0  0  0
   21.1780  -10.9960   28.0450 O   0  0  0  0  0  0  0  0  0  0  0  0
   21.1370  -12.4110   25.9660 C   0  0  2  0  0  0  0  0  0  0  0  0
   21.7150  -13.6140   26.7020 C   0  0  0  0  0  0  0  0  0  0  0  0
   22.2170  -11.7910   25.2530 O   0  0  0  0  0  0  0  0  0  0  0  0
   21.7180  -11.2020   21.2870 C   0  0  0  0  0  0  0  0  0  0  0  0
   23.0203  -11.4514   18.9581 H   0  0  0  0  0  0  0  0  0  0  0  0
   22.9738  -12.8741   17.8625 H   0  0  0  0  0  0  0  0  0  0  0  0
   21.6180  -11.6958   17.8625 H   0  0  0  0  0  0  0  0  0  0  0  0
   20.5530  -12.8240   22.4430 H   0  0  0  0  0  0  0  0  0  0  0  0
   20.0214  -11.0124   18.9786 H   0  0  0  0  0  0  0  0  0  0  0  0
   18.8898  -12.2853   19.6151 H   0  0  0  0  0  0  0  0  0  0  0  0
   14.9249   -7.0824   25.3560 H   0  0  0  0  0  0  0  0  0  0  0  0
   12.4715   -6.7475   25.0369 H   0  0  0  0  0  0  0  0  0  0  0  0
   11.3172   -7.7595   23.0717 H   0  0  0  0  0  0  0  0  0  0  0  0
   12.6118   -9.1065   21.4179 H   0  0  0  0  0  0  0  0  0  0  0  0
   21.5515   -9.3612   22.3329 H   0  0  0  0  0  0  0  0  0  0  0  0
   22.7205  -10.2580   23.9372 H   0  0  0  0  0  0  0  0  0  0  0  0
   22.1010   -9.3835   26.2395 H   0  0  0  0  0  0  0  0  0  0  0  0
   21.1304   -8.6357   24.9533 H   0  0  0  0  0  0  0  0  0  0  0  0
   19.3583  -10.4244   25.3243 H   0  0  0  0  0  0  0  0  0  0  0  0
   20.1990   -8.6230   27.5250 H   0  0  0  0  0  0  0  0  0  0  0  0
   19.0100   -8.3930   26.4340 H   0  0  0  0  0  0  0  0  0  0  0  0
   18.7990   -9.5620   27.6400 H   0  0  0  0  0  0  0  0  0  0  0  0
   19.5286  -11.9588   27.2870 H   0  0  0  0  0  0  0  0  0  0  0  0
   21.8080  -11.7050   28.2790 H   0  0  0  0  0  0  0  0  0  0  0  0
   20.3567  -12.7436   25.2656 H   0  0  0  0  0  0  0  0  0  0  0  0
   21.6372  -13.4520   27.7872 H   0  0  0  0  0  0  0  0  0  0  0  0
   21.1529  -14.5181   26.4250 H   0  0  0  0  0  0  0  0  0  0  0  0
   22.7720  -13.7402   26.4250 H   0  0  0  0  0  0  0  0  0  0  0  0
   22.1891  -10.5718   20.5183 H   0  0  0  0  0  0  0  0  0  0  0  0
   22.4567  -11.7680   21.8734 H   0  0  0  0  0  0  0  0  0  0  0  0
  1  2  1  0
  2  3  2  0
  2  4  1  0
  4  5  1  1
  4  6  1  0
  6  7  1  0
  7  8  2  0
  8  9  1  0
  9 10  2  0
  9 11  1  0
 11 12  1  0
 12 13  2  0
 12 14  1  0
 14 15  2  0
 15 16  1  0
 16 17  2  0
 17 18  1  0
 18 19  2  0
 19 20  1  0
 20 21  2  0
 20 22  1  0
 22 23  1  0
 23 24  2  0
  8 25  1  0
 25 26  1  0
 26 27  1  0
 27 28  1  0
 28 29  1  0
 29 30  1  0
 29 31  1  0
 31 32  1  0
 31 33  1  0
 33 34  1  0
 33 35  1  0
 25 36  1  0
 36  4  1  0
 23  7  1  0
 35 27  1  0
 22 11  2  0
 19 14  1  0
  1 37  1  0
  1 38  1  0
  1 39  1  0
  5 40  1  0
  6 41  1  0
  6 42  1  0
 15 43  1  0
 16 44  1  0
 17 45  1  0
 18 46  1  0
 25 47  1  1
 27 48  1  6
 28 49  1  0
 28 50  1  0
 29 51  1  6
 30 52  1  0
 30 53  1  0
 30 54  1  0
 31 55  1  1
 32 56  1  0
 33 57  1  6
 34 58  1  0
 34 59  1  0
 34 60  1  0
 36 61  1  0
 36 62  1  0
M  CHG  1  30   1
M  END
>  <meeko>  (1) 
{"is_sidechain": [false], "free_energy": -9.809, "intermolecular_energy": -12.389, "internal_energy": -1.302}

$$$$
3arq_ligand
     RDKit          3D

 62 66  0  0  0  0  0  0  0  0999 V2000
   15.2990  -14.3040   16.5390 C   0  0  0  0  0  0  0  0  0  0  0  0
   16.7700  -14.6300   16.6230 C   0  0  0  0  0  0  0  0  0  0  0  0
   17.2860  -15.4180   15.8290 O   0  0  0  0  0  0  0  0  0  0  0  0
   17.5840  -13.9760   17.7610 C   0  0  2  0  0  0  0  0  0  0  0  0
   17.4740  -14.7470   18.9590 O   0  0  0  0  0  0  0  0  0  0  0  0
   17.0570  -12.5510   18.0470 C   0  0  0  0  0  0  0  0  0  0  0  0
   18.0020  -11.7520   18.9070 C   0  0  0  0  0  0  0  0  0  0  0  0
   19.3050  -12.0420   19.0180 C   0  0  0  0  0  0  0  0  0  0  0  0
   20.1510  -11.1580   19.8490 C   0  0  0  0  0  0  0  0  0  0  0  0
   21.3600  -11.0690   19.6620 O   0  0  0  0  0  0  0  0  0  0  0  0
   19.4890  -10.4430   20.9610 C   0  0  0  0  0  0  0  0  0  0  0  0
   20.2780  -10.0870   22.1720 C   0  0  0  0  0  0  0  0  0  0  0  0
   21.3560  -10.6240   22.4240 O   0  0  0  0  0  0  0  0  0  0  0  0
   19.6910   -9.0930   23.0860 C   0  0  0  0  0  0  0  0  0  0  0  0
   20.4820   -8.4940   24.0730 C   0  0  0  0  0  0  0  0  0  0  0  0
   19.9110   -7.5710   24.9510 C   0  0  0  0  0  0  0  0  0  0  0  0
   18.5560   -7.2540   24.8500 C   0  0  0  0  0  0  0  0  0  0  0  0
   17.7670   -7.8590   23.8710 C   0  0  0  0  0  0  0  0  0  0  0  0
   18.3390   -8.7770   22.9830 C   0  0  0  0  0  0  0  0  0  0  0  0
   17.4980   -9.4390   21.9680 C   0  0  0  0  0  0  0  0  0  0  0  0
   16.2820   -9.4150   22.0780 O   0  0  0  0  0  0  0  0  0  0  0  0
   18.1830  -10.1590   20.8660 C   0  0  0  0  0  0  0  0  0  0  0  0
   17.4340  -10.6010   19.6590 C   0  0  0  0  0  0  0  0  0  0  0  0
   16.4010  -10.0700   19.2840 O   0  0  0  0  0  0  0  0  0  0  0  0
   19.9750  -13.2010   18.3270 C   0  0  1  0  0  0  0  0  0  0  0  0
   20.3740  -14.1200   19.3590 O   0  0  0  0  0  0  0  0  0  0  0  0
   21.3630  -15.0750   18.9690 C   0  0  1  0  0  0  0  0  0  0  0  0
   22.6220  -14.3640   18.4950 C   0  0  0  0  0  0  0  0  0  0  0  0
   23.0800  -13.4680   19.6440 C   0  0  2  0  0  0  0  0  0  0  0  0
   24.2500  -12.6630   19.1990 N   0  0  0  0  0  0  0  0  0  0  0  0
   23.4460  -14.3150   20.8680 C   0  0  2  0  0  0  0  0  0  0  0  0
   24.6440  -15.0280   20.5250 O   0  0  0  0  0  0  0  0  0  0  0  0
   22.2330  -15.2130   21.2170 C   0  0  2  0  0  0  0  0  0  0  0  0
   22.5550  -16.2590   22.2770 C   0  0  0  0  0  0  0  0  0  0  0  0
   21.7260  -15.9120   20.0710 O   0  0  0  0  0  0  0  0  0  0  0  0
   19.0610  -13.9240   17.3230 C   0  0  0  0  0  0  0  0  0  0  0  0
   14.8852  -14.2123   17.5541 H   0  0  0  0  0  0  0  0  0  0  0  0
   15.1641  -13.3542   16.0008 H   0  0  0  0  0  0  0  0  0  0  0  0
   14.7754  -15.1079   16.0008 H   0  0  0  0  0  0  0  0  0  0  0  0
   16.6300  -14.5180   19.3940 H   0  0  0  0  0  0  0  0  0  0  0  0
   16.9203  -12.0260   17.0901 H   0  0  0  0  0  0  0  0  0  0  0  0
   16.1067  -12.6476   18.5925 H   0  0  0  0  0  0  0  0  0  0  0  0
   21.5487   -8.7493   24.1566 H   0  0  0  0  0  0  0  0  0  0  0  0
   20.5305   -7.0927   25.7239 H   0  0  0  0  0  0  0  0  0  0  0  0
   18.1091   -6.5261   25.5431 H   0  0  0  0  0  0  0  0  0  0  0  0
   16.6970   -7.6147   23.7973 H   0  0  0  0  0  0  0  0  0  0  0  0
   20.8258  -12.8215   17.7421 H   0  0  0  0  0  0  0  0  0  0  0  0
   20.9328  -15.6837   18.1600 H   0  0  0  0  0  0  0  0  0  0  0  0
   23.4038  -15.0989   18.2527 H   0  0  0  0  0  0  0  0  0  0  0  0
   22.4250  -13.7739   17.5878 H   0  0  0  0  0  0  0  0  0  0  0  0
   22.2607  -12.7919   19.9296 H   0  0  0  0  0  0  0  0  0  0  0  0
   24.1980  -12.4670   18.1920 H   0  0  0  0  0  0  0  0  0  0  0  0
   24.2360  -11.7330   19.6470 H   0  0  0  0  0  0  0  0  0  0  0  0
   25.1250  -13.1560   19.4260 H   0  0  0  0  0  0  0  0  0  0  0  0
   23.6554  -13.7297   21.7755 H   0  0  0  0  0  0  0  0  0  0  0  0
   24.8350  -14.8820   19.5780 H   0  0  0  0  0  0  0  0  0  0  0  0
   21.4776  -14.5131   21.6038 H   0  0  0  0  0  0  0  0  0  0  0  0
   22.4202  -15.8211   23.2771 H   0  0  0  0  0  0  0  0  0  0  0  0
   21.8802  -17.1198   22.1596 H   0  0  0  0  0  0  0  0  0  0  0  0
   23.5970  -16.5913   22.1596 H   0  0  0  0  0  0  0  0  0  0  0  0
   19.1195  -13.3987   16.3583 H   0  0  0  0  0  0  0  0  0  0  0  0
   19.4145  -14.9634   17.2549 H   0  0  0  0  0  0  0  0  0  0  0  0
  1  2  1  0
  2  3  2  0
  2  4  1  0
  4  5  1  1
  4  6  1  0
  6  7  1  0
  7  8  2  0
  8  9  1  0
  9 10  2  0
  9 11  1  0
 11 12  1  0
 12 13  2  0
 12 14  1  0
 14 15  2  0
 15 16  1  0
 16 17  2  0
 17 18  1  0
 18 19  2  0
 19 20  1  0
 20 21  2  0
 20 22  1  0
 22 23  1  0
 23 24  2  0
  8 25  1  0
 25 26  1  0
 26 27  1  0
 27 28  1  0
 28 29  1  0
 29 30  1  0
 29 31  1  0
 31 32  1  0
 31 33  1  0
 33 34  1  0
 33 35  1  0
 25 36  1  0
 36  4  1  0
 23  7  1  0
 35 27  1  0
 22 11  2  0
 19 14  1  0
  1 37  1  0
  1 38  1  0
  1 39  1  0
  5 40  1  0
  6 41  1  0
  6 42  1  0
 15 43  1  0
 16 44  1  0
 17 45  1  0
 18 46  1  0
 25 47  1  6
 27 48  1  6
 28 49  1  0
 28 50  1  0
 29 51  1  1
 30 52  1  0
 30 53  1  0
 30 54  1  0
 31 55  1  1
 32 56  1  0
 33 57  1  1
 34 58  1  0
 34 59  1  0
 34 60  1  0
 36 61  1  0
 36 62  1  0
M  CHG  1  30   1
M  END
>  <meeko>  (2) 
{"is_sidechain": [false], "free_energy": -9.599, "intermolecular_energy": -12.654, "internal_energy": -0.772}

$$$$
3arq_ligand
     RDKit          3D

 62 66  0  0  0  0  0  0  0  0999 V2000
   20.5140  -14.3430   18.2640 C   0  0  0  0  0  0  0  0  0  0  0  0
   21.2970  -13.3070   19.0310 C   0  0  0  0  0  0  0  0  0  0  0  0
   22.4970  -13.1360   18.8130 O   0  0  0  0  0  0  0  0  0  0  0  0
   20.5500  -12.5080   20.1220 C   0  0  2  0  0  0  0  0  0  0  0  0
   20.0210  -13.3920   21.1130 O   0  0  0  0  0  0  0  0  0  0  0  0
   19.3780  -11.7160   19.4990 C   0  0  0  0  0  0  0  0  0  0  0  0
   18.8230  -10.6790   20.4410 C   0  0  0  0  0  0  0  0  0  0  0  0
   19.5220  -10.1840   21.4710 C   0  0  0  0  0  0  0  0  0  0  0  0
   18.8960   -9.1300   22.3000 C   0  0  0  0  0  0  0  0  0  0  0  0
   19.5730   -8.3340   22.9420 O   0  0  0  0  0  0  0  0  0  0  0  0
   17.4190   -9.1240   22.3800 C   0  0  0  0  0  0  0  0  0  0  0  0
   16.7570   -8.5910   23.6010 C   0  0  0  0  0  0  0  0  0  0  0  0
   17.3670   -8.4470   24.6590 O   0  0  0  0  0  0  0  0  0  0  0  0
   15.3200   -8.2850   23.5050 C   0  0  0  0  0  0  0  0  0  0  0  0
   14.6970   -7.5180   24.4970 C   0  0  0  0  0  0  0  0  0  0  0  0
   13.3300   -7.2530   24.4090 C   0  0  0  0  0  0  0  0  0  0  0  0
   12.5850   -7.7580   23.3430 C   0  0  0  0  0  0  0  0  0  0  0  0
   13.2050   -8.5300   22.3590 C   0  0  0  0  0  0  0  0  0  0  0  0
   14.5780   -8.7880   22.4390 C   0  0  0  0  0  0  0  0  0  0  0  0
   15.2270   -9.6300   21.4160 C   0  0  0  0  0  0  0  0  0  0  0  0
   14.5450  -10.3260   20.6800 O   0  0  0  0  0  0  0  0  0  0  0  0
   16.7100   -9.6280   21.3610 C   0  0  0  0  0  0  0  0  0  0  0  0
   17.4330  -10.2080   20.1960 C   0  0  0  0  0  0  0  0  0  0  0  0
   16.9340  -10.3110   19.0860 O   0  0  0  0  0  0  0  0  0  0  0  0
   20.9210  -10.6130   21.8270 C   0  0  1  0  0  0  0  0  0  0  0  0
   20.8330  -11.2950   23.0900 O   0  0  0  0  0  0  0  0  0  0  0  0
   21.6410  -10.7460   24.1330 C   0  0  1  0  0  0  0  0  0  0  0  0
   21.3160  -11.4160   25.4590 C   0  0  0  0  0  0  0  0  0  0  0  0
   21.5370  -12.9140   25.2610 C   0  0  2  0  0  0  0  0  0  0  0  0
   21.1300  -13.6350   26.4970 N   0  0  0  0  0  0  0  0  0  0  0  0
   23.0080  -13.1970   24.9350 C   0  0  2  0  0  0  0  0  0  0  0  0
   23.7510  -12.9230   26.1330 O   0  0  0  0  0  0  0  0  0  0  0  0
   23.4080  -12.3360   23.7110 C   0  0  2  0  0  0  0  0  0  0  0  0
   24.9050  -12.3640   23.4300 C   0  0  0  0  0  0  0  0  0  0  0  0
   23.0300  -10.9610   23.8660 O   0  0  0  0  0  0  0  0  0  0  0  0
   21.5570  -11.5460   20.7830 C   0  0  0  0  0  0  0  0  0  0  0  0
   20.0056  -15.0156   18.9705 H   0  0  0  0  0  0  0  0  0  0  0  0
   19.7661  -13.8429   17.6310 H   0  0  0  0  0  0  0  0  0  0  0  0
   21.1992  -14.9260   17.6310 H   0  0  0  0  0  0  0  0  0  0  0  0
   20.6270  -13.3930   21.8770 H   0  0  0  0  0  0  0  0  0  0  0  0
   19.7359  -11.2118   18.5892 H   0  0  0  0  0  0  0  0  0  0  0  0
   18.5725  -12.4300   19.2725 H   0  0  0  0  0  0  0  0  0  0  0  0
   15.2826   -7.1262   25.3418 H   0  0  0  0  0  0  0  0  0  0  0  0
   12.8384   -6.6443   25.1822 H   0  0  0  0  0  0  0  0  0  0  0  0
   11.5073   -7.5475   23.2778 H   0  0  0  0  0  0  0  0  0  0  0  0
   12.6157   -8.9345   21.5228 H   0  0  0  0  0  0  0  0  0  0  0  0
   21.5658   -9.7228   21.8684 H   0  0  0  0  0  0  0  0  0  0  0  0
   21.4290   -9.6678   24.1823 H   0  0  0  0  0  0  0  0  0  0  0  0
   21.9810  -11.0360   26.2485 H   0  0  0  0  0  0  0  0  0  0  0  0
   20.2802  -11.2063   25.7643 H   0  0  0  0  0  0  0  0  0  0  0  0
   20.9260  -13.2659   24.4167 H   0  0  0  0  0  0  0  0  0  0  0  0
   21.7310  -13.3730   27.2890 H   0  0  0  0  0  0  0  0  0  0  0  0
   20.1810  -13.3480   26.7840 H   0  0  0  0  0  0  0  0  0  0  0  0
   21.1630  -14.6520   26.3400 H   0  0  0  0  0  0  0  0  0  0  0  0
   23.2138  -14.2387   24.6478 H   0  0  0  0  0  0  0  0  0  0  0  0
   24.1000  -12.0120   26.0820 H   0  0  0  0  0  0  0  0  0  0  0  0
   22.8643  -12.7894   22.8691 H   0  0  0  0  0  0  0  0  0  0  0  0
   25.4566  -12.3743   24.3817 H   0  0  0  0  0  0  0  0  0  0  0  0
   25.1529  -13.2669   22.8527 H   0  0  0  0  0  0  0  0  0  0  0  0
   25.1865  -11.4710   22.8527 H   0  0  0  0  0  0  0  0  0  0  0  0
   22.0151  -10.9277   19.9969 H   0  0  0  0  0  0  0  0  0  0  0  0
   22.2967  -12.1655   21.3113 H   0  0  0  0  0  0  0  0  0  0  0  0
  1  2  1  0
  2  3  2  0
  2  4  1  0
  4  5  1  1
  4  6  1  0
  6  7  1  0
  7  8  2  0
  8  9  1  0
  9 10  2  0
  9 11  1  0
 11 12  1  0
 12 13  2  0
 12 14  1  0
 14 15  2  0
 15 16  1  0
 16 17  2  0
 17 18  1  0
 18 19  2  0
 19 20  1  0
 20 21  2  0
 20 22  1  0
 22 23  1  0
 23 24  2  0
  8 25  1  0
 25 26  1  0
 26 27  1  0
 27 28  1  0
 28 29  1  0
 29 30  1  0
 29 31  1  0
 31 32  1  0
 31 33  1  0
 33 34  1  0
 33 35  1  0
 25 36  1  0
 36  4  1  0
 23  7  1  0
 35 27  1  0
 22 11  2  0
 19 14  1  0
  1 37  1  0
  1 38  1  0
  1 39  1  0
  5 40  1  0
  6 41  1  0
  6 42  1  0
 15 43  1  0
 16 44  1  0
 17 45  1  0
 18 46  1  0
 25 47  1  1
 27 48  1  1
 28 49  1  0
 28 50  1  0
 29 51  1  6
 30 52  1  0
 30 53  1  0
 30 54  1  0
 31 55  1  6
 32 56  1  0
 33 57  1  6
 34 58  1  0
 34 59  1  0
 34 60  1  0
 36 61  1  0
 36 62  1  0
M  CHG  1  30   1
M  END
>  <meeko>  (3) 
{"is_sidechain": [false], "free_energy": -9.582, "intermolecular_energy": -12.583, "internal_energy": -0.822}

$$$$
3arq_ligand
     RDKit          3D

 62 66  0  0  0  0  0  0  0  0999 V2000
   15.1930  -14.1430   16.1890 C   0  0  0  0  0  0  0  0  0  0  0  0
   16.6130  -14.6200   16.3780 C   0  0  0  0  0  0  0  0  0  0  0  0
   17.0760  -15.5130   15.6670 O   0  0  0  0  0  0  0  0  0  0  0  0
   17.4370  -13.9800   17.5170 C   0  0  2  0  0  0  0  0  0  0  0  0
   17.3550  -14.7770   18.7000 O   0  0  0  0  0  0  0  0  0  0  0  0
   16.8970  -12.5680   17.8420 C   0  0  0  0  0  0  0  0  0  0  0  0
   17.8460  -11.7760   18.7030 C   0  0  0  0  0  0  0  0  0  0  0  0
   19.1540  -12.0520   18.7870 C   0  0  0  0  0  0  0  0  0  0  0  0
   20.0030  -11.1750   19.6240 C   0  0  0  0  0  0  0  0  0  0  0  0
   21.2080  -11.0660   19.4190 O   0  0  0  0  0  0  0  0  0  0  0  0
   19.3500  -10.4920   20.7610 C   0  0  0  0  0  0  0  0  0  0  0  0
   20.1540  -10.1520   21.9660 C   0  0  0  0  0  0  0  0  0  0  0  0
   21.2430  -10.6800   22.1900 O   0  0  0  0  0  0  0  0  0  0  0  0
   19.5700   -9.1850   22.9100 C   0  0  0  0  0  0  0  0  0  0  0  0
   20.3690   -8.5970   23.8980 C   0  0  0  0  0  0  0  0  0  0  0  0
   19.8020   -7.7000   24.8040 C   0  0  0  0  0  0  0  0  0  0  0  0
   18.4410   -7.3980   24.7320 C   0  0  0  0  0  0  0  0  0  0  0  0
   17.6430   -7.9910   23.7520 C   0  0  0  0  0  0  0  0  0  0  0  0
   18.2120   -8.8840   22.8360 C   0  0  0  0  0  0  0  0  0  0  0  0
   17.3630   -9.5350   21.8210 C   0  0  0  0  0  0  0  0  0  0  0  0
   16.1490   -9.5280   21.9510 O   0  0  0  0  0  0  0  0  0  0  0  0
   18.0400  -10.2220   20.6930 C   0  0  0  0  0  0  0  0  0  0  0  0
   17.2760  -10.6480   19.4880 C   0  0  0  0  0  0  0  0  0  0  0  0
   16.2310  -10.1220   19.1420 O   0  0  0  0  0  0  0  0  0  0  0  0
   19.8270  -13.1870   18.0610 C   0  0  1  0  0  0  0  0  0  0  0  0
   20.2540  -14.1230   19.0670 O   0  0  0  0  0  0  0  0  0  0  0  0
   21.6670  -14.1910   19.2680 C   0  0  1  0  0  0  0  0  0  0  0  0
   22.0610  -15.5740   19.7650 C   0  0  0  0  0  0  0  0  0  0  0  0
   21.5600  -16.5740   18.7250 C   0  0  2  0  0  0  0  0  0  0  0  0
   21.8220  -17.9560   19.2100 N   0  0  0  0  0  0  0  0  0  0  0  0
   22.2540  -16.3370   17.3790 C   0  0  2  0  0  0  0  0  0  0  0  0
   23.6260  -16.7240   17.5550 O   0  0  0  0  0  0  0  0  0  0  0  0
   22.0440  -14.8550   16.9780 C   0  0  2  0  0  0  0  0  0  0  0  0
   22.8750  -14.4440   15.7690 C   0  0  0  0  0  0  0  0  0  0  0  0
   22.3680  -13.9520   18.0450 O   0  0  0  0  0  0  0  0  0  0  0  0
   18.9060  -13.9000   17.0560 C   0  0  0  0  0  0  0  0  0  0  0  0
   14.7251  -13.9858   17.1720 H   0  0  0  0  0  0  0  0  0  0  0  0
   15.1957  -13.1964   15.6286 H   0  0  0  0  0  0  0  0  0  0  0  0
   14.6237  -14.8992   15.6286 H   0  0  0  0  0  0  0  0  0  0  0  0
   16.4160  -14.8570   18.9510 H   0  0  0  0  0  0  0  0  0  0  0  0
   16.7380  -12.0246   16.8989 H   0  0  0  0  0  0  0  0  0  0  0  0
   15.9570  -12.6881   18.4006 H   0  0  0  0  0  0  0  0  0  0  0  0
   21.4398   -8.8413   23.9598 H   0  0  0  0  0  0  0  0  0  0  0  0
   20.4286   -7.2300   25.5763 H   0  0  0  0  0  0  0  0  0  0  0  0
   17.9966   -6.6916   25.4486 H   0  0  0  0  0  0  0  0  0  0  0  0
   16.5694   -7.7572   23.6996 H   0  0  0  0  0  0  0  0  0  0  0  0
   20.6636  -12.7844   17.4712 H   0  0  0  0  0  0  0  0  0  0  0  0
   21.9323  -13.4225   20.0090 H   0  0  0  0  0  0  0  0  0  0  0  0
   23.1544  -15.6444   19.8625 H   0  0  0  0  0  0  0  0  0  0  0  0
   21.6233  -15.7786   20.7532 H   0  0  0  0  0  0  0  0  0  0  0  0
   20.4781  -16.4389   18.5794 H   0  0  0  0  0  0  0  0  0  0  0  0
   22.8010  -18.0600   19.5050 H   0  0  0  0  0  0  0  0  0  0  0  0
   21.2710  -18.1470   20.0610 H   0  0  0  0  0  0  0  0  0  0  0  0
   21.5930  -18.6380   18.4740 H   0  0  0  0  0  0  0  0  0  0  0  0
   21.8439  -16.9320   16.5497 H   0  0  0  0  0  0  0  0  0  0  0  0
   24.1870  -15.9270   17.4870 H   0  0  0  0  0  0  0  0  0  0  0  0
   20.9741  -14.7874   16.7316 H   0  0  0  0  0  0  0  0  0  0  0  0
   23.8127  -13.9802   16.1091 H   0  0  0  0  0  0  0  0  0  0  0  0
   23.1043  -15.3326   15.1625 H   0  0  0  0  0  0  0  0  0  0  0  0
   22.3080  -13.7224   15.1625 H   0  0  0  0  0  0  0  0  0  0  0  0
   18.9422  -13.3533   16.1021 H   0  0  0  0  0  0  0  0  0  0  0  0
   19.2713  -14.9331   16.9592 H   0  0  0  0  0  0  0  0  0  0  0  0
  1  2  1  0
  2  3  2  0
  2  4  1  0
  4  5  1  1
  4  6  1  0
  6  7  1  0
  7  8  2  0
  8  9  1  0
  9 10  2  0
  9 11  1  0
 11 12  1  0
 12 13  2  0
 12 14  1  0
 14 15  2  0
 15 16  1  0
 16 17  2  0
 17 18  1  0
 18 19  2  0
 19 20  1  0
 20 21  2  0
 20 22  1  0
 22 23  1  0
 23 24  2  0
  8 25  1  0
 25 26  1  0
 26 27  1  0
 27 28  1  0
 28 29  1  0
 29 30  1  0
 29 31  1  0
 31 32  1  0
 31 33  1  0
 33 34  1  0
 33 35  1  0
 25 36  1  0
 36  4  1  0
 23  7  1  0
 35 27  1  0
 22 11  2  0
 19 14  1  0
  1 37  1  0
  1 38  1  0
  1 39  1  0
  5 40  1  0
  6 41  1  0
  6 42  1  0
 15 43  1  0
 16 44  1  0
 17 45  1  0
 18 46  1  0
 25 47  1  6
 27 48  1  1
 28 49  1  0
 28 50  1  0
 29 51  1  6
 30 52  1  0
 30 53  1  0
 30 54  1  0
 31 55  1  6
 32 56  1  0
 33 57  1  6
 34 58  1  0
 34 59  1  0
 34 60  1  0
 36 61  1  0
 36 62  1  0
M  CHG  1  30   1
M  END
>  <meeko>  (4) 
{"is_sidechain": [false], "free_energy": -9.067, "intermolecular_energy": -12.688, "internal_energy": -0.066}

$$$$
3arq_ligand
     RDKit          3D

 62 66  0  0  0  0  0  0  0  0999 V2000
   23.3550  -15.1190   14.6970 C   0  0  0  0  0  0  0  0  0  0  0  0
   22.7320  -15.8970   15.8290 C   0  0  0  0  0  0  0  0  0  0  0  0
   22.5750  -17.1160   15.7430 O   0  0  0  0  0  0  0  0  0  0  0  0
   22.2630  -15.1050   17.0700 C   0  0  2  0  0  0  0  0  0  0  0  0
   21.4720  -15.9350   17.9220 O   0  0  0  0  0  0  0  0  0  0  0  0
   21.4060  -13.8920   16.6380 C   0  0  0  0  0  0  0  0  0  0  0  0
   21.1960  -12.9110   17.7620 C   0  0  0  0  0  0  0  0  0  0  0  0
   22.0040  -12.8420   18.8280 C   0  0  0  0  0  0  0  0  0  0  0  0
   21.7330  -11.8040   19.8470 C   0  0  0  0  0  0  0  0  0  0  0  0
   22.6200  -11.3810   20.5820 O   0  0  0  0  0  0  0  0  0  0  0  0
   20.3330  -11.3510   19.9910 C   0  0  0  0  0  0  0  0  0  0  0  0
   19.8590  -10.8550   21.3120 C   0  0  0  0  0  0  0  0  0  0  0  0
   20.4730  -11.0920   22.3520 O   0  0  0  0  0  0  0  0  0  0  0  0
   18.5930  -10.1040   21.3310 C   0  0  0  0  0  0  0  0  0  0  0  0
   18.2330   -9.3630   22.4630 C   0  0  0  0  0  0  0  0  0  0  0  0
   17.0200   -8.6730   22.4800 C   0  0  0  0  0  0  0  0  0  0  0  0
   16.1650   -8.7300   21.3790 C   0  0  0  0  0  0  0  0  0  0  0  0
   16.5210   -9.4770   20.2550 C   0  0  0  0  0  0  0  0  0  0  0  0
   17.7420  -10.1610   20.2300 C   0  0  0  0  0  0  0  0  0  0  0  0
   18.1040  -10.9750   19.0550 C   0  0  0  0  0  0  0  0  0  0  0  0
   17.2450  -11.2870   18.2440 O   0  0  0  0  0  0  0  0  0  0  0  0
   19.5130  -11.4260   18.9350 C   0  0  0  0  0  0  0  0  0  0  0  0
   20.0280  -11.9950   17.6590 C   0  0  0  0  0  0  0  0  0  0  0  0
   19.5340  -11.7460   16.5710 O   0  0  0  0  0  0  0  0  0  0  0  0
   23.1930  -13.7410   19.0470 C   0  0  1  0  0  0  0  0  0  0  0  0
   22.8810  -14.5670   20.1820 O   0  0  0  0  0  0  0  0  0  0  0  0
   23.8610  -14.5620   21.2220 C   0  0  1  0  0  0  0  0  0  0  0  0
   23.3420  -13.7970   22.4300 C   0  0  0  0  0  0  0  0  0  0  0  0
   22.0350  -14.4680   22.8470 C   0  0  2  0  0  0  0  0  0  0  0  0
   21.4230  -13.6950   23.9610 N   0  0  0  0  0  0  0  0  0  0  0  0
   22.2940  -15.9160   23.2780 C   0  0  2  0  0  0  0  0  0  0  0  0
   23.0240  -15.8490   24.5130 O   0  0  0  0  0  0  0  0  0  0  0  0
   23.0320  -16.6410   22.1250 C   0  0  2  0  0  0  0  0  0  0  0  0
   23.5410  -18.0220   22.5220 C   0  0  0  0  0  0  0  0  0  0  0  0
   24.1600  -15.8940   21.6470 O   0  0  0  0  0  0  0  0  0  0  0  0
   23.5140  -14.6330   17.8360 C   0  0  0  0  0  0  0  0  0  0  0  0
   23.9930  -14.3223   15.1071 H   0  0  0  0  0  0  0  0  0  0  0  0
   23.9643  -15.7950   14.0791 H   0  0  0  0  0  0  0  0  0  0  0  0
   22.5621  -14.6723   14.0791 H   0  0  0  0  0  0  0  0  0  0  0  0
   21.6090  -16.8640   17.6580 H   0  0  0  0  0  0  0  0  0  0  0  0
   21.9141  -13.3771   15.8093 H   0  0  0  0  0  0  0  0  0  0  0  0
   20.4191  -14.2692   16.3317 H   0  0  0  0  0  0  0  0  0  0  0  0
   18.9029   -9.3248   23.3347 H   0  0  0  0  0  0  0  0  0  0  0  0
   16.7373   -8.0825   23.3640 H   0  0  0  0  0  0  0  0  0  0  0  0
   15.2093   -8.1856   21.3968 H   0  0  0  0  0  0  0  0  0  0  0  0
   15.8431   -9.5281   19.3902 H   0  0  0  0  0  0  0  0  0  0  0  0
   24.0848  -13.1173   19.2075 H   0  0  0  0  0  0  0  0  0  0  0  0
   24.7661  -14.0837   20.8196 H   0  0  0  0  0  0  0  0  0  0  0  0
   24.0719  -13.8456   23.2515 H   0  0  0  0  0  0  0  0  0  0  0  0
   23.1819  -12.7361   22.1872 H   0  0  0  0  0  0  0  0  0  0  0  0
   21.3425  -14.4842   21.9925 H   0  0  0  0  0  0  0  0  0  0  0  0
   22.1360  -13.1540   24.4660 H   0  0  0  0  0  0  0  0  0  0  0  0
   20.7720  -12.9860   23.5900 H   0  0  0  0  0  0  0  0  0  0  0  0
   20.9310  -14.3310   24.6040 H   0  0  0  0  0  0  0  0  0  0  0  0
   21.3814  -16.5015   23.4632 H   0  0  0  0  0  0  0  0  0  0  0  0
   22.4410  -15.4750   25.2010 H   0  0  0  0  0  0  0  0  0  0  0  0
   22.2739  -16.7384   21.3339 H   0  0  0  0  0  0  0  0  0  0  0  0
   23.5700  -18.1007   23.6188 H   0  0  0  0  0  0  0  0  0  0  0  0
   22.8674  -18.7915   22.1168 H   0  0  0  0  0  0  0  0  0  0  0  0
   24.5529  -18.1703   22.1168 H   0  0  0  0  0  0  0  0  0  0  0  0
   24.1517  -14.0636   17.1437 H   0  0  0  0  0  0  0  0  0  0  0  0
   24.0154  -15.5330   18.2215 H   0  0  0  0  0  0  0  0  0  0  0  0
  1  2  1  0
  2  3  2  0
  2  4  1  0
  4  5  1  1
  4  6  1  0
  6  7  1  0
  7  8  2  0
  8  9  1  0
  9 10  2  0
  9 11  1  0
 11 12  1  0
 12 13  2  0
 12 14  1  0
 14 15  2  0
 15 16  1  0
 16 17  2  0
 17 18  1  0
 18 19  2  0
 19 20  1  0
 20 21  2  0
 20 22  1  0
 22 23  1  0
 23 24  2  0
  8 25  1  0
 25 26  1  0
 26 27  1  0
 27 28  1  0
 28 29  1  0
 29 30  1  0
 29 31  1  0
 31 32  1  0
 31 33  1  0
 33 34  1  0
 33 35  1  0
 25 36  1  0
 36  4  1  0
 23  7  1  0
 35 27  1  0
 22 11  2  0
 19 14  1  0
  1 37  1  0
  1 38  1  0
  1 39  1  0
  5 40  1  0
  6 41  1  0
  6 42  1  0
 15 43  1  0
 16 44  1  0
 17 45  1  0
 18 46  1  0
 25 47  1  1
 27 48  1  6
 28 49  1  0
 28 50  1  0
 29 51  1  6
 30 52  1  0
 30 53  1  0
 30 54  1  0
 31 55  1  1
 32 56  1  0
 33 57  1  6
 34 58  1  0
 34 59  1  0
 34 60  1  0
 36 61  1  0
 36 62  1  0
M  CHG  1  30   1
M  END
>  <meeko>  (5) 
{"is_sidechain": [false], "free_energy": -8.673, "intermolecular_energy": -11.049, "internal_energy": -1.208}

$$$$
3arq_ligand
     RDKit          3D

 62 66  0  0  0  0  0  0  0  0999 V2000
   18.1660  -13.5380   17.3000 C   0  0  0  0  0  0  0  0  0  0  0  0
   19.4130  -13.3970   18.1380 C   0  0  0  0  0  0  0  0  0  0  0  0
   20.4720  -13.9170   17.7840 O   0  0  0  0  0  0  0  0  0  0  0  0
   19.2960  -12.6200   19.4690 C   0  0  2  0  0  0  0  0  0  0  0  0
   18.9020  -13.4980   20.5250 O   0  0  0  0  0  0  0  0  0  0  0  0
   18.2370  -11.5010   19.3440 C   0  0  0  0  0  0  0  0  0  0  0  0
   18.3090  -10.5150   20.4820 C   0  0  0  0  0  0  0  0  0  0  0  0
   19.4080  -10.3490   21.2310 C   0  0  0  0  0  0  0  0  0  0  0  0
   19.3840   -9.3150   22.2900 C   0  0  0  0  0  0  0  0  0  0  0  0
   20.4160   -8.7970   22.7010 O   0  0  0  0  0  0  0  0  0  0  0  0
   18.0680   -8.9870   22.8800 C   0  0  0  0  0  0  0  0  0  0  0  0
   18.0010   -8.5040   24.2870 C   0  0  0  0  0  0  0  0  0  0  0  0
   18.9360   -8.6590   25.0710 O   0  0  0  0  0  0  0  0  0  0  0  0
   16.7440   -7.8700   24.7170 C   0  0  0  0  0  0  0  0  0  0  0  0
   16.7000   -7.1370   25.9100 C   0  0  0  0  0  0  0  0  0  0  0  0
   15.4980   -6.5600   26.3230 C   0  0  0  0  0  0  0  0  0  0  0  0
   14.3440   -6.7200   25.5550 C   0  0  0  0  0  0  0  0  0  0  0  0
   14.3870   -7.4580   24.3710 C   0  0  0  0  0  0  0  0  0  0  0  0
   15.5930   -8.0300   23.9500 C   0  0  0  0  0  0  0  0  0  0  0  0
   15.6320   -8.8360   22.7150 C   0  0  0  0  0  0  0  0  0  0  0  0
   14.5910   -9.2430   22.2240 O   0  0  0  0  0  0  0  0  0  0  0  0
   16.9630   -9.1610   22.1450 C   0  0  0  0  0  0  0  0  0  0  0  0
   17.0910   -9.7120   20.7670 C   0  0  0  0  0  0  0  0  0  0  0  0
   16.2520   -9.5340   19.8990 O   0  0  0  0  0  0  0  0  0  0  0  0
   20.6820  -11.1310   21.0480 C   0  0  1  0  0  0  0  0  0  0  0  0
   20.8300  -11.9550   22.2180 O   0  0  0  0  0  0  0  0  0  0  0  0
   22.0230  -12.7400   22.2580 C   0  0  1  0  0  0  0  0  0  0  0  0
   23.2480  -11.8370   22.2500 C   0  0  0  0  0  0  0  0  0  0  0  0
   23.1110  -10.9010   23.4500 C   0  0  2  0  0  0  0  0  0  0  0  0
   24.2290   -9.9200   23.4330 N   0  0  0  0  0  0  0  0  0  0  0  0
   23.1220  -11.7040   24.7550 C   0  0  2  0  0  0  0  0  0  0  0  0
   24.4530  -12.2200   24.9060 O   0  0  0  0  0  0  0  0  0  0  0  0
   22.0130  -12.7820   24.6710 C   0  0  2  0  0  0  0  0  0  0  0  0
   22.0720  -13.7850   25.8180 C   0  0  0  0  0  0  0  0  0  0  0  0
   22.0730  -13.5300   23.4490 O   0  0  0  0  0  0  0  0  0  0  0  0
   20.6780  -12.0200   19.7930 C   0  0  0  0  0  0  0  0  0  0  0  0
   17.2907  -13.6370   17.9589 H   0  0  0  0  0  0  0  0  0  0  0  0
   18.0482  -12.6474   16.6651 H   0  0  0  0  0  0  0  0  0  0  0  0
   18.2500  -14.4324   16.6651 H   0  0  0  0  0  0  0  0  0  0  0  0
   18.5150  -12.9600   21.2420 H   0  0  0  0  0  0  0  0  0  0  0  0
   18.4010  -10.9628   18.3988 H   0  0  0  0  0  0  0  0  0  0  0  0
   17.2439  -11.9733   19.3705 H   0  0  0  0  0  0  0  0  0  0  0  0
   17.6085   -7.0167   26.5185 H   0  0  0  0  0  0  0  0  0  0  0  0
   15.4604   -5.9780   27.2557 H   0  0  0  0  0  0  0  0  0  0  0  0
   13.3985   -6.2636   25.8833 H   0  0  0  0  0  0  0  0  0  0  0  0
   13.4751   -7.5897   23.7702 H   0  0  0  0  0  0  0  0  0  0  0  0
   21.5153  -10.4253   20.9153 H   0  0  0  0  0  0  0  0  0  0  0  0
   22.0176  -13.3934   21.3731 H   0  0  0  0  0  0  0  0  0  0  0  0
   24.1638  -12.4395   22.3417 H   0  0  0  0  0  0  0  0  0  0  0  0
   23.3147  -11.2688   21.3105 H   0  0  0  0  0  0  0  0  0  0  0  0
   22.1537  -10.3627   23.3881 H   0  0  0  0  0  0  0  0  0  0  0  0
   24.9950  -10.2470   22.8300 H   0  0  0  0  0  0  0  0  0  0  0  0
   23.9210   -9.0330   23.0040 H   0  0  0  0  0  0  0  0  0  0  0  0
   24.5700   -9.7550   24.3900 H   0  0  0  0  0  0  0  0  0  0  0  0
   22.8935  -11.1090   25.6515 H   0  0  0  0  0  0  0  0  0  0  0  0
   25.0120  -11.8550   24.1920 H   0  0  0  0  0  0  0  0  0  0  0  0
   21.0738  -12.2120   24.7249 H   0  0  0  0  0  0  0  0  0  0  0  0
   22.0404  -13.2474   26.7772 H   0  0  0  0  0  0  0  0  0  0  0  0
   21.2125  -14.4683   25.7521 H   0  0  0  0  0  0  0  0  0  0  0  0
   23.0057  -14.3628   25.7521 H   0  0  0  0  0  0  0  0  0  0  0  0
   21.0038  -11.4131   18.9354 H   0  0  0  0  0  0  0  0  0  0  0  0
   21.3579  -12.8618   19.9907 H   0  0  0  0  0  0  0  0  0  0  0  0
  1  2  1  0
  2  3  2  0
  2  4  1  0
  4  5  1  1
  4  6  1  0
  6  7  1  0
  7  8  2  0
  8  9  1  0
  9 10  2  0
  9 11  1  0
 11 12  1  0
 12 13  2  0
 12 14  1  0
 14 15  2  0
 15 16  1  0
 16 17  2  0
 17 18  1  0
 18 19  2  0
 19 20  1  0
 20 21  2  0
 20 22  1  0
 22 23  1  0
 23 24  2  0
  8 25  1  0
 25 26  1  0
 26 27  1  0
 27 28  1  0
 28 29  1  0
 29 30  1  0
 29 31  1  0
 31 32  1  0
 31 33  1  0
 33 34  1  0
 33 35  1  0
 25 36  1  0
 36  4  1  0
 23  7  1  0
 35 27  1  0
 22 11  2  0
 19 14  1  0
  1 37  1  0
  1 38  1  0
  1 39  1  0
  5 40  1  0
  6 41  1  0
  6 42  1  0
 15 43  1  0
 16 44  1  0
 17 45  1  0
 18 46  1  0
 25 47  1  6
 27 48  1  6
 28 49  1  0
 28 50  1  0
 29 51  1  6
 30 52  1  0
 30 53  1  0
 30 54  1  0
 31 55  1  1
 32 56  1  0
 33 57  1  6
 34 58  1  0
 34 59  1  0
 34 60  1  0
 36 61  1  0
 36 62  1  0
M  CHG  1  30   1
M  END
>  <meeko>  (6) 
{"is_sidechain": [false], "free_energy": -8.574, "intermolecular_energy": -11.256, "internal_energy": -0.875}

$$$$
3arq_ligand
     RDKit          3D

 62 66  0  0  0  0  0  0  0  0999 V2000
   15.1170  -12.0630   18.6520 C   0  0  0  0  0  0  0  0  0  0  0  0
   16.1150  -13.0250   18.0560 C   0  0  0  0  0  0  0  0  0  0  0  0
   15.7730  -13.8270   17.1860 O   0  0  0  0  0  0  0  0  0  0  0  0
   17.5570  -12.9930   18.6080 C   0  0  2  0  0  0  0  0  0  0  0  0
   17.8040  -14.1380   19.4260 O   0  0  0  0  0  0  0  0  0  0  0  0
   17.7750  -11.7250   19.4660 C   0  0  0  0  0  0  0  0  0  0  0  0
   19.2320  -11.4740   19.7570 C   0  0  0  0  0  0  0  0  0  0  0  0
   20.2210  -11.9810   19.0100 C   0  0  0  0  0  0  0  0  0  0  0  0
   21.6150  -11.6270   19.3570 C   0  0  0  0  0  0  0  0  0  0  0  0
   22.5110  -11.6590   18.5210 O   0  0  0  0  0  0  0  0  0  0  0  0
   21.8940  -11.3010   20.7730 C   0  0  0  0  0  0  0  0  0  0  0  0
   23.2490  -11.5650   21.3280 C   0  0  0  0  0  0  0  0  0  0  0  0
   24.0460  -12.3160   20.7660 O   0  0  0  0  0  0  0  0  0  0  0  0
   23.5850  -10.9210   22.6090 C   0  0  0  0  0  0  0  0  0  0  0  0
   24.9150  -10.8780   23.0450 C   0  0  0  0  0  0  0  0  0  0  0  0
   25.2210  -10.2870   24.2720 C   0  0  0  0  0  0  0  0  0  0  0  0
   24.2050   -9.7510   25.0640 C   0  0  0  0  0  0  0  0  0  0  0  0
   22.8790   -9.8040   24.6330 C   0  0  0  0  0  0  0  0  0  0  0  0
   22.5700  -10.3860   23.3980 C   0  0  0  0  0  0  0  0  0  0  0  0
   21.1660  -10.4690   22.9550 C   0  0  0  0  0  0  0  0  0  0  0  0
   20.2640  -10.3020   23.7630 O   0  0  0  0  0  0  0  0  0  0  0  0
   20.9090  -10.8050   21.5330 C   0  0  0  0  0  0  0  0  0  0  0  0
   19.5560  -10.6280   20.9370 C   0  0  0  0  0  0  0  0  0  0  0  0
   18.7330   -9.8420   21.3770 O   0  0  0  0  0  0  0  0  0  0  0  0
   20.0050  -12.8730   17.8150 C   0  0  1  0  0  0  0  0  0  0  0  0
   20.5210  -14.1680   18.1710 O   0  0  0  0  0  0  0  0  0  0  0  0
   21.1130  -14.8990   17.0940 C   0  0  1  0  0  0  0  0  0  0  0  0
   22.5430  -14.4340   16.8660 C   0  0  0  0  0  0  0  0  0  0  0  0
   23.2830  -14.6200   18.1890 C   0  0  2  0  0  0  0  0  0  0  0  0
   24.6630  -14.0790   18.0580 N   0  0  0  0  0  0  0  0  0  0  0  0
   23.3220  -16.1030   18.5740 C   0  0  2  0  0  0  0  0  0  0  0  0
   24.1940  -16.7450   17.6310 O   0  0  0  0  0  0  0  0  0  0  0  0
   21.8690  -16.6400   18.5860 C   0  0  2  0  0  0  0  0  0  0  0  0
   21.7980  -18.1550   18.7370 C   0  0  0  0  0  0  0  0  0  0  0  0
   21.1530  -16.2980   17.3910 O   0  0  0  0  0  0  0  0  0  0  0  0
   18.5270  -13.0040   17.4100 C   0  0  0  0  0  0  0  0  0  0  0  0
   15.1694  -12.1135   19.7496 H   0  0  0  0  0  0  0  0  0  0  0  0
   15.3503  -11.0404   18.3205 H   0  0  0  0  0  0  0  0  0  0  0  0
   14.1037  -12.3337   18.3205 H   0  0  0  0  0  0  0  0  0  0  0  0
   17.7250  -14.9350   18.8690 H   0  0  0  0  0  0  0  0  0  0  0  0
   17.3679  -10.8579   18.9253 H   0  0  0  0  0  0  0  0  0  0  0  0
   17.2616  -11.8769   20.4269 H   0  0  0  0  0  0  0  0  0  0  0  0
   25.7146  -11.3078   22.4237 H   0  0  0  0  0  0  0  0  0  0  0  0
   26.2652  -10.2437   24.6152 H   0  0  0  0  0  0  0  0  0  0  0  0
   24.4499   -9.2857   26.0302 H   0  0  0  0  0  0  0  0  0  0  0  0
   22.0780   -9.3892   25.2625 H   0  0  0  0  0  0  0  0  0  0  0  0
   20.5178  -12.4336   16.9467 H   0  0  0  0  0  0  0  0  0  0  0  0
   20.5005  -14.7212   16.1978 H   0  0  0  0  0  0  0  0  0  0  0  0
   23.0169  -15.0385   16.0786 H   0  0  0  0  0  0  0  0  0  0  0  0
   22.5698  -13.3829   16.5429 H   0  0  0  0  0  0  0  0  0  0  0  0
   22.7534  -14.0747   18.9841 H   0  0  0  0  0  0  0  0  0  0  0  0
   24.7780  -13.5830   17.1650 H   0  0  0  0  0  0  0  0  0  0  0  0
   24.8370  -13.3620   18.7790 H   0  0  0  0  0  0  0  0  0  0  0  0
   25.3500  -14.8410   18.1380 H   0  0  0  0  0  0  0  0  0  0  0  0
   23.7203  -16.2974   19.5808 H   0  0  0  0  0  0  0  0  0  0  0  0
   24.5170  -17.5800   18.0220 H   0  0  0  0  0  0  0  0  0  0  0  0
   21.4068  -16.1581   19.4601 H   0  0  0  0  0  0  0  0  0  0  0  0
   21.7857  -18.4168   19.8053 H   0  0  0  0  0  0  0  0  0  0  0  0
   20.8814  -18.5287   18.2573 H   0  0  0  0  0  0  0  0  0  0  0  0
   22.6757  -18.6128   18.2573 H   0  0  0  0  0  0  0  0  0  0  0  0
   18.2718  -12.1635   16.7478 H   0  0  0  0  0  0  0  0  0  0  0  0
   18.4136  -13.9779   16.9113 H   0  0  0  0  0  0  0  0  0  0  0  0
  1  2  1  0
  2  3  2  0
  2  4  1  0
  4  5  1  1
  4  6  1  0
  6  7  1  0
  7  8  2  0
  8  9  1  0
  9 10  2  0
  9 11  1  0
 11 12  1  0
 12 13  2  0
 12 14  1  0
 14 15  2  0
 15 16  1  0
 16 17  2  0
 17 18  1  0
 18 19  2  0
 19 20  1  0
 20 21  2  0
 20 22  1  0
 22 23  1  0
 23 24  2  0
  8 25  1  0
 25 26  1  0
 26 27  1  0
 27 28  1  0
 28 29  1  0
 29 30  1  0
 29 31  1  0
 31 32  1  0
 31 33  1  0
 33 34  1  0
 33 35  1  0
 25 36  1  0
 36  4  1  0
 23  7  1  0
 35 27  1  0
 22 11  2  0
 19 14  1  0
  1 37  1  0
  1 38  1  0
  1 39  1  0
  5 40  1  0
  6 41  1  0
  6 42  1  0
 15 43  1  0
 16 44  1  0
 17 45  1  0
 18 46  1  0
 25 47  1  6
 27 48  1  6
 28 49  1  0
 28 50  1  0
 29 51  1  1
 30 52  1  0
 30 53  1  0
 30 54  1  0
 31 55  1  1
 32 56  1  0
 33 57  1  1
 34 58  1  0
 34 59  1  0
 34 60  1  0
 36 61  1  0
 36 62  1  0
M  CHG  1  30   1
M  END
>  <meeko>  (7) 
{"is_sidechain": [false], "free_energy": -8.311, "intermolecular_energy": -10.604, "internal_energy": -1.196}

$$$$
3arq_ligand
     RDKit          3D

 62 66  0  0  0  0  0  0  0  0999 V2000
   15.4050   -6.4130   25.2450 C   0  0  0  0  0  0  0  0  0  0  0  0
   16.1430   -5.9730   24.0050 C   0  0  0  0  0  0  0  0  0  0  0  0
   15.7280   -5.0330   23.3260 O   0  0  0  0  0  0  0  0  0  0  0  0
   17.4040   -6.7700   23.6010 C   0  0  2  0  0  0  0  0  0  0  0  0
   18.2860   -5.9520   22.8310 O   0  0  0  0  0  0  0  0  0  0  0  0
   17.0100   -7.9990   22.7490 C   0  0  0  0  0  0  0  0  0  0  0  0
   18.1440   -8.9810   22.6020 C   0  0  0  0  0  0  0  0  0  0  0  0
   19.1760   -9.0320   23.4550 C   0  0  0  0  0  0  0  0  0  0  0  0
   20.2080  -10.0720   23.2450 C   0  0  0  0  0  0  0  0  0  0  0  0
   20.9050  -10.4770   24.1680 O   0  0  0  0  0  0  0  0  0  0  0  0
   20.4100  -10.5490   21.8590 C   0  0  0  0  0  0  0  0  0  0  0  0
   21.7500  -11.0490   21.4490 C   0  0  0  0  0  0  0  0  0  0  0  0
   22.7630  -10.7990   22.1010 O   0  0  0  0  0  0  0  0  0  0  0  0
   21.8220  -11.8230   20.1990 C   0  0  0  0  0  0  0  0  0  0  0  0
   22.9690  -12.5670   19.8980 C   0  0  0  0  0  0  0  0  0  0  0  0
   23.0390  -13.2770   18.6990 C   0  0  0  0  0  0  0  0  0  0  0  0
   21.9730  -13.2380   17.7990 C   0  0  0  0  0  0  0  0  0  0  0  0
   20.8340  -12.4890   18.0950 C   0  0  0  0  0  0  0  0  0  0  0  0
   20.7570  -11.7840   19.3020 C   0  0  0  0  0  0  0  0  0  0  0  0
   19.5670  -10.9670   19.6010 C   0  0  0  0  0  0  0  0  0  0  0  0
   18.7920  -10.6720   18.7040 O   0  0  0  0  0  0  0  0  0  0  0  0
   19.3880  -10.4910   20.9950 C   0  0  0  0  0  0  0  0  0  0  0  0
   18.0910   -9.9170   21.4480 C   0  0  0  0  0  0  0  0  0  0  0  0
   17.0250  -10.1780   20.9140 O   0  0  0  0  0  0  0  0  0  0  0  0
   19.3430   -8.1120   24.6360 C   0  0  1  0  0  0  0  0  0  0  0  0
   20.4890   -7.2880   24.3560 O   0  0  0  0  0  0  0  0  0  0  0  0
   20.8030   -6.3270   25.3660 C   0  0  1  0  0  0  0  0  0  0  0  0
   20.7590   -6.9750   26.7410 C   0  0  0  0  0  0  0  0  0  0  0  0
   21.7410   -8.1450   26.7070 C   0  0  2  0  0  0  0  0  0  0  0  0
   21.6610   -8.8860   27.9950 N   0  0  0  0  0  0  0  0  0  0  0  0
   23.1670   -7.6380   26.4670 C   0  0  2  0  0  0  0  0  0  0  0  0
   23.5540   -6.9340   27.6570 O   0  0  0  0  0  0  0  0  0  0  0  0
   23.1670   -6.7810   25.1770 C   0  0  2  0  0  0  0  0  0  0  0  0
   24.4800   -6.0400   24.9570 C   0  0  0  0  0  0  0  0  0  0  0  0
   22.1190   -5.8000   25.1750 O   0  0  0  0  0  0  0  0  0  0  0  0
   18.1190   -7.2170   24.8910 C   0  0  0  0  0  0  0  0  0  0  0  0
   15.9578   -6.0834   26.1371 H   0  0  0  0  0  0  0  0  0  0  0  0
   14.3996   -5.9668   25.2511 H   0  0  0  0  0  0  0  0  0  0  0  0
   15.3195   -7.5097   25.2511 H   0  0  0  0  0  0  0  0  0  0  0  0
   19.1060   -5.8180   23.3440 H   0  0  0  0  0  0  0  0  0  0  0  0
   16.1625   -8.5072   23.2321 H   0  0  0  0  0  0  0  0  0  0  0  0
   16.7436   -7.6400   21.7439 H   0  0  0  0  0  0  0  0  0  0  0  0
   23.8120  -12.5917   20.6042 H   0  0  0  0  0  0  0  0  0  0  0  0
   23.9358  -13.8685   18.4626 H   0  0  0  0  0  0  0  0  0  0  0  0
   22.0311  -13.7989   16.8545 H   0  0  0  0  0  0  0  0  0  0  0  0
   19.9978  -12.4524   17.3812 H   0  0  0  0  0  0  0  0  0  0  0  0
   19.4665   -8.7199   25.5444 H   0  0  0  0  0  0  0  0  0  0  0  0
   20.0600   -5.5189   25.2953 H   0  0  0  0  0  0  0  0  0  0  0  0
   21.0599   -6.2499   27.5115 H   0  0  0  0  0  0  0  0  0  0  0  0
   19.7427   -7.3186   26.9840 H   0  0  0  0  0  0  0  0  0  0  0  0
   21.4765   -8.8214   25.8809 H   0  0  0  0  0  0  0  0  0  0  0  0
   21.2260   -9.8080   27.8610 H   0  0  0  0  0  0  0  0  0  0  0  0
   22.6090   -9.0940   28.3480 H   0  0  0  0  0  0  0  0  0  0  0  0
   21.1350   -8.3370   28.6880 H   0  0  0  0  0  0  0  0  0  0  0  0
   23.9059   -8.4348   26.2965 H   0  0  0  0  0  0  0  0  0  0  0  0
   22.8050   -6.3790   27.9500 H   0  0  0  0  0  0  0  0  0  0  0  0
   23.0116   -7.5081   24.3664 H   0  0  0  0  0  0  0  0  0  0  0  0
   24.9264   -5.7881   25.9303 H   0  0  0  0  0  0  0  0  0  0  0  0
   25.1722   -6.6807   24.3909 H   0  0  0  0  0  0  0  0  0  0  0  0
   24.2893   -5.1163   24.3909 H   0  0  0  0  0  0  0  0  0  0  0  0
   17.4021   -7.7759   25.5105 H   0  0  0  0  0  0  0  0  0  0  0  0
   18.4824   -6.3071   25.3910 H   0  0  0  0  0  0  0  0  0  0  0  0
  1  2  1  0
  2  3  2  0
  2  4  1  0
  4  5  1  6
  4  6  1  0
  6  7  1  0
  7  8  2  0
  8  9  1  0
  9 10  2  0
  9 11  1  0
 11 12  1  0
 12 13  2  0
 12 14  1  0
 14 15  2  0
 15 16  1  0
 16 17  2  0
 17 18  1  0
 18 19  2  0
 19 20  1  0
 20 21  2  0
 20 22  1  0
 22 23  1  0
 23 24  2  0
  8 25  1  0
 25 26  1  0
 26 27  1  0
 27 28  1  0
 28 29  1  0
 29 30  1  0
 29 31  1  0
 31 32  1  0
 31 33  1  0
 33 34  1  0
 33 35  1  0
 25 36  1  0
 36  4  1  0
 23  7  1  0
 35 27  1  0
 22 11  2  0
 19 14  1  0
  1 37  1  0
  1 38  1  0
  1 39  1  0
  5 40  1  0
  6 41  1  0
  6 42  1  0
 15 43  1  0
 16 44  1  0
 17 45  1  0
 18 46  1  0
 25 47  1  1
 27 48  1  1
 28 49  1  0
 28 50  1  0
 29 51  1  6
 30 52  1  0
 30 53  1  0
 30 54  1  0
 31 55  1  6
 32 56  1  0
 33 57  1  6
 34 58  1  0
 34 59  1  0
 34 60  1  0
 36 61  1  0
 36 62  1  0
M  CHG  1  30   1
M  END
>  <meeko>  (8) 
{"is_sidechain": [false], "free_energy": -7.916, "intermolecular_energy": -10.848, "internal_energy": -0.452}

$$$$
3arq_ligand
     RDKit          3D

 62 66  0  0  0  0  0  0  0  0999 V2000
   24.0150  -10.9300   22.5980 C   0  0  0  0  0  0  0  0  0  0  0  0
   24.3660  -11.1700   21.1500 C   0  0  0  0  0  0  0  0  0  0  0  0
   25.4670  -10.8410   20.7070 O   0  0  0  0  0  0  0  0  0  0  0  0
   23.2820  -11.7960   20.2450 C   0  0  2  0  0  0  0  0  0  0  0  0
   23.3570  -11.2490   18.9270 O   0  0  0  0  0  0  0  0  0  0  0  0
   21.8750  -11.5050   20.8140 C   0  0  0  0  0  0  0  0  0  0  0  0
   20.8090  -12.3510   20.1680 C   0  0  0  0  0  0  0  0  0  0  0  0
   21.0770  -13.5060   19.5430 C   0  0  0  0  0  0  0  0  0  0  0  0
   19.9460  -14.2820   18.9900 C   0  0  0  0  0  0  0  0  0  0  0  0
   20.0250  -15.4940   18.8160 O   0  0  0  0  0  0  0  0  0  0  0  0
   18.7410  -13.5240   18.5880 C   0  0  0  0  0  0  0  0  0  0  0  0
   17.8790  -14.0500   17.4950 C   0  0  0  0  0  0  0  0  0  0  0  0
   18.2790  -14.9070   16.7090 O   0  0  0  0  0  0  0  0  0  0  0  0
   16.5340  -13.4660   17.3620 C   0  0  0  0  0  0  0  0  0  0  0  0
   15.5710  -14.0960   16.5650 C   0  0  0  0  0  0  0  0  0  0  0  0
   14.3060  -13.5220   16.4260 C   0  0  0  0  0  0  0  0  0  0  0  0
   14.0070  -12.3210   17.0710 C   0  0  0  0  0  0  0  0  0  0  0  0
   14.9710  -11.6900   17.8580 C   0  0  0  0  0  0  0  0  0  0  0  0
   16.2370  -12.2680   18.0070 C   0  0  0  0  0  0  0  0  0  0  0  0
   17.2660  -11.5850   18.8130 C   0  0  0  0  0  0  0  0  0  0  0  0
   17.1250  -10.4070   19.1060 O   0  0  0  0  0  0  0  0  0  0  0  0
   18.4700  -12.3620   19.1980 C   0  0  0  0  0  0  0  0  0  0  0  0
   19.4080  -11.8560   20.2370 C   0  0  0  0  0  0  0  0  0  0  0  0
   19.0750  -11.0690   21.1080 O   0  0  0  0  0  0  0  0  0  0  0  0
   22.4600  -14.0820   19.3890 C   0  0  1  0  0  0  0  0  0  0  0  0
   22.7730  -14.0310   17.9860 O   0  0  0  0  0  0  0  0  0  0  0  0
   24.0390  -14.5890   17.6280 C   0  0  1  0  0  0  0  0  0  0  0  0
   23.8690  -16.0340   17.1820 C   0  0  0  0  0  0  0  0  0  0  0  0
   22.8750  -16.0220   16.0230 C   0  0  2  0  0  0  0  0  0  0  0  0
   22.5860  -17.4230   15.6140 N   0  0  0  0  0  0  0  0  0  0  0  0
   23.4400  -15.2250   14.8430 C   0  0  2  0  0  0  0  0  0  0  0  0
   24.5310  -15.9950   14.3160 O   0  0  0  0  0  0  0  0  0  0  0  0
   23.8270  -13.8140   15.3510 C   0  0  2  0  0  0  0  0  0  0  0  0
   24.6060  -13.0050   14.3210 C   0  0  0  0  0  0  0  0  0  0  0  0
   24.6250  -13.8650   16.5420 O   0  0  0  0  0  0  0  0  0  0  0  0
   23.5320  -13.3150   20.1810 C   0  0  0  0  0  0  0  0  0  0  0  0
   24.7511  -11.4333   23.2420 H   0  0  0  0  0  0  0  0  0  0  0  0
   24.0260   -9.8495   22.8037 H   0  0  0  0  0  0  0  0  0  0  0  0
   23.0121  -11.3323   22.8037 H   0  0  0  0  0  0  0  0  0  0  0  0
   22.6820  -10.5480   18.8470 H   0  0  0  0  0  0  0  0  0  0  0  0
   21.8817  -11.7094   21.8948 H   0  0  0  0  0  0  0  0  0  0  0  0
   21.6397  -10.4510   20.6050 H   0  0  0  0  0  0  0  0  0  0  0  0
   15.8098  -15.0386   16.0508 H   0  0  0  0  0  0  0  0  0  0  0  0
   13.5435  -14.0173   15.8069 H   0  0  0  0  0  0  0  0  0  0  0  0
   13.0095  -11.8711   16.9587 H   0  0  0  0  0  0  0  0  0  0  0  0
   14.7364  -10.7400   18.3604 H   0  0  0  0  0  0  0  0  0  0  0  0
   22.4640  -15.1066   19.7893 H   0  0  0  0  0  0  0  0  0  0  0  0
   24.6887  -14.5304   18.5137 H   0  0  0  0  0  0  0  0  0  0  0  0
   24.8340  -16.4440   16.8494 H   0  0  0  0  0  0  0  0  0  0  0  0
   23.5055  -16.6627   18.0082 H   0  0  0  0  0  0  0  0  0  0  0  0
   21.9421  -15.5370   16.3463 H   0  0  0  0  0  0  0  0  0  0  0  0
   23.4460  -17.9860   15.6030 H   0  0  0  0  0  0  0  0  0  0  0  0
   21.9820  -17.8840   16.3130 H   0  0  0  0  0  0  0  0  0  0  0  0
   22.1350  -17.4360   14.6890 H   0  0  0  0  0  0  0  0  0  0  0  0
   22.7228  -15.0621   14.0250 H   0  0  0  0  0  0  0  0  0  0  0  0
   24.8450  -16.6080   15.0100 H   0  0  0  0  0  0  0  0  0  0  0  0
   22.8636  -13.3242   15.5556 H   0  0  0  0  0  0  0  0  0  0  0  0
   25.2797  -12.3054   14.8375 H   0  0  0  0  0  0  0  0  0  0  0  0
   25.1973  -13.6858   13.6910 H   0  0  0  0  0  0  0  0  0  0  0  0
   23.9034  -12.4398   13.6910 H   0  0  0  0  0  0  0  0  0  0  0  0
   23.5529  -13.7077   21.2083 H   0  0  0  0  0  0  0  0  0  0  0  0
   24.4879  -13.4630   19.6572 H   0  0  0  0  0  0  0  0  0  0  0  0
  1  2  1  0
  2  3  2  0
  2  4  1  0
  4  5  1  6
  4  6  1  0
  6  7  1  0
  7  8  2  0
  8  9  1  0
  9 10  2  0
  9 11  1  0
 11 12  1  0
 12 13  2  0
 12 14  1  0
 14 15  2  0
 15 16  1  0
 16 17  2  0
 17 18  1  0
 18 19  2  0
 19 20  1  0
 20 21  2  0
 20 22  1  0
 22 23  1  0
 23 24  2  0
  8 25  1  0
 25 26  1  0
 26 27  1  0
 27 28  1  0
 28 29  1  0
 29 30  1  0
 29 31  1  0
 31 32  1  0
 31 33  1  0
 33 34  1  0
 33 35  1  0
 25 36  1  0
 36  4  1  0
 23  7  1  0
 35 27  1  0
 22 11  2  0
 19 14  1  0
  1 37  1  0
  1 38  1  0
  1 39  1  0
  5 40  1  0
  6 41  1  0
  6 42  1  0
 15 43  1  0
 16 44  1  0
 17 45  1  0
 18 46  1  0
 25 47  1  1
 27 48  1  1
 28 49  1  0
 28 50  1  0
 29 51  1  1
 30 52  1  0
 30 53  1  0
 30 54  1  0
 31 55  1  6
 32 56  1  0
 33 57  1  1
 34 58  1  0
 34 59  1  0
 34 60  1  0
 36 61  1  0
 36 62  1  0
M  CHG  1  30   1
M  END
>  <meeko>  (9) 
{"is_sidechain": [false], "free_energy": -7.912, "intermolecular_energy": -10.241, "internal_energy": -1.054}

$$$$
