3d6q_ligand
     RDKit          3D

 44 46  0  0  0  0  0  0  0  0999 V2000
   36.1450    7.6940   14.3050 O   0  0  0  0  0  0  0  0  0  0  0  0
   36.5930    6.5860   14.0420 C   0  0  0  0  0  0  0  0  0  0  0  0
   37.9300    6.4250   13.4550 C   0  0  0  0  0  0  0  0  0  0  0  0
   38.3680    5.1960   13.1720 C   0  0  0  0  0  0  0  0  0  0  0  0
   37.6040    4.0680   13.4150 N   0  0  0  0  0  0  0  0  0  0  0  0
   38.1400    2.7530   13.0670 C   0  0  2  0  0  0  0  0  0  0  0  0
   37.0920    1.9620   12.4730 O   0  0  0  0  0  0  0  0  0  0  0  0
   37.1700    0.6210   12.9960 C   0  0  1  0  0  0  0  0  0  0  0  0
   37.9400   -0.2680   11.9980 C   0  0  0  0  0  0  0  0  0  0  0  0
   37.2770   -1.6420   11.8060 N   0  0  0  0  0  0  0  0  0  0  0  0
   35.8110   -1.4620   11.4670 C   0  0  0  0  0  0  0  0  0  0  0  0
   35.1770   -2.8100   11.1580 C   0  0  0  0  0  0  0  0  0  0  0  0
   35.3470   -3.7820   12.3160 C   0  0  0  0  0  0  0  0  0  0  0  0
   36.8160   -3.9270   12.6850 C   0  0  0  0  0  0  0  0  0  0  0  0
   37.4750   -2.5840   12.9770 C   0  0  0  0  0  0  0  0  0  0  0  0
   37.8930    0.7070   14.3400 C   0  0  2  0  0  0  0  0  0  0  0  0
   36.9600    0.8030   15.4090 O   0  0  0  0  0  0  0  0  0  0  0  0
   38.7680    1.9440   14.2210 C   0  0  1  0  0  0  0  0  0  0  0  0
   40.0830    1.5130   13.8240 O   0  0  0  0  0  0  0  0  0  0  0  0
   36.3390    4.1660   13.9780 C   0  0  0  0  0  0  0  0  0  0  0  0
   35.6300    3.1920   14.2260 O   0  0  0  0  0  0  0  0  0  0  0  0
   35.9030    5.4310   14.2640 N   0  0  0  0  0  0  0  0  0  0  0  0
   38.5604    7.3033   13.2518 H   0  0  0  0  0  0  0  0  0  0  0  0
   39.3687    5.0761   12.7313 H   0  0  0  0  0  0  0  0  0  0  0  0
   38.9687    2.9627   12.3747 H   0  0  0  0  0  0  0  0  0  0  0  0
   36.1740    0.1760   13.1376 H   0  0  0  0  0  0  0  0  0  0  0  0
   37.9792    0.2445   11.0255 H   0  0  0  0  0  0  0  0  0  0  0  0
   38.9478   -0.4355   12.4057 H   0  0  0  0  0  0  0  0  0  0  0  0
   37.7280   -2.0830   10.9910 H   0  0  0  0  0  0  0  0  0  0  0  0
   35.2932   -1.0039   12.3226 H   0  0  0  0  0  0  0  0  0  0  0  0
   35.7226   -0.8115   10.5843 H   0  0  0  0  0  0  0  0  0  0  0  0
   34.1034   -2.6652   10.9670 H   0  0  0  0  0  0  0  0  0  0  0  0
   35.6771   -3.2334   10.2744 H   0  0  0  0  0  0  0  0  0  0  0  0
   34.7911   -3.4061   13.1876 H   0  0  0  0  0  0  0  0  0  0  0  0
   34.9599   -4.7657   12.0119 H   0  0  0  0  0  0  0  0  0  0  0  0
   36.8948   -4.5616   13.5800 H   0  0  0  0  0  0  0  0  0  0  0  0
   37.3356   -4.3769   11.8261 H   0  0  0  0  0  0  0  0  0  0  0  0
   37.0223   -2.1447   13.8781 H   0  0  0  0  0  0  0  0  0  0  0  0
   38.5523   -2.7384   13.1371 H   0  0  0  0  0  0  0  0  0  0  0  0
   38.4929   -0.1876   14.5632 H   0  0  0  0  0  0  0  0  0  0  0  0
   36.7110   -0.1020   15.7070 H   0  0  0  0  0  0  0  0  0  0  0  0
   38.8363    2.5245   15.1529 H   0  0  0  0  0  0  0  0  0  0  0  0
   40.0170    0.5580   13.6220 H   0  0  0  0  0  0  0  0  0  0  0  0
   34.9840    5.5240   14.6710 H   0  0  0  0  0  0  0  0  0  0  0  0
  1  2  2  0
  2  3  1  0
  3  4  2  0
  4  5  1  0
  5  6  1  0
  6  7  1  0
  7  8  1  0
  8  9  1  0
  9 10  1  0
 10 11  1  0
 11 12  1  0
 12 13  1  0
 13 14  1  0
 14 15  1  0
  8 16  1  0
 16 17  1  0
 16 18  1  0
 18 19  1  0
  5 20  1  0
 20 21  2  0
 20 22  1  0
 22  2  1  0
 18  6  1  0
 15 10  1  0
  3 23  1  0
  4 24  1  0
  6 25  1  6
  8 26  1  1
  9 27  1  0
  9 28  1  0
 10 29  1  0
 11 30  1  0
 11 31  1  0
 12 32  1  0
 12 33  1  0
 13 34  1  0
 13 35  1  0
 14 36  1  0
 14 37  1  0
 15 38  1  0
 15 39  1  0
 16 40  1  1
 17 41  1  0
 18 42  1  1
 19 43  1  0
 22 44  1  0
M  CHG  1  10   1
M  END
>  <meeko>  (1) 
{"is_sidechain": [false], "free_energy": -6.82, "intermolecular_energy": -8.415, "internal_energy": -0.099}

$$$$
3d6q_ligand
     RDKit          3D

 44 46  0  0  0  0  0  0  0  0999 V2000
   35.8770    4.6160   13.8700 O   0  0  0  0  0  0  0  0  0  0  0  0
   36.3330    3.4810   13.8780 C   0  0  0  0  0  0  0  0  0  0  0  0
   36.8080    2.8590   15.1220 C   0  0  0  0  0  0  0  0  0  0  0  0
   37.3120    1.6230   15.0760 C   0  0  0  0  0  0  0  0  0  0  0  0
   37.4000    0.9070   13.8950 N   0  0  0  0  0  0  0  0  0  0  0  0
   37.9770   -0.4360   13.9140 C   0  0  2  0  0  0  0  0  0  0  0  0
   36.9420   -1.3960   13.6270 O   0  0  0  0  0  0  0  0  0  0  0  0
   37.0970   -2.5240   14.5100 C   0  0  1  0  0  0  0  0  0  0  0  0
   37.8640   -3.6420   13.7740 C   0  0  0  0  0  0  0  0  0  0  0  0
   36.9220   -4.6610   13.1140 N   0  0  0  0  0  0  0  0  0  0  0  0
   35.4870   -4.3570   13.4930 C   0  0  0  0  0  0  0  0  0  0  0  0
   34.5410   -5.2850   12.7490 C   0  0  0  0  0  0  0  0  0  0  0  0
   34.8710   -6.7470   13.0170 C   0  0  0  0  0  0  0  0  0  0  0  0
   36.3250   -7.0400   12.6770 C   0  0  0  0  0  0  0  0  0  0  0  0
   37.2880   -6.1040   13.3980 C   0  0  0  0  0  0  0  0  0  0  0  0
   37.8670   -2.0300   15.7340 C   0  0  2  0  0  0  0  0  0  0  0  0
   36.9720   -1.6550   16.7750 O   0  0  0  0  0  0  0  0  0  0  0  0
   38.6830   -0.8560   15.2200 C   0  0  1  0  0  0  0  0  0  0  0  0
   39.9980   -1.3450   14.9000 O   0  0  0  0  0  0  0  0  0  0  0  0
   36.9550    1.4460   12.6950 C   0  0  0  0  0  0  0  0  0  0  0  0
   36.9990    0.8430   11.6240 O   0  0  0  0  0  0  0  0  0  0  0  0
   36.4400    2.7120   12.7570 N   0  0  0  0  0  0  0  0  0  0  0  0
   36.7493    3.4030   16.0762 H   0  0  0  0  0  0  0  0  0  0  0  0
   37.6688    1.1590   16.0073 H   0  0  0  0  0  0  0  0  0  0  0  0
   38.7674   -0.4120   13.1493 H   0  0  0  0  0  0  0  0  0  0  0  0
   36.1273   -2.9380   14.8236 H   0  0  0  0  0  0  0  0  0  0  0  0
   38.4926   -3.1857   12.9951 H   0  0  0  0  0  0  0  0  0  0  0  0
   38.4709   -4.1787   14.5180 H   0  0  0  0  0  0  0  0  0  0  0  0
   37.0030   -4.5300   12.0950 H   0  0  0  0  0  0  0  0  0  0  0  0
   35.3590   -4.4996   14.5762 H   0  0  0  0  0  0  0  0  0  0  0  0
   35.2565   -3.3161   13.2220 H   0  0  0  0  0  0  0  0  0  0  0  0
   33.5107   -5.0846   13.0782 H   0  0  0  0  0  0  0  0  0  0  0  0
   34.6499   -5.0979   11.6705 H   0  0  0  0  0  0  0  0  0  0  0  0
   34.6971   -6.9676   14.0805 H   0  0  0  0  0  0  0  0  0  0  0  0
   34.2260   -7.3770   12.3868 H   0  0  0  0  0  0  0  0  0  0  0  0
   36.5544   -8.0758   12.9676 H   0  0  0  0  0  0  0  0  0  0  0  0
   36.4547   -6.8880   11.5953 H   0  0  0  0  0  0  0  0  0  0  0  0
   37.2312   -6.2874   14.4811 H   0  0  0  0  0  0  0  0  0  0  0  0
   38.3105   -6.2934   13.0395 H   0  0  0  0  0  0  0  0  0  0  0  0
   38.5128   -2.8029   16.1761 H   0  0  0  0  0  0  0  0  0  0  0  0
   36.0970   -1.4250   16.3850 H   0  0  0  0  0  0  0  0  0  0  0  0
   38.7627   -0.0280   15.9398 H   0  0  0  0  0  0  0  0  0  0  0  0
   40.1300   -1.1940   13.9430 H   0  0  0  0  0  0  0  0  0  0  0  0
   36.1150    3.1230   11.8950 H   0  0  0  0  0  0  0  0  0  0  0  0
  1  2  2  0
  2  3  1  0
  3  4  2  0
  4  5  1  0
  5  6  1  0
  6  7  1  0
  7  8  1  0
  8  9  1  0
  9 10  1  0
 10 11  1  0
 11 12  1  0
 12 13  1  0
 13 14  1  0
 14 15  1  0
  8 16  1  0
 16 17  1  0
 16 18  1  0
 18 19  1  0
  5 20  1  0
 20 21  2  0
 20 22  1  0
 22  2  1  0
 18  6  1  0
 15 10  1  0
  3 23  1  0
  4 24  1  0
  6 25  1  6
  8 26  1  1
  9 27  1  0
  9 28  1  0
 10 29  1  0
 11 30  1  0
 11 31  1  0
 12 32  1  0
 12 33  1  0
 13 34  1  0
 13 35  1  0
 14 36  1  0
 14 37  1  0
 15 38  1  0
 15 39  1  0
 16 40  1  1
 17 41  1  0
 18 42  1  1
 19 43  1  0
 22 44  1  0
M  CHG  1  10   1
M  END
>  <meeko>  (2) 
{"is_sidechain": [false], "free_energy": -6.446, "intermolecular_energy": -7.646, "internal_energy": -0.406}

$$$$
3d6q_ligand
     RDKit          3D

 44 46  0  0  0  0  0  0  0  0999 V2000
   34.8430   -4.1540   11.3460 O   0  0  0  0  0  0  0  0  0  0  0  0
   35.4830   -3.2230   11.8160 C   0  0  0  0  0  0  0  0  0  0  0  0
   35.1220   -1.8280   11.5280 C   0  0  0  0  0  0  0  0  0  0  0  0
   35.8600   -0.8470   12.0530 C   0  0  0  0  0  0  0  0  0  0  0  0
   36.9540   -1.1010   12.8620 N   0  0  0  0  0  0  0  0  0  0  0  0
   37.7270    0.0210   13.3910 C   0  0  2  0  0  0  0  0  0  0  0  0
   37.5250    0.1000   14.8150 O   0  0  0  0  0  0  0  0  0  0  0  0
   37.3620    1.4840   15.1850 C   0  0  1  0  0  0  0  0  0  0  0  0
   38.7120    2.0360   15.6890 C   0  0  0  0  0  0  0  0  0  0  0  0
   38.8220    1.9990   17.2220 N   0  0  0  0  0  0  0  0  0  0  0  0
   39.6380    0.7960   17.6510 C   0  0  0  0  0  0  0  0  0  0  0  0
   39.8520    0.8200   19.1560 C   0  0  0  0  0  0  0  0  0  0  0  0
   38.5280    0.8680   19.9050 C   0  0  0  0  0  0  0  0  0  0  0  0
   37.6910    2.0510   19.4410 C   0  0  0  0  0  0  0  0  0  0  0  0
   37.4830    2.0570   17.9310 C   0  0  0  0  0  0  0  0  0  0  0  0
   36.8880    2.2260   13.9360 C   0  0  2  0  0  0  0  0  0  0  0  0
   35.4680    2.3230   13.9160 O   0  0  0  0  0  0  0  0  0  0  0  0
   37.4290    1.4050   12.7770 C   0  0  1  0  0  0  0  0  0  0  0  0
   38.6680    2.0040   12.3580 O   0  0  0  0  0  0  0  0  0  0  0  0
   37.3290   -2.4010   13.1730 C   0  0  0  0  0  0  0  0  0  0  0  0
   38.2830   -2.6760   13.8990 O   0  0  0  0  0  0  0  0  0  0  0  0
   36.5630   -3.3960   12.6300 N   0  0  0  0  0  0  0  0  0  0  0  0
   34.2569   -1.5955   10.8896 H   0  0  0  0  0  0  0  0  0  0  0  0
   35.5898    0.1969   11.8356 H   0  0  0  0  0  0  0  0  0  0  0  0
   38.7683   -0.2013   13.1147 H   0  0  0  0  0  0  0  0  0  0  0  0
   36.6279    1.6103   15.9945 H   0  0  0  0  0  0  0  0  0  0  0  0
   39.5239    1.4295   15.2614 H   0  0  0  0  0  0  0  0  0  0  0  0
   38.7854    3.0867   15.3717 H   0  0  0  0  0  0  0  0  0  0  0  0
   39.3450    2.8400   17.5060 H   0  0  0  0  0  0  0  0  0  0  0  0
   39.1027   -0.1242   17.3742 H   0  0  0  0  0  0  0  0  0  0  0  0
   40.6156    0.8259   17.1477 H   0  0  0  0  0  0  0  0  0  0  0  0
   40.3991   -0.0866   19.4541 H   0  0  0  0  0  0  0  0  0  0  0  0
   40.4258    1.7236   19.4095 H   0  0  0  0  0  0  0  0  0  0  0  0
   37.9729   -0.0630   19.7174 H   0  0  0  0  0  0  0  0  0  0  0  0
   38.7332    0.9795   20.9799 H   0  0  0  0  0  0  0  0  0  0  0  0
   36.7083    2.0035   19.9331 H   0  0  0  0  0  0  0  0  0  0  0  0
   38.2313    2.9708   19.7095 H   0  0  0  0  0  0  0  0  0  0  0  0
   36.8803    1.1830   17.6430 H   0  0  0  0  0  0  0  0  0  0  0  0
   36.9617    2.9816   17.6423 H   0  0  0  0  0  0  0  0  0  0  0  0
   37.2475    3.2647   13.8918 H   0  0  0  0  0  0  0  0  0  0  0  0
   35.1300    1.9810   13.0560 H   0  0  0  0  0  0  0  0  0  0  0  0
   36.7410    1.3462   11.9208 H   0  0  0  0  0  0  0  0  0  0  0  0
   38.5750    2.9680   12.4930 H   0  0  0  0  0  0  0  0  0  0  0  0
   36.8220   -4.3480   12.8410 H   0  0  0  0  0  0  0  0  0  0  0  0
  1  2  2  0
  2  3  1  0
  3  4  2  0
  4  5  1  0
  5  6  1  0
  6  7  1  0
  7  8  1  0
  8  9  1  0
  9 10  1  0
 10 11  1  0
 11 12  1  0
 12 13  1  0
 13 14  1  0
 14 15  1  0
  8 16  1  0
 16 17  1  0
 16 18  1  0
 18 19  1  0
  5 20  1  0
 20 21  2  0
 20 22  1  0
 22  2  1  0
 18  6  1  0
 15 10  1  0
  3 23  1  0
  4 24  1  0
  6 25  1  1
  8 26  1  1
  9 27  1  0
  9 28  1  0
 10 29  1  0
 11 30  1  0
 11 31  1  0
 12 32  1  0
 12 33  1  0
 13 34  1  0
 13 35  1  0
 14 36  1  0
 14 37  1  0
 15 38  1  0
 15 39  1  0
 16 40  1  1
 17 41  1  0
 18 42  1  6
 19 43  1  0
 22 44  1  0
M  CHG  1  10   1
M  END
>  <meeko>  (3) 
{"is_sidechain": [false], "free_energy": -6.427, "intermolecular_energy": -7.486, "internal_energy": -0.543}

$$$$
3d6q_ligand
     RDKit          3D

 44 46  0  0  0  0  0  0  0  0999 V2000
   42.3730    7.2330    3.6670 O   0  0  0  0  0  0  0  0  0  0  0  0
   42.2480    6.7770    4.7950 C   0  0  0  0  0  0  0  0  0  0  0  0
   41.6680    7.5800    5.8810 C   0  0  0  0  0  0  0  0  0  0  0  0
   41.5660    7.0430    7.0990 C   0  0  0  0  0  0  0  0  0  0  0  0
   41.9880    5.7530    7.3730 N   0  0  0  0  0  0  0  0  0  0  0  0
   41.8620    5.2340    8.7340 C   0  0  2  0  0  0  0  0  0  0  0  0
   40.5070    5.4230    9.1840 O   0  0  0  0  0  0  0  0  0  0  0  0
   40.5310    5.8770   10.5520 C   0  0  1  0  0  0  0  0  0  0  0  0
   40.3140    4.6720   11.4900 C   0  0  0  0  0  0  0  0  0  0  0  0
   38.9290    4.6930   12.1570 N   0  0  0  0  0  0  0  0  0  0  0  0
   38.8460    5.8460   13.1350 C   0  0  0  0  0  0  0  0  0  0  0  0
   37.4410    5.9460   13.7090 C   0  0  0  0  0  0  0  0  0  0  0  0
   37.0190    4.6430   14.3730 C   0  0  0  0  0  0  0  0  0  0  0  0
   37.1450    3.4790   13.4030 C   0  0  0  0  0  0  0  0  0  0  0  0
   38.5420    3.3760   12.8000 C   0  0  0  0  0  0  0  0  0  0  0  0
   41.8960    6.5240   10.7830 C   0  0  2  0  0  0  0  0  0  0  0  0
   41.8280    7.9310   10.5790 O   0  0  0  0  0  0  0  0  0  0  0  0
   42.8150    5.8380    9.7860 C   0  0  1  0  0  0  0  0  0  0  0  0
   43.4850    4.7670   10.4750 O   0  0  0  0  0  0  0  0  0  0  0  0
   42.5330    4.9510    6.3800 C   0  0  0  0  0  0  0  0  0  0  0  0
   42.9080    3.7950    6.5710 O   0  0  0  0  0  0  0  0  0  0  0  0
   42.6300    5.5130    5.1360 N   0  0  0  0  0  0  0  0  0  0  0  0
   41.3233    8.6075    5.6930 H   0  0  0  0  0  0  0  0  0  0  0  0
   41.1326    7.6449    7.9113 H   0  0  0  0  0  0  0  0  0  0  0  0
   42.1479    4.1746    8.6573 H   0  0  0  0  0  0  0  0  0  0  0  0
   39.7334    6.6062   10.7575 H   0  0  0  0  0  0  0  0  0  0  0  0
   40.4104    3.7460   10.9042 H   0  0  0  0  0  0  0  0  0  0  0  0
   41.0714    4.7248   12.2860 H   0  0  0  0  0  0  0  0  0  0  0  0
   38.2390    4.8730   11.4120 H   0  0  0  0  0  0  0  0  0  0  0  0
   39.5622    5.6809   13.9534 H   0  0  0  0  0  0  0  0  0  0  0  0
   39.0869    6.7816   12.6091 H   0  0  0  0  0  0  0  0  0  0  0  0
   37.4161    6.7530   14.4561 H   0  0  0  0  0  0  0  0  0  0  0  0
   36.7440    6.1562   12.8844 H   0  0  0  0  0  0  0  0  0  0  0  0
   37.6630    4.4573   15.2452 H   0  0  0  0  0  0  0  0  0  0  0  0
   35.9680    4.7301   14.6857 H   0  0  0  0  0  0  0  0  0  0  0  0
   36.9219    2.5453   13.9401 H   0  0  0  0  0  0  0  0  0  0  0  0
   36.4352    3.6488   12.5800 H   0  0  0  0  0  0  0  0  0  0  0  0
   39.2639    3.1323   13.5934 H   0  0  0  0  0  0  0  0  0  0  0  0
   38.5469    2.5860   12.0346 H   0  0  0  0  0  0  0  0  0  0  0  0
   42.2605    6.4007   11.8135 H   0  0  0  0  0  0  0  0  0  0  0  0
   42.7080    8.2610   10.2830 H   0  0  0  0  0  0  0  0  0  0  0  0
   43.5608    6.5123    9.3397 H   0  0  0  0  0  0  0  0  0  0  0  0
   43.5860    5.0500   11.4050 H   0  0  0  0  0  0  0  0  0  0  0  0
   43.0270    4.9480    4.4010 H   0  0  0  0  0  0  0  0  0  0  0  0
  1  2  2  0
  2  3  1  0
  3  4  2  0
  4  5  1  0
  5  6  1  0
  6  7  1  0
  7  8  1  0
  8  9  1  0
  9 10  1  0
 10 11  1  0
 11 12  1  0
 12 13  1  0
 13 14  1  0
 14 15  1  0
  8 16  1  0
 16 17  1  0
 16 18  1  0
 18 19  1  0
  5 20  1  0
 20 21  2  0
 20 22  1  0
 22  2  1  0
 18  6  1  0
 15 10  1  0
  3 23  1  0
  4 24  1  0
  6 25  1  6
  8 26  1  6
  9 27  1  0
  9 28  1  0
 10 29  1  0
 11 30  1  0
 11 31  1  0
 12 32  1  0
 12 33  1  0
 13 34  1  0
 13 35  1  0
 14 36  1  0
 14 37  1  0
 15 38  1  0
 15 39  1  0
 16 40  1  1
 17 41  1  0
 18 42  1  6
 19 43  1  0
 22 44  1  0
M  CHG  1  10   1
M  END
>  <meeko>  (4) 
{"is_sidechain": [false], "free_energy": -6.407, "intermolecular_energy": -7.424, "internal_energy": -0.58}

$$$$
3d6q_ligand
     RDKit          3D

 44 46  0  0  0  0  0  0  0  0999 V2000
   38.3500    2.2600   20.2840 O   0  0  0  0  0  0  0  0  0  0  0  0
   38.1030    1.9980   19.1150 C   0  0  0  0  0  0  0  0  0  0  0  0
   38.0480    3.0520   18.0930 C   0  0  0  0  0  0  0  0  0  0  0  0
   37.7600    2.7170   16.8330 C   0  0  0  0  0  0  0  0  0  0  0  0
   37.5130    1.4070   16.4570 N   0  0  0  0  0  0  0  0  0  0  0  0
   37.1880    1.1130   15.0630 C   0  0  2  0  0  0  0  0  0  0  0  0
   38.3510    0.5610   14.4160 O   0  0  0  0  0  0  0  0  0  0  0  0
   38.4720    1.1410   13.1030 C   0  0  1  0  0  0  0  0  0  0  0  0
   37.8590    0.1790   12.0650 C   0  0  0  0  0  0  0  0  0  0  0  0
   37.4260   -1.1570   12.6920 N   0  0  0  0  0  0  0  0  0  0  0  0
   38.4400   -2.2340   12.3590 C   0  0  0  0  0  0  0  0  0  0  0  0
   38.0820   -3.5270   13.0740 C   0  0  0  0  0  0  0  0  0  0  0  0
   36.6740   -3.9850   12.7230 C   0  0  0  0  0  0  0  0  0  0  0  0
   35.6630   -2.8870   13.0160 C   0  0  0  0  0  0  0  0  0  0  0  0
   36.0160   -1.5750   12.3250 C   0  0  0  0  0  0  0  0  0  0  0  0
   37.7270    2.4760   13.1350 C   0  0  2  0  0  0  0  0  0  0  0  0
   38.6220    3.5450   13.4170 O   0  0  0  0  0  0  0  0  0  0  0  0
   36.6760    2.2980   14.2170 C   0  0  1  0  0  0  0  0  0  0  0  0
   35.4480    1.9120   13.5740 O   0  0  0  0  0  0  0  0  0  0  0  0
   37.5640    0.3740   17.3830 C   0  0  0  0  0  0  0  0  0  0  0  0
   37.3680   -0.8050   17.0950 O   0  0  0  0  0  0  0  0  0  0  0  0
   37.8620    0.7320   18.6700 N   0  0  0  0  0  0  0  0  0  0  0  0
   38.2411    4.1010   18.3617 H   0  0  0  0  0  0  0  0  0  0  0  0
   37.7175    3.5070   16.0688 H   0  0  0  0  0  0  0  0  0  0  0  0
   36.3465    0.4065   15.1151 H   0  0  0  0  0  0  0  0  0  0  0  0
   39.5224    1.3073   12.8217 H   0  0  0  0  0  0  0  0  0  0  0  0
   36.9786    0.6598   11.6137 H   0  0  0  0  0  0  0  0  0  0  0  0
   38.6295   -0.0374   11.3103 H   0  0  0  0  0  0  0  0  0  0  0  0
   37.4410   -1.0290   13.7140 H   0  0  0  0  0  0  0  0  0  0  0  0
   38.4430   -2.4076   11.2728 H   0  0  0  0  0  0  0  0  0  0  0  0
   39.4366   -1.9045   12.6879 H   0  0  0  0  0  0  0  0  0  0  0  0
   38.7968   -4.3091   12.7782 H   0  0  0  0  0  0  0  0  0  0  0  0
   38.1268   -3.3465   14.1582 H   0  0  0  0  0  0  0  0  0  0  0  0
   36.6327   -4.2379   11.6533 H   0  0  0  0  0  0  0  0  0  0  0  0
   36.4262   -4.8661   13.3332 H   0  0  0  0  0  0  0  0  0  0  0  0
   34.6730   -3.2155   12.6666 H   0  0  0  0  0  0  0  0  0  0  0  0
   35.6672   -2.7071   14.1012 H   0  0  0  0  0  0  0  0  0  0  0  0
   35.9477   -1.7077   11.2352 H   0  0  0  0  0  0  0  0  0  0  0  0
   35.3124   -0.7950   12.6514 H   0  0  0  0  0  0  0  0  0  0  0  0
   37.2667    2.7349   12.1701 H   0  0  0  0  0  0  0  0  0  0  0  0
   38.1060    4.3360   13.7000 H   0  0  0  0  0  0  0  0  0  0  0  0
   36.5083    3.2032   14.8190 H   0  0  0  0  0  0  0  0  0  0  0  0
   35.4920    0.9440   13.4400 H   0  0  0  0  0  0  0  0  0  0  0  0
   37.9000   -0.0040   19.3590 H   0  0  0  0  0  0  0  0  0  0  0  0
  1  2  2  0
  2  3  1  0
  3  4  2  0
  4  5  1  0
  5  6  1  0
  6  7  1  0
  7  8  1  0
  8  9  1  0
  9 10  1  0
 10 11  1  0
 11 12  1  0
 12 13  1  0
 13 14  1  0
 14 15  1  0
  8 16  1  0
 16 17  1  0
 16 18  1  0
 18 19  1  0
  5 20  1  0
 20 21  2  0
 20 22  1  0
 22  2  1  0
 18  6  1  0
 15 10  1  0
  3 23  1  0
  4 24  1  0
  6 25  1  1
  8 26  1  6
  9 27  1  0
  9 28  1  0
 10 29  1  0
 11 30  1  0
 11 31  1  0
 12 32  1  0
 12 33  1  0
 13 34  1  0
 13 35  1  0
 14 36  1  0
 14 37  1  0
 15 38  1  0
 15 39  1  0
 16 40  1  6
 17 41  1  0
 18 42  1  1
 19 43  1  0
 22 44  1  0
M  CHG  1  10   1
M  END
>  <meeko>  (5) 
{"is_sidechain": [false], "free_energy": -6.304, "intermolecular_energy": -7.291, "internal_energy": -0.586}

$$$$
3d6q_ligand
     RDKit          3D

 44 46  0  0  0  0  0  0  0  0999 V2000
   41.7250    6.2520    9.7540 O   0  0  0  0  0  0  0  0  0  0  0  0
   41.1880    5.4020   10.4520 C   0  0  0  0  0  0  0  0  0  0  0  0
   39.9930    5.7130   11.2470 C   0  0  0  0  0  0  0  0  0  0  0  0
   39.4520    4.7560   12.0050 C   0  0  0  0  0  0  0  0  0  0  0  0
   39.9810    3.4780   12.0640 N   0  0  0  0  0  0  0  0  0  0  0  0
   39.3480    2.4820   12.9280 C   0  0  2  0  0  0  0  0  0  0  0  0
   38.5990    1.5620   12.1110 O   0  0  0  0  0  0  0  0  0  0  0  0
   37.3370    1.2920   12.7540 C   0  0  1  0  0  0  0  0  0  0  0  0
   37.4440   -0.0280   13.5440 C   0  0  0  0  0  0  0  0  0  0  0  0
   36.3860   -1.0560   13.1110 N   0  0  0  0  0  0  0  0  0  0  0  0
   36.7400   -2.4230   13.6610 C   0  0  0  0  0  0  0  0  0  0  0  0
   35.6370   -3.4190   13.3380 C   0  0  0  0  0  0  0  0  0  0  0  0
   35.3760   -3.4910   11.8400 C   0  0  0  0  0  0  0  0  0  0  0  0
   35.0640   -2.1110   11.2810 C   0  0  0  0  0  0  0  0  0  0  0  0
   36.1490   -1.0930   11.6140 C   0  0  0  0  0  0  0  0  0  0  0  0
   37.0460    2.4740   13.6780 C   0  0  2  0  0  0  0  0  0  0  0  0
   36.2240    3.4340   13.0240 O   0  0  0  0  0  0  0  0  0  0  0  0
   38.4160    3.0280   14.0290 C   0  0  1  0  0  0  0  0  0  0  0  0
   38.8070    2.4580   15.2920 O   0  0  0  0  0  0  0  0  0  0  0  0
   41.1030    3.1310   11.3250 C   0  0  0  0  0  0  0  0  0  0  0  0
   41.6000    2.0060   11.3330 O   0  0  0  0  0  0  0  0  0  0  0  0
   41.6450    4.1210   10.5510 N   0  0  0  0  0  0  0  0  0  0  0  0
   39.5501    6.7195   11.2185 H   0  0  0  0  0  0  0  0  0  0  0  0
   38.5579    4.9905   12.6013 H   0  0  0  0  0  0  0  0  0  0  0  0
   40.1817    2.0042   13.4634 H   0  0  0  0  0  0  0  0  0  0  0  0
   36.5195    1.1785   12.0268 H   0  0  0  0  0  0  0  0  0  0  0  0
   38.4430   -0.4583   13.3798 H   0  0  0  0  0  0  0  0  0  0  0  0
   37.2744    0.2015   14.6063 H   0  0  0  0  0  0  0  0  0  0  0  0
   35.4960   -0.7730   13.5450 H   0  0  0  0  0  0  0  0  0  0  0  0
   37.6824   -2.7644   13.2079 H   0  0  0  0  0  0  0  0  0  0  0  0
   36.8530   -2.3531   14.7529 H   0  0  0  0  0  0  0  0  0  0  0  0
   35.9369   -4.4144   13.6974 H   0  0  0  0  0  0  0  0  0  0  0  0
   34.7137   -3.0868   13.8351 H   0  0  0  0  0  0  0  0  0  0  0  0
   36.2687   -3.8909   11.3369 H   0  0  0  0  0  0  0  0  0  0  0  0
   34.5114   -4.1477   11.6631 H   0  0  0  0  0  0  0  0  0  0  0  0
   34.9719   -2.1849   10.1874 H   0  0  0  0  0  0  0  0  0  0  0  0
   34.1262   -1.7658   11.7407 H   0  0  0  0  0  0  0  0  0  0  0  0
   37.0821   -1.3758   11.1047 H   0  0  0  0  0  0  0  0  0  0  0  0
   35.8252   -0.0976   11.2758 H   0  0  0  0  0  0  0  0  0  0  0  0
   36.4880    2.1857   14.5811 H   0  0  0  0  0  0  0  0  0  0  0  0
   36.7510    3.8980   12.3330 H   0  0  0  0  0  0  0  0  0  0  0  0
   38.4417    4.1257   14.0957 H   0  0  0  0  0  0  0  0  0  0  0  0
   39.7750    2.5720   15.3650 H   0  0  0  0  0  0  0  0  0  0  0  0
   42.4640    3.8910   10.0080 H   0  0  0  0  0  0  0  0  0  0  0  0
  1  2  2  0
  2  3  1  0
  3  4  2  0
  4  5  1  0
  5  6  1  0
  6  7  1  0
  7  8  1  0
  8  9  1  0
  9 10  1  0
 10 11  1  0
 11 12  1  0
 12 13  1  0
 13 14  1  0
 14 15  1  0
  8 16  1  0
 16 17  1  0
 16 18  1  0
 18 19  1  0
  5 20  1  0
 20 21  2  0
 20 22  1  0
 22  2  1  0
 18  6  1  0
 15 10  1  0
  3 23  1  0
  4 24  1  0
  6 25  1  1
  8 26  1  6
  9 27  1  0
  9 28  1  0
 10 29  1  0
 11 30  1  0
 11 31  1  0
 12 32  1  0
 12 33  1  0
 13 34  1  0
 13 35  1  0
 14 36  1  0
 14 37  1  0
 15 38  1  0
 15 39  1  0
 16 40  1  1
 17 41  1  0
 18 42  1  1
 19 43  1  0
 22 44  1  0
M  CHG  1  10   1
M  END
>  <meeko>  (6) 
{"is_sidechain": [false], "free_energy": -6.286, "intermolecular_energy": -7.326, "internal_energy": -0.528}

$$$$
3d6q_ligand
     RDKit          3D

 44 46  0  0  0  0  0  0  0  0999 V2000
   34.5260   -4.9180   12.4690 O   0  0  0  0  0  0  0  0  0  0  0  0
   35.1660   -3.8760   12.4440 C   0  0  0  0  0  0  0  0  0  0  0  0
   36.1390   -3.5540   13.4970 C   0  0  0  0  0  0  0  0  0  0  0  0
   36.8030   -2.3970   13.4330 C   0  0  0  0  0  0  0  0  0  0  0  0
   36.6060   -1.4910   12.4050 N   0  0  0  0  0  0  0  0  0  0  0  0
   37.3560   -0.2360   12.4050 C   0  0  2  0  0  0  0  0  0  0  0  0
   38.6070   -0.4370   13.0910 O   0  0  0  0  0  0  0  0  0  0  0  0
   38.8620    0.7030   13.9350 C   0  0  1  0  0  0  0  0  0  0  0  0
   39.8100    1.6740   13.2020 C   0  0  0  0  0  0  0  0  0  0  0  0
   39.4420    3.1470   13.4470 N   0  0  0  0  0  0  0  0  0  0  0  0
   39.6120    3.9390   12.1670 C   0  0  0  0  0  0  0  0  0  0  0  0
   39.1350    5.3690   12.3700 C   0  0  0  0  0  0  0  0  0  0  0  0
   39.8690    6.0410   13.5220 C   0  0  0  0  0  0  0  0  0  0  0  0
   39.7350    5.2200   14.7970 C   0  0  0  0  0  0  0  0  0  0  0  0
   40.1870    3.7770   14.6070 C   0  0  0  0  0  0  0  0  0  0  0  0
   37.5100    1.3550   14.2250 C   0  0  2  0  0  0  0  0  0  0  0  0
   36.9740    0.8780   15.4530 O   0  0  0  0  0  0  0  0  0  0  0  0
   36.6460    0.9820   13.0310 C   0  0  1  0  0  0  0  0  0  0  0  0
   36.6940    2.0770   12.0990 O   0  0  0  0  0  0  0  0  0  0  0  0
   35.7070   -1.7530   11.3810 C   0  0  0  0  0  0  0  0  0  0  0  0
   35.5080   -0.9860   10.4400 O   0  0  0  0  0  0  0  0  0  0  0  0
   35.0340   -2.9420   11.4580 N   0  0  0  0  0  0  0  0  0  0  0  0
   36.3178   -4.2553   14.3254 H   0  0  0  0  0  0  0  0  0  0  0  0
   37.5299   -2.1562   14.2227 H   0  0  0  0  0  0  0  0  0  0  0  0
   37.4826    0.0152   11.3416 H   0  0  0  0  0  0  0  0  0  0  0  0
   39.3464    0.4156   14.8798 H   0  0  0  0  0  0  0  0  0  0  0  0
   40.8365    1.5021   13.5580 H   0  0  0  0  0  0  0  0  0  0  0  0
   39.7207    1.4803   12.1229 H   0  0  0  0  0  0  0  0  0  0  0  0
   38.4410    3.1700   13.6900 H   0  0  0  0  0  0  0  0  0  0  0  0
   40.6745    3.9468   11.8824 H   0  0  0  0  0  0  0  0  0  0  0  0
   39.0148    3.4698   11.3712 H   0  0  0  0  0  0  0  0  0  0  0  0
   39.3161    5.9410   11.4480 H   0  0  0  0  0  0  0  0  0  0  0  0
   38.0618    5.3452   12.6101 H   0  0  0  0  0  0  0  0  0  0  0  0
   40.9341    6.1370   13.2646 H   0  0  0  0  0  0  0  0  0  0  0  0
   39.4267    7.0336   13.6923 H   0  0  0  0  0  0  0  0  0  0  0  0
   40.3509    5.6830   15.5820 H   0  0  0  0  0  0  0  0  0  0  0  0
   38.6713    5.2050   15.0769 H   0  0  0  0  0  0  0  0  0  0  0  0
   41.2670    3.7583   14.3991 H   0  0  0  0  0  0  0  0  0  0  0  0
   39.9728    3.2086   15.5241 H   0  0  0  0  0  0  0  0  0  0  0  0
   37.5759    2.4463   14.3460 H   0  0  0  0  0  0  0  0  0  0  0  0
   36.7690    1.6440   16.0380 H   0  0  0  0  0  0  0  0  0  0  0  0
   35.5998    0.7684   13.2953 H   0  0  0  0  0  0  0  0  0  0  0  0
   37.2120    2.7880   12.5260 H   0  0  0  0  0  0  0  0  0  0  0  0
   34.3730   -3.1500   10.7250 H   0  0  0  0  0  0  0  0  0  0  0  0
  1  2  2  0
  2  3  1  0
  3  4  2  0
  4  5  1  0
  5  6  1  0
  6  7  1  0
  7  8  1  0
  8  9  1  0
  9 10  1  0
 10 11  1  0
 11 12  1  0
 12 13  1  0
 13 14  1  0
 14 15  1  0
  8 16  1  0
 16 17  1  0
 16 18  1  0
 18 19  1  0
  5 20  1  0
 20 21  2  0
 20 22  1  0
 22  2  1  0
 18  6  1  0
 15 10  1  0
  3 23  1  0
  4 24  1  0
  6 25  1  6
  8 26  1  1
  9 27  1  0
  9 28  1  0
 10 29  1  0
 11 30  1  0
 11 31  1  0
 12 32  1  0
 12 33  1  0
 13 34  1  0
 13 35  1  0
 14 36  1  0
 14 37  1  0
 15 38  1  0
 15 39  1  0
 16 40  1  1
 17 41  1  0
 18 42  1  1
 19 43  1  0
 22 44  1  0
M  CHG  1  10   1
M  END
>  <meeko>  (7) 
{"is_sidechain": [false], "free_energy": -6.263, "intermolecular_energy": -6.99, "internal_energy": -0.837}

$$$$
3d6q_ligand
     RDKit          3D

 44 46  0  0  0  0  0  0  0  0999 V2000
   33.8770   -6.2670   13.3810 O   0  0  0  0  0  0  0  0  0  0  0  0
   34.6450   -5.3730   13.0520 C   0  0  0  0  0  0  0  0  0  0  0  0
   35.9260   -5.1770   13.7440 C   0  0  0  0  0  0  0  0  0  0  0  0
   36.7240   -4.1770   13.3570 C   0  0  0  0  0  0  0  0  0  0  0  0
   36.3830   -3.3210   12.3250 N   0  0  0  0  0  0  0  0  0  0  0  0
   37.2960   -2.2370   11.9640 C   0  0  2  0  0  0  0  0  0  0  0  0
   38.5700   -2.4680   12.5960 O   0  0  0  0  0  0  0  0  0  0  0  0
   39.0660   -1.2160   13.1120 C   0  0  1  0  0  0  0  0  0  0  0  0
   40.0600   -0.6100   12.1000 C   0  0  0  0  0  0  0  0  0  0  0  0
   41.4570   -1.2450   12.2030 N   0  0  0  0  0  0  0  0  0  0  0  0
   41.6270   -2.2930   11.1210 C   0  0  0  0  0  0  0  0  0  0  0  0
   43.0460   -2.8390   11.1400 C   0  0  0  0  0  0  0  0  0  0  0  0
   43.4020   -3.4110   12.5050 C   0  0  0  0  0  0  0  0  0  0  0  0
   43.1890   -2.3720   13.5950 C   0  0  0  0  0  0  0  0  0  0  0  0
   41.7770   -1.7960   13.5780 C   0  0  0  0  0  0  0  0  0  0  0  0
   37.8540   -0.3070   13.3160 C   0  0  2  0  0  0  0  0  0  0  0  0
   37.3840   -0.3870   14.6570 O   0  0  0  0  0  0  0  0  0  0  0  0
   36.8300   -0.8080   12.3120 C   0  0  1  0  0  0  0  0  0  0  0  0
   36.9340    0.0130   11.1340 O   0  0  0  0  0  0  0  0  0  0  0  0
   35.1880   -3.4700   11.6340 C   0  0  0  0  0  0  0  0  0  0  0  0
   34.8490   -2.7440   10.7010 O   0  0  0  0  0  0  0  0  0  0  0  0
   34.3820   -4.4990   12.0390 N   0  0  0  0  0  0  0  0  0  0  0  0
   36.2237   -5.8427   14.5676 H   0  0  0  0  0  0  0  0  0  0  0  0
   37.6828   -4.0299   13.8758 H   0  0  0  0  0  0  0  0  0  0  0  0
   37.3467   -2.2668   10.8656 H   0  0  0  0  0  0  0  0  0  0  0  0
   39.5992   -1.3452   14.0654 H   0  0  0  0  0  0  0  0  0  0  0  0
   39.6722   -0.7711   11.0833 H   0  0  0  0  0  0  0  0  0  0  0  0
   40.1598    0.4618   12.3265 H   0  0  0  0  0  0  0  0  0  0  0  0
   42.1420   -0.4980   12.0160 H   0  0  0  0  0  0  0  0  0  0  0  0
   40.9183   -3.1157   11.2969 H   0  0  0  0  0  0  0  0  0  0  0  0
   41.4314   -1.8333   10.1410 H   0  0  0  0  0  0  0  0  0  0  0  0
   43.1339   -3.6339   10.3847 H   0  0  0  0  0  0  0  0  0  0  0  0
   43.7381   -2.0130   10.9192 H   0  0  0  0  0  0  0  0  0  0  0  0
   42.7641   -4.2838   12.7084 H   0  0  0  0  0  0  0  0  0  0  0  0
   44.4617   -3.7060   12.4996 H   0  0  0  0  0  0  0  0  0  0  0  0
   43.3669   -2.8436   14.5727 H   0  0  0  0  0  0  0  0  0  0  0  0
   43.8917   -1.5454   13.4137 H   0  0  0  0  0  0  0  0  0  0  0  0
   41.0573   -2.5891   13.8289 H   0  0  0  0  0  0  0  0  0  0  0  0
   41.7102   -0.9835   14.3165 H   0  0  0  0  0  0  0  0  0  0  0  0
   38.0834    0.7568   13.1556 H   0  0  0  0  0  0  0  0  0  0  0  0
   36.4100   -0.2420   14.6700 H   0  0  0  0  0  0  0  0  0  0  0  0
   35.7970   -0.7823   12.6893 H   0  0  0  0  0  0  0  0  0  0  0  0
   36.7110   -0.5570   10.3720 H   0  0  0  0  0  0  0  0  0  0  0  0
   33.5070   -4.6220   11.5510 H   0  0  0  0  0  0  0  0  0  0  0  0
  1  2  2  0
  2  3  1  0
  3  4  2  0
  4  5  1  0
  5  6  1  0
  6  7  1  0
  7  8  1  0
  8  9  1  0
  9 10  1  0
 10 11  1  0
 11 12  1  0
 12 13  1  0
 13 14  1  0
 14 15  1  0
  8 16  1  0
 16 17  1  0
 16 18  1  0
 18 19  1  0
  5 20  1  0
 20 21  2  0
 20 22  1  0
 22  2  1  0
 18  6  1  0
 15 10  1  0
  3 23  1  0
  4 24  1  0
  6 25  1  6
  8 26  1  1
  9 27  1  0
  9 28  1  0
 10 29  1  0
 11 30  1  0
 11 31  1  0
 12 32  1  0
 12 33  1  0
 13 34  1  0
 13 35  1  0
 14 36  1  0
 14 37  1  0
 15 38  1  0
 15 39  1  0
 16 40  1  6
 17 41  1  0
 18 42  1  1
 19 43  1  0
 22 44  1  0
M  CHG  1  10   1
M  END
>  <meeko>  (8) 
{"is_sidechain": [false], "free_energy": -6.221, "intermolecular_energy": -7.278, "internal_energy": -0.496}

$$$$
3d6q_ligand
     RDKit          3D

 44 46  0  0  0  0  0  0  0  0999 V2000
   41.0280    3.2290   11.8140 O   0  0  0  0  0  0  0  0  0  0  0  0
   41.1380    4.0430   10.9070 C   0  0  0  0  0  0  0  0  0  0  0  0
   40.5960    5.4020   11.0320 C   0  0  0  0  0  0  0  0  0  0  0  0
   40.7290    6.2490   10.0080 C   0  0  0  0  0  0  0  0  0  0  0  0
   41.3640    5.8870    8.8320 N   0  0  0  0  0  0  0  0  0  0  0  0
   41.4610    6.8600    7.7440 C   0  0  2  0  0  0  0  0  0  0  0  0
   41.4830    8.1870    8.3020 O   0  0  0  0  0  0  0  0  0  0  0  0
   40.6450    9.0430    7.5010 C   0  0  1  0  0  0  0  0  0  0  0  0
   41.5240    9.8180    6.4970 C   0  0  0  0  0  0  0  0  0  0  0  0
   40.7020   10.4240    5.3470 N   0  0  0  0  0  0  0  0  0  0  0  0
   41.6120   10.7490    4.1810 C   0  0  0  0  0  0  0  0  0  0  0  0
   40.7910   11.2360    2.9970 C   0  0  0  0  0  0  0  0  0  0  0  0
   39.9400   12.4420    3.3700 C   0  0  0  0  0  0  0  0  0  0  0  0
   39.0590   12.1270    4.5700 C   0  0  0  0  0  0  0  0  0  0  0  0
   39.8620   11.6160    5.7600 C   0  0  0  0  0  0  0  0  0  0  0  0
   39.6430    8.1390    6.7830 C   0  0  2  0  0  0  0  0  0  0  0  0
   38.4270    8.0530    7.5170 O   0  0  0  0  0  0  0  0  0  0  0  0
   40.3510    6.7990    6.6740 C   0  0  1  0  0  0  0  0  0  0  0  0
   40.9630    6.7330    5.3730 O   0  0  0  0  0  0  0  0  0  0  0  0
   41.9020    4.6190    8.6680 C   0  0  0  0  0  0  0  0  0  0  0  0
   42.4880    4.2570    7.6490 O   0  0  0  0  0  0  0  0  0  0  0  0
   41.7600    3.7620    9.7260 N   0  0  0  0  0  0  0  0  0  0  0  0
   40.0880    5.7177   11.9552 H   0  0  0  0  0  0  0  0  0  0  0  0
   40.3212    7.2663   10.1018 H   0  0  0  0  0  0  0  0  0  0  0  0
   42.3899    6.5983    7.2161 H   0  0  0  0  0  0  0  0  0  0  0  0
   40.1080    9.7831    8.1125 H   0  0  0  0  0  0  0  0  0  0  0  0
   42.0379   10.6309    7.0309 H   0  0  0  0  0  0  0  0  0  0  0  0
   42.2411    9.1077    6.0598 H   0  0  0  0  0  0  0  0  0  0  0  0
   40.0460    9.6950    5.0300 H   0  0  0  0  0  0  0  0  0  0  0  0
   42.3204   11.5354    4.4806 H   0  0  0  0  0  0  0  0  0  0  0  0
   42.1613    9.8417    3.8893 H   0  0  0  0  0  0  0  0  0  0  0  0
   41.4723   11.5174    2.1805 H   0  0  0  0  0  0  0  0  0  0  0  0
   40.1203   10.4227    2.6827 H   0  0  0  0  0  0  0  0  0  0  0  0
   40.5995   13.2868    3.6179 H   0  0  0  0  0  0  0  0  0  0  0  0
   39.2962   12.6988    2.5158 H   0  0  0  0  0  0  0  0  0  0  0  0
   38.5280   13.0428    4.8689 H   0  0  0  0  0  0  0  0  0  0  0  0
   38.3571   11.3339    4.2727 H   0  0  0  0  0  0  0  0  0  0  0  0
   40.5215   12.4171    6.1251 H   0  0  0  0  0  0  0  0  0  0  0  0
   39.1691   11.3097    6.5576 H   0  0  0  0  0  0  0  0  0  0  0  0
   39.3537    8.5195    5.7923 H   0  0  0  0  0  0  0  0  0  0  0  0
   38.1940    8.9440    7.8680 H   0  0  0  0  0  0  0  0  0  0  0  0
   39.6823    5.9363    6.8107 H   0  0  0  0  0  0  0  0  0  0  0  0
   40.7130    7.5520    4.9020 H   0  0  0  0  0  0  0  0  0  0  0  0
   42.1420    2.8340    9.6260 H   0  0  0  0  0  0  0  0  0  0  0  0
  1  2  2  0
  2  3  1  0
  3  4  2  0
  4  5  1  0
  5  6  1  0
  6  7  1  0
  7  8  1  0
  8  9  1  0
  9 10  1  0
 10 11  1  0
 11 12  1  0
 12 13  1  0
 13 14  1  0
 14 15  1  0
  8 16  1  0
 16 17  1  0
 16 18  1  0
 18 19  1  0
  5 20  1  0
 20 21  2  0
 20 22  1  0
 22  2  1  0
 18  6  1  0
 15 10  1  0
  3 23  1  0
  4 24  1  0
  6 25  1  6
  8 26  1  1
  9 27  1  0
  9 28  1  0
 10 29  1  0
 11 30  1  0
 11 31  1  0
 12 32  1  0
 12 33  1  0
 13 34  1  0
 13 35  1  0
 14 36  1  0
 14 37  1  0
 15 38  1  0
 15 39  1  0
 16 40  1  6
 17 41  1  0
 18 42  1  1
 19 43  1  0
 22 44  1  0
M  CHG  1  10   1
M  END
>  <meeko>  (9) 
{"is_sidechain": [false], "free_energy": -6.149, "intermolecular_energy": -7.053, "internal_energy": -0.633}

$$$$
