3qqs_ligand
     RDKit          3D

 28 29  0  0  0  0  0  0  0  0999 V2000
   28.1810   -4.9510   29.0070 O   0  0  0  0  0  0  0  0  0  0  0  0
   28.2080   -6.2060   29.2350 C   0  0  0  0  0  0  0  0  0  0  0  0
   27.5690   -7.0810   28.5590 O   0  0  0  0  0  0  0  0  0  0  0  0
   29.0820   -6.6980   30.3740 C   0  0  0  0  0  0  0  0  0  0  0  0
   28.4690   -7.3930   31.4420 C   0  0  0  0  0  0  0  0  0  0  0  0
   29.2120   -7.9060   32.5070 C   0  0  0  0  0  0  0  0  0  0  0  0
   30.5880   -7.7320   32.5290 C   0  0  0  0  0  0  0  0  0  0  0  0
   31.2180   -7.0460   31.4900 C   0  0  0  0  0  0  0  0  0  0  0  0
   30.4880   -6.5250   30.4050 C   0  0  0  0  0  0  0  0  0  0  0  0
   31.1890   -5.7960   29.3850 N   0  0  0  0  0  0  0  0  0  0  0  0
   31.9630   -6.4640   28.3880 C   0  0  0  0  0  0  0  0  0  0  0  0
   32.8350   -7.4850   28.8240 C   0  0  0  0  0  0  0  0  0  0  0  0
   33.6970   -8.1420   27.9440 C   0  0  0  0  0  0  0  0  0  0  0  0
   33.7170   -7.7790   26.6050 C   0  0  0  0  0  0  0  0  0  0  0  0
   32.8710   -6.7660   26.1540 C   0  0  0  0  0  0  0  0  0  0  0  0
   31.9850   -6.0970   27.0290 C   0  0  0  0  0  0  0  0  0  0  0  0
   31.1070   -5.0420   26.4170 C   0  0  0  0  0  0  0  0  0  0  0  0
   29.8650   -5.3250   26.3210 O   0  0  0  0  0  0  0  0  0  0  0  0
   31.6240   -3.9050   26.1720 O   0  0  0  0  0  0  0  0  0  0  0  0
   27.3780   -7.5332   31.4336 H   0  0  0  0  0  0  0  0  0  0  0  0
   28.7093   -8.4449   33.3236 H   0  0  0  0  0  0  0  0  0  0  0  0
   31.1812   -8.1339   33.3636 H   0  0  0  0  0  0  0  0  0  0  0  0
   32.3091   -6.9093   31.5194 H   0  0  0  0  0  0  0  0  0  0  0  0
   30.4450   -5.2610   28.8900 H   0  0  0  0  0  0  0  0  0  0  0  0
   32.8353   -7.7707   29.8862 H   0  0  0  0  0  0  0  0  0  0  0  0
   34.3564   -8.9427   28.3100 H   0  0  0  0  0  0  0  0  0  0  0  0
   34.3956   -8.2868   25.9038 H   0  0  0  0  0  0  0  0  0  0  0  0
   32.8938   -6.4808   25.0919 H   0  0  0  0  0  0  0  0  0  0  0  0
  1  2  2  0
  2  3  1  0
  2  4  1  0
  4  5  2  0
  5  6  1  0
  6  7  2  0
  7  8  1  0
  8  9  2  0
  9 10  1  0
 10 11  1  0
 11 12  2  0
 12 13  1  0
 13 14  2  0
 14 15  1  0
 15 16  2  0
 16 17  1  0
 17 18  2  0
 17 19  1  0
  9  4  1  0
 16 11  1  0
  5 20  1  0
  6 21  1  0
  7 22  1  0
  8 23  1  0
 10 24  1  0
 12 25  1  0
 13 26  1  0
 14 27  1  0
 15 28  1  0
M  CHG  2   3  -1  19  -1
M  END
>  <meeko>  (1) 
{"is_sidechain": [false], "free_energy": -8.317, "intermolecular_energy": -10.262, "internal_energy": -0.746}

$$$$
3qqs_ligand
     RDKit          3D

 28 29  0  0  0  0  0  0  0  0999 V2000
   26.2180   -2.9190   28.3270 O   0  0  0  0  0  0  0  0  0  0  0  0
   26.2660   -3.8090   29.2400 C   0  0  0  0  0  0  0  0  0  0  0  0
   25.6840   -4.9430   29.1800 O   0  0  0  0  0  0  0  0  0  0  0  0
   27.0960   -3.5090   30.4750 C   0  0  0  0  0  0  0  0  0  0  0  0
   26.9150   -2.2640   31.1220 C   0  0  0  0  0  0  0  0  0  0  0  0
   27.6170   -1.9310   32.2820 C   0  0  0  0  0  0  0  0  0  0  0  0
   28.5190   -2.8370   32.8210 C   0  0  0  0  0  0  0  0  0  0  0  0
   28.7190   -4.0710   32.2010 C   0  0  0  0  0  0  0  0  0  0  0  0
   28.0200   -4.4280   31.0320 C   0  0  0  0  0  0  0  0  0  0  0  0
   28.2970   -5.6960   30.4190 N   0  0  0  0  0  0  0  0  0  0  0  0
   29.6190   -6.2340   30.3800 C   0  0  0  0  0  0  0  0  0  0  0  0
   30.4150   -5.9110   29.2590 C   0  0  0  0  0  0  0  0  0  0  0  0
   31.6900   -6.4520   29.0820 C   0  0  0  0  0  0  0  0  0  0  0  0
   32.1930   -7.3440   30.0190 C   0  0  0  0  0  0  0  0  0  0  0  0
   31.4190   -7.6850   31.1290 C   0  0  0  0  0  0  0  0  0  0  0  0
   30.1310   -7.1390   31.3280 C   0  0  0  0  0  0  0  0  0  0  0  0
   29.4090   -7.5640   32.5770 C   0  0  0  0  0  0  0  0  0  0  0  0
   30.0110   -7.3450   33.6810 O   0  0  0  0  0  0  0  0  0  0  0  0
   28.2100   -7.9750   32.4600 O   0  0  0  0  0  0  0  0  0  0  0  0
   26.2027   -1.5396   30.7002 H   0  0  0  0  0  0  0  0  0  0  0  0
   27.4559   -0.9563   32.7657 H   0  0  0  0  0  0  0  0  0  0  0  0
   29.0754   -2.5830   33.7353 H   0  0  0  0  0  0  0  0  0  0  0  0
   29.4387   -4.7806   32.6351 H   0  0  0  0  0  0  0  0  0  0  0  0
   27.7040   -6.3730   30.9420 H   0  0  0  0  0  0  0  0  0  0  0  0
   30.0199   -5.2144   28.5049 H   0  0  0  0  0  0  0  0  0  0  0  0
   32.2924   -6.1729   28.2050 H   0  0  0  0  0  0  0  0  0  0  0  0
   33.1947   -7.7791   29.8875 H   0  0  0  0  0  0  0  0  0  0  0  0
   31.8210   -8.3955   31.8663 H   0  0  0  0  0  0  0  0  0  0  0  0
  1  2  2  0
  2  3  1  0
  2  4  1  0
  4  5  2  0
  5  6  1  0
  6  7  2  0
  7  8  1  0
  8  9  2  0
  9 10  1  0
 10 11  1  0
 11 12  2  0
 12 13  1  0
 13 14  2  0
 14 15  1  0
 15 16  2  0
 16 17  1  0
 17 18  2  0
 17 19  1  0
  9  4  1  0
 16 11  1  0
  5 20  1  0
  6 21  1  0
  7 22  1  0
  8 23  1  0
 10 24  1  0
 12 25  1  0
 13 26  1  0
 14 27  1  0
 15 28  1  0
M  CHG  2   3  -1  19  -1
M  END
>  <meeko>  (2) 
{"is_sidechain": [false], "free_energy": -7.982, "intermolecular_energy": -9.503, "internal_energy": -1.092}

$$$$
3qqs_ligand
     RDKit          3D

 28 29  0  0  0  0  0  0  0  0999 V2000
   29.4400   -5.2220   27.6980 O   0  0  0  0  0  0  0  0  0  0  0  0
   29.0060   -6.1840   28.4150 C   0  0  0  0  0  0  0  0  0  0  0  0
   27.9340   -6.8370   28.1830 O   0  0  0  0  0  0  0  0  0  0  0  0
   29.8380   -6.6000   29.6150 C   0  0  0  0  0  0  0  0  0  0  0  0
   31.1040   -7.1860   29.3870 C   0  0  0  0  0  0  0  0  0  0  0  0
   31.9390   -7.5620   30.4400 C   0  0  0  0  0  0  0  0  0  0  0  0
   31.5250   -7.3630   31.7490 C   0  0  0  0  0  0  0  0  0  0  0  0
   30.2780   -6.7890   32.0020 C   0  0  0  0  0  0  0  0  0  0  0  0
   29.4220   -6.4000   30.9550 C   0  0  0  0  0  0  0  0  0  0  0  0
   28.1350   -5.8500   31.2800 N   0  0  0  0  0  0  0  0  0  0  0  0
   27.9570   -4.4530   31.5150 C   0  0  0  0  0  0  0  0  0  0  0  0
   28.6320   -3.8940   32.6230 C   0  0  0  0  0  0  0  0  0  0  0  0
   28.4600   -2.5580   32.9910 C   0  0  0  0  0  0  0  0  0  0  0  0
   27.5940   -1.7520   32.2650 C   0  0  0  0  0  0  0  0  0  0  0  0
   26.9100   -2.2870   31.1730 C   0  0  0  0  0  0  0  0  0  0  0  0
   27.0790   -3.6350   30.7810 C   0  0  0  0  0  0  0  0  0  0  0  0
   26.3060   -4.0830   29.5720 C   0  0  0  0  0  0  0  0  0  0  0  0
   26.4520   -3.3810   28.5150 O   0  0  0  0  0  0  0  0  0  0  0  0
   25.6850   -5.1910   29.6400 O   0  0  0  0  0  0  0  0  0  0  0  0
   31.4398   -7.3499   28.3524 H   0  0  0  0  0  0  0  0  0  0  0  0
   32.9204   -8.0138   30.2332 H   0  0  0  0  0  0  0  0  0  0  0  0
   32.1772   -7.6565   32.5847 H   0  0  0  0  0  0  0  0  0  0  0  0
   29.9572   -6.6373   33.0432 H   0  0  0  0  0  0  0  0  0  0  0  0
   27.5320   -6.1050   30.4700 H   0  0  0  0  0  0  0  0  0  0  0  0
   29.3113   -4.5281   33.2116 H   0  0  0  0  0  0  0  0  0  0  0  0
   29.0078   -2.1465   33.8516 H   0  0  0  0  0  0  0  0  0  0  0  0
   27.4481   -0.6992   32.5485 H   0  0  0  0  0  0  0  0  0  0  0  0
   26.2226   -1.6446   30.6032 H   0  0  0  0  0  0  0  0  0  0  0  0
  1  2  2  0
  2  3  1  0
  2  4  1  0
  4  5  2  0
  5  6  1  0
  6  7  2  0
  7  8  1  0
  8  9  2  0
  9 10  1  0
 10 11  1  0
 11 12  2  0
 12 13  1  0
 13 14  2  0
 14 15  1  0
 15 16  2  0
 16 17  1  0
 17 18  2  0
 17 19  1  0
  9  4  1  0
 16 11  1  0
  5 20  1  0
  6 21  1  0
  7 22  1  0
  8 23  1  0
 10 24  1  0
 12 25  1  0
 13 26  1  0
 14 27  1  0
 15 28  1  0
M  CHG  2   3  -1  19  -1
M  END
>  <meeko>  (3) 
{"is_sidechain": [false], "free_energy": -7.869, "intermolecular_energy": -9.357, "internal_energy": -1.098}

$$$$
3qqs_ligand
     RDKit          3D

 28 29  0  0  0  0  0  0  0  0999 V2000
   31.8000   -4.2300   25.8580 O   0  0  0  0  0  0  0  0  0  0  0  0
   31.1890   -5.1140   26.5460 C   0  0  0  0  0  0  0  0  0  0  0  0
   29.9240   -5.1600   26.7100 O   0  0  0  0  0  0  0  0  0  0  0  0
   32.0230   -6.2040   27.1930 C   0  0  0  0  0  0  0  0  0  0  0  0
   32.8740   -6.9790   26.3720 C   0  0  0  0  0  0  0  0  0  0  0  0
   33.6960   -7.9760   26.8990 C   0  0  0  0  0  0  0  0  0  0  0  0
   33.6840   -8.2240   28.2640 C   0  0  0  0  0  0  0  0  0  0  0  0
   32.8500   -7.4760   29.0970 C   0  0  0  0  0  0  0  0  0  0  0  0
   32.0160   -6.4640   28.5860 C   0  0  0  0  0  0  0  0  0  0  0  0
   31.1530   -5.7550   29.4890 N   0  0  0  0  0  0  0  0  0  0  0  0
   30.4230   -6.4330   30.5120 C   0  0  0  0  0  0  0  0  0  0  0  0
   31.1710   -7.0380   31.5460 C   0  0  0  0  0  0  0  0  0  0  0  0
   30.5610   -7.7970   32.5470 C   0  0  0  0  0  0  0  0  0  0  0  0
   29.1860   -7.9800   32.5280 C   0  0  0  0  0  0  0  0  0  0  0  0
   28.4290   -7.4000   31.5100 C   0  0  0  0  0  0  0  0  0  0  0  0
   29.0290   -6.6210   30.4940 C   0  0  0  0  0  0  0  0  0  0  0  0
   28.1020   -6.0280   29.4700 C   0  0  0  0  0  0  0  0  0  0  0  0
   28.0630   -4.7520   29.4120 O   0  0  0  0  0  0  0  0  0  0  0  0
   27.5380   -6.8200   28.6480 O   0  0  0  0  0  0  0  0  0  0  0  0
   32.8886   -6.7910   25.2883 H   0  0  0  0  0  0  0  0  0  0  0  0
   34.3496   -8.5618   26.2360 H   0  0  0  0  0  0  0  0  0  0  0  0
   34.3293   -9.0072   28.6884 H   0  0  0  0  0  0  0  0  0  0  0  0
   32.8446   -7.6823   30.1775 H   0  0  0  0  0  0  0  0  0  0  0  0
   31.7770   -5.0680   29.9600 H   0  0  0  0  0  0  0  0  0  0  0  0
   32.2631   -6.9079   31.5633 H   0  0  0  0  0  0  0  0  0  0  0  0
   31.1677   -8.2474   33.3464 H   0  0  0  0  0  0  0  0  0  0  0  0
   28.6961   -8.5783   33.3103 H   0  0  0  0  0  0  0  0  0  0  0  0
   27.3397   -7.5523   31.4974 H   0  0  0  0  0  0  0  0  0  0  0  0
  1  2  2  0
  2  3  1  0
  2  4  1  0
  4  5  2  0
  5  6  1  0
  6  7  2  0
  7  8  1  0
  8  9  2  0
  9 10  1  0
 10 11  1  0
 11 12  2  0
 12 13  1  0
 13 14  2  0
 14 15  1  0
 15 16  2  0
 16 17  1  0
 17 18  2  0
 17 19  1  0
  9  4  1  0
 16 11  1  0
  5 20  1  0
  6 21  1  0
  7 22  1  0
  8 23  1  0
 10 24  1  0
 12 25  1  0
 13 26  1  0
 14 27  1  0
 15 28  1  0
M  CHG  2   3  -1  19  -1
M  END
>  <meeko>  (4) 
{"is_sidechain": [false], "free_energy": -7.801, "intermolecular_energy": -9.716, "internal_energy": -0.655}

$$$$
3qqs_ligand
     RDKit          3D

 28 29  0  0  0  0  0  0  0  0999 V2000
   26.0930   -3.6480   28.8070 O   0  0  0  0  0  0  0  0  0  0  0  0
   26.2260   -4.3700   29.8500 C   0  0  0  0  0  0  0  0  0  0  0  0
   25.6840   -5.5140   30.0150 O   0  0  0  0  0  0  0  0  0  0  0  0
   27.1130   -3.8450   30.9640 C   0  0  0  0  0  0  0  0  0  0  0  0
   27.0210   -2.4770   31.3100 C   0  0  0  0  0  0  0  0  0  0  0  0
   27.7790   -1.9290   32.3460 C   0  0  0  0  0  0  0  0  0  0  0  0
   28.6500   -2.7380   33.0610 C   0  0  0  0  0  0  0  0  0  0  0  0
   28.7630   -4.0920   32.7370 C   0  0  0  0  0  0  0  0  0  0  0  0
   28.0050   -4.6650   31.6990 C   0  0  0  0  0  0  0  0  0  0  0  0
   28.1930   -6.0550   31.3890 N   0  0  0  0  0  0  0  0  0  0  0  0
   29.4470   -6.5520   30.9210 C   0  0  0  0  0  0  0  0  0  0  0  0
   30.3950   -6.9350   31.8950 C   0  0  0  0  0  0  0  0  0  0  0  0
   31.6800   -7.3540   31.5470 C   0  0  0  0  0  0  0  0  0  0  0  0
   32.0520   -7.3860   30.2100 C   0  0  0  0  0  0  0  0  0  0  0  0
   31.1350   -7.0030   29.2320 C   0  0  0  0  0  0  0  0  0  0  0  0
   29.8270   -6.5850   29.5660 C   0  0  0  0  0  0  0  0  0  0  0  0
   28.9250   -6.2240   28.4190 C   0  0  0  0  0  0  0  0  0  0  0  0
   27.9200   -6.9890   28.2260 O   0  0  0  0  0  0  0  0  0  0  0  0
   29.1370   -5.1220   27.8190 O   0  0  0  0  0  0  0  0  0  0  0  0
   26.3339   -1.8275   30.7478 H   0  0  0  0  0  0  0  0  0  0  0  0
   27.6862   -0.8614   32.5942 H   0  0  0  0  0  0  0  0  0  0  0  0
   29.2496   -2.3147   33.8803 H   0  0  0  0  0  0  0  0  0  0  0  0
   29.4602   -4.7246   33.3060 H   0  0  0  0  0  0  0  0  0  0  0  0
   27.9770   -6.5510   32.2780 H   0  0  0  0  0  0  0  0  0  0  0  0
   30.1128   -6.9022   32.9577 H   0  0  0  0  0  0  0  0  0  0  0  0
   32.3936   -7.6570   32.3274 H   0  0  0  0  0  0  0  0  0  0  0  0
   33.0632   -7.7113   29.9241 H   0  0  0  0  0  0  0  0  0  0  0  0
   31.4371   -7.0268   28.1746 H   0  0  0  0  0  0  0  0  0  0  0  0
  1  2  2  0
  2  3  1  0
  2  4  1  0
  4  5  2  0
  5  6  1  0
  6  7  2  0
  7  8  1  0
  8  9  2  0
  9 10  1  0
 10 11  1  0
 11 12  2  0
 12 13  1  0
 13 14  2  0
 14 15  1  0
 15 16  2  0
 16 17  1  0
 17 18  2  0
 17 19  1  0
  9  4  1  0
 16 11  1  0
  5 20  1  0
  6 21  1  0
  7 22  1  0
  8 23  1  0
 10 24  1  0
 12 25  1  0
 13 26  1  0
 14 27  1  0
 15 28  1  0
M  CHG  2   3  -1  19  -1
M  END
>  <meeko>  (5) 
{"is_sidechain": [false], "free_energy": -7.787, "intermolecular_energy": -9.207, "internal_energy": -1.147}

$$$$
3qqs_ligand
     RDKit          3D

 28 29  0  0  0  0  0  0  0  0999 V2000
   29.6900   -5.0730   26.8750 O   0  0  0  0  0  0  0  0  0  0  0  0
   30.9630   -5.0170   26.8180 C   0  0  0  0  0  0  0  0  0  0  0  0
   31.6260   -4.0480   26.3140 O   0  0  0  0  0  0  0  0  0  0  0  0
   31.7490   -6.1700   27.4160 C   0  0  0  0  0  0  0  0  0  0  0  0
   32.6440   -6.8800   26.5820 C   0  0  0  0  0  0  0  0  0  0  0  0
   33.4250   -7.9290   27.0690 C   0  0  0  0  0  0  0  0  0  0  0  0
   33.3280   -8.2940   28.4030 C   0  0  0  0  0  0  0  0  0  0  0  0
   32.4500   -7.6130   29.2470 C   0  0  0  0  0  0  0  0  0  0  0  0
   31.6550   -6.5500   28.7780 C   0  0  0  0  0  0  0  0  0  0  0  0
   30.7430   -5.9130   29.6860 N   0  0  0  0  0  0  0  0  0  0  0  0
   29.5510   -6.5640   30.1260 C   0  0  0  0  0  0  0  0  0  0  0  0
   28.4640   -6.6000   29.2260 C   0  0  0  0  0  0  0  0  0  0  0  0
   27.2270   -7.1370   29.5870 C   0  0  0  0  0  0  0  0  0  0  0  0
   27.0440   -7.6380   30.8680 C   0  0  0  0  0  0  0  0  0  0  0  0
   28.1010   -7.6030   31.7770 C   0  0  0  0  0  0  0  0  0  0  0  0
   29.3630   -7.0720   31.4250 C   0  0  0  0  0  0  0  0  0  0  0  0
   30.4280   -7.1170   32.4850 C   0  0  0  0  0  0  0  0  0  0  0  0
   30.0370   -7.3910   33.6700 O   0  0  0  0  0  0  0  0  0  0  0  0
   31.6420   -7.0220   32.1140 O   0  0  0  0  0  0  0  0  0  0  0  0
   32.7266   -6.5980   25.5220 H   0  0  0  0  0  0  0  0  0  0  0  0
   34.1138   -8.4633   26.3981 H   0  0  0  0  0  0  0  0  0  0  0  0
   33.9417   -9.1184   28.7951 H   0  0  0  0  0  0  0  0  0  0  0  0
   32.3774   -7.9135   30.3027 H   0  0  0  0  0  0  0  0  0  0  0  0
   31.3150   -5.7130   30.5320 H   0  0  0  0  0  0  0  0  0  0  0  0
   28.5953   -6.1937   28.2123 H   0  0  0  0  0  0  0  0  0  0  0  0
   26.4019   -7.1628   28.8600 H   0  0  0  0  0  0  0  0  0  0  0  0
   26.0722   -8.0597   31.1643 H   0  0  0  0  0  0  0  0  0  0  0  0
   27.9491   -7.9981   32.7923 H   0  0  0  0  0  0  0  0  0  0  0  0
  1  2  2  0
  2  3  1  0
  2  4  1  0
  4  5  2  0
  5  6  1  0
  6  7  2  0
  7  8  1  0
  8  9  2  0
  9 10  1  0
 10 11  1  0
 11 12  2  0
 12 13  1  0
 13 14  2  0
 14 15  1  0
 15 16  2  0
 16 17  1  0
 17 18  2  0
 17 19  1  0
  9  4  1  0
 16 11  1  0
  5 20  1  0
  6 21  1  0
  7 22  1  0
  8 23  1  0
 10 24  1  0
 12 25  1  0
 13 26  1  0
 14 27  1  0
 15 28  1  0
M  CHG  2   3  -1  19  -1
M  END
>  <meeko>  (6) 
{"is_sidechain": [false], "free_energy": -7.573, "intermolecular_energy": -9.424, "internal_energy": -0.666}

$$$$
3qqs_ligand
     RDKit          3D

 28 29  0  0  0  0  0  0  0  0999 V2000
   31.8850   -5.8240   26.3380 O   0  0  0  0  0  0  0  0  0  0  0  0
   30.8820   -5.6420   27.1040 C   0  0  0  0  0  0  0  0  0  0  0  0
   29.8250   -5.0040   26.7780 O   0  0  0  0  0  0  0  0  0  0  0  0
   30.9350   -6.2500   28.4940 C   0  0  0  0  0  0  0  0  0  0  0  0
   32.1960   -6.6100   29.0240 C   0  0  0  0  0  0  0  0  0  0  0  0
   32.3270   -7.1420   30.3080 C   0  0  0  0  0  0  0  0  0  0  0  0
   31.1990   -7.3290   31.0920 C   0  0  0  0  0  0  0  0  0  0  0  0
   29.9420   -6.9860   30.5920 C   0  0  0  0  0  0  0  0  0  0  0  0
   29.7870   -6.4450   29.3020 C   0  0  0  0  0  0  0  0  0  0  0  0
   28.4630   -6.1470   28.8290 N   0  0  0  0  0  0  0  0  0  0  0  0
   27.5250   -5.4330   29.6350 C   0  0  0  0  0  0  0  0  0  0  0  0
   27.6110   -4.0240   29.6300 C   0  0  0  0  0  0  0  0  0  0  0  0
   26.7980   -3.2350   30.4460 C   0  0  0  0  0  0  0  0  0  0  0  0
   25.8890   -3.8420   31.3010 C   0  0  0  0  0  0  0  0  0  0  0  0
   25.7950   -5.2330   31.3290 C   0  0  0  0  0  0  0  0  0  0  0  0
   26.6030   -6.0470   30.5030 C   0  0  0  0  0  0  0  0  0  0  0  0
   26.3880   -7.5310   30.6070 C   0  0  0  0  0  0  0  0  0  0  0  0
   26.4320   -8.0280   31.7830 O   0  0  0  0  0  0  0  0  0  0  0  0
   26.0400   -8.1570   29.5550 O   0  0  0  0  0  0  0  0  0  0  0  0
   33.0965   -6.4671   28.4087 H   0  0  0  0  0  0  0  0  0  0  0  0
   33.3205   -7.4115   30.6958 H   0  0  0  0  0  0  0  0  0  0  0  0
   31.2945   -7.7465   32.1052 H   0  0  0  0  0  0  0  0  0  0  0  0
   29.0526   -7.1420   31.2201 H   0  0  0  0  0  0  0  0  0  0  0  0
   28.6160   -5.5870   27.9640 H   0  0  0  0  0  0  0  0  0  0  0  0
   28.3381   -3.5345   28.9653 H   0  0  0  0  0  0  0  0  0  0  0  0
   26.8776   -2.1384   30.4114 H   0  0  0  0  0  0  0  0  0  0  0  0
   25.2472   -3.2302   31.9520 H   0  0  0  0  0  0  0  0  0  0  0  0
   25.0744   -5.7084   32.0106 H   0  0  0  0  0  0  0  0  0  0  0  0
  1  2  2  0
  2  3  1  0
  2  4  1  0
  4  5  2  0
  5  6  1  0
  6  7  2  0
  7  8  1  0
  8  9  2  0
  9 10  1  0
 10 11  1  0
 11 12  2  0
 12 13  1  0
 13 14  2  0
 14 15  1  0
 15 16  2  0
 16 17  1  0
 17 18  2  0
 17 19  1  0
  9  4  1  0
 16 11  1  0
  5 20  1  0
  6 21  1  0
  7 22  1  0
  8 23  1  0
 10 24  1  0
 12 25  1  0
 13 26  1  0
 14 27  1  0
 15 28  1  0
M  CHG  2   3  -1  19  -1
M  END
>  <meeko>  (7) 
{"is_sidechain": [false], "free_energy": -7.503, "intermolecular_energy": -9.057, "internal_energy": -0.946}

$$$$
3qqs_ligand
     RDKit          3D

 28 29  0  0  0  0  0  0  0  0999 V2000
   30.0130   -7.1340   33.6780 O   0  0  0  0  0  0  0  0  0  0  0  0
   30.3840   -7.1030   32.4580 C   0  0  0  0  0  0  0  0  0  0  0  0
   31.5990   -7.1140   32.0680 O   0  0  0  0  0  0  0  0  0  0  0  0
   29.3030   -7.0800   31.3930 C   0  0  0  0  0  0  0  0  0  0  0  0
   28.0430   -7.6440   31.6980 C   0  0  0  0  0  0  0  0  0  0  0  0
   26.9900   -7.6290   30.7820 C   0  0  0  0  0  0  0  0  0  0  0  0
   27.1740   -7.0500   29.5350 C   0  0  0  0  0  0  0  0  0  0  0  0
   28.4090   -6.4890   29.2060 C   0  0  0  0  0  0  0  0  0  0  0  0
   29.4830   -6.4900   30.1160 C   0  0  0  0  0  0  0  0  0  0  0  0
   30.7410   -5.9310   29.7060 N   0  0  0  0  0  0  0  0  0  0  0  0
   31.5720   -6.5870   28.7480 C   0  0  0  0  0  0  0  0  0  0  0  0
   32.3580   -7.6670   29.2060 C   0  0  0  0  0  0  0  0  0  0  0  0
   33.2660   -8.3220   28.3720 C   0  0  0  0  0  0  0  0  0  0  0  0
   33.4210   -7.8980   27.0590 C   0  0  0  0  0  0  0  0  0  0  0  0
   32.6620   -6.8270   26.5890 C   0  0  0  0  0  0  0  0  0  0  0  0
   31.7310   -6.1590   27.4170 C   0  0  0  0  0  0  0  0  0  0  0  0
   30.9550   -5.0370   26.7840 C   0  0  0  0  0  0  0  0  0  0  0  0
   29.6830   -5.1090   26.8710 O   0  0  0  0  0  0  0  0  0  0  0  0
   31.6080   -4.0390   26.3390 O   0  0  0  0  0  0  0  0  0  0  0  0
   27.8884   -8.1071   32.6837 H   0  0  0  0  0  0  0  0  0  0  0  0
   26.0196   -8.0738   31.0475 H   0  0  0  0  0  0  0  0  0  0  0  0
   26.3491   -7.0330   28.8076 H   0  0  0  0  0  0  0  0  0  0  0  0
   28.5462   -6.0358   28.2131 H   0  0  0  0  0  0  0  0  0  0  0  0
   30.4960   -4.9990   29.3140 H   0  0  0  0  0  0  0  0  0  0  0  0
   32.2519   -8.0014   30.2486 H   0  0  0  0  0  0  0  0  0  0  0  0
   33.8553   -9.1692   28.7529 H   0  0  0  0  0  0  0  0  0  0  0  0
   34.1373   -8.4033   26.3945 H   0  0  0  0  0  0  0  0  0  0  0  0
   32.7907   -6.4937   25.5486 H   0  0  0  0  0  0  0  0  0  0  0  0
  1  2  2  0
  2  3  1  0
  2  4  1  0
  4  5  2  0
  5  6  1  0
  6  7  2  0
  7  8  1  0
  8  9  2  0
  9 10  1  0
 10 11  1  0
 11 12  2  0
 12 13  1  0
 13 14  2  0
 14 15  1  0
 15 16  2  0
 16 17  1  0
 17 18  2  0
 17 19  1  0
  9  4  1  0
 16 11  1  0
  5 20  1  0
  6 21  1  0
  7 22  1  0
  8 23  1  0
 10 24  1  0
 12 25  1  0
 13 26  1  0
 14 27  1  0
 15 28  1  0
M  CHG  2   3  -1  19  -1
M  END
>  <meeko>  (8) 
{"is_sidechain": [false], "free_energy": -7.499, "intermolecular_energy": -9.462, "internal_energy": -0.537}

$$$$
