3ozt_ligand
     RDKit          3D

 50 52  0  0  0  0  0  0  0  0999 V2000
   37.9270   -3.4400   -6.0420 O   0  0  0  0  0  0  0  0  0  0  0  0
   37.3020   -4.2600   -6.7090 C   0  0  0  0  0  0  0  0  0  0  0  0
   36.7050   -3.9640   -7.9150 N   0  0  0  0  0  0  0  0  0  0  0  0
   36.8190   -2.6530   -8.5090 C   0  0  0  0  0  0  0  0  0  0  0  0
   36.7000   -2.8210   -9.9920 C   0  0  0  0  0  0  0  0  0  0  0  0
   35.7880   -2.1990  -10.7590 C   0  0  0  0  0  0  0  0  0  0  0  0
   35.6700   -2.3940  -12.2450 C   0  0  1  0  0  0  0  0  0  0  0  0
   34.6290   -1.5180  -12.7100 O   0  0  0  0  0  0  0  0  0  0  0  0
   35.2180   -0.5000  -13.5450 C   0  0  1  0  0  0  0  0  0  0  0  0
   34.6760    0.8470  -13.2380 N   0  0  0  0  0  0  0  0  0  0  0  0
   35.1320    1.6180  -12.1720 C   0  0  0  0  0  0  0  0  0  0  0  0
   34.6750    2.8390  -11.8680 C   0  0  0  0  0  0  0  0  0  0  0  0
   33.6100    3.4180  -12.7210 C   0  0  0  0  0  0  0  0  0  0  0  0
   33.1560    4.5350  -12.5010 O   0  0  0  0  0  0  0  0  0  0  0  0
   33.1170    2.5940  -13.8480 C   0  0  0  0  0  0  0  0  0  0  0  0
   33.6660    1.3870  -14.0330 C   0  0  0  0  0  0  0  0  0  0  0  0
   36.7400   -0.5610  -13.3180 C   0  0  2  0  0  0  0  0  0  0  0  0
   37.5190   -0.1630  -14.4490 O   0  0  0  0  0  0  0  0  0  0  0  0
   36.9440   -2.0310  -13.0100 C   0  0  2  0  0  0  0  0  0  0  0  0
   37.0250   -2.7400  -14.2620 O   0  0  0  0  0  0  0  0  0  0  0  0
   37.2170   -5.6670   -6.2260 C   0  0  0  0  0  0  0  0  0  0  0  0
   38.2700   -6.2520   -5.5080 C   0  0  0  0  0  0  0  0  0  0  0  0
   38.1510   -7.5770   -5.0600 C   0  0  0  0  0  0  0  0  0  0  0  0
   39.2530   -8.1820   -4.3000 N   0  0  0  0  0  0  0  0  0  0  0  0
   38.9740   -9.1160   -3.5360 O   0  0  0  0  0  0  0  0  0  0  0  0
   40.3910   -7.7240   -4.4730 O   0  0  0  0  0  0  0  0  0  0  0  0
   37.0020   -8.3310   -5.3230 C   0  0  0  0  0  0  0  0  0  0  0  0
   35.9710   -7.7500   -6.0550 C   0  0  0  0  0  0  0  0  0  0  0  0
   34.8420   -8.4680   -6.3380 O   0  0  0  0  0  0  0  0  0  0  0  0
   36.0730   -6.4320   -6.5150 C   0  0  0  0  0  0  0  0  0  0  0  0
   35.0240   -5.9290   -7.2440 O   0  0  0  0  0  0  0  0  0  0  0  0
   36.4150   -4.7090   -8.5320 H   0  0  0  0  0  0  0  0  0  0  0  0
   36.0139   -2.0013   -8.1387 H   0  0  0  0  0  0  0  0  0  0  0  0
   37.7819   -2.1904   -8.2467 H   0  0  0  0  0  0  0  0  0  0  0  0
   37.4082   -3.5007  -10.4885 H   0  0  0  0  0  0  0  0  0  0  0  0
   35.0867   -1.5065  -10.2706 H   0  0  0  0  0  0  0  0  0  0  0  0
   35.4655   -3.4597  -12.4251 H   0  0  0  0  0  0  0  0  0  0  0  0
   34.9748   -0.6838  -14.6019 H   0  0  0  0  0  0  0  0  0  0  0  0
   35.9227    1.1944  -11.5354 H   0  0  0  0  0  0  0  0  0  0  0  0
   35.0783    3.3966  -11.0098 H   0  0  0  0  0  0  0  0  0  0  0  0
   32.3229    2.9627  -14.5139 H   0  0  0  0  0  0  0  0  0  0  0  0
   33.2942    0.7789  -14.8708 H   0  0  0  0  0  0  0  0  0  0  0  0
   37.0699    0.1352  -12.5328 H   0  0  0  0  0  0  0  0  0  0  0  0
   37.6060    0.8110  -14.3720 H   0  0  0  0  0  0  0  0  0  0  0  0
   37.8532   -2.2710  -12.4393 H   0  0  0  0  0  0  0  0  0  0  0  0
   37.7970   -2.3880  -14.7430 H   0  0  0  0  0  0  0  0  0  0  0  0
   39.1833   -5.6763   -5.2972 H   0  0  0  0  0  0  0  0  0  0  0  0
   36.9153   -9.3649   -4.9575 H   0  0  0  0  0  0  0  0  0  0  0  0
   34.0820   -7.8760   -6.4500 H   0  0  0  0  0  0  0  0  0  0  0  0
   34.7860   -5.0470   -6.8850 H   0  0  0  0  0  0  0  0  0  0  0  0
  1  2  2  0
  2  3  1  0
  3  4  1  0
  4  5  1  0
  5  6  2  0
  6  7  1  0
  7  8  1  0
  8  9  1  0
  9 10  1  0
 10 11  1  0
 11 12  2  0
 12 13  1  0
 13 14  2  0
 13 15  1  0
 15 16  2  0
  9 17  1  0
 17 18  1  0
 17 19  1  0
 19 20  1  0
  2 21  1  0
 21 22  2  0
 22 23  1  0
 23 24  1  0
 24 25  2  0
 24 26  1  0
 23 27  2  0
 27 28  1  0
 28 29  1  0
 28 30  2  0
 30 31  1  0
 19  7  1  0
 30 21  1  0
 16 10  1  0
  3 32  1  0
  4 33  1  0
  4 34  1  0
  5 35  1  0
  6 36  1  0
  7 37  1  1
  9 38  1  6
 11 39  1  0
 12 40  1  0
 15 41  1  0
 16 42  1  0
 17 43  1  1
 18 44  1  0
 19 45  1  1
 20 46  1  0
 22 47  1  0
 27 48  1  0
 29 49  1  0
 31 50  1  0
M  CHG  2  24   1  26  -1
M  END
>  <meeko>  (1) 
{"is_sidechain": [false], "free_energy": -10.435, "intermolecular_energy": -15.315, "internal_energy": -0.79}

$$$$
3ozt_ligand
     RDKit          3D

 50 52  0  0  0  0  0  0  0  0999 V2000
   38.5520   -2.7410   -6.2440 O   0  0  0  0  0  0  0  0  0  0  0  0
   37.9310   -3.7470   -6.5760 C   0  0  0  0  0  0  0  0  0  0  0  0
   36.9040   -3.7370   -7.4950 N   0  0  0  0  0  0  0  0  0  0  0  0
   36.5140   -2.5250   -8.1750 C   0  0  0  0  0  0  0  0  0  0  0  0
   36.2480   -2.8790   -9.6050 C   0  0  0  0  0  0  0  0  0  0  0  0
   36.5460   -2.0930  -10.6540 C   0  0  0  0  0  0  0  0  0  0  0  0
   36.2540   -2.4560  -12.0840 C   0  0  1  0  0  0  0  0  0  0  0  0
   35.0860   -1.7210  -12.4820 O   0  0  0  0  0  0  0  0  0  0  0  0
   35.4640   -0.7570  -13.4860 C   0  0  1  0  0  0  0  0  0  0  0  0
   34.8460    0.5690  -13.2390 N   0  0  0  0  0  0  0  0  0  0  0  0
   35.3010    1.4420  -12.2540 C   0  0  0  0  0  0  0  0  0  0  0  0
   34.7750    2.6490  -12.0080 C   0  0  0  0  0  0  0  0  0  0  0  0
   33.6280    3.0930  -12.8350 C   0  0  0  0  0  0  0  0  0  0  0  0
   33.1090    4.1900  -12.6640 O   0  0  0  0  0  0  0  0  0  0  0  0
   33.1360    2.1610  -13.8740 C   0  0  0  0  0  0  0  0  0  0  0  0
   33.7600    0.9830  -14.0090 C   0  0  0  0  0  0  0  0  0  0  0  0
   37.0020   -0.6730  -13.4670 C   0  0  2  0  0  0  0  0  0  0  0  0
   37.5880   -0.3410  -14.7290 O   0  0  0  0  0  0  0  0  0  0  0  0
   37.3790   -2.0810  -13.0490 C   0  0  2  0  0  0  0  0  0  0  0  0
   37.3620   -2.9130  -14.2260 O   0  0  0  0  0  0  0  0  0  0  0  0
   38.3290   -5.0630   -6.0030 C   0  0  0  0  0  0  0  0  0  0  0  0
   37.4000   -6.1030   -5.8620 C   0  0  0  0  0  0  0  0  0  0  0  0
   37.8130   -7.3350   -5.3280 C   0  0  0  0  0  0  0  0  0  0  0  0
   36.8380   -8.4240   -5.1910 N   0  0  0  0  0  0  0  0  0  0  0  0
   37.1930   -9.4340   -4.5670 O   0  0  0  0  0  0  0  0  0  0  0  0
   35.7210   -8.2650   -5.7030 O   0  0  0  0  0  0  0  0  0  0  0  0
   39.1370   -7.5420   -4.9250 C   0  0  0  0  0  0  0  0  0  0  0  0
   40.0480   -6.4970   -5.0490 C   0  0  0  0  0  0  0  0  0  0  0  0
   41.3450   -6.6680   -4.6510 O   0  0  0  0  0  0  0  0  0  0  0  0
   39.6530   -5.2600   -5.5740 C   0  0  0  0  0  0  0  0  0  0  0  0
   40.6020   -4.2710   -5.6520 O   0  0  0  0  0  0  0  0  0  0  0  0
   36.5880   -4.6020   -7.9100 H   0  0  0  0  0  0  0  0  0  0  0  0
   35.6044   -2.1118   -7.7146 H   0  0  0  0  0  0  0  0  0  0  0  0
   37.3083   -1.7673   -8.1040 H   0  0  0  0  0  0  0  0  0  0  0  0
   35.7755   -3.8506   -9.8119 H   0  0  0  0  0  0  0  0  0  0  0  0
   37.0324   -1.1267  -10.4546 H   0  0  0  0  0  0  0  0  0  0  0  0
   36.1263   -3.5476  -12.1305 H   0  0  0  0  0  0  0  0  0  0  0  0
   35.1023   -1.0735  -14.4754 H   0  0  0  0  0  0  0  0  0  0  0  0
   36.1509    1.1180  -11.6354 H   0  0  0  0  0  0  0  0  0  0  0  0
   35.1828    3.2926  -11.2146 H   0  0  0  0  0  0  0  0  0  0  0  0
   32.2836    2.4274  -14.5162 H   0  0  0  0  0  0  0  0  0  0  0  0
   33.3892    0.2938  -14.7820 H   0  0  0  0  0  0  0  0  0  0  0  0
   37.3650    0.1283  -12.8066 H   0  0  0  0  0  0  0  0  0  0  0  0
   36.9570    0.2820  -15.1500 H   0  0  0  0  0  0  0  0  0  0  0  0
   38.3727   -2.1868  -12.5892 H   0  0  0  0  0  0  0  0  0  0  0  0
   37.6310   -3.8090  -13.9510 H   0  0  0  0  0  0  0  0  0  0  0  0
   36.3537   -5.9554   -6.1677 H   0  0  0  0  0  0  0  0  0  0  0  0
   39.4523   -8.5138   -4.5173 H   0  0  0  0  0  0  0  0  0  0  0  0
   41.8840   -7.0010   -5.3860 H   0  0  0  0  0  0  0  0  0  0  0  0
   40.9040   -4.0540   -4.7430 H   0  0  0  0  0  0  0  0  0  0  0  0
  1  2  2  0
  2  3  1  0
  3  4  1  0
  4  5  1  0
  5  6  2  0
  6  7  1  0
  7  8  1  0
  8  9  1  0
  9 10  1  0
 10 11  1  0
 11 12  2  0
 12 13  1  0
 13 14  2  0
 13 15  1  0
 15 16  2  0
  9 17  1  0
 17 18  1  0
 17 19  1  0
 19 20  1  0
  2 21  1  0
 21 22  2  0
 22 23  1  0
 23 24  1  0
 24 25  2  0
 24 26  1  0
 23 27  2  0
 27 28  1  0
 28 29  1  0
 28 30  2  0
 30 31  1  0
 19  7  1  0
 30 21  1  0
 16 10  1  0
  3 32  1  0
  4 33  1  0
  4 34  1  0
  5 35  1  0
  6 36  1  0
  7 37  1  1
  9 38  1  6
 11 39  1  0
 12 40  1  0
 15 41  1  0
 16 42  1  0
 17 43  1  1
 18 44  1  0
 19 45  1  1
 20 46  1  0
 22 47  1  0
 27 48  1  0
 29 49  1  0
 31 50  1  0
M  CHG  2  24   1  26  -1
M  END
>  <meeko>  (2) 
{"is_sidechain": [false], "free_energy": -8.912, "intermolecular_energy": -13.025, "internal_energy": -0.843}

$$$$
3ozt_ligand
     RDKit          3D

 50 52  0  0  0  0  0  0  0  0999 V2000
   37.4840   -4.0780   -6.6510 O   0  0  0  0  0  0  0  0  0  0  0  0
   37.4550   -2.9650   -7.1690 C   0  0  0  0  0  0  0  0  0  0  0  0
   36.6300   -2.6380   -8.2230 N   0  0  0  0  0  0  0  0  0  0  0  0
   35.6920   -3.5920   -8.7680 C   0  0  0  0  0  0  0  0  0  0  0  0
   35.8710   -3.5980  -10.2540 C   0  0  0  0  0  0  0  0  0  0  0  0
   35.7590   -2.5130  -11.0400 C   0  0  0  0  0  0  0  0  0  0  0  0
   35.9240   -2.5410  -12.5350 C   0  0  1  0  0  0  0  0  0  0  0  0
   34.9280   -1.6660  -13.0900 O   0  0  0  0  0  0  0  0  0  0  0  0
   35.5890   -0.5330  -13.6910 C   0  0  1  0  0  0  0  0  0  0  0  0
   34.9130    0.7430  -13.3510 N   0  0  0  0  0  0  0  0  0  0  0  0
   35.2980    1.5360  -12.2720 C   0  0  0  0  0  0  0  0  0  0  0  0
   34.7190    2.6970  -11.9390 C   0  0  0  0  0  0  0  0  0  0  0  0
   33.5910    3.1780  -12.7710 C   0  0  0  0  0  0  0  0  0  0  0  0
   33.0260    4.2380  -12.5230 O   0  0  0  0  0  0  0  0  0  0  0  0
   33.1750    2.3310  -13.9110 C   0  0  0  0  0  0  0  0  0  0  0  0
   33.8450    1.1920  -14.1260 C   0  0  0  0  0  0  0  0  0  0  0  0
   37.0460   -0.5500  -13.1920 C   0  0  2  0  0  0  0  0  0  0  0  0
   37.9880    0.0100  -14.1110 O   0  0  0  0  0  0  0  0  0  0  0  0
   37.2880   -2.0350  -13.0070 C   0  0  2  0  0  0  0  0  0  0  0  0
   37.6400   -2.5910  -14.2890 O   0  0  0  0  0  0  0  0  0  0  0  0
   38.3140   -1.8850   -6.6080 C   0  0  0  0  0  0  0  0  0  0  0  0
   37.9260   -1.1710   -5.4660 C   0  0  0  0  0  0  0  0  0  0  0  0
   38.7660   -0.1660   -4.9580 C   0  0  0  0  0  0  0  0  0  0  0  0
   38.3600    0.5730   -3.7560 N   0  0  0  0  0  0  0  0  0  0  0  0
   37.7690    1.6490   -3.9190 O   0  0  0  0  0  0  0  0  0  0  0  0
   38.6290    0.0740   -2.6540 O   0  0  0  0  0  0  0  0  0  0  0  0
   39.9830    0.1420   -5.5760 C   0  0  0  0  0  0  0  0  0  0  0  0
   40.3500   -0.5580   -6.7220 C   0  0  0  0  0  0  0  0  0  0  0  0
   41.5280   -0.2680   -7.3540 O   0  0  0  0  0  0  0  0  0  0  0  0
   39.5230   -1.5590   -7.2460 C   0  0  0  0  0  0  0  0  0  0  0  0
   39.9420   -2.1960   -8.3870 O   0  0  0  0  0  0  0  0  0  0  0  0
   36.4660   -1.6690   -8.4560 H   0  0  0  0  0  0  0  0  0  0  0  0
   35.8952   -4.5935   -8.3609 H   0  0  0  0  0  0  0  0  0  0  0  0
   34.6605   -3.3172   -8.5025 H   0  0  0  0  0  0  0  0  0  0  0  0
   36.1109   -4.5569  -10.7366 H   0  0  0  0  0  0  0  0  0  0  0  0
   35.5335   -1.5483  -10.5619 H   0  0  0  0  0  0  0  0  0  0  0  0
   35.8267   -3.5869  -12.8614 H   0  0  0  0  0  0  0  0  0  0  0  0
   35.5526   -0.6052  -14.7880 H   0  0  0  0  0  0  0  0  0  0  0  0
   36.1350    1.1844  -11.6509 H   0  0  0  0  0  0  0  0  0  0  0  0
   35.0707    3.2767  -11.0729 H   0  0  0  0  0  0  0  0  0  0  0  0
   32.3400    2.6284  -14.5624 H   0  0  0  0  0  0  0  0  0  0  0  0
   33.5304    0.5663  -14.9742 H   0  0  0  0  0  0  0  0  0  0  0  0
   37.1823    0.0658  -12.2908 H   0  0  0  0  0  0  0  0  0  0  0  0
   37.4930    0.1260  -14.9490 H   0  0  0  0  0  0  0  0  0  0  0  0
   38.0935   -2.2974  -12.3054 H   0  0  0  0  0  0  0  0  0  0  0  0
   38.6010   -2.4730  -14.4020 H   0  0  0  0  0  0  0  0  0  0  0  0
   36.9700   -1.3961   -4.9707 H   0  0  0  0  0  0  0  0  0  0  0  0
   40.6382    0.9234   -5.1636 H   0  0  0  0  0  0  0  0  0  0  0  0
   41.3750    0.3370   -8.0960 H   0  0  0  0  0  0  0  0  0  0  0  0
   40.7120   -1.7090   -8.7540 H   0  0  0  0  0  0  0  0  0  0  0  0
  1  2  2  0
  2  3  1  0
  3  4  1  0
  4  5  1  0
  5  6  2  0
  6  7  1  0
  7  8  1  0
  8  9  1  0
  9 10  1  0
 10 11  1  0
 11 12  2  0
 12 13  1  0
 13 14  2  0
 13 15  1  0
 15 16  2  0
  9 17  1  0
 17 18  1  0
 17 19  1  0
 19 20  1  0
  2 21  1  0
 21 22  2  0
 22 23  1  0
 23 24  1  0
 24 25  2  0
 24 26  1  0
 23 27  2  0
 27 28  1  0
 28 29  1  0
 28 30  2  0
 30 31  1  0
 19  7  1  0
 30 21  1  0
 16 10  1  0
  3 32  1  0
  4 33  1  0
  4 34  1  0
  5 35  1  0
  6 36  1  0
  7 37  1  6
  9 38  1  6
 11 39  1  0
 12 40  1  0
 15 41  1  0
 16 42  1  0
 17 43  1  1
 18 44  1  0
 19 45  1  1
 20 46  1  0
 22 47  1  0
 27 48  1  0
 29 49  1  0
 31 50  1  0
M  CHG  2  24   1  26  -1
M  END
>  <meeko>  (3) 
{"is_sidechain": [false], "free_energy": -8.517, "intermolecular_energy": -12.196, "internal_energy": -1.093}

$$$$
3ozt_ligand
     RDKit          3D

 50 52  0  0  0  0  0  0  0  0999 V2000
   37.7300   -3.7560   -6.4860 O   0  0  0  0  0  0  0  0  0  0  0  0
   37.8490   -2.7730   -7.2110 C   0  0  0  0  0  0  0  0  0  0  0  0
   37.0000   -2.4940   -8.2600 N   0  0  0  0  0  0  0  0  0  0  0  0
   35.8640   -3.3360   -8.5510 C   0  0  0  0  0  0  0  0  0  0  0  0
   35.7730   -3.4670  -10.0400 C   0  0  0  0  0  0  0  0  0  0  0  0
   35.8180   -2.4360  -10.9010 C   0  0  0  0  0  0  0  0  0  0  0  0
   35.7060   -2.5840  -12.3930 C   0  0  1  0  0  0  0  0  0  0  0  0
   34.6640   -1.6970  -12.8340 O   0  0  0  0  0  0  0  0  0  0  0  0
   35.2530   -0.6530  -13.6350 C   0  0  1  0  0  0  0  0  0  0  0  0
   34.7070    0.6830  -13.2890 N   0  0  0  0  0  0  0  0  0  0  0  0
   35.1740    1.4320  -12.2110 C   0  0  0  0  0  0  0  0  0  0  0  0
   34.7130    2.6430  -11.8730 C   0  0  0  0  0  0  0  0  0  0  0  0
   33.6310    3.2330  -12.6950 C   0  0  0  0  0  0  0  0  0  0  0  0
   33.1730    4.3420  -12.4420 O   0  0  0  0  0  0  0  0  0  0  0  0
   33.1270    2.4330  -13.8340 C   0  0  0  0  0  0  0  0  0  0  0  0
   33.6810    1.2340  -14.0550 C   0  0  0  0  0  0  0  0  0  0  0  0
   36.7740   -0.7160  -13.4040 C   0  0  2  0  0  0  0  0  0  0  0  0
   37.5570   -0.2820  -14.5200 O   0  0  0  0  0  0  0  0  0  0  0  0
   36.9810   -2.1950  -13.1410 C   0  0  2  0  0  0  0  0  0  0  0  0
   37.0690   -2.8640  -14.4150 O   0  0  0  0  0  0  0  0  0  0  0  0
   38.9330   -1.7910   -6.9240 C   0  0  0  0  0  0  0  0  0  0  0  0
   40.1110   -1.7700   -7.6840 C   0  0  0  0  0  0  0  0  0  0  0  0
   41.1070   -0.8240   -7.3930 C   0  0  0  0  0  0  0  0  0  0  0  0
   42.3350   -0.8000   -8.1980 N   0  0  0  0  0  0  0  0  0  0  0  0
   42.3200   -0.1360   -9.2440 O   0  0  0  0  0  0  0  0  0  0  0  0
   43.3100   -1.4400   -7.7800 O   0  0  0  0  0  0  0  0  0  0  0  0
   40.9500    0.0960   -6.3500 C   0  0  0  0  0  0  0  0  0  0  0  0
   39.7870    0.0540   -5.5870 C   0  0  0  0  0  0  0  0  0  0  0  0
   39.6120    0.9330   -4.5540 O   0  0  0  0  0  0  0  0  0  0  0  0
   38.7840   -0.8860   -5.8590 C   0  0  0  0  0  0  0  0  0  0  0  0
   37.6720   -0.8790   -5.0560 O   0  0  0  0  0  0  0  0  0  0  0  0
   36.9890   -1.5720   -8.6710 H   0  0  0  0  0  0  0  0  0  0  0  0
   36.0037   -4.3269   -8.0943 H   0  0  0  0  0  0  0  0  0  0  0  0
   34.9413   -2.8979   -8.1427 H   0  0  0  0  0  0  0  0  0  0  0  0
   35.6615   -4.4782  -10.4585 H   0  0  0  0  0  0  0  0  0  0  0  0
   35.9443   -1.4237  -10.4896 H   0  0  0  0  0  0  0  0  0  0  0  0
   35.5051   -3.6440  -12.6075 H   0  0  0  0  0  0  0  0  0  0  0  0
   35.0137   -0.8059  -14.6977 H   0  0  0  0  0  0  0  0  0  0  0  0
   35.9762    0.9990  -11.5954 H   0  0  0  0  0  0  0  0  0  0  0  0
   35.1262    3.1845  -11.0092 H   0  0  0  0  0  0  0  0  0  0  0  0
   32.3213    2.8122  -14.4797 H   0  0  0  0  0  0  0  0  0  0  0  0
   33.2996    0.6424  -14.9003 H   0  0  0  0  0  0  0  0  0  0  0  0
   37.0984   -0.0428  -12.5968 H   0  0  0  0  0  0  0  0  0  0  0  0
   38.3370    0.1650  -14.1290 H   0  0  0  0  0  0  0  0  0  0  0  0
   37.8885   -2.4512  -12.5745 H   0  0  0  0  0  0  0  0  0  0  0  0
   36.1570   -3.0010  -14.7330 H   0  0  0  0  0  0  0  0  0  0  0  0
   40.2541   -2.4901   -8.5031 H   0  0  0  0  0  0  0  0  0  0  0  0
   41.7324    0.8394   -6.1371 H   0  0  0  0  0  0  0  0  0  0  0  0
   40.3390    1.5740   -4.5280 H   0  0  0  0  0  0  0  0  0  0  0  0
   37.0010   -0.2820   -5.4530 H   0  0  0  0  0  0  0  0  0  0  0  0
  1  2  2  0
  2  3  1  0
  3  4  1  0
  4  5  1  0
  5  6  2  0
  6  7  1  0
  7  8  1  0
  8  9  1  0
  9 10  1  0
 10 11  1  0
 11 12  2  0
 12 13  1  0
 13 14  2  0
 13 15  1  0
 15 16  2  0
  9 17  1  0
 17 18  1  0
 17 19  1  0
 19 20  1  0
  2 21  1  0
 21 22  2  0
 22 23  1  0
 23 24  1  0
 24 25  2  0
 24 26  1  0
 23 27  2  0
 27 28  1  0
 28 29  1  0
 28 30  2  0
 30 31  1  0
 19  7  1  0
 30 21  1  0
 16 10  1  0
  3 32  1  0
  4 33  1  0
  4 34  1  0
  5 35  1  0
  6 36  1  0
  7 37  1  1
  9 38  1  6
 11 39  1  0
 12 40  1  0
 15 41  1  0
 16 42  1  0
 17 43  1  1
 18 44  1  0
 19 45  1  1
 20 46  1  0
 22 47  1  0
 27 48  1  0
 29 49  1  0
 31 50  1  0
M  CHG  2  24   1  26  -1
M  END
>  <meeko>  (4) 
{"is_sidechain": [false], "free_energy": -7.807, "intermolecular_energy": -11.15, "internal_energy": -1.099}

$$$$
3ozt_ligand
     RDKit          3D

 50 52  0  0  0  0  0  0  0  0999 V2000
   39.0980   -3.5130   -7.0440 O   0  0  0  0  0  0  0  0  0  0  0  0
   38.2190   -2.8750   -6.4720 C   0  0  0  0  0  0  0  0  0  0  0  0
   36.9270   -2.7730   -6.9390 N   0  0  0  0  0  0  0  0  0  0  0  0
   36.5030   -3.4620   -8.1350 C   0  0  0  0  0  0  0  0  0  0  0  0
   36.6590   -2.5110   -9.2810 C   0  0  0  0  0  0  0  0  0  0  0  0
   35.9000   -2.5210  -10.3900 C   0  0  0  0  0  0  0  0  0  0  0  0
   36.0840   -1.5700  -11.5400 C   0  0  1  0  0  0  0  0  0  0  0  0
   37.4980   -1.4200  -11.7490 O   0  0  0  0  0  0  0  0  0  0  0  0
   37.8420   -2.0020  -13.0230 C   0  0  1  0  0  0  0  0  0  0  0  0
   39.0740   -2.8250  -12.9390 N   0  0  0  0  0  0  0  0  0  0  0  0
   39.6900   -3.3780  -14.0590 C   0  0  0  0  0  0  0  0  0  0  0  0
   40.8050   -4.1180  -14.0250 C   0  0  0  0  0  0  0  0  0  0  0  0
   41.4330   -4.3730  -12.7070 C   0  0  0  0  0  0  0  0  0  0  0  0
   42.4610   -5.0350  -12.6100 O   0  0  0  0  0  0  0  0  0  0  0  0
   40.7740   -3.7960  -11.5150 C   0  0  0  0  0  0  0  0  0  0  0  0
   39.6600   -3.0750  -11.6990 C   0  0  0  0  0  0  0  0  0  0  0  0
   36.6330   -2.8420  -13.4720 C   0  0  2  0  0  0  0  0  0  0  0  0
   36.4770   -2.9370  -14.8910 O   0  0  0  0  0  0  0  0  0  0  0  0
   35.4810   -2.0750  -12.8510 C   0  0  2  0  0  0  0  0  0  0  0  0
   35.1480   -0.9850  -13.7320 O   0  0  0  0  0  0  0  0  0  0  0  0
   38.5350   -2.2140   -5.1750 C   0  0  0  0  0  0  0  0  0  0  0  0
   38.1300   -0.8970   -4.9160 C   0  0  0  0  0  0  0  0  0  0  0  0
   38.4360   -0.3080   -3.6780 C   0  0  0  0  0  0  0  0  0  0  0  0
   38.0010    1.0680   -3.4070 N   0  0  0  0  0  0  0  0  0  0  0  0
   37.8470    1.8200   -4.3800 O   0  0  0  0  0  0  0  0  0  0  0  0
   37.8110    1.3910   -2.2260 O   0  0  0  0  0  0  0  0  0  0  0  0
   39.1480   -1.0100   -2.6980 C   0  0  0  0  0  0  0  0  0  0  0  0
   39.5640   -2.3090   -2.9720 C   0  0  0  0  0  0  0  0  0  0  0  0
   40.2720   -3.0130   -2.0380 O   0  0  0  0  0  0  0  0  0  0  0  0
   39.2730   -2.9110   -4.2030 C   0  0  0  0  0  0  0  0  0  0  0  0
   39.7300   -4.1880   -4.4090 O   0  0  0  0  0  0  0  0  0  0  0  0
   36.1910   -2.4470   -6.3280 H   0  0  0  0  0  0  0  0  0  0  0  0
   37.1286   -4.3520   -8.2976 H   0  0  0  0  0  0  0  0  0  0  0  0
   35.4571   -3.7901   -8.0432 H   0  0  0  0  0  0  0  0  0  0  0  0
   37.4507   -1.7506   -9.2102 H   0  0  0  0  0  0  0  0  0  0  0  0
   35.0967   -3.2691  -10.4606 H   0  0  0  0  0  0  0  0  0  0  0  0
   35.5732   -0.6312  -11.2796 H   0  0  0  0  0  0  0  0  0  0  0  0
   38.0615   -1.2128  -13.7571 H   0  0  0  0  0  0  0  0  0  0  0  0
   39.2280   -3.1938  -15.0401 H   0  0  0  0  0  0  0  0  0  0  0  0
   41.2425   -4.5250  -14.9486 H   0  0  0  0  0  0  0  0  0  0  0  0
   41.1863   -3.9542  -10.5076 H   0  0  0  0  0  0  0  0  0  0  0  0
   39.1732   -2.6502  -10.8087 H   0  0  0  0  0  0  0  0  0  0  0  0
   36.7216   -3.8936  -13.1616 H   0  0  0  0  0  0  0  0  0  0  0  0
   36.5920   -3.8880  -15.1000 H   0  0  0  0  0  0  0  0  0  0  0  0
   34.5606   -2.6549  -12.6880 H   0  0  0  0  0  0  0  0  0  0  0  0
   35.9870   -0.6030  -14.0510 H   0  0  0  0  0  0  0  0  0  0  0  0
   37.5761   -0.3285   -5.6775 H   0  0  0  0  0  0  0  0  0  0  0  0
   39.3745   -0.5426   -1.7283 H   0  0  0  0  0  0  0  0  0  0  0  0
   39.8980   -2.8750   -1.1530 H   0  0  0  0  0  0  0  0  0  0  0  0
   38.9600   -4.7990   -4.4190 H   0  0  0  0  0  0  0  0  0  0  0  0
  1  2  2  0
  2  3  1  0
  3  4  1  0
  4  5  1  0
  5  6  2  0
  6  7  1  0
  7  8  1  0
  8  9  1  0
  9 10  1  0
 10 11  1  0
 11 12  2  0
 12 13  1  0
 13 14  2  0
 13 15  1  0
 15 16  2  0
  9 17  1  0
 17 18  1  0
 17 19  1  0
 19 20  1  0
  2 21  1  0
 21 22  2  0
 22 23  1  0
 23 24  1  0
 24 25  2  0
 24 26  1  0
 23 27  2  0
 27 28  1  0
 28 29  1  0
 28 30  2  0
 30 31  1  0
 19  7  1  0
 30 21  1  0
 16 10  1  0
  3 32  1  0
  4 33  1  0
  4 34  1  0
  5 35  1  0
  6 36  1  0
  7 37  1  1
  9 38  1  6
 11 39  1  0
 12 40  1  0
 15 41  1  0
 16 42  1  0
 17 43  1  1
 18 44  1  0
 19 45  1  1
 20 46  1  0
 22 47  1  0
 27 48  1  0
 29 49  1  0
 31 50  1  0
M  CHG  2  24   1  26  -1
M  END
>  <meeko>  (5) 
{"is_sidechain": [false], "free_energy": -7.637, "intermolecular_energy": -10.869, "internal_energy": -1.13}

$$$$
3ozt_ligand
     RDKit          3D

 50 52  0  0  0  0  0  0  0  0999 V2000
   37.4690   -3.6920   -6.4900 O   0  0  0  0  0  0  0  0  0  0  0  0
   38.3110   -4.5410   -6.2120 C   0  0  0  0  0  0  0  0  0  0  0  0
   39.6640   -4.2830   -6.1630 N   0  0  0  0  0  0  0  0  0  0  0  0
   40.1860   -2.9560   -6.3950 C   0  0  0  0  0  0  0  0  0  0  0  0
   40.9350   -2.9890   -7.6900 C   0  0  0  0  0  0  0  0  0  0  0  0
   40.3670   -2.8830   -8.9040 C   0  0  0  0  0  0  0  0  0  0  0  0
   41.1340   -2.9370  -10.1960 C   0  0  1  0  0  0  0  0  0  0  0  0
   40.2910   -3.5810  -11.1660 O   0  0  0  0  0  0  0  0  0  0  0  0
   39.9270   -2.6180  -12.1760 C   0  0  1  0  0  0  0  0  0  0  0  0
   38.4860   -2.6990  -12.5220 N   0  0  0  0  0  0  0  0  0  0  0  0
   37.4770   -2.6540  -11.5630 C   0  0  0  0  0  0  0  0  0  0  0  0
   36.1680   -2.7150  -11.8360 C   0  0  0  0  0  0  0  0  0  0  0  0
   35.7550   -2.8390  -13.2530 C   0  0  0  0  0  0  0  0  0  0  0  0
   34.5710   -2.8900  -13.5680 O   0  0  0  0  0  0  0  0  0  0  0  0
   36.8270   -2.8980  -14.2720 C   0  0  0  0  0  0  0  0  0  0  0  0
   38.0970   -2.8270  -13.8540 C   0  0  0  0  0  0  0  0  0  0  0  0
   40.2980   -1.2300  -11.6240 C   0  0  2  0  0  0  0  0  0  0  0  0
   40.6470   -0.2720  -12.6270 O   0  0  0  0  0  0  0  0  0  0  0  0
   41.4920   -1.5580  -10.7500 C   0  0  2  0  0  0  0  0  0  0  0  0
   42.6580   -1.6170  -11.5950 O   0  0  0  0  0  0  0  0  0  0  0  0
   37.8600   -5.9160   -5.8570 C   0  0  0  0  0  0  0  0  0  0  0  0
   38.6400   -6.7450   -5.0400 C   0  0  0  0  0  0  0  0  0  0  0  0
   38.1790   -8.0320   -4.7160 C   0  0  0  0  0  0  0  0  0  0  0  0
   38.9950   -8.8940   -3.8520 N   0  0  0  0  0  0  0  0  0  0  0  0
   40.2260   -8.8110   -3.9610 O   0  0  0  0  0  0  0  0  0  0  0  0
   38.4040   -9.6470   -3.0660 O   0  0  0  0  0  0  0  0  0  0  0  0
   36.9550   -8.5070   -5.2030 C   0  0  0  0  0  0  0  0  0  0  0  0
   36.1980   -7.6840   -6.0310 C   0  0  0  0  0  0  0  0  0  0  0  0
   35.0040   -8.1270   -6.5310 O   0  0  0  0  0  0  0  0  0  0  0  0
   36.6440   -6.4000   -6.3690 C   0  0  0  0  0  0  0  0  0  0  0  0
   35.8520   -5.6510   -7.2030 O   0  0  0  0  0  0  0  0  0  0  0  0
   40.2870   -4.9330   -5.7060 H   0  0  0  0  0  0  0  0  0  0  0  0
   39.3596   -2.2326   -6.4571 H   0  0  0  0  0  0  0  0  0  0  0  0
   40.8480   -2.6499   -5.5715 H   0  0  0  0  0  0  0  0  0  0  0  0
   42.0276   -3.1084   -7.6456 H   0  0  0  0  0  0  0  0  0  0  0  0
   39.2764   -2.7488   -8.9550 H   0  0  0  0  0  0  0  0  0  0  0  0
   42.0754   -3.4719  -10.0018 H   0  0  0  0  0  0  0  0  0  0  0  0
   40.4681   -2.8214  -13.1119 H   0  0  0  0  0  0  0  0  0  0  0  0
   37.7765   -2.5620  -10.5086 H   0  0  0  0  0  0  0  0  0  0  0  0
   35.4199   -2.6742  -11.0305 H   0  0  0  0  0  0  0  0  0  0  0  0
   36.5874   -2.9972  -15.3410 H   0  0  0  0  0  0  0  0  0  0  0  0
   38.8892   -2.8729  -14.6158 H   0  0  0  0  0  0  0  0  0  0  0  0
   39.4531   -0.7509  -11.1077 H   0  0  0  0  0  0  0  0  0  0  0  0
   39.8740    0.3290  -12.6900 H   0  0  0  0  0  0  0  0  0  0  0  0
   41.7046   -0.8326   -9.9508 H   0  0  0  0  0  0  0  0  0  0  0  0
   42.4060   -1.2470  -12.4620 H   0  0  0  0  0  0  0  0  0  0  0  0
   39.6073   -6.3904   -4.6546 H   0  0  0  0  0  0  0  0  0  0  0  0
   36.5984   -9.5127   -4.9358 H   0  0  0  0  0  0  0  0  0  0  0  0
   34.8000   -7.6800   -7.3670 H   0  0  0  0  0  0  0  0  0  0  0  0
   36.1450   -4.7150   -7.1560 H   0  0  0  0  0  0  0  0  0  0  0  0
  1  2  2  0
  2  3  1  0
  3  4  1  0
  4  5  1  0
  5  6  2  0
  6  7  1  0
  7  8  1  0
  8  9  1  0
  9 10  1  0
 10 11  1  0
 11 12  2  0
 12 13  1  0
 13 14  2  0
 13 15  1  0
 15 16  2  0
  9 17  1  0
 17 18  1  0
 17 19  1  0
 19 20  1  0
  2 21  1  0
 21 22  2  0
 22 23  1  0
 23 24  1  0
 24 25  2  0
 24 26  1  0
 23 27  2  0
 27 28  1  0
 28 29  1  0
 28 30  2  0
 30 31  1  0
 19  7  1  0
 30 21  1  0
 16 10  1  0
  3 32  1  0
  4 33  1  0
  4 34  1  0
  5 35  1  0
  6 36  1  0
  7 37  1  1
  9 38  1  6
 11 39  1  0
 12 40  1  0
 15 41  1  0
 16 42  1  0
 17 43  1  1
 18 44  1  0
 19 45  1  1
 20 46  1  0
 22 47  1  0
 27 48  1  0
 29 49  1  0
 31 50  1  0
M  CHG  2  24   1  26  -1
M  END
>  <meeko>  (6) 
{"is_sidechain": [false], "free_energy": -7.523, "intermolecular_energy": -10.662, "internal_energy": -1.169}

$$$$
3ozt_ligand
     RDKit          3D

 50 52  0  0  0  0  0  0  0  0999 V2000
   37.3830   -1.5260   -6.1470 O   0  0  0  0  0  0  0  0  0  0  0  0
   38.0950   -2.1730   -6.9100 C   0  0  0  0  0  0  0  0  0  0  0  0
   37.6040   -2.9220   -7.9560 N   0  0  0  0  0  0  0  0  0  0  0  0
   36.1930   -2.9590   -8.2590 C   0  0  0  0  0  0  0  0  0  0  0  0
   36.0560   -3.1980   -9.7300 C   0  0  0  0  0  0  0  0  0  0  0  0
   36.1390   -2.2400  -10.6700 C   0  0  0  0  0  0  0  0  0  0  0  0
   35.9800   -2.4950  -12.1430 C   0  0  1  0  0  0  0  0  0  0  0  0
   34.8780   -1.6930  -12.6000 O   0  0  0  0  0  0  0  0  0  0  0  0
   35.3820   -0.6780  -13.4910 C   0  0  1  0  0  0  0  0  0  0  0  0
   34.7800    0.6490  -13.2120 N   0  0  0  0  0  0  0  0  0  0  0  0
   35.1930    1.4580  -12.1560 C   0  0  0  0  0  0  0  0  0  0  0  0
   34.6810    2.6630  -11.8780 C   0  0  0  0  0  0  0  0  0  0  0  0
   33.5990    3.1800  -12.7480 C   0  0  0  0  0  0  0  0  0  0  0  0
   33.0960    4.2810  -12.5520 O   0  0  0  0  0  0  0  0  0  0  0  0
   33.1520    2.3170  -13.8650 C   0  0  0  0  0  0  0  0  0  0  0  0
   33.7540    1.1320  -14.0240 C   0  0  0  0  0  0  0  0  0  0  0  0
   36.9120   -0.6500  -13.3180 C   0  0  2  0  0  0  0  0  0  0  0  0
   37.6290   -0.2550  -14.4910 O   0  0  0  0  0  0  0  0  0  0  0  0
   37.2050   -2.0960  -12.9660 C   0  0  2  0  0  0  0  0  0  0  0  0
   37.2810   -2.8450  -14.1950 O   0  0  0  0  0  0  0  0  0  0  0  0
   39.5740   -2.1150   -6.7390 C   0  0  0  0  0  0  0  0  0  0  0  0
   40.1610   -2.2060   -5.4690 C   0  0  0  0  0  0  0  0  0  0  0  0
   41.5590   -2.1590   -5.3470 C   0  0  0  0  0  0  0  0  0  0  0  0
   42.1700   -2.2650   -4.0160 N   0  0  0  0  0  0  0  0  0  0  0  0
   41.4240   -2.5390   -3.0650 O   0  0  0  0  0  0  0  0  0  0  0  0
   43.3910   -2.0780   -3.9250 O   0  0  0  0  0  0  0  0  0  0  0  0
   42.3810   -2.0130   -6.4710 C   0  0  0  0  0  0  0  0  0  0  0  0
   41.7880   -1.9010   -7.7250 C   0  0  0  0  0  0  0  0  0  0  0  0
   42.5660   -1.7450   -8.8390 O   0  0  0  0  0  0  0  0  0  0  0  0
   40.3960   -1.9410   -7.8660 C   0  0  0  0  0  0  0  0  0  0  0  0
   39.8810   -1.8090   -9.1320 O   0  0  0  0  0  0  0  0  0  0  0  0
   38.2250   -3.2370   -8.6880 H   0  0  0  0  0  0  0  0  0  0  0  0
   35.7097   -3.7734   -7.6994 H   0  0  0  0  0  0  0  0  0  0  0  0
   35.7100   -2.0130   -7.9731 H   0  0  0  0  0  0  0  0  0  0  0  0
   35.8747   -4.2297  -10.0658 H   0  0  0  0  0  0  0  0  0  0  0  0
   36.3349   -1.2086  -10.3417 H   0  0  0  0  0  0  0  0  0  0  0  0
   35.8264   -3.5758  -12.2781 H   0  0  0  0  0  0  0  0  0  0  0  0
   35.1124   -0.9141  -14.5310 H   0  0  0  0  0  0  0  0  0  0  0  0
   35.9956    1.0804  -11.5054 H   0  0  0  0  0  0  0  0  0  0  0  0
   35.0531    3.2529  -11.0274 H   0  0  0  0  0  0  0  0  0  0  0  0
   32.3491    2.6400  -14.5440 H   0  0  0  0  0  0  0  0  0  0  0  0
   33.4156    0.4940  -14.8537 H   0  0  0  0  0  0  0  0  0  0  0  0
   37.2310    0.0917  -12.5710 H   0  0  0  0  0  0  0  0  0  0  0  0
   37.8500    0.6910  -14.3510 H   0  0  0  0  0  0  0  0  0  0  0  0
   38.1447   -2.2683  -12.4207 H   0  0  0  0  0  0  0  0  0  0  0  0
   37.4560   -3.7740  -13.9570 H   0  0  0  0  0  0  0  0  0  0  0  0
   39.5305   -2.3135   -4.5741 H   0  0  0  0  0  0  0  0  0  0  0  0
   43.4756   -1.9873   -6.3648 H   0  0  0  0  0  0  0  0  0  0  0  0
   42.1380   -2.1470   -9.6110 H   0  0  0  0  0  0  0  0  0  0  0  0
   40.3600   -1.0850   -9.5910 H   0  0  0  0  0  0  0  0  0  0  0  0
  1  2  2  0
  2  3  1  0
  3  4  1  0
  4  5  1  0
  5  6  2  0
  6  7  1  0
  7  8  1  0
  8  9  1  0
  9 10  1  0
 10 11  1  0
 11 12  2  0
 12 13  1  0
 13 14  2  0
 13 15  1  0
 15 16  2  0
  9 17  1  0
 17 18  1  0
 17 19  1  0
 19 20  1  0
  2 21  1  0
 21 22  2  0
 22 23  1  0
 23 24  1  0
 24 25  2  0
 24 26  1  0
 23 27  2  0
 27 28  1  0
 28 29  1  0
 28 30  2  0
 30 31  1  0
 19  7  1  0
 30 21  1  0
 16 10  1  0
  3 32  1  0
  4 33  1  0
  4 34  1  0
  5 35  1  0
  6 36  1  0
  7 37  1  1
  9 38  1  6
 11 39  1  0
 12 40  1  0
 15 41  1  0
 16 42  1  0
 17 43  1  1
 18 44  1  0
 19 45  1  1
 20 46  1  0
 22 47  1  0
 27 48  1  0
 29 49  1  0
 31 50  1  0
M  CHG  2  24   1  26  -1
M  END
>  <meeko>  (7) 
{"is_sidechain": [false], "free_energy": -7.446, "intermolecular_energy": -10.586, "internal_energy": -1.132}

$$$$
