4qac_ligand
     RDKit          3D

 43 45  0  0  0  0  0  0  0  0999 V2000
  -40.6810  -28.2440    0.7560 C   0  0  0  0  0  0  0  0  0  0  0  0
  -41.0150  -27.2570    1.8750 C   0  0  0  0  0  0  0  0  0  0  0  0
  -40.6490  -27.8530    3.2440 C   0  0  0  0  0  0  0  0  0  0  0  0
  -41.5600  -27.3250    4.3510 C   0  0  0  0  0  0  0  0  0  0  0  0
  -42.9410  -27.7270    4.0720 N   0  0  0  0  0  0  0  0  0  0  0  0
  -43.8610  -27.4980    5.0970 C   0  0  0  0  0  0  0  0  0  0  0  0
  -45.2190  -27.6370    4.8740 C   0  0  0  0  0  0  0  0  0  0  0  0
  -46.0770  -27.4040    5.9320 C   0  0  0  0  0  0  0  0  0  0  0  0
  -47.5470  -27.5190    5.8140 C   0  0  0  0  0  0  0  0  0  0  0  0
  -48.3660  -26.3800    5.9210 C   0  0  0  0  0  0  0  0  0  0  0  0
  -49.7590  -26.4650    5.8080 C   0  0  0  0  0  0  0  0  0  0  0  0
  -50.3790  -27.7000    5.5820 C   0  0  0  0  0  0  0  0  0  0  0  0
  -51.8820  -27.8000    5.4840 C   0  0  0  0  0  0  0  0  0  0  0  0
  -52.4650  -26.6050    5.1970 F   0  0  0  0  0  0  0  0  0  0  0  0
  -52.3000  -28.6630    4.5170 F   0  0  0  0  0  0  0  0  0  0  0  0
  -52.4620  -28.2310    6.6390 F   0  0  0  0  0  0  0  0  0  0  0  0
  -49.5800  -28.8450    5.4920 C   0  0  0  0  0  0  0  0  0  0  0  0
  -48.1860  -28.7540    5.6060 C   0  0  0  0  0  0  0  0  0  0  0  0
  -45.6170  -27.0450    7.1470 N   0  0  0  0  0  0  0  0  0  0  0  0
  -44.2960  -26.9760    7.2910 C   0  0  0  0  0  0  0  0  0  0  0  0
  -43.8120  -26.6150    8.5310 N   0  0  0  0  0  0  0  0  0  0  0  0
  -43.4070  -27.1770    6.3200 N   0  0  0  0  0  0  0  0  0  0  0  0
  -43.4020  -27.6790    2.6800 C   0  0  0  0  0  0  0  0  0  0  0  0
  -42.4850  -26.8120    1.8170 C   0  0  0  0  0  0  0  0  0  0  0  0
  -40.3576  -29.1996    1.1944 H   0  0  0  0  0  0  0  0  0  0  0  0
  -41.5733  -28.4091    0.1343 H   0  0  0  0  0  0  0  0  0  0  0  0
  -39.8718  -27.8333    0.1343 H   0  0  0  0  0  0  0  0  0  0  0  0
  -40.4068  -26.3523    1.7279 H   0  0  0  0  0  0  0  0  0  0  0  0
  -40.7461  -28.9476    3.1939 H   0  0  0  0  0  0  0  0  0  0  0  0
  -39.6156  -27.5598    3.4808 H   0  0  0  0  0  0  0  0  0  0  0  0
  -41.2436  -27.7427    5.3182 H   0  0  0  0  0  0  0  0  0  0  0  0
  -41.4956  -26.2276    4.3902 H   0  0  0  0  0  0  0  0  0  0  0  0
  -45.6043  -27.9243    3.8846 H   0  0  0  0  0  0  0  0  0  0  0  0
  -47.9007  -25.3990    6.0977 H   0  0  0  0  0  0  0  0  0  0  0  0
  -50.3707  -25.5551    5.8974 H   0  0  0  0  0  0  0  0  0  0  0  0
  -50.0504  -29.8261    5.3302 H   0  0  0  0  0  0  0  0  0  0  0  0
  -47.5790  -29.6683    5.5311 H   0  0  0  0  0  0  0  0  0  0  0  0
  -42.8730  -26.2560    8.4360 H   0  0  0  0  0  0  0  0  0  0  0  0
  -44.4900  -26.0360    9.0060 H   0  0  0  0  0  0  0  0  0  0  0  0
  -43.4160  -28.7006    2.2724 H   0  0  0  0  0  0  0  0  0  0  0  0
  -44.4097  -27.2381    2.6646 H   0  0  0  0  0  0  0  0  0  0  0  0
  -42.8282  -26.8684    0.7734 H   0  0  0  0  0  0  0  0  0  0  0  0
  -42.5355  -25.7854    2.2088 H   0  0  0  0  0  0  0  0  0  0  0  0
  1  2  1  0
  2  3  1  0
  3  4  1  0
  4  5  1  0
  5  6  1  0
  6  7  2  0
  7  8  1  0
  8  9  1  0
  9 10  2  0
 10 11  1  0
 11 12  2  0
 12 13  1  0
 13 14  1  0
 13 15  1  0
 13 16  1  0
 12 17  1  0
 17 18  2  0
  8 19  2  0
 19 20  1  0
 20 21  1  0
 20 22  2  0
  5 23  1  0
 23 24  1  0
 24  2  1  0
 22  6  1  0
 18  9  1  0
  1 25  1  0
  1 26  1  0
  1 27  1  0
  2 28  1  0
  3 29  1  0
  3 30  1  0
  4 31  1  0
  4 32  1  0
  7 33  1  0
 10 34  1  0
 11 35  1  0
 17 36  1  0
 18 37  1  0
 21 38  1  0
 21 39  1  0
 23 40  1  0
 23 41  1  0
 24 42  1  0
 24 43  1  0
M  END
>  <meeko>  (1) 
{"is_sidechain": [false], "free_energy": -10.732, "intermolecular_energy": -12.928, "internal_energy": -0.663}

$$$$
4qac_ligand
     RDKit          3D

 43 45  0  0  0  0  0  0  0  0999 V2000
  -40.1310  -26.6690    1.2470 C   0  0  0  0  0  0  0  0  0  0  0  0
  -41.0330  -27.6330    2.0190 C   0  0  0  0  0  0  0  0  0  0  0  0
  -42.5080  -27.3930    1.6590 C   0  0  0  0  0  0  0  0  0  0  0  0
  -43.4360  -27.7320    2.8240 C   0  0  0  0  0  0  0  0  0  0  0  0
  -43.1290  -26.8530    3.9570 N   0  0  0  0  0  0  0  0  0  0  0  0
  -44.0280  -26.9000    5.0240 C   0  0  0  0  0  0  0  0  0  0  0  0
  -45.3750  -27.1270    4.8070 C   0  0  0  0  0  0  0  0  0  0  0  0
  -46.2110  -27.1700    5.9070 C   0  0  0  0  0  0  0  0  0  0  0  0
  -47.6680  -27.4030    5.7980 C   0  0  0  0  0  0  0  0  0  0  0  0
  -48.5740  -26.3320    5.8930 C   0  0  0  0  0  0  0  0  0  0  0  0
  -49.9570  -26.5290    5.7900 C   0  0  0  0  0  0  0  0  0  0  0  0
  -50.4780  -27.8120    5.5850 C   0  0  0  0  0  0  0  0  0  0  0  0
  -51.9680  -28.0330    5.4970 C   0  0  0  0  0  0  0  0  0  0  0  0
  -52.4740  -28.6200    6.6160 F   0  0  0  0  0  0  0  0  0  0  0  0
  -52.6720  -26.8790    5.3280 F   0  0  0  0  0  0  0  0  0  0  0  0
  -52.3250  -28.8390    4.4580 F   0  0  0  0  0  0  0  0  0  0  0  0
  -49.5900  -28.8920    5.5070 C   0  0  0  0  0  0  0  0  0  0  0  0
  -48.2080  -28.6890    5.6120 C   0  0  0  0  0  0  0  0  0  0  0  0
  -45.7410  -26.9910    7.1560 N   0  0  0  0  0  0  0  0  0  0  0  0
  -44.4280  -26.8210    7.2850 C   0  0  0  0  0  0  0  0  0  0  0  0
  -43.9340  -26.6420    8.5600 N   0  0  0  0  0  0  0  0  0  0  0  0
  -43.5600  -26.7600    6.2760 N   0  0  0  0  0  0  0  0  0  0  0  0
  -41.7200  -26.5480    4.2280 C   0  0  0  0  0  0  0  0  0  0  0  0
  -40.7900  -27.5430    3.5340 C   0  0  0  0  0  0  0  0  0  0  0  0
  -39.5571  -26.0556    1.9572 H   0  0  0  0  0  0  0  0  0  0  0  0
  -39.4378  -27.2427    0.6143 H   0  0  0  0  0  0  0  0  0  0  0  0
  -40.7494  -26.0154    0.6143 H   0  0  0  0  0  0  0  0  0  0  0  0
  -40.7758  -28.6597    1.7193 H   0  0  0  0  0  0  0  0  0  0  0  0
  -42.6423  -26.3342    1.3927 H   0  0  0  0  0  0  0  0  0  0  0  0
  -42.7656  -28.0478    0.8135 H   0  0  0  0  0  0  0  0  0  0  0  0
  -44.4817  -27.5840    2.5164 H   0  0  0  0  0  0  0  0  0  0  0  0
  -43.2892  -28.7812    3.1200 H   0  0  0  0  0  0  0  0  0  0  0  0
  -45.7691  -27.2690    3.7899 H   0  0  0  0  0  0  0  0  0  0  0  0
  -48.1873  -25.3146    6.0521 H   0  0  0  0  0  0  0  0  0  0  0  0
  -50.6385  -25.6694    5.8708 H   0  0  0  0  0  0  0  0  0  0  0  0
  -49.9815  -29.9097    5.3619 H   0  0  0  0  0  0  0  0  0  0  0  0
  -47.5305  -29.5532    5.5477 H   0  0  0  0  0  0  0  0  0  0  0  0
  -44.6450  -26.2210    9.1420 H   0  0  0  0  0  0  0  0  0  0  0  0
  -43.5080  -27.4990    8.8840 H   0  0  0  0  0  0  0  0  0  0  0  0
  -41.4966  -25.5347    3.8628 H   0  0  0  0  0  0  0  0  0  0  0  0
  -41.5534  -26.6176    5.3131 H   0  0  0  0  0  0  0  0  0  0  0  0
  -39.7497  -27.2287    3.7045 H   0  0  0  0  0  0  0  0  0  0  0  0
  -40.9927  -28.5366    3.9602 H   0  0  0  0  0  0  0  0  0  0  0  0
  1  2  1  0
  2  3  1  0
  3  4  1  0
  4  5  1  0
  5  6  1  0
  6  7  2  0
  7  8  1  0
  8  9  1  0
  9 10  2  0
 10 11  1  0
 11 12  2  0
 12 13  1  0
 13 14  1  0
 13 15  1  0
 13 16  1  0
 12 17  1  0
 17 18  2  0
  8 19  2  0
 19 20  1  0
 20 21  1  0
 20 22  2  0
  5 23  1  0
 23 24  1  0
 24  2  1  0
 22  6  1  0
 18  9  1  0
  1 25  1  0
  1 26  1  0
  1 27  1  0
  2 28  1  0
  3 29  1  0
  3 30  1  0
  4 31  1  0
  4 32  1  0
  7 33  1  0
 10 34  1  0
 11 35  1  0
 17 36  1  0
 18 37  1  0
 21 38  1  0
 21 39  1  0
 23 40  1  0
 23 41  1  0
 24 42  1  0
 24 43  1  0
M  END
>  <meeko>  (2) 
{"is_sidechain": [false], "free_energy": -10.512, "intermolecular_energy": -12.659, "internal_energy": -0.667}

$$$$
4qac_ligand
     RDKit          3D

 43 45  0  0  0  0  0  0  0  0999 V2000
  -39.5750  -24.7370    8.7050 C   0  0  0  0  0  0  0  0  0  0  0  0
  -39.8250  -25.3270    7.3160 C   0  0  0  0  0  0  0  0  0  0  0  0
  -40.7370  -24.4010    6.4950 C   0  0  0  0  0  0  0  0  0  0  0  0
  -41.5840  -25.1860    5.4940 C   0  0  0  0  0  0  0  0  0  0  0  0
  -42.4630  -26.1050    6.2230 N   0  0  0  0  0  0  0  0  0  0  0  0
  -43.4440  -26.7430    5.4600 C   0  0  0  0  0  0  0  0  0  0  0  0
  -44.7670  -26.7370    5.8600 C   0  0  0  0  0  0  0  0  0  0  0  0
  -45.6910  -27.3790    5.0560 C   0  0  0  0  0  0  0  0  0  0  0  0
  -47.1320  -27.4400    5.3820 C   0  0  0  0  0  0  0  0  0  0  0  0
  -47.8150  -28.6700    5.3840 C   0  0  0  0  0  0  0  0  0  0  0  0
  -49.1780  -28.7520    5.6930 C   0  0  0  0  0  0  0  0  0  0  0  0
  -49.9050  -27.5990    6.0120 C   0  0  0  0  0  0  0  0  0  0  0  0
  -51.3790  -27.6800    6.3220 C   0  0  0  0  0  0  0  0  0  0  0  0
  -51.6430  -28.4700    7.3980 F   0  0  0  0  0  0  0  0  0  0  0  0
  -51.9360  -26.4680    6.6020 F   0  0  0  0  0  0  0  0  0  0  0  0
  -52.1110  -28.1930    5.2930 F   0  0  0  0  0  0  0  0  0  0  0  0
  -49.2440  -26.3650    5.9960 C   0  0  0  0  0  0  0  0  0  0  0  0
  -47.8800  -26.2890    5.6860 C   0  0  0  0  0  0  0  0  0  0  0  0
  -45.3230  -28.0010    3.9190 N   0  0  0  0  0  0  0  0  0  0  0  0
  -44.0380  -27.9250    3.5820 C   0  0  0  0  0  0  0  0  0  0  0  0
  -43.6500  -28.5530    2.4170 N   0  0  0  0  0  0  0  0  0  0  0  0
  -43.0890  -27.3330    4.3060 N   0  0  0  0  0  0  0  0  0  0  0  0
  -41.9130  -26.7970    7.3950 C   0  0  0  0  0  0  0  0  0  0  0  0
  -40.3860  -26.7560    7.4020 C   0  0  0  0  0  0  0  0  0  0  0  0
  -39.8825  -25.4627    9.4724 H   0  0  0  0  0  0  0  0  0  0  0  0
  -38.5044  -24.5124    8.8207 H   0  0  0  0  0  0  0  0  0  0  0  0
  -40.1583  -23.8116    8.8207 H   0  0  0  0  0  0  0  0  0  0  0  0
  -38.8595  -25.3983    6.7937 H   0  0  0  0  0  0  0  0  0  0  0  0
  -41.4055  -23.8595    7.1805 H   0  0  0  0  0  0  0  0  0  0  0  0
  -40.1001  -23.7025    5.9325 H   0  0  0  0  0  0  0  0  0  0  0  0
  -42.1925  -24.4883    4.9000 H   0  0  0  0  0  0  0  0  0  0  0  0
  -40.9270  -25.7577    4.8221 H   0  0  0  0  0  0  0  0  0  0  0  0
  -45.0756  -26.2367    6.7898 H   0  0  0  0  0  0  0  0  0  0  0  0
  -47.2646  -29.5897    5.1367 H   0  0  0  0  0  0  0  0  0  0  0  0
  -49.6816  -29.7299    5.6851 H   0  0  0  0  0  0  0  0  0  0  0  0
  -49.8013  -25.4458    6.2292 H   0  0  0  0  0  0  0  0  0  0  0  0
  -47.3834  -25.3075    5.6803 H   0  0  0  0  0  0  0  0  0  0  0  0
  -44.0100  -29.4980    2.4070 H   0  0  0  0  0  0  0  0  0  0  0  0
  -43.8600  -27.9630    1.6260 H   0  0  0  0  0  0  0  0  0  0  0  0
  -42.2881  -26.3095    8.3069 H   0  0  0  0  0  0  0  0  0  0  0  0
  -42.2304  -27.8495    7.3556 H   0  0  0  0  0  0  0  0  0  0  0  0
  -40.0268  -27.2185    8.3331 H   0  0  0  0  0  0  0  0  0  0  0  0
  -40.0372  -27.3014    6.5127 H   0  0  0  0  0  0  0  0  0  0  0  0
  1  2  1  0
  2  3  1  0
  3  4  1  0
  4  5  1  0
  5  6  1  0
  6  7  2  0
  7  8  1  0
  8  9  1  0
  9 10  2  0
 10 11  1  0
 11 12  2  0
 12 13  1  0
 13 14  1  0
 13 15  1  0
 13 16  1  0
 12 17  1  0
 17 18  2  0
  8 19  2  0
 19 20  1  0
 20 21  1  0
 20 22  2  0
  5 23  1  0
 23 24  1  0
 24  2  1  0
 22  6  1  0
 18  9  1  0
  1 25  1  0
  1 26  1  0
  1 27  1  0
  2 28  1  0
  3 29  1  0
  3 30  1  0
  4 31  1  0
  4 32  1  0
  7 33  1  0
 10 34  1  0
 11 35  1  0
 17 36  1  0
 18 37  1  0
 21 38  1  0
 21 39  1  0
 23 40  1  0
 23 41  1  0
 24 42  1  0
 24 43  1  0
M  END
>  <meeko>  (3) 
{"is_sidechain": [false], "free_energy": -9.923, "intermolecular_energy": -11.981, "internal_energy": -0.635}

$$$$
4qac_ligand
     RDKit          3D

 43 45  0  0  0  0  0  0  0  0999 V2000
  -44.4670  -28.3050    6.8360 C   0  0  0  0  0  0  0  0  0  0  0  0
  -45.7950  -28.2590    7.5930 C   0  0  0  0  0  0  0  0  0  0  0  0
  -46.7240  -29.3880    7.1170 C   0  0  0  0  0  0  0  0  0  0  0  0
  -48.1960  -28.9970    7.2380 C   0  0  0  0  0  0  0  0  0  0  0  0
  -48.4600  -27.8410    6.3750 N   0  0  0  0  0  0  0  0  0  0  0  0
  -49.8030  -27.4940    6.2170 C   0  0  0  0  0  0  0  0  0  0  0  0
  -50.8040  -28.2650    6.7790 C   0  0  0  0  0  0  0  0  0  0  0  0
  -52.1140  -27.8620    6.5930 C   0  0  0  0  0  0  0  0  0  0  0  0
  -53.2680  -28.6060    7.1430 C   0  0  0  0  0  0  0  0  0  0  0  0
  -54.3400  -28.9810    6.3140 C   0  0  0  0  0  0  0  0  0  0  0  0
  -55.4400  -29.6900    6.8120 C   0  0  0  0  0  0  0  0  0  0  0  0
  -55.5020  -30.0470    8.1640 C   0  0  0  0  0  0  0  0  0  0  0  0
  -56.6960  -30.7890    8.7110 C   0  0  0  0  0  0  0  0  0  0  0  0
  -57.6840  -29.9510    9.1280 F   0  0  0  0  0  0  0  0  0  0  0  0
  -57.2720  -31.6230    7.8010 F   0  0  0  0  0  0  0  0  0  0  0  0
  -56.3910  -31.5700    9.7850 F   0  0  0  0  0  0  0  0  0  0  0  0
  -54.4510  -29.6650    9.0070 C   0  0  0  0  0  0  0  0  0  0  0  0
  -53.3530  -28.9560    8.5030 C   0  0  0  0  0  0  0  0  0  0  0  0
  -52.4180  -26.7580    5.8840 N   0  0  0  0  0  0  0  0  0  0  0  0
  -51.3960  -26.0470    5.4130 C   0  0  0  0  0  0  0  0  0  0  0  0
  -51.6940  -24.9110    4.6890 N   0  0  0  0  0  0  0  0  0  0  0  0
  -50.1100  -26.3730    5.5430 N   0  0  0  0  0  0  0  0  0  0  0  0
  -47.4410  -26.7880    6.3070 C   0  0  0  0  0  0  0  0  0  0  0  0
  -46.4630  -26.8790    7.4780 C   0  0  0  0  0  0  0  0  0  0  0  0
  -43.6355  -28.3338    7.5556 H   0  0  0  0  0  0  0  0  0  0  0  0
  -44.4362  -29.2048    6.2039 H   0  0  0  0  0  0  0  0  0  0  0  0
  -44.3740  -27.4095    6.2039 H   0  0  0  0  0  0  0  0  0  0  0  0
  -45.5881  -28.4208    8.6612 H   0  0  0  0  0  0  0  0  0  0  0  0
  -46.5004  -29.6135    6.0638 H   0  0  0  0  0  0  0  0  0  0  0  0
  -46.5492  -30.2676    7.7540 H   0  0  0  0  0  0  0  0  0  0  0  0
  -48.8279  -29.8414    6.9255 H   0  0  0  0  0  0  0  0  0  0  0  0
  -48.4253  -28.7388    8.2824 H   0  0  0  0  0  0  0  0  0  0  0  0
  -50.5658  -29.1707    7.3561 H   0  0  0  0  0  0  0  0  0  0  0  0
  -54.3139  -28.7108    5.2480 H   0  0  0  0  0  0  0  0  0  0  0  0
  -56.2616  -29.9685    6.1356 H   0  0  0  0  0  0  0  0  0  0  0  0
  -54.4880  -29.9242   10.0754 H   0  0  0  0  0  0  0  0  0  0  0  0
  -52.5399  -28.6667    9.1851 H   0  0  0  0  0  0  0  0  0  0  0  0
  -51.8610  -24.1420    5.3220 H   0  0  0  0  0  0  0  0  0  0  0  0
  -51.0050  -24.7800    3.9630 H   0  0  0  0  0  0  0  0  0  0  0  0
  -46.8819  -26.8918    5.3654 H   0  0  0  0  0  0  0  0  0  0  0  0
  -47.9481  -25.8131    6.3556 H   0  0  0  0  0  0  0  0  0  0  0  0
  -45.6790  -26.1198    7.3405 H   0  0  0  0  0  0  0  0  0  0  0  0
  -47.0368  -26.7118    8.4014 H   0  0  0  0  0  0  0  0  0  0  0  0
  1  2  1  0
  2  3  1  0
  3  4  1  0
  4  5  1  0
  5  6  1  0
  6  7  2  0
  7  8  1  0
  8  9  1  0
  9 10  2  0
 10 11  1  0
 11 12  2  0
 12 13  1  0
 13 14  1  0
 13 15  1  0
 13 16  1  0
 12 17  1  0
 17 18  2  0
  8 19  2  0
 19 20  1  0
 20 21  1  0
 20 22  2  0
  5 23  1  0
 23 24  1  0
 24  2  1  0
 22  6  1  0
 18  9  1  0
  1 25  1  0
  1 26  1  0
  1 27  1  0
  2 28  1  0
  3 29  1  0
  3 30  1  0
  4 31  1  0
  4 32  1  0
  7 33  1  0
 10 34  1  0
 11 35  1  0
 17 36  1  0
 18 37  1  0
 21 38  1  0
 21 39  1  0
 23 40  1  0
 23 41  1  0
 24 42  1  0
 24 43  1  0
M  END
>  <meeko>  (4) 
{"is_sidechain": [false], "free_energy": -9.81, "intermolecular_energy": -11.79, "internal_energy": -0.69}

$$$$
4qac_ligand
     RDKit          3D

 43 45  0  0  0  0  0  0  0  0999 V2000
  -52.4070  -28.1980    5.1580 C   0  0  0  0  0  0  0  0  0  0  0  0
  -51.4410  -27.4730    6.0960 C   0  0  0  0  0  0  0  0  0  0  0  0
  -50.6410  -26.4100    5.3250 C   0  0  0  0  0  0  0  0  0  0  0  0
  -49.2560  -26.1960    5.9340 C   0  0  0  0  0  0  0  0  0  0  0  0
  -48.4920  -27.4440    5.8470 N   0  0  0  0  0  0  0  0  0  0  0  0
  -47.1380  -27.3530    6.1740 C   0  0  0  0  0  0  0  0  0  0  0  0
  -46.1650  -27.4690    5.1980 C   0  0  0  0  0  0  0  0  0  0  0  0
  -44.8420  -27.3610    5.5840 C   0  0  0  0  0  0  0  0  0  0  0  0
  -43.7160  -27.4700    4.6310 C   0  0  0  0  0  0  0  0  0  0  0  0
  -43.9540  -27.6800    3.2610 C   0  0  0  0  0  0  0  0  0  0  0  0
  -42.9040  -27.7830    2.3410 C   0  0  0  0  0  0  0  0  0  0  0  0
  -41.5740  -27.6760    2.7660 C   0  0  0  0  0  0  0  0  0  0  0  0
  -40.4390  -27.8100    1.7810 C   0  0  0  0  0  0  0  0  0  0  0  0
  -39.7870  -26.6340    1.5750 F   0  0  0  0  0  0  0  0  0  0  0  0
  -39.4870  -28.7010    2.1780 F   0  0  0  0  0  0  0  0  0  0  0  0
  -40.8480  -28.2320    0.5510 F   0  0  0  0  0  0  0  0  0  0  0  0
  -41.3200  -27.4860    4.1290 C   0  0  0  0  0  0  0  0  0  0  0  0
  -42.3750  -27.3850    5.0450 C   0  0  0  0  0  0  0  0  0  0  0  0
  -44.4980  -27.1550    6.8700 N   0  0  0  0  0  0  0  0  0  0  0  0
  -45.4940  -27.0120    7.7410 C   0  0  0  0  0  0  0  0  0  0  0  0
  -45.1550  -26.7960    9.0610 N   0  0  0  0  0  0  0  0  0  0  0  0
  -46.7900  -27.1100    7.4490 N   0  0  0  0  0  0  0  0  0  0  0  0
  -49.2020  -28.7020    6.1060 C   0  0  0  0  0  0  0  0  0  0  0  0
  -50.5230  -28.4600    6.8350 C   0  0  0  0  0  0  0  0  0  0  0  0
  -53.1474  -28.7537    5.7522 H   0  0  0  0  0  0  0  0  0  0  0  0
  -52.9234  -27.4626    4.5236 H   0  0  0  0  0  0  0  0  0  0  0  0
  -51.8451  -28.8992    4.5236 H   0  0  0  0  0  0  0  0  0  0  0  0
  -52.0316  -26.9564    6.8669 H   0  0  0  0  0  0  0  0  0  0  0  0
  -50.5252  -26.7379    4.2814 H   0  0  0  0  0  0  0  0  0  0  0  0
  -51.1912  -25.4591    5.3796 H   0  0  0  0  0  0  0  0  0  0  0  0
  -48.7299  -25.4035    5.3816 H   0  0  0  0  0  0  0  0  0  0  0  0
  -49.3582  -25.8985    6.9881 H   0  0  0  0  0  0  0  0  0  0  0  0
  -46.4358  -27.6420    4.1460 H   0  0  0  0  0  0  0  0  0  0  0  0
  -44.9908  -27.7654    2.9035 H   0  0  0  0  0  0  0  0  0  0  0  0
  -43.1253  -27.9492    1.2764 H   0  0  0  0  0  0  0  0  0  0  0  0
  -40.2815  -27.4153    4.4846 H   0  0  0  0  0  0  0  0  0  0  0  0
  -42.1494  -27.2360    6.1113 H   0  0  0  0  0  0  0  0  0  0  0  0
  -45.2110  -27.6660    9.5710 H   0  0  0  0  0  0  0  0  0  0  0  0
  -44.2900  -26.2780    9.1100 H   0  0  0  0  0  0  0  0  0  0  0  0
  -49.4090  -29.1995    5.1470 H   0  0  0  0  0  0  0  0  0  0  0  0
  -48.5657  -29.3320    6.7449 H   0  0  0  0  0  0  0  0  0  0  0  0
  -51.0493  -29.4206    6.9362 H   0  0  0  0  0  0  0  0  0  0  0  0
  -50.2842  -28.0194    7.8142 H   0  0  0  0  0  0  0  0  0  0  0  0
  1  2  1  0
  2  3  1  0
  3  4  1  0
  4  5  1  0
  5  6  1  0
  6  7  2  0
  7  8  1  0
  8  9  1  0
  9 10  2  0
 10 11  1  0
 11 12  2  0
 12 13  1  0
 13 14  1  0
 13 15  1  0
 13 16  1  0
 12 17  1  0
 17 18  2  0
  8 19  2  0
 19 20  1  0
 20 21  1  0
 20 22  2  0
  5 23  1  0
 23 24  1  0
 24  2  1  0
 22  6  1  0
 18  9  1  0
  1 25  1  0
  1 26  1  0
  1 27  1  0
  2 28  1  0
  3 29  1  0
  3 30  1  0
  4 31  1  0
  4 32  1  0
  7 33  1  0
 10 34  1  0
 11 35  1  0
 17 36  1  0
 18 37  1  0
 21 38  1  0
 21 39  1  0
 23 40  1  0
 23 41  1  0
 24 42  1  0
 24 43  1  0
M  END
>  <meeko>  (5) 
{"is_sidechain": [false], "free_energy": -8.75, "intermolecular_energy": -10.552, "internal_energy": -0.651}

$$$$
4qac_ligand
     RDKit          3D

 43 45  0  0  0  0  0  0  0  0999 V2000
  -41.8400  -31.0660   -1.1570 C   0  0  0  0  0  0  0  0  0  0  0  0
  -42.2520  -29.5940   -1.0930 C   0  0  0  0  0  0  0  0  0  0  0  0
  -41.3770  -28.8360   -0.0800 C   0  0  0  0  0  0  0  0  0  0  0  0
  -42.1340  -27.6730    0.5580 C   0  0  0  0  0  0  0  0  0  0  0  0
  -43.2850  -28.1950    1.3020 N   0  0  0  0  0  0  0  0  0  0  0  0
  -43.9550  -27.2760    2.1110 C   0  0  0  0  0  0  0  0  0  0  0  0
  -44.1710  -27.5380    3.4510 C   0  0  0  0  0  0  0  0  0  0  0  0
  -44.8340  -26.5830    4.2000 C   0  0  0  0  0  0  0  0  0  0  0  0
  -45.1240  -26.7530    5.6400 C   0  0  0  0  0  0  0  0  0  0  0  0
  -44.0940  -27.0600    6.5480 C   0  0  0  0  0  0  0  0  0  0  0  0
  -44.3450  -27.2210    7.9160 C   0  0  0  0  0  0  0  0  0  0  0  0
  -45.6420  -27.0760    8.4220 C   0  0  0  0  0  0  0  0  0  0  0  0
  -45.9210  -27.2720    9.8920 C   0  0  0  0  0  0  0  0  0  0  0  0
  -46.5870  -28.4310   10.1450 F   0  0  0  0  0  0  0  0  0  0  0  0
  -44.7910  -27.3150   10.6520 F   0  0  0  0  0  0  0  0  0  0  0  0
  -46.6860  -26.2780   10.4240 F   0  0  0  0  0  0  0  0  0  0  0  0
  -46.6810  -26.7890    7.5290 C   0  0  0  0  0  0  0  0  0  0  0  0
  -46.4240  -26.6300    6.1610 C   0  0  0  0  0  0  0  0  0  0  0  0
  -45.2670  -25.4330    3.6500 N   0  0  0  0  0  0  0  0  0  0  0  0
  -44.9820  -25.2380    2.3650 C   0  0  0  0  0  0  0  0  0  0  0  0
  -45.4160  -24.0600    1.7910 N   0  0  0  0  0  0  0  0  0  0  0  0
  -44.3560  -26.1100    1.5770 N   0  0  0  0  0  0  0  0  0  0  0  0
  -44.0410  -29.3020    0.7060 C   0  0  0  0  0  0  0  0  0  0  0  0
  -43.7500  -29.4390   -0.7880 C   0  0  0  0  0  0  0  0  0  0  0  0
  -41.7296  -31.4606   -0.1362 H   0  0  0  0  0  0  0  0  0  0  0  0
  -42.6120  -31.6400   -1.6904 H   0  0  0  0  0  0  0  0  0  0  0  0
  -40.8822  -31.1558   -1.6904 H   0  0  0  0  0  0  0  0  0  0  0  0
  -42.0857  -29.1461   -2.0838 H   0  0  0  0  0  0  0  0  0  0  0  0
  -41.0611  -29.5327    0.7104 H   0  0  0  0  0  0  0  0  0  0  0  0
  -40.5068  -28.4278   -0.6149 H   0  0  0  0  0  0  0  0  0  0  0  0
  -41.4664  -27.1327    1.2453 H   0  0  0  0  0  0  0  0  0  0  0  0
  -42.4829  -26.9853   -0.2265 H   0  0  0  0  0  0  0  0  0  0  0  0
  -43.8261  -28.4774    3.9076 H   0  0  0  0  0  0  0  0  0  0  0  0
  -43.0661  -27.1764    6.1739 H   0  0  0  0  0  0  0  0  0  0  0  0
  -43.5168  -27.4632    8.5982 H   0  0  0  0  0  0  0  0  0  0  0  0
  -47.7097  -26.6873    7.9051 H   0  0  0  0  0  0  0  0  0  0  0  0
  -47.2575  -26.4040    5.4797 H   0  0  0  0  0  0  0  0  0  0  0  0
  -46.0950  -23.6200    2.3970 H   0  0  0  0  0  0  0  0  0  0  0  0
  -44.6210  -23.5110    1.4980 H   0  0  0  0  0  0  0  0  0  0  0  0
  -43.7623  -30.2382    1.2117 H   0  0  0  0  0  0  0  0  0  0  0  0
  -45.1139  -29.0937    0.8308 H   0  0  0  0  0  0  0  0  0  0  0  0
  -44.2794  -30.3248   -1.1690 H   0  0  0  0  0  0  0  0  0  0  0  0
  -44.0930  -28.5155   -1.2774 H   0  0  0  0  0  0  0  0  0  0  0  0
  1  2  1  0
  2  3  1  0
  3  4  1  0
  4  5  1  0
  5  6  1  0
  6  7  2  0
  7  8  1  0
  8  9  1  0
  9 10  2  0
 10 11  1  0
 11 12  2  0
 12 13  1  0
 13 14  1  0
 13 15  1  0
 13 16  1  0
 12 17  1  0
 17 18  2  0
  8 19  2  0
 19 20  1  0
 20 21  1  0
 20 22  2  0
  5 23  1  0
 23 24  1  0
 24  2  1  0
 22  6  1  0
 18  9  1  0
  1 25  1  0
  1 26  1  0
  1 27  1  0
  2 28  1  0
  3 29  1  0
  3 30  1  0
  4 31  1  0
  4 32  1  0
  7 33  1  0
 10 34  1  0
 11 35  1  0
 17 36  1  0
 18 37  1  0
 21 38  1  0
 21 39  1  0
 23 40  1  0
 23 41  1  0
 24 42  1  0
 24 43  1  0
M  END
>  <meeko>  (6) 
{"is_sidechain": [false], "free_energy": -8.655, "intermolecular_energy": -10.456, "internal_energy": -0.633}

$$$$
4qac_ligand
     RDKit          3D

 43 45  0  0  0  0  0  0  0  0999 V2000
  -59.6790  -33.0140    4.1960 C   0  0  0  0  0  0  0  0  0  0  0  0
  -59.5440  -32.0620    5.3850 C   0  0  0  0  0  0  0  0  0  0  0  0
  -59.0510  -30.6830    4.9160 C   0  0  0  0  0  0  0  0  0  0  0  0
  -58.2300  -29.9810    5.9960 C   0  0  0  0  0  0  0  0  0  0  0  0
  -57.0360  -30.7790    6.2910 N   0  0  0  0  0  0  0  0  0  0  0  0
  -56.0820  -30.1680    7.1070 C   0  0  0  0  0  0  0  0  0  0  0  0
  -54.9470  -29.5950    6.5630 C   0  0  0  0  0  0  0  0  0  0  0  0
  -54.0450  -28.9990    7.4250 C   0  0  0  0  0  0  0  0  0  0  0  0
  -52.7960  -28.3570    6.9600 C   0  0  0  0  0  0  0  0  0  0  0  0
  -51.5420  -28.8850    7.3170 C   0  0  0  0  0  0  0  0  0  0  0  0
  -50.3480  -28.2960    6.8850 C   0  0  0  0  0  0  0  0  0  0  0  0
  -50.3710  -27.1530    6.0770 C   0  0  0  0  0  0  0  0  0  0  0  0
  -49.0860  -26.5000    5.6290 C   0  0  0  0  0  0  0  0  0  0  0  0
  -49.2960  -25.5000    4.7310 F   0  0  0  0  0  0  0  0  0  0  0  0
  -48.3820  -25.9430    6.6530 F   0  0  0  0  0  0  0  0  0  0  0  0
  -48.2300  -27.3720    5.0250 F   0  0  0  0  0  0  0  0  0  0  0  0
  -51.6110  -26.6040    5.7280 C   0  0  0  0  0  0  0  0  0  0  0  0
  -52.8030  -27.1980    6.1630 C   0  0  0  0  0  0  0  0  0  0  0  0
  -54.2510  -28.9770    8.7560 N   0  0  0  0  0  0  0  0  0  0  0  0
  -55.3870  -29.5110    9.1960 C   0  0  0  0  0  0  0  0  0  0  0  0
  -55.6120  -29.4900   10.5560 N   0  0  0  0  0  0  0  0  0  0  0  0
  -56.3000  -30.1100    8.4320 N   0  0  0  0  0  0  0  0  0  0  0  0
  -57.1790  -32.2380    6.3350 C   0  0  0  0  0  0  0  0  0  0  0  0
  -58.6430  -32.6520    6.4820 C   0  0  0  0  0  0  0  0  0  0  0  0
  -59.8246  -34.0407    4.5630 H   0  0  0  0  0  0  0  0  0  0  0  0
  -60.5440  -32.7170    3.5848 H   0  0  0  0  0  0  0  0  0  0  0  0
  -58.7655  -32.9692    3.5848 H   0  0  0  0  0  0  0  0  0  0  0  0
  -60.5394  -31.9287    5.8338 H   0  0  0  0  0  0  0  0  0  0  0  0
  -58.4255  -30.8133    4.0206 H   0  0  0  0  0  0  0  0  0  0  0  0
  -59.9306  -30.0608    4.6943 H   0  0  0  0  0  0  0  0  0  0  0  0
  -57.9278  -28.9854    5.6391 H   0  0  0  0  0  0  0  0  0  0  0  0
  -58.8358  -29.8726    6.9078 H   0  0  0  0  0  0  0  0  0  0  0  0
  -54.7673  -29.6128    5.4779 H   0  0  0  0  0  0  0  0  0  0  0  0
  -51.4987  -29.7827    7.9512 H   0  0  0  0  0  0  0  0  0  0  0  0
  -49.3841  -28.7346    7.1827 H   0  0  0  0  0  0  0  0  0  0  0  0
  -51.6496  -25.6974    5.1062 H   0  0  0  0  0  0  0  0  0  0  0  0
  -53.7648  -26.7484    5.8751 H   0  0  0  0  0  0  0  0  0  0  0  0
  -55.1760  -28.6720   10.9580 H   0  0  0  0  0  0  0  0  0  0  0  0
  -56.5940  -29.6380   10.7420 H   0  0  0  0  0  0  0  0  0  0  0  0
  -56.7784  -32.6649    5.4037 H   0  0  0  0  0  0  0  0  0  0  0  0
  -56.6243  -32.6135    7.2076 H   0  0  0  0  0  0  0  0  0  0  0  0
  -58.7041  -33.7493    6.4340 H   0  0  0  0  0  0  0  0  0  0  0  0
  -59.0006  -32.2642    7.4472 H   0  0  0  0  0  0  0  0  0  0  0  0
  1  2  1  0
  2  3  1  0
  3  4  1  0
  4  5  1  0
  5  6  1  0
  6  7  2  0
  7  8  1  0
  8  9  1  0
  9 10  2  0
 10 11  1  0
 11 12  2  0
 12 13  1  0
 13 14  1  0
 13 15  1  0
 13 16  1  0
 12 17  1  0
 17 18  2  0
  8 19  2  0
 19 20  1  0
 20 21  1  0
 20 22  2  0
  5 23  1  0
 23 24  1  0
 24  2  1  0
 22  6  1  0
 18  9  1  0
  1 25  1  0
  1 26  1  0
  1 27  1  0
  2 28  1  0
  3 29  1  0
  3 30  1  0
  4 31  1  0
  4 32  1  0
  7 33  1  0
 10 34  1  0
 11 35  1  0
 17 36  1  0
 18 37  1  0
 21 38  1  0
 21 39  1  0
 23 40  1  0
 23 41  1  0
 24 42  1  0
 24 43  1  0
M  END
>  <meeko>  (7) 
{"is_sidechain": [false], "free_energy": -8.652, "intermolecular_energy": -10.459, "internal_energy": -0.626}

$$$$
4qac_ligand
     RDKit          3D

 43 45  0  0  0  0  0  0  0  0999 V2000
  -44.7270  -28.0950   -2.6620 C   0  0  0  0  0  0  0  0  0  0  0  0
  -45.0880  -27.8210   -1.2020 C   0  0  0  0  0  0  0  0  0  0  0  0
  -44.4800  -26.4870   -0.7390 C   0  0  0  0  0  0  0  0  0  0  0  0
  -44.1620  -26.5000    0.7550 C   0  0  0  0  0  0  0  0  0  0  0  0
  -43.1630  -27.5380    1.0270 N   0  0  0  0  0  0  0  0  0  0  0  0
  -42.6180  -27.5360    2.3130 C   0  0  0  0  0  0  0  0  0  0  0  0
  -43.4340  -27.4910    3.4280 C   0  0  0  0  0  0  0  0  0  0  0  0
  -42.8320  -27.5000    4.6730 C   0  0  0  0  0  0  0  0  0  0  0  0
  -43.6010  -27.4530    5.9360 C   0  0  0  0  0  0  0  0  0  0  0  0
  -43.0070  -26.9770    7.1190 C   0  0  0  0  0  0  0  0  0  0  0  0
  -43.7170  -26.9190    8.3240 C   0  0  0  0  0  0  0  0  0  0  0  0
  -45.0510  -27.3380    8.3840 C   0  0  0  0  0  0  0  0  0  0  0  0
  -45.8120  -27.3010    9.6860 C   0  0  0  0  0  0  0  0  0  0  0  0
  -46.6160  -26.2070    9.7880 F   0  0  0  0  0  0  0  0  0  0  0  0
  -46.6240  -28.3800    9.8640 F   0  0  0  0  0  0  0  0  0  0  0  0
  -44.9970  -27.2690   10.7780 F   0  0  0  0  0  0  0  0  0  0  0  0
  -45.6510  -27.8320    7.2190 C   0  0  0  0  0  0  0  0  0  0  0  0
  -44.9360  -27.8880    6.0160 C   0  0  0  0  0  0  0  0  0  0  0  0
  -41.4930  -27.5440    4.8080 N   0  0  0  0  0  0  0  0  0  0  0  0
  -40.7800  -27.6300    3.6870 C   0  0  0  0  0  0  0  0  0  0  0  0
  -39.4070  -27.6810    3.8120 N   0  0  0  0  0  0  0  0  0  0  0  0
  -41.2840  -27.6180    2.4540 N   0  0  0  0  0  0  0  0  0  0  0  0
  -43.2820  -28.8110    0.3080 C   0  0  0  0  0  0  0  0  0  0  0  0
  -44.6780  -28.9880   -0.2890 C   0  0  0  0  0  0  0  0  0  0  0  0
  -43.8515  -28.7595   -2.7047 H   0  0  0  0  0  0  0  0  0  0  0  0
  -45.5779  -28.5767   -3.1659 H   0  0  0  0  0  0  0  0  0  0  0  0
  -44.4919  -27.1459   -3.1659 H   0  0  0  0  0  0  0  0  0  0  0  0
  -46.1822  -27.7350   -1.1289 H   0  0  0  0  0  0  0  0  0  0  0  0
  -43.5513  -26.3047   -1.2997 H   0  0  0  0  0  0  0  0  0  0  0  0
  -45.2159  -25.6911   -0.9263 H   0  0  0  0  0  0  0  0  0  0  0  0
  -43.7643  -25.5192    1.0549 H   0  0  0  0  0  0  0  0  0  0  0  0
  -45.0784  -26.7109    1.3257 H   0  0  0  0  0  0  0  0  0  0  0  0
  -44.5286  -27.4493    3.3280 H   0  0  0  0  0  0  0  0  0  0  0  0
  -41.9594  -26.6423    7.0966 H   0  0  0  0  0  0  0  0  0  0  0  0
  -43.2225  -26.5411    9.2310 H   0  0  0  0  0  0  0  0  0  0  0  0
  -46.6942  -28.1795    7.2491 H   0  0  0  0  0  0  0  0  0  0  0  0
  -45.4291  -28.2806    5.1145 H   0  0  0  0  0  0  0  0  0  0  0  0
  -38.9960  -26.8790    3.3560 H   0  0  0  0  0  0  0  0  0  0  0  0
  -39.1590  -27.8510    4.7760 H   0  0  0  0  0  0  0  0  0  0  0  0
  -42.5403  -28.8337   -0.5040 H   0  0  0  0  0  0  0  0  0  0  0  0
  -43.1054  -29.6289    1.0221 H   0  0  0  0  0  0  0  0  0  0  0  0
  -44.6932  -29.9170   -0.8779 H   0  0  0  0  0  0  0  0  0  0  0  0
  -45.3933  -29.0223    0.5460 H   0  0  0  0  0  0  0  0  0  0  0  0
  1  2  1  0
  2  3  1  0
  3  4  1  0
  4  5  1  0
  5  6  1  0
  6  7  2  0
  7  8  1  0
  8  9  1  0
  9 10  2  0
 10 11  1  0
 11 12  2  0
 12 13  1  0
 13 14  1  0
 13 15  1  0
 13 16  1  0
 12 17  1  0
 17 18  2  0
  8 19  2  0
 19 20  1  0
 20 21  1  0
 20 22  2  0
  5 23  1  0
 23 24  1  0
 24  2  1  0
 22  6  1  0
 18  9  1  0
  1 25  1  0
  1 26  1  0
  1 27  1  0
  2 28  1  0
  3 29  1  0
  3 30  1  0
  4 31  1  0
  4 32  1  0
  7 33  1  0
 10 34  1  0
 11 35  1  0
 17 36  1  0
 18 37  1  0
 21 38  1  0
 21 39  1  0
 23 40  1  0
 23 41  1  0
 24 42  1  0
 24 43  1  0
M  END
>  <meeko>  (8) 
{"is_sidechain": [false], "free_energy": -8.613, "intermolecular_energy": -10.336, "internal_energy": -0.701}

$$$$
4qac_ligand
     RDKit          3D

 43 45  0  0  0  0  0  0  0  0999 V2000
  -46.6850  -28.9250   10.2920 C   0  0  0  0  0  0  0  0  0  0  0  0
  -46.7890  -28.2060    8.9460 C   0  0  0  0  0  0  0  0  0  0  0  0
  -46.6280  -29.2060    7.7890 C   0  0  0  0  0  0  0  0  0  0  0  0
  -46.0060  -28.5490    6.5580 C   0  0  0  0  0  0  0  0  0  0  0  0
  -44.6620  -28.0710    6.8930 N   0  0  0  0  0  0  0  0  0  0  0  0
  -43.8860  -27.6330    5.8190 C   0  0  0  0  0  0  0  0  0  0  0  0
  -44.3340  -27.7730    4.5180 C   0  0  0  0  0  0  0  0  0  0  0  0
  -43.5220  -27.3110    3.4990 C   0  0  0  0  0  0  0  0  0  0  0  0
  -43.8930  -27.4080    2.0710 C   0  0  0  0  0  0  0  0  0  0  0  0
  -44.0250  -28.6620    1.4480 C   0  0  0  0  0  0  0  0  0  0  0  0
  -44.3800  -28.7770    0.0980 C   0  0  0  0  0  0  0  0  0  0  0  0
  -44.6150  -27.6340   -0.6750 C   0  0  0  0  0  0  0  0  0  0  0  0
  -44.9740  -27.7530   -2.1360 C   0  0  0  0  0  0  0  0  0  0  0  0
  -44.0020  -28.3690   -2.8610 F   0  0  0  0  0  0  0  0  0  0  0  0
  -46.1140  -28.4670   -2.3520 F   0  0  0  0  0  0  0  0  0  0  0  0
  -45.1770  -26.5450   -2.7330 F   0  0  0  0  0  0  0  0  0  0  0  0
  -44.4700  -26.3780   -0.0740 C   0  0  0  0  0  0  0  0  0  0  0  0
  -44.1140  -26.2680    1.2760 C   0  0  0  0  0  0  0  0  0  0  0  0
  -42.3250  -26.7460    3.7530 N   0  0  0  0  0  0  0  0  0  0  0  0
  -41.9860  -26.6080    5.0320 C   0  0  0  0  0  0  0  0  0  0  0  0
  -40.7660  -26.0260    5.3050 N   0  0  0  0  0  0  0  0  0  0  0  0
  -42.7090  -27.0340    6.0670 N   0  0  0  0  0  0  0  0  0  0  0  0
  -44.4590  -27.4600    8.2120 C   0  0  0  0  0  0  0  0  0  0  0  0
  -45.7870  -27.0450    8.8460 C   0  0  0  0  0  0  0  0  0  0  0  0
  -46.7907  -28.1941   11.1072 H   0  0  0  0  0  0  0  0  0  0  0  0
  -47.4836  -29.6776   10.3684 H   0  0  0  0  0  0  0  0  0  0  0  0
  -45.7059  -29.4204   10.3684 H   0  0  0  0  0  0  0  0  0  0  0  0
  -47.7925  -27.7619    8.8699 H   0  0  0  0  0  0  0  0  0  0  0  0
  -45.9799  -30.0314    8.1186 H   0  0  0  0  0  0  0  0  0  0  0  0
  -47.6267  -29.5756    7.5132 H   0  0  0  0  0  0  0  0  0  0  0  0
  -45.9422  -29.2837    5.7418 H   0  0  0  0  0  0  0  0  0  0  0  0
  -46.6297  -27.7017    6.2370 H   0  0  0  0  0  0  0  0  0  0  0  0
  -45.3070  -28.2379    4.3007 H   0  0  0  0  0  0  0  0  0  0  0  0
  -43.8451  -29.5746    2.0352 H   0  0  0  0  0  0  0  0  0  0  0  0
  -44.4749  -29.7734   -0.3583 H   0  0  0  0  0  0  0  0  0  0  0  0
  -44.6375  -25.4677   -0.6685 H   0  0  0  0  0  0  0  0  0  0  0  0
  -44.0048  -25.2695    1.7244 H   0  0  0  0  0  0  0  0  0  0  0  0
  -40.1650  -26.1060    4.4960 H   0  0  0  0  0  0  0  0  0  0  0  0
  -40.9070  -25.1060    5.6960 H   0  0  0  0  0  0  0  0  0  0  0  0
  -43.9602  -28.1868    8.8700 H   0  0  0  0  0  0  0  0  0  0  0  0
  -43.8404  -26.5594    8.0844 H   0  0  0  0  0  0  0  0  0  0  0  0
  -45.5888  -26.6638    9.8586 H   0  0  0  0  0  0  0  0  0  0  0  0
  -46.2356  -26.2757    8.2003 H   0  0  0  0  0  0  0  0  0  0  0  0
  1  2  1  0
  2  3  1  0
  3  4  1  0
  4  5  1  0
  5  6  1  0
  6  7  2  0
  7  8  1  0
  8  9  1  0
  9 10  2  0
 10 11  1  0
 11 12  2  0
 12 13  1  0
 13 14  1  0
 13 15  1  0
 13 16  1  0
 12 17  1  0
 17 18  2  0
  8 19  2  0
 19 20  1  0
 20 21  1  0
 20 22  2  0
  5 23  1  0
 23 24  1  0
 24  2  1  0
 22  6  1  0
 18  9  1  0
  1 25  1  0
  1 26  1  0
  1 27  1  0
  2 28  1  0
  3 29  1  0
  3 30  1  0
  4 31  1  0
  4 32  1  0
  7 33  1  0
 10 34  1  0
 11 35  1  0
 17 36  1  0
 18 37  1  0
 21 38  1  0
 21 39  1  0
 23 40  1  0
 23 41  1  0
 24 42  1  0
 24 43  1  0
M  END
>  <meeko>  (9) 
{"is_sidechain": [false], "free_energy": -8.112, "intermolecular_energy": -9.754, "internal_energy": -0.68}

$$$$
