3lka_ligand
     RDKit          3D

 21 21  0  0  0  0  0  0  0  0999 V2000
    3.1630   -5.5250    7.8920 C   0  0  0  0  0  0  0  0  0  0  0  0
    3.6630   -6.1030    9.0910 O   0  0  0  0  0  0  0  0  0  0  0  0
    4.9280   -6.6180    9.0500 C   0  0  0  0  0  0  0  0  0  0  0  0
    5.4940   -6.6740    7.7710 C   0  0  0  0  0  0  0  0  0  0  0  0
    6.7820   -7.1780    7.5810 C   0  0  0  0  0  0  0  0  0  0  0  0
    7.5120   -7.6210    8.6850 C   0  0  0  0  0  0  0  0  0  0  0  0
    9.1310   -8.2910    8.4510 S   0  0  0  0  0  0  0  0  0  0  0  0
    9.6010   -7.5680    7.0110 N   0  0  0  0  0  0  0  0  0  0  0  0
   10.0150   -7.7640    9.4650 O   0  0  0  0  0  0  0  0  0  0  0  0
    9.0280   -9.7040    8.1720 O   0  0  0  0  0  0  0  0  0  0  0  0
    6.9550   -7.5820    9.9660 C   0  0  0  0  0  0  0  0  0  0  0  0
    5.6640   -7.0760   10.1470 C   0  0  0  0  0  0  0  0  0  0  0  0
    2.4619   -4.7145    8.1402 H   0  0  0  0  0  0  0  0  0  0  0  0
    3.9994   -5.1191    7.3041 H   0  0  0  0  0  0  0  0  0  0  0  0
    2.6409   -6.2942    7.3041 H   0  0  0  0  0  0  0  0  0  0  0  0
    4.9171   -6.3166    6.9053 H   0  0  0  0  0  0  0  0  0  0  0  0
    7.2169   -7.2255    6.5718 H   0  0  0  0  0  0  0  0  0  0  0  0
    8.7750   -7.2930    6.4760 H   0  0  0  0  0  0  0  0  0  0  0  0
   10.2420   -6.7990    7.2020 H   0  0  0  0  0  0  0  0  0  0  0  0
    7.5302   -7.9481   10.8292 H   0  0  0  0  0  0  0  0  0  0  0  0
    5.2262   -7.0382   11.1554 H   0  0  0  0  0  0  0  0  0  0  0  0
  1  2  1  0
  2  3  1  0
  3  4  2  0
  4  5  1  0
  5  6  2  0
  6  7  1  0
  7  8  1  0
  7  9  2  0
  7 10  2  0
  6 11  1  0
 11 12  2  0
 12  3  1  0
  1 13  1  0
  1 14  1  0
  1 15  1  0
  4 16  1  0
  5 17  1  0
  8 18  1  0
  8 19  1  0
 11 20  1  0
 12 21  1  0
M  END
>  <meeko>  (1) 
{"is_sidechain": [false], "free_energy": -6.884, "intermolecular_energy": -7.89, "internal_energy": -0.105}

$$$$
3lka_ligand
     RDKit          3D

 21 21  0  0  0  0  0  0  0  0999 V2000
    2.4700   -5.7350    7.5380 C   0  0  0  0  0  0  0  0  0  0  0  0
    3.2570   -5.8410    8.7170 O   0  0  0  0  0  0  0  0  0  0  0  0
    4.5130   -6.3620    8.5800 C   0  0  0  0  0  0  0  0  0  0  0  0
    5.1090   -6.7680    9.7800 C   0  0  0  0  0  0  0  0  0  0  0  0
    6.3920   -7.3200    9.7900 C   0  0  0  0  0  0  0  0  0  0  0  0
    7.0780   -7.4740    8.5840 C   0  0  0  0  0  0  0  0  0  0  0  0
    8.7150   -8.1410    8.5880 S   0  0  0  0  0  0  0  0  0  0  0  0
    9.3640   -7.4790    7.1890 N   0  0  0  0  0  0  0  0  0  0  0  0
    9.4610   -7.5640    9.6830 O   0  0  0  0  0  0  0  0  0  0  0  0
    8.6510   -9.5660    8.3610 O   0  0  0  0  0  0  0  0  0  0  0  0
    6.4990   -7.0620    7.3800 C   0  0  0  0  0  0  0  0  0  0  0  0
    5.2140   -6.5100    7.3810 C   0  0  0  0  0  0  0  0  0  0  0  0
    1.4145   -5.5928    7.8132 H   0  0  0  0  0  0  0  0  0  0  0  0
    2.8131   -4.8750    6.9442 H   0  0  0  0  0  0  0  0  0  0  0  0
    2.5733   -6.6552    6.9442 H   0  0  0  0  0  0  0  0  0  0  0  0
    4.5604   -6.6509   10.7262 H   0  0  0  0  0  0  0  0  0  0  0  0
    6.8567   -7.6299   10.7376 H   0  0  0  0  0  0  0  0  0  0  0  0
    8.7810   -6.7020    6.8720 H   0  0  0  0  0  0  0  0  0  0  0  0
   10.3390   -7.2240    7.3470 H   0  0  0  0  0  0  0  0  0  0  0  0
    7.0520   -7.1716    6.4355 H   0  0  0  0  0  0  0  0  0  0  0  0
    4.7537   -6.1913    6.4341 H   0  0  0  0  0  0  0  0  0  0  0  0
  1  2  1  0
  2  3  1  0
  3  4  2  0
  4  5  1  0
  5  6  2  0
  6  7  1  0
  7  8  1  0
  7  9  2  0
  7 10  2  0
  6 11  1  0
 11 12  2  0
 12  3  1  0
  1 13  1  0
  1 14  1  0
  1 15  1  0
  4 16  1  0
  5 17  1  0
  8 18  1  0
  8 19  1  0
 11 20  1  0
 12 21  1  0
M  END
>  <meeko>  (2) 
{"is_sidechain": [false], "free_energy": -6.804, "intermolecular_energy": -7.813, "internal_energy": -0.091}

$$$$
3lka_ligand
     RDKit          3D

 21 21  0  0  0  0  0  0  0  0999 V2000
    3.0580   -5.2840    6.1260 C   0  0  0  0  0  0  0  0  0  0  0  0
    3.1110   -5.7140    7.4800 O   0  0  0  0  0  0  0  0  0  0  0  0
    4.2930   -6.2420    7.9170 C   0  0  0  0  0  0  0  0  0  0  0  0
    4.3490   -6.4860    9.2940 C   0  0  0  0  0  0  0  0  0  0  0  0
    5.4960   -7.0250    9.8790 C   0  0  0  0  0  0  0  0  0  0  0  0
    6.5940   -7.3310    9.0730 C   0  0  0  0  0  0  0  0  0  0  0  0
    8.0640   -7.9840    9.8080 S   0  0  0  0  0  0  0  0  0  0  0  0
    7.7300   -9.6280    9.8500 N   0  0  0  0  0  0  0  0  0  0  0  0
    9.1660   -7.8270    8.8870 O   0  0  0  0  0  0  0  0  0  0  0  0
    8.1390   -7.5570   11.1860 O   0  0  0  0  0  0  0  0  0  0  0  0
    6.5560   -7.0820    7.6990 C   0  0  0  0  0  0  0  0  0  0  0  0
    5.4030   -6.5420    7.1220 C   0  0  0  0  0  0  0  0  0  0  0  0
    2.9235   -4.1928    6.0928 H   0  0  0  0  0  0  0  0  0  0  0  0
    3.9961   -5.5534    5.6187 H   0  0  0  0  0  0  0  0  0  0  0  0
    2.2133   -5.7731    5.6187 H   0  0  0  0  0  0  0  0  0  0  0  0
    3.4781   -6.2500    9.9232 H   0  0  0  0  0  0  0  0  0  0  0  0
    5.5343   -7.2067   10.9632 H   0  0  0  0  0  0  0  0  0  0  0  0
    7.3550   -9.9280    8.9490 H   0  0  0  0  0  0  0  0  0  0  0  0
    8.5600  -10.1420   10.1430 H   0  0  0  0  0  0  0  0  0  0  0  0
    7.4311   -7.3103    7.0728 H   0  0  0  0  0  0  0  0  0  0  0  0
    5.3690   -6.3525    6.0390 H   0  0  0  0  0  0  0  0  0  0  0  0
  1  2  1  0
  2  3  1  0
  3  4  2  0
  4  5  1  0
  5  6  2  0
  6  7  1  0
  7  8  1  0
  7  9  2  0
  7 10  2  0
  6 11  1  0
 11 12  2  0
 12  3  1  0
  1 13  1  0
  1 14  1  0
  1 15  1  0
  4 16  1  0
  5 17  1  0
  8 18  1  0
  8 19  1  0
 11 20  1  0
 12 21  1  0
M  END
>  <meeko>  (3) 
{"is_sidechain": [false], "free_energy": -6.707, "intermolecular_energy": -7.705, "internal_energy": -0.087}

$$$$
3lka_ligand
     RDKit          3D

 21 21  0  0  0  0  0  0  0  0999 V2000
    7.7760   -8.7530   10.6430 C   0  0  0  0  0  0  0  0  0  0  0  0
    7.5940   -7.3850   10.3040 O   0  0  0  0  0  0  0  0  0  0  0  0
    6.6370   -7.0990    9.3710 C   0  0  0  0  0  0  0  0  0  0  0  0
    5.3720   -6.8200    9.9010 C   0  0  0  0  0  0  0  0  0  0  0  0
    4.2990   -6.5110    9.0630 C   0  0  0  0  0  0  0  0  0  0  0  0
    4.4990   -6.4720    7.6820 C   0  0  0  0  0  0  0  0  0  0  0  0
    3.1400   -6.1130    6.6100 S   0  0  0  0  0  0  0  0  0  0  0  0
    3.0220   -7.5270    5.7140 N   0  0  0  0  0  0  0  0  0  0  0  0
    1.9270   -6.0350    7.3900 O   0  0  0  0  0  0  0  0  0  0  0  0
    3.5280   -5.0820    5.6760 O   0  0  0  0  0  0  0  0  0  0  0  0
    5.7550   -6.7590    7.1390 C   0  0  0  0  0  0  0  0  0  0  0  0
    6.8230   -7.0680    7.9870 C   0  0  0  0  0  0  0  0  0  0  0  0
    7.7903   -8.8607   11.7376 H   0  0  0  0  0  0  0  0  0  0  0  0
    6.9490   -9.3470   10.2269 H   0  0  0  0  0  0  0  0  0  0  0  0
    8.7296   -9.1101   10.2269 H   0  0  0  0  0  0  0  0  0  0  0  0
    5.2215   -6.8445   10.9904 H   0  0  0  0  0  0  0  0  0  0  0  0
    3.3060   -6.3004    9.4867 H   0  0  0  0  0  0  0  0  0  0  0  0
    3.2660   -7.3420    4.7400 H   0  0  0  0  0  0  0  0  0  0  0  0
    3.5850   -8.2590    6.1480 H   0  0  0  0  0  0  0  0  0  0  0  0
    5.9024   -6.7418    6.0491 H   0  0  0  0  0  0  0  0  0  0  0  0
    7.8137   -7.2876    7.5624 H   0  0  0  0  0  0  0  0  0  0  0  0
  1  2  1  0
  2  3  1  0
  3  4  2  0
  4  5  1  0
  5  6  2  0
  6  7  1  0
  7  8  1  0
  7  9  2  0
  7 10  2  0
  6 11  1  0
 11 12  2  0
 12  3  1  0
  1 13  1  0
  1 14  1  0
  1 15  1  0
  4 16  1  0
  5 17  1  0
  8 18  1  0
  8 19  1  0
 11 20  1  0
 12 21  1  0
M  END
>  <meeko>  (4) 
{"is_sidechain": [false], "free_energy": -6.625, "intermolecular_energy": -7.616, "internal_energy": -0.083}

$$$$
3lka_ligand
     RDKit          3D

 21 21  0  0  0  0  0  0  0  0999 V2000
    7.1370   -8.1050   10.6600 C   0  0  0  0  0  0  0  0  0  0  0  0
    7.2370   -7.4000    9.4300 O   0  0  0  0  0  0  0  0  0  0  0  0
    6.0680   -6.9860    8.8560 C   0  0  0  0  0  0  0  0  0  0  0  0
    6.1210   -6.8430    7.4640 C   0  0  0  0  0  0  0  0  0  0  0  0
    4.9990   -6.4260    6.7450 C   0  0  0  0  0  0  0  0  0  0  0  0
    3.8110   -6.1590    7.4280 C   0  0  0  0  0  0  0  0  0  0  0  0
    2.3940   -5.6000    6.5310 S   0  0  0  0  0  0  0  0  0  0  0  0
    1.3850   -5.0780    7.7670 N   0  0  0  0  0  0  0  0  0  0  0  0
    2.7430   -4.4170    5.7780 O   0  0  0  0  0  0  0  0  0  0  0  0
    1.7320   -6.7340    5.9290 O   0  0  0  0  0  0  0  0  0  0  0  0
    3.7480   -6.2860    8.8180 C   0  0  0  0  0  0  0  0  0  0  0  0
    4.8770   -6.7040    9.5300 C   0  0  0  0  0  0  0  0  0  0  0  0
    7.2373   -7.3982   11.4969 H   0  0  0  0  0  0  0  0  0  0  0  0
    6.1589   -8.6051   10.7175 H   0  0  0  0  0  0  0  0  0  0  0  0
    7.9374   -8.8573   10.7175 H   0  0  0  0  0  0  0  0  0  0  0  0
    7.0578   -7.0618    6.9305 H   0  0  0  0  0  0  0  0  0  0  0  0
    5.0506   -6.3091    5.6524 H   0  0  0  0  0  0  0  0  0  0  0  0
    1.4040   -5.7500    8.5350 H   0  0  0  0  0  0  0  0  0  0  0  0
    1.6380   -4.1300    8.0430 H   0  0  0  0  0  0  0  0  0  0  0  0
    2.8131   -6.0579    9.3509 H   0  0  0  0  0  0  0  0  0  0  0  0
    4.8271   -6.8110   10.6236 H   0  0  0  0  0  0  0  0  0  0  0  0
  1  2  1  0
  2  3  1  0
  3  4  2  0
  4  5  1  0
  5  6  2  0
  6  7  1  0
  7  8  1  0
  7  9  2  0
  7 10  2  0
  6 11  1  0
 11 12  2  0
 12  3  1  0
  1 13  1  0
  1 14  1  0
  1 15  1  0
  4 16  1  0
  5 17  1  0
  8 18  1  0
  8 19  1  0
 11 20  1  0
 12 21  1  0
M  END
>  <meeko>  (5) 
{"is_sidechain": [false], "free_energy": -6.433, "intermolecular_energy": -7.388, "internal_energy": -0.09}

$$$$
3lka_ligand
     RDKit          3D

 21 21  0  0  0  0  0  0  0  0999 V2000
    3.3290   -5.6350    7.7520 C   0  0  0  0  0  0  0  0  0  0  0  0
    3.9320   -5.9730    8.9940 O   0  0  0  0  0  0  0  0  0  0  0  0
    5.1430   -6.6040    8.9450 C   0  0  0  0  0  0  0  0  0  0  0  0
    5.5780   -7.1280   10.1680 C   0  0  0  0  0  0  0  0  0  0  0  0
    6.7980   -7.7980   10.2660 C   0  0  0  0  0  0  0  0  0  0  0  0
    7.5850   -7.9540    9.1230 C   0  0  0  0  0  0  0  0  0  0  0  0
    9.1470   -8.7730    9.2410 S   0  0  0  0  0  0  0  0  0  0  0  0
    9.0520   -9.4820   10.7600 N   0  0  0  0  0  0  0  0  0  0  0  0
    9.1850   -9.8650    8.2960 O   0  0  0  0  0  0  0  0  0  0  0  0
   10.1990   -7.7860    9.3280 O   0  0  0  0  0  0  0  0  0  0  0  0
    7.1690   -7.4260    7.8980 C   0  0  0  0  0  0  0  0  0  0  0  0
    5.9450   -6.7550    7.8100 C   0  0  0  0  0  0  0  0  0  0  0  0
    2.3830   -5.1047    7.9360 H   0  0  0  0  0  0  0  0  0  0  0  0
    4.0078   -4.9859    7.1794 H   0  0  0  0  0  0  0  0  0  0  0  0
    3.1295   -6.5528    7.1794 H   0  0  0  0  0  0  0  0  0  0  0  0
    4.9499   -7.0100   11.0633 H   0  0  0  0  0  0  0  0  0  0  0  0
    7.1361   -8.1989   11.2329 H   0  0  0  0  0  0  0  0  0  0  0  0
    9.9840   -9.7610   11.0700 H   0  0  0  0  0  0  0  0  0  0  0  0
    8.5740   -8.8550   11.4050 H   0  0  0  0  0  0  0  0  0  0  0  0
    7.8023   -7.5377    7.0055 H   0  0  0  0  0  0  0  0  0  0  0  0
    5.6125   -6.3449    6.8450 H   0  0  0  0  0  0  0  0  0  0  0  0
  1  2  1  0
  2  3  1  0
  3  4  2  0
  4  5  1  0
  5  6  2  0
  6  7  1  0
  7  8  1  0
  7  9  2  0
  7 10  2  0
  6 11  1  0
 11 12  2  0
 12  3  1  0
  1 13  1  0
  1 14  1  0
  1 15  1  0
  4 16  1  0
  5 17  1  0
  8 18  1  0
  8 19  1  0
 11 20  1  0
 12 21  1  0
M  END
>  <meeko>  (6) 
{"is_sidechain": [false], "free_energy": -6.295, "intermolecular_energy": -7.228, "internal_energy": -0.091}

$$$$
3lka_ligand
     RDKit          3D

 21 21  0  0  0  0  0  0  0  0999 V2000
    4.9620   -6.8170    9.0870 C   0  0  0  0  0  0  0  0  0  0  0  0
    5.8620   -7.0550   10.1610 O   0  0  0  0  0  0  0  0  0  0  0  0
    7.1150   -7.4940    9.8340 C   0  0  0  0  0  0  0  0  0  0  0  0
    7.8670   -7.9670   10.9160 C   0  0  0  0  0  0  0  0  0  0  0  0
    9.1650   -8.4470   10.7300 C   0  0  0  0  0  0  0  0  0  0  0  0
    9.7090   -8.4610    9.4440 C   0  0  0  0  0  0  0  0  0  0  0  0
   11.3630   -9.0360    9.2010 S   0  0  0  0  0  0  0  0  0  0  0  0
   11.5260   -8.9280    7.5340 N   0  0  0  0  0  0  0  0  0  0  0  0
   12.2880   -8.0740    9.7530 O   0  0  0  0  0  0  0  0  0  0  0  0
   11.4290  -10.4450    9.5170 O   0  0  0  0  0  0  0  0  0  0  0  0
    8.9740   -7.9810    8.3570 C   0  0  0  0  0  0  0  0  0  0  0  0
    7.6750   -7.5020    8.5540 C   0  0  0  0  0  0  0  0  0  0  0  0
    3.9722   -6.5553    9.4892 H   0  0  0  0  0  0  0  0  0  0  0  0
    5.3382   -5.9875    8.4703 H   0  0  0  0  0  0  0  0  0  0  0  0
    4.8790   -7.7241    8.4703 H   0  0  0  0  0  0  0  0  0  0  0  0
    7.4298   -7.9604   11.9254 H   0  0  0  0  0  0  0  0  0  0  0  0
    9.7521   -8.8099   11.5865 H   0  0  0  0  0  0  0  0  0  0  0  0
   11.0700   -9.7260    7.0890 H   0  0  0  0  0  0  0  0  0  0  0  0
   11.1820   -8.0240    7.2110 H   0  0  0  0  0  0  0  0  0  0  0  0
    9.4157   -7.9799    7.3496 H   0  0  0  0  0  0  0  0  0  0  0  0
    7.0922   -7.1303    7.6983 H   0  0  0  0  0  0  0  0  0  0  0  0
  1  2  1  0
  2  3  1  0
  3  4  2  0
  4  5  1  0
  5  6  2  0
  6  7  1  0
  7  8  1  0
  7  9  2  0
  7 10  2  0
  6 11  1  0
 11 12  2  0
 12  3  1  0
  1 13  1  0
  1 14  1  0
  1 15  1  0
  4 16  1  0
  5 17  1  0
  8 18  1  0
  8 19  1  0
 11 20  1  0
 12 21  1  0
M  END
>  <meeko>  (7) 
{"is_sidechain": [false], "free_energy": -6.247, "intermolecular_energy": -7.174, "internal_energy": -0.091}

$$$$
3lka_ligand
     RDKit          3D

 21 21  0  0  0  0  0  0  0  0999 V2000
    6.4630   -6.9900    9.1030 C   0  0  0  0  0  0  0  0  0  0  0  0
    5.1970   -6.5090    9.5360 O   0  0  0  0  0  0  0  0  0  0  0  0
    4.2380   -6.3370    8.5780 C   0  0  0  0  0  0  0  0  0  0  0  0
    4.5740   -6.8490    7.3190 C   0  0  0  0  0  0  0  0  0  0  0  0
    3.6880   -6.7440    6.2450 C   0  0  0  0  0  0  0  0  0  0  0  0
    2.4500   -6.1270    6.4380 C   0  0  0  0  0  0  0  0  0  0  0  0
    1.3340   -5.9600    5.0780 S   0  0  0  0  0  0  0  0  0  0  0  0
    0.1720   -4.9270    5.7070 N   0  0  0  0  0  0  0  0  0  0  0  0
    1.9840   -5.2260    4.0160 O   0  0  0  0  0  0  0  0  0  0  0  0
    0.6660   -7.2210    4.8510 O   0  0  0  0  0  0  0  0  0  0  0  0
    2.1070   -5.6010    7.6870 C   0  0  0  0  0  0  0  0  0  0  0  0
    3.0020   -5.7110    8.7560 C   0  0  0  0  0  0  0  0  0  0  0  0
    7.0847   -7.2262    9.9792 H   0  0  0  0  0  0  0  0  0  0  0  0
    6.3229   -7.8975    8.4974 H   0  0  0  0  0  0  0  0  0  0  0  0
    6.9609   -6.2184    8.4974 H   0  0  0  0  0  0  0  0  0  0  0  0
    5.5477   -7.3399    7.1742 H   0  0  0  0  0  0  0  0  0  0  0  0
    3.9622   -7.1430    5.2573 H   0  0  0  0  0  0  0  0  0  0  0  0
   -0.2870   -4.4190    4.9500 H   0  0  0  0  0  0  0  0  0  0  0  0
   -0.4710   -5.4500    6.3010 H   0  0  0  0  0  0  0  0  0  0  0  0
    1.1367   -5.1024    7.8284 H   0  0  0  0  0  0  0  0  0  0  0  0
    2.7315   -5.3029    9.7410 H   0  0  0  0  0  0  0  0  0  0  0  0
  1  2  1  0
  2  3  1  0
  3  4  2  0
  4  5  1  0
  5  6  2  0
  6  7  1  0
  7  8  1  0
  7  9  2  0
  7 10  2  0
  6 11  1  0
 11 12  2  0
 12  3  1  0
  1 13  1  0
  1 14  1  0
  1 15  1  0
  4 16  1  0
  5 17  1  0
  8 18  1  0
  8 19  1  0
 11 20  1  0
 12 21  1  0
M  END
>  <meeko>  (8) 
{"is_sidechain": [false], "free_energy": -5.83, "intermolecular_energy": -6.681, "internal_energy": -0.106}

$$$$
3lka_ligand
     RDKit          3D

 21 21  0  0  0  0  0  0  0  0999 V2000
   13.9240  -10.7170    8.9890 C   0  0  0  0  0  0  0  0  0  0  0  0
   13.5080   -9.7690    9.9630 O   0  0  0  0  0  0  0  0  0  0  0  0
   12.2240   -9.3090    9.8710 C   0  0  0  0  0  0  0  0  0  0  0  0
   11.6670   -9.3900    8.5890 C   0  0  0  0  0  0  0  0  0  0  0  0
   10.3620   -8.9550    8.3490 C   0  0  0  0  0  0  0  0  0  0  0  0
    9.6070   -8.4430    9.4050 C   0  0  0  0  0  0  0  0  0  0  0  0
    7.9650   -7.8600    9.1050 S   0  0  0  0  0  0  0  0  0  0  0  0
    8.0880   -7.2680    7.5390 N   0  0  0  0  0  0  0  0  0  0  0  0
    7.0650   -8.9880    9.0330 O   0  0  0  0  0  0  0  0  0  0  0  0
    7.7050   -6.7130    9.9440 O   0  0  0  0  0  0  0  0  0  0  0  0
   10.1550   -8.3450   10.6870 C   0  0  0  0  0  0  0  0  0  0  0  0
   11.4630   -8.7830   10.9180 C   0  0  0  0  0  0  0  0  0  0  0  0
   14.3169  -11.6123    9.4931 H   0  0  0  0  0  0  0  0  0  0  0  0
   13.0661  -10.9971    8.3601 H   0  0  0  0  0  0  0  0  0  0  0  0
   14.7110  -10.2753    8.3601 H   0  0  0  0  0  0  0  0  0  0  0  0
   12.2641   -9.8009    7.7616 H   0  0  0  0  0  0  0  0  0  0  0  0
    9.9334   -9.0153    7.3377 H   0  0  0  0  0  0  0  0  0  0  0  0
    7.3400   -7.6560    6.9630 H   0  0  0  0  0  0  0  0  0  0  0  0
    8.1090   -6.2490    7.5550 H   0  0  0  0  0  0  0  0  0  0  0  0
    9.5598   -7.9250   11.5112 H   0  0  0  0  0  0  0  0  0  0  0  0
   11.8941   -8.7131   11.9276 H   0  0  0  0  0  0  0  0  0  0  0  0
  1  2  1  0
  2  3  1  0
  3  4  2  0
  4  5  1  0
  5  6  2  0
  6  7  1  0
  7  8  1  0
  7  9  2  0
  7 10  2  0
  6 11  1  0
 11 12  2  0
 12  3  1  0
  1 13  1  0
  1 14  1  0
  1 15  1  0
  4 16  1  0
  5 17  1  0
  8 18  1  0
  8 19  1  0
 11 20  1  0
 12 21  1  0
M  END
>  <meeko>  (9) 
{"is_sidechain": [false], "free_energy": -5.822, "intermolecular_energy": -6.675, "internal_energy": -0.103}

$$$$
