4m0y_ligand
     RDKit          3D

 35 37  0  0  0  0  0  0  0  0999 V2000
   11.3160    8.4620   22.3100 N   0  0  0  0  0  0  0  0  0  0  0  0
   10.3160    7.6140   21.9340 C   0  0  0  0  0  0  0  0  0  0  0  0
   10.4120    6.4100   22.1210 O   0  0  0  0  0  0  0  0  0  0  0  0
    9.2420    8.2880   21.4090 N   0  0  0  0  0  0  0  0  0  0  0  0
    8.1820    7.6260   20.8180 C   0  0  0  0  0  0  0  0  0  0  0  0
    7.0640    7.2240   21.5070 C   0  0  0  0  0  0  0  0  0  0  0  0
    6.2640    6.5200   20.6270 N   0  0  0  0  0  0  0  0  0  0  0  0
    4.9870    5.9310   20.9070 C   0  0  0  0  0  0  0  0  0  0  0  0
    3.9670    6.1190   19.9500 C   0  0  0  0  0  0  0  0  0  0  0  0
    2.7220    5.5250   20.1110 C   0  0  0  0  0  0  0  0  0  0  0  0
    2.4710    4.7370   21.2260 C   0  0  0  0  0  0  0  0  0  0  0  0
    3.4500    4.5440   22.2100 C   0  0  0  0  0  0  0  0  0  0  0  0
    3.1290    3.7530   23.3280 C   0  0  0  0  0  0  0  0  0  0  0  0
    4.0410    3.5550   24.3580 C   0  0  0  0  0  0  0  0  0  0  0  0
    5.2850    4.1570   24.2890 C   0  0  0  0  0  0  0  0  0  0  0  0
    5.6180    4.9420   23.1810 C   0  0  0  0  0  0  0  0  0  0  0  0
    4.7330    5.1480   22.0860 C   0  0  0  0  0  0  0  0  0  0  0  0
    6.8050    6.5120   19.3860 N   0  0  0  0  0  0  0  0  0  0  0  0
    7.9390    7.2380   19.4750 C   0  0  0  0  0  0  0  0  0  0  0  0
    8.6860    7.5950   18.2580 C   0  0  0  0  0  0  0  0  0  0  0  0
    8.3550    6.8440   17.1590 N   0  0  0  0  0  0  0  0  0  0  0  0
    9.4690    8.5350   18.1650 O   0  0  0  0  0  0  0  0  0  0  0  0
   11.5220    9.1870   21.6360 H   0  0  0  0  0  0  0  0  0  0  0  0
   12.1420    7.9460   22.5920 H   0  0  0  0  0  0  0  0  0  0  0  0
    9.0470    9.1680   21.8680 H   0  0  0  0  0  0  0  0  0  0  0  0
    6.8452    7.4256   22.5660 H   0  0  0  0  0  0  0  0  0  0  0  0
    4.1605    6.7438   19.0656 H   0  0  0  0  0  0  0  0  0  0  0  0
    1.9364    5.6786   19.3565 H   0  0  0  0  0  0  0  0  0  0  0  0
    1.4880    4.2564   21.3389 H   0  0  0  0  0  0  0  0  0  0  0  0
    2.1368    3.2819   23.3883 H   0  0  0  0  0  0  0  0  0  0  0  0
    3.7762    2.9254   25.2203 H   0  0  0  0  0  0  0  0  0  0  0  0
    6.0104    4.0182   25.1042 H   0  0  0  0  0  0  0  0  0  0  0  0
    6.6077    5.4214   23.1546 H   0  0  0  0  0  0  0  0  0  0  0  0
    7.5320    6.2570   17.2290 H   0  0  0  0  0  0  0  0  0  0  0  0
    8.6820    7.1580   16.2590 H   0  0  0  0  0  0  0  0  0  0  0  0
  1  2  1  0
  2  3  2  0
  2  4  1  0
  4  5  1  0
  5  6  2  0
  6  7  1  0
  7  8  1  0
  8  9  2  0
  9 10  1  0
 10 11  2  0
 11 12  1  0
 12 13  2  0
 13 14  1  0
 14 15  2  0
 15 16  1  0
 16 17  2  0
  7 18  1  0
 18 19  2  0
 19 20  1  0
 20 21  1  0
 20 22  2  0
 19  5  1  0
 17  8  1  0
 17 12  1  0
  1 23  1  0
  1 24  1  0
  4 25  1  0
  6 26  1  0
  9 27  1  0
 10 28  1  0
 11 29  1  0
 13 30  1  0
 14 31  1  0
 15 32  1  0
 16 33  1  0
 21 34  1  0
 21 35  1  0
M  END
>  <meeko>  (1) 
{"is_sidechain": [false], "free_energy": -8.915, "intermolecular_energy": -10.478, "internal_energy": -0.443}

$$$$
4m0y_ligand
     RDKit          3D

 35 37  0  0  0  0  0  0  0  0999 V2000
   10.5570    8.7820   18.7920 N   0  0  0  0  0  0  0  0  0  0  0  0
   10.2220    7.9820   19.8450 C   0  0  0  0  0  0  0  0  0  0  0  0
   10.9550    7.0700   20.1980 O   0  0  0  0  0  0  0  0  0  0  0  0
    9.0490    8.3800   20.4370 N   0  0  0  0  0  0  0  0  0  0  0  0
    8.4360    7.6250   21.4210 C   0  0  0  0  0  0  0  0  0  0  0  0
    7.3380    6.8330   21.1910 C   0  0  0  0  0  0  0  0  0  0  0  0
    6.9450    6.3050   22.4070 N   0  0  0  0  0  0  0  0  0  0  0  0
    5.8540    5.4050   22.6410 C   0  0  0  0  0  0  0  0  0  0  0  0
    5.9780    4.5090   23.7240 C   0  0  0  0  0  0  0  0  0  0  0  0
    4.9390    3.6510   24.0620 C   0  0  0  0  0  0  0  0  0  0  0  0
    3.7610    3.6710   23.3280 C   0  0  0  0  0  0  0  0  0  0  0  0
    3.6060    4.5300   22.2320 C   0  0  0  0  0  0  0  0  0  0  0  0
    2.3970    4.4880   21.5140 C   0  0  0  0  0  0  0  0  0  0  0  0
    2.1950    5.2860   20.3930 C   0  0  0  0  0  0  0  0  0  0  0  0
    3.2060    6.1290   19.9680 C   0  0  0  0  0  0  0  0  0  0  0  0
    4.4110    6.1840   20.6760 C   0  0  0  0  0  0  0  0  0  0  0  0
    4.6540    5.4130   21.8470 C   0  0  0  0  0  0  0  0  0  0  0  0
    7.7920    6.6830   23.3920 N   0  0  0  0  0  0  0  0  0  0  0  0
    8.7410    7.4320   22.7940 C   0  0  0  0  0  0  0  0  0  0  0  0
    9.9350    7.8530   23.5460 C   0  0  0  0  0  0  0  0  0  0  0  0
   10.2100    7.0720   24.6380 N   0  0  0  0  0  0  0  0  0  0  0  0
   10.6970    8.7530   23.2070 O   0  0  0  0  0  0  0  0  0  0  0  0
    9.7870    8.9980   18.1730 H   0  0  0  0  0  0  0  0  0  0  0  0
   11.3620    8.4130   18.2990 H   0  0  0  0  0  0  0  0  0  0  0  0
    8.9270    9.3820   20.4730 H   0  0  0  0  0  0  0  0  0  0  0  0
    6.8588    6.6518   20.2176 H   0  0  0  0  0  0  0  0  0  0  0  0
    6.9097    4.4896   24.3084 H   0  0  0  0  0  0  0  0  0  0  0  0
    5.0495    2.9578   24.9089 H   0  0  0  0  0  0  0  0  0  0  0  0
    2.9356    3.0014   23.6115 H   0  0  0  0  0  0  0  0  0  0  0  0
    1.5960    3.8110   21.8456 H   0  0  0  0  0  0  0  0  0  0  0  0
    1.2397    5.2471   19.8491 H   0  0  0  0  0  0  0  0  0  0  0  0
    3.0626    6.7549   19.0749 H   0  0  0  0  0  0  0  0  0  0  0  0
    5.2052    6.8522   20.3118 H   0  0  0  0  0  0  0  0  0  0  0  0
    9.6990    6.2010   24.7270 H   0  0  0  0  0  0  0  0  0  0  0  0
   11.1080    7.1830   25.0810 H   0  0  0  0  0  0  0  0  0  0  0  0
  1  2  1  0
  2  3  2  0
  2  4  1  0
  4  5  1  0
  5  6  2  0
  6  7  1  0
  7  8  1  0
  8  9  2  0
  9 10  1  0
 10 11  2  0
 11 12  1  0
 12 13  2  0
 13 14  1  0
 14 15  2  0
 15 16  1  0
 16 17  2  0
  7 18  1  0
 18 19  2  0
 19 20  1  0
 20 21  1  0
 20 22  2  0
 19  5  1  0
 17  8  1  0
 17 12  1  0
  1 23  1  0
  1 24  1  0
  4 25  1  0
  6 26  1  0
  9 27  1  0
 10 28  1  0
 11 29  1  0
 13 30  1  0
 14 31  1  0
 15 32  1  0
 16 33  1  0
 21 34  1  0
 21 35  1  0
M  END
>  <meeko>  (2) 
{"is_sidechain": [false], "free_energy": -8.8, "intermolecular_energy": -10.458, "internal_energy": -0.329}

$$$$
4m0y_ligand
     RDKit          3D

 35 37  0  0  0  0  0  0  0  0999 V2000
    9.9950    8.9400   17.1750 N   0  0  0  0  0  0  0  0  0  0  0  0
    8.9790    8.8260   18.0780 C   0  0  0  0  0  0  0  0  0  0  0  0
    8.2340    9.7670   18.3050 O   0  0  0  0  0  0  0  0  0  0  0  0
    8.8990    7.5590   18.6010 N   0  0  0  0  0  0  0  0  0  0  0  0
    8.0480    7.2560   19.6490 C   0  0  0  0  0  0  0  0  0  0  0  0
    6.8770    6.5560   19.4920 C   0  0  0  0  0  0  0  0  0  0  0  0
    6.2470    6.5190   20.7220 N   0  0  0  0  0  0  0  0  0  0  0  0
    5.0040    5.8770   21.0330 C   0  0  0  0  0  0  0  0  0  0  0  0
    3.9700    5.9780   20.0790 C   0  0  0  0  0  0  0  0  0  0  0  0
    2.7570    5.3270   20.2710 C   0  0  0  0  0  0  0  0  0  0  0  0
    2.5550    4.5670   21.4150 C   0  0  0  0  0  0  0  0  0  0  0  0
    3.5490    4.4590   22.3970 C   0  0  0  0  0  0  0  0  0  0  0  0
    3.2760    3.6920   23.5440 C   0  0  0  0  0  0  0  0  0  0  0  0
    4.2040    3.5770   24.5720 C   0  0  0  0  0  0  0  0  0  0  0  0
    5.4150    4.2390   24.4720 C   0  0  0  0  0  0  0  0  0  0  0  0
    5.7000    5.0010   23.3350 C   0  0  0  0  0  0  0  0  0  0  0  0
    4.7980    5.1230   22.2410 C   0  0  0  0  0  0  0  0  0  0  0  0
    7.0070    7.1170   21.6690 N   0  0  0  0  0  0  0  0  0  0  0  0
    8.1350    7.5110   21.0420 C   0  0  0  0  0  0  0  0  0  0  0  0
    9.2700    8.0330   21.8200 C   0  0  0  0  0  0  0  0  0  0  0  0
    9.2420    7.6880   23.1470 N   0  0  0  0  0  0  0  0  0  0  0  0
   10.2260    8.6390   21.3460 O   0  0  0  0  0  0  0  0  0  0  0  0
   10.8640    8.5160   17.4700 H   0  0  0  0  0  0  0  0  0  0  0  0
   10.1110    9.9030   16.8800 H   0  0  0  0  0  0  0  0  0  0  0  0
    9.1000    6.8270   17.9340 H   0  0  0  0  0  0  0  0  0  0  0  0
    6.5078    6.1068   18.5582 H   0  0  0  0  0  0  0  0  0  0  0  0
    4.1256    6.5797   19.1714 H   0  0  0  0  0  0  0  0  0  0  0  0
    1.9593    5.4138   19.5185 H   0  0  0  0  0  0  0  0  0  0  0  0
    1.5989    4.0408   21.5530 H   0  0  0  0  0  0  0  0  0  0  0  0
    2.3097    3.1734   23.6289 H   0  0  0  0  0  0  0  0  0  0  0  0
    3.9778    2.9650   25.4576 H   0  0  0  0  0  0  0  0  0  0  0  0
    6.1519    4.1659   25.2854 H   0  0  0  0  0  0  0  0  0  0  0  0
    6.6635    5.5293   23.2838 H   0  0  0  0  0  0  0  0  0  0  0  0
    8.5720    6.9840   23.4290 H   0  0  0  0  0  0  0  0  0  0  0  0
   10.0760    7.8450   23.6910 H   0  0  0  0  0  0  0  0  0  0  0  0
  1  2  1  0
  2  3  2  0
  2  4  1  0
  4  5  1  0
  5  6  2  0
  6  7  1  0
  7  8  1  0
  8  9  2  0
  9 10  1  0
 10 11  2  0
 11 12  1  0
 12 13  2  0
 13 14  1  0
 14 15  2  0
 15 16  1  0
 16 17  2  0
  7 18  1  0
 18 19  2  0
 19 20  1  0
 20 21  1  0
 20 22  2  0
 19  5  1  0
 17  8  1  0
 17 12  1  0
  1 23  1  0
  1 24  1  0
  4 25  1  0
  6 26  1  0
  9 27  1  0
 10 28  1  0
 11 29  1  0
 13 30  1  0
 14 31  1  0
 15 32  1  0
 16 33  1  0
 21 34  1  0
 21 35  1  0
M  END
>  <meeko>  (3) 
{"is_sidechain": [false], "free_energy": -8.613, "intermolecular_energy": -10.158, "internal_energy": -0.409}

$$$$
4m0y_ligand
     RDKit          3D

 35 37  0  0  0  0  0  0  0  0999 V2000
   12.3160    8.4190   22.8030 N   0  0  0  0  0  0  0  0  0  0  0  0
   11.3480    7.6080   22.2890 C   0  0  0  0  0  0  0  0  0  0  0  0
   11.6400    6.6460   21.5940 O   0  0  0  0  0  0  0  0  0  0  0  0
   10.0940    7.9820   22.7020 N   0  0  0  0  0  0  0  0  0  0  0  0
    8.9510    7.4020   22.1820 C   0  0  0  0  0  0  0  0  0  0  0  0
    8.0500    6.6960   22.9400 C   0  0  0  0  0  0  0  0  0  0  0  0
    7.0920    6.1890   22.0830 N   0  0  0  0  0  0  0  0  0  0  0  0
    5.9460    5.4050   22.4400 C   0  0  0  0  0  0  0  0  0  0  0  0
    6.0440    4.6140   23.6040 C   0  0  0  0  0  0  0  0  0  0  0  0
    4.9570    3.8780   24.0590 C   0  0  0  0  0  0  0  0  0  0  0  0
    3.7570    3.9160   23.3620 C   0  0  0  0  0  0  0  0  0  0  0  0
    3.6250    4.6720   22.1890 C   0  0  0  0  0  0  0  0  0  0  0  0
    2.3910    4.6520   21.5150 C   0  0  0  0  0  0  0  0  0  0  0  0
    2.2070    5.3470   20.3260 C   0  0  0  0  0  0  0  0  0  0  0  0
    3.2620    6.0630   19.7870 C   0  0  0  0  0  0  0  0  0  0  0  0
    4.4930    6.0940   20.4490 C   0  0  0  0  0  0  0  0  0  0  0  0
    4.7210    5.4270   21.6850 C   0  0  0  0  0  0  0  0  0  0  0  0
    7.3180    6.5990   20.8130 N   0  0  0  0  0  0  0  0  0  0  0  0
    8.4080    7.3910   20.8710 C   0  0  0  0  0  0  0  0  0  0  0  0
    8.8240    8.1650   19.6890 C   0  0  0  0  0  0  0  0  0  0  0  0
    9.8920    7.6270   19.0180 N   0  0  0  0  0  0  0  0  0  0  0  0
    8.2370    9.1500   19.2530 O   0  0  0  0  0  0  0  0  0  0  0  0
   12.1000    9.4060   22.7560 H   0  0  0  0  0  0  0  0  0  0  0  0
   13.2220    8.2000   22.4040 H   0  0  0  0  0  0  0  0  0  0  0  0
   10.0580    8.3110   23.6570 H   0  0  0  0  0  0  0  0  0  0  0  0
    8.0845    6.5589   24.0309 H   0  0  0  0  0  0  0  0  0  0  0  0
    6.9934    4.5795   24.1586 H   0  0  0  0  0  0  0  0  0  0  0  0
    5.0470    3.2668   24.9691 H   0  0  0  0  0  0  0  0  0  0  0  0
    2.8956    3.3434   23.7364 H   0  0  0  0  0  0  0  0  0  0  0  0
    1.5551    4.0749   21.9373 H   0  0  0  0  0  0  0  0  0  0  0  0
    1.2317    5.3284   19.8176 H   0  0  0  0  0  0  0  0  0  0  0  0
    3.1320    6.6066   18.8396 H   0  0  0  0  0  0  0  0  0  0  0  0
    5.3208    6.6583   19.9948 H   0  0  0  0  0  0  0  0  0  0  0  0
   10.1750    6.6880   19.2730 H   0  0  0  0  0  0  0  0  0  0  0  0
   10.1040    7.9920   18.1030 H   0  0  0  0  0  0  0  0  0  0  0  0
  1  2  1  0
  2  3  2  0
  2  4  1  0
  4  5  1  0
  5  6  2  0
  6  7  1  0
  7  8  1  0
  8  9  2  0
  9 10  1  0
 10 11  2  0
 11 12  1  0
 12 13  2  0
 13 14  1  0
 14 15  2  0
 15 16  1  0
 16 17  2  0
  7 18  1  0
 18 19  2  0
 19 20  1  0
 20 21  1  0
 20 22  2  0
 19  5  1  0
 17  8  1  0
 17 12  1  0
  1 23  1  0
  1 24  1  0
  4 25  1  0
  6 26  1  0
  9 27  1  0
 10 28  1  0
 11 29  1  0
 13 30  1  0
 14 31  1  0
 15 32  1  0
 16 33  1  0
 21 34  1  0
 21 35  1  0
M  END
>  <meeko>  (4) 
{"is_sidechain": [false], "free_energy": -8.432, "intermolecular_energy": -10.126, "internal_energy": -0.228}

$$$$
4m0y_ligand
     RDKit          3D

 35 37  0  0  0  0  0  0  0  0999 V2000
   12.5010    8.8340   20.0920 N   0  0  0  0  0  0  0  0  0  0  0  0
   11.4630    7.9600   19.9510 C   0  0  0  0  0  0  0  0  0  0  0  0
   11.6090    6.9070   19.3480 O   0  0  0  0  0  0  0  0  0  0  0  0
   10.3350    8.3950   20.6000 N   0  0  0  0  0  0  0  0  0  0  0  0
    9.1190    7.7490   20.4620 C   0  0  0  0  0  0  0  0  0  0  0  0
    8.4280    7.2070   21.5170 C   0  0  0  0  0  0  0  0  0  0  0  0
    7.3150    6.5700   21.0010 N   0  0  0  0  0  0  0  0  0  0  0  0
    6.2970    5.8820   21.7400 C   0  0  0  0  0  0  0  0  0  0  0  0
    6.6430    5.4060   23.0220 C   0  0  0  0  0  0  0  0  0  0  0  0
    5.6980    4.7890   23.8330 C   0  0  0  0  0  0  0  0  0  0  0  0
    4.3950    4.6370   23.3790 C   0  0  0  0  0  0  0  0  0  0  0  0
    4.0160    5.0770   22.1040 C   0  0  0  0  0  0  0  0  0  0  0  0
    2.6860    4.8730   21.6930 C   0  0  0  0  0  0  0  0  0  0  0  0
    2.2570    5.2500   20.4260 C   0  0  0  0  0  0  0  0  0  0  0  0
    3.1570    5.8250   19.5460 C   0  0  0  0  0  0  0  0  0  0  0  0
    4.4810    6.0370   19.9440 C   0  0  0  0  0  0  0  0  0  0  0  0
    4.9610    5.6990   21.2410 C   0  0  0  0  0  0  0  0  0  0  0  0
    7.2410    6.7410   19.6600 N   0  0  0  0  0  0  0  0  0  0  0  0
    8.2980    7.5120   19.3290 C   0  0  0  0  0  0  0  0  0  0  0  0
    8.4200    8.0530   17.9660 C   0  0  0  0  0  0  0  0  0  0  0  0
    9.2630    7.3370   17.1550 N   0  0  0  0  0  0  0  0  0  0  0  0
    7.7710    8.9960   17.5240 O   0  0  0  0  0  0  0  0  0  0  0  0
   12.2480    9.8040   19.9610 H   0  0  0  0  0  0  0  0  0  0  0  0
   13.2900    8.5560   19.5200 H   0  0  0  0  0  0  0  0  0  0  0  0
   10.5210    8.8590   21.4780 H   0  0  0  0  0  0  0  0  0  0  0  0
    8.7086    7.2684   22.5788 H   0  0  0  0  0  0  0  0  0  0  0  0
    7.6747    5.5248   23.3847 H   0  0  0  0  0  0  0  0  0  0  0  0
    5.9814    4.4225   24.8307 H   0  0  0  0  0  0  0  0  0  0  0  0
    3.6471    4.1629   24.0316 H   0  0  0  0  0  0  0  0  0  0  0  0
    1.9722    4.4063   22.3877 H   0  0  0  0  0  0  0  0  0  0  0  0
    1.2107    5.0926   20.1252 H   0  0  0  0  0  0  0  0  0  0  0  0
    2.8319    6.1147   18.5358 H   0  0  0  0  0  0  0  0  0  0  0  0
    5.1818    6.4843   19.2237 H   0  0  0  0  0  0  0  0  0  0  0  0
    9.5740    6.4340   17.4910 H   0  0  0  0  0  0  0  0  0  0  0  0
    9.2450    7.5350   16.1670 H   0  0  0  0  0  0  0  0  0  0  0  0
  1  2  1  0
  2  3  2  0
  2  4  1  0
  4  5  1  0
  5  6  2  0
  6  7  1  0
  7  8  1  0
  8  9  2  0
  9 10  1  0
 10 11  2  0
 11 12  1  0
 12 13  2  0
 13 14  1  0
 14 15  2  0
 15 16  1  0
 16 17  2  0
  7 18  1  0
 18 19  2  0
 19 20  1  0
 20 21  1  0
 20 22  2  0
 19  5  1  0
 17  8  1  0
 17 12  1  0
  1 23  1  0
  1 24  1  0
  4 25  1  0
  6 26  1  0
  9 27  1  0
 10 28  1  0
 11 29  1  0
 13 30  1  0
 14 31  1  0
 15 32  1  0
 16 33  1  0
 21 34  1  0
 21 35  1  0
M  END
>  <meeko>  (5) 
{"is_sidechain": [false], "free_energy": -8.097, "intermolecular_energy": -9.773, "internal_energy": -0.187}

$$$$
4m0y_ligand
     RDKit          3D

 35 37  0  0  0  0  0  0  0  0999 V2000
   11.1590    8.6740   22.6050 N   0  0  0  0  0  0  0  0  0  0  0  0
   10.1560    7.9920   23.2280 C   0  0  0  0  0  0  0  0  0  0  0  0
    9.8550    8.2390   24.3860 O   0  0  0  0  0  0  0  0  0  0  0  0
    9.5460    7.0960   22.3860 N   0  0  0  0  0  0  0  0  0  0  0  0
    8.6100    6.1860   22.8430 C   0  0  0  0  0  0  0  0  0  0  0  0
    7.3250    6.1180   22.3630 C   0  0  0  0  0  0  0  0  0  0  0  0
    6.6550    5.1640   23.1060 N   0  0  0  0  0  0  0  0  0  0  0  0
    5.2930    4.7470   22.9400 C   0  0  0  0  0  0  0  0  0  0  0  0
    4.7410    3.9340   23.9530 C   0  0  0  0  0  0  0  0  0  0  0  0
    3.4090    3.5420   23.9050 C   0  0  0  0  0  0  0  0  0  0  0  0
    2.6060    3.9520   22.8480 C   0  0  0  0  0  0  0  0  0  0  0  0
    3.1220    4.7410   21.8120 C   0  0  0  0  0  0  0  0  0  0  0  0
    2.2650    5.1060   20.7580 C   0  0  0  0  0  0  0  0  0  0  0  0
    2.7240    5.8540   19.6800 C   0  0  0  0  0  0  0  0  0  0  0  0
    4.0530    6.2380   19.6360 C   0  0  0  0  0  0  0  0  0  0  0  0
    4.9140    5.8850   20.6800 C   0  0  0  0  0  0  0  0  0  0  0  0
    4.4850    5.1500   21.8200 C   0  0  0  0  0  0  0  0  0  0  0  0
    7.4850    4.5790   24.0000 N   0  0  0  0  0  0  0  0  0  0  0  0
    8.6940    5.1450   23.8040 C   0  0  0  0  0  0  0  0  0  0  0  0
    9.8820    4.6050   24.4840 C   0  0  0  0  0  0  0  0  0  0  0  0
   10.1860    5.2370   25.6630 N   0  0  0  0  0  0  0  0  0  0  0  0
   10.5140    3.6190   24.1170 O   0  0  0  0  0  0  0  0  0  0  0  0
   11.7680    8.0960   22.0410 H   0  0  0  0  0  0  0  0  0  0  0  0
   11.6700    9.2500   23.2650 H   0  0  0  0  0  0  0  0  0  0  0  0
    9.4520    7.4260   21.4350 H   0  0  0  0  0  0  0  0  0  0  0  0
    6.9058    6.7134   21.5385 H   0  0  0  0  0  0  0  0  0  0  0  0
    5.3735    3.6065   24.7913 H   0  0  0  0  0  0  0  0  0  0  0  0
    2.9913    2.9088   24.7016 H   0  0  0  0  0  0  0  0  0  0  0  0
    1.5479    3.6522   22.8243 H   0  0  0  0  0  0  0  0  0  0  0  0
    1.2108    4.7933   20.7874 H   0  0  0  0  0  0  0  0  0  0  0  0
    2.0371    6.1382   18.8692 H   0  0  0  0  0  0  0  0  0  0  0  0
    4.4310    6.8193   18.7821 H   0  0  0  0  0  0  0  0  0  0  0  0
    5.9693    6.1890   20.6169 H   0  0  0  0  0  0  0  0  0  0  0  0
    9.4930    5.8710   26.0410 H   0  0  0  0  0  0  0  0  0  0  0  0
   10.8620    4.8000   26.2690 H   0  0  0  0  0  0  0  0  0  0  0  0
  1  2  1  0
  2  3  2  0
  2  4  1  0
  4  5  1  0
  5  6  2  0
  6  7  1  0
  7  8  1  0
  8  9  2  0
  9 10  1  0
 10 11  2  0
 11 12  1  0
 12 13  2  0
 13 14  1  0
 14 15  2  0
 15 16  1  0
 16 17  2  0
  7 18  1  0
 18 19  2  0
 19 20  1  0
 20 21  1  0
 20 22  2  0
 19  5  1  0
 17  8  1  0
 17 12  1  0
  1 23  1  0
  1 24  1  0
  4 25  1  0
  6 26  1  0
  9 27  1  0
 10 28  1  0
 11 29  1  0
 13 30  1  0
 14 31  1  0
 15 32  1  0
 16 33  1  0
 21 34  1  0
 21 35  1  0
M  END
>  <meeko>  (6) 
{"is_sidechain": [false], "free_energy": -8.078, "intermolecular_energy": -9.803, "internal_energy": -0.136}

$$$$
4m0y_ligand
     RDKit          3D

 35 37  0  0  0  0  0  0  0  0999 V2000
    2.4960    6.7560   18.7080 N   0  0  0  0  0  0  0  0  0  0  0  0
    3.5960    6.3800   19.4230 C   0  0  0  0  0  0  0  0  0  0  0  0
    4.6400    6.0880   18.8590 O   0  0  0  0  0  0  0  0  0  0  0  0
    3.3720    6.4410   20.7760 N   0  0  0  0  0  0  0  0  0  0  0  0
    4.2910    5.9560   21.6890 C   0  0  0  0  0  0  0  0  0  0  0  0
    5.4960    6.5630   21.9430 C   0  0  0  0  0  0  0  0  0  0  0  0
    6.1860    5.7610   22.8330 N   0  0  0  0  0  0  0  0  0  0  0  0
    7.4820    6.0130   23.3920 C   0  0  0  0  0  0  0  0  0  0  0  0
    8.1910    7.1290   22.8980 C   0  0  0  0  0  0  0  0  0  0  0  0
    9.4230    7.4840   23.4330 C   0  0  0  0  0  0  0  0  0  0  0  0
    9.9690    6.7350   24.4660 C   0  0  0  0  0  0  0  0  0  0  0  0
    9.3070    5.6070   24.9700 C   0  0  0  0  0  0  0  0  0  0  0  0
    9.9210    4.8760   26.0030 C   0  0  0  0  0  0  0  0  0  0  0  0
    9.3370    3.7260   26.5190 C   0  0  0  0  0  0  0  0  0  0  0  0
    8.1330    3.2840   26.0000 C   0  0  0  0  0  0  0  0  0  0  0  0
    7.5090    4.0040   24.9760 C   0  0  0  0  0  0  0  0  0  0  0  0
    8.0500    5.2050   24.4370 C   0  0  0  0  0  0  0  0  0  0  0  0
    5.4360    4.6960   23.2020 N   0  0  0  0  0  0  0  0  0  0  0  0
    4.2560    4.8380   22.5630 C   0  0  0  0  0  0  0  0  0  0  0  0
    3.1290    3.9490   22.8870 C   0  0  0  0  0  0  0  0  0  0  0  0
    2.3300    3.6480   21.8140 N   0  0  0  0  0  0  0  0  0  0  0  0
    2.9400    3.4250   23.9800 O   0  0  0  0  0  0  0  0  0  0  0  0
    1.6280    6.3600   19.0420 H   0  0  0  0  0  0  0  0  0  0  0  0
    2.6390    6.6030   17.7160 H   0  0  0  0  0  0  0  0  0  0  0  0
    2.7950    7.2200   21.0620 H   0  0  0  0  0  0  0  0  0  0  0  0
    5.8481    7.5138   21.5163 H   0  0  0  0  0  0  0  0  0  0  0  0
    7.7626    7.7253   22.0789 H   0  0  0  0  0  0  0  0  0  0  0  0
    9.9644    8.3566   23.0388 H   0  0  0  0  0  0  0  0  0  0  0  0
   10.9370    7.0314   24.8962 H   0  0  0  0  0  0  0  0  0  0  0  0
   10.8825    5.2217   26.4103 H   0  0  0  0  0  0  0  0  0  0  0  0
    9.8274    3.1718   27.3329 H   0  0  0  0  0  0  0  0  0  0  0  0
    7.6673    2.3678   26.3921 H   0  0  0  0  0  0  0  0  0  0  0  0
    6.5593    3.6257   24.5698 H   0  0  0  0  0  0  0  0  0  0  0  0
    2.6720    3.9020   20.8950 H   0  0  0  0  0  0  0  0  0  0  0  0
    1.6620    2.9010   21.9200 H   0  0  0  0  0  0  0  0  0  0  0  0
  1  2  1  0
  2  3  2  0
  2  4  1  0
  4  5  1  0
  5  6  2  0
  6  7  1  0
  7  8  1  0
  8  9  2  0
  9 10  1  0
 10 11  2  0
 11 12  1  0
 12 13  2  0
 13 14  1  0
 14 15  2  0
 15 16  1  0
 16 17  2  0
  7 18  1  0
 18 19  2  0
 19 20  1  0
 20 21  1  0
 20 22  2  0
 19  5  1  0
 17  8  1  0
 17 12  1  0
  1 23  1  0
  1 24  1  0
  4 25  1  0
  6 26  1  0
  9 27  1  0
 10 28  1  0
 11 29  1  0
 13 30  1  0
 14 31  1  0
 15 32  1  0
 16 33  1  0
 21 34  1  0
 21 35  1  0
M  END
>  <meeko>  (7) 
{"is_sidechain": [false], "free_energy": -8.025, "intermolecular_energy": -10.209, "internal_energy": 0.333}

$$$$
4m0y_ligand
     RDKit          3D

 35 37  0  0  0  0  0  0  0  0999 V2000
   11.9400    8.9530   19.7350 N   0  0  0  0  0  0  0  0  0  0  0  0
   11.2060    8.0310   20.4200 C   0  0  0  0  0  0  0  0  0  0  0  0
   11.5400    6.8550   20.4450 O   0  0  0  0  0  0  0  0  0  0  0  0
   10.1470    8.6060   21.0790 N   0  0  0  0  0  0  0  0  0  0  0  0
    9.1790    7.8450   21.7070 C   0  0  0  0  0  0  0  0  0  0  0  0
    8.0110    7.4560   21.0980 C   0  0  0  0  0  0  0  0  0  0  0  0
    7.2500    6.7940   22.0430 N   0  0  0  0  0  0  0  0  0  0  0  0
    5.9610    6.1980   21.8450 C   0  0  0  0  0  0  0  0  0  0  0  0
    5.2910    6.4960   20.6400 C   0  0  0  0  0  0  0  0  0  0  0  0
    4.0700    5.9060   20.3390 C   0  0  0  0  0  0  0  0  0  0  0  0
    3.4960    5.0110   21.2330 C   0  0  0  0  0  0  0  0  0  0  0  0
    4.1190    4.7050   22.4500 C   0  0  0  0  0  0  0  0  0  0  0  0
    3.4770    3.8090   23.3240 C   0  0  0  0  0  0  0  0  0  0  0  0
    4.0220    3.4950   24.5630 C   0  0  0  0  0  0  0  0  0  0  0  0
    5.2120    4.0840   24.9510 C   0  0  0  0  0  0  0  0  0  0  0  0
    5.8630    4.9730   24.0900 C   0  0  0  0  0  0  0  0  0  0  0  0
    5.3630    5.3020   22.7990 C   0  0  0  0  0  0  0  0  0  0  0  0
    7.9190    6.6940   23.2160 N   0  0  0  0  0  0  0  0  0  0  0  0
    9.1200    7.2710   23.0040 C   0  0  0  0  0  0  0  0  0  0  0  0
   10.1780    7.1700   24.0220 C   0  0  0  0  0  0  0  0  0  0  0  0
    9.8520    6.3720   25.0880 N   0  0  0  0  0  0  0  0  0  0  0  0
   11.3000    7.6570   23.9190 O   0  0  0  0  0  0  0  0  0  0  0  0
   11.3890    9.6180   19.2100 H   0  0  0  0  0  0  0  0  0  0  0  0
   12.6500    8.5020   19.1680 H   0  0  0  0  0  0  0  0  0  0  0  0
   10.3520    9.5160   21.4680 H   0  0  0  0  0  0  0  0  0  0  0  0
    7.7321    7.6381   20.0496 H   0  0  0  0  0  0  0  0  0  0  0  0
    5.7413    7.2048   19.9295 H   0  0  0  0  0  0  0  0  0  0  0  0
    3.5589    6.1469   19.3952 H   0  0  0  0  0  0  0  0  0  0  0  0
    2.5369    4.5349   20.9813 H   0  0  0  0  0  0  0  0  0  0  0  0
    2.5253    3.3481   23.0208 H   0  0  0  0  0  0  0  0  0  0  0  0
    3.5116    2.7842   25.2295 H   0  0  0  0  0  0  0  0  0  0  0  0
    5.6455    3.8534   25.9353 H   0  0  0  0  0  0  0  0  0  0  0  0
    6.8019    5.4380   24.4251 H   0  0  0  0  0  0  0  0  0  0  0  0
    9.0210    5.8000   25.0020 H   0  0  0  0  0  0  0  0  0  0  0  0
   10.5910    6.1060   25.7190 H   0  0  0  0  0  0  0  0  0  0  0  0
  1  2  1  0
  2  3  2  0
  2  4  1  0
  4  5  1  0
  5  6  2  0
  6  7  1  0
  7  8  1  0
  8  9  2  0
  9 10  1  0
 10 11  2  0
 11 12  1  0
 12 13  2  0
 13 14  1  0
 14 15  2  0
 15 16  1  0
 16 17  2  0
  7 18  1  0
 18 19  2  0
 19 20  1  0
 20 21  1  0
 20 22  2  0
 19  5  1  0
 17  8  1  0
 17 12  1  0
  1 23  1  0
  1 24  1  0
  4 25  1  0
  6 26  1  0
  9 27  1  0
 10 28  1  0
 11 29  1  0
 13 30  1  0
 14 31  1  0
 15 32  1  0
 16 33  1  0
 21 34  1  0
 21 35  1  0
M  END
>  <meeko>  (8) 
{"is_sidechain": [false], "free_energy": -7.84, "intermolecular_energy": -9.431, "internal_energy": -0.227}

$$$$
4m0y_ligand
     RDKit          3D

 35 37  0  0  0  0  0  0  0  0999 V2000
    2.1280    5.4070   19.6710 N   0  0  0  0  0  0  0  0  0  0  0  0
    3.3980    5.5660   20.1440 C   0  0  0  0  0  0  0  0  0  0  0  0
    4.3340    5.7430   19.3780 O   0  0  0  0  0  0  0  0  0  0  0  0
    3.4380    5.5580   21.5160 N   0  0  0  0  0  0  0  0  0  0  0  0
    4.6340    5.5450   22.2100 C   0  0  0  0  0  0  0  0  0  0  0  0
    5.6410    6.4540   21.9980 C   0  0  0  0  0  0  0  0  0  0  0  0
    6.7090    6.0850   22.7940 N   0  0  0  0  0  0  0  0  0  0  0  0
    7.9690    6.7600   22.9100 C   0  0  0  0  0  0  0  0  0  0  0  0
    8.5180    6.8810   24.2040 C   0  0  0  0  0  0  0  0  0  0  0  0
    9.7660    7.4600   24.3970 C   0  0  0  0  0  0  0  0  0  0  0  0
   10.4860    7.9280   23.3060 C   0  0  0  0  0  0  0  0  0  0  0  0
    9.9670    7.8460   22.0070 C   0  0  0  0  0  0  0  0  0  0  0  0
   10.7340    8.3580   20.9460 C   0  0  0  0  0  0  0  0  0  0  0  0
   10.2600    8.3440   19.6390 C   0  0  0  0  0  0  0  0  0  0  0  0
    9.0020    7.8280   19.3790 C   0  0  0  0  0  0  0  0  0  0  0  0
    8.2310    7.3120   20.4250 C   0  0  0  0  0  0  0  0  0  0  0  0
    8.6850    7.2730   21.7730 C   0  0  0  0  0  0  0  0  0  0  0  0
    6.3950    5.0080   23.5510 N   0  0  0  0  0  0  0  0  0  0  0  0
    5.1130    4.7100   23.2530 C   0  0  0  0  0  0  0  0  0  0  0  0
    4.3870    3.7010   24.0410 C   0  0  0  0  0  0  0  0  0  0  0  0
    5.1250    3.1480   25.0550 N   0  0  0  0  0  0  0  0  0  0  0  0
    3.2000    3.4210   23.9000 O   0  0  0  0  0  0  0  0  0  0  0  0
    1.5990    4.6820   20.1360 H   0  0  0  0  0  0  0  0  0  0  0  0
    2.1270    5.3060   18.6620 H   0  0  0  0  0  0  0  0  0  0  0  0
    2.6490    6.0150   21.9520 H   0  0  0  0  0  0  0  0  0  0  0  0
    5.6044    7.3183   21.3186 H   0  0  0  0  0  0  0  0  0  0  0  0
    7.9506    6.5122   25.0712 H   0  0  0  0  0  0  0  0  0  0  0  0
   10.1826    7.5474   25.4113 H   0  0  0  0  0  0  0  0  0  0  0  0
   11.4806    8.3706   23.4640 H   0  0  0  0  0  0  0  0  0  0  0  0
   11.7291    8.7781   21.1540 H   0  0  0  0  0  0  0  0  0  0  0  0
   10.8785    8.7390   18.8196 H   0  0  0  0  0  0  0  0  0  0  0  0
    8.6097    7.8240   18.3513 H   0  0  0  0  0  0  0  0  0  0  0  0
    7.2295    6.9189   20.1958 H   0  0  0  0  0  0  0  0  0  0  0  0
    6.0070    3.5910   25.2830 H   0  0  0  0  0  0  0  0  0  0  0  0
    4.6370    2.5990   25.7460 H   0  0  0  0  0  0  0  0  0  0  0  0
  1  2  1  0
  2  3  2  0
  2  4  1  0
  4  5  1  0
  5  6  2  0
  6  7  1  0
  7  8  1  0
  8  9  2  0
  9 10  1  0
 10 11  2  0
 11 12  1  0
 12 13  2  0
 13 14  1  0
 14 15  2  0
 15 16  1  0
 16 17  2  0
  7 18  1  0
 18 19  2  0
 19 20  1  0
 20 21  1  0
 20 22  2  0
 19  5  1  0
 17  8  1  0
 17 12  1  0
  1 23  1  0
  1 24  1  0
  4 25  1  0
  6 26  1  0
  9 27  1  0
 10 28  1  0
 11 29  1  0
 13 30  1  0
 14 31  1  0
 15 32  1  0
 16 33  1  0
 21 34  1  0
 21 35  1  0
M  END
>  <meeko>  (9) 
{"is_sidechain": [false], "free_energy": -7.806, "intermolecular_energy": -9.521, "internal_energy": -0.097}

$$$$
