3e5a_ligand
     RDKit          3D

 63 67  0  0  0  0  0  0  0  0999 V2000
   28.0350   27.2090   14.6990 C   0  0  0  0  0  0  0  0  0  0  0  0
   26.8160   27.8330   15.2700 C   0  0  0  0  0  0  0  0  0  0  0  0
   26.6590   28.4610   16.5310 C   0  0  0  0  0  0  0  0  0  0  0  0
   25.3560   28.9060   16.5560 C   0  0  0  0  0  0  0  0  0  0  0  0
   24.6750   29.5850   17.5130 N   0  0  0  0  0  0  0  0  0  0  0  0
   24.4890   29.2090   18.8520 C   0  0  0  0  0  0  0  0  0  0  0  0
   23.3510   29.5360   19.6130 C   0  0  0  0  0  0  0  0  0  0  0  0
   23.2480   29.1170   20.9330 C   0  0  0  0  0  0  0  0  0  0  0  0
   22.1220   29.4020   21.7260 N   0  0  0  0  0  0  0  0  0  0  0  0
   20.9930   30.0180   20.9630 C   0  0  0  0  0  0  0  0  0  0  0  0
   19.8720   30.5710   21.8750 C   0  0  0  0  0  0  0  0  0  0  0  0
   19.9830   30.0220   23.2910 N   0  0  0  0  0  0  0  0  0  0  0  0
   18.7830   30.3580   24.1230 C   0  0  0  0  0  0  0  0  0  0  0  0
   20.3050   28.5460   23.2680 C   0  0  0  0  0  0  0  0  0  0  0  0
   21.7190   28.3240   22.6700 C   0  0  0  0  0  0  0  0  0  0  0  0
   24.2320   28.3820   21.4570 N   0  0  0  0  0  0  0  0  0  0  0  0
   25.3120   28.0820   20.7040 C   0  0  0  0  0  0  0  0  0  0  0  0
   26.6310   27.1110   21.4040 S   0  0  0  0  0  0  0  0  0  0  0  0
   27.3540   26.4100   19.9280 C   0  0  0  0  0  0  0  0  0  0  0  0
   26.8880   25.1910   19.4260 C   0  0  0  0  0  0  0  0  0  0  0  0
   27.5890   24.5360   18.4060 C   0  0  0  0  0  0  0  0  0  0  0  0
   28.7820   25.0770   17.9220 C   0  0  0  0  0  0  0  0  0  0  0  0
   29.5530   24.3180   17.0260 N   0  0  0  0  0  0  0  0  0  0  0  0
   30.9160   24.1370   17.1340 C   0  0  0  0  0  0  0  0  0  0  0  0
   31.6220   24.4800   18.0800 O   0  0  0  0  0  0  0  0  0  0  0  0
   31.5020   23.3460   16.0220 C   0  0  0  0  0  0  0  0  0  0  0  0
   31.9260   24.0470   14.7520 C   0  0  0  0  0  0  0  0  0  0  0  0
   30.7440   23.1230   14.7330 C   0  0  0  0  0  0  0  0  0  0  0  0
   29.1820   26.3450   18.3450 C   0  0  0  0  0  0  0  0  0  0  0  0
   28.4570   27.0220   19.3250 C   0  0  0  0  0  0  0  0  0  0  0  0
   25.4470   28.4880   19.4450 N   0  0  0  0  0  0  0  0  0  0  0  0
   24.7910   28.4020   15.4110 N   0  0  0  0  0  0  0  0  0  0  0  0
   25.6750   27.8570   14.5720 N   0  0  0  0  0  0  0  0  0  0  0  0
   28.6915   26.8729   15.5151 H   0  0  0  0  0  0  0  0  0  0  0  0
   27.7494   26.3462   14.0793 H   0  0  0  0  0  0  0  0  0  0  0  0
   28.5679   27.9452   14.0793 H   0  0  0  0  0  0  0  0  0  0  0  0
   27.4165   28.5697   17.3212 H   0  0  0  0  0  0  0  0  0  0  0  0
   24.0800   30.3410   17.1740 H   0  0  0  0  0  0  0  0  0  0  0  0
   22.5401   30.1257   19.1605 H   0  0  0  0  0  0  0  0  0  0  0  0
   21.3908   30.8453   20.3569 H   0  0  0  0  0  0  0  0  0  0  0  0
   20.5485   29.2271   20.3410 H   0  0  0  0  0  0  0  0  0  0  0  0
   19.9481   31.6678   21.9099 H   0  0  0  0  0  0  0  0  0  0  0  0
   18.9029   30.2588   21.4587 H   0  0  0  0  0  0  0  0  0  0  0  0
   20.7990   30.4960   23.7030 H   0  0  0  0  0  0  0  0  0  0  0  0
   19.0439   30.2850   25.1891 H   0  0  0  0  0  0  0  0  0  0  0  0
   18.4542   31.3827   23.8953 H   0  0  0  0  0  0  0  0  0  0  0  0
   17.9699   29.6530   23.8953 H   0  0  0  0  0  0  0  0  0  0  0  0
   20.2765   28.1503   24.2940 H   0  0  0  0  0  0  0  0  0  0  0  0
   19.5628   28.0228   22.6473 H   0  0  0  0  0  0  0  0  0  0  0  0
   22.4472   28.2878   23.4937 H   0  0  0  0  0  0  0  0  0  0  0  0
   21.6950   27.3807   22.1047 H   0  0  0  0  0  0  0  0  0  0  0  0
   25.9685   24.7455   19.8333 H   0  0  0  0  0  0  0  0  0  0  0  0
   27.2004   23.5963   17.9864 H   0  0  0  0  0  0  0  0  0  0  0  0
   29.0650   23.7170   16.3710 H   0  0  0  0  0  0  0  0  0  0  0  0
   31.9818   22.6842   16.7581 H   0  0  0  0  0  0  0  0  0  0  0  0
   31.7769   25.1318   14.6474 H   0  0  0  0  0  0  0  0  0  0  0  0
   32.8636   24.1198   14.1815 H   0  0  0  0  0  0  0  0  0  0  0  0
   29.7294   23.5312   14.6146 H   0  0  0  0  0  0  0  0  0  0  0  0
   30.4584   22.2396   14.1430 H   0  0  0  0  0  0  0  0  0  0  0  0
   30.0740   26.8131   17.9031 H   0  0  0  0  0  0  0  0  0  0  0  0
   28.7531   28.0384   19.6239 H   0  0  0  0  0  0  0  0  0  0  0  0
   26.2840   28.2050   18.9490 H   0  0  0  0  0  0  0  0  0  0  0  0
   23.8170   28.3950   15.1340 H   0  0  0  0  0  0  0  0  0  0  0  0
  1  2  1  0
  2  3  1  0
  3  4  2  0
  4  5  1  0
  5  6  1  0
  6  7  2  0
  7  8  1  0
  8  9  1  0
  9 10  1  0
 10 11  1  0
 11 12  1  0
 12 13  1  0
 12 14  1  0
 14 15  1  0
  8 16  2  0
 16 17  1  0
 17 18  1  0
 18 19  1  0
 19 20  2  0
 20 21  1  0
 21 22  2  0
 22 23  1  0
 23 24  1  0
 24 25  2  0
 24 26  1  0
 26 27  1  0
 27 28  1  0
 22 29  1  0
 29 30  2  0
 17 31  2  0
  4 32  1  0
 32 33  1  0
 33  2  2  0
 31  6  1  0
 15  9  1  0
 30 19  1  0
 28 26  1  0
  1 34  1  0
  1 35  1  0
  1 36  1  0
  3 37  1  0
  5 38  1  0
  7 39  1  0
 10 40  1  0
 10 41  1  0
 11 42  1  0
 11 43  1  0
 12 44  1  0
 13 45  1  0
 13 46  1  0
 13 47  1  0
 14 48  1  0
 14 49  1  0
 15 50  1  0
 15 51  1  0
 20 52  1  0
 21 53  1  0
 23 54  1  0
 26 55  1  0
 27 56  1  0
 27 57  1  0
 28 58  1  0
 28 59  1  0
 29 60  1  0
 30 61  1  0
 31 62  1  0
 32 63  1  0
M  CHG  2  12   1  31   1
M  END
>  <meeko>  (1) 
{"is_sidechain": [false], "free_energy": -9.383, "intermolecular_energy": -13.223, "internal_energy": -0.943}

$$$$
3e5a_ligand
     RDKit          3D

 63 67  0  0  0  0  0  0  0  0999 V2000
   29.1940   27.3420   15.0120 C   0  0  0  0  0  0  0  0  0  0  0  0
   27.7420   27.6150   15.1500 C   0  0  0  0  0  0  0  0  0  0  0  0
   26.9840   27.7520   16.3390 C   0  0  0  0  0  0  0  0  0  0  0  0
   25.7030   28.0390   15.9230 C   0  0  0  0  0  0  0  0  0  0  0  0
   24.5760   28.2800   16.6390 N   0  0  0  0  0  0  0  0  0  0  0  0
   24.4880   28.5940   18.0040 C   0  0  0  0  0  0  0  0  0  0  0  0
   23.5440   29.4850   18.5490 C   0  0  0  0  0  0  0  0  0  0  0  0
   23.5260   29.7350   19.9150 C   0  0  0  0  0  0  0  0  0  0  0  0
   22.5890   30.6000   20.5090 N   0  0  0  0  0  0  0  0  0  0  0  0
   22.5450   31.9550   19.8790 C   0  0  0  0  0  0  0  0  0  0  0  0
   21.7180   32.9780   20.6950 C   0  0  0  0  0  0  0  0  0  0  0  0
   20.8310   32.2860   21.7220 N   0  0  0  0  0  0  0  0  0  0  0  0
   19.8580   33.2330   22.3560 C   0  0  0  0  0  0  0  0  0  0  0  0
   20.1770   31.0620   21.1240 C   0  0  0  0  0  0  0  0  0  0  0  0
   21.2560   30.0000   20.7870 C   0  0  0  0  0  0  0  0  0  0  0  0
   24.4010   29.1000   20.7010 N   0  0  0  0  0  0  0  0  0  0  0  0
   25.2950   28.2510   20.1500 C   0  0  0  0  0  0  0  0  0  0  0  0
   26.4690   27.4120   21.1940 S   0  0  0  0  0  0  0  0  0  0  0  0
   27.2810   26.3540   20.0050 C   0  0  0  0  0  0  0  0  0  0  0  0
   28.4840   26.7510   19.4130 C   0  0  0  0  0  0  0  0  0  0  0  0
   29.0080   26.0330   18.3310 C   0  0  0  0  0  0  0  0  0  0  0  0
   28.3020   24.9470   17.8090 C   0  0  0  0  0  0  0  0  0  0  0  0
   28.7570   24.3540   16.6200 N   0  0  0  0  0  0  0  0  0  0  0  0
   29.8310   23.4910   16.5430 C   0  0  0  0  0  0  0  0  0  0  0  0
   30.4430   23.0080   17.4920 O   0  0  0  0  0  0  0  0  0  0  0  0
   30.1470   23.0560   15.1580 C   0  0  0  0  0  0  0  0  0  0  0  0
   31.3850   23.5910   14.4750 C   0  0  0  0  0  0  0  0  0  0  0  0
   30.0270   24.0070   13.9900 C   0  0  0  0  0  0  0  0  0  0  0  0
   27.1620   24.4880   18.4700 C   0  0  0  0  0  0  0  0  0  0  0  0
   26.6670   25.1710   19.5800 C   0  0  0  0  0  0  0  0  0  0  0  0
   25.3480   28.0090   18.8440 N   0  0  0  0  0  0  0  0  0  0  0  0
   25.7410   27.9090   14.5570 N   0  0  0  0  0  0  0  0  0  0  0  0
   26.9750   27.7710   14.0660 N   0  0  0  0  0  0  0  0  0  0  0  0
   29.6476   27.2567   16.0105 H   0  0  0  0  0  0  0  0  0  0  0  0
   29.3394   26.4008   14.4616 H   0  0  0  0  0  0  0  0  0  0  0  0
   29.6714   28.1661   14.4616 H   0  0  0  0  0  0  0  0  0  0  0  0
   27.3424   27.6507   17.3740 H   0  0  0  0  0  0  0  0  0  0  0  0
   23.7030   28.0150   16.1840 H   0  0  0  0  0  0  0  0  0  0  0  0
   22.8182   29.9848   17.8907 H   0  0  0  0  0  0  0  0  0  0  0  0
   23.5744   32.3315   19.7863 H   0  0  0  0  0  0  0  0  0  0  0  0
   22.0565   31.8454   18.8995 H   0  0  0  0  0  0  0  0  0  0  0  0
   22.4063   33.6584   21.2177 H   0  0  0  0  0  0  0  0  0  0  0  0
   21.0720   33.5333   19.9991 H   0  0  0  0  0  0  0  0  0  0  0  0
   21.4730   31.9520   22.4540 H   0  0  0  0  0  0  0  0  0  0  0  0
   19.9344   33.1587   23.4508 H   0  0  0  0  0  0  0  0  0  0  0  0
   20.0891   34.2614   22.0413 H   0  0  0  0  0  0  0  0  0  0  0  0
   18.8363   32.9741   22.0413 H   0  0  0  0  0  0  0  0  0  0  0  0
   19.4628   30.6401   21.8464 H   0  0  0  0  0  0  0  0  0  0  0  0
   19.6483   31.3470   20.2024 H   0  0  0  0  0  0  0  0  0  0  0  0
   21.3511   29.3126   21.6405 H   0  0  0  0  0  0  0  0  0  0  0  0
   20.9320   29.4765   19.8754 H   0  0  0  0  0  0  0  0  0  0  0  0
   29.0206   27.6304   19.7986 H   0  0  0  0  0  0  0  0  0  0  0  0
   29.9741   26.3239   17.8929 H   0  0  0  0  0  0  0  0  0  0  0  0
   28.1600   24.4120   15.8020 H   0  0  0  0  0  0  0  0  0  0  0  0
   29.7364   22.0613   15.3861 H   0  0  0  0  0  0  0  0  0  0  0  0
   32.0289   24.3161   14.9941 H   0  0  0  0  0  0  0  0  0  0  0  0
   32.2714   23.1374   14.0074 H   0  0  0  0  0  0  0  0  0  0  0  0
   29.6769   25.0368   14.1539 H   0  0  0  0  0  0  0  0  0  0  0  0
   29.5083   23.9839   13.0202 H   0  0  0  0  0  0  0  0  0  0  0  0
   26.6508   23.5818   18.1131 H   0  0  0  0  0  0  0  0  0  0  0  0
   25.7934   24.7796   20.1218 H   0  0  0  0  0  0  0  0  0  0  0  0
   26.0430   27.3470   18.5190 H   0  0  0  0  0  0  0  0  0  0  0  0
   24.9720   27.9070   13.8970 H   0  0  0  0  0  0  0  0  0  0  0  0
  1  2  1  0
  2  3  1  0
  3  4  2  0
  4  5  1  0
  5  6  1  0
  6  7  2  0
  7  8  1  0
  8  9  1  0
  9 10  1  0
 10 11  1  0
 11 12  1  0
 12 13  1  0
 12 14  1  0
 14 15  1  0
  8 16  2  0
 16 17  1  0
 17 18  1  0
 18 19  1  0
 19 20  2  0
 20 21  1  0
 21 22  2  0
 22 23  1  0
 23 24  1  0
 24 25  2  0
 24 26  1  0
 26 27  1  0
 27 28  1  0
 22 29  1  0
 29 30  2  0
 17 31  2  0
  4 32  1  0
 32 33  1  0
 33  2  2  0
 31  6  1  0
 15  9  1  0
 30 19  1  0
 28 26  1  0
  1 34  1  0
  1 35  1  0
  1 36  1  0
  3 37  1  0
  5 38  1  0
  7 39  1  0
 10 40  1  0
 10 41  1  0
 11 42  1  0
 11 43  1  0
 12 44  1  0
 13 45  1  0
 13 46  1  0
 13 47  1  0
 14 48  1  0
 14 49  1  0
 15 50  1  0
 15 51  1  0
 20 52  1  0
 21 53  1  0
 23 54  1  0
 26 55  1  0
 27 56  1  0
 27 57  1  0
 28 58  1  0
 28 59  1  0
 29 60  1  0
 30 61  1  0
 31 62  1  0
 32 63  1  0
M  CHG  2  12   1  31   1
M  END
>  <meeko>  (2) 
{"is_sidechain": [false], "free_energy": -9.221, "intermolecular_energy": -13.222, "internal_energy": -0.715}

$$$$
3e5a_ligand
     RDKit          3D

 63 67  0  0  0  0  0  0  0  0999 V2000
   27.4180   21.4700   26.6120 C   0  0  0  0  0  0  0  0  0  0  0  0
   26.4160   22.4340   26.0930 C   0  0  0  0  0  0  0  0  0  0  0  0
   25.7270   22.4050   24.8560 C   0  0  0  0  0  0  0  0  0  0  0  0
   24.8870   23.4950   24.8810 C   0  0  0  0  0  0  0  0  0  0  0  0
   23.9910   23.9400   23.9640 N   0  0  0  0  0  0  0  0  0  0  0  0
   24.0100   25.1680   23.2850 C   0  0  0  0  0  0  0  0  0  0  0  0
   22.8580   25.9190   22.9810 C   0  0  0  0  0  0  0  0  0  0  0  0
   22.9700   27.1290   22.3080 C   0  0  0  0  0  0  0  0  0  0  0  0
   21.8520   27.9240   22.0010 N   0  0  0  0  0  0  0  0  0  0  0  0
   20.6890   27.6980   22.9130 C   0  0  0  0  0  0  0  0  0  0  0  0
   19.3860   28.3680   22.4150 C   0  0  0  0  0  0  0  0  0  0  0  0
   19.6690   29.4100   21.3410 N   0  0  0  0  0  0  0  0  0  0  0  0
   18.4570   30.2280   21.0140 C   0  0  0  0  0  0  0  0  0  0  0  0
   20.8750   30.2420   21.7090 C   0  0  0  0  0  0  0  0  0  0  0  0
   22.1470   29.3540   21.7120 C   0  0  0  0  0  0  0  0  0  0  0  0
   24.1860   27.5760   21.9780 N   0  0  0  0  0  0  0  0  0  0  0  0
   25.2730   26.8350   22.2830 C   0  0  0  0  0  0  0  0  0  0  0  0
   26.8920   27.4240   21.8340 S   0  0  0  0  0  0  0  0  0  0  0  0
   27.0820   26.6880   20.2160 C   0  0  0  0  0  0  0  0  0  0  0  0
   26.7120   25.3570   20.0000 C   0  0  0  0  0  0  0  0  0  0  0  0
   27.0570   24.7160   18.8040 C   0  0  0  0  0  0  0  0  0  0  0  0
   27.8160   25.3910   17.8460 C   0  0  0  0  0  0  0  0  0  0  0  0
   28.2960   24.6750   16.7370 N   0  0  0  0  0  0  0  0  0  0  0  0
   29.5310   24.0620   16.6830 C   0  0  0  0  0  0  0  0  0  0  0  0
   30.3160   23.9270   17.6180 O   0  0  0  0  0  0  0  0  0  0  0  0
   29.8230   23.4260   15.3720 C   0  0  0  0  0  0  0  0  0  0  0  0
   31.0660   23.8260   14.6120 C   0  0  0  0  0  0  0  0  0  0  0  0
   29.7140   24.2030   14.0810 C   0  0  0  0  0  0  0  0  0  0  0  0
   28.0870   26.7490   18.0170 C   0  0  0  0  0  0  0  0  0  0  0  0
   27.6990   27.4030   19.1860 C   0  0  0  0  0  0  0  0  0  0  0  0
   25.1930   25.6640   22.9070 N   0  0  0  0  0  0  0  0  0  0  0  0
   25.2230   24.1710   26.0280 N   0  0  0  0  0  0  0  0  0  0  0  0
   26.0520   23.4930   26.8260 N   0  0  0  0  0  0  0  0  0  0  0  0
   27.4042   21.4833   27.7118 H   0  0  0  0  0  0  0  0  0  0  0  0
   27.1735   20.4589   26.2544 H   0  0  0  0  0  0  0  0  0  0  0  0
   28.4189   21.7534   26.2544 H   0  0  0  0  0  0  0  0  0  0  0  0
   25.8393   21.6680   24.0472 H   0  0  0  0  0  0  0  0  0  0  0  0
   23.1200   23.4130   23.9110 H   0  0  0  0  0  0  0  0  0  0  0  0
   21.8665   25.5462   23.2774 H   0  0  0  0  0  0  0  0  0  0  0  0
   20.5155   26.6150   22.9969 H   0  0  0  0  0  0  0  0  0  0  0  0
   20.9405   28.1519   23.8829 H   0  0  0  0  0  0  0  0  0  0  0  0
   18.7238   27.5952   21.9975 H   0  0  0  0  0  0  0  0  0  0  0  0
   18.9097   28.8728   23.2684 H   0  0  0  0  0  0  0  0  0  0  0  0
   19.9250   28.8720   20.5020 H   0  0  0  0  0  0  0  0  0  0  0  0
   17.9728   30.5548   21.9461 H   0  0  0  0  0  0  0  0  0  0  0  0
   18.7567   31.1093   20.4279 H   0  0  0  0  0  0  0  0  0  0  0  0
   17.7518   29.6204   20.4279 H   0  0  0  0  0  0  0  0  0  0  0  0
   20.9972   31.0520   20.9749 H   0  0  0  0  0  0  0  0  0  0  0  0
   20.7285   30.6688   22.7122 H   0  0  0  0  0  0  0  0  0  0  0  0
   22.6249   29.4214   20.7235 H   0  0  0  0  0  0  0  0  0  0  0  0
   22.8069   29.7238   22.5106 H   0  0  0  0  0  0  0  0  0  0  0  0
   26.1484   24.8121   20.7717 H   0  0  0  0  0  0  0  0  0  0  0  0
   26.7305   23.6819   18.6193 H   0  0  0  0  0  0  0  0  0  0  0  0
   27.6360   24.4330   16.0060 H   0  0  0  0  0  0  0  0  0  0  0  0
   29.3909   22.4848   15.7427 H   0  0  0  0  0  0  0  0  0  0  0  0
   31.7325   24.6012   15.0180 H   0  0  0  0  0  0  0  0  0  0  0  0
   31.9363   23.2878   14.2085 H   0  0  0  0  0  0  0  0  0  0  0  0
   29.3906   25.2543   14.0981 H   0  0  0  0  0  0  0  0  0  0  0  0
   29.1852   24.0549   13.1279 H   0  0  0  0  0  0  0  0  0  0  0  0
   28.6094   27.3066   17.2257 H   0  0  0  0  0  0  0  0  0  0  0  0
   27.8788   28.4825   19.2974 H   0  0  0  0  0  0  0  0  0  0  0  0
   26.0610   25.1810   23.1080 H   0  0  0  0  0  0  0  0  0  0  0  0
   24.9270   25.0900   26.3340 H   0  0  0  0  0  0  0  0  0  0  0  0
  1  2  1  0
  2  3  1  0
  3  4  2  0
  4  5  1  0
  5  6  1  0
  6  7  2  0
  7  8  1  0
  8  9  1  0
  9 10  1  0
 10 11  1  0
 11 12  1  0
 12 13  1  0
 12 14  1  0
 14 15  1  0
  8 16  2  0
 16 17  1  0
 17 18  1  0
 18 19  1  0
 19 20  2  0
 20 21  1  0
 21 22  2  0
 22 23  1  0
 23 24  1  0
 24 25  2  0
 24 26  1  0
 26 27  1  0
 27 28  1  0
 22 29  1  0
 29 30  2  0
 17 31  2  0
  4 32  1  0
 32 33  1  0
 33  2  2  0
 31  6  1  0
 15  9  1  0
 30 19  1  0
 28 26  1  0
  1 34  1  0
  1 35  1  0
  1 36  1  0
  3 37  1  0
  5 38  1  0
  7 39  1  0
 10 40  1  0
 10 41  1  0
 11 42  1  0
 11 43  1  0
 12 44  1  0
 13 45  1  0
 13 46  1  0
 13 47  1  0
 14 48  1  0
 14 49  1  0
 15 50  1  0
 15 51  1  0
 20 52  1  0
 21 53  1  0
 23 54  1  0
 26 55  1  0
 27 56  1  0
 27 57  1  0
 28 58  1  0
 28 59  1  0
 29 60  1  0
 30 61  1  0
 31 62  1  0
 32 63  1  0
M  CHG  2  12   1  31   1
M  END
>  <meeko>  (3) 
{"is_sidechain": [false], "free_energy": -8.908, "intermolecular_energy": -12.672, "internal_energy": -0.824}

$$$$
3e5a_ligand
     RDKit          3D

 63 67  0  0  0  0  0  0  0  0999 V2000
   19.2070   30.7530   24.0730 C   0  0  0  0  0  0  0  0  0  0  0  0
   19.5210   29.4660   23.4050 C   0  0  0  0  0  0  0  0  0  0  0  0
   20.6970   28.6830   23.5150 C   0  0  0  0  0  0  0  0  0  0  0  0
   20.4690   27.5730   22.7340 C   0  0  0  0  0  0  0  0  0  0  0  0
   21.2520   26.4920   22.4870 N   0  0  0  0  0  0  0  0  0  0  0  0
   22.6520   26.4250   22.5570 C   0  0  0  0  0  0  0  0  0  0  0  0
   23.3580   25.6080   23.4610 C   0  0  0  0  0  0  0  0  0  0  0  0
   24.7470   25.6010   23.4580 C   0  0  0  0  0  0  0  0  0  0  0  0
   25.4960   24.7870   24.3270 N   0  0  0  0  0  0  0  0  0  0  0  0
   25.9690   25.5000   25.5530 C   0  0  0  0  0  0  0  0  0  0  0  0
   27.0060   24.6890   26.3660 C   0  0  0  0  0  0  0  0  0  0  0  0
   27.0120   23.2220   25.9580 N   0  0  0  0  0  0  0  0  0  0  0  0
   27.8350   22.3810   26.8850 C   0  0  0  0  0  0  0  0  0  0  0  0
   25.6010   22.7130   25.7750 C   0  0  0  0  0  0  0  0  0  0  0  0
   24.9320   23.4320   24.5750 C   0  0  0  0  0  0  0  0  0  0  0  0
   25.3960   26.3600   22.5700 N   0  0  0  0  0  0  0  0  0  0  0  0
   24.6930   27.1320   21.7150 C   0  0  0  0  0  0  0  0  0  0  0  0
   25.5570   28.1530   20.5390 S   0  0  0  0  0  0  0  0  0  0  0  0
   26.7360   26.9830   19.8790 C   0  0  0  0  0  0  0  0  0  0  0  0
   28.0430   27.3860   19.5910 C   0  0  0  0  0  0  0  0  0  0  0  0
   28.9000   26.5400   18.8770 C   0  0  0  0  0  0  0  0  0  0  0  0
   28.4330   25.3090   18.4100 C   0  0  0  0  0  0  0  0  0  0  0  0
   29.2530   24.5580   17.5520 N   0  0  0  0  0  0  0  0  0  0  0  0
   29.2140   24.6340   16.1750 C   0  0  0  0  0  0  0  0  0  0  0  0
   28.5810   25.4500   15.5110 O   0  0  0  0  0  0  0  0  0  0  0  0
   30.1380   23.6870   15.5000 C   0  0  0  0  0  0  0  0  0  0  0  0
   31.5450   24.1280   15.1680 C   0  0  0  0  0  0  0  0  0  0  0  0
   30.5580   23.8910   14.0630 C   0  0  0  0  0  0  0  0  0  0  0  0
   27.1680   24.8640   18.7950 C   0  0  0  0  0  0  0  0  0  0  0  0
   26.3310   25.6860   19.5490 C   0  0  0  0  0  0  0  0  0  0  0  0
   23.3640   27.1750   21.7100 N   0  0  0  0  0  0  0  0  0  0  0  0
   19.2730   27.8230   22.1080 N   0  0  0  0  0  0  0  0  0  0  0  0
   18.6340   28.8950   22.5830 N   0  0  0  0  0  0  0  0  0  0  0  0
   19.2401   30.6174   25.1641 H   0  0  0  0  0  0  0  0  0  0  0  0
   19.9466   31.5108   23.7751 H   0  0  0  0  0  0  0  0  0  0  0  0
   18.2015   31.0850   23.7751 H   0  0  0  0  0  0  0  0  0  0  0  0
   21.5997   28.9133   24.0999 H   0  0  0  0  0  0  0  0  0  0  0  0
   20.7900   25.7140   22.0180 H   0  0  0  0  0  0  0  0  0  0  0  0
   22.8079   24.9736   24.1715 H   0  0  0  0  0  0  0  0  0  0  0  0
   26.4296   26.4514   25.2486 H   0  0  0  0  0  0  0  0  0  0  0  0
   25.0933   25.6543   26.2005 H   0  0  0  0  0  0  0  0  0  0  0  0
   28.0063   25.1123   26.1924 H   0  0  0  0  0  0  0  0  0  0  0  0
   26.7340   24.7499   27.4301 H   0  0  0  0  0  0  0  0  0  0  0  0
   27.4570   23.2010   25.0300 H   0  0  0  0  0  0  0  0  0  0  0  0
   27.5876   22.6338   27.9266 H   0  0  0  0  0  0  0  0  0  0  0  0
   27.6190   21.3176   26.7046 H   0  0  0  0  0  0  0  0  0  0  0  0
   28.9028   22.5740   26.7046 H   0  0  0  0  0  0  0  0  0  0  0  0
   25.6259   21.6301   25.5836 H   0  0  0  0  0  0  0  0  0  0  0  0
   25.0215   22.9161   26.6877 H   0  0  0  0  0  0  0  0  0  0  0  0
   25.0781   22.8200   23.6727 H   0  0  0  0  0  0  0  0  0  0  0  0
   23.8659   23.5560   24.8158 H   0  0  0  0  0  0  0  0  0  0  0  0
   28.3994   28.3711   19.9264 H   0  0  0  0  0  0  0  0  0  0  0  0
   29.9394   26.8441   18.6840 H   0  0  0  0  0  0  0  0  0  0  0  0
   30.0430   24.0690   17.9590 H   0  0  0  0  0  0  0  0  0  0  0  0
   29.6805   22.8571   16.0585 H   0  0  0  0  0  0  0  0  0  0  0  0
   31.8699   25.1520   15.4042 H   0  0  0  0  0  0  0  0  0  0  0  0
   32.5521   23.7533   15.4032 H   0  0  0  0  0  0  0  0  0  0  0  0
   30.1603   24.7415   13.4899 H   0  0  0  0  0  0  0  0  0  0  0  0
   30.5438   23.2710   13.1545 H   0  0  0  0  0  0  0  0  0  0  0  0
   26.8290   23.8593   18.5022 H   0  0  0  0  0  0  0  0  0  0  0  0
   25.3517   25.3139   19.8843 H   0  0  0  0  0  0  0  0  0  0  0  0
   22.9180   27.7730   21.0240 H   0  0  0  0  0  0  0  0  0  0  0  0
   18.8310   27.3100   21.3550 H   0  0  0  0  0  0  0  0  0  0  0  0
  1  2  1  0
  2  3  1  0
  3  4  2  0
  4  5  1  0
  5  6  1  0
  6  7  2  0
  7  8  1  0
  8  9  1  0
  9 10  1  0
 10 11  1  0
 11 12  1  0
 12 13  1  0
 12 14  1  0
 14 15  1  0
  8 16  2  0
 16 17  1  0
 17 18  1  0
 18 19  1  0
 19 20  2  0
 20 21  1  0
 21 22  2  0
 22 23  1  0
 23 24  1  0
 24 25  2  0
 24 26  1  0
 26 27  1  0
 27 28  1  0
 22 29  1  0
 29 30  2  0
 17 31  2  0
  4 32  1  0
 32 33  1  0
 33  2  2  0
 31  6  1  0
 15  9  1  0
 30 19  1  0
 28 26  1  0
  1 34  1  0
  1 35  1  0
  1 36  1  0
  3 37  1  0
  5 38  1  0
  7 39  1  0
 10 40  1  0
 10 41  1  0
 11 42  1  0
 11 43  1  0
 12 44  1  0
 13 45  1  0
 13 46  1  0
 13 47  1  0
 14 48  1  0
 14 49  1  0
 15 50  1  0
 15 51  1  0
 20 52  1  0
 21 53  1  0
 23 54  1  0
 26 55  1  0
 27 56  1  0
 27 57  1  0
 28 58  1  0
 28 59  1  0
 29 60  1  0
 30 61  1  0
 31 62  1  0
 32 63  1  0
M  CHG  2  12   1  31   1
M  END
>  <meeko>  (4) 
{"is_sidechain": [false], "free_energy": -8.882, "intermolecular_energy": -12.678, "internal_energy": -0.782}

$$$$
3e5a_ligand
     RDKit          3D

 63 67  0  0  0  0  0  0  0  0999 V2000
   20.6320   33.5770   21.2820 C   0  0  0  0  0  0  0  0  0  0  0  0
   21.6910   32.7460   21.9070 C   0  0  0  0  0  0  0  0  0  0  0  0
   21.5410   31.5680   22.6810 C   0  0  0  0  0  0  0  0  0  0  0  0
   22.8230   31.1670   22.9830 C   0  0  0  0  0  0  0  0  0  0  0  0
   23.2680   30.0950   23.6880 N   0  0  0  0  0  0  0  0  0  0  0  0
   23.7850   28.8970   23.1740 C   0  0  0  0  0  0  0  0  0  0  0  0
   24.1980   27.8100   23.9690 C   0  0  0  0  0  0  0  0  0  0  0  0
   24.6940   26.6580   23.3750 C   0  0  0  0  0  0  0  0  0  0  0  0
   25.1000   25.5400   24.1260 N   0  0  0  0  0  0  0  0  0  0  0  0
   25.8940   25.8930   25.3420 C   0  0  0  0  0  0  0  0  0  0  0  0
   26.5600   24.6660   26.0110 C   0  0  0  0  0  0  0  0  0  0  0  0
   25.9450   23.3620   25.5230 N   0  0  0  0  0  0  0  0  0  0  0  0
   26.4090   22.1840   26.3230 C   0  0  0  0  0  0  0  0  0  0  0  0
   24.4410   23.4780   25.4410 C   0  0  0  0  0  0  0  0  0  0  0  0
   24.0500   24.5070   24.3470 C   0  0  0  0  0  0  0  0  0  0  0  0
   24.7510   26.5900   22.0420 N   0  0  0  0  0  0  0  0  0  0  0  0
   24.3480   27.6460   21.3040 C   0  0  0  0  0  0  0  0  0  0  0  0
   24.4330   27.5620   19.5270 S   0  0  0  0  0  0  0  0  0  0  0  0
   26.0970   26.9520   19.2980 C   0  0  0  0  0  0  0  0  0  0  0  0
   27.1620   27.8460   19.1540 C   0  0  0  0  0  0  0  0  0  0  0  0
   28.4220   27.3820   18.7600 C   0  0  0  0  0  0  0  0  0  0  0  0
   28.6050   26.0300   18.4620 C   0  0  0  0  0  0  0  0  0  0  0  0
   29.8270   25.6210   17.9040 N   0  0  0  0  0  0  0  0  0  0  0  0
   30.0980   25.6050   16.5510 C   0  0  0  0  0  0  0  0  0  0  0  0
   29.3880   26.0700   15.6630 O   0  0  0  0  0  0  0  0  0  0  0  0
   31.4420   25.0670   16.2190 C   0  0  0  0  0  0  0  0  0  0  0  0
   31.5550   23.7950   15.4110 C   0  0  0  0  0  0  0  0  0  0  0  0
   31.9590   23.7990   16.8570 C   0  0  0  0  0  0  0  0  0  0  0  0
   27.5720   25.1260   18.7130 C   0  0  0  0  0  0  0  0  0  0  0  0
   26.3300   25.5810   19.1550 C   0  0  0  0  0  0  0  0  0  0  0  0
   23.8880   28.7700   21.8470 N   0  0  0  0  0  0  0  0  0  0  0  0
   23.6270   32.1760   22.5160 N   0  0  0  0  0  0  0  0  0  0  0  0
   22.9800   33.0730   21.7670 N   0  0  0  0  0  0  0  0  0  0  0  0
   20.0268   34.0519   22.0682 H   0  0  0  0  0  0  0  0  0  0  0  0
   21.0966   34.3541   20.6573 H   0  0  0  0  0  0  0  0  0  0  0  0
   19.9877   32.9409   20.6573 H   0  0  0  0  0  0  0  0  0  0  0  0
   20.6013   31.0788   22.9770 H   0  0  0  0  0  0  0  0  0  0  0  0
   23.0200   30.0880   24.6770 H   0  0  0  0  0  0  0  0  0  0  0  0
   24.1271   27.8745   25.0648 H   0  0  0  0  0  0  0  0  0  0  0  0
   26.6818   26.6036   25.0514 H   0  0  0  0  0  0  0  0  0  0  0  0
   25.1968   26.3269   26.0739 H   0  0  0  0  0  0  0  0  0  0  0  0
   27.6335   24.6668   25.7708 H   0  0  0  0  0  0  0  0  0  0  0  0
   26.4016   24.7369   27.0972 H   0  0  0  0  0  0  0  0  0  0  0  0
   26.2860   23.2460   24.5580 H   0  0  0  0  0  0  0  0  0  0  0  0
   26.3196   22.4110   27.3956 H   0  0  0  0  0  0  0  0  0  0  0  0
   25.7885   21.3087   26.0805 H   0  0  0  0  0  0  0  0  0  0  0  0
   27.4598   21.9670   26.0805 H   0  0  0  0  0  0  0  0  0  0  0  0
   24.0126   22.4968   25.1887 H   0  0  0  0  0  0  0  0  0  0  0  0
   24.0501   23.8155   26.4122 H   0  0  0  0  0  0  0  0  0  0  0  0
   23.8816   23.9691   23.4024 H   0  0  0  0  0  0  0  0  0  0  0  0
   23.1417   25.0251   24.6885 H   0  0  0  0  0  0  0  0  0  0  0  0
   27.0091   28.9174   19.3510 H   0  0  0  0  0  0  0  0  0  0  0  0
   29.2676   28.0816   18.6851 H   0  0  0  0  0  0  0  0  0  0  0  0
   30.6190   25.5060   18.5270 H   0  0  0  0  0  0  0  0  0  0  0  0
   31.8225   26.0955   16.1323 H   0  0  0  0  0  0  0  0  0  0  0  0
   30.6460   23.2616   15.0959 H   0  0  0  0  0  0  0  0  0  0  0  0
   32.0471   23.5151   14.4679 H   0  0  0  0  0  0  0  0  0  0  0  0
   31.3457   23.2684   17.6002 H   0  0  0  0  0  0  0  0  0  0  0  0
   32.8692   23.5231   17.4097 H   0  0  0  0  0  0  0  0  0  0  0  0
   27.7382   24.0492   18.5615 H   0  0  0  0  0  0  0  0  0  0  0  0
   25.5331   24.8605   19.3913 H   0  0  0  0  0  0  0  0  0  0  0  0
   23.5950   29.5070   21.2170 H   0  0  0  0  0  0  0  0  0  0  0  0
   24.6180   32.3190   22.6640 H   0  0  0  0  0  0  0  0  0  0  0  0
  1  2  1  0
  2  3  1  0
  3  4  2  0
  4  5  1  0
  5  6  1  0
  6  7  2  0
  7  8  1  0
  8  9  1  0
  9 10  1  0
 10 11  1  0
 11 12  1  0
 12 13  1  0
 12 14  1  0
 14 15  1  0
  8 16  2  0
 16 17  1  0
 17 18  1  0
 18 19  1  0
 19 20  2  0
 20 21  1  0
 21 22  2  0
 22 23  1  0
 23 24  1  0
 24 25  2  0
 24 26  1  0
 26 27  1  0
 27 28  1  0
 22 29  1  0
 29 30  2  0
 17 31  2  0
  4 32  1  0
 32 33  1  0
 33  2  2  0
 31  6  1  0
 15  9  1  0
 30 19  1  0
 28 26  1  0
  1 34  1  0
  1 35  1  0
  1 36  1  0
  3 37  1  0
  5 38  1  0
  7 39  1  0
 10 40  1  0
 10 41  1  0
 11 42  1  0
 11 43  1  0
 12 44  1  0
 13 45  1  0
 13 46  1  0
 13 47  1  0
 14 48  1  0
 14 49  1  0
 15 50  1  0
 15 51  1  0
 20 52  1  0
 21 53  1  0
 23 54  1  0
 26 55  1  0
 27 56  1  0
 27 57  1  0
 28 58  1  0
 28 59  1  0
 29 60  1  0
 30 61  1  0
 31 62  1  0
 32 63  1  0
M  CHG  2  12   1  31   1
M  END
>  <meeko>  (5) 
{"is_sidechain": [false], "free_energy": -8.47, "intermolecular_energy": -11.962, "internal_energy": -0.917}

$$$$
3e5a_ligand
     RDKit          3D

 63 67  0  0  0  0  0  0  0  0999 V2000
   21.5470   33.9090   24.1720 C   0  0  0  0  0  0  0  0  0  0  0  0
   22.2790   33.2800   23.0440 C   0  0  0  0  0  0  0  0  0  0  0  0
   21.7510   32.5260   21.9670 C   0  0  0  0  0  0  0  0  0  0  0  0
   22.8360   32.2090   21.1800 C   0  0  0  0  0  0  0  0  0  0  0  0
   22.9080   31.5130   20.0170 N   0  0  0  0  0  0  0  0  0  0  0  0
   23.4290   30.2240   19.8290 C   0  0  0  0  0  0  0  0  0  0  0  0
   23.5790   29.2760   20.8590 C   0  0  0  0  0  0  0  0  0  0  0  0
   24.1010   28.0200   20.5820 C   0  0  0  0  0  0  0  0  0  0  0  0
   24.2500   27.0330   21.5730 N   0  0  0  0  0  0  0  0  0  0  0  0
   25.3030   27.3550   22.5840 C   0  0  0  0  0  0  0  0  0  0  0  0
   25.6480   26.1610   23.5060 C   0  0  0  0  0  0  0  0  0  0  0  0
   24.5820   25.0750   23.4350 N   0  0  0  0  0  0  0  0  0  0  0  0
   24.7760   24.0240   24.4850 C   0  0  0  0  0  0  0  0  0  0  0  0
   23.1990   25.6840   23.4410 C   0  0  0  0  0  0  0  0  0  0  0  0
   22.9800   26.5070   22.1440 C   0  0  0  0  0  0  0  0  0  0  0  0
   24.4350   27.7210   19.3230 N   0  0  0  0  0  0  0  0  0  0  0  0
   24.2810   28.6490   18.3560 C   0  0  0  0  0  0  0  0  0  0  0  0
   24.7350   28.2570   16.6790 S   0  0  0  0  0  0  0  0  0  0  0  0
   26.4190   27.7040   16.9070 C   0  0  0  0  0  0  0  0  0  0  0  0
   27.3560   27.8540   15.8800 C   0  0  0  0  0  0  0  0  0  0  0  0
   28.6070   27.2320   15.9710 C   0  0  0  0  0  0  0  0  0  0  0  0
   28.9020   26.4190   17.0680 C   0  0  0  0  0  0  0  0  0  0  0  0
   30.0900   25.6700   17.0530 N   0  0  0  0  0  0  0  0  0  0  0  0
   30.2010   24.3980   16.5320 C   0  0  0  0  0  0  0  0  0  0  0  0
   29.3420   23.7990   15.8900 O   0  0  0  0  0  0  0  0  0  0  0  0
   31.5510   23.8010   16.6990 C   0  0  0  0  0  0  0  0  0  0  0  0
   31.7630   22.7200   17.7330 C   0  0  0  0  0  0  0  0  0  0  0  0
   32.3820   24.0730   17.9310 C   0  0  0  0  0  0  0  0  0  0  0  0
   28.0110   26.3630   18.1400 C   0  0  0  0  0  0  0  0  0  0  0  0
   26.7850   27.0240   18.0730 C   0  0  0  0  0  0  0  0  0  0  0  0
   23.8030   29.8670   18.5960 N   0  0  0  0  0  0  0  0  0  0  0  0
   23.9260   32.6480   21.8890 N   0  0  0  0  0  0  0  0  0  0  0  0
   23.6080   33.3950   22.9500 N   0  0  0  0  0  0  0  0  0  0  0  0
   21.9639   33.5508   25.1248 H   0  0  0  0  0  0  0  0  0  0  0  0
   21.6527   35.0023   24.1135 H   0  0  0  0  0  0  0  0  0  0  0  0
   20.4820   33.6399   24.1135 H   0  0  0  0  0  0  0  0  0  0  0  0
   20.6994   32.2523   21.7959 H   0  0  0  0  0  0  0  0  0  0  0  0
   22.7460   32.0580   19.1700 H   0  0  0  0  0  0  0  0  0  0  0  0
   23.2815   29.5315   21.8867 H   0  0  0  0  0  0  0  0  0  0  0  0
   26.2160   27.6615   22.0525 H   0  0  0  0  0  0  0  0  0  0  0  0
   24.9078   28.1582   23.2233 H   0  0  0  0  0  0  0  0  0  0  0  0
   26.6132   25.7355   23.1939 H   0  0  0  0  0  0  0  0  0  0  0  0
   25.6986   26.5279   24.5418 H   0  0  0  0  0  0  0  0  0  0  0  0
   24.7070   24.6320   22.5140 H   0  0  0  0  0  0  0  0  0  0  0  0
   24.6915   24.4815   25.4818 H   0  0  0  0  0  0  0  0  0  0  0  0
   24.0062   23.2464   24.3721 H   0  0  0  0  0  0  0  0  0  0  0  0
   25.7727   23.5724   24.3721 H   0  0  0  0  0  0  0  0  0  0  0  0
   22.4476   24.8825   23.4959 H   0  0  0  0  0  0  0  0  0  0  0  0
   23.0987   26.3474   24.3127 H   0  0  0  0  0  0  0  0  0  0  0  0
   22.4989   25.8609   21.3949 H   0  0  0  0  0  0  0  0  0  0  0  0
   22.3503   27.3711   22.4026 H   0  0  0  0  0  0  0  0  0  0  0  0
   27.1094   28.4627   14.9976 H   0  0  0  0  0  0  0  0  0  0  0  0
   29.3563   27.3832   15.1800 H   0  0  0  0  0  0  0  0  0  0  0  0
   30.9580   26.1520   17.2650 H   0  0  0  0  0  0  0  0  0  0  0  0
   31.7213   23.9051   15.6173 H   0  0  0  0  0  0  0  0  0  0  0  0
   30.9270   22.3994   18.3720 H   0  0  0  0  0  0  0  0  0  0  0  0
   32.1429   21.6879   17.7108 H   0  0  0  0  0  0  0  0  0  0  0  0
   31.9992   24.7429   18.7150 H   0  0  0  0  0  0  0  0  0  0  0  0
   33.4024   24.4409   18.1137 H   0  0  0  0  0  0  0  0  0  0  0  0
   28.2771   25.7942   19.0432 H   0  0  0  0  0  0  0  0  0  0  0  0
   26.1053   27.0106   18.9378 H   0  0  0  0  0  0  0  0  0  0  0  0
   23.7070   30.4960   17.8070 H   0  0  0  0  0  0  0  0  0  0  0  0
   24.9090   32.4830   21.7110 H   0  0  0  0  0  0  0  0  0  0  0  0
  1  2  1  0
  2  3  1  0
  3  4  2  0
  4  5  1  0
  5  6  1  0
  6  7  2  0
  7  8  1  0
  8  9  1  0
  9 10  1  0
 10 11  1  0
 11 12  1  0
 12 13  1  0
 12 14  1  0
 14 15  1  0
  8 16  2  0
 16 17  1  0
 17 18  1  0
 18 19  1  0
 19 20  2  0
 20 21  1  0
 21 22  2  0
 22 23  1  0
 23 24  1  0
 24 25  2  0
 24 26  1  0
 26 27  1  0
 27 28  1  0
 22 29  1  0
 29 30  2  0
 17 31  2  0
  4 32  1  0
 32 33  1  0
 33  2  2  0
 31  6  1  0
 15  9  1  0
 30 19  1  0
 28 26  1  0
  1 34  1  0
  1 35  1  0
  1 36  1  0
  3 37  1  0
  5 38  1  0
  7 39  1  0
 10 40  1  0
 10 41  1  0
 11 42  1  0
 11 43  1  0
 12 44  1  0
 13 45  1  0
 13 46  1  0
 13 47  1  0
 14 48  1  0
 14 49  1  0
 15 50  1  0
 15 51  1  0
 20 52  1  0
 21 53  1  0
 23 54  1  0
 26 55  1  0
 27 56  1  0
 27 57  1  0
 28 58  1  0
 28 59  1  0
 29 60  1  0
 30 61  1  0
 31 62  1  0
 32 63  1  0
M  CHG  2  12   1  31   1
M  END
>  <meeko>  (6) 
{"is_sidechain": [false], "free_energy": -8.372, "intermolecular_energy": -12.418, "internal_energy": -0.322}

$$$$
3e5a_ligand
     RDKit          3D

 63 67  0  0  0  0  0  0  0  0999 V2000
   25.4770   22.8630   26.2830 C   0  0  0  0  0  0  0  0  0  0  0  0
   25.3740   23.8580   25.1870 C   0  0  0  0  0  0  0  0  0  0  0  0
   25.8520   25.1920   25.1630 C   0  0  0  0  0  0  0  0  0  0  0  0
   25.5410   25.6680   23.9090 C   0  0  0  0  0  0  0  0  0  0  0  0
   25.7780   26.8770   23.3410 N   0  0  0  0  0  0  0  0  0  0  0  0
   24.9730   27.5500   22.4100 C   0  0  0  0  0  0  0  0  0  0  0  0
   23.6780   28.0280   22.6860 C   0  0  0  0  0  0  0  0  0  0  0  0
   22.9520   28.6890   21.7040 C   0  0  0  0  0  0  0  0  0  0  0  0
   21.6640   29.2020   21.9380 N   0  0  0  0  0  0  0  0  0  0  0  0
   21.1300   30.0170   20.8040 C   0  0  0  0  0  0  0  0  0  0  0  0
   19.8420   30.7940   21.1670 C   0  0  0  0  0  0  0  0  0  0  0  0
   19.2050   30.2550   22.4410 N   0  0  0  0  0  0  0  0  0  0  0  0
   17.8440   30.8330   22.6810 C   0  0  0  0  0  0  0  0  0  0  0  0
   19.2270   28.7440   22.4510 C   0  0  0  0  0  0  0  0  0  0  0  0
   20.6920   28.2390   22.5230 C   0  0  0  0  0  0  0  0  0  0  0  0
   23.5120   28.8830   20.5060 N   0  0  0  0  0  0  0  0  0  0  0  0
   24.7560   28.4140   20.2690 C   0  0  0  0  0  0  0  0  0  0  0  0
   25.5000   28.6620   18.6700 S   0  0  0  0  0  0  0  0  0  0  0  0
   26.6790   27.3200   18.6350 C   0  0  0  0  0  0  0  0  0  0  0  0
   28.0280   27.5740   18.3710 C   0  0  0  0  0  0  0  0  0  0  0  0
   28.9100   26.5150   18.1290 C   0  0  0  0  0  0  0  0  0  0  0  0
   28.4320   25.2030   18.1040 C   0  0  0  0  0  0  0  0  0  0  0  0
   29.2970   24.1770   17.6890 N   0  0  0  0  0  0  0  0  0  0  0  0
   29.3930   23.7170   16.3920 C   0  0  0  0  0  0  0  0  0  0  0  0
   28.8610   24.2160   15.4030 O   0  0  0  0  0  0  0  0  0  0  0  0
   30.3360   22.5800   16.2300 C   0  0  0  0  0  0  0  0  0  0  0  0
   31.8130   22.8010   16.4620 C   0  0  0  0  0  0  0  0  0  0  0  0
   31.3090   22.5260   15.0750 C   0  0  0  0  0  0  0  0  0  0  0  0
   27.1130   24.9460   18.4770 C   0  0  0  0  0  0  0  0  0  0  0  0
   26.2450   25.9980   18.7680 C   0  0  0  0  0  0  0  0  0  0  0  0
   25.4650   27.7600   21.1840 N   0  0  0  0  0  0  0  0  0  0  0  0
   24.7880   24.6750   23.3330 N   0  0  0  0  0  0  0  0  0  0  0  0
   24.7750   23.5380   24.0340 N   0  0  0  0  0  0  0  0  0  0  0  0
   25.4236   23.3791   27.2530 H   0  0  0  0  0  0  0  0  0  0  0  0
   24.6485   22.1437   26.2043 H   0  0  0  0  0  0  0  0  0  0  0  0
   26.4353   22.3286   26.2043 H   0  0  0  0  0  0  0  0  0  0  0  0
   26.3628   25.7322   25.9737 H   0  0  0  0  0  0  0  0  0  0  0  0
   26.7250   27.2370   23.4560 H   0  0  0  0  0  0  0  0  0  0  0  0
   23.2394   27.8773   23.6835 H   0  0  0  0  0  0  0  0  0  0  0  0
   21.9008   30.7403   20.4996 H   0  0  0  0  0  0  0  0  0  0  0  0
   20.8743   29.3204   19.9920 H   0  0  0  0  0  0  0  0  0  0  0  0
   20.0940   31.8545   21.3145 H   0  0  0  0  0  0  0  0  0  0  0  0
   19.1226   30.6731   20.3437 H   0  0  0  0  0  0  0  0  0  0  0  0
   19.8210   30.5640   23.2050 H   0  0  0  0  0  0  0  0  0  0  0  0
   17.6638   30.9095   23.7634 H   0  0  0  0  0  0  0  0  0  0  0  0
   17.7855   31.8336   22.2279 H   0  0  0  0  0  0  0  0  0  0  0  0
   17.0833   30.1803   22.2279 H   0  0  0  0  0  0  0  0  0  0  0  0
   18.6709   28.3767   23.3261 H   0  0  0  0  0  0  0  0  0  0  0  0
   18.7588   28.3684   21.5292 H   0  0  0  0  0  0  0  0  0  0  0  0
   20.9546   28.0720   23.5781 H   0  0  0  0  0  0  0  0  0  0  0  0
   20.7513   27.3109   21.9355 H   0  0  0  0  0  0  0  0  0  0  0  0
   28.3975   28.6099   18.3534 H   0  0  0  0  0  0  0  0  0  0  0  0
   29.9781   26.7155   17.9587 H   0  0  0  0  0  0  0  0  0  0  0  0
   30.0240   23.8800   18.3310 H   0  0  0  0  0  0  0  0  0  0  0  0
   29.5671   21.8975   16.6211 H   0  0  0  0  0  0  0  0  0  0  0  0
   32.1842   23.8030   16.7230 H   0  0  0  0  0  0  0  0  0  0  0  0
   32.5726   22.3482   17.1162 H   0  0  0  0  0  0  0  0  0  0  0  0
   31.3114   23.3267   14.3208 H   0  0  0  0  0  0  0  0  0  0  0  0
   31.5472   21.7887   14.2942 H   0  0  0  0  0  0  0  0  0  0  0  0
   26.7553   23.9078   18.5420 H   0  0  0  0  0  0  0  0  0  0  0  0
   25.2184   25.7873   19.1023 H   0  0  0  0  0  0  0  0  0  0  0  0
   26.3960   27.4560   20.9250 H   0  0  0  0  0  0  0  0  0  0  0  0
   24.2610   24.6970   22.4690 H   0  0  0  0  0  0  0  0  0  0  0  0
  1  2  1  0
  2  3  1  0
  3  4  2  0
  4  5  1  0
  5  6  1  0
  6  7  2  0
  7  8  1  0
  8  9  1  0
  9 10  1  0
 10 11  1  0
 11 12  1  0
 12 13  1  0
 12 14  1  0
 14 15  1  0
  8 16  2  0
 16 17  1  0
 17 18  1  0
 18 19  1  0
 19 20  2  0
 20 21  1  0
 21 22  2  0
 22 23  1  0
 23 24  1  0
 24 25  2  0
 24 26  1  0
 26 27  1  0
 27 28  1  0
 22 29  1  0
 29 30  2  0
 17 31  2  0
  4 32  1  0
 32 33  1  0
 33  2  2  0
 31  6  1  0
 15  9  1  0
 30 19  1  0
 28 26  1  0
  1 34  1  0
  1 35  1  0
  1 36  1  0
  3 37  1  0
  5 38  1  0
  7 39  1  0
 10 40  1  0
 10 41  1  0
 11 42  1  0
 11 43  1  0
 12 44  1  0
 13 45  1  0
 13 46  1  0
 13 47  1  0
 14 48  1  0
 14 49  1  0
 15 50  1  0
 15 51  1  0
 20 52  1  0
 21 53  1  0
 23 54  1  0
 26 55  1  0
 27 56  1  0
 27 57  1  0
 28 58  1  0
 28 59  1  0
 29 60  1  0
 30 61  1  0
 31 62  1  0
 32 63  1  0
M  CHG  2  12   1  31   1
M  END
>  <meeko>  (7) 
{"is_sidechain": [false], "free_energy": -8.287, "intermolecular_energy": -12.013, "internal_energy": -0.608}

$$$$
3e5a_ligand
     RDKit          3D

 63 67  0  0  0  0  0  0  0  0999 V2000
   22.7720   32.6920   21.1930 C   0  0  0  0  0  0  0  0  0  0  0  0
   22.7690   31.6320   20.1540 C   0  0  0  0  0  0  0  0  0  0  0  0
   23.6690   30.5490   20.0010 C   0  0  0  0  0  0  0  0  0  0  0  0
   23.2050   29.8410   18.9160 C   0  0  0  0  0  0  0  0  0  0  0  0
   23.6750   28.7070   18.3360 N   0  0  0  0  0  0  0  0  0  0  0  0
   24.7060   27.8780   18.8050 C   0  0  0  0  0  0  0  0  0  0  0  0
   25.8200   27.4920   18.0360 C   0  0  0  0  0  0  0  0  0  0  0  0
   26.7970   26.6710   18.5830 C   0  0  0  0  0  0  0  0  0  0  0  0
   27.9370   26.2760   17.8610 N   0  0  0  0  0  0  0  0  0  0  0  0
   28.1450   24.7950   17.8360 C   0  0  0  0  0  0  0  0  0  0  0  0
   29.5290   24.3850   17.2780 C   0  0  0  0  0  0  0  0  0  0  0  0
   30.1930   25.5340   16.5300 N   0  0  0  0  0  0  0  0  0  0  0  0
   31.4170   25.0930   15.7890 C   0  0  0  0  0  0  0  0  0  0  0  0
   29.1890   26.2550   15.6600 C   0  0  0  0  0  0  0  0  0  0  0  0
   28.1260   26.9520   16.5490 C   0  0  0  0  0  0  0  0  0  0  0  0
   26.6720   26.2750   19.8530 N   0  0  0  0  0  0  0  0  0  0  0  0
   25.5930   26.6600   20.5680 C   0  0  0  0  0  0  0  0  0  0  0  0
   25.4200   26.1250   22.2570 S   0  0  0  0  0  0  0  0  0  0  0  0
   23.9260   26.9840   22.7310 C   0  0  0  0  0  0  0  0  0  0  0  0
   22.6830   26.3570   22.6080 C   0  0  0  0  0  0  0  0  0  0  0  0
   21.5040   27.0940   22.7700 C   0  0  0  0  0  0  0  0  0  0  0  0
   21.5680   28.4690   23.0070 C   0  0  0  0  0  0  0  0  0  0  0  0
   20.3770   29.2130   22.9930 N   0  0  0  0  0  0  0  0  0  0  0  0
   19.7850   29.7110   21.8510 C   0  0  0  0  0  0  0  0  0  0  0  0
   20.1180   29.4640   20.6940 O   0  0  0  0  0  0  0  0  0  0  0  0
   18.5670   30.5200   22.1150 C   0  0  0  0  0  0  0  0  0  0  0  0
   18.7110   31.9510   22.5790 C   0  0  0  0  0  0  0  0  0  0  0  0
   18.1760   30.9120   23.5210 C   0  0  0  0  0  0  0  0  0  0  0  0
   22.8070   29.0670   23.2400 C   0  0  0  0  0  0  0  0  0  0  0  0
   23.9810   28.3230   23.1290 C   0  0  0  0  0  0  0  0  0  0  0  0
   24.6330   27.4290   20.0620 N   0  0  0  0  0  0  0  0  0  0  0  0
   22.1800   30.6020   18.4110 N   0  0  0  0  0  0  0  0  0  0  0  0
   21.8270   31.6170   19.2040 N   0  0  0  0  0  0  0  0  0  0  0  0
   22.7707   32.2279   22.1903 H   0  0  0  0  0  0  0  0  0  0  0  0
   23.6719   33.3143   21.0793 H   0  0  0  0  0  0  0  0  0  0  0  0
   21.8756   33.3194   21.0793 H   0  0  0  0  0  0  0  0  0  0  0  0
   24.5510   30.3222   20.6180 H   0  0  0  0  0  0  0  0  0  0  0  0
   23.3830   28.5550   17.3710 H   0  0  0  0  0  0  0  0  0  0  0  0
   25.9169   27.8421   16.9977 H   0  0  0  0  0  0  0  0  0  0  0  0
   28.0541   24.4115   18.8630 H   0  0  0  0  0  0  0  0  0  0  0  0
   27.3827   24.3683   17.1676 H   0  0  0  0  0  0  0  0  0  0  0  0
   30.1760   24.0820   18.1144 H   0  0  0  0  0  0  0  0  0  0  0  0
   29.3839   23.5530   16.5732 H   0  0  0  0  0  0  0  0  0  0  0  0
   30.4840   26.2000   17.2590 H   0  0  0  0  0  0  0  0  0  0  0  0
   32.1996   24.8110   16.5087 H   0  0  0  0  0  0  0  0  0  0  0  0
   31.1709   24.2270   15.1569 H   0  0  0  0  0  0  0  0  0  0  0  0
   31.7798   25.9170   15.1569 H   0  0  0  0  0  0  0  0  0  0  0  0
   29.7087   27.0104   15.0523 H   0  0  0  0  0  0  0  0  0  0  0  0
   28.6909   25.5277   15.0020 H   0  0  0  0  0  0  0  0  0  0  0  0
   28.4454   27.9888   16.7309 H   0  0  0  0  0  0  0  0  0  0  0  0
   27.1664   26.9080   16.0131 H   0  0  0  0  0  0  0  0  0  0  0  0
   22.6310   25.2815   22.3833 H   0  0  0  0  0  0  0  0  0  0  0  0
   20.5277   26.5906   22.7107 H   0  0  0  0  0  0  0  0  0  0  0  0
   19.8190   29.2320   23.8400 H   0  0  0  0  0  0  0  0  0  0  0  0
   18.0555   30.0042   21.2890 H   0  0  0  0  0  0  0  0  0  0  0  0
   19.7117   32.3775   22.7423 H   0  0  0  0  0  0  0  0  0  0  0  0
   18.3544   32.9254   22.2138 H   0  0  0  0  0  0  0  0  0  0  0  0
   18.7851   30.5780   24.3739 H   0  0  0  0  0  0  0  0  0  0  0  0
   17.2658   30.8114   24.1304 H   0  0  0  0  0  0  0  0  0  0  0  0
   22.8578   30.1314   23.5128 H   0  0  0  0  0  0  0  0  0  0  0  0
   24.9511   28.7899   23.3547 H   0  0  0  0  0  0  0  0  0  0  0  0
   23.8650   27.6810   20.6740 H   0  0  0  0  0  0  0  0  0  0  0  0
   21.6750   30.4900   17.5410 H   0  0  0  0  0  0  0  0  0  0  0  0
  1  2  1  0
  2  3  1  0
  3  4  2  0
  4  5  1  0
  5  6  1  0
  6  7  2  0
  7  8  1  0
  8  9  1  0
  9 10  1  0
 10 11  1  0
 11 12  1  0
 12 13  1  0
 12 14  1  0
 14 15  1  0
  8 16  2  0
 16 17  1  0
 17 18  1  0
 18 19  1  0
 19 20  2  0
 20 21  1  0
 21 22  2  0
 22 23  1  0
 23 24  1  0
 24 25  2  0
 24 26  1  0
 26 27  1  0
 27 28  1  0
 22 29  1  0
 29 30  2  0
 17 31  2  0
  4 32  1  0
 32 33  1  0
 33  2  2  0
 31  6  1  0
 15  9  1  0
 30 19  1  0
 28 26  1  0
  1 34  1  0
  1 35  1  0
  1 36  1  0
  3 37  1  0
  5 38  1  0
  7 39  1  0
 10 40  1  0
 10 41  1  0
 11 42  1  0
 11 43  1  0
 12 44  1  0
 13 45  1  0
 13 46  1  0
 13 47  1  0
 14 48  1  0
 14 49  1  0
 15 50  1  0
 15 51  1  0
 20 52  1  0
 21 53  1  0
 23 54  1  0
 26 55  1  0
 27 56  1  0
 27 57  1  0
 28 58  1  0
 28 59  1  0
 29 60  1  0
 30 61  1  0
 31 62  1  0
 32 63  1  0
M  CHG  2  12   1  31   1
M  END
>  <meeko>  (8) 
{"is_sidechain": [false], "free_energy": -8.235, "intermolecular_energy": -11.206, "internal_energy": -1.341}

$$$$
3e5a_ligand
     RDKit          3D

 63 67  0  0  0  0  0  0  0  0999 V2000
   28.5860   33.0760   27.0370 C   0  0  0  0  0  0  0  0  0  0  0  0
   27.3090   32.6450   26.4160 C   0  0  0  0  0  0  0  0  0  0  0  0
   26.5140   31.5160   26.7350 C   0  0  0  0  0  0  0  0  0  0  0  0
   25.4210   31.5950   25.9010 C   0  0  0  0  0  0  0  0  0  0  0  0
   24.3390   30.7840   25.7880 N   0  0  0  0  0  0  0  0  0  0  0  0
   24.2380   29.6000   25.0410 C   0  0  0  0  0  0  0  0  0  0  0  0
   24.7030   28.3470   25.4820 C   0  0  0  0  0  0  0  0  0  0  0  0
   24.5580   27.2250   24.6770 C   0  0  0  0  0  0  0  0  0  0  0  0
   24.9880   25.9480   25.0820 N   0  0  0  0  0  0  0  0  0  0  0  0
   24.8940   24.9160   24.0040 C   0  0  0  0  0  0  0  0  0  0  0  0
   25.1100   23.4740   24.5230 C   0  0  0  0  0  0  0  0  0  0  0  0
   25.7460   23.4680   25.9070 N   0  0  0  0  0  0  0  0  0  0  0  0
   26.1740   22.0940   26.3250 C   0  0  0  0  0  0  0  0  0  0  0  0
   26.8510   24.4940   25.9910 C   0  0  0  0  0  0  0  0  0  0  0  0
   26.2570   25.9210   25.8600 C   0  0  0  0  0  0  0  0  0  0  0  0
   23.9520   27.3510   23.4930 N   0  0  0  0  0  0  0  0  0  0  0  0
   23.5150   28.5660   23.0950 C   0  0  0  0  0  0  0  0  0  0  0  0
   22.7160   28.7390   21.5130 S   0  0  0  0  0  0  0  0  0  0  0  0
   24.0720   28.3700   20.4090 C   0  0  0  0  0  0  0  0  0  0  0  0
   24.4390   29.2810   19.4140 C   0  0  0  0  0  0  0  0  0  0  0  0
   25.3480   28.9080   18.4170 C   0  0  0  0  0  0  0  0  0  0  0  0
   25.8520   27.6060   18.3880 C   0  0  0  0  0  0  0  0  0  0  0  0
   26.6230   27.2050   17.2830 N   0  0  0  0  0  0  0  0  0  0  0  0
   28.0020   27.1760   17.2660 C   0  0  0  0  0  0  0  0  0  0  0  0
   28.7430   27.3510   18.2300 O   0  0  0  0  0  0  0  0  0  0  0  0
   28.5730   26.7770   15.9550 C   0  0  0  0  0  0  0  0  0  0  0  0
   28.6090   25.3150   15.5730 C   0  0  0  0  0  0  0  0  0  0  0  0
   29.8900   26.0410   15.8640 C   0  0  0  0  0  0  0  0  0  0  0  0
   25.5720   26.7370   19.4420 C   0  0  0  0  0  0  0  0  0  0  0  0
   24.7060   27.1250   20.4640 C   0  0  0  0  0  0  0  0  0  0  0  0
   23.6600   29.6600   23.8370 N   0  0  0  0  0  0  0  0  0  0  0  0
   25.6950   32.6440   25.0600 N   0  0  0  0  0  0  0  0  0  0  0  0
   26.7620   33.3590   25.4250 N   0  0  0  0  0  0  0  0  0  0  0  0
   28.4903   33.0437   28.1324 H   0  0  0  0  0  0  0  0  0  0  0  0
   29.3944   32.4009   26.7195 H   0  0  0  0  0  0  0  0  0  0  0  0
   28.8199   34.1029   26.7195 H   0  0  0  0  0  0  0  0  0  0  0  0
   26.7249   30.7421   27.4878 H   0  0  0  0  0  0  0  0  0  0  0  0
   23.4590   31.1780   26.1210 H   0  0  0  0  0  0  0  0  0  0  0  0
   25.1829   28.2562   26.4676 H   0  0  0  0  0  0  0  0  0  0  0  0
   23.8955   24.9775   23.5467 H   0  0  0  0  0  0  0  0  0  0  0  0
   25.6933   25.1264   23.2782 H   0  0  0  0  0  0  0  0  0  0  0  0
   24.1371   22.9632   24.5745 H   0  0  0  0  0  0  0  0  0  0  0  0
   25.7883   22.9556   23.8293 H   0  0  0  0  0  0  0  0  0  0  0  0
   25.0040   23.7790   26.5480 H   0  0  0  0  0  0  0  0  0  0  0  0
   26.1927   22.0340   27.4232 H   0  0  0  0  0  0  0  0  0  0  0  0
   25.4642   21.3526   25.9293 H   0  0  0  0  0  0  0  0  0  0  0  0
   27.1792   21.8868   25.9293 H   0  0  0  0  0  0  0  0  0  0  0  0
   27.3635   24.3997   26.9597 H   0  0  0  0  0  0  0  0  0  0  0  0
   27.5670   24.3231   25.1736 H   0  0  0  0  0  0  0  0  0  0  0  0
   26.0595   26.3135   26.8684 H   0  0  0  0  0  0  0  0  0  0  0  0
   26.9905   26.5369   25.3191 H   0  0  0  0  0  0  0  0  0  0  0  0
   24.0118   30.2947   19.4146 H   0  0  0  0  0  0  0  0  0  0  0  0
   25.6646   29.6387   17.6582 H   0  0  0  0  0  0  0  0  0  0  0  0
   26.1480   26.7360   16.5190 H   0  0  0  0  0  0  0  0  0  0  0  0
   28.1750   27.7011   15.5105 H   0  0  0  0  0  0  0  0  0  0  0  0
   28.2369   24.5544   16.2752 H   0  0  0  0  0  0  0  0  0  0  0  0
   28.2264   24.7236   14.7281 H   0  0  0  0  0  0  0  0  0  0  0  0
   30.4556   25.8118   16.7792 H   0  0  0  0  0  0  0  0  0  0  0  0
   30.8328   26.2007   15.3202 H   0  0  0  0  0  0  0  0  0  0  0  0
   26.0366   25.7403   19.4675 H   0  0  0  0  0  0  0  0  0  0  0  0
   24.5216   26.4513   21.3138 H   0  0  0  0  0  0  0  0  0  0  0  0
   23.2900   30.5280   23.4660 H   0  0  0  0  0  0  0  0  0  0  0  0
   25.2010   32.9350   24.2250 H   0  0  0  0  0  0  0  0  0  0  0  0
  1  2  1  0
  2  3  1  0
  3  4  2  0
  4  5  1  0
  5  6  1  0
  6  7  2  0
  7  8  1  0
  8  9  1  0
  9 10  1  0
 10 11  1  0
 11 12  1  0
 12 13  1  0
 12 14  1  0
 14 15  1  0
  8 16  2  0
 16 17  1  0
 17 18  1  0
 18 19  1  0
 19 20  2  0
 20 21  1  0
 21 22  2  0
 22 23  1  0
 23 24  1  0
 24 25  2  0
 24 26  1  0
 26 27  1  0
 27 28  1  0
 22 29  1  0
 29 30  2  0
 17 31  2  0
  4 32  1  0
 32 33  1  0
 33  2  2  0
 31  6  1  0
 15  9  1  0
 30 19  1  0
 28 26  1  0
  1 34  1  0
  1 35  1  0
  1 36  1  0
  3 37  1  0
  5 38  1  0
  7 39  1  0
 10 40  1  0
 10 41  1  0
 11 42  1  0
 11 43  1  0
 12 44  1  0
 13 45  1  0
 13 46  1  0
 13 47  1  0
 14 48  1  0
 14 49  1  0
 15 50  1  0
 15 51  1  0
 20 52  1  0
 21 53  1  0
 23 54  1  0
 26 55  1  0
 27 56  1  0
 27 57  1  0
 28 58  1  0
 28 59  1  0
 29 60  1  0
 30 61  1  0
 31 62  1  0
 32 63  1  0
M  CHG  2  12   1  31   1
M  END
>  <meeko>  (9) 
{"is_sidechain": [false], "free_energy": -8.095, "intermolecular_energy": -11.659, "internal_energy": -0.692}

$$$$
