1syi_ligand
     RDKit          3D

 30 31  0  0  0  0  0  0  0  0999 V2000
   18.1440   25.6160   72.9400 N   0  0  0  0  0  0  0  0  0  0  0  0
   18.3560   27.0100   73.5100 C   0  0  1  0  0  0  0  0  0  0  0  0
   19.5630   27.6920   72.8580 C   0  0  0  0  0  0  0  0  0  0  0  0
   20.6480   27.9740   73.8190 N   0  0  0  0  0  0  0  0  0  0  0  0
   20.7630   29.2130   74.4090 C   0  0  0  0  0  0  0  0  0  0  0  0
   21.7460   29.5120   75.2560 C   0  0  0  0  0  0  0  0  0  0  0  0
   22.7540   28.5110   75.5940 C   0  0  0  0  0  0  0  0  0  0  0  0
   23.6580   28.7300   76.3880 O   0  0  0  0  0  0  0  0  0  0  0  0
   22.5880   27.3060   74.9630 N   0  0  0  0  0  0  0  0  0  0  0  0
   21.5550   26.9630   74.1290 C   0  0  0  0  0  0  0  0  0  0  0  0
   21.4210   25.8060   73.7240 O   0  0  0  0  0  0  0  0  0  0  0  0
   21.6800   30.9000   75.7730 C   0  0  0  0  0  0  0  0  0  0  0  0
   20.2690   31.3230   75.3460 C   0  0  0  0  0  0  0  0  0  0  0  0
   19.8470   30.3770   74.2110 C   0  0  0  0  0  0  0  0  0  0  0  0
   17.1490   27.9030   73.1430 C   0  0  0  0  0  0  0  0  0  0  0  0
   16.6200   28.3710   74.2030 O   0  0  0  0  0  0  0  0  0  0  0  0
   16.8870   28.0430   71.9290 O   0  0  0  0  0  0  0  0  0  0  0  0
   18.9390   25.0000   73.1060 H   0  0  0  0  0  0  0  0  0  0  0  0
   17.8290   25.6030   71.9570 H   0  0  0  0  0  0  0  0  0  0  0  0
   17.3740   25.2550   73.5540 H   0  0  0  0  0  0  0  0  0  0  0  0
   18.4945   26.8988   74.5956 H   0  0  0  0  0  0  0  0  0  0  0  0
   19.9548   27.0337   72.0686 H   0  0  0  0  0  0  0  0  0  0  0  0
   19.2204   28.6555   72.4526 H   0  0  0  0  0  0  0  0  0  0  0  0
   23.2530   26.5860   75.1980 H   0  0  0  0  0  0  0  0  0  0  0  0
   21.7929   30.9264   76.8669 H   0  0  0  0  0  0  0  0  0  0  0  0
   22.4772   31.5564   75.3941 H   0  0  0  0  0  0  0  0  0  0  0  0
   19.5735   31.2319   76.1934 H   0  0  0  0  0  0  0  0  0  0  0  0
   20.2549   32.3711   75.0124 H   0  0  0  0  0  0  0  0  0  0  0  0
   18.7937   30.0769   74.3135 H   0  0  0  0  0  0  0  0  0  0  0  0
   19.9195   30.8293   73.2109 H   0  0  0  0  0  0  0  0  0  0  0  0
  1  2  1  0
  2  3  1  0
  3  4  1  0
  4  5  1  0
  5  6  2  0
  6  7  1  0
  7  8  2  0
  7  9  1  0
  9 10  1  0
 10 11  2  0
  6 12  1  0
 12 13  1  0
 13 14  1  0
  2 15  1  0
 15 16  2  0
 15 17  1  0
 10  4  1  0
 14  5  1  0
  1 18  1  0
  1 19  1  0
  1 20  1  0
  2 21  1  1
  3 22  1  0
  3 23  1  0
  9 24  1  0
 12 25  1  0
 12 26  1  0
 13 27  1  0
 13 28  1  0
 14 29  1  0
 14 30  1  0
M  CHG  2   1   1  17  -1
M  END
>  <meeko>  (1) 
{"is_sidechain": [false], "free_energy": -6.353, "intermolecular_energy": -7.652, "internal_energy": -0.418}

$$$$
1syi_ligand
     RDKit          3D

 30 31  0  0  0  0  0  0  0  0999 V2000
   18.0380   29.3190   76.7730 N   0  0  0  0  0  0  0  0  0  0  0  0
   17.5660   29.2550   75.3280 C   0  0  1  0  0  0  0  0  0  0  0  0
   17.8210   27.8680   74.7280 C   0  0  0  0  0  0  0  0  0  0  0  0
   18.5870   27.9220   73.4680 N   0  0  0  0  0  0  0  0  0  0  0  0
   19.9640   27.9390   73.4820 C   0  0  0  0  0  0  0  0  0  0  0  0
   20.6890   28.0180   72.3670 C   0  0  0  0  0  0  0  0  0  0  0  0
   20.0280   28.0890   71.0660 C   0  0  0  0  0  0  0  0  0  0  0  0
   20.6500   28.1350   70.0140 O   0  0  0  0  0  0  0  0  0  0  0  0
   18.6590   28.0810   71.1250 N   0  0  0  0  0  0  0  0  0  0  0  0
   17.8970   27.9480   72.2580 C   0  0  0  0  0  0  0  0  0  0  0  0
   16.6740   27.8090   72.1900 O   0  0  0  0  0  0  0  0  0  0  0  0
   22.1510   28.0220   72.6100 C   0  0  0  0  0  0  0  0  0  0  0  0
   22.2220   27.5930   74.0800 C   0  0  0  0  0  0  0  0  0  0  0  0
   20.8400   27.8720   74.6910 C   0  0  0  0  0  0  0  0  0  0  0  0
   16.0310   29.4330   75.2820 C   0  0  0  0  0  0  0  0  0  0  0  0
   15.7240   30.3080   74.4090 O   0  0  0  0  0  0  0  0  0  0  0  0
   15.3480   28.7230   76.0510 O   0  0  0  0  0  0  0  0  0  0  0  0
   18.8580   28.7390   76.9430 H   0  0  0  0  0  0  0  0  0  0  0  0
   17.2920   29.1680   77.4700 H   0  0  0  0  0  0  0  0  0  0  0  0
   18.3740   30.3110   76.8370 H   0  0  0  0  0  0  0  0  0  0  0  0
   18.1063   30.0375   74.7750 H   0  0  0  0  0  0  0  0  0  0  0  0
   18.3855   27.2681   75.4570 H   0  0  0  0  0  0  0  0  0  0  0  0
   16.8422   27.4201   74.5015 H   0  0  0  0  0  0  0  0  0  0  0  0
   18.1760   28.1010   70.2410 H   0  0  0  0  0  0  0  0  0  0  0  0
   22.6681   27.3035   71.9570 H   0  0  0  0  0  0  0  0  0  0  0  0
   22.6359   28.9873   72.4023 H   0  0  0  0  0  0  0  0  0  0  0  0
   22.4579   26.5209   74.1507 H   0  0  0  0  0  0  0  0  0  0  0  0
   23.0088   28.1452   74.6148 H   0  0  0  0  0  0  0  0  0  0  0  0
   20.5299   27.0580   75.3628 H   0  0  0  0  0  0  0  0  0  0  0  0
   20.8075   28.7814   75.3091 H   0  0  0  0  0  0  0  0  0  0  0  0
  1  2  1  0
  2  3  1  0
  3  4  1  0
  4  5  1  0
  5  6  2  0
  6  7  1  0
  7  8  2  0
  7  9  1  0
  9 10  1  0
 10 11  2  0
  6 12  1  0
 12 13  1  0
 13 14  1  0
  2 15  1  0
 15 16  2  0
 15 17  1  0
 10  4  1  0
 14  5  1  0
  1 18  1  0
  1 19  1  0
  1 20  1  0
  2 21  1  6
  3 22  1  0
  3 23  1  0
  9 24  1  0
 12 25  1  0
 12 26  1  0
 13 27  1  0
 13 28  1  0
 14 29  1  0
 14 30  1  0
M  CHG  2   1   1  17  -1
M  END
>  <meeko>  (2) 
{"is_sidechain": [false], "free_energy": -6.32, "intermolecular_energy": -7.617, "internal_energy": -0.415}

$$$$
1syi_ligand
     RDKit          3D

 30 31  0  0  0  0  0  0  0  0999 V2000
   22.1760   27.1150   74.6970 N   0  0  0  0  0  0  0  0  0  0  0  0
   21.3000   27.7090   73.6040 C   0  0  1  0  0  0  0  0  0  0  0  0
   20.7160   29.0570   74.0410 C   0  0  0  0  0  0  0  0  0  0  0  0
   19.3260   28.9490   74.5230 N   0  0  0  0  0  0  0  0  0  0  0  0
   18.2660   29.0940   73.6550 C   0  0  0  0  0  0  0  0  0  0  0  0
   16.9980   29.0320   74.0590 C   0  0  0  0  0  0  0  0  0  0  0  0
   16.6870   28.8020   75.4670 C   0  0  0  0  0  0  0  0  0  0  0  0
   15.5400   28.7100   75.8810 O   0  0  0  0  0  0  0  0  0  0  0  0
   17.7860   28.6800   76.2770 N   0  0  0  0  0  0  0  0  0  0  0  0
   19.0960   28.6890   75.8720 C   0  0  0  0  0  0  0  0  0  0  0  0
   20.0080   28.4280   76.6610 O   0  0  0  0  0  0  0  0  0  0  0  0
   16.0180   29.2150   72.9620 C   0  0  0  0  0  0  0  0  0  0  0  0
   16.9100   29.0710   71.7230 C   0  0  0  0  0  0  0  0  0  0  0  0
   18.3530   29.3300   72.1820 C   0  0  0  0  0  0  0  0  0  0  0  0
   22.1700   28.0340   72.3680 C   0  0  0  0  0  0  0  0  0  0  0  0
   23.1970   28.6970   72.7250 O   0  0  0  0  0  0  0  0  0  0  0  0
   21.7730   27.6110   71.2610 O   0  0  0  0  0  0  0  0  0  0  0  0
   22.6350   26.2530   74.4060 H   0  0  0  0  0  0  0  0  0  0  0  0
   21.7100   27.0280   75.6130 H   0  0  0  0  0  0  0  0  0  0  0  0
   22.9380   27.8330   74.7650 H   0  0  0  0  0  0  0  0  0  0  0  0
   20.5072   26.9770   73.3904 H   0  0  0  0  0  0  0  0  0  0  0  0
   21.3385   29.4633   74.8518 H   0  0  0  0  0  0  0  0  0  0  0  0
   20.7107   29.7165   73.1606 H   0  0  0  0  0  0  0  0  0  0  0  0
   17.6030   28.4930   77.2500 H   0  0  0  0  0  0  0  0  0  0  0  0
   15.2381   28.4397   72.9872 H   0  0  0  0  0  0  0  0  0  0  0  0
   15.4674   30.1662   73.0084 H   0  0  0  0  0  0  0  0  0  0  0  0
   16.8210   28.0561   71.3083 H   0  0  0  0  0  0  0  0  0  0  0  0
   16.6122   29.7814   70.9377 H   0  0  0  0  0  0  0  0  0  0  0  0
   19.0542   28.6281   71.7069 H   0  0  0  0  0  0  0  0  0  0  0  0
   18.7264   30.3303   71.9175 H   0  0  0  0  0  0  0  0  0  0  0  0
  1  2  1  0
  2  3  1  0
  3  4  1  0
  4  5  1  0
  5  6  2  0
  6  7  1  0
  7  8  2  0
  7  9  1  0
  9 10  1  0
 10 11  2  0
  6 12  1  0
 12 13  1  0
 13 14  1  0
  2 15  1  0
 15 16  2  0
 15 17  1  0
 10  4  1  0
 14  5  1  0
  1 18  1  0
  1 19  1  0
  1 20  1  0
  2 21  1  6
  3 22  1  0
  3 23  1  0
  9 24  1  0
 12 25  1  0
 12 26  1  0
 13 27  1  0
 13 28  1  0
 14 29  1  0
 14 30  1  0
M  CHG  2   1   1  17  -1
M  END
>  <meeko>  (3) 
{"is_sidechain": [false], "free_energy": -6.273, "intermolecular_energy": -7.493, "internal_energy": -0.481}

$$$$
1syi_ligand
     RDKit          3D

 30 31  0  0  0  0  0  0  0  0999 V2000
   17.8600   26.8400   72.5280 N   0  0  0  0  0  0  0  0  0  0  0  0
   18.9130   27.4590   73.4350 C   0  0  1  0  0  0  0  0  0  0  0  0
   19.3310   28.8430   72.9260 C   0  0  0  0  0  0  0  0  0  0  0  0
   20.6050   28.8170   72.1810 N   0  0  0  0  0  0  0  0  0  0  0  0
   21.8000   29.0580   72.8220 C   0  0  0  0  0  0  0  0  0  0  0  0
   22.9660   29.0730   72.1770 C   0  0  0  0  0  0  0  0  0  0  0  0
   23.0110   28.8280   70.7380 C   0  0  0  0  0  0  0  0  0  0  0  0
   24.0590   28.8040   70.1080 O   0  0  0  0  0  0  0  0  0  0  0  0
   21.7880   28.6090   70.1620 N   0  0  0  0  0  0  0  0  0  0  0  0
   20.5840   28.5380   70.8160 C   0  0  0  0  0  0  0  0  0  0  0  0
   19.5580   28.1940   70.2260 O   0  0  0  0  0  0  0  0  0  0  0  0
   24.1250   29.3510   73.0570 C   0  0  0  0  0  0  0  0  0  0  0  0
   23.5060   29.1800   74.4500 C   0  0  0  0  0  0  0  0  0  0  0  0
   21.9860   29.3270   74.2800 C   0  0  0  0  0  0  0  0  0  0  0  0
   18.3010   27.7170   74.8310 C   0  0  0  0  0  0  0  0  0  0  0  0
   19.2140   27.6770   75.7170 O   0  0  0  0  0  0  0  0  0  0  0  0
   17.0710   27.9300   74.8870 O   0  0  0  0  0  0  0  0  0  0  0  0
   17.7950   25.8290   72.6370 H   0  0  0  0  0  0  0  0  0  0  0  0
   17.9280   27.1310   71.5400 H   0  0  0  0  0  0  0  0  0  0  0  0
   16.9770   27.2260   72.9410 H   0  0  0  0  0  0  0  0  0  0  0  0
   19.7662   26.7652   73.4614 H   0  0  0  0  0  0  0  0  0  0  0  0
   18.5427   29.2259   72.2612 H   0  0  0  0  0  0  0  0  0  0  0  0
   19.4737   29.4900   73.8041 H   0  0  0  0  0  0  0  0  0  0  0  0
   21.7910   28.4090   69.1740 H   0  0  0  0  0  0  0  0  0  0  0  0
   24.9385   28.6300   72.8884 H   0  0  0  0  0  0  0  0  0  0  0  0
   24.5856   30.3360   72.8909 H   0  0  0  0  0  0  0  0  0  0  0  0
   23.7478   28.1853   74.8526 H   0  0  0  0  0  0  0  0  0  0  0  0
   23.8995   29.9298   75.1521 H   0  0  0  0  0  0  0  0  0  0  0  0
   21.4439   28.5918   74.8929 H   0  0  0  0  0  0  0  0  0  0  0  0
   21.6002   30.3063   74.5995 H   0  0  0  0  0  0  0  0  0  0  0  0
  1  2  1  0
  2  3  1  0
  3  4  1  0
  4  5  1  0
  5  6  2  0
  6  7  1  0
  7  8  2  0
  7  9  1  0
  9 10  1  0
 10 11  2  0
  6 12  1  0
 12 13  1  0
 13 14  1  0
  2 15  1  0
 15 16  2  0
 15 17  1  0
 10  4  1  0
 14  5  1  0
  1 18  1  0
  1 19  1  0
  1 20  1  0
  2 21  1  1
  3 22  1  0
  3 23  1  0
  9 24  1  0
 12 25  1  0
 12 26  1  0
 13 27  1  0
 13 28  1  0
 14 29  1  0
 14 30  1  0
M  CHG  2   1   1  17  -1
M  END
>  <meeko>  (4) 
{"is_sidechain": [false], "free_energy": -6.236, "intermolecular_energy": -7.421, "internal_energy": -0.509}

$$$$
1syi_ligand
     RDKit          3D

 30 31  0  0  0  0  0  0  0  0999 V2000
   16.0760   29.0750   73.3840 N   0  0  0  0  0  0  0  0  0  0  0  0
   17.2190   28.9860   72.3840 C   0  0  1  0  0  0  0  0  0  0  0  0
   17.9290   27.6310   72.4830 C   0  0  0  0  0  0  0  0  0  0  0  0
   19.2900   27.7390   73.0440 N   0  0  0  0  0  0  0  0  0  0  0  0
   20.3770   27.9410   72.2220 C   0  0  0  0  0  0  0  0  0  0  0  0
   21.6220   28.0120   72.6900 C   0  0  0  0  0  0  0  0  0  0  0  0
   21.8770   27.8780   74.1220 C   0  0  0  0  0  0  0  0  0  0  0  0
   22.9990   27.9650   74.6010 O   0  0  0  0  0  0  0  0  0  0  0  0
   20.7550   27.6670   74.8790 N   0  0  0  0  0  0  0  0  0  0  0  0
   19.4620   27.6410   74.4230 C   0  0  0  0  0  0  0  0  0  0  0  0
   18.5110   27.5870   75.2060 O   0  0  0  0  0  0  0  0  0  0  0  0
   22.6390   28.2330   71.6340 C   0  0  0  0  0  0  0  0  0  0  0  0
   21.7630   28.6220   70.4370 C   0  0  0  0  0  0  0  0  0  0  0  0
   20.3470   28.1080   70.7380 C   0  0  0  0  0  0  0  0  0  0  0  0
   16.6490   29.0330   70.9480 C   0  0  0  0  0  0  0  0  0  0  0  0
   16.6980   30.2250   70.5030 O   0  0  0  0  0  0  0  0  0  0  0  0
   16.2590   27.9550   70.4500 O   0  0  0  0  0  0  0  0  0  0  0  0
   15.9200   30.0260   73.7170 H   0  0  0  0  0  0  0  0  0  0  0  0
   16.1300   28.3880   74.1520 H   0  0  0  0  0  0  0  0  0  0  0  0
   15.2510   28.8490   72.7770 H   0  0  0  0  0  0  0  0  0  0  0  0
   17.9060   29.8174   72.6006 H   0  0  0  0  0  0  0  0  0  0  0  0
   17.3340   26.9686   73.1289 H   0  0  0  0  0  0  0  0  0  0  0  0
   18.0217   27.2299   71.4629 H   0  0  0  0  0  0  0  0  0  0  0  0
   20.8970   27.5980   75.8750 H   0  0  0  0  0  0  0  0  0  0  0  0
   23.3300   29.0445   71.9060 H   0  0  0  0  0  0  0  0  0  0  0  0
   23.2878   27.3641   71.4494 H   0  0  0  0  0  0  0  0  0  0  0  0
   21.7513   29.7152   70.3157 H   0  0  0  0  0  0  0  0  0  0  0  0
   22.1516   28.1856   69.5050 H   0  0  0  0  0  0  0  0  0  0  0  0
   19.5846   28.8407   70.4350 H   0  0  0  0  0  0  0  0  0  0  0  0
   20.0890   27.1860   70.1964 H   0  0  0  0  0  0  0  0  0  0  0  0
  1  2  1  0
  2  3  1  0
  3  4  1  0
  4  5  1  0
  5  6  2  0
  6  7  1  0
  7  8  2  0
  7  9  1  0
  9 10  1  0
 10 11  2  0
  6 12  1  0
 12 13  1  0
 13 14  1  0
  2 15  1  0
 15 16  2  0
 15 17  1  0
 10  4  1  0
 14  5  1  0
  1 18  1  0
  1 19  1  0
  1 20  1  0
  2 21  1  1
  3 22  1  0
  3 23  1  0
  9 24  1  0
 12 25  1  0
 12 26  1  0
 13 27  1  0
 13 28  1  0
 14 29  1  0
 14 30  1  0
M  CHG  2   1   1  17  -1
M  END
>  <meeko>  (5) 
{"is_sidechain": [false], "free_energy": -6.144, "intermolecular_energy": -7.394, "internal_energy": -0.425}

$$$$
1syi_ligand
     RDKit          3D

 30 31  0  0  0  0  0  0  0  0999 V2000
   18.9480   29.7740   76.2740 N   0  0  0  0  0  0  0  0  0  0  0  0
   18.7890   28.8920   75.0460 C   0  0  1  0  0  0  0  0  0  0  0  0
   19.8630   27.8000   75.0120 C   0  0  0  0  0  0  0  0  0  0  0  0
   21.0900   28.2250   74.3090 N   0  0  0  0  0  0  0  0  0  0  0  0
   21.1690   28.1710   72.9350 C   0  0  0  0  0  0  0  0  0  0  0  0
   22.2700   28.5170   72.2700 C   0  0  0  0  0  0  0  0  0  0  0  0
   23.4510   28.9770   72.9940 C   0  0  0  0  0  0  0  0  0  0  0  0
   24.4740   29.3320   72.4250 O   0  0  0  0  0  0  0  0  0  0  0  0
   23.3090   28.9940   74.3570 N   0  0  0  0  0  0  0  0  0  0  0  0
   22.1690   28.6910   75.0570 C   0  0  0  0  0  0  0  0  0  0  0  0
   22.1010   28.8750   76.2740 O   0  0  0  0  0  0  0  0  0  0  0  0
   22.1380   28.3830   70.7990 C   0  0  0  0  0  0  0  0  0  0  0  0
   20.6240   28.2010   70.6390 C   0  0  0  0  0  0  0  0  0  0  0  0
   20.0860   27.7380   72.0010 C   0  0  0  0  0  0  0  0  0  0  0  0
   17.4480   28.1290   75.1310 C   0  0  0  0  0  0  0  0  0  0  0  0
   17.6080   26.9290   74.7380 O   0  0  0  0  0  0  0  0  0  0  0  0
   16.4570   28.7580   75.5630 O   0  0  0  0  0  0  0  0  0  0  0  0
   19.0400   29.2360   77.1340 H   0  0  0  0  0  0  0  0  0  0  0  0
   18.2460   30.5280   76.3490 H   0  0  0  0  0  0  0  0  0  0  0  0
   19.8920   30.1990   76.1040 H   0  0  0  0  0  0  0  0  0  0  0  0
   18.8542   29.5481   74.1655 H   0  0  0  0  0  0  0  0  0  0  0  0
   20.1253   27.5329   76.0463 H   0  0  0  0  0  0  0  0  0  0  0  0
   19.4465   26.9432   74.4621 H   0  0  0  0  0  0  0  0  0  0  0  0
   24.0990   29.3340   74.8820 H   0  0  0  0  0  0  0  0  0  0  0  0
   22.4904   29.2870   70.2806 H   0  0  0  0  0  0  0  0  0  0  0  0
   22.7343   27.5645   70.3695 H   0  0  0  0  0  0  0  0  0  0  0  0
   20.1564   29.1542   70.3514 H   0  0  0  0  0  0  0  0  0  0  0  0
   20.3958   27.4652   69.8538 H   0  0  0  0  0  0  0  0  0  0  0  0
   19.1323   28.2308   72.2410 H   0  0  0  0  0  0  0  0  0  0  0  0
   19.8702   26.6603   72.0461 H   0  0  0  0  0  0  0  0  0  0  0  0
  1  2  1  0
  2  3  1  0
  3  4  1  0
  4  5  1  0
  5  6  2  0
  6  7  1  0
  7  8  2  0
  7  9  1  0
  9 10  1  0
 10 11  2  0
  6 12  1  0
 12 13  1  0
 13 14  1  0
  2 15  1  0
 15 16  2  0
 15 17  1  0
 10  4  1  0
 14  5  1  0
  1 18  1  0
  1 19  1  0
  1 20  1  0
  2 21  1  6
  3 22  1  0
  3 23  1  0
  9 24  1  0
 12 25  1  0
 12 26  1  0
 13 27  1  0
 13 28  1  0
 14 29  1  0
 14 30  1  0
M  CHG  2   1   1  17  -1
M  END
>  <meeko>  (6) 
{"is_sidechain": [false], "free_energy": -6.108, "intermolecular_energy": -7.316, "internal_energy": -0.46}

$$$$
1syi_ligand
     RDKit          3D

 30 31  0  0  0  0  0  0  0  0999 V2000
   18.2530   29.2700   76.6970 N   0  0  0  0  0  0  0  0  0  0  0  0
   18.9720   28.9280   75.4010 C   0  0  1  0  0  0  0  0  0  0  0  0
   20.2430   28.1170   75.6770 C   0  0  0  0  0  0  0  0  0  0  0  0
   21.3300   28.4150   74.7230 N   0  0  0  0  0  0  0  0  0  0  0  0
   22.0630   29.5750   74.8320 C   0  0  0  0  0  0  0  0  0  0  0  0
   23.0300   29.8920   73.9720 C   0  0  0  0  0  0  0  0  0  0  0  0
   23.3490   28.9960   72.8640 C   0  0  0  0  0  0  0  0  0  0  0  0
   24.2460   29.2300   72.0660 O   0  0  0  0  0  0  0  0  0  0  0  0
   22.5740   27.8670   72.8070 N   0  0  0  0  0  0  0  0  0  0  0  0
   21.6110   27.4990   73.7110 C   0  0  0  0  0  0  0  0  0  0  0  0
   21.0680   26.3940   73.6490 O   0  0  0  0  0  0  0  0  0  0  0  0
   23.6900   31.1840   74.2730 C   0  0  0  0  0  0  0  0  0  0  0  0
   23.1780   31.4700   75.6910 C   0  0  0  0  0  0  0  0  0  0  0  0
   21.9090   30.6260   75.8830 C   0  0  0  0  0  0  0  0  0  0  0  0
   18.0810   27.9940   74.5500 C   0  0  0  0  0  0  0  0  0  0  0  0
   18.1240   28.3520   73.3290 O   0  0  0  0  0  0  0  0  0  0  0  0
   17.4920   27.0660   75.1440 O   0  0  0  0  0  0  0  0  0  0  0  0
   18.7400   29.9800   77.2400 H   0  0  0  0  0  0  0  0  0  0  0  0
   17.9850   28.4500   77.2630 H   0  0  0  0  0  0  0  0  0  0  0  0
   17.3850   29.7360   76.3350 H   0  0  0  0  0  0  0  0  0  0  0  0
   19.2019   29.8783   74.8970 H   0  0  0  0  0  0  0  0  0  0  0  0
   20.5940   28.3487   76.6934 H   0  0  0  0  0  0  0  0  0  0  0  0
   19.9875   27.0528   75.5664 H   0  0  0  0  0  0  0  0  0  0  0  0
   22.7910   27.2160   72.0690 H   0  0  0  0  0  0  0  0  0  0  0  0
   24.7857   31.0890   74.2536 H   0  0  0  0  0  0  0  0  0  0  0  0
   23.4662   31.9801   73.5477 H   0  0  0  0  0  0  0  0  0  0  0  0
   23.9384   31.1848   76.4329 H   0  0  0  0  0  0  0  0  0  0  0  0
   22.9641   32.5406   75.8251 H   0  0  0  0  0  0  0  0  0  0  0  0
   21.8746   30.1816   76.8886 H   0  0  0  0  0  0  0  0  0  0  0  0
   20.9777   31.2046   75.7939 H   0  0  0  0  0  0  0  0  0  0  0  0
  1  2  1  0
  2  3  1  0
  3  4  1  0
  4  5  1  0
  5  6  2  0
  6  7  1  0
  7  8  2  0
  7  9  1  0
  9 10  1  0
 10 11  2  0
  6 12  1  0
 12 13  1  0
 13 14  1  0
  2 15  1  0
 15 16  2  0
 15 17  1  0
 10  4  1  0
 14  5  1  0
  1 18  1  0
  1 19  1  0
  1 20  1  0
  2 21  1  6
  3 22  1  0
  3 23  1  0
  9 24  1  0
 12 25  1  0
 12 26  1  0
 13 27  1  0
 13 28  1  0
 14 29  1  0
 14 30  1  0
M  CHG  2   1   1  17  -1
M  END
>  <meeko>  (7) 
{"is_sidechain": [false], "free_energy": -6.071, "intermolecular_energy": -7.416, "internal_energy": -0.315}

$$$$
1syi_ligand
     RDKit          3D

 30 31  0  0  0  0  0  0  0  0999 V2000
   17.0010   26.9950   72.1190 N   0  0  0  0  0  0  0  0  0  0  0  0
   16.6470   28.4710   72.2120 C   0  0  1  0  0  0  0  0  0  0  0  0
   17.7030   29.2400   73.0140 C   0  0  0  0  0  0  0  0  0  0  0  0
   17.2440   29.5940   74.3720 N   0  0  0  0  0  0  0  0  0  0  0  0
   16.8430   30.8780   74.6670 C   0  0  0  0  0  0  0  0  0  0  0  0
   16.4520   31.2410   75.8870 C   0  0  0  0  0  0  0  0  0  0  0  0
   16.4350   30.2650   76.9730 C   0  0  0  0  0  0  0  0  0  0  0  0
   16.0580   30.5450   78.1030 O   0  0  0  0  0  0  0  0  0  0  0  0
   16.8580   29.0120   76.6150 N   0  0  0  0  0  0  0  0  0  0  0  0
   17.2150   28.6070   75.3540 C   0  0  0  0  0  0  0  0  0  0  0  0
   17.4440   27.4210   75.1080 O   0  0  0  0  0  0  0  0  0  0  0  0
   16.0620   32.6680   75.9830 C   0  0  0  0  0  0  0  0  0  0  0  0
   15.9630   33.0630   74.5040 C   0  0  0  0  0  0  0  0  0  0  0  0
   16.7770   32.0270   73.7140 C   0  0  0  0  0  0  0  0  0  0  0  0
   16.6860   29.0990   70.8000 C   0  0  0  0  0  0  0  0  0  0  0  0
   16.2850   28.2510   69.9390 O   0  0  0  0  0  0  0  0  0  0  0  0
   17.0670   30.2860   70.7110 O   0  0  0  0  0  0  0  0  0  0  0  0
   17.5520   26.7760   71.2900 H   0  0  0  0  0  0  0  0  0  0  0  0
   16.2000   26.3580   72.2450 H   0  0  0  0  0  0  0  0  0  0  0  0
   17.6570   26.8880   72.9300 H   0  0  0  0  0  0  0  0  0  0  0  0
   15.6558   28.5366   72.6845 H   0  0  0  0  0  0  0  0  0  0  0  0
   18.6039   28.6146   73.0993 H   0  0  0  0  0  0  0  0  0  0  0  0
   17.9073   30.1787   72.4781 H   0  0  0  0  0  0  0  0  0  0  0  0
   16.8310   28.3100   77.3370 H   0  0  0  0  0  0  0  0  0  0  0  0
   15.0957   32.7861   76.4952 H   0  0  0  0  0  0  0  0  0  0  0  0
   16.7634   33.2847   76.5641 H   0  0  0  0  0  0  0  0  0  0  0  0
   14.9127   33.0487   74.1774 H   0  0  0  0  0  0  0  0  0  0  0  0
   16.3506   34.0792   74.3394 H   0  0  0  0  0  0  0  0  0  0  0  0
   16.2640   31.7433   72.7832 H   0  0  0  0  0  0  0  0  0  0  0  0
   17.7647   32.3927   73.3967 H   0  0  0  0  0  0  0  0  0  0  0  0
  1  2  1  0
  2  3  1  0
  3  4  1  0
  4  5  1  0
  5  6  2  0
  6  7  1  0
  7  8  2  0
  7  9  1  0
  9 10  1  0
 10 11  2  0
  6 12  1  0
 12 13  1  0
 13 14  1  0
  2 15  1  0
 15 16  2  0
 15 17  1  0
 10  4  1  0
 14  5  1  0
  1 18  1  0
  1 19  1  0
  1 20  1  0
  2 21  1  1
  3 22  1  0
  3 23  1  0
  9 24  1  0
 12 25  1  0
 12 26  1  0
 13 27  1  0
 13 28  1  0
 14 29  1  0
 14 30  1  0
M  CHG  2   1   1  17  -1
M  END
>  <meeko>  (8) 
{"is_sidechain": [false], "free_energy": -6.045, "intermolecular_energy": -7.267, "internal_energy": -0.433}

$$$$
1syi_ligand
     RDKit          3D

 30 31  0  0  0  0  0  0  0  0999 V2000
   18.4310   28.2250   71.2670 N   0  0  0  0  0  0  0  0  0  0  0  0
   19.2080   27.8170   72.5100 C   0  0  1  0  0  0  0  0  0  0  0  0
   19.3210   28.9860   73.4950 C   0  0  0  0  0  0  0  0  0  0  0  0
   20.5220   28.9010   74.3480 N   0  0  0  0  0  0  0  0  0  0  0  0
   21.7690   29.1930   73.8410 C   0  0  0  0  0  0  0  0  0  0  0  0
   22.8770   29.0980   74.5730 C   0  0  0  0  0  0  0  0  0  0  0  0
   22.8020   28.6720   75.9670 C   0  0  0  0  0  0  0  0  0  0  0  0
   23.7890   28.5970   76.6860 O   0  0  0  0  0  0  0  0  0  0  0  0
   21.5350   28.3850   76.4040 N   0  0  0  0  0  0  0  0  0  0  0  0
   20.3780   28.5270   75.6820 C   0  0  0  0  0  0  0  0  0  0  0  0
   19.2740   28.3780   76.2130 O   0  0  0  0  0  0  0  0  0  0  0  0
   24.1090   29.4590   73.8300 C   0  0  0  0  0  0  0  0  0  0  0  0
   23.5310   30.1250   72.5760 C   0  0  0  0  0  0  0  0  0  0  0  0
   22.0760   29.6480   72.4510 C   0  0  0  0  0  0  0  0  0  0  0  0
   18.4210   26.7280   73.2730 C   0  0  0  0  0  0  0  0  0  0  0  0
   17.3590   27.2280   73.7660 O   0  0  0  0  0  0  0  0  0  0  0  0
   18.9020   25.5750   73.2850 O   0  0  0  0  0  0  0  0  0  0  0  0
   19.0070   28.2220   70.4270 H   0  0  0  0  0  0  0  0  0  0  0  0
   17.8870   29.0950   71.3740 H   0  0  0  0  0  0  0  0  0  0  0  0
   17.7710   27.4170   71.1610 H   0  0  0  0  0  0  0  0  0  0  0  0
   20.1988   27.4757   72.1755 H   0  0  0  0  0  0  0  0  0  0  0  0
   19.3618   29.9248   72.9231 H   0  0  0  0  0  0  0  0  0  0  0  0
   18.4423   28.9485   74.1556 H   0  0  0  0  0  0  0  0  0  0  0  0
   21.4490   28.1160   77.3710 H   0  0  0  0  0  0  0  0  0  0  0  0
   24.7332   30.1592   74.4045 H   0  0  0  0  0  0  0  0  0  0  0  0
   24.7694   28.6052   73.6183 H   0  0  0  0  0  0  0  0  0  0  0  0
   23.5631   31.2196   72.6796 H   0  0  0  0  0  0  0  0  0  0  0  0
   24.1129   29.8558   71.6822 H   0  0  0  0  0  0  0  0  0  0  0  0
   21.4122   30.4701   72.1453 H   0  0  0  0  0  0  0  0  0  0  0  0
   21.9327   28.8666   71.6902 H   0  0  0  0  0  0  0  0  0  0  0  0
  1  2  1  0
  2  3  1  0
  3  4  1  0
  4  5  1  0
  5  6  2  0
  6  7  1  0
  7  8  2  0
  7  9  1  0
  9 10  1  0
 10 11  2  0
  6 12  1  0
 12 13  1  0
 13 14  1  0
  2 15  1  0
 15 16  2  0
 15 17  1  0
 10  4  1  0
 14  5  1  0
  1 18  1  0
  1 19  1  0
  1 20  1  0
  2 21  1  6
  3 22  1  0
  3 23  1  0
  9 24  1  0
 12 25  1  0
 12 26  1  0
 13 27  1  0
 13 28  1  0
 14 29  1  0
 14 30  1  0
M  CHG  2   1   1  17  -1
M  END
>  <meeko>  (9) 
{"is_sidechain": [false], "free_energy": -5.943, "intermolecular_energy": -7.309, "internal_energy": -0.269}

$$$$
