1z95_ligand
     RDKit          3D

 43 44  0  0  0  0  0  0  0  0999 V2000
   29.4900   -1.1500    3.9230 C   0  0  0  0  0  0  0  0  0  0  0  0
   29.6370    0.1700    4.6920 C   0  0  2  0  0  0  0  0  0  0  0  0
   30.8930    0.7190    4.2610 O   0  0  0  0  0  0  0  0  0  0  0  0
   29.6320   -0.1180    6.1950 C   0  0  0  0  0  0  0  0  0  0  0  0
   30.9040    0.8010    7.0390 S   0  0  0  0  0  0  0  0  0  0  0  0
   30.8830    2.1850    6.6200 O   0  0  0  0  0  0  0  0  0  0  0  0
   32.1260    0.0200    6.9420 O   0  0  0  0  0  0  0  0  0  0  0  0
   30.3750    0.7650    8.7370 C   0  0  0  0  0  0  0  0  0  0  0  0
   31.0890    0.0080    9.6730 C   0  0  0  0  0  0  0  0  0  0  0  0
   30.6690   -0.0040   11.0030 C   0  0  0  0  0  0  0  0  0  0  0  0
   29.5560    0.7410   11.3810 C   0  0  0  0  0  0  0  0  0  0  0  0
   29.1580    0.7270   12.6600 F   0  0  0  0  0  0  0  0  0  0  0  0
   28.8540    1.5080   10.4550 C   0  0  0  0  0  0  0  0  0  0  0  0
   29.2650    1.5260    9.1220 C   0  0  0  0  0  0  0  0  0  0  0  0
   28.4390    1.0580    4.2820 C   0  0  0  0  0  0  0  0  0  0  0  0
   27.6740    0.7200    3.3860 O   0  0  0  0  0  0  0  0  0  0  0  0
   28.4290    2.2540    4.9770 N   0  0  0  0  0  0  0  0  0  0  0  0
   27.4970    3.3020    4.8820 C   0  0  0  0  0  0  0  0  0  0  0  0
   28.0050    4.5990    4.7650 C   0  0  0  0  0  0  0  0  0  0  0  0
   27.1430    5.6940    4.6690 C   0  0  0  0  0  0  0  0  0  0  0  0
   25.7560    5.5100    4.6900 C   0  0  0  0  0  0  0  0  0  0  0  0
   24.9080    6.6650    4.5880 C   0  0  0  0  0  0  0  0  0  0  0  0
   24.2350    7.6060    4.5020 N   0  0  0  0  0  0  0  0  0  0  0  0
   25.2280    4.2130    4.8110 C   0  0  0  0  0  0  0  0  0  0  0  0
   23.7350    3.9860    4.8380 C   0  0  0  0  0  0  0  0  0  0  0  0
   23.3930    2.7380    4.4210 F   0  0  0  0  0  0  0  0  0  0  0  0
   23.2140    4.1290    6.0870 F   0  0  0  0  0  0  0  0  0  0  0  0
   23.0350    4.8450    4.0470 F   0  0  0  0  0  0  0  0  0  0  0  0
   26.1120    3.1180    4.9070 C   0  0  0  0  0  0  0  0  0  0  0  0
   29.3974   -1.9818    4.6368 H   0  0  0  0  0  0  0  0  0  0  0  0
   28.5910   -1.1077    3.2905 H   0  0  0  0  0  0  0  0  0  0  0  0
   30.3763   -1.3065    3.2905 H   0  0  0  0  0  0  0  0  0  0  0  0
   30.9300    1.6640    4.5350 H   0  0  0  0  0  0  0  0  0  0  0  0
   28.6527    0.1631    6.6097 H   0  0  0  0  0  0  0  0  0  0  0  0
   29.8255   -1.1908    6.3419 H   0  0  0  0  0  0  0  0  0  0  0  0
   31.9715   -0.5710    9.3632 H   0  0  0  0  0  0  0  0  0  0  0  0
   31.2149   -0.5995   11.7496 H   0  0  0  0  0  0  0  0  0  0  0  0
   27.9805    2.0963   10.7726 H   0  0  0  0  0  0  0  0  0  0  0  0
   28.7225    2.1318    8.3813 H   0  0  0  0  0  0  0  0  0  0  0  0
   29.1960    2.3670    5.6360 H   0  0  0  0  0  0  0  0  0  0  0  0
   29.0932    4.7588    4.7484 H   0  0  0  0  0  0  0  0  0  0  0  0
   27.5577    6.7086    4.5762 H   0  0  0  0  0  0  0  0  0  0  0  0
   25.7038    2.1011    5.0033 H   0  0  0  0  0  0  0  0  0  0  0  0
  1  2  1  0
  2  3  1  6
  2  4  1  0
  4  5  1  0
  5  6  2  0
  5  7  2  0
  5  8  1  0
  8  9  2  0
  9 10  1  0
 10 11  2  0
 11 12  1  0
 11 13  1  0
 13 14  2  0
  2 15  1  0
 15 16  2  0
 15 17  1  0
 17 18  1  0
 18 19  2  0
 19 20  1  0
 20 21  2  0
 21 22  1  0
 22 23  3  0
 21 24  1  0
 24 25  1  0
 25 26  1  0
 25 27  1  0
 25 28  1  0
 24 29  2  0
 14  8  1  0
 29 18  1  0
  1 30  1  0
  1 31  1  0
  1 32  1  0
  3 33  1  0
  4 34  1  0
  4 35  1  0
  9 36  1  0
 10 37  1  0
 13 38  1  0
 14 39  1  0
 17 40  1  0
 19 41  1  0
 20 42  1  0
 29 43  1  0
M  END
>  <meeko>  (1) 
{"is_sidechain": [false], "free_energy": -10.316, "intermolecular_energy": -14.236, "internal_energy": -0.912}

$$$$
1z95_ligand
     RDKit          3D

 43 44  0  0  0  0  0  0  0  0999 V2000
   29.5750   -1.7700    3.7370 C   0  0  0  0  0  0  0  0  0  0  0  0
   29.7170   -0.4250    4.4620 C   0  0  2  0  0  0  0  0  0  0  0  0
   30.3460    0.4500    3.5120 O   0  0  0  0  0  0  0  0  0  0  0  0
   30.5770   -0.6140    5.7140 C   0  0  0  0  0  0  0  0  0  0  0  0
   31.1510    0.9470    6.3520 S   0  0  0  0  0  0  0  0  0  0  0  0
   30.4640    2.0390    5.6970 O   0  0  0  0  0  0  0  0  0  0  0  0
   32.6030    0.8920    6.3650 O   0  0  0  0  0  0  0  0  0  0  0  0
   30.5970    0.9250    8.0420 C   0  0  0  0  0  0  0  0  0  0  0  0
   29.4410    1.6260    8.4060 C   0  0  0  0  0  0  0  0  0  0  0  0
   29.0130    1.5930    9.7330 C   0  0  0  0  0  0  0  0  0  0  0  0
   29.7320    0.8580   10.6710 C   0  0  0  0  0  0  0  0  0  0  0  0
   29.3150    0.8290   11.9440 F   0  0  0  0  0  0  0  0  0  0  0  0
   30.8720    0.1470   10.3080 C   0  0  0  0  0  0  0  0  0  0  0  0
   31.3090    0.1740    8.9840 C   0  0  0  0  0  0  0  0  0  0  0  0
   28.2860    0.0380    4.8240 C   0  0  0  0  0  0  0  0  0  0  0  0
   27.5120   -0.7000    5.4230 O   0  0  0  0  0  0  0  0  0  0  0  0
   28.0110    1.2940    4.3140 N   0  0  0  0  0  0  0  0  0  0  0  0
   26.8280    2.0420    4.4460 C   0  0  0  0  0  0  0  0  0  0  0  0
   25.6280    1.3290    4.5120 C   0  0  0  0  0  0  0  0  0  0  0  0
   24.4080    1.9990    4.6400 C   0  0  0  0  0  0  0  0  0  0  0  0
   24.3700    3.3970    4.7040 C   0  0  0  0  0  0  0  0  0  0  0  0
   23.0940    4.0440    4.8360 C   0  0  0  0  0  0  0  0  0  0  0  0
   22.0580    4.5520    4.9460 N   0  0  0  0  0  0  0  0  0  0  0  0
   25.5680    4.1300    4.6360 C   0  0  0  0  0  0  0  0  0  0  0  0
   25.5550    5.6380    4.7000 C   0  0  0  0  0  0  0  0  0  0  0  0
   26.8070    6.1640    4.7640 F   0  0  0  0  0  0  0  0  0  0  0  0
   24.9600    6.1960    3.6110 F   0  0  0  0  0  0  0  0  0  0  0  0
   24.8890    6.1360    5.7780 F   0  0  0  0  0  0  0  0  0  0  0  0
   26.7900    3.4370    4.5060 C   0  0  0  0  0  0  0  0  0  0  0  0
   29.4896   -2.5786    4.4778 H   0  0  0  0  0  0  0  0  0  0  0  0
   28.6736   -1.7534    3.1067 H   0  0  0  0  0  0  0  0  0  0  0  0
   30.4600   -1.9420    3.1067 H   0  0  0  0  0  0  0  0  0  0  0  0
   30.7350    1.2120    4.0000 H   0  0  0  0  0  0  0  0  0  0  0  0
   29.9777   -1.1176    6.4868 H   0  0  0  0  0  0  0  0  0  0  0  0
   31.4540   -1.2199    5.4426 H   0  0  0  0  0  0  0  0  0  0  0  0
   28.8766    2.1965    7.6537 H   0  0  0  0  0  0  0  0  0  0  0  0
   28.1115    2.1452   10.0368 H   0  0  0  0  0  0  0  0  0  0  0  0
   31.4253   -0.4330   11.0613 H   0  0  0  0  0  0  0  0  0  0  0  0
   32.2045   -0.3895    8.6831 H   0  0  0  0  0  0  0  0  0  0  0  0
   28.7740    1.7130    3.7880 H   0  0  0  0  0  0  0  0  0  0  0  0
   25.6437    0.2302    4.4628 H   0  0  0  0  0  0  0  0  0  0  0  0
   23.4716    1.4241    4.6908 H   0  0  0  0  0  0  0  0  0  0  0  0
   27.7300    4.0056    4.4509 H   0  0  0  0  0  0  0  0  0  0  0  0
  1  2  1  0
  2  3  1  6
  2  4  1  0
  4  5  1  0
  5  6  2  0
  5  7  2  0
  5  8  1  0
  8  9  2  0
  9 10  1  0
 10 11  2  0
 11 12  1  0
 11 13  1  0
 13 14  2  0
  2 15  1  0
 15 16  2  0
 15 17  1  0
 17 18  1  0
 18 19  2  0
 19 20  1  0
 20 21  2  0
 21 22  1  0
 22 23  3  0
 21 24  1  0
 24 25  1  0
 25 26  1  0
 25 27  1  0
 25 28  1  0
 24 29  2  0
 14  8  1  0
 29 18  1  0
  1 30  1  0
  1 31  1  0
  1 32  1  0
  3 33  1  0
  4 34  1  0
  4 35  1  0
  9 36  1  0
 10 37  1  0
 13 38  1  0
 14 39  1  0
 17 40  1  0
 19 41  1  0
 20 42  1  0
 29 43  1  0
M  END
>  <meeko>  (2) 
{"is_sidechain": [false], "free_energy": -9.155, "intermolecular_energy": -12.911, "internal_energy": -0.635}

$$$$
1z95_ligand
     RDKit          3D

 43 44  0  0  0  0  0  0  0  0999 V2000
   31.5110    1.7790    6.2950 C   0  0  0  0  0  0  0  0  0  0  0  0
   30.2680    1.0480    5.7710 C   0  0  2  0  0  0  0  0  0  0  0  0
   30.2180   -0.1850    6.5070 O   0  0  0  0  0  0  0  0  0  0  0  0
   30.4210    0.8040    4.2680 C   0  0  0  0  0  0  0  0  0  0  0  0
   29.5380   -0.6550    3.7510 S   0  0  0  0  0  0  0  0  0  0  0  0
   29.7090   -1.7140    4.7210 O   0  0  0  0  0  0  0  0  0  0  0  0
   29.8680   -0.8770    2.3520 O   0  0  0  0  0  0  0  0  0  0  0  0
   27.8350   -0.1490    3.8290 C   0  0  0  0  0  0  0  0  0  0  0  0
   27.0320   -0.5700    4.8950 C   0  0  0  0  0  0  0  0  0  0  0  0
   25.7000   -0.1580    4.9490 C   0  0  0  0  0  0  0  0  0  0  0  0
   25.1930    0.6690    3.9510 C   0  0  0  0  0  0  0  0  0  0  0  0
   23.9140    1.0610    4.0090 F   0  0  0  0  0  0  0  0  0  0  0  0
   25.9950    1.1020    2.8980 C   0  0  0  0  0  0  0  0  0  0  0  0
   27.3270    0.6950    2.8350 C   0  0  0  0  0  0  0  0  0  0  0  0
   29.0560    1.9590    6.0740 C   0  0  0  0  0  0  0  0  0  0  0  0
   28.4170    1.8410    7.1140 O   0  0  0  0  0  0  0  0  0  0  0  0
   28.7720    2.8030    5.0160 N   0  0  0  0  0  0  0  0  0  0  0  0
   27.7580    3.7710    4.9290 C   0  0  0  0  0  0  0  0  0  0  0  0
   28.1520    5.0830    4.6500 C   0  0  0  0  0  0  0  0  0  0  0  0
   27.2030    6.1050    4.5500 C   0  0  0  0  0  0  0  0  0  0  0  0
   25.8430    5.8300    4.7290 C   0  0  0  0  0  0  0  0  0  0  0  0
   24.9030    6.9110    4.6170 C   0  0  0  0  0  0  0  0  0  0  0  0
   24.1560    7.7920    4.5210 N   0  0  0  0  0  0  0  0  0  0  0  0
   25.4300    4.5170    5.0140 C   0  0  0  0  0  0  0  0  0  0  0  0
   23.9680    4.1930    5.2140 C   0  0  0  0  0  0  0  0  0  0  0  0
   23.3760    3.7470    4.0740 F   0  0  0  0  0  0  0  0  0  0  0  0
   23.7780    3.2230    6.1490 F   0  0  0  0  0  0  0  0  0  0  0  0
   23.2230    5.2540    5.6280 F   0  0  0  0  0  0  0  0  0  0  0  0
   26.4000    3.4980    5.1120 C   0  0  0  0  0  0  0  0  0  0  0  0
   31.5027    1.7741    7.3950 H   0  0  0  0  0  0  0  0  0  0  0  0
   32.4160    1.2693    5.9329 H   0  0  0  0  0  0  0  0  0  0  0  0
   31.5054    2.8177    5.9329 H   0  0  0  0  0  0  0  0  0  0  0  0
   30.8870   -0.8010    6.1280 H   0  0  0  0  0  0  0  0  0  0  0  0
   30.0254    1.6735    3.7225 H   0  0  0  0  0  0  0  0  0  0  0  0
   31.4889    0.6574    4.0487 H   0  0  0  0  0  0  0  0  0  0  0  0
   27.4461   -1.2183    5.6813 H   0  0  0  0  0  0  0  0  0  0  0  0
   25.0536   -0.4854    5.7766 H   0  0  0  0  0  0  0  0  0  0  0  0
   25.5802    1.7609    2.1210 H   0  0  0  0  0  0  0  0  0  0  0  0
   27.9727    1.0342    2.0116 H   0  0  0  0  0  0  0  0  0  0  0  0
   29.3890    2.6970    4.2140 H   0  0  0  0  0  0  0  0  0  0  0  0
   29.2182    5.3134    4.5079 H   0  0  0  0  0  0  0  0  0  0  0  0
   27.5280    7.1324    4.3290 H   0  0  0  0  0  0  0  0  0  0  0  0
   26.0816    2.4693    5.3366 H   0  0  0  0  0  0  0  0  0  0  0  0
  1  2  1  0
  2  3  1  1
  2  4  1  0
  4  5  1  0
  5  6  2  0
  5  7  2  0
  5  8  1  0
  8  9  2  0
  9 10  1  0
 10 11  2  0
 11 12  1  0
 11 13  1  0
 13 14  2  0
  2 15  1  0
 15 16  2  0
 15 17  1  0
 17 18  1  0
 18 19  2  0
 19 20  1  0
 20 21  2  0
 21 22  1  0
 22 23  3  0
 21 24  1  0
 24 25  1  0
 25 26  1  0
 25 27  1  0
 25 28  1  0
 24 29  2  0
 14  8  1  0
 29 18  1  0
  1 30  1  0
  1 31  1  0
  1 32  1  0
  3 33  1  0
  4 34  1  0
  4 35  1  0
  9 36  1  0
 10 37  1  0
 13 38  1  0
 14 39  1  0
 17 40  1  0
 19 41  1  0
 20 42  1  0
 29 43  1  0
M  END
>  <meeko>  (3) 
{"is_sidechain": [false], "free_energy": -8.376, "intermolecular_energy": -12.033, "internal_energy": -0.438}

$$$$
1z95_ligand
     RDKit          3D

 43 44  0  0  0  0  0  0  0  0999 V2000
   28.9860   -0.3520    2.3760 C   0  0  0  0  0  0  0  0  0  0  0  0
   28.2100   -0.1170    3.6790 C   0  0  2  0  0  0  0  0  0  0  0  0
   27.1080   -1.0380    3.6320 O   0  0  0  0  0  0  0  0  0  0  0  0
   27.7310    1.3360    3.7280 C   0  0  0  0  0  0  0  0  0  0  0  0
   25.9550    1.4330    3.8220 S   0  0  0  0  0  0  0  0  0  0  0  0
   25.4720    0.6880    4.9640 O   0  0  0  0  0  0  0  0  0  0  0  0
   25.4430    1.1530    2.4900 O   0  0  0  0  0  0  0  0  0  0  0  0
   25.6580    3.1540    4.1610 C   0  0  0  0  0  0  0  0  0  0  0  0
   26.6130    4.1100    3.7980 C   0  0  0  0  0  0  0  0  0  0  0  0
   26.3640    5.4570    4.0620 C   0  0  0  0  0  0  0  0  0  0  0  0
   25.1690    5.8310    4.6720 C   0  0  0  0  0  0  0  0  0  0  0  0
   24.9350    7.1250    4.9220 F   0  0  0  0  0  0  0  0  0  0  0  0
   24.2110    4.8820    5.0200 C   0  0  0  0  0  0  0  0  0  0  0  0
   24.4510    3.5330    4.7610 C   0  0  0  0  0  0  0  0  0  0  0  0
   29.1840   -0.4300    4.8390 C   0  0  0  0  0  0  0  0  0  0  0  0
   29.9250   -1.4060    4.8000 O   0  0  0  0  0  0  0  0  0  0  0  0
   29.0260    0.4520    5.8920 N   0  0  0  0  0  0  0  0  0  0  0  0
   29.7350    0.4890    7.1040 C   0  0  0  0  0  0  0  0  0  0  0  0
   31.1250    0.3510    7.0340 C   0  0  0  0  0  0  0  0  0  0  0  0
   31.9010    0.3740    8.1960 C   0  0  0  0  0  0  0  0  0  0  0  0
   31.2990    0.5350    9.4490 C   0  0  0  0  0  0  0  0  0  0  0  0
   32.1360    0.5530   10.6170 C   0  0  0  0  0  0  0  0  0  0  0  0
   32.8250    0.5690   11.5500 N   0  0  0  0  0  0  0  0  0  0  0  0
   29.9020    0.6710    9.5380 C   0  0  0  0  0  0  0  0  0  0  0  0
   29.2270    0.8440   10.8770 C   0  0  0  0  0  0  0  0  0  0  0  0
   28.0240    1.4700   10.7740 F   0  0  0  0  0  0  0  0  0  0  0  0
   28.9870   -0.3460   11.4920 F   0  0  0  0  0  0  0  0  0  0  0  0
   29.9510    1.5770   11.7670 F   0  0  0  0  0  0  0  0  0  0  0  0
   29.1330    0.6450    8.3560 C   0  0  0  0  0  0  0  0  0  0  0  0
   30.0141   -0.6634    2.6126 H   0  0  0  0  0  0  0  0  0  0  0  0
   28.4897   -1.1401    1.7907 H   0  0  0  0  0  0  0  0  0  0  0  0
   29.0104    0.5791    1.7907 H   0  0  0  0  0  0  0  0  0  0  0  0
   27.4200   -1.8770    3.2210 H   0  0  0  0  0  0  0  0  0  0  0  0
   28.1634    1.8256    4.6131 H   0  0  0  0  0  0  0  0  0  0  0  0
   28.0565    1.8387    2.8053 H   0  0  0  0  0  0  0  0  0  0  0  0
   27.5497    3.8029    3.3099 H   0  0  0  0  0  0  0  0  0  0  0  0
   27.1079    6.2202    3.7897 H   0  0  0  0  0  0  0  0  0  0  0  0
   23.2702    5.1948    5.4965 H   0  0  0  0  0  0  0  0  0  0  0  0
   23.6997    2.7743    5.0254 H   0  0  0  0  0  0  0  0  0  0  0  0
   28.3060    1.1570    5.7480 H   0  0  0  0  0  0  0  0  0  0  0  0
   31.6117    0.2232    6.0558 H   0  0  0  0  0  0  0  0  0  0  0  0
   32.9933    0.2647    8.1252 H   0  0  0  0  0  0  0  0  0  0  0  0
   28.0399    0.7494    8.4204 H   0  0  0  0  0  0  0  0  0  0  0  0
  1  2  1  0
  2  3  1  6
  2  4  1  0
  4  5  1  0
  5  6  2  0
  5  7  2  0
  5  8  1  0
  8  9  2  0
  9 10  1  0
 10 11  2  0
 11 12  1  0
 11 13  1  0
 13 14  2  0
  2 15  1  0
 15 16  2  0
 15 17  1  0
 17 18  1  0
 18 19  2  0
 19 20  1  0
 20 21  2  0
 21 22  1  0
 22 23  3  0
 21 24  1  0
 24 25  1  0
 25 26  1  0
 25 27  1  0
 25 28  1  0
 24 29  2  0
 14  8  1  0
 29 18  1  0
  1 30  1  0
  1 31  1  0
  1 32  1  0
  3 33  1  0
  4 34  1  0
  4 35  1  0
  9 36  1  0
 10 37  1  0
 13 38  1  0
 14 39  1  0
 17 40  1  0
 19 41  1  0
 20 42  1  0
 29 43  1  0
M  END
>  <meeko>  (4) 
{"is_sidechain": [false], "free_energy": -7.696, "intermolecular_energy": -10.87, "internal_energy": -0.662}

$$$$
