2vvn_ligand
     RDKit          3D

 32 33  0  0  0  0  0  0  0  0999 V2000
    7.5770   -9.4340    7.9860 C   0  0  0  0  0  0  0  0  0  0  0  0
    6.7960  -10.0610    6.8440 C   0  0  0  0  0  0  0  0  0  0  0  0
    7.6470  -10.1940    5.6810 N   0  0  0  0  0  0  0  0  0  0  0  0
    7.1550  -10.6000    4.4820 C   0  0  0  0  0  0  0  0  0  0  0  0
    5.9160  -10.6460    4.1300 N   0  0  0  0  0  0  0  0  0  0  0  0
    5.8140  -11.0940    2.7120 C   0  0  2  0  0  0  0  0  0  0  0  0
    4.5300  -11.9190    2.5320 C   0  0  1  0  0  0  0  0  0  0  0  0
    3.4670  -11.0770    2.0550 O   0  0  0  0  0  0  0  0  0  0  0  0
    4.7480  -13.0410    1.5160 C   0  0  2  0  0  0  0  0  0  0  0  0
    3.5220  -13.7610    1.3290 O   0  0  0  0  0  0  0  0  0  0  0  0
    5.8760  -13.9660    2.0040 C   0  0  1  0  0  0  0  0  0  0  0  0
    6.4370  -14.8140    0.8550 C   0  0  0  0  0  0  0  0  0  0  0  0
    5.8030  -14.4750   -0.3760 O   0  0  0  0  0  0  0  0  0  0  0  0
    6.9440  -13.2890    2.6720 O   0  0  0  0  0  0  0  0  0  0  0  0
    7.0640  -11.9080    2.3410 C   0  0  2  0  0  0  0  0  0  0  0  0
    8.3510  -11.1350    3.3330 S   0  0  0  0  0  0  0  0  0  0  0  0
    7.1575   -9.7708    8.9455 H   0  0  0  0  0  0  0  0  0  0  0  0
    8.6318   -9.7390    7.9198 H   0  0  0  0  0  0  0  0  0  0  0  0
    7.5073   -8.3382    7.9198 H   0  0  0  0  0  0  0  0  0  0  0  0
    6.4376  -11.0551    7.1495 H   0  0  0  0  0  0  0  0  0  0  0  0
    5.9392   -9.4178    6.5946 H   0  0  0  0  0  0  0  0  0  0  0  0
    8.6010  -10.4870    5.8550 H   0  0  0  0  0  0  0  0  0  0  0  0
    5.7617  -10.2251    2.0394 H   0  0  0  0  0  0  0  0  0  0  0  0
    4.2650  -12.3509    3.5083 H   0  0  0  0  0  0  0  0  0  0  0  0
    2.8690  -10.9730    2.8240 H   0  0  0  0  0  0  0  0  0  0  0  0
    5.0492  -12.6195    0.5456 H   0  0  0  0  0  0  0  0  0  0  0  0
    3.5230  -14.4670    2.0120 H   0  0  0  0  0  0  0  0  0  0  0  0
    5.4023  -14.6182    2.7524 H   0  0  0  0  0  0  0  0  0  0  0  0
    7.5183  -14.6325    0.7665 H   0  0  0  0  0  0  0  0  0  0  0  0
    6.2453  -15.8753    1.0717 H   0  0  0  0  0  0  0  0  0  0  0  0
    5.8640  -15.2640   -0.9470 H   0  0  0  0  0  0  0  0  0  0  0  0
    7.2565  -11.8976    1.2580 H   0  0  0  0  0  0  0  0  0  0  0  0
  1  2  1  0
  2  3  1  0
  3  4  1  0
  4  5  2  0
  5  6  1  0
  6  7  1  0
  7  8  1  0
  7  9  1  0
  9 10  1  0
  9 11  1  0
 11 12  1  0
 12 13  1  0
 11 14  1  0
 14 15  1  0
 15 16  1  0
 16  4  1  0
 15  6  1  0
  1 17  1  0
  1 18  1  0
  1 19  1  0
  2 20  1  0
  2 21  1  0
  3 22  1  0
  6 23  1  6
  7 24  1  1
  8 25  1  0
  9 26  1  6
 10 27  1  0
 11 28  1  1
 12 29  1  0
 12 30  1  0
 13 31  1  0
 15 32  1  6
M  END
>  <meeko>  (1) 
{"is_sidechain": [false], "free_energy": -7.424, "intermolecular_energy": -8.943, "internal_energy": -0.326}

$$$$
2vvn_ligand
     RDKit          3D

 32 33  0  0  0  0  0  0  0  0999 V2000
    6.0320  -15.2380   -1.3240 C   0  0  0  0  0  0  0  0  0  0  0  0
    5.7800  -15.5630    0.1380 C   0  0  0  0  0  0  0  0  0  0  0  0
    4.7690  -14.6760    0.6720 N   0  0  0  0  0  0  0  0  0  0  0  0
    5.0910  -13.4700    1.2080 C   0  0  0  0  0  0  0  0  0  0  0  0
    6.2070  -12.8390    1.0780 N   0  0  0  0  0  0  0  0  0  0  0  0
    6.1240  -11.5250    1.7770 C   0  0  2  0  0  0  0  0  0  0  0  0
    7.5050  -11.1670    2.3480 C   0  0  1  0  0  0  0  0  0  0  0  0
    8.2160  -10.3230    1.4270 O   0  0  0  0  0  0  0  0  0  0  0  0
    7.3630  -10.4190    3.6740 C   0  0  2  0  0  0  0  0  0  0  0  0
    8.6610  -10.0520    4.1580 O   0  0  0  0  0  0  0  0  0  0  0  0
    6.6130  -11.3030    4.6860 C   0  0  1  0  0  0  0  0  0  0  0  0
    6.0520  -10.4690    5.8450 C   0  0  0  0  0  0  0  0  0  0  0  0
    7.0960  -10.0730    6.7320 O   0  0  0  0  0  0  0  0  0  0  0  0
    5.5720  -12.0980    4.1140 O   0  0  0  0  0  0  0  0  0  0  0  0
    5.0580  -11.5980    2.8810 C   0  0  2  0  0  0  0  0  0  0  0  0
    3.8510  -12.7420    2.1940 S   0  0  0  0  0  0  0  0  0  0  0  0
    6.7046  -14.3706   -1.3961 H   0  0  0  0  0  0  0  0  0  0  0  0
    6.4967  -16.1044   -1.8174 H   0  0  0  0  0  0  0  0  0  0  0  0
    5.0772  -15.0037   -1.8174 H   0  0  0  0  0  0  0  0  0  0  0  0
    5.4355  -16.6039    0.2262 H   0  0  0  0  0  0  0  0  0  0  0  0
    6.7136  -15.4313    0.7047 H   0  0  0  0  0  0  0  0  0  0  0  0
    3.9690  -15.1200    1.1080 H   0  0  0  0  0  0  0  0  0  0  0  0
    5.8281  -10.7346    1.0715 H   0  0  0  0  0  0  0  0  0  0  0  0
    8.0574  -12.1045    2.5093 H   0  0  0  0  0  0  0  0  0  0  0  0
    9.1610  -10.4840    1.6210 H   0  0  0  0  0  0  0  0  0  0  0  0
    6.7798   -9.4978    3.5278 H   0  0  0  0  0  0  0  0  0  0  0  0
    9.3010  -10.5440    3.5980 H   0  0  0  0  0  0  0  0  0  0  0  0
    7.3709  -12.0050    5.0638 H   0  0  0  0  0  0  0  0  0  0  0  0
    5.5622   -9.5712    5.4400 H   0  0  0  0  0  0  0  0  0  0  0  0
    5.3270  -11.0803    6.4024 H   0  0  0  0  0  0  0  0  0  0  0  0
    7.1730   -9.1040    6.6570 H   0  0  0  0  0  0  0  0  0  0  0  0
    4.6530  -10.6061    3.1303 H   0  0  0  0  0  0  0  0  0  0  0  0
  1  2  1  0
  2  3  1  0
  3  4  1  0
  4  5  2  0
  5  6  1  0
  6  7  1  0
  7  8  1  0
  7  9  1  0
  9 10  1  0
  9 11  1  0
 11 12  1  0
 12 13  1  0
 11 14  1  0
 14 15  1  0
 15 16  1  0
 16  4  1  0
 15  6  1  0
  1 17  1  0
  1 18  1  0
  1 19  1  0
  2 20  1  0
  2 21  1  0
  3 22  1  0
  6 23  1  6
  7 24  1  1
  8 25  1  0
  9 26  1  6
 10 27  1  0
 11 28  1  1
 12 29  1  0
 12 30  1  0
 13 31  1  0
 15 32  1  1
M  END
>  <meeko>  (2) 
{"is_sidechain": [false], "free_energy": -6.691, "intermolecular_energy": -8.152, "internal_energy": -0.234}

$$$$
2vvn_ligand
     RDKit          3D

 32 33  0  0  0  0  0  0  0  0999 V2000
    7.9630  -16.0500   -1.4110 C   0  0  0  0  0  0  0  0  0  0  0  0
    6.5970  -15.5050   -1.0330 C   0  0  0  0  0  0  0  0  0  0  0  0
    6.3140  -15.8070    0.3540 N   0  0  0  0  0  0  0  0  0  0  0  0
    5.9200  -14.8430    1.2260 C   0  0  0  0  0  0  0  0  0  0  0  0
    5.4860  -13.6660    0.9330 N   0  0  0  0  0  0  0  0  0  0  0  0
    5.1080  -12.9460    2.1830 C   0  0  2  0  0  0  0  0  0  0  0  0
    5.3920  -11.4460    2.0090 C   0  0  1  0  0  0  0  0  0  0  0  0
    4.2020  -10.7640    1.5820 O   0  0  0  0  0  0  0  0  0  0  0  0
    5.8520  -10.8280    3.3300 C   0  0  2  0  0  0  0  0  0  0  0  0
    6.0620   -9.4210    3.1540 O   0  0  0  0  0  0  0  0  0  0  0  0
    7.1340  -11.5320    3.8100 C   0  0  1  0  0  0  0  0  0  0  0  0
    7.3810  -11.2830    5.3040 C   0  0  0  0  0  0  0  0  0  0  0  0
    6.2870  -10.5760    5.8830 O   0  0  0  0  0  0  0  0  0  0  0  0
    7.1690  -12.9370    3.5420 O   0  0  0  0  0  0  0  0  0  0  0  0
    5.8860  -13.5350    3.3690 C   0  0  2  0  0  0  0  0  0  0  0  0
    6.0590  -15.2670    2.9110 S   0  0  0  0  0  0  0  0  0  0  0  0
    8.5326  -16.2773   -0.4978 H   0  0  0  0  0  0  0  0  0  0  0  0
    7.8401  -16.9680   -2.0045 H   0  0  0  0  0  0  0  0  0  0  0  0
    8.5058  -15.2996   -2.0045 H   0  0  0  0  0  0  0  0  0  0  0  0
    6.5860  -14.4148   -1.1787 H   0  0  0  0  0  0  0  0  0  0  0  0
    5.8312  -15.9724   -1.6695 H   0  0  0  0  0  0  0  0  0  0  0  0
    6.8710  -16.5410    0.7760 H   0  0  0  0  0  0  0  0  0  0  0  0
    4.0343  -13.0709    2.3867 H   0  0  0  0  0  0  0  0  0  0  0  0
    6.1840  -11.3378    1.2533 H   0  0  0  0  0  0  0  0  0  0  0  0
    3.8120  -10.4050    2.4040 H   0  0  0  0  0  0  0  0  0  0  0  0
    5.0781  -10.9650    4.0996 H   0  0  0  0  0  0  0  0  0  0  0  0
    6.8880   -9.2130    3.6430 H   0  0  0  0  0  0  0  0  0  0  0  0
    7.9427  -11.0793    3.2174 H   0  0  0  0  0  0  0  0  0  0  0  0
    7.4989  -12.2490    5.8167 H   0  0  0  0  0  0  0  0  0  0  0  0
    8.2930  -10.6783    5.4164 H   0  0  0  0  0  0  0  0  0  0  0  0
    6.6090  -10.2050    6.7260 H   0  0  0  0  0  0  0  0  0  0  0  0
    5.3692  -13.3666    4.3253 H   0  0  0  0  0  0  0  0  0  0  0  0
  1  2  1  0
  2  3  1  0
  3  4  1  0
  4  5  2  0
  5  6  1  0
  6  7  1  0
  7  8  1  0
  7  9  1  0
  9 10  1  0
  9 11  1  0
 11 12  1  0
 12 13  1  0
 11 14  1  0
 14 15  1  0
 15 16  1  0
 16  4  1  0
 15  6  1  0
  1 17  1  0
  1 18  1  0
  1 19  1  0
  2 20  1  0
  2 21  1  0
  3 22  1  0
  6 23  1  1
  7 24  1  6
  8 25  1  0
  9 26  1  1
 10 27  1  0
 11 28  1  6
 12 29  1  0
 12 30  1  0
 13 31  1  0
 15 32  1  1
M  END
>  <meeko>  (3) 
{"is_sidechain": [false], "free_energy": -6.376, "intermolecular_energy": -7.669, "internal_energy": -0.338}

$$$$
2vvn_ligand
     RDKit          3D

 32 33  0  0  0  0  0  0  0  0999 V2000
    6.9520  -10.0490    6.6500 C   0  0  0  0  0  0  0  0  0  0  0  0
    7.1730  -10.2280    5.1590 C   0  0  0  0  0  0  0  0  0  0  0  0
    5.9260  -10.5830    4.5150 N   0  0  0  0  0  0  0  0  0  0  0  0
    5.7380  -11.8050    3.9550 C   0  0  0  0  0  0  0  0  0  0  0  0
    6.4540  -12.8600    4.1390 N   0  0  0  0  0  0  0  0  0  0  0  0
    5.8690  -14.0030    3.3820 C   0  0  2  0  0  0  0  0  0  0  0  0
    7.0010  -14.9230    2.9000 C   0  0  1  0  0  0  0  0  0  0  0  0
    7.1950  -15.9980    3.8340 O   0  0  0  0  0  0  0  0  0  0  0  0
    6.6610  -15.5270    1.5370 C   0  0  2  0  0  0  0  0  0  0  0  0
    7.7070  -16.4190    1.1330 O   0  0  0  0  0  0  0  0  0  0  0  0
    6.4560  -14.3980    0.5100 C   0  0  1  0  0  0  0  0  0  0  0  0
    5.6890  -14.8980   -0.7210 C   0  0  0  0  0  0  0  0  0  0  0  0
    6.2840  -16.0870   -1.2370 O   0  0  0  0  0  0  0  0  0  0  0  0
    5.8180  -13.2320    1.0370 O   0  0  0  0  0  0  0  0  0  0  0  0
    5.0380  -13.4660    2.2070 C   0  0  2  0  0  0  0  0  0  0  0  0
    4.3930  -11.9150    2.8510 S   0  0  0  0  0  0  0  0  0  0  0  0
    7.6902  -10.6469    7.2045 H   0  0  0  0  0  0  0  0  0  0  0  0
    7.0681   -8.9872    6.9130 H   0  0  0  0  0  0  0  0  0  0  0  0
    5.9375  -10.3831    6.9130 H   0  0  0  0  0  0  0  0  0  0  0  0
    7.5498   -9.2875    4.7307 H   0  0  0  0  0  0  0  0  0  0  0  0
    7.9064  -11.0313    4.9956 H   0  0  0  0  0  0  0  0  0  0  0  0
    5.4380   -9.8320    4.0410 H   0  0  0  0  0  0  0  0  0  0  0  0
    5.2014  -14.5903    4.0297 H   0  0  0  0  0  0  0  0  0  0  0  0
    7.9166  -14.3186    2.8198 H   0  0  0  0  0  0  0  0  0  0  0  0
    7.2870  -16.7970    3.2770 H   0  0  0  0  0  0  0  0  0  0  0  0
    5.7266  -16.1037    1.6026 H   0  0  0  0  0  0  0  0  0  0  0  0
    8.1050  -16.0150    0.3310 H   0  0  0  0  0  0  0  0  0  0  0  0
    7.4721  -14.0936    0.2187 H   0  0  0  0  0  0  0  0  0  0  0  0
    4.6477  -15.1095   -0.4363 H   0  0  0  0  0  0  0  0  0  0  0  0
    5.7217  -14.1202   -1.4981 H   0  0  0  0  0  0  0  0  0  0  0  0
    7.0640  -16.2710   -0.6810 H   0  0  0  0  0  0  0  0  0  0  0  0
    4.2663  -14.1818    1.8874 H   0  0  0  0  0  0  0  0  0  0  0  0
  1  2  1  0
  2  3  1  0
  3  4  1  0
  4  5  2  0
  5  6  1  0
  6  7  1  0
  7  8  1  0
  7  9  1  0
  9 10  1  0
  9 11  1  0
 11 12  1  0
 12 13  1  0
 11 14  1  0
 14 15  1  0
 15 16  1  0
 16  4  1  0
 15  6  1  0
  1 17  1  0
  1 18  1  0
  1 19  1  0
  2 20  1  0
  2 21  1  0
  3 22  1  0
  6 23  1  1
  7 24  1  6
  8 25  1  0
  9 26  1  1
 10 27  1  0
 11 28  1  6
 12 29  1  0
 12 30  1  0
 13 31  1  0
 15 32  1  6
M  END
>  <meeko>  (4) 
{"is_sidechain": [false], "free_energy": -5.728, "intermolecular_energy": -6.918, "internal_energy": -0.308}

$$$$
2vvn_ligand
     RDKit          3D

 32 33  0  0  0  0  0  0  0  0999 V2000
    7.5230   -8.5210    9.3890 C   0  0  0  0  0  0  0  0  0  0  0  0
    7.7940   -8.9950    7.9720 C   0  0  0  0  0  0  0  0  0  0  0  0
    6.8640  -10.0450    7.6180 N   0  0  0  0  0  0  0  0  0  0  0  0
    6.8910  -10.6380    6.3960 C   0  0  0  0  0  0  0  0  0  0  0  0
    7.8440  -10.5840    5.5310 N   0  0  0  0  0  0  0  0  0  0  0  0
    7.4970  -11.4220    4.3480 C   0  0  2  0  0  0  0  0  0  0  0  0
    8.0870  -10.7820    3.0820 C   0  0  1  0  0  0  0  0  0  0  0  0
    9.3630  -11.3710    2.7810 O   0  0  0  0  0  0  0  0  0  0  0  0
    7.1610  -11.0000    1.8860 C   0  0  2  0  0  0  0  0  0  0  0  0
    7.7580  -10.4390    0.7090 O   0  0  0  0  0  0  0  0  0  0  0  0
    5.7860  -10.3710    2.1750 C   0  0  1  0  0  0  0  0  0  0  0  0
    4.7080  -10.9340    1.2400 C   0  0  0  0  0  0  0  0  0  0  0  0
    5.0610  -12.2420    0.7960 O   0  0  0  0  0  0  0  0  0  0  0  0
    5.3600  -10.4910    3.5350 O   0  0  0  0  0  0  0  0  0  0  0  0
    5.9700  -11.5620    4.2510 C   0  0  2  0  0  0  0  0  0  0  0  0
    5.4570  -11.5350    5.9750 S   0  0  0  0  0  0  0  0  0  0  0  0
    7.9379   -9.2467   10.1040 H   0  0  0  0  0  0  0  0  0  0  0  0
    7.9971   -7.5407    9.5447 H   0  0  0  0  0  0  0  0  0  0  0  0
    6.4377   -8.4323    9.5447 H   0  0  0  0  0  0  0  0  0  0  0  0
    7.6741   -8.1516    7.2760 H   0  0  0  0  0  0  0  0  0  0  0  0
    8.8208   -9.3846    7.9105 H   0  0  0  0  0  0  0  0  0  0  0  0
    5.9370   -9.9770    8.0210 H   0  0  0  0  0  0  0  0  0  0  0  0
    7.9251  -12.4297    4.4542 H   0  0  0  0  0  0  0  0  0  0  0  0
    8.2006   -9.7040    3.2689 H   0  0  0  0  0  0  0  0  0  0  0  0
   10.0140  -10.6690    2.9830 H   0  0  0  0  0  0  0  0  0  0  0  0
    7.0136  -12.0766    1.7151 H   0  0  0  0  0  0  0  0  0  0  0  0
    7.7260   -9.4650    0.8360 H   0  0  0  0  0  0  0  0  0  0  0  0
    5.9203   -9.2963    1.9828 H   0  0  0  0  0  0  0  0  0  0  0  0
    3.7506  -10.9817    1.7796 H   0  0  0  0  0  0  0  0  0  0  0  0
    4.6192  -10.2745    0.3641 H   0  0  0  0  0  0  0  0  0  0  0  0
    4.3730  -12.5150    0.1600 H   0  0  0  0  0  0  0  0  0  0  0  0
    5.6734  -12.4681    3.7024 H   0  0  0  0  0  0  0  0  0  0  0  0
  1  2  1  0
  2  3  1  0
  3  4  1  0
  4  5  2  0
  5  6  1  0
  6  7  1  0
  7  8  1  0
  7  9  1  0
  9 10  1  0
  9 11  1  0
 11 12  1  0
 12 13  1  0
 11 14  1  0
 14 15  1  0
 15 16  1  0
 16  4  1  0
 15  6  1  0
  1 17  1  0
  1 18  1  0
  1 19  1  0
  2 20  1  0
  2 21  1  0
  3 22  1  0
  6 23  1  1
  7 24  1  1
  8 25  1  0
  9 26  1  6
 10 27  1  0
 11 28  1  6
 12 29  1  0
 12 30  1  0
 13 31  1  0
 15 32  1  6
M  END
>  <meeko>  (5) 
{"is_sidechain": [false], "free_energy": -4.945, "intermolecular_energy": -6.022, "internal_energy": -0.26}

$$$$
