3gr2_ligand
     RDKit          3D

 25 26  0  0  0  0  0  0  0  0999 V2000
  -35.4920    5.9520   11.1560 C   0  0  0  0  0  0  0  0  0  0  0  0
  -35.5530    5.3660   12.5600 C   0  0  0  0  0  0  0  0  0  0  0  0
  -35.6500    6.4440   13.6370 C   0  0  2  0  0  0  0  0  0  0  0  0
  -34.4810    6.3730   14.6280 C   0  0  0  0  0  0  0  0  0  0  0  0
  -33.2940    6.4930   14.3920 O   0  0  0  0  0  0  0  0  0  0  0  0
  -35.0730    6.1400   15.8540 N   0  0  0  0  0  0  0  0  0  0  0  0
  -34.4150    5.9960   17.0370 C   0  0  0  0  0  0  0  0  0  0  0  0
  -34.6390    5.0740   17.9460 N   0  0  0  0  0  0  0  0  0  0  0  0
  -33.7420    5.3210   18.9570 N   0  0  0  0  0  0  0  0  0  0  0  0
  -32.9850    6.3720   18.6760 N   0  0  0  0  0  0  0  0  0  0  0  0
  -33.3970    6.8010   17.4770 N   0  0  0  0  0  0  0  0  0  0  0  0
  -36.5190    6.0640   15.7340 N   0  0  0  0  0  0  0  0  0  0  0  0
  -36.8730    6.2410   14.5130 C   0  0  0  0  0  0  0  0  0  0  0  0
  -38.2900    6.2230   14.0910 C   0  0  0  0  0  0  0  0  0  0  0  0
  -35.3783    7.0443   11.2192 H   0  0  0  0  0  0  0  0  0  0  0  0
  -34.6335    5.5245   10.6172 H   0  0  0  0  0  0  0  0  0  0  0  0
  -36.4201    5.7105   10.6172 H   0  0  0  0  0  0  0  0  0  0  0  0
  -36.4358    4.7138   12.6325 H   0  0  0  0  0  0  0  0  0  0  0  0
  -34.6222    4.8049   12.7300 H   0  0  0  0  0  0  0  0  0  0  0  0
  -35.6713    7.3936   13.0822 H   0  0  0  0  0  0  0  0  0  0  0  0
  -32.9590    7.6090   17.0430 H   0  0  0  0  0  0  0  0  0  0  0  0
  -37.1510    5.8990   16.5240 H   0  0  0  0  0  0  0  0  0  0  0  0
  -38.9373    6.2148   14.9803 H   0  0  0  0  0  0  0  0  0  0  0  0
  -38.5048    7.1185   13.4894 H   0  0  0  0  0  0  0  0  0  0  0  0
  -38.4820    5.3223   13.4894 H   0  0  0  0  0  0  0  0  0  0  0  0
  1  2  1  0
  2  3  1  0
  3  4  1  0
  4  5  2  0
  4  6  1  0
  6  7  1  0
  7  8  2  0
  8  9  1  0
  9 10  2  0
 10 11  1  0
  6 12  1  0
 12 13  2  0
 13 14  1  0
 13  3  1  0
 11  7  1  0
  1 15  1  0
  1 16  1  0
  1 17  1  0
  2 18  1  0
  2 19  1  0
  3 20  1  6
 11 21  1  0
 12 22  1  0
 14 23  1  0
 14 24  1  0
 14 25  1  0
M  CHG  1  12   1
M  END
>  <meeko>  (1) 
{"is_sidechain": [false], "free_energy": -6.164, "intermolecular_energy": -6.884, "internal_energy": -0.443}

$$$$
3gr2_ligand
     RDKit          3D

 25 26  0  0  0  0  0  0  0  0999 V2000
  -33.8230   11.7090   18.7720 C   0  0  0  0  0  0  0  0  0  0  0  0
  -33.4500   10.2510   18.5460 C   0  0  0  0  0  0  0  0  0  0  0  0
  -34.6620    9.3840   18.2090 C   0  0  2  0  0  0  0  0  0  0  0  0
  -35.1830    8.6250   19.4360 C   0  0  0  0  0  0  0  0  0  0  0  0
  -35.6050    9.0880   20.4780 O   0  0  0  0  0  0  0  0  0  0  0  0
  -35.0660    7.2900   19.0990 N   0  0  0  0  0  0  0  0  0  0  0  0
  -35.4060    6.2400   19.8950 C   0  0  0  0  0  0  0  0  0  0  0  0
  -34.8600    5.0440   19.8820 N   0  0  0  0  0  0  0  0  0  0  0  0
  -35.5190    4.3230   20.8480 N   0  0  0  0  0  0  0  0  0  0  0  0
  -36.4500    5.0580   21.4400 N   0  0  0  0  0  0  0  0  0  0  0  0
  -36.3860    6.2590   20.8510 N   0  0  0  0  0  0  0  0  0  0  0  0
  -34.5230    7.1320   17.7610 N   0  0  0  0  0  0  0  0  0  0  0  0
  -34.2970    8.2810   17.2340 C   0  0  0  0  0  0  0  0  0  0  0  0
  -33.7480    8.4300   15.8690 C   0  0  0  0  0  0  0  0  0  0  0  0
  -33.8747   11.9111   19.8520 H   0  0  0  0  0  0  0  0  0  0  0  0
  -33.0618   12.3575   18.3137 H   0  0  0  0  0  0  0  0  0  0  0  0
  -34.8021   11.9123   18.3137 H   0  0  0  0  0  0  0  0  0  0  0  0
  -32.7333   10.1949   17.7134 H   0  0  0  0  0  0  0  0  0  0  0  0
  -33.0139    9.8682   19.4805 H   0  0  0  0  0  0  0  0  0  0  0  0
  -35.4062   10.0856   17.8042 H   0  0  0  0  0  0  0  0  0  0  0  0
  -37.0130    7.0050   21.1400 H   0  0  0  0  0  0  0  0  0  0  0  0
  -34.3560    6.2240   17.3140 H   0  0  0  0  0  0  0  0  0  0  0  0
  -32.6880    8.7177   15.9295 H   0  0  0  0  0  0  0  0  0  0  0  0
  -33.8386    7.4748   15.3311 H   0  0  0  0  0  0  0  0  0  0  0  0
  -34.3091    9.2084   15.3311 H   0  0  0  0  0  0  0  0  0  0  0  0
  1  2  1  0
  2  3  1  0
  3  4  1  0
  4  5  2  0
  4  6  1  0
  6  7  1  0
  7  8  2  0
  8  9  1  0
  9 10  2  0
 10 11  1  0
  6 12  1  0
 12 13  2  0
 13 14  1  0
 13  3  1  0
 11  7  1  0
  1 15  1  0
  1 16  1  0
  1 17  1  0
  2 18  1  0
  2 19  1  0
  3 20  1  6
 11 21  1  0
 12 22  1  0
 14 23  1  0
 14 24  1  0
 14 25  1  0
M  CHG  1  12   1
M  END
>  <meeko>  (2) 
{"is_sidechain": [false], "free_energy": -6.007, "intermolecular_energy": -6.712, "internal_energy": -0.441}

$$$$
3gr2_ligand
     RDKit          3D

 25 26  0  0  0  0  0  0  0  0999 V2000
  -35.2770    6.3430   18.1110 C   0  0  0  0  0  0  0  0  0  0  0  0
  -34.1040    5.9180   18.9830 C   0  0  0  0  0  0  0  0  0  0  0  0
  -34.2810    6.3360   20.4410 C   0  0  2  0  0  0  0  0  0  0  0  0
  -35.5860    5.7940   21.0390 C   0  0  0  0  0  0  0  0  0  0  0  0
  -35.9240    4.6330   21.1650 O   0  0  0  0  0  0  0  0  0  0  0  0
  -36.3010    6.9190   21.4030 N   0  0  0  0  0  0  0  0  0  0  0  0
  -37.5350    6.9220   21.9750 C   0  0  0  0  0  0  0  0  0  0  0  0
  -37.9830    7.7890   22.8550 N   0  0  0  0  0  0  0  0  0  0  0  0
  -39.2690    7.3980   23.1430 N   0  0  0  0  0  0  0  0  0  0  0  0
  -39.6020    6.3150   22.4560 N   0  0  0  0  0  0  0  0  0  0  0  0
  -38.5250    6.0100   21.7220 N   0  0  0  0  0  0  0  0  0  0  0  0
  -35.5610    8.1320   21.0980 N   0  0  0  0  0  0  0  0  0  0  0  0
  -34.4280    7.8410   20.5710 C   0  0  0  0  0  0  0  0  0  0  0  0
  -33.4560    8.8790   20.1620 C   0  0  0  0  0  0  0  0  0  0  0  0
  -36.1181    6.6478   18.7510 H   0  0  0  0  0  0  0  0  0  0  0  0
  -34.9743    7.1886   17.4759 H   0  0  0  0  0  0  0  0  0  0  0  0
  -35.5862    5.4998   17.4759 H   0  0  0  0  0  0  0  0  0  0  0  0
  -34.0092    4.8230   18.9385 H   0  0  0  0  0  0  0  0  0  0  0  0
  -33.2021    6.4166   18.5983 H   0  0  0  0  0  0  0  0  0  0  0  0
  -33.3902    5.9453   20.9546 H   0  0  0  0  0  0  0  0  0  0  0  0
  -38.5380    5.2040   21.1030 H   0  0  0  0  0  0  0  0  0  0  0  0
  -35.9090    9.0780   21.2880 H   0  0  0  0  0  0  0  0  0  0  0  0
  -33.0192    9.3455   21.0573 H   0  0  0  0  0  0  0  0  0  0  0  0
  -32.6575    8.4177   19.5623 H   0  0  0  0  0  0  0  0  0  0  0  0
  -33.9687    9.6455   19.5623 H   0  0  0  0  0  0  0  0  0  0  0  0
  1  2  1  0
  2  3  1  0
  3  4  1  0
  4  5  2  0
  4  6  1  0
  6  7  1  0
  7  8  2  0
  8  9  1  0
  9 10  2  0
 10 11  1  0
  6 12  1  0
 12 13  2  0
 13 14  1  0
 13  3  1  0
 11  7  1  0
  1 15  1  0
  1 16  1  0
  1 17  1  0
  2 18  1  0
  2 19  1  0
  3 20  1  1
 11 21  1  0
 12 22  1  0
 14 23  1  0
 14 24  1  0
 14 25  1  0
M  CHG  1  12   1
M  END
>  <meeko>  (3) 
{"is_sidechain": [false], "free_energy": -5.992, "intermolecular_energy": -6.685, "internal_energy": -0.45}

$$$$
3gr2_ligand
     RDKit          3D

 25 26  0  0  0  0  0  0  0  0999 V2000
  -31.7170   12.3040   20.8650 C   0  0  0  0  0  0  0  0  0  0  0  0
  -31.8030   12.2850   22.3840 C   0  0  0  0  0  0  0  0  0  0  0  0
  -31.0550   13.4520   23.0250 C   0  0  2  0  0  0  0  0  0  0  0  0
  -29.5630   13.1460   23.2080 C   0  0  0  0  0  0  0  0  0  0  0  0
  -28.7430   12.8860   22.3490 O   0  0  0  0  0  0  0  0  0  0  0  0
  -29.3510   13.2280   24.5710 N   0  0  0  0  0  0  0  0  0  0  0  0
  -28.1640   13.0230   25.2020 C   0  0  0  0  0  0  0  0  0  0  0  0
  -27.3160   12.0450   24.9690 N   0  0  0  0  0  0  0  0  0  0  0  0
  -26.2690   12.2440   25.8360 N   0  0  0  0  0  0  0  0  0  0  0  0
  -26.4690   13.3200   26.5850 N   0  0  0  0  0  0  0  0  0  0  0  0
  -27.6510   13.8140   26.1960 N   0  0  0  0  0  0  0  0  0  0  0  0
  -30.5780   13.5680   25.2730 N   0  0  0  0  0  0  0  0  0  0  0  0
  -31.5420   13.7110   24.4380 C   0  0  0  0  0  0  0  0  0  0  0  0
  -32.9130   14.0660   24.8680 C   0  0  0  0  0  0  0  0  0  0  0  0
  -30.6853   12.5319   20.5590 H   0  0  0  0  0  0  0  0  0  0  0  0
  -32.0080   11.3199   20.4689 H   0  0  0  0  0  0  0  0  0  0  0  0
  -32.3955   13.0739   20.4689 H   0  0  0  0  0  0  0  0  0  0  0  0
  -32.8615   12.3396   22.6784 H   0  0  0  0  0  0  0  0  0  0  0  0
  -31.3342   11.3536   22.7345 H   0  0  0  0  0  0  0  0  0  0  0  0
  -31.2284   14.3019   22.3485 H   0  0  0  0  0  0  0  0  0  0  0  0
  -28.0250   14.6520   26.6330 H   0  0  0  0  0  0  0  0  0  0  0  0
  -30.6430   13.6810   26.2900 H   0  0  0  0  0  0  0  0  0  0  0  0
  -32.9610   14.0784   25.9669 H   0  0  0  0  0  0  0  0  0  0  0  0
  -33.1734   15.0612   24.4783 H   0  0  0  0  0  0  0  0  0  0  0  0
  -33.6236   13.3222   24.4783 H   0  0  0  0  0  0  0  0  0  0  0  0
  1  2  1  0
  2  3  1  0
  3  4  1  0
  4  5  2  0
  4  6  1  0
  6  7  1  0
  7  8  2  0
  8  9  1  0
  9 10  2  0
 10 11  1  0
  6 12  1  0
 12 13  2  0
 13 14  1  0
 13  3  1  0
 11  7  1  0
  1 15  1  0
  1 16  1  0
  1 17  1  0
  2 18  1  0
  2 19  1  0
  3 20  1  6
 11 21  1  0
 12 22  1  0
 14 23  1  0
 14 24  1  0
 14 25  1  0
M  CHG  1  12   1
M  END
>  <meeko>  (4) 
{"is_sidechain": [false], "free_energy": -5.938, "intermolecular_energy": -7.032, "internal_energy": -0.043}

$$$$
3gr2_ligand
     RDKit          3D

 25 26  0  0  0  0  0  0  0  0999 V2000
  -35.5840    9.1900   17.1200 C   0  0  0  0  0  0  0  0  0  0  0  0
  -34.1360    9.5590   17.4120 C   0  0  0  0  0  0  0  0  0  0  0  0
  -33.7130    9.1780   18.8300 C   0  0  2  0  0  0  0  0  0  0  0  0
  -33.9390    7.6880   19.1160 C   0  0  0  0  0  0  0  0  0  0  0  0
  -33.4480    6.7350   18.5440 O   0  0  0  0  0  0  0  0  0  0  0  0
  -34.8310    7.6640   20.1710 N   0  0  0  0  0  0  0  0  0  0  0  0
  -35.3280    6.5440   20.7630 C   0  0  0  0  0  0  0  0  0  0  0  0
  -36.0460    6.4970   21.8630 N   0  0  0  0  0  0  0  0  0  0  0  0
  -36.3180    5.1670   22.0740 N   0  0  0  0  0  0  0  0  0  0  0  0
  -35.7780    4.4140   21.1270 N   0  0  0  0  0  0  0  0  0  0  0  0
  -35.1570    5.2660   20.3010 N   0  0  0  0  0  0  0  0  0  0  0  0
  -35.1860    9.0100   20.5890 N   0  0  0  0  0  0  0  0  0  0  0  0
  -34.5720    9.8760   19.8680 C   0  0  0  0  0  0  0  0  0  0  0  0
  -34.7350   11.3320   20.0720 C   0  0  0  0  0  0  0  0  0  0  0  0
  -36.1254    9.0520   18.0675 H   0  0  0  0  0  0  0  0  0  0  0  0
  -36.0581    9.9960   16.5408 H   0  0  0  0  0  0  0  0  0  0  0  0
  -35.6146    8.2554   16.5408 H   0  0  0  0  0  0  0  0  0  0  0  0
  -33.4863    9.0339   16.6963 H   0  0  0  0  0  0  0  0  0  0  0  0
  -34.0418   10.6507   17.3156 H   0  0  0  0  0  0  0  0  0  0  0  0
  -32.6513    9.4589   18.8916 H   0  0  0  0  0  0  0  0  0  0  0  0
  -34.6610    4.9180   19.4850 H   0  0  0  0  0  0  0  0  0  0  0  0
  -35.8340    9.2190   21.3570 H   0  0  0  0  0  0  0  0  0  0  0  0
  -34.7595   11.5508   21.1497 H   0  0  0  0  0  0  0  0  0  0  0  0
  -33.8908   11.8639   19.6090 H   0  0  0  0  0  0  0  0  0  0  0  0
  -35.6759   11.6641   19.6090 H   0  0  0  0  0  0  0  0  0  0  0  0
  1  2  1  0
  2  3  1  0
  3  4  1  0
  4  5  2  0
  4  6  1  0
  6  7  1  0
  7  8  2  0
  8  9  1  0
  9 10  2  0
 10 11  1  0
  6 12  1  0
 12 13  2  0
 13 14  1  0
 13  3  1  0
 11  7  1  0
  1 15  1  0
  1 16  1  0
  1 17  1  0
  2 18  1  0
  2 19  1  0
  3 20  1  1
 11 21  1  0
 12 22  1  0
 14 23  1  0
 14 24  1  0
 14 25  1  0
M  CHG  1  12   1
M  END
>  <meeko>  (5) 
{"is_sidechain": [false], "free_energy": -5.912, "intermolecular_energy": -6.615, "internal_energy": -0.431}

$$$$
3gr2_ligand
     RDKit          3D

 25 26  0  0  0  0  0  0  0  0999 V2000
  -33.3330   10.9080   18.8620 C   0  0  0  0  0  0  0  0  0  0  0  0
  -34.1470   10.3540   20.0210 C   0  0  0  0  0  0  0  0  0  0  0  0
  -34.6140    8.9200   19.7720 C   0  0  2  0  0  0  0  0  0  0  0  0
  -36.0810    8.7160   20.1730 C   0  0  0  0  0  0  0  0  0  0  0  0
  -37.0620    9.2810   19.7290 O   0  0  0  0  0  0  0  0  0  0  0  0
  -36.0450    7.7470   21.1570 N   0  0  0  0  0  0  0  0  0  0  0  0
  -37.1250    7.2480   21.8170 C   0  0  0  0  0  0  0  0  0  0  0  0
  -37.5080    5.9910   21.8450 N   0  0  0  0  0  0  0  0  0  0  0  0
  -38.6370    5.9630   22.6290 N   0  0  0  0  0  0  0  0  0  0  0  0
  -38.9400    7.1750   23.0710 N   0  0  0  0  0  0  0  0  0  0  0  0
  -38.0000    7.9860   22.5690 N   0  0  0  0  0  0  0  0  0  0  0  0
  -34.6830    7.3080   21.4120 N   0  0  0  0  0  0  0  0  0  0  0  0
  -33.8640    7.9350   20.6490 C   0  0  0  0  0  0  0  0  0  0  0  0
  -32.4060    7.6880   20.6830 C   0  0  0  0  0  0  0  0  0  0  0  0
  -32.4833   11.4863   19.2540 H   0  0  0  0  0  0  0  0  0  0  0  0
  -32.9581   10.0767   18.2468 H   0  0  0  0  0  0  0  0  0  0  0  0
  -33.9688   11.5617   18.2468 H   0  0  0  0  0  0  0  0  0  0  0  0
  -33.5259   10.3707   20.9287 H   0  0  0  0  0  0  0  0  0  0  0  0
  -35.0420   10.9835   20.1334 H   0  0  0  0  0  0  0  0  0  0  0  0
  -34.4466    8.7528   18.6977 H   0  0  0  0  0  0  0  0  0  0  0  0
  -38.0210    8.9820   22.7720 H   0  0  0  0  0  0  0  0  0  0  0  0
  -34.4320    6.5940   22.1040 H   0  0  0  0  0  0  0  0  0  0  0  0
  -32.0681    7.6308   21.7282 H   0  0  0  0  0  0  0  0  0  0  0  0
  -32.1828    6.7393   20.1730 H   0  0  0  0  0  0  0  0  0  0  0  0
  -31.8828    8.5103   20.1730 H   0  0  0  0  0  0  0  0  0  0  0  0
  1  2  1  0
  2  3  1  0
  3  4  1  0
  4  5  2  0
  4  6  1  0
  6  7  1  0
  7  8  2  0
  8  9  1  0
  9 10  2  0
 10 11  1  0
  6 12  1  0
 12 13  2  0
 13 14  1  0
 13  3  1  0
 11  7  1  0
  1 15  1  0
  1 16  1  0
  1 17  1  0
  2 18  1  0
  2 19  1  0
  3 20  1  6
 11 21  1  0
 12 22  1  0
 14 23  1  0
 14 24  1  0
 14 25  1  0
M  CHG  1  12   1
M  END
>  <meeko>  (6) 
{"is_sidechain": [false], "free_energy": -5.874, "intermolecular_energy": -6.602, "internal_energy": -0.402}

$$$$
3gr2_ligand
     RDKit          3D

 25 26  0  0  0  0  0  0  0  0999 V2000
  -32.7810    7.9920   20.3760 C   0  0  0  0  0  0  0  0  0  0  0  0
  -34.1630    8.6080   20.5410 C   0  0  0  0  0  0  0  0  0  0  0  0
  -34.8570    8.8480   19.2010 C   0  0  2  0  0  0  0  0  0  0  0  0
  -34.9190    7.5720   18.3500 C   0  0  0  0  0  0  0  0  0  0  0  0
  -35.4610    6.5190   18.6220 O   0  0  0  0  0  0  0  0  0  0  0  0
  -34.2180    7.8820   17.2010 N   0  0  0  0  0  0  0  0  0  0  0  0
  -34.0050    7.0410   16.1520 C   0  0  0  0  0  0  0  0  0  0  0  0
  -33.1030    7.1870   15.2070 N   0  0  0  0  0  0  0  0  0  0  0  0
  -33.2570    6.1060   14.3740 N   0  0  0  0  0  0  0  0  0  0  0  0
  -34.2320    5.3130   14.7970 N   0  0  0  0  0  0  0  0  0  0  0  0
  -34.7050    5.8890   15.9090 N   0  0  0  0  0  0  0  0  0  0  0  0
  -33.7210    9.2470   17.2400 N   0  0  0  0  0  0  0  0  0  0  0  0
  -34.0700    9.8150   18.3370 C   0  0  0  0  0  0  0  0  0  0  0  0
  -33.7100   11.2150   18.6510 C   0  0  0  0  0  0  0  0  0  0  0  0
  -32.3454    7.7978   21.3672 H   0  0  0  0  0  0  0  0  0  0  0  0
  -32.8651    7.0461   19.8208 H   0  0  0  0  0  0  0  0  0  0  0  0
  -32.1338    8.6868   19.8208 H   0  0  0  0  0  0  0  0  0  0  0  0
  -34.7833    7.9280   21.1434 H   0  0  0  0  0  0  0  0  0  0  0  0
  -34.0390    9.5834   21.0341 H   0  0  0  0  0  0  0  0  0  0  0  0
  -35.8563    9.2239   19.4657 H   0  0  0  0  0  0  0  0  0  0  0  0
  -35.4710    5.4600   16.4230 H   0  0  0  0  0  0  0  0  0  0  0  0
  -33.1760    9.6800   16.4870 H   0  0  0  0  0  0  0  0  0  0  0  0
  -33.6756   11.3488   19.7423 H   0  0  0  0  0  0  0  0  0  0  0  0
  -32.7235   11.4450   18.2221 H   0  0  0  0  0  0  0  0  0  0  0  0
  -34.4632   11.8923   18.2221 H   0  0  0  0  0  0  0  0  0  0  0  0
  1  2  1  0
  2  3  1  0
  3  4  1  0
  4  5  2  0
  4  6  1  0
  6  7  1  0
  7  8  2  0
  8  9  1  0
  9 10  2  0
 10 11  1  0
  6 12  1  0
 12 13  2  0
 13 14  1  0
 13  3  1  0
 11  7  1  0
  1 15  1  0
  1 16  1  0
  1 17  1  0
  2 18  1  0
  2 19  1  0
  3 20  1  1
 11 21  1  0
 12 22  1  0
 14 23  1  0
 14 24  1  0
 14 25  1  0
M  CHG  1  12   1
M  END
>  <meeko>  (7) 
{"is_sidechain": [false], "free_energy": -5.867, "intermolecular_energy": -6.558, "internal_energy": -0.438}

$$$$
3gr2_ligand
     RDKit          3D

 25 26  0  0  0  0  0  0  0  0999 V2000
  -35.8560    7.6850   15.9690 C   0  0  0  0  0  0  0  0  0  0  0  0
  -34.3350    7.6540   16.0120 C   0  0  0  0  0  0  0  0  0  0  0  0
  -33.7950    7.5160   17.4350 C   0  0  2  0  0  0  0  0  0  0  0  0
  -34.4510    6.3500   18.1870 C   0  0  0  0  0  0  0  0  0  0  0  0
  -34.4330    5.1700   17.8960 O   0  0  0  0  0  0  0  0  0  0  0  0
  -35.0730    6.9370   19.2720 N   0  0  0  0  0  0  0  0  0  0  0  0
  -35.7920    6.2810   20.2230 C   0  0  0  0  0  0  0  0  0  0  0  0
  -36.9060    6.6980   20.7820 N   0  0  0  0  0  0  0  0  0  0  0  0
  -37.2660    5.7160   21.6730 N   0  0  0  0  0  0  0  0  0  0  0  0
  -36.3930    4.7190   21.6620 N   0  0  0  0  0  0  0  0  0  0  0  0
  -35.4680    5.0620   20.7570 N   0  0  0  0  0  0  0  0  0  0  0  0
  -34.8630    8.3750   19.2830 N   0  0  0  0  0  0  0  0  0  0  0  0
  -34.1460    8.7270   18.2790 C   0  0  0  0  0  0  0  0  0  0  0  0
  -33.7650   10.1360   18.0350 C   0  0  0  0  0  0  0  0  0  0  0  0
  -36.2517    7.6931   16.9953 H   0  0  0  0  0  0  0  0  0  0  0  0
  -36.1895    8.5901   15.4403 H   0  0  0  0  0  0  0  0  0  0  0  0
  -36.2261    6.7942   15.4403 H   0  0  0  0  0  0  0  0  0  0  0  0
  -33.9821    6.7996   15.4159 H   0  0  0  0  0  0  0  0  0  0  0  0
  -33.9685    8.6081   15.6053 H   0  0  0  0  0  0  0  0  0  0  0  0
  -32.7107    7.3781   17.3117 H   0  0  0  0  0  0  0  0  0  0  0  0
  -34.6820    4.4460   20.5680 H   0  0  0  0  0  0  0  0  0  0  0  0
  -35.2380    9.0020   20.0030 H   0  0  0  0  0  0  0  0  0  0  0  0
  -33.6260   10.6502   18.9974 H   0  0  0  0  0  0  0  0  0  0  0  0
  -32.8259   10.1681   17.4631 H   0  0  0  0  0  0  0  0  0  0  0  0
  -34.5599   10.6370   17.4631 H   0  0  0  0  0  0  0  0  0  0  0  0
  1  2  1  0
  2  3  1  0
  3  4  1  0
  4  5  2  0
  4  6  1  0
  6  7  1  0
  7  8  2  0
  8  9  1  0
  9 10  2  0
 10 11  1  0
  6 12  1  0
 12 13  2  0
 13 14  1  0
 13  3  1  0
 11  7  1  0
  1 15  1  0
  1 16  1  0
  1 17  1  0
  2 18  1  0
  2 19  1  0
  3 20  1  6
 11 21  1  0
 12 22  1  0
 14 23  1  0
 14 24  1  0
 14 25  1  0
M  CHG  1  12   1
M  END
>  <meeko>  (8) 
{"is_sidechain": [false], "free_energy": -5.845, "intermolecular_energy": -6.525, "internal_energy": -0.447}

$$$$
3gr2_ligand
     RDKit          3D

 25 26  0  0  0  0  0  0  0  0999 V2000
  -34.8260   13.0300   18.5910 C   0  0  0  0  0  0  0  0  0  0  0  0
  -34.7330   11.7820   19.4570 C   0  0  0  0  0  0  0  0  0  0  0  0
  -33.6440   10.8230   18.9810 C   0  0  2  0  0  0  0  0  0  0  0  0
  -34.2320    9.5350   18.3900 C   0  0  0  0  0  0  0  0  0  0  0  0
  -34.9700    9.4230   17.4300 O   0  0  0  0  0  0  0  0  0  0  0  0
  -33.7390    8.5230   19.1900 N   0  0  0  0  0  0  0  0  0  0  0  0
  -34.0040    7.1960   19.0430 C   0  0  0  0  0  0  0  0  0  0  0  0
  -34.4070    6.3730   19.9850 N   0  0  0  0  0  0  0  0  0  0  0  0
  -34.5430    5.1490   19.3770 N   0  0  0  0  0  0  0  0  0  0  0  0
  -34.2300    5.2180   18.0910 N   0  0  0  0  0  0  0  0  0  0  0  0
  -33.8920    6.4940   17.8720 N   0  0  0  0  0  0  0  0  0  0  0  0
  -32.8800    9.0520   20.2360 N   0  0  0  0  0  0  0  0  0  0  0  0
  -32.7980   10.3290   20.1400 C   0  0  0  0  0  0  0  0  0  0  0  0
  -31.9840   11.1410   21.0710 C   0  0  0  0  0  0  0  0  0  0  0  0
  -34.8923   13.9192   19.2352 H   0  0  0  0  0  0  0  0  0  0  0  0
  -33.9308   13.1032   17.9559 H   0  0  0  0  0  0  0  0  0  0  0  0
  -35.7221   12.9697   17.9559 H   0  0  0  0  0  0  0  0  0  0  0  0
  -34.5097   12.0851   20.4906 H   0  0  0  0  0  0  0  0  0  0  0  0
  -35.6963   11.2551   19.3906 H   0  0  0  0  0  0  0  0  0  0  0  0
  -33.0670   11.3981   18.2419 H   0  0  0  0  0  0  0  0  0  0  0  0
  -33.6090    6.7980   16.9440 H   0  0  0  0  0  0  0  0  0  0  0  0
  -32.4100    8.4720   20.9390 H   0  0  0  0  0  0  0  0  0  0  0  0
  -32.2443   10.8813   22.1077 H   0  0  0  0  0  0  0  0  0  0  0  0
  -30.9169   10.9368   20.8987 H   0  0  0  0  0  0  0  0  0  0  0  0
  -32.1855   12.2086   20.8987 H   0  0  0  0  0  0  0  0  0  0  0  0
  1  2  1  0
  2  3  1  0
  3  4  1  0
  4  5  2  0
  4  6  1  0
  6  7  1  0
  7  8  2  0
  8  9  1  0
  9 10  2  0
 10 11  1  0
  6 12  1  0
 12 13  2  0
 13 14  1  0
 13  3  1  0
 11  7  1  0
  1 15  1  0
  1 16  1  0
  1 17  1  0
  2 18  1  0
  2 19  1  0
  3 20  1  6
 11 21  1  0
 12 22  1  0
 14 23  1  0
 14 24  1  0
 14 25  1  0
M  CHG  1  12   1
M  END
>  <meeko>  (9) 
{"is_sidechain": [false], "free_energy": -5.654, "intermolecular_energy": -6.319, "internal_energy": -0.439}

$$$$
