3f3a_ligand
     RDKit          3D

 27 28  0  0  0  0  0  0  0  0999 V2000
  -25.1220   -3.9440  -19.1370 N   0  0  0  0  0  0  0  0  0  0  0  0
  -26.4050   -4.7600  -19.2620 C   0  0  1  0  0  0  0  0  0  0  0  0
  -26.5940   -5.2670  -20.6880 C   0  0  0  0  0  0  0  0  0  0  0  0
  -26.8350   -4.1540  -21.6650 C   0  0  0  0  0  0  0  0  0  0  0  0
  -25.9040   -3.6110  -22.5300 C   0  0  0  0  0  0  0  0  0  0  0  0
  -26.5200   -2.6370  -23.2690 N   0  0  0  0  0  0  0  0  0  0  0  0
  -27.8470   -2.5460  -22.9210 C   0  0  0  0  0  0  0  0  0  0  0  0
  -28.8540   -1.7120  -23.4230 C   0  0  0  0  0  0  0  0  0  0  0  0
  -30.1260   -1.8190  -22.8550 C   0  0  0  0  0  0  0  0  0  0  0  0
  -30.3780   -2.7170  -21.8230 C   0  0  0  0  0  0  0  0  0  0  0  0
  -29.3600   -3.5440  -21.3330 C   0  0  0  0  0  0  0  0  0  0  0  0
  -28.0690   -3.4650  -21.8960 C   0  0  0  0  0  0  0  0  0  0  0  0
  -26.3450   -5.9350  -18.2520 C   0  0  0  0  0  0  0  0  0  0  0  0
  -25.4700   -5.9010  -17.3630 O   0  0  0  0  0  0  0  0  0  0  0  0
  -27.2740   -6.7690  -18.5190 O   0  0  0  0  0  0  0  0  0  0  0  0
  -24.9010   -4.0740  -18.1190 H   0  0  0  0  0  0  0  0  0  0  0  0
  -25.2390   -2.9580  -19.3630 H   0  0  0  0  0  0  0  0  0  0  0  0
  -24.3460   -4.3690  -19.6470 H   0  0  0  0  0  0  0  0  0  0  0  0
  -27.2716   -4.1232  -19.0308 H   0  0  0  0  0  0  0  0  0  0  0  0
  -25.6886   -5.8132  -20.9914 H   0  0  0  0  0  0  0  0  0  0  0  0
  -27.4805   -5.9182  -20.6971 H   0  0  0  0  0  0  0  0  0  0  0  0
  -24.8486   -3.9102  -22.6109 H   0  0  0  0  0  0  0  0  0  0  0  0
  -26.0690   -2.0590  -23.9670 H   0  0  0  0  0  0  0  0  0  0  0  0
  -28.6508   -0.9985  -24.2352 H   0  0  0  0  0  0  0  0  0  0  0  0
  -30.9413   -1.1829  -23.2299 H   0  0  0  0  0  0  0  0  0  0  0  0
  -31.3864   -2.7780  -21.3878 H   0  0  0  0  0  0  0  0  0  0  0  0
  -29.5654   -4.2502  -20.5150 H   0  0  0  0  0  0  0  0  0  0  0  0
  1  2  1  0
  2  3  1  0
  3  4  1  0
  4  5  2  0
  5  6  1  0
  6  7  1  0
  7  8  2  0
  8  9  1  0
  9 10  2  0
 10 11  1  0
 11 12  2  0
  2 13  1  0
 13 14  2  0
 13 15  1  0
 12  4  1  0
 12  7  1  0
  1 16  1  0
  1 17  1  0
  1 18  1  0
  2 19  1  1
  3 20  1  0
  3 21  1  0
  5 22  1  0
  6 23  1  0
  8 24  1  0
  9 25  1  0
 10 26  1  0
 11 27  1  0
M  CHG  2   1   1  15  -1
M  END
>  <meeko>  (1) 
{"is_sidechain": [false], "free_energy": -8.168, "intermolecular_energy": -9.839, "internal_energy": -0.204}

$$$$
3f3a_ligand
     RDKit          3D

 27 28  0  0  0  0  0  0  0  0999 V2000
  -25.2620   -3.6590  -19.1190 N   0  0  0  0  0  0  0  0  0  0  0  0
  -26.4320   -4.5260  -19.5770 C   0  0  1  0  0  0  0  0  0  0  0  0
  -26.2400   -4.9840  -21.0190 C   0  0  0  0  0  0  0  0  0  0  0  0
  -27.4750   -4.7900  -21.8510 C   0  0  0  0  0  0  0  0  0  0  0  0
  -28.0670   -5.7350  -22.6660 C   0  0  0  0  0  0  0  0  0  0  0  0
  -29.1810   -5.1780  -23.2330 N   0  0  0  0  0  0  0  0  0  0  0  0
  -29.3450   -3.8870  -22.7860 C   0  0  0  0  0  0  0  0  0  0  0  0
  -30.3460   -2.9530  -23.0810 C   0  0  0  0  0  0  0  0  0  0  0  0
  -30.2440   -1.6890  -22.4940 C   0  0  0  0  0  0  0  0  0  0  0  0
  -29.1810   -1.3710  -21.6540 C   0  0  0  0  0  0  0  0  0  0  0  0
  -28.1890   -2.3170  -21.3700 C   0  0  0  0  0  0  0  0  0  0  0  0
  -28.2730   -3.6040  -21.9400 C   0  0  0  0  0  0  0  0  0  0  0  0
  -26.5570   -5.7360  -18.6160 C   0  0  0  0  0  0  0  0  0  0  0  0
  -27.5450   -6.4870  -18.7440 O   0  0  0  0  0  0  0  0  0  0  0  0
  -25.5520   -5.7560  -17.8280 O   0  0  0  0  0  0  0  0  0  0  0  0
  -24.6470   -3.6880  -19.9680 H   0  0  0  0  0  0  0  0  0  0  0  0
  -24.7770   -4.0230  -18.3020 H   0  0  0  0  0  0  0  0  0  0  0  0
  -25.5330   -2.6800  -19.0050 H   0  0  0  0  0  0  0  0  0  0  0  0
  -27.3616   -3.9386  -19.5477 H   0  0  0  0  0  0  0  0  0  0  0  0
  -25.4182   -4.4060  -21.4667 H   0  0  0  0  0  0  0  0  0  0  0  0
  -26.0133   -6.0602  -21.0015 H   0  0  0  0  0  0  0  0  0  0  0  0
  -27.7048   -6.7604  -22.8311 H   0  0  0  0  0  0  0  0  0  0  0  0
  -29.7960   -5.6380  -23.8920 H   0  0  0  0  0  0  0  0  0  0  0  0
  -31.1818   -3.2051  -23.7502 H   0  0  0  0  0  0  0  0  0  0  0  0
  -31.0164   -0.9332  -22.6992 H   0  0  0  0  0  0  0  0  0  0  0  0
  -29.1197   -0.3669  -21.2090 H   0  0  0  0  0  0  0  0  0  0  0  0
  -27.3502   -2.0583  -20.7071 H   0  0  0  0  0  0  0  0  0  0  0  0
  1  2  1  0
  2  3  1  0
  3  4  1  0
  4  5  2  0
  5  6  1  0
  6  7  1  0
  7  8  2  0
  8  9  1  0
  9 10  2  0
 10 11  1  0
 11 12  2  0
  2 13  1  0
 13 14  2  0
 13 15  1  0
 12  4  1  0
 12  7  1  0
  1 16  1  0
  1 17  1  0
  1 18  1  0
  2 19  1  6
  3 20  1  0
  3 21  1  0
  5 22  1  0
  6 23  1  0
  8 24  1  0
  9 25  1  0
 10 26  1  0
 11 27  1  0
M  CHG  2   1   1  15  -1
M  END
>  <meeko>  (2) 
{"is_sidechain": [false], "free_energy": -7.686, "intermolecular_energy": -9.36, "internal_energy": -0.102}

$$$$
3f3a_ligand
     RDKit          3D

 27 28  0  0  0  0  0  0  0  0999 V2000
  -28.7650   -7.1890  -19.1860 N   0  0  0  0  0  0  0  0  0  0  0  0
  -27.8450   -6.1970  -19.8930 C   0  0  1  0  0  0  0  0  0  0  0  0
  -28.2990   -5.9580  -21.3290 C   0  0  0  0  0  0  0  0  0  0  0  0
  -27.6990   -4.7160  -21.9220 C   0  0  0  0  0  0  0  0  0  0  0  0
  -26.3890   -4.5570  -22.3300 C   0  0  0  0  0  0  0  0  0  0  0  0
  -26.2450   -3.2920  -22.8330 N   0  0  0  0  0  0  0  0  0  0  0  0
  -27.4460   -2.6230  -22.7840 C   0  0  0  0  0  0  0  0  0  0  0  0
  -27.7720   -1.3270  -23.2020 C   0  0  0  0  0  0  0  0  0  0  0  0
  -29.0860   -0.8930  -23.0030 C   0  0  0  0  0  0  0  0  0  0  0  0
  -30.0300   -1.7200  -22.4020 C   0  0  0  0  0  0  0  0  0  0  0  0
  -29.6880   -3.0130  -21.9890 C   0  0  0  0  0  0  0  0  0  0  0  0
  -28.3720   -3.4800  -22.1890 C   0  0  0  0  0  0  0  0  0  0  0  0
  -27.8260   -4.8750  -19.0840 C   0  0  0  0  0  0  0  0  0  0  0  0
  -28.9130   -4.3020  -18.8700 O   0  0  0  0  0  0  0  0  0  0  0  0
  -26.6250   -4.6050  -18.7450 O   0  0  0  0  0  0  0  0  0  0  0  0
  -28.6290   -6.9070  -18.1840 H   0  0  0  0  0  0  0  0  0  0  0  0
  -28.5070   -8.1620  -19.3310 H   0  0  0  0  0  0  0  0  0  0  0  0
  -29.7500   -7.0120  -19.3930 H   0  0  0  0  0  0  0  0  0  0  0  0
  -26.8265   -6.6096  -19.9427 H   0  0  0  0  0  0  0  0  0  0  0  0
  -28.0005   -6.8214  -21.9418 H   0  0  0  0  0  0  0  0  0  0  0  0
  -29.3914   -5.8290  -21.3173 H   0  0  0  0  0  0  0  0  0  0  0  0
  -25.5967   -5.3171  -22.2623 H   0  0  0  0  0  0  0  0  0  0  0  0
  -25.3830   -2.8970  -23.1860 H   0  0  0  0  0  0  0  0  0  0  0  0
  -27.0210   -0.6737  -23.6702 H   0  0  0  0  0  0  0  0  0  0  0  0
  -29.3779    0.1171  -23.3263 H   0  0  0  0  0  0  0  0  0  0  0  0
  -31.0560   -1.3537  -22.2498 H   0  0  0  0  0  0  0  0  0  0  0  0
  -30.4394   -3.6597  -21.5123 H   0  0  0  0  0  0  0  0  0  0  0  0
  1  2  1  0
  2  3  1  0
  3  4  1  0
  4  5  2  0
  5  6  1  0
  6  7  1  0
  7  8  2  0
  8  9  1  0
  9 10  2  0
 10 11  1  0
 11 12  2  0
  2 13  1  0
 13 14  2  0
 13 15  1  0
 12  4  1  0
 12  7  1  0
  1 16  1  0
  1 17  1  0
  1 18  1  0
  2 19  1  6
  3 20  1  0
  3 21  1  0
  5 22  1  0
  6 23  1  0
  8 24  1  0
  9 25  1  0
 10 26  1  0
 11 27  1  0
M  CHG  2   1   1  15  -1
M  END
>  <meeko>  (3) 
{"is_sidechain": [false], "free_energy": -7.431, "intermolecular_energy": -9.054, "internal_energy": -0.102}

$$$$
3f3a_ligand
     RDKit          3D

 27 28  0  0  0  0  0  0  0  0999 V2000
  -25.8320   -5.0010  -20.7000 N   0  0  0  0  0  0  0  0  0  0  0  0
  -26.7190   -4.7070  -19.4930 C   0  0  1  0  0  0  0  0  0  0  0  0
  -28.1670   -4.4880  -19.9190 C   0  0  0  0  0  0  0  0  0  0  0  0
  -28.3240   -4.4340  -21.4110 C   0  0  0  0  0  0  0  0  0  0  0  0
  -28.2480   -3.3030  -22.2000 C   0  0  0  0  0  0  0  0  0  0  0  0
  -28.4210   -3.6750  -23.5060 N   0  0  0  0  0  0  0  0  0  0  0  0
  -28.5880   -5.0380  -23.5910 C   0  0  0  0  0  0  0  0  0  0  0  0
  -28.7760   -5.8520  -24.7150 C   0  0  0  0  0  0  0  0  0  0  0  0
  -28.9450   -7.2220  -24.5000 C   0  0  0  0  0  0  0  0  0  0  0  0
  -28.9350   -7.7530  -23.2140 C   0  0  0  0  0  0  0  0  0  0  0  0
  -28.7460   -6.9250  -22.1010 C   0  0  0  0  0  0  0  0  0  0  0  0
  -28.5610   -5.5390  -22.2910 C   0  0  0  0  0  0  0  0  0  0  0  0
  -26.6010   -5.8840  -18.4920 C   0  0  0  0  0  0  0  0  0  0  0  0
  -25.6750   -5.8540  -17.6570 O   0  0  0  0  0  0  0  0  0  0  0  0
  -27.5450   -6.7170  -18.7060 O   0  0  0  0  0  0  0  0  0  0  0  0
  -25.4910   -5.9660  -20.4660 H   0  0  0  0  0  0  0  0  0  0  0  0
  -25.0540   -4.3540  -20.8050 H   0  0  0  0  0  0  0  0  0  0  0  0
  -26.3750   -5.0990  -21.5590 H   0  0  0  0  0  0  0  0  0  0  0  0
  -26.3837   -3.7792  -19.0064 H   0  0  0  0  0  0  0  0  0  0  0  0
  -28.7786   -5.3152  -19.5294 H   0  0  0  0  0  0  0  0  0  0  0  0
  -28.4926   -3.5190  -19.5128 H   0  0  0  0  0  0  0  0  0  0  0  0
  -28.0774   -2.2776  -21.8402 H   0  0  0  0  0  0  0  0  0  0  0  0
  -28.4340   -3.0450  -24.2980 H   0  0  0  0  0  0  0  0  0  0  0  0
  -28.7901   -5.4282  -25.7300 H   0  0  0  0  0  0  0  0  0  0  0  0
  -29.0882   -7.8915  -25.3610 H   0  0  0  0  0  0  0  0  0  0  0  0
  -29.0770   -8.8343  -23.0703 H   0  0  0  0  0  0  0  0  0  0  0  0
  -28.7417   -7.3513  -21.0870 H   0  0  0  0  0  0  0  0  0  0  0  0
  1  2  1  0
  2  3  1  0
  3  4  1  0
  4  5  2  0
  5  6  1  0
  6  7  1  0
  7  8  2  0
  8  9  1  0
  9 10  2  0
 10 11  1  0
 11 12  2  0
  2 13  1  0
 13 14  2  0
 13 15  1  0
 12  4  1  0
 12  7  1  0
  1 16  1  0
  1 17  1  0
  1 18  1  0
  2 19  1  1
  3 20  1  0
  3 21  1  0
  5 22  1  0
  6 23  1  0
  8 24  1  0
  9 25  1  0
 10 26  1  0
 11 27  1  0
M  CHG  2   1   1  15  -1
M  END
>  <meeko>  (4) 
{"is_sidechain": [false], "free_energy": -7.039, "intermolecular_energy": -8.632, "internal_energy": -0.052}

$$$$
3f3a_ligand
     RDKit          3D

 27 28  0  0  0  0  0  0  0  0999 V2000
  -29.0510   -6.2060  -24.6160 N   0  0  0  0  0  0  0  0  0  0  0  0
  -28.4680   -6.9900  -23.4430 C   0  0  1  0  0  0  0  0  0  0  0  0
  -28.4310   -6.1360  -22.1800 C   0  0  0  0  0  0  0  0  0  0  0  0
  -27.8650   -4.7680  -22.4290 C   0  0  0  0  0  0  0  0  0  0  0  0
  -26.5480   -4.4700  -22.7220 C   0  0  0  0  0  0  0  0  0  0  0  0
  -26.4420   -3.1170  -22.9010 N   0  0  0  0  0  0  0  0  0  0  0  0
  -27.6730   -2.5220  -22.7530 C   0  0  0  0  0  0  0  0  0  0  0  0
  -28.0400   -1.1750  -22.8650 C   0  0  0  0  0  0  0  0  0  0  0  0
  -29.3790   -0.8480  -22.6330 C   0  0  0  0  0  0  0  0  0  0  0  0
  -30.3080   -1.8270  -22.2940 C   0  0  0  0  0  0  0  0  0  0  0  0
  -29.9240   -3.1690  -22.1860 C   0  0  0  0  0  0  0  0  0  0  0  0
  -28.5810   -3.5280  -22.4260 C   0  0  0  0  0  0  0  0  0  0  0  0
  -29.3170   -8.2690  -23.2310 C   0  0  0  0  0  0  0  0  0  0  0  0
  -30.0240   -8.6690  -24.1780 O   0  0  0  0  0  0  0  0  0  0  0  0
  -29.1110   -8.7220  -22.0550 O   0  0  0  0  0  0  0  0  0  0  0  0
  -28.1760   -5.8990  -25.1070 H   0  0  0  0  0  0  0  0  0  0  0  0
  -29.6140   -5.4060  -24.3350 H   0  0  0  0  0  0  0  0  0  0  0  0
  -29.5410   -6.8130  -25.2770 H   0  0  0  0  0  0  0  0  0  0  0  0
  -27.4297   -7.2746  -23.6684 H   0  0  0  0  0  0  0  0  0  0  0  0
  -29.4562   -6.0293  -21.7958 H   0  0  0  0  0  0  0  0  0  0  0  0
  -27.7780   -6.6413  -21.4532 H   0  0  0  0  0  0  0  0  0  0  0  0
  -25.7252   -5.1960  -22.7984 H   0  0  0  0  0  0  0  0  0  0  0  0
  -25.5860   -2.6190  -23.1070 H   0  0  0  0  0  0  0  0  0  0  0  0
  -27.3015   -0.4027  -23.1260 H   0  0  0  0  0  0  0  0  0  0  0  0
  -29.7034    0.1995  -22.7197 H   0  0  0  0  0  0  0  0  0  0  0  0
  -31.3546   -1.5436  -22.1090 H   0  0  0  0  0  0  0  0  0  0  0  0
  -30.6635   -3.9373  -21.9162 H   0  0  0  0  0  0  0  0  0  0  0  0
  1  2  1  0
  2  3  1  0
  3  4  1  0
  4  5  2  0
  5  6  1  0
  6  7  1  0
  7  8  2  0
  8  9  1  0
  9 10  2  0
 10 11  1  0
 11 12  2  0
  2 13  1  0
 13 14  2  0
 13 15  1  0
 12  4  1  0
 12  7  1  0
  1 16  1  0
  1 17  1  0
  1 18  1  0
  2 19  1  6
  3 20  1  0
  3 21  1  0
  5 22  1  0
  6 23  1  0
  8 24  1  0
  9 25  1  0
 10 26  1  0
 11 27  1  0
M  CHG  2   1   1  15  -1
M  END
>  <meeko>  (5) 
{"is_sidechain": [false], "free_energy": -6.958, "intermolecular_energy": -8.368, "internal_energy": -0.217}

$$$$
3f3a_ligand
     RDKit          3D

 27 28  0  0  0  0  0  0  0  0999 V2000
  -28.7500   -6.7740  -25.4880 N   0  0  0  0  0  0  0  0  0  0  0  0
  -28.4300   -6.8740  -23.9980 C   0  0  1  0  0  0  0  0  0  0  0  0
  -28.8030   -5.5870  -23.2710 C   0  0  0  0  0  0  0  0  0  0  0  0
  -27.6650   -5.0330  -22.4640 C   0  0  0  0  0  0  0  0  0  0  0  0
  -26.7220   -4.1220  -22.9000 C   0  0  0  0  0  0  0  0  0  0  0  0
  -25.8700   -3.8540  -21.8630 N   0  0  0  0  0  0  0  0  0  0  0  0
  -26.2510   -4.5570  -20.7430 C   0  0  0  0  0  0  0  0  0  0  0  0
  -25.6900   -4.5770  -19.4600 C   0  0  0  0  0  0  0  0  0  0  0  0
  -26.2780   -5.4170  -18.5110 C   0  0  0  0  0  0  0  0  0  0  0  0
  -27.3750   -6.2090  -18.8350 C   0  0  0  0  0  0  0  0  0  0  0  0
  -27.9230   -6.1770  -20.1230 C   0  0  0  0  0  0  0  0  0  0  0  0
  -27.3560   -5.3290  -21.0970 C   0  0  0  0  0  0  0  0  0  0  0  0
  -29.1880   -8.0910  -23.4100 C   0  0  0  0  0  0  0  0  0  0  0  0
  -29.1300   -8.2800  -22.1780 O   0  0  0  0  0  0  0  0  0  0  0  0
  -29.7890   -8.7100  -24.3510 O   0  0  0  0  0  0  0  0  0  0  0  0
  -29.1310   -7.7340  -25.6750 H   0  0  0  0  0  0  0  0  0  0  0  0
  -27.9380   -6.5820  -26.0700 H   0  0  0  0  0  0  0  0  0  0  0  0
  -29.5200   -6.1290  -25.6710 H   0  0  0  0  0  0  0  0  0  0  0  0
  -27.3479   -7.0167  -23.8612 H   0  0  0  0  0  0  0  0  0  0  0  0
  -29.1060   -4.8362  -24.0156 H   0  0  0  0  0  0  0  0  0  0  0  0
  -29.6231   -5.8209  -22.5762 H   0  0  0  0  0  0  0  0  0  0  0  0
  -26.6657   -3.6865  -23.9085 H   0  0  0  0  0  0  0  0  0  0  0  0
  -25.0710   -3.2350  -21.9070 H   0  0  0  0  0  0  0  0  0  0  0  0
  -24.8187   -3.9544  -19.2087 H   0  0  0  0  0  0  0  0  0  0  0  0
  -25.8670   -5.4527  -17.4913 H   0  0  0  0  0  0  0  0  0  0  0  0
  -27.8162   -6.8668  -18.0717 H   0  0  0  0  0  0  0  0  0  0  0  0
  -28.7886   -6.8080  -20.3732 H   0  0  0  0  0  0  0  0  0  0  0  0
  1  2  1  0
  2  3  1  0
  3  4  1  0
  4  5  2  0
  5  6  1  0
  6  7  1  0
  7  8  2  0
  8  9  1  0
  9 10  2  0
 10 11  1  0
 11 12  2  0
  2 13  1  0
 13 14  2  0
 13 15  1  0
 12  4  1  0
 12  7  1  0
  1 16  1  0
  1 17  1  0
  1 18  1  0
  2 19  1  6
  3 20  1  0
  3 21  1  0
  5 22  1  0
  6 23  1  0
  8 24  1  0
  9 25  1  0
 10 26  1  0
 11 27  1  0
M  CHG  2   1   1  15  -1
M  END
>  <meeko>  (6) 
{"is_sidechain": [false], "free_energy": -6.789, "intermolecular_energy": -8.205, "internal_energy": -0.178}

$$$$
3f3a_ligand
     RDKit          3D

 27 28  0  0  0  0  0  0  0  0999 V2000
  -31.1830   -2.7400  -23.3520 N   0  0  0  0  0  0  0  0  0  0  0  0
  -29.8760   -2.8660  -22.5730 C   0  0  1  0  0  0  0  0  0  0  0  0
  -28.9450   -3.8810  -23.2270 C   0  0  0  0  0  0  0  0  0  0  0  0
  -27.6780   -4.0820  -22.4480 C   0  0  0  0  0  0  0  0  0  0  0  0
  -26.4200   -3.6370  -22.8060 C   0  0  0  0  0  0  0  0  0  0  0  0
  -25.5380   -4.0000  -21.8240 N   0  0  0  0  0  0  0  0  0  0  0  0
  -26.2000   -4.6570  -20.8120 C   0  0  0  0  0  0  0  0  0  0  0  0
  -25.7100   -5.1850  -19.6110 C   0  0  0  0  0  0  0  0  0  0  0  0
  -26.6200   -5.8320  -18.7710 C   0  0  0  0  0  0  0  0  0  0  0  0
  -27.9610   -5.9530  -19.1220 C   0  0  0  0  0  0  0  0  0  0  0  0
  -28.4340   -5.4190  -20.3270 C   0  0  0  0  0  0  0  0  0  0  0  0
  -27.5390   -4.7500  -21.1880 C   0  0  0  0  0  0  0  0  0  0  0  0
  -29.2130   -1.4680  -22.4890 C   0  0  0  0  0  0  0  0  0  0  0  0
  -29.2280   -0.8750  -21.3920 O   0  0  0  0  0  0  0  0  0  0  0  0
  -28.7220   -1.1650  -23.6280 O   0  0  0  0  0  0  0  0  0  0  0  0
  -31.8460   -3.2410  -22.7120 H   0  0  0  0  0  0  0  0  0  0  0  0
  -31.1570   -3.1790  -24.2700 H   0  0  0  0  0  0  0  0  0  0  0  0
  -31.5120   -1.7740  -23.3930 H   0  0  0  0  0  0  0  0  0  0  0  0
  -30.0854   -3.2322  -21.5571 H   0  0  0  0  0  0  0  0  0  0  0  0
  -29.4701   -4.8447  -23.3018 H   0  0  0  0  0  0  0  0  0  0  0  0
  -28.6702   -3.4929  -24.2189 H   0  0  0  0  0  0  0  0  0  0  0  0
  -26.1697   -3.0849  -23.7239 H   0  0  0  0  0  0  0  0  0  0  0  0
  -24.5420   -3.8210  -21.8350 H   0  0  0  0  0  0  0  0  0  0  0  0
  -24.6481   -5.0937  -19.3390 H   0  0  0  0  0  0  0  0  0  0  0  0
  -26.2706   -6.2526  -17.8165 H   0  0  0  0  0  0  0  0  0  0  0  0
  -28.6562   -6.4731  -18.4465 H   0  0  0  0  0  0  0  0  0  0  0  0
  -29.4948   -5.5204  -20.5999 H   0  0  0  0  0  0  0  0  0  0  0  0
  1  2  1  0
  2  3  1  0
  3  4  1  0
  4  5  2  0
  5  6  1  0
  6  7  1  0
  7  8  2  0
  8  9  1  0
  9 10  2  0
 10 11  1  0
 11 12  2  0
  2 13  1  0
 13 14  2  0
 13 15  1  0
 12  4  1  0
 12  7  1  0
  1 16  1  0
  1 17  1  0
  1 18  1  0
  2 19  1  1
  3 20  1  0
  3 21  1  0
  5 22  1  0
  6 23  1  0
  8 24  1  0
  9 25  1  0
 10 26  1  0
 11 27  1  0
M  CHG  2   1   1  15  -1
M  END
>  <meeko>  (7) 
{"is_sidechain": [false], "free_energy": -6.785, "intermolecular_energy": -8.184, "internal_energy": -0.193}

$$$$
3f3a_ligand
     RDKit          3D

 27 28  0  0  0  0  0  0  0  0999 V2000
  -28.2510   -1.2380  -21.0190 N   0  0  0  0  0  0  0  0  0  0  0  0
  -28.4360   -1.6500  -22.4770 C   0  0  1  0  0  0  0  0  0  0  0  0
  -27.4220   -2.7160  -22.8780 C   0  0  0  0  0  0  0  0  0  0  0  0
  -27.7490   -4.0640  -22.3030 C   0  0  0  0  0  0  0  0  0  0  0  0
  -27.6410   -4.4340  -20.9770 C   0  0  0  0  0  0  0  0  0  0  0  0
  -28.0540   -5.7330  -20.8560 N   0  0  0  0  0  0  0  0  0  0  0  0
  -28.4550   -6.2170  -22.0800 C   0  0  0  0  0  0  0  0  0  0  0  0
  -28.9650   -7.4750  -22.4270 C   0  0  0  0  0  0  0  0  0  0  0  0
  -29.2690   -7.7010  -23.7720 C   0  0  0  0  0  0  0  0  0  0  0  0
  -29.0620   -6.7140  -24.7300 C   0  0  0  0  0  0  0  0  0  0  0  0
  -28.5510   -5.4620  -24.3670 C   0  0  0  0  0  0  0  0  0  0  0  0
  -28.2470   -5.2030  -23.0140 C   0  0  0  0  0  0  0  0  0  0  0  0
  -29.8880   -2.1580  -22.6670 C   0  0  0  0  0  0  0  0  0  0  0  0
  -30.5960   -2.3070  -21.6510 O   0  0  0  0  0  0  0  0  0  0  0  0
  -30.1180   -2.3240  -23.9130 O   0  0  0  0  0  0  0  0  0  0  0  0
  -28.7960   -1.9900  -20.5290 H   0  0  0  0  0  0  0  0  0  0  0  0
  -28.6220   -0.3160  -20.8030 H   0  0  0  0  0  0  0  0  0  0  0  0
  -27.2840   -1.3500  -20.7100 H   0  0  0  0  0  0  0  0  0  0  0  0
  -28.2633   -0.7820  -23.1303 H   0  0  0  0  0  0  0  0  0  0  0  0
  -27.4073   -2.7943  -23.9751 H   0  0  0  0  0  0  0  0  0  0  0  0
  -26.4420   -2.4118  -22.4818 H   0  0  0  0  0  0  0  0  0  0  0  0
  -27.2837   -3.7934  -20.1573 H   0  0  0  0  0  0  0  0  0  0  0  0
  -28.0610   -6.2690  -19.9980 H   0  0  0  0  0  0  0  0  0  0  0  0
  -29.1204   -8.2562  -21.6683 H   0  0  0  0  0  0  0  0  0  0  0  0
  -29.6785   -8.6750  -24.0781 H   0  0  0  0  0  0  0  0  0  0  0  0
  -29.3022   -6.9192  -25.7837 H   0  0  0  0  0  0  0  0  0  0  0  0
  -28.3880   -4.6869  -25.1303 H   0  0  0  0  0  0  0  0  0  0  0  0
  1  2  1  0
  2  3  1  0
  3  4  1  0
  4  5  2  0
  5  6  1  0
  6  7  1  0
  7  8  2  0
  8  9  1  0
  9 10  2  0
 10 11  1  0
 11 12  2  0
  2 13  1  0
 13 14  2  0
 13 15  1  0
 12  4  1  0
 12  7  1  0
  1 16  1  0
  1 17  1  0
  1 18  1  0
  2 19  1  6
  3 20  1  0
  3 21  1  0
  5 22  1  0
  6 23  1  0
  8 24  1  0
  9 25  1  0
 10 26  1  0
 11 27  1  0
M  CHG  2   1   1  15  -1
M  END
>  <meeko>  (8) 
{"is_sidechain": [false], "free_energy": -6.713, "intermolecular_energy": -8.234, "internal_energy": -0.056}

$$$$
3f3a_ligand
     RDKit          3D

 27 28  0  0  0  0  0  0  0  0999 V2000
  -27.5920   -0.2170  -23.4630 N   0  0  0  0  0  0  0  0  0  0  0  0
  -28.1960   -1.5980  -23.2200 C   0  0  1  0  0  0  0  0  0  0  0  0
  -27.1050   -2.6510  -23.0570 C   0  0  0  0  0  0  0  0  0  0  0  0
  -27.6440   -3.9650  -22.5700 C   0  0  0  0  0  0  0  0  0  0  0  0
  -28.3980   -4.8600  -23.3040 C   0  0  0  0  0  0  0  0  0  0  0  0
  -28.6720   -5.9430  -22.5130 N   0  0  0  0  0  0  0  0  0  0  0  0
  -28.0910   -5.7850  -21.2760 C   0  0  0  0  0  0  0  0  0  0  0  0
  -28.0910   -6.6400  -20.1670 C   0  0  0  0  0  0  0  0  0  0  0  0
  -27.4310   -6.2040  -19.0140 C   0  0  0  0  0  0  0  0  0  0  0  0
  -26.8050   -4.9620  -18.9730 C   0  0  0  0  0  0  0  0  0  0  0  0
  -26.8140   -4.1200  -20.0910 C   0  0  0  0  0  0  0  0  0  0  0  0
  -27.4630   -4.5400  -21.2710 C   0  0  0  0  0  0  0  0  0  0  0  0
  -29.1020   -1.5290  -21.9640 C   0  0  0  0  0  0  0  0  0  0  0  0
  -30.2960   -1.8700  -22.0810 O   0  0  0  0  0  0  0  0  0  0  0  0
  -28.4110   -1.1270  -20.9680 O   0  0  0  0  0  0  0  0  0  0  0  0
  -26.5670   -0.4320  -23.3900 H   0  0  0  0  0  0  0  0  0  0  0  0
  -27.8710    0.4790  -22.7750 H   0  0  0  0  0  0  0  0  0  0  0  0
  -27.7420    0.1030  -24.4220 H   0  0  0  0  0  0  0  0  0  0  0  0
  -28.8003   -1.8947  -24.0899 H   0  0  0  0  0  0  0  0  0  0  0  0
  -26.6179   -2.8083  -24.0307 H   0  0  0  0  0  0  0  0  0  0  0  0
  -26.3930   -2.2816  -22.3043 H   0  0  0  0  0  0  0  0  0  0  0  0
  -28.7228   -4.7253  -24.3463 H   0  0  0  0  0  0  0  0  0  0  0  0
  -29.2260   -6.7440  -22.7880 H   0  0  0  0  0  0  0  0  0  0  0  0
  -28.5919   -7.6187  -20.2016 H   0  0  0  0  0  0  0  0  0  0  0  0
  -27.4063   -6.8526  -18.1259 H   0  0  0  0  0  0  0  0  0  0  0  0
  -26.2977   -4.6385  -18.0522 H   0  0  0  0  0  0  0  0  0  0  0  0
  -26.3189   -3.1386  -20.0499 H   0  0  0  0  0  0  0  0  0  0  0  0
  1  2  1  0
  2  3  1  0
  3  4  1  0
  4  5  2  0
  5  6  1  0
  6  7  1  0
  7  8  2  0
  8  9  1  0
  9 10  2  0
 10 11  1  0
 11 12  2  0
  2 13  1  0
 13 14  2  0
 13 15  1  0
 12  4  1  0
 12  7  1  0
  1 16  1  0
  1 17  1  0
  1 18  1  0
  2 19  1  6
  3 20  1  0
  3 21  1  0
  5 22  1  0
  6 23  1  0
  8 24  1  0
  9 25  1  0
 10 26  1  0
 11 27  1  0
M  CHG  2   1   1  15  -1
M  END
>  <meeko>  (9) 
{"is_sidechain": [false], "free_energy": -6.639, "intermolecular_energy": -7.975, "internal_energy": -0.227}

$$$$
