3o9i_ligand
     RDKit          3D

 81 85  0  0  0  0  0  0  0  0999 V2000
   18.1170   35.3360   17.5840 C   0  0  0  0  0  0  0  0  0  0  0  0
   17.5440   33.9270   17.6790 C   0  0  0  0  0  0  0  0  0  0  0  0
   17.9570   32.9320   16.5700 C   0  0  0  0  0  0  0  0  0  0  0  0
   16.8000   32.5820   15.6060 C   0  0  0  0  0  0  0  0  0  0  0  0
   15.5320   32.0300   16.2370 C   0  0  0  0  0  0  0  0  0  0  0  0
   19.2510   33.3560   15.8430 C   0  0  0  0  0  0  0  0  0  0  0  0
   20.3510   32.4060   16.1100 N   0  0  0  0  0  0  0  0  0  0  0  0
   19.9470   31.0540   16.5960 C   0  0  0  0  0  0  0  0  0  0  0  0
   20.2930   29.8960   15.6420 C   0  0  1  0  0  0  0  0  0  0  0  0
   19.9660   28.6580   16.2810 O   0  0  0  0  0  0  0  0  0  0  0  0
   19.5950   30.0330   14.2530 C   0  0  2  0  0  0  0  0  0  0  0  0
   18.1890   29.3840   14.2320 C   0  0  0  0  0  0  0  0  0  0  0  0
   17.9330   28.4790   13.0510 C   0  0  0  0  0  0  0  0  0  0  0  0
   17.4720   29.0080   11.8370 C   0  0  0  0  0  0  0  0  0  0  0  0
   17.2260   28.1710   10.7480 C   0  0  0  0  0  0  0  0  0  0  0  0
   17.4390   26.7980   10.8600 C   0  0  0  0  0  0  0  0  0  0  0  0
   17.9030   26.2630   12.0600 C   0  0  0  0  0  0  0  0  0  0  0  0
   18.1530   27.0980   13.1480 C   0  0  0  0  0  0  0  0  0  0  0  0
   20.4050   29.4310   13.1930 N   0  0  0  0  0  0  0  0  0  0  0  0
   21.3470   30.1190   12.4950 C   0  0  0  0  0  0  0  0  0  0  0  0
   21.5810   31.3110   12.6220 O   0  0  0  0  0  0  0  0  0  0  0  0
   21.9980   29.2720   11.6670 O   0  0  0  0  0  0  0  0  0  0  0  0
   21.7590   27.8850   11.9110 C   0  0  1  0  0  0  0  0  0  0  0  0
   21.2740   27.1100   10.6930 C   0  0  0  0  0  0  0  0  0  0  0  0
   21.7430   25.7630   10.8410 O   0  0  0  0  0  0  0  0  0  0  0  0
   22.7420   25.7340   11.8660 C   0  0  1  0  0  0  0  0  0  0  0  0
   23.9550   25.1510   11.3900 O   0  0  0  0  0  0  0  0  0  0  0  0
   24.9670   26.1620   11.3570 C   0  0  0  0  0  0  0  0  0  0  0  0
   24.2540   27.4930   11.4020 C   0  0  0  0  0  0  0  0  0  0  0  0
   23.0410   27.1660   12.2520 C   0  0  1  0  0  0  0  0  0  0  0  0
   21.9110   32.9840   16.4110 S   0  0  0  0  0  0  0  0  0  0  0  0
   22.5230   33.3310   15.1450 O   0  0  0  0  0  0  0  0  0  0  0  0
   22.5480   32.0420   17.3110 O   0  0  0  0  0  0  0  0  0  0  0  0
   21.7130   34.5200   17.3020 C   0  0  0  0  0  0  0  0  0  0  0  0
   21.6080   34.5010   18.6950 C   0  0  0  0  0  0  0  0  0  0  0  0
   21.4580   35.6960   19.4080 C   0  0  0  0  0  0  0  0  0  0  0  0
   21.4350   36.9250   18.7200 C   0  0  0  0  0  0  0  0  0  0  0  0
   21.2850   38.1750   19.2980 N   0  0  0  0  0  0  0  0  0  0  0  0
   21.3310   39.0970   18.3650 C   0  0  0  0  0  0  0  0  0  0  0  0
   21.5520   38.5480   16.7590 S   0  0  0  0  0  0  0  0  0  0  0  0
   21.5890   36.9210   17.3300 C   0  0  0  0  0  0  0  0  0  0  0  0
   21.7470   35.7320   16.5990 C   0  0  0  0  0  0  0  0  0  0  0  0
   18.2792   35.7349   18.5962 H   0  0  0  0  0  0  0  0  0  0  0  0
   19.0747   35.3067   17.0436 H   0  0  0  0  0  0  0  0  0  0  0  0
   17.4107   35.9834   17.0436 H   0  0  0  0  0  0  0  0  0  0  0  0
   17.8619   33.5024   18.6427 H   0  0  0  0  0  0  0  0  0  0  0  0
   16.4566   34.0495   17.5665 H   0  0  0  0  0  0  0  0  0  0  0  0
   18.1983   31.9897   17.0837 H   0  0  0  0  0  0  0  0  0  0  0  0
   16.5301   33.4990   15.0617 H   0  0  0  0  0  0  0  0  0  0  0  0
   17.1860   31.7699   14.9723 H   0  0  0  0  0  0  0  0  0  0  0  0
   15.6209   32.0687   17.3327 H   0  0  0  0  0  0  0  0  0  0  0  0
   14.6703   32.6344   15.9174 H   0  0  0  0  0  0  0  0  0  0  0  0
   15.3873   30.9874   15.9174 H   0  0  0  0  0  0  0  0  0  0  0  0
   19.0599   33.3882   14.7602 H   0  0  0  0  0  0  0  0  0  0  0  0
   19.5497   34.3474   16.2143 H   0  0  0  0  0  0  0  0  0  0  0  0
   20.4525   30.8699   17.5554 H   0  0  0  0  0  0  0  0  0  0  0  0
   18.8503   31.0696   16.6798 H   0  0  0  0  0  0  0  0  0  0  0  0
   21.3722   29.9262   15.4310 H   0  0  0  0  0  0  0  0  0  0  0  0
   20.6750   28.0150   16.0980 H   0  0  0  0  0  0  0  0  0  0  0  0
   19.4858   31.1128   14.0739 H   0  0  0  0  0  0  0  0  0  0  0  0
   18.0709   28.7909   15.1509 H   0  0  0  0  0  0  0  0  0  0  0  0
   17.4655   30.2091   14.1556 H   0  0  0  0  0  0  0  0  0  0  0  0
   17.3030   30.0908   11.7424 H   0  0  0  0  0  0  0  0  0  0  0  0
   16.8636   28.5952    9.8000 H   0  0  0  0  0  0  0  0  0  0  0  0
   17.2411   26.1380   10.0025 H   0  0  0  0  0  0  0  0  0  0  0  0
   18.0724   25.1798   12.1490 H   0  0  0  0  0  0  0  0  0  0  0  0
   18.5259   26.6697   14.0901 H   0  0  0  0  0  0  0  0  0  0  0  0
   20.4030   28.4270   13.0530 H   0  0  0  0  0  0  0  0  0  0  0  0
   21.0065   27.9005   12.7132 H   0  0  0  0  0  0  0  0  0  0  0  0
   20.1750   27.1249   10.6484 H   0  0  0  0  0  0  0  0  0  0  0  0
   21.6549   27.5591    9.7639 H   0  0  0  0  0  0  0  0  0  0  0  0
   22.3694   25.1388   12.7127 H   0  0  0  0  0  0  0  0  0  0  0  0
   25.6334   26.0596   12.2261 H   0  0  0  0  0  0  0  0  0  0  0  0
   25.5837   26.0745   10.4504 H   0  0  0  0  0  0  0  0  0  0  0  0
   24.8779   28.2659   11.8747 H   0  0  0  0  0  0  0  0  0  0  0  0
   24.0068   27.8999   10.4104 H   0  0  0  0  0  0  0  0  0  0  0  0
   23.2885   27.4203   13.2932 H   0  0  0  0  0  0  0  0  0  0  0  0
   21.6434   33.5426   19.2338 H   0  0  0  0  0  0  0  0  0  0  0  0
   21.3583   35.6755   20.5033 H   0  0  0  0  0  0  0  0  0  0  0  0
   21.2327   40.1665   18.6028 H   0  0  0  0  0  0  0  0  0  0  0  0
   21.8929   35.7515   15.5089 H   0  0  0  0  0  0  0  0  0  0  0  0
  1  2  1  0
  2  3  1  0
  3  4  1  0
  4  5  1  0
  3  6  1  0
  6  7  1  0
  7  8  1  0
  8  9  1  0
  9 10  1  0
  9 11  1  0
 11 12  1  0
 12 13  1  0
 13 14  2  0
 14 15  1  0
 15 16  2  0
 16 17  1  0
 17 18  2  0
 11 19  1  0
 19 20  1  0
 20 21  2  0
 20 22  1  0
 22 23  1  0
 23 24  1  0
 24 25  1  0
 25 26  1  0
 26 27  1  0
 27 28  1  0
 28 29  1  0
 29 30  1  0
  7 31  1  0
 31 32  2  0
 31 33  2  0
 31 34  1  0
 34 35  2  0
 35 36  1  0
 36 37  2  0
 37 38  1  0
 38 39  2  0
 39 40  1  0
 40 41  1  0
 41 42  2  0
 18 13  1  0
 30 23  1  0
 42 34  1  0
 30 26  1  0
 41 37  1  0
  1 43  1  0
  1 44  1  0
  1 45  1  0
  2 46  1  0
  2 47  1  0
  3 48  1  0
  4 49  1  0
  4 50  1  0
  5 51  1  0
  5 52  1  0
  5 53  1  0
  6 54  1  0
  6 55  1  0
  8 56  1  0
  8 57  1  0
  9 58  1  6
 10 59  1  0
 11 60  1  6
 12 61  1  0
 12 62  1  0
 14 63  1  0
 15 64  1  0
 16 65  1  0
 17 66  1  0
 18 67  1  0
 19 68  1  0
 23 69  1  1
 24 70  1  0
 24 71  1  0
 26 72  1  1
 28 73  1  0
 28 74  1  0
 29 75  1  0
 29 76  1  0
 30 77  1  1
 35 78  1  0
 36 79  1  0
 39 80  1  0
 42 81  1  0
M  END
>  <meeko>  (1) 
{"is_sidechain": [false], "free_energy": -9.459, "intermolecular_energy": -17.477, "internal_energy": -2.777}

$$$$
3o9i_ligand
     RDKit          3D

 81 85  0  0  0  0  0  0  0  0999 V2000
   24.6380   26.6010   12.0700 C   0  0  0  0  0  0  0  0  0  0  0  0
   23.6900   27.7940   12.1010 C   0  0  0  0  0  0  0  0  0  0  0  0
   22.1760   27.4800   12.0750 C   0  0  0  0  0  0  0  0  0  0  0  0
   21.8710   25.9710   11.9310 C   0  0  0  0  0  0  0  0  0  0  0  0
   21.5190   25.4780   10.5370 C   0  0  0  0  0  0  0  0  0  0  0  0
   21.4110   28.1500   13.2370 C   0  0  0  0  0  0  0  0  0  0  0  0
   20.3130   29.0010   12.7340 N   0  0  0  0  0  0  0  0  0  0  0  0
   20.6420   30.4420   12.5250 C   0  0  0  0  0  0  0  0  0  0  0  0
   21.2650   31.1440   13.7470 C   0  0  1  0  0  0  0  0  0  0  0  0
   22.2570   32.0690   13.2910 O   0  0  0  0  0  0  0  0  0  0  0  0
   20.1990   31.8370   14.6500 C   0  0  2  0  0  0  0  0  0  0  0  0
   18.9510   32.2870   13.8510 C   0  0  0  0  0  0  0  0  0  0  0  0
   17.7310   32.5640   14.6980 C   0  0  0  0  0  0  0  0  0  0  0  0
   17.1260   31.5330   15.4310 C   0  0  0  0  0  0  0  0  0  0  0  0
   15.9930   31.7860   16.2050 C   0  0  0  0  0  0  0  0  0  0  0  0
   15.4530   33.0700   16.2550 C   0  0  0  0  0  0  0  0  0  0  0  0
   16.0500   34.1030   15.5350 C   0  0  0  0  0  0  0  0  0  0  0  0
   17.1850   33.8530   14.7630 C   0  0  0  0  0  0  0  0  0  0  0  0
   20.7620   33.0020   15.3350 N   0  0  0  0  0  0  0  0  0  0  0  0
   21.4440   32.9160   16.5080 C   0  0  0  0  0  0  0  0  0  0  0  0
   21.6110   31.8890   17.1480 O   0  0  0  0  0  0  0  0  0  0  0  0
   21.9310   34.1340   16.8320 O   0  0  0  0  0  0  0  0  0  0  0  0
   20.9510   35.1670   16.9450 C   0  0  1  0  0  0  0  0  0  0  0  0
   19.8940   34.9130   18.0120 C   0  0  0  0  0  0  0  0  0  0  0  0
   19.4730   36.1950   18.4960 O   0  0  0  0  0  0  0  0  0  0  0  0
   20.4110   37.1830   18.0570 C   0  0  1  0  0  0  0  0  0  0  0  0
   20.9220   37.9370   19.1560 O   0  0  0  0  0  0  0  0  0  0  0  0
   22.3130   37.6430   19.3080 C   0  0  0  0  0  0  0  0  0  0  0  0
   22.5690   36.3540   18.5610 C   0  0  0  0  0  0  0  0  0  0  0  0
   21.5750   36.4570   17.4190 C   0  0  1  0  0  0  0  0  0  0  0  0
   18.7060   28.5220   12.9520 S   0  0  0  0  0  0  0  0  0  0  0  0
   17.8450   29.6310   12.6020 O   0  0  0  0  0  0  0  0  0  0  0  0
   18.6210   27.8990   14.2590 O   0  0  0  0  0  0  0  0  0  0  0  0
   18.3940   27.2500   11.7360 C   0  0  0  0  0  0  0  0  0  0  0  0
   18.0190   25.9710   12.1560 C   0  0  0  0  0  0  0  0  0  0  0  0
   17.7650   24.9660   11.2160 C   0  0  0  0  0  0  0  0  0  0  0  0
   17.8670   25.2510    9.8400 C   0  0  0  0  0  0  0  0  0  0  0  0
   17.6530   24.3520    8.8080 N   0  0  0  0  0  0  0  0  0  0  0  0
   17.8120   24.9620    7.6570 C   0  0  0  0  0  0  0  0  0  0  0  0
   18.2230   26.6220    7.7220 S   0  0  0  0  0  0  0  0  0  0  0  0
   18.1980   26.5510    9.4450 C   0  0  0  0  0  0  0  0  0  0  0  0
   18.4500   27.5730   10.3740 C   0  0  0  0  0  0  0  0  0  0  0  0
   24.8792   26.2975   13.0994 H   0  0  0  0  0  0  0  0  0  0  0  0
   24.1563   25.7635   11.5441 H   0  0  0  0  0  0  0  0  0  0  0  0
   25.5627   26.8810   11.5441 H   0  0  0  0  0  0  0  0  0  0  0  0
   23.8970   28.3602   13.0211 H   0  0  0  0  0  0  0  0  0  0  0  0
   23.8869   28.3435   11.1686 H   0  0  0  0  0  0  0  0  0  0  0  0
   21.7866   27.9410   11.1553 H   0  0  0  0  0  0  0  0  0  0  0  0
   22.7604   25.4173   12.2662 H   0  0  0  0  0  0  0  0  0  0  0  0
   20.9688   25.7983   12.5362 H   0  0  0  0  0  0  0  0  0  0  0  0
   20.8814   24.5850   10.6140 H   0  0  0  0  0  0  0  0  0  0  0  0
   20.9795   26.2680    9.9940 H   0  0  0  0  0  0  0  0  0  0  0  0
   22.4414   25.2242    9.9940 H   0  0  0  0  0  0  0  0  0  0  0  0
   20.9903   27.3688   13.8872 H   0  0  0  0  0  0  0  0  0  0  0  0
   22.1142   28.7839   13.7970 H   0  0  0  0  0  0  0  0  0  0  0  0
   21.3536   30.5133   11.6892 H   0  0  0  0  0  0  0  0  0  0  0  0
   19.6883   30.9527   12.3261 H   0  0  0  0  0  0  0  0  0  0  0  0
   21.7378   30.3830   14.3852 H   0  0  0  0  0  0  0  0  0  0  0  0
   22.7780   32.3730   14.0570 H   0  0  0  0  0  0  0  0  0  0  0  0
   19.8904   31.0817   15.3878 H   0  0  0  0  0  0  0  0  0  0  0  0
   19.2061   33.2071   13.3048 H   0  0  0  0  0  0  0  0  0  0  0  0
   18.6871   31.4513   13.1863 H   0  0  0  0  0  0  0  0  0  0  0  0
   17.5476   30.5176   15.3956 H   0  0  0  0  0  0  0  0  0  0  0  0
   15.5252   30.9709   16.7766 H   0  0  0  0  0  0  0  0  0  0  0  0
   14.5570   33.2676   16.8618 H   0  0  0  0  0  0  0  0  0  0  0  0
   15.6258   35.1171   15.5754 H   0  0  0  0  0  0  0  0  0  0  0  0
   17.6547   34.6738   14.2012 H   0  0  0  0  0  0  0  0  0  0  0  0
   20.8020   33.9010   14.8700 H   0  0  0  0  0  0  0  0  0  0  0  0
   20.5137   35.2050   15.9364 H   0  0  0  0  0  0  0  0  0  0  0  0
   19.0395   34.3739   17.5770 H   0  0  0  0  0  0  0  0  0  0  0  0
   20.2996   34.2980   18.8289 H   0  0  0  0  0  0  0  0  0  0  0  0
   19.9076   37.8676   17.3585 H   0  0  0  0  0  0  0  0  0  0  0  0
   22.9208   38.4550   18.8822 H   0  0  0  0  0  0  0  0  0  0  0  0
   22.5829   37.5451   20.3699 H   0  0  0  0  0  0  0  0  0  0  0  0
   23.6031   36.3047   18.1892 H   0  0  0  0  0  0  0  0  0  0  0  0
   22.4496   35.4502   19.1765 H   0  0  0  0  0  0  0  0  0  0  0  0
   22.1018   36.8989   16.5604 H   0  0  0  0  0  0  0  0  0  0  0  0
   17.9231   25.7534   13.2300 H   0  0  0  0  0  0  0  0  0  0  0  0
   17.4864   23.9559   11.5506 H   0  0  0  0  0  0  0  0  0  0  0  0
   17.6876   24.4338    6.7002 H   0  0  0  0  0  0  0  0  0  0  0  0
   18.6841   28.5955   10.0428 H   0  0  0  0  0  0  0  0  0  0  0  0
  1  2  1  0
  2  3  1  0
  3  4  1  0
  4  5  1  0
  3  6  1  0
  6  7  1  0
  7  8  1  0
  8  9  1  0
  9 10  1  0
  9 11  1  0
 11 12  1  0
 12 13  1  0
 13 14  2  0
 14 15  1  0
 15 16  2  0
 16 17  1  0
 17 18  2  0
 11 19  1  0
 19 20  1  0
 20 21  2  0
 20 22  1  0
 22 23  1  0
 23 24  1  0
 24 25  1  0
 25 26  1  0
 26 27  1  0
 27 28  1  0
 28 29  1  0
 29 30  1  0
  7 31  1  0
 31 32  2  0
 31 33  2  0
 31 34  1  0
 34 35  2  0
 35 36  1  0
 36 37  2  0
 37 38  1  0
 38 39  2  0
 39 40  1  0
 40 41  1  0
 41 42  2  0
 18 13  1  0
 30 23  1  0
 42 34  1  0
 30 26  1  0
 41 37  1  0
  1 43  1  0
  1 44  1  0
  1 45  1  0
  2 46  1  0
  2 47  1  0
  3 48  1  0
  4 49  1  0
  4 50  1  0
  5 51  1  0
  5 52  1  0
  5 53  1  0
  6 54  1  0
  6 55  1  0
  8 56  1  0
  8 57  1  0
  9 58  1  1
 10 59  1  0
 11 60  1  1
 12 61  1  0
 12 62  1  0
 14 63  1  0
 15 64  1  0
 16 65  1  0
 17 66  1  0
 18 67  1  0
 19 68  1  0
 23 69  1  6
 24 70  1  0
 24 71  1  0
 26 72  1  6
 28 73  1  0
 28 74  1  0
 29 75  1  0
 29 76  1  0
 30 77  1  6
 35 78  1  0
 36 79  1  0
 39 80  1  0
 42 81  1  0
M  END
>  <meeko>  (2) 
{"is_sidechain": [false], "free_energy": -9.357, "intermolecular_energy": -17.483, "internal_energy": -2.584}

$$$$
3o9i_ligand
     RDKit          3D

 81 85  0  0  0  0  0  0  0  0999 V2000
   22.8750   31.9050   15.1340 C   0  0  0  0  0  0  0  0  0  0  0  0
   22.6190   32.3680   16.5630 C   0  0  0  0  0  0  0  0  0  0  0  0
   21.2000   32.8960   16.8790 C   0  0  0  0  0  0  0  0  0  0  0  0
   21.2050   34.3000   17.5270 C   0  0  0  0  0  0  0  0  0  0  0  0
   21.8290   35.4220   16.7130 C   0  0  0  0  0  0  0  0  0  0  0  0
   20.2420   32.7820   15.6730 C   0  0  0  0  0  0  0  0  0  0  0  0
   18.9770   32.1210   16.0560 N   0  0  0  0  0  0  0  0  0  0  0  0
   19.0980   30.7370   16.6010 C   0  0  0  0  0  0  0  0  0  0  0  0
   19.8970   29.7640   15.7140 C   0  0  1  0  0  0  0  0  0  0  0  0
   19.9620   28.4920   16.3670 O   0  0  0  0  0  0  0  0  0  0  0  0
   19.3130   29.6450   14.2730 C   0  0  2  0  0  0  0  0  0  0  0  0
   18.0540   28.7450   14.2180 C   0  0  0  0  0  0  0  0  0  0  0  0
   17.8020   28.0990   12.8760 C   0  0  0  0  0  0  0  0  0  0  0  0
   17.3080   28.8550   11.8050 C   0  0  0  0  0  0  0  0  0  0  0  0
   17.0650   28.2570   10.5680 C   0  0  0  0  0  0  0  0  0  0  0  0
   17.3160   26.8980   10.3880 C   0  0  0  0  0  0  0  0  0  0  0  0
   17.8130   26.1380   11.4450 C   0  0  0  0  0  0  0  0  0  0  0  0
   18.0590   26.7350   12.6810 C   0  0  0  0  0  0  0  0  0  0  0  0
   20.3080   29.1160   13.3390 N   0  0  0  0  0  0  0  0  0  0  0  0
   20.9810   29.8940   12.4500 C   0  0  0  0  0  0  0  0  0  0  0  0
   20.7940   31.0890   12.2830 O   0  0  0  0  0  0  0  0  0  0  0  0
   21.9040   29.1430   11.8090 O   0  0  0  0  0  0  0  0  0  0  0  0
   21.7560   27.7310   11.9730 C   0  0  1  0  0  0  0  0  0  0  0  0
   21.3670   26.9920   10.7000 C   0  0  0  0  0  0  0  0  0  0  0  0
   21.9240   25.6740   10.7940 O   0  0  0  0  0  0  0  0  0  0  0  0
   22.8890   25.6590   11.8530 C   0  0  1  0  0  0  0  0  0  0  0  0
   24.1550   25.1880   11.3920 O   0  0  0  0  0  0  0  0  0  0  0  0
   25.0940   26.2650   11.4470 C   0  0  0  0  0  0  0  0  0  0  0  0
   24.2870   27.5410   11.5340 C   0  0  0  0  0  0  0  0  0  0  0  0
   23.0740   27.0850   12.3230 C   0  0  1  0  0  0  0  0  0  0  0  0
   17.5160   32.6430   15.3830 S   0  0  0  0  0  0  0  0  0  0  0  0
   16.5590   31.5610   15.4700 O   0  0  0  0  0  0  0  0  0  0  0  0
   17.8300   33.2570   14.1070 O   0  0  0  0  0  0  0  0  0  0  0  0
   16.9030   33.9340   16.4570 C   0  0  0  0  0  0  0  0  0  0  0  0
   15.7060   33.7430   17.1510 C   0  0  0  0  0  0  0  0  0  0  0  0
   15.2150   34.7420   17.9990 C   0  0  0  0  0  0  0  0  0  0  0  0
   15.9430   35.9350   18.1720 C   0  0  0  0  0  0  0  0  0  0  0  0
   15.5700   37.0040   18.9700 N   0  0  0  0  0  0  0  0  0  0  0  0
   16.4920   37.9370   18.9110 C   0  0  0  0  0  0  0  0  0  0  0  0
   17.8450   37.6120   17.9140 S   0  0  0  0  0  0  0  0  0  0  0  0
   17.1610   36.0830   17.5020 C   0  0  0  0  0  0  0  0  0  0  0  0
   17.6720   35.0880   16.6520 C   0  0  0  0  0  0  0  0  0  0  0  0
   23.4072   30.9425   15.1502 H   0  0  0  0  0  0  0  0  0  0  0  0
   21.9153   31.7846   14.6101 H   0  0  0  0  0  0  0  0  0  0  0  0
   23.4873   32.6537   14.6101 H   0  0  0  0  0  0  0  0  0  0  0  0
   22.8131   31.5148   17.2295 H   0  0  0  0  0  0  0  0  0  0  0  0
   23.2873   33.2290   16.7118 H   0  0  0  0  0  0  0  0  0  0  0  0
   20.7913   32.2255   17.6493 H   0  0  0  0  0  0  0  0  0  0  0  0
   20.1603   34.5770   17.7316 H   0  0  0  0  0  0  0  0  0  0  0  0
   21.8370   34.2045   18.4223 H   0  0  0  0  0  0  0  0  0  0  0  0
   22.2494   36.1780   17.3925 H   0  0  0  0  0  0  0  0  0  0  0  0
   22.6295   35.0134   16.0787 H   0  0  0  0  0  0  0  0  0  0  0  0
   21.0596   35.8865   16.0787 H   0  0  0  0  0  0  0  0  0  0  0  0
   20.0196   33.7907   15.2948 H   0  0  0  0  0  0  0  0  0  0  0  0
   20.7306   32.1756   14.8961 H   0  0  0  0  0  0  0  0  0  0  0  0
   19.5964   30.7965   17.5798 H   0  0  0  0  0  0  0  0  0  0  0  0
   18.0755   30.3356   16.6599 H   0  0  0  0  0  0  0  0  0  0  0  0
   20.9136   30.1636   15.5844 H   0  0  0  0  0  0  0  0  0  0  0  0
   19.1300   28.3480   16.8560 H   0  0  0  0  0  0  0  0  0  0  0  0
   19.0286   30.6658   13.9779 H   0  0  0  0  0  0  0  0  0  0  0  0
   18.1693   27.9474   14.9667 H   0  0  0  0  0  0  0  0  0  0  0  0
   17.1929   29.4004   14.4155 H   0  0  0  0  0  0  0  0  0  0  0  0
   17.1101   29.9286   11.9403 H   0  0  0  0  0  0  0  0  0  0  0  0
   16.6749   28.8588    9.7340 H   0  0  0  0  0  0  0  0  0  0  0  0
   17.1222   26.4262    9.4134 H   0  0  0  0  0  0  0  0  0  0  0  0
   18.0116   25.0653   11.3042 H   0  0  0  0  0  0  0  0  0  0  0  0
   18.4578   26.1309   13.5092 H   0  0  0  0  0  0  0  0  0  0  0  0
   20.6500   28.1670   13.4380 H   0  0  0  0  0  0  0  0  0  0  0  0
   20.9789   27.6508   12.7474 H   0  0  0  0  0  0  0  0  0  0  0  0
   20.2717   26.9342   10.6163 H   0  0  0  0  0  0  0  0  0  0  0  0
   21.7461   27.5160    9.8102 H   0  0  0  0  0  0  0  0  0  0  0  0
   22.5312   24.9950   12.6537 H   0  0  0  0  0  0  0  0  0  0  0  0
   25.7374   26.1622   12.3333 H   0  0  0  0  0  0  0  0  0  0  0  0
   25.7449   26.2681   10.5603 H   0  0  0  0  0  0  0  0  0  0  0  0
   24.8391   28.3290   12.0672 H   0  0  0  0  0  0  0  0  0  0  0  0
   24.0434   27.9827   10.5564 H   0  0  0  0  0  0  0  0  0  0  0  0
   23.2699   27.2986   13.3841 H   0  0  0  0  0  0  0  0  0  0  0  0
   15.1469   32.8034   17.0305 H   0  0  0  0  0  0  0  0  0  0  0  0
   14.2624   34.5957   18.5293 H   0  0  0  0  0  0  0  0  0  0  0  0
   16.3998   38.8782   19.4728 H   0  0  0  0  0  0  0  0  0  0  0  0
   18.6456   35.2115   16.1552 H   0  0  0  0  0  0  0  0  0  0  0  0
  1  2  1  0
  2  3  1  0
  3  4  1  0
  4  5  1  0
  3  6  1  0
  6  7  1  0
  7  8  1  0
  8  9  1  0
  9 10  1  0
  9 11  1  0
 11 12  1  0
 12 13  1  0
 13 14  2  0
 14 15  1  0
 15 16  2  0
 16 17  1  0
 17 18  2  0
 11 19  1  0
 19 20  1  0
 20 21  2  0
 20 22  1  0
 22 23  1  0
 23 24  1  0
 24 25  1  0
 25 26  1  0
 26 27  1  0
 27 28  1  0
 28 29  1  0
 29 30  1  0
  7 31  1  0
 31 32  2  0
 31 33  2  0
 31 34  1  0
 34 35  2  0
 35 36  1  0
 36 37  2  0
 37 38  1  0
 38 39  2  0
 39 40  1  0
 40 41  1  0
 41 42  2  0
 18 13  1  0
 30 23  1  0
 42 34  1  0
 30 26  1  0
 41 37  1  0
  1 43  1  0
  1 44  1  0
  1 45  1  0
  2 46  1  0
  2 47  1  0
  3 48  1  0
  4 49  1  0
  4 50  1  0
  5 51  1  0
  5 52  1  0
  5 53  1  0
  6 54  1  0
  6 55  1  0
  8 56  1  0
  8 57  1  0
  9 58  1  6
 10 59  1  0
 11 60  1  6
 12 61  1  0
 12 62  1  0
 14 63  1  0
 15 64  1  0
 16 65  1  0
 17 66  1  0
 18 67  1  0
 19 68  1  0
 23 69  1  1
 24 70  1  0
 24 71  1  0
 26 72  1  1
 28 73  1  0
 28 74  1  0
 29 75  1  0
 29 76  1  0
 30 77  1  1
 35 78  1  0
 36 79  1  0
 39 80  1  0
 42 81  1  0
M  END
>  <meeko>  (3) 
{"is_sidechain": [false], "free_energy": -9.349, "intermolecular_energy": -17.569, "internal_energy": -2.482}

$$$$
3o9i_ligand
     RDKit          3D

 81 85  0  0  0  0  0  0  0  0999 V2000
   21.9830   34.8550   18.8340 C   0  0  0  0  0  0  0  0  0  0  0  0
   21.7920   34.5590   17.3510 C   0  0  0  0  0  0  0  0  0  0  0  0
   20.4130   34.0030   16.9240 C   0  0  0  0  0  0  0  0  0  0  0  0
   19.2400   34.9450   17.2820 C   0  0  0  0  0  0  0  0  0  0  0  0
   18.3920   34.5500   18.4800 C   0  0  0  0  0  0  0  0  0  0  0  0
   20.3920   33.5310   15.4540 C   0  0  0  0  0  0  0  0  0  0  0  0
   20.9190   32.1560   15.3250 N   0  0  0  0  0  0  0  0  0  0  0  0
   20.3430   31.1430   16.2570 C   0  0  0  0  0  0  0  0  0  0  0  0
   19.8170   29.8660   15.5750 C   0  0  1  0  0  0  0  0  0  0  0  0
   19.8170   28.8000   16.5300 O   0  0  0  0  0  0  0  0  0  0  0  0
   18.4110   30.0650   14.9300 C   0  0  2  0  0  0  0  0  0  0  0  0
   17.3460   30.5130   15.9610 C   0  0  0  0  0  0  0  0  0  0  0  0
   16.8400   31.9230   15.7670 C   0  0  0  0  0  0  0  0  0  0  0  0
   17.3310   32.7170   14.7210 C   0  0  0  0  0  0  0  0  0  0  0  0
   16.8720   34.0230   14.5480 C   0  0  0  0  0  0  0  0  0  0  0  0
   15.9180   34.5490   15.4170 C   0  0  0  0  0  0  0  0  0  0  0  0
   15.4200   33.7670   16.4570 C   0  0  0  0  0  0  0  0  0  0  0  0
   15.8750   32.4600   16.6290 C   0  0  0  0  0  0  0  0  0  0  0  0
   17.9480   28.8370   14.2810 N   0  0  0  0  0  0  0  0  0  0  0  0
   17.6820   28.7540   12.9500 C   0  0  0  0  0  0  0  0  0  0  0  0
   17.7350   29.6890   12.1660 O   0  0  0  0  0  0  0  0  0  0  0  0
   17.3840   27.4750   12.6330 O   0  0  0  0  0  0  0  0  0  0  0  0
   18.4590   26.7260   12.0640 C   0  0  1  0  0  0  0  0  0  0  0  0
   18.4460   25.2450   12.4200 C   0  0  0  0  0  0  0  0  0  0  0  0
   19.0440   24.5460   11.3200 O   0  0  0  0  0  0  0  0  0  0  0  0
   19.1140   25.4310   10.1960 C   0  0  1  0  0  0  0  0  0  0  0  0
   18.4850   24.8620    9.0490 O   0  0  0  0  0  0  0  0  0  0  0  0
   17.3190   25.6290    8.7370 C   0  0  0  0  0  0  0  0  0  0  0  0
   16.9820   26.4300    9.9740 C   0  0  0  0  0  0  0  0  0  0  0  0
   18.3570   26.6900   10.5580 C   0  0  1  0  0  0  0  0  0  0  0  0
   22.4330   31.8960   14.6200 S   0  0  0  0  0  0  0  0  0  0  0  0
   23.3410   31.4230   15.6440 O   0  0  0  0  0  0  0  0  0  0  0  0
   22.7470   33.0760   13.8370 O   0  0  0  0  0  0  0  0  0  0  0  0
   22.2270   30.5390   13.4760 C   0  0  0  0  0  0  0  0  0  0  0  0
   21.2030   30.5860   12.5270 C   0  0  0  0  0  0  0  0  0  0  0  0
   21.0320   29.5340   11.6210 C   0  0  0  0  0  0  0  0  0  0  0  0
   21.9100   28.4320   11.6510 C   0  0  0  0  0  0  0  0  0  0  0  0
   21.8490   27.3240   10.8220 N   0  0  0  0  0  0  0  0  0  0  0  0
   22.8330   26.5050   11.1140 C   0  0  0  0  0  0  0  0  0  0  0  0
   23.8810   26.9890   12.3770 S   0  0  0  0  0  0  0  0  0  0  0  0
   22.9540   28.4310   12.5810 C   0  0  0  0  0  0  0  0  0  0  0  0
   23.1450   29.4810   13.4930 C   0  0  0  0  0  0  0  0  0  0  0  0
   21.4819   34.0784   19.4304 H   0  0  0  0  0  0  0  0  0  0  0  0
   23.0572   34.8632   19.0709 H   0  0  0  0  0  0  0  0  0  0  0  0
   21.5478   35.8371   19.0709 H   0  0  0  0  0  0  0  0  0  0  0  0
   21.9581   35.4965   16.8002 H   0  0  0  0  0  0  0  0  0  0  0  0
   22.5096   33.7574   17.1221 H   0  0  0  0  0  0  0  0  0  0  0  0
   20.2504   33.0994   17.5299 H   0  0  0  0  0  0  0  0  0  0  0  0
   19.6614   35.9406   17.4850 H   0  0  0  0  0  0  0  0  0  0  0  0
   18.5599   34.9029   16.4184 H   0  0  0  0  0  0  0  0  0  0  0  0
   18.9284   34.7999   19.4073 H   0  0  0  0  0  0  0  0  0  0  0  0
   17.4377   35.0963   18.4499 H   0  0  0  0  0  0  0  0  0  0  0  0
   18.1962   33.4680   18.4499 H   0  0  0  0  0  0  0  0  0  0  0  0
   19.3561   33.5540   15.0848 H   0  0  0  0  0  0  0  0  0  0  0  0
   21.0301   34.2048   14.8633 H   0  0  0  0  0  0  0  0  0  0  0  0
   21.1260   30.8515   16.9726 H   0  0  0  0  0  0  0  0  0  0  0  0
   19.4748   31.6196   16.7356 H   0  0  0  0  0  0  0  0  0  0  0  0
   20.4877   29.6123   14.7409 H   0  0  0  0  0  0  0  0  0  0  0  0
   18.9930   28.2890   16.4290 H   0  0  0  0  0  0  0  0  0  0  0  0
   18.5316   30.8619   14.1814 H   0  0  0  0  0  0  0  0  0  0  0  0
   16.4887   29.8275   15.8892 H   0  0  0  0  0  0  0  0  0  0  0  0
   17.8349   30.4890   16.9461 H   0  0  0  0  0  0  0  0  0  0  0  0
   18.0838   32.3071   14.0316 H   0  0  0  0  0  0  0  0  0  0  0  0
   17.2636   34.6383   13.7246 H   0  0  0  0  0  0  0  0  0  0  0  0
   15.5587   35.5799   15.2821 H   0  0  0  0  0  0  0  0  0  0  0  0
   14.6668   34.1811   17.1435 H   0  0  0  0  0  0  0  0  0  0  0  0
   15.4729   31.8457   17.4482 H   0  0  0  0  0  0  0  0  0  0  0  0
   17.9660   27.9550   14.7790 H   0  0  0  0  0  0  0  0  0  0  0  0
   19.3517   27.2342   12.4576 H   0  0  0  0  0  0  0  0  0  0  0  0
   19.0262   25.0718   13.3384 H   0  0  0  0  0  0  0  0  0  0  0  0
   17.4195   24.8924   12.5987 H   0  0  0  0  0  0  0  0  0  0  0  0
   20.1705   25.6280    9.9613 H   0  0  0  0  0  0  0  0  0  0  0  0
   17.5238   26.3036    7.8927 H   0  0  0  0  0  0  0  0  0  0  0  0
   16.4819   24.9765    8.4479 H   0  0  0  0  0  0  0  0  0  0  0  0
   16.4719   27.3699    9.7161 H   0  0  0  0  0  0  0  0  0  0  0  0
   16.2944   25.9179   10.6632 H   0  0  0  0  0  0  0  0  0  0  0  0
   18.6954   27.6682   10.1856 H   0  0  0  0  0  0  0  0  0  0  0  0
   20.5282   31.4540   12.4920 H   0  0  0  0  0  0  0  0  0  0  0  0
   20.2138   29.5668   10.8865 H   0  0  0  0  0  0  0  0  0  0  0  0
   22.9761   25.5570   10.5747 H   0  0  0  0  0  0  0  0  0  0  0  0
   23.9888   29.4732   14.1986 H   0  0  0  0  0  0  0  0  0  0  0  0
  1  2  1  0
  2  3  1  0
  3  4  1  0
  4  5  1  0
  3  6  1  0
  6  7  1  0
  7  8  1  0
  8  9  1  0
  9 10  1  0
  9 11  1  0
 11 12  1  0
 12 13  1  0
 13 14  2  0
 14 15  1  0
 15 16  2  0
 16 17  1  0
 17 18  2  0
 11 19  1  0
 19 20  1  0
 20 21  2  0
 20 22  1  0
 22 23  1  0
 23 24  1  0
 24 25  1  0
 25 26  1  0
 26 27  1  0
 27 28  1  0
 28 29  1  0
 29 30  1  0
  7 31  1  0
 31 32  2  0
 31 33  2  0
 31 34  1  0
 34 35  2  0
 35 36  1  0
 36 37  2  0
 37 38  1  0
 38 39  2  0
 39 40  1  0
 40 41  1  0
 41 42  2  0
 18 13  1  0
 30 23  1  0
 42 34  1  0
 30 26  1  0
 41 37  1  0
  1 43  1  0
  1 44  1  0
  1 45  1  0
  2 46  1  0
  2 47  1  0
  3 48  1  0
  4 49  1  0
  4 50  1  0
  5 51  1  0
  5 52  1  0
  5 53  1  0
  6 54  1  0
  6 55  1  0
  8 56  1  0
  8 57  1  0
  9 58  1  6
 10 59  1  0
 11 60  1  6
 12 61  1  0
 12 62  1  0
 14 63  1  0
 15 64  1  0
 16 65  1  0
 17 66  1  0
 18 67  1  0
 19 68  1  0
 23 69  1  6
 24 70  1  0
 24 71  1  0
 26 72  1  6
 28 73  1  0
 28 74  1  0
 29 75  1  0
 29 76  1  0
 30 77  1  6
 35 78  1  0
 36 79  1  0
 39 80  1  0
 42 81  1  0
M  END
>  <meeko>  (4) 
{"is_sidechain": [false], "free_energy": -9.222, "intermolecular_energy": -16.448, "internal_energy": -3.368}

$$$$
3o9i_ligand
     RDKit          3D

 81 85  0  0  0  0  0  0  0  0999 V2000
   24.7750   26.6110   11.8690 C   0  0  0  0  0  0  0  0  0  0  0  0
   23.7720   27.7160   12.1780 C   0  0  0  0  0  0  0  0  0  0  0  0
   22.3070   27.4660   11.7500 C   0  0  0  0  0  0  0  0  0  0  0  0
   22.1560   26.2920   10.7560 C   0  0  0  0  0  0  0  0  0  0  0  0
   21.5060   25.0270   11.2910 C   0  0  0  0  0  0  0  0  0  0  0  0
   21.3440   27.3750   12.9540 C   0  0  0  0  0  0  0  0  0  0  0  0
   20.6670   28.6660   13.1960 N   0  0  0  0  0  0  0  0  0  0  0  0
   21.3360   29.5870   14.1610 C   0  0  0  0  0  0  0  0  0  0  0  0
   21.8210   30.9160   13.5510 C   0  0  1  0  0  0  0  0  0  0  0  0
   21.3330   31.0130   12.2090 O   0  0  0  0  0  0  0  0  0  0  0  0
   21.4110   32.1550   14.4070 C   0  0  2  0  0  0  0  0  0  0  0  0
   22.5070   32.5570   15.4250 C   0  0  0  0  0  0  0  0  0  0  0  0
   22.1090   33.6700   16.3660 C   0  0  0  0  0  0  0  0  0  0  0  0
   22.2330   33.5070   17.7530 C   0  0  0  0  0  0  0  0  0  0  0  0
   21.8560   34.5300   18.6230 C   0  0  0  0  0  0  0  0  0  0  0  0
   21.3520   35.7270   18.1170 C   0  0  0  0  0  0  0  0  0  0  0  0
   21.2290   35.9020   16.7400 C   0  0  0  0  0  0  0  0  0  0  0  0
   21.6090   34.8810   15.8690 C   0  0  0  0  0  0  0  0  0  0  0  0
   20.1640   31.9070   15.1330 N   0  0  0  0  0  0  0  0  0  0  0  0
   18.9470   32.3020   14.6740 C   0  0  0  0  0  0  0  0  0  0  0  0
   18.7570   32.9500   13.6570 O   0  0  0  0  0  0  0  0  0  0  0  0
   17.9860   31.8370   15.5020 O   0  0  0  0  0  0  0  0  0  0  0  0
   16.9020   32.7380   15.7390 C   0  0  1  0  0  0  0  0  0  0  0  0
   15.8020   32.1730   16.6270 C   0  0  0  0  0  0  0  0  0  0  0  0
   15.2220   33.2810   17.3290 O   0  0  0  0  0  0  0  0  0  0  0  0
   16.0870   34.4140   17.1940 C   0  0  1  0  0  0  0  0  0  0  0  0
   16.4390   34.9500   18.4700 O   0  0  0  0  0  0  0  0  0  0  0  0
   17.8380   34.7440   18.6840 C   0  0  0  0  0  0  0  0  0  0  0  0
   18.2740   33.6730   17.7100 C   0  0  0  0  0  0  0  0  0  0  0  0
   17.3600   33.9400   16.5280 C   0  0  1  0  0  0  0  0  0  0  0  0
   19.0130   28.8230   12.8820 S   0  0  0  0  0  0  0  0  0  0  0  0
   18.8050   30.0330   12.1150 O   0  0  0  0  0  0  0  0  0  0  0  0
   18.3180   28.6100   14.1370 O   0  0  0  0  0  0  0  0  0  0  0  0
   18.5780   27.4700   11.7980 C   0  0  0  0  0  0  0  0  0  0  0  0
   18.1090   26.2720   12.3440 C   0  0  0  0  0  0  0  0  0  0  0  0
   17.7600   25.2060   11.5080 C   0  0  0  0  0  0  0  0  0  0  0  0
   17.8600   25.3480   10.1100 C   0  0  0  0  0  0  0  0  0  0  0  0
   17.5570   24.3740    9.1720 N   0  0  0  0  0  0  0  0  0  0  0  0
   17.7450   24.8550    7.9660 C   0  0  0  0  0  0  0  0  0  0  0  0
   18.2890   26.4750    7.8650 S   0  0  0  0  0  0  0  0  0  0  0  0
   18.2880   26.5720    9.5880 C   0  0  0  0  0  0  0  0  0  0  0  0
   18.6370   27.6550   10.4110 C   0  0  0  0  0  0  0  0  0  0  0  0
   25.1576   26.1894   12.8102 H   0  0  0  0  0  0  0  0  0  0  0  0
   24.2806   25.8193   11.2869 H   0  0  0  0  0  0  0  0  0  0  0  0
   25.6107   27.0266   11.2869 H   0  0  0  0  0  0  0  0  0  0  0  0
   23.7782   27.8766   13.2662 H   0  0  0  0  0  0  0  0  0  0  0  0
   24.1027   28.5802   11.5832 H   0  0  0  0  0  0  0  0  0  0  0  0
   21.9994   28.3599   11.1876 H   0  0  0  0  0  0  0  0  0  0  0  0
   21.5491   26.6469    9.9100 H   0  0  0  0  0  0  0  0  0  0  0  0
   23.1836   26.0010   10.4925 H   0  0  0  0  0  0  0  0  0  0  0  0
   21.5160   25.0465   12.3908 H   0  0  0  0  0  0  0  0  0  0  0  0
   20.4669   24.9698   10.9348 H   0  0  0  0  0  0  0  0  0  0  0  0
   22.0646   24.1489   10.9348 H   0  0  0  0  0  0  0  0  0  0  0  0
   20.5856   26.6050   12.7493 H   0  0  0  0  0  0  0  0  0  0  0  0
   21.9288   27.1155   13.8488 H   0  0  0  0  0  0  0  0  0  0  0  0
   20.6217   29.8192   14.9646 H   0  0  0  0  0  0  0  0  0  0  0  0
   22.2345   29.0630   14.5191 H   0  0  0  0  0  0  0  0  0  0  0  0
   22.9210   30.9172   13.5429 H   0  0  0  0  0  0  0  0  0  0  0  0
   22.0910   30.9680   11.5970 H   0  0  0  0  0  0  0  0  0  0  0  0
   21.2716   32.9826   13.6959 H   0  0  0  0  0  0  0  0  0  0  0  0
   22.7585   31.6714   16.0270 H   0  0  0  0  0  0  0  0  0  0  0  0
   23.3576   32.9328   14.8374 H   0  0  0  0  0  0  0  0  0  0  0  0
   22.6307   32.5649   18.1583 H   0  0  0  0  0  0  0  0  0  0  0  0
   21.9565   34.3920   19.7097 H   0  0  0  0  0  0  0  0  0  0  0  0
   21.0518   36.5323   18.8036 H   0  0  0  0  0  0  0  0  0  0  0  0
   20.8318   36.8464   16.3395 H   0  0  0  0  0  0  0  0  0  0  0  0
   21.5154   35.0277   14.7828 H   0  0  0  0  0  0  0  0  0  0  0  0
   20.1510   31.2840   15.9310 H   0  0  0  0  0  0  0  0  0  0  0  0
   16.5362   32.9589   14.7254 H   0  0  0  0  0  0  0  0  0  0  0  0
   15.0388   31.6736   16.0121 H   0  0  0  0  0  0  0  0  0  0  0  0
   16.2067   31.4301   17.3301 H   0  0  0  0  0  0  0  0  0  0  0  0
   15.5715   35.1911   16.6105 H   0  0  0  0  0  0  0  0  0  0  0  0
   18.3915   35.6757   18.4955 H   0  0  0  0  0  0  0  0  0  0  0  0
   18.0387   34.4400   19.7219 H   0  0  0  0  0  0  0  0  0  0  0  0
   19.3321   33.7899   17.4329 H   0  0  0  0  0  0  0  0  0  0  0  0
   18.2004   32.6505   18.1089 H   0  0  0  0  0  0  0  0  0  0  0  0
   17.9020   34.5982   15.8329 H   0  0  0  0  0  0  0  0  0  0  0  0
   18.0140   26.1669   13.4348 H   0  0  0  0  0  0  0  0  0  0  0  0
   17.4080   24.2583   11.9416 H   0  0  0  0  0  0  0  0  0  0  0  0
   17.5626   24.2488    7.0664 H   0  0  0  0  0  0  0  0  0  0  0  0
   18.9470   28.6183    9.9799 H   0  0  0  0  0  0  0  0  0  0  0  0
  1  2  1  0
  2  3  1  0
  3  4  1  0
  4  5  1  0
  3  6  1  0
  6  7  1  0
  7  8  1  0
  8  9  1  0
  9 10  1  0
  9 11  1  0
 11 12  1  0
 12 13  1  0
 13 14  2  0
 14 15  1  0
 15 16  2  0
 16 17  1  0
 17 18  2  0
 11 19  1  0
 19 20  1  0
 20 21  2  0
 20 22  1  0
 22 23  1  0
 23 24  1  0
 24 25  1  0
 25 26  1  0
 26 27  1  0
 27 28  1  0
 28 29  1  0
 29 30  1  0
  7 31  1  0
 31 32  2  0
 31 33  2  0
 31 34  1  0
 34 35  2  0
 35 36  1  0
 36 37  2  0
 37 38  1  0
 38 39  2  0
 39 40  1  0
 40 41  1  0
 41 42  2  0
 18 13  1  0
 30 23  1  0
 42 34  1  0
 30 26  1  0
 41 37  1  0
  1 43  1  0
  1 44  1  0
  1 45  1  0
  2 46  1  0
  2 47  1  0
  3 48  1  0
  4 49  1  0
  4 50  1  0
  5 51  1  0
  5 52  1  0
  5 53  1  0
  6 54  1  0
  6 55  1  0
  8 56  1  0
  8 57  1  0
  9 58  1  6
 10 59  1  0
 11 60  1  6
 12 61  1  0
 12 62  1  0
 14 63  1  0
 15 64  1  0
 16 65  1  0
 17 66  1  0
 18 67  1  0
 19 68  1  0
 23 69  1  6
 24 70  1  0
 24 71  1  0
 26 72  1  6
 28 73  1  0
 28 74  1  0
 29 75  1  0
 29 76  1  0
 30 77  1  6
 35 78  1  0
 36 79  1  0
 39 80  1  0
 42 81  1  0
M  END
>  <meeko>  (5) 
{"is_sidechain": [false], "free_energy": -9.194, "intermolecular_energy": -16.346, "internal_energy": -3.418}

$$$$
3o9i_ligand
     RDKit          3D

 81 85  0  0  0  0  0  0  0  0999 V2000
   22.0270   29.0100   11.4320 C   0  0  0  0  0  0  0  0  0  0  0  0
   21.4860   30.3540   11.9050 C   0  0  0  0  0  0  0  0  0  0  0  0
   21.3230   30.5410   13.4310 C   0  0  0  0  0  0  0  0  0  0  0  0
   22.0310   29.4410   14.2570 C   0  0  0  0  0  0  0  0  0  0  0  0
   21.1780   28.2580   14.6860 C   0  0  0  0  0  0  0  0  0  0  0  0
   21.6710   31.9720   13.8950 C   0  0  0  0  0  0  0  0  0  0  0  0
   21.3320   32.1700   15.3200 N   0  0  0  0  0  0  0  0  0  0  0  0
   19.8880   32.3900   15.6270 C   0  0  0  0  0  0  0  0  0  0  0  0
   19.0650   31.1010   15.8090 C   0  0  1  0  0  0  0  0  0  0  0  0
   18.9210   30.8390   17.2090 O   0  0  0  0  0  0  0  0  0  0  0  0
   17.6830   31.1630   15.0870 C   0  0  2  0  0  0  0  0  0  0  0  0
   17.8030   30.9260   13.5610 C   0  0  0  0  0  0  0  0  0  0  0  0
   17.8570   29.4720   13.1550 C   0  0  0  0  0  0  0  0  0  0  0  0
   17.5820   28.4630   14.0880 C   0  0  0  0  0  0  0  0  0  0  0  0
   17.6420   27.1190   13.7160 C   0  0  0  0  0  0  0  0  0  0  0  0
   17.9760   26.7700   12.4090 C   0  0  0  0  0  0  0  0  0  0  0  0
   18.2450   27.7660   11.4720 C   0  0  0  0  0  0  0  0  0  0  0  0
   18.1830   29.1100   11.8410 C   0  0  0  0  0  0  0  0  0  0  0  0
   17.0270   32.4520   15.3110 N   0  0  0  0  0  0  0  0  0  0  0  0
   15.8760   32.5860   16.0220 C   0  0  0  0  0  0  0  0  0  0  0  0
   15.2320   31.6620   16.4940 O   0  0  0  0  0  0  0  0  0  0  0  0
   15.5780   33.8980   16.1480 O   0  0  0  0  0  0  0  0  0  0  0  0
   15.7070   34.4240   17.4700 C   0  0  1  0  0  0  0  0  0  0  0  0
   17.0570   34.1550   18.1220 C   0  0  0  0  0  0  0  0  0  0  0  0
   17.3110   35.2430   19.0200 O   0  0  0  0  0  0  0  0  0  0  0  0
   16.3970   36.3050   18.7260 C   0  0  1  0  0  0  0  0  0  0  0  0
   17.0880   37.5290   18.4770 O   0  0  0  0  0  0  0  0  0  0  0  0
   16.9090   37.8870   17.1040 C   0  0  0  0  0  0  0  0  0  0  0  0
   16.4590   36.6360   16.3840 C   0  0  0  0  0  0  0  0  0  0  0  0
   15.6550   35.9320   17.4610 C   0  0  1  0  0  0  0  0  0  0  0  0
   22.5190   32.6930   16.4040 S   0  0  0  0  0  0  0  0  0  0  0  0
   23.6720   33.1290   15.6460 O   0  0  0  0  0  0  0  0  0  0  0  0
   22.6450   31.6700   17.4250 O   0  0  0  0  0  0  0  0  0  0  0  0
   21.8650   34.1550   17.1960 C   0  0  0  0  0  0  0  0  0  0  0  0
   21.4120   34.0820   18.5150 C   0  0  0  0  0  0  0  0  0  0  0  0
   20.9020   35.2190   19.1510 C   0  0  0  0  0  0  0  0  0  0  0  0
   20.8670   36.4490   18.4650 C   0  0  0  0  0  0  0  0  0  0  0  0
   20.3830   37.6450   18.9690 N   0  0  0  0  0  0  0  0  0  0  0  0
   20.5230   38.5890   18.0680 C   0  0  0  0  0  0  0  0  0  0  0  0
   21.2290   38.1250   16.5800 S   0  0  0  0  0  0  0  0  0  0  0  0
   21.3690   36.5070   17.1620 C   0  0  0  0  0  0  0  0  0  0  0  0
   21.8910   35.3770   16.5100 C   0  0  0  0  0  0  0  0  0  0  0  0
   22.2773   28.3881   12.3041 H   0  0  0  0  0  0  0  0  0  0  0  0
   21.2639   28.5006   10.8253 H   0  0  0  0  0  0  0  0  0  0  0  0
   22.9302   29.1713   10.8253 H   0  0  0  0  0  0  0  0  0  0  0  0
   22.1727   31.1345   11.5454 H   0  0  0  0  0  0  0  0  0  0  0  0
   20.4663   30.4140   11.4968 H   0  0  0  0  0  0  0  0  0  0  0  0
   20.2505   30.4120   13.6386 H   0  0  0  0  0  0  0  0  0  0  0  0
   22.8620   29.0511   13.6509 H   0  0  0  0  0  0  0  0  0  0  0  0
   22.3377   29.9322   15.1922 H   0  0  0  0  0  0  0  0  0  0  0  0
   21.1434   28.2101   15.7844 H   0  0  0  0  0  0  0  0  0  0  0  0
   20.1582   28.3793   14.2920 H   0  0  0  0  0  0  0  0  0  0  0  0
   21.6152   27.3287   14.2920 H   0  0  0  0  0  0  0  0  0  0  0  0
   22.7488   32.1420   13.7558 H   0  0  0  0  0  0  0  0  0  0  0  0
   21.0850   32.6843   13.2957 H   0  0  0  0  0  0  0  0  0  0  0  0
   19.8205   32.9738   16.5569 H   0  0  0  0  0  0  0  0  0  0  0  0
   19.4613   32.9108   14.7571 H   0  0  0  0  0  0  0  0  0  0  0  0
   19.6063   30.2700   15.3333 H   0  0  0  0  0  0  0  0  0  0  0  0
   18.2400   31.4360   17.5700 H   0  0  0  0  0  0  0  0  0  0  0  0
   17.0775   30.3539   15.5215 H   0  0  0  0  0  0  0  0  0  0  0  0
   16.9321   31.3870   13.0722 H   0  0  0  0  0  0  0  0  0  0  0  0
   18.7583   31.3735   13.2492 H   0  0  0  0  0  0  0  0  0  0  0  0
   17.3169   28.7322   15.1211 H   0  0  0  0  0  0  0  0  0  0  0  0
   17.4253   26.3342   14.4557 H   0  0  0  0  0  0  0  0  0  0  0  0
   18.0272   25.7106   12.1174 H   0  0  0  0  0  0  0  0  0  0  0  0
   18.5067   27.4919   10.4394 H   0  0  0  0  0  0  0  0  0  0  0  0
   18.3915   29.8912   11.0952 H   0  0  0  0  0  0  0  0  0  0  0  0
   17.5010   33.3170   15.0780 H   0  0  0  0  0  0  0  0  0  0  0  0
   14.8855   33.9336   18.0129 H   0  0  0  0  0  0  0  0  0  0  0  0
   17.0263   33.2059   18.6771 H   0  0  0  0  0  0  0  0  0  0  0  0
   17.8509   34.0766   17.3646 H   0  0  0  0  0  0  0  0  0  0  0  0
   15.7231   36.4445   19.5842 H   0  0  0  0  0  0  0  0  0  0  0  0
   16.1441   38.6724   17.0136 H   0  0  0  0  0  0  0  0  0  0  0  0
   17.8420   38.2781   16.6722 H   0  0  0  0  0  0  0  0  0  0  0  0
   15.8344   36.8784   15.5116 H   0  0  0  0  0  0  0  0  0  0  0  0
   17.2850   36.0333   15.9783 H   0  0  0  0  0  0  0  0  0  0  0  0
   14.6017   36.2205   17.3291 H   0  0  0  0  0  0  0  0  0  0  0  0
   21.4564   33.1256   19.0567 H   0  0  0  0  0  0  0  0  0  0  0  0
   20.5294   35.1528   20.1838 H   0  0  0  0  0  0  0  0  0  0  0  0
   20.2033   39.6240   18.2594 H   0  0  0  0  0  0  0  0  0  0  0  0
   22.3066   35.4491   15.4941 H   0  0  0  0  0  0  0  0  0  0  0  0
  1  2  1  0
  2  3  1  0
  3  4  1  0
  4  5  1  0
  3  6  1  0
  6  7  1  0
  7  8  1  0
  8  9  1  0
  9 10  1  0
  9 11  1  0
 11 12  1  0
 12 13  1  0
 13 14  2  0
 14 15  1  0
 15 16  2  0
 16 17  1  0
 17 18  2  0
 11 19  1  0
 19 20  1  0
 20 21  2  0
 20 22  1  0
 22 23  1  0
 23 24  1  0
 24 25  1  0
 25 26  1  0
 26 27  1  0
 27 28  1  0
 28 29  1  0
 29 30  1  0
  7 31  1  0
 31 32  2  0
 31 33  2  0
 31 34  1  0
 34 35  2  0
 35 36  1  0
 36 37  2  0
 37 38  1  0
 38 39  2  0
 39 40  1  0
 40 41  1  0
 41 42  2  0
 18 13  1  0
 30 23  1  0
 42 34  1  0
 30 26  1  0
 41 37  1  0
  1 43  1  0
  1 44  1  0
  1 45  1  0
  2 46  1  0
  2 47  1  0
  3 48  1  0
  4 49  1  0
  4 50  1  0
  5 51  1  0
  5 52  1  0
  5 53  1  0
  6 54  1  0
  6 55  1  0
  8 56  1  0
  8 57  1  0
  9 58  1  6
 10 59  1  0
 11 60  1  1
 12 61  1  0
 12 62  1  0
 14 63  1  0
 15 64  1  0
 16 65  1  0
 17 66  1  0
 18 67  1  0
 19 68  1  0
 23 69  1  1
 24 70  1  0
 24 71  1  0
 26 72  1  1
 28 73  1  0
 28 74  1  0
 29 75  1  0
 29 76  1  0
 30 77  1  1
 35 78  1  0
 36 79  1  0
 39 80  1  0
 42 81  1  0
M  END
>  <meeko>  (6) 
{"is_sidechain": [false], "free_energy": -8.978, "intermolecular_energy": -15.886, "internal_energy": -3.48}

$$$$
3o9i_ligand
     RDKit          3D

 81 85  0  0  0  0  0  0  0  0999 V2000
   17.3390   26.9830   14.1150 C   0  0  0  0  0  0  0  0  0  0  0  0
   18.3000   28.1650   14.1580 C   0  0  0  0  0  0  0  0  0  0  0  0
   18.1420   29.2300   13.0480 C   0  0  0  0  0  0  0  0  0  0  0  0
   17.7840   28.6250   11.6710 C   0  0  0  0  0  0  0  0  0  0  0  0
   16.3540   28.8200   11.1930 C   0  0  0  0  0  0  0  0  0  0  0  0
   17.2120   30.3900   13.4660 C   0  0  0  0  0  0  0  0  0  0  0  0
   17.9290   31.3770   14.3000 N   0  0  0  0  0  0  0  0  0  0  0  0
   19.0660   32.0870   13.6440 C   0  0  0  0  0  0  0  0  0  0  0  0
   20.0700   31.1690   12.9230 C   0  0  1  0  0  0  0  0  0  0  0  0
   20.3390   31.7080   11.6250 O   0  0  0  0  0  0  0  0  0  0  0  0
   21.3790   30.9500   13.7420 C   0  0  2  0  0  0  0  0  0  0  0  0
   22.2150   32.2470   13.8770 C   0  0  0  0  0  0  0  0  0  0  0  0
   22.1370   32.9040   15.2350 C   0  0  0  0  0  0  0  0  0  0  0  0
   22.6230   32.2450   16.3730 C   0  0  0  0  0  0  0  0  0  0  0  0
   22.5410   32.8480   17.6290 C   0  0  0  0  0  0  0  0  0  0  0  0
   21.9760   34.1150   17.7600 C   0  0  0  0  0  0  0  0  0  0  0  0
   21.4950   34.7810   16.6350 C   0  0  0  0  0  0  0  0  0  0  0  0
   21.5780   34.1820   15.3780 C   0  0  0  0  0  0  0  0  0  0  0  0
   22.2170   29.9140   13.1350 N   0  0  0  0  0  0  0  0  0  0  0  0
   22.2270   28.6230   13.5600 C   0  0  0  0  0  0  0  0  0  0  0  0
   21.6010   28.1960   14.5170 O   0  0  0  0  0  0  0  0  0  0  0  0
   23.0090   27.8880   12.7390 O   0  0  0  0  0  0  0  0  0  0  0  0
   22.4110   26.6880   12.2450 C   0  0  1  0  0  0  0  0  0  0  0  0
   21.1870   26.9150   11.3670 C   0  0  0  0  0  0  0  0  0  0  0  0
   21.1380   25.8310   10.4300 O   0  0  0  0  0  0  0  0  0  0  0  0
   22.3990   25.1520   10.4470 C   0  0  1  0  0  0  0  0  0  0  0  0
   22.9620   25.0740    9.1380 O   0  0  0  0  0  0  0  0  0  0  0  0
   24.1460   25.8750    9.0990 C   0  0  0  0  0  0  0  0  0  0  0  0
   24.0760   26.8130   10.2830 C   0  0  0  0  0  0  0  0  0  0  0  0
   23.3440   25.9640   11.3050 C   0  0  1  0  0  0  0  0  0  0  0  0
   17.8550   31.2690   15.9860 S   0  0  0  0  0  0  0  0  0  0  0  0
   19.2070   31.2250   16.5020 O   0  0  0  0  0  0  0  0  0  0  0  0
   16.9040   30.2210   16.3040 O   0  0  0  0  0  0  0  0  0  0  0  0
   17.1570   32.8110   16.5570 C   0  0  0  0  0  0  0  0  0  0  0  0
   15.7700   32.9790   16.5670 C   0  0  0  0  0  0  0  0  0  0  0  0
   15.2080   34.1790   17.0160 C   0  0  0  0  0  0  0  0  0  0  0  0
   16.0430   35.2140   17.4820 C   0  0  0  0  0  0  0  0  0  0  0  0
   15.6220   36.4500   17.9440 N   0  0  0  0  0  0  0  0  0  0  0  0
   16.6630   37.1560   18.3170 C   0  0  0  0  0  0  0  0  0  0  0  0
   18.1940   36.4090   18.1440 S   0  0  0  0  0  0  0  0  0  0  0  0
   17.4250   35.0030   17.5050 C   0  0  0  0  0  0  0  0  0  0  0  0
   18.0060   33.8030   17.0650 C   0  0  0  0  0  0  0  0  0  0  0  0
   17.0893   26.6759   15.1413 H   0  0  0  0  0  0  0  0  0  0  0  0
   16.4201   27.2765   13.5863 H   0  0  0  0  0  0  0  0  0  0  0  0
   17.8139   26.1434   13.5863 H   0  0  0  0  0  0  0  0  0  0  0  0
   18.1642   28.6698   15.1259 H   0  0  0  0  0  0  0  0  0  0  0  0
   19.2987   27.7311   14.0019 H   0  0  0  0  0  0  0  0  0  0  0  0
   19.1379   29.6778   12.9148 H   0  0  0  0  0  0  0  0  0  0  0  0
   18.4507   29.0793   10.9233 H   0  0  0  0  0  0  0  0  0  0  0  0
   17.9039   27.5382   11.7916 H   0  0  0  0  0  0  0  0  0  0  0  0
   15.6860   28.9111   12.0622 H   0  0  0  0  0  0  0  0  0  0  0  0
   16.2920   29.7349   10.5855 H   0  0  0  0  0  0  0  0  0  0  0  0
   16.0493   27.9551   10.5855 H   0  0  0  0  0  0  0  0  0  0  0  0
   16.8348   30.8908   12.5621 H   0  0  0  0  0  0  0  0  0  0  0  0
   16.3811   29.9748   14.0553 H   0  0  0  0  0  0  0  0  0  0  0  0
   18.6511   32.7879   12.9047 H   0  0  0  0  0  0  0  0  0  0  0  0
   19.6253   32.5863   14.4489 H   0  0  0  0  0  0  0  0  0  0  0  0
   19.6200   30.1706   12.8194 H   0  0  0  0  0  0  0  0  0  0  0  0
   21.3020   31.6910   11.4730 H   0  0  0  0  0  0  0  0  0  0  0  0
   21.0582   30.6321   14.7450 H   0  0  0  0  0  0  0  0  0  0  0  0
   23.2676   31.9999   13.6748 H   0  0  0  0  0  0  0  0  0  0  0  0
   21.7960   32.9656   13.1573 H   0  0  0  0  0  0  0  0  0  0  0  0
   23.0721   31.2456   16.2753 H   0  0  0  0  0  0  0  0  0  0  0  0
   22.9229   32.3224   18.5166 H   0  0  0  0  0  0  0  0  0  0  0  0
   21.9099   34.5887   18.7506 H   0  0  0  0  0  0  0  0  0  0  0  0
   21.0489   35.7812   16.7381 H   0  0  0  0  0  0  0  0  0  0  0  0
   21.2023   34.7159   14.4927 H   0  0  0  0  0  0  0  0  0  0  0  0
   22.7010   30.0920   12.2630 H   0  0  0  0  0  0  0  0  0  0  0  0
   22.1597   26.1393   13.1647 H   0  0  0  0  0  0  0  0  0  0  0  0
   20.2760   26.9233   11.9834 H   0  0  0  0  0  0  0  0  0  0  0  0
   21.2505   27.8820   10.8465 H   0  0  0  0  0  0  0  0  0  0  0  0
   22.2510   24.1326   10.8329 H   0  0  0  0  0  0  0  0  0  0  0  0
   25.0384   25.2362    9.1738 H   0  0  0  0  0  0  0  0  0  0  0  0
   24.2137   26.4348    8.1545 H   0  0  0  0  0  0  0  0  0  0  0  0
   25.0806   27.0885   10.6363 H   0  0  0  0  0  0  0  0  0  0  0  0
   23.5838   27.7721   10.0644 H   0  0  0  0  0  0  0  0  0  0  0  0
   24.1034   25.4620   11.9224 H   0  0  0  0  0  0  0  0  0  0  0  0
   15.1171   32.1644   16.2204 H   0  0  0  0  0  0  0  0  0  0  0  0
   14.1164   34.3143   17.0053 H   0  0  0  0  0  0  0  0  0  0  0  0
   16.5578   38.1742   18.7197 H   0  0  0  0  0  0  0  0  0  0  0  0
   19.0936   33.6466   17.1175 H   0  0  0  0  0  0  0  0  0  0  0  0
  1  2  1  0
  2  3  1  0
  3  4  1  0
  4  5  1  0
  3  6  1  0
  6  7  1  0
  7  8  1  0
  8  9  1  0
  9 10  1  0
  9 11  1  0
 11 12  1  0
 12 13  1  0
 13 14  2  0
 14 15  1  0
 15 16  2  0
 16 17  1  0
 17 18  2  0
 11 19  1  0
 19 20  1  0
 20 21  2  0
 20 22  1  0
 22 23  1  0
 23 24  1  0
 24 25  1  0
 25 26  1  0
 26 27  1  0
 27 28  1  0
 28 29  1  0
 29 30  1  0
  7 31  1  0
 31 32  2  0
 31 33  2  0
 31 34  1  0
 34 35  2  0
 35 36  1  0
 36 37  2  0
 37 38  1  0
 38 39  2  0
 39 40  1  0
 40 41  1  0
 41 42  2  0
 18 13  1  0
 30 23  1  0
 42 34  1  0
 30 26  1  0
 41 37  1  0
  1 43  1  0
  1 44  1  0
  1 45  1  0
  2 46  1  0
  2 47  1  0
  3 48  1  0
  4 49  1  0
  4 50  1  0
  5 51  1  0
  5 52  1  0
  5 53  1  0
  6 54  1  0
  6 55  1  0
  8 56  1  0
  8 57  1  0
  9 58  1  6
 10 59  1  0
 11 60  1  1
 12 61  1  0
 12 62  1  0
 14 63  1  0
 15 64  1  0
 16 65  1  0
 17 66  1  0
 18 67  1  0
 19 68  1  0
 23 69  1  1
 24 70  1  0
 24 71  1  0
 26 72  1  1
 28 73  1  0
 28 74  1  0
 29 75  1  0
 29 76  1  0
 30 77  1  1
 35 78  1  0
 36 79  1  0
 39 80  1  0
 42 81  1  0
M  END
>  <meeko>  (7) 
{"is_sidechain": [false], "free_energy": -8.881, "intermolecular_energy": -17.337, "internal_energy": -1.849}

$$$$
3o9i_ligand
     RDKit          3D

 81 85  0  0  0  0  0  0  0  0999 V2000
   15.9370   31.9030   16.1920 C   0  0  0  0  0  0  0  0  0  0  0  0
   16.4620   33.2680   15.7650 C   0  0  0  0  0  0  0  0  0  0  0  0
   17.9060   33.6230   16.1920 C   0  0  0  0  0  0  0  0  0  0  0  0
   17.9940   34.9370   17.0030 C   0  0  0  0  0  0  0  0  0  0  0  0
   18.1830   34.7970   18.5050 C   0  0  0  0  0  0  0  0  0  0  0  0
   18.6330   32.4390   16.8660 C   0  0  0  0  0  0  0  0  0  0  0  0
   19.6250   31.8320   15.9530 N   0  0  0  0  0  0  0  0  0  0  0  0
   19.1330   30.7070   15.1050 C   0  0  0  0  0  0  0  0  0  0  0  0
   18.7130   31.1100   13.6790 C   0  0  1  0  0  0  0  0  0  0  0  0
   19.5140   32.2180   13.2580 O   0  0  0  0  0  0  0  0  0  0  0  0
   18.7910   29.9230   12.6710 C   0  0  2  0  0  0  0  0  0  0  0  0
   17.5690   28.9770   12.7770 C   0  0  0  0  0  0  0  0  0  0  0  0
   17.6760   27.7200   11.9460 C   0  0  0  0  0  0  0  0  0  0  0  0
   17.7410   26.4630   12.5640 C   0  0  0  0  0  0  0  0  0  0  0  0
   17.8510   25.3020   11.7980 C   0  0  0  0  0  0  0  0  0  0  0  0
   17.8950   25.3840   10.4070 C   0  0  0  0  0  0  0  0  0  0  0  0
   17.8260   26.6280    9.7830 C   0  0  0  0  0  0  0  0  0  0  0  0
   17.7130   27.7890   10.5470 C   0  0  0  0  0  0  0  0  0  0  0  0
   20.0100   29.1380   12.8710 N   0  0  0  0  0  0  0  0  0  0  0  0
   21.2270   29.5230   12.4010 C   0  0  0  0  0  0  0  0  0  0  0  0
   21.4330   30.5140   11.7180 O   0  0  0  0  0  0  0  0  0  0  0  0
   22.1680   28.6560   12.8360 O   0  0  0  0  0  0  0  0  0  0  0  0
   22.9840   28.0850   11.8120 C   0  0  1  0  0  0  0  0  0  0  0  0
   24.2110   27.3450   12.3290 C   0  0  0  0  0  0  0  0  0  0  0  0
   24.4970   26.3010   11.3890 O   0  0  0  0  0  0  0  0  0  0  0  0
   23.3640   26.1350   10.5290 C   0  0  1  0  0  0  0  0  0  0  0  0
   22.9090   24.7810   10.5280 O   0  0  0  0  0  0  0  0  0  0  0  0
   21.6170   24.7310   11.1380 C   0  0  0  0  0  0  0  0  0  0  0  0
   21.4560   26.0130   11.9220 C   0  0  0  0  0  0  0  0  0  0  0  0
   22.2450   26.9940   11.0750 C   0  0  1  0  0  0  0  0  0  0  0  0
   21.2770   31.9930   16.2750 S   0  0  0  0  0  0  0  0  0  0  0  0
   22.0030   31.8440   15.0320 O   0  0  0  0  0  0  0  0  0  0  0  0
   21.5730   31.1460   17.4150 O   0  0  0  0  0  0  0  0  0  0  0  0
   21.5240   33.6850   16.7930 C   0  0  0  0  0  0  0  0  0  0  0  0
   21.3370   34.7220   15.8760 C   0  0  0  0  0  0  0  0  0  0  0  0
   21.5220   36.0520   16.2670 C   0  0  0  0  0  0  0  0  0  0  0  0
   21.8760   36.3490   17.5980 C   0  0  0  0  0  0  0  0  0  0  0  0
   22.0970   37.6150   18.1150 N   0  0  0  0  0  0  0  0  0  0  0  0
   22.3870   37.5220   19.3910 C   0  0  0  0  0  0  0  0  0  0  0  0
   22.4170   35.9450   20.0550 S   0  0  0  0  0  0  0  0  0  0  0  0
   22.0120   35.2970   18.5080 C   0  0  0  0  0  0  0  0  0  0  0  0
   21.8240   33.9560   18.1350 C   0  0  0  0  0  0  0  0  0  0  0  0
   15.9150   31.8458   17.2903 H   0  0  0  0  0  0  0  0  0  0  0  0
   14.9202   31.7613   15.7970 H   0  0  0  0  0  0  0  0  0  0  0  0
   16.5968   31.1164   15.7970 H   0  0  0  0  0  0  0  0  0  0  0  0
   16.4189   33.3128   14.6668 H   0  0  0  0  0  0  0  0  0  0  0  0
   15.8209   33.9980   16.2808 H   0  0  0  0  0  0  0  0  0  0  0  0
   18.4574   33.8222   15.2612 H   0  0  0  0  0  0  0  0  0  0  0  0
   18.8445   35.5146   16.6118 H   0  0  0  0  0  0  0  0  0  0  0  0
   17.0148   35.4222   16.8773 H   0  0  0  0  0  0  0  0  0  0  0  0
   17.4053   35.3731   19.0277 H   0  0  0  0  0  0  0  0  0  0  0  0
   18.1057   33.7366   18.7870 H   0  0  0  0  0  0  0  0  0  0  0  0
   19.1748   35.1800   18.7870 H   0  0  0  0  0  0  0  0  0  0  0  0
   19.1491   32.8009   17.7675 H   0  0  0  0  0  0  0  0  0  0  0  0
   17.8864   31.6747   17.1275 H   0  0  0  0  0  0  0  0  0  0  0  0
   19.9368   29.9602   15.0270 H   0  0  0  0  0  0  0  0  0  0  0  0
   18.2283   30.3205   15.5971 H   0  0  0  0  0  0  0  0  0  0  0  0
   17.6543   31.4080   13.6969 H   0  0  0  0  0  0  0  0  0  0  0  0
   19.0100   32.7410   12.6080 H   0  0  0  0  0  0  0  0  0  0  0  0
   18.7981   30.3769   11.6690 H   0  0  0  0  0  0  0  0  0  0  0  0
   17.4522   28.6834   13.8306 H   0  0  0  0  0  0  0  0  0  0  0  0
   16.7055   29.5366   12.3881 H   0  0  0  0  0  0  0  0  0  0  0  0
   17.7050   26.3917   13.6611 H   0  0  0  0  0  0  0  0  0  0  0  0
   17.9031   24.3207   12.2923 H   0  0  0  0  0  0  0  0  0  0  0  0
   17.9840   24.4687    9.8034 H   0  0  0  0  0  0  0  0  0  0  0  0
   17.8607   26.6943    8.6855 H   0  0  0  0  0  0  0  0  0  0  0  0
   17.6524   28.7671   10.0473 H   0  0  0  0  0  0  0  0  0  0  0  0
   20.0160   28.3540   13.5130 H   0  0  0  0  0  0  0  0  0  0  0  0
   23.2590   28.9565   11.1997 H   0  0  0  0  0  0  0  0  0  0  0  0
   25.0656   28.0339   12.4002 H   0  0  0  0  0  0  0  0  0  0  0  0
   24.0268   26.9314   13.3315 H   0  0  0  0  0  0  0  0  0  0  0  0
   23.6488   26.4166    9.5045 H   0  0  0  0  0  0  0  0  0  0  0  0
   20.8363   24.6580   10.3665 H   0  0  0  0  0  0  0  0  0  0  0  0
   21.5230   23.8525   11.7932 H   0  0  0  0  0  0  0  0  0  0  0  0
   20.3987   26.3074   11.9961 H   0  0  0  0  0  0  0  0  0  0  0  0
   21.8014   25.9450   12.9641 H   0  0  0  0  0  0  0  0  0  0  0  0
   21.5371   27.4849   10.3909 H   0  0  0  0  0  0  0  0  0  0  0  0
   21.0428   34.4915   14.8414 H   0  0  0  0  0  0  0  0  0  0  0  0
   21.3914   36.8644   15.5370 H   0  0  0  0  0  0  0  0  0  0  0  0
   22.5998   38.4114   20.0023 H   0  0  0  0  0  0  0  0  0  0  0  0
   21.9095   33.1444   18.8726 H   0  0  0  0  0  0  0  0  0  0  0  0
  1  2  1  0
  2  3  1  0
  3  4  1  0
  4  5  1  0
  3  6  1  0
  6  7  1  0
  7  8  1  0
  8  9  1  0
  9 10  1  0
  9 11  1  0
 11 12  1  0
 12 13  1  0
 13 14  2  0
 14 15  1  0
 15 16  2  0
 16 17  1  0
 17 18  2  0
 11 19  1  0
 19 20  1  0
 20 21  2  0
 20 22  1  0
 22 23  1  0
 23 24  1  0
 24 25  1  0
 25 26  1  0
 26 27  1  0
 27 28  1  0
 28 29  1  0
 29 30  1  0
  7 31  1  0
 31 32  2  0
 31 33  2  0
 31 34  1  0
 34 35  2  0
 35 36  1  0
 36 37  2  0
 37 38  1  0
 38 39  2  0
 39 40  1  0
 40 41  1  0
 41 42  2  0
 18 13  1  0
 30 23  1  0
 42 34  1  0
 30 26  1  0
 41 37  1  0
  1 43  1  0
  1 44  1  0
  1 45  1  0
  2 46  1  0
  2 47  1  0
  3 48  1  0
  4 49  1  0
  4 50  1  0
  5 51  1  0
  5 52  1  0
  5 53  1  0
  6 54  1  0
  6 55  1  0
  8 56  1  0
  8 57  1  0
  9 58  1  1
 10 59  1  0
 11 60  1  6
 12 61  1  0
 12 62  1  0
 14 63  1  0
 15 64  1  0
 16 65  1  0
 17 66  1  0
 18 67  1  0
 19 68  1  0
 23 69  1  6
 24 70  1  0
 24 71  1  0
 26 72  1  6
 28 73  1  0
 28 74  1  0
 29 75  1  0
 29 76  1  0
 30 77  1  6
 35 78  1  0
 36 79  1  0
 39 80  1  0
 42 81  1  0
M  END
>  <meeko>  (8) 
{"is_sidechain": [false], "free_energy": -8.663, "intermolecular_energy": -15.164, "internal_energy": -3.62}

$$$$
3o9i_ligand
     RDKit          3D

 81 85  0  0  0  0  0  0  0  0999 V2000
   23.3300   31.0880   14.4570 C   0  0  0  0  0  0  0  0  0  0  0  0
   22.2040   31.9060   13.8360 C   0  0  0  0  0  0  0  0  0  0  0  0
   21.0620   32.3460   14.7810 C   0  0  0  0  0  0  0  0  0  0  0  0
   21.3050   33.7310   15.4250 C   0  0  0  0  0  0  0  0  0  0  0  0
   22.0200   33.7410   16.7660 C   0  0  0  0  0  0  0  0  0  0  0  0
   19.6680   32.2120   14.1290 C   0  0  0  0  0  0  0  0  0  0  0  0
   18.9610   31.0100   14.6210 N   0  0  0  0  0  0  0  0  0  0  0  0
   18.7080   29.9400   13.6130 C   0  0  0  0  0  0  0  0  0  0  0  0
   19.0910   28.5200   14.0710 C   0  0  1  0  0  0  0  0  0  0  0  0
   17.9010   27.8220   14.4520 O   0  0  0  0  0  0  0  0  0  0  0  0
   19.9000   27.7370   12.9910 C   0  0  2  0  0  0  0  0  0  0  0  0
   21.2100   28.4620   12.5950 C   0  0  0  0  0  0  0  0  0  0  0  0
   22.3430   27.5420   12.2070 C   0  0  0  0  0  0  0  0  0  0  0  0
   23.6730   27.9730   12.3010 C   0  0  0  0  0  0  0  0  0  0  0  0
   24.7200   27.1270   11.9330 C   0  0  0  0  0  0  0  0  0  0  0  0
   24.4480   25.8410   11.4690 C   0  0  0  0  0  0  0  0  0  0  0  0
   23.1300   25.4000   11.3770 C   0  0  0  0  0  0  0  0  0  0  0  0
   22.0830   26.2430   11.7470 C   0  0  0  0  0  0  0  0  0  0  0  0
   19.1000   27.5210   11.7850 N   0  0  0  0  0  0  0  0  0  0  0  0
   18.2970   26.4380   11.6090 C   0  0  0  0  0  0  0  0  0  0  0  0
   18.1980   25.5050   12.3920 O   0  0  0  0  0  0  0  0  0  0  0  0
   17.6090   26.5740   10.4540 O   0  0  0  0  0  0  0  0  0  0  0  0
   17.7210   25.4730    9.5500 C   0  0  1  0  0  0  0  0  0  0  0  0
   16.3950   25.0070    8.9650 C   0  0  0  0  0  0  0  0  0  0  0  0
   16.6750   24.4770    7.6630 O   0  0  0  0  0  0  0  0  0  0  0  0
   17.9940   24.8810    7.2770 C   0  0  1  0  0  0  0  0  0  0  0  0
   17.9810   25.5500    6.0160 O   0  0  0  0  0  0  0  0  0  0  0  0
   18.3390   26.9200    6.2190 C   0  0  0  0  0  0  0  0  0  0  0  0
   18.1480   27.2050    7.6910 C   0  0  0  0  0  0  0  0  0  0  0  0
   18.4920   25.8650    8.3130 C   0  0  1  0  0  0  0  0  0  0  0  0
   18.0130   31.1020   16.0180 S   0  0  0  0  0  0  0  0  0  0  0  0
   18.8320   30.7300   17.1520 O   0  0  0  0  0  0  0  0  0  0  0  0
   16.7720   30.4060   15.7370 O   0  0  0  0  0  0  0  0  0  0  0  0
   17.6150   32.8300   16.2400 C   0  0  0  0  0  0  0  0  0  0  0  0
   16.6030   33.4100   15.4710 C   0  0  0  0  0  0  0  0  0  0  0  0
   16.2760   34.7600   15.6370 C   0  0  0  0  0  0  0  0  0  0  0  0
   16.9540   35.5320   16.6010 C   0  0  0  0  0  0  0  0  0  0  0  0
   16.7370   36.8750   16.8620 N   0  0  0  0  0  0  0  0  0  0  0  0
   17.5270   37.2650   17.8340 C   0  0  0  0  0  0  0  0  0  0  0  0
   18.5690   36.0780   18.4940 S   0  0  0  0  0  0  0  0  0  0  0  0
   17.9300   34.9170   17.3900 C   0  0  0  0  0  0  0  0  0  0  0  0
   18.2670   33.5620   17.2420 C   0  0  0  0  0  0  0  0  0  0  0  0
   23.2590   31.1396   15.5535 H   0  0  0  0  0  0  0  0  0  0  0  0
   23.2440   30.0404   14.1329 H   0  0  0  0  0  0  0  0  0  0  0  0
   24.2997   31.4936   14.1329 H   0  0  0  0  0  0  0  0  0  0  0  0
   22.6502   32.8152   13.4067 H   0  0  0  0  0  0  0  0  0  0  0  0
   21.7306   31.2361   13.1031 H   0  0  0  0  0  0  0  0  0  0  0  0
   21.0711   31.6337   15.6192 H   0  0  0  0  0  0  0  0  0  0  0  0
   21.9065   34.3254   14.7215 H   0  0  0  0  0  0  0  0  0  0  0  0
   20.3029   34.1371   15.6272 H   0  0  0  0  0  0  0  0  0  0  0  0
   21.2775   33.7306   17.5775 H   0  0  0  0  0  0  0  0  0  0  0  0
   22.6626   32.8518   16.8456 H   0  0  0  0  0  0  0  0  0  0  0  0
   22.6375   34.6479   16.8456 H   0  0  0  0  0  0  0  0  0  0  0  0
   19.0712   33.1037   14.3714 H   0  0  0  0  0  0  0  0  0  0  0  0
   19.7999   32.1177   13.0410 H   0  0  0  0  0  0  0  0  0  0  0  0
   17.6349   29.9441   13.3710 H   0  0  0  0  0  0  0  0  0  0  0  0
   19.3478   30.1705   12.7484 H   0  0  0  0  0  0  0  0  0  0  0  0
   19.7637   28.6011   14.9376 H   0  0  0  0  0  0  0  0  0  0  0  0
   18.1310   27.1570   15.1280 H   0  0  0  0  0  0  0  0  0  0  0  0
   20.1581   26.7698   13.4469 H   0  0  0  0  0  0  0  0  0  0  0  0
   20.9936   29.1198   11.7403 H   0  0  0  0  0  0  0  0  0  0  0  0
   21.5451   29.0115   13.4871 H   0  0  0  0  0  0  0  0  0  0  0  0
   23.8935   28.9863   12.6678 H   0  0  0  0  0  0  0  0  0  0  0  0
   25.7607   27.4752   12.0091 H   0  0  0  0  0  0  0  0  0  0  0  0
   25.2732   25.1753   11.1759 H   0  0  0  0  0  0  0  0  0  0  0  0
   22.9148   24.3849   11.0118 H   0  0  0  0  0  0  0  0  0  0  0  0
   21.0447   25.8864   11.6776 H   0  0  0  0  0  0  0  0  0  0  0  0
   18.9930   28.2610   11.1010 H   0  0  0  0  0  0  0  0  0  0  0  0
   18.1934   24.6931   10.1652 H   0  0  0  0  0  0  0  0  0  0  0  0
   15.9535   24.2275    9.6033 H   0  0  0  0  0  0  0  0  0  0  0  0
   15.6783   25.8393    8.9044 H   0  0  0  0  0  0  0  0  0  0  0  0
   18.6340   23.9895    7.2016 H   0  0  0  0  0  0  0  0  0  0  0  0
   19.3888   27.0838    5.9342 H   0  0  0  0  0  0  0  0  0  0  0  0
   17.7179   27.5868    5.6029 H   0  0  0  0  0  0  0  0  0  0  0  0
   18.8305   27.9948    8.0380 H   0  0  0  0  0  0  0  0  0  0  0  0
   17.1427   27.5705    7.9475 H   0  0  0  0  0  0  0  0  0  0  0  0
   19.5568   25.8916    8.5877 H   0  0  0  0  0  0  0  0  0  0  0  0
   16.0608   32.8023   14.7316 H   0  0  0  0  0  0  0  0  0  0  0  0
   15.4915   35.2176   15.0164 H   0  0  0  0  0  0  0  0  0  0  0  0
   17.5202   38.3004   18.2054 H   0  0  0  0  0  0  0  0  0  0  0  0
   19.0187   33.0899   17.8917 H   0  0  0  0  0  0  0  0  0  0  0  0
  1  2  1  0
  2  3  1  0
  3  4  1  0
  4  5  1  0
  3  6  1  0
  6  7  1  0
  7  8  1  0
  8  9  1  0
  9 10  1  0
  9 11  1  0
 11 12  1  0
 12 13  1  0
 13 14  2  0
 14 15  1  0
 15 16  2  0
 16 17  1  0
 17 18  2  0
 11 19  1  0
 19 20  1  0
 20 21  2  0
 20 22  1  0
 22 23  1  0
 23 24  1  0
 24 25  1  0
 25 26  1  0
 26 27  1  0
 27 28  1  0
 28 29  1  0
 29 30  1  0
  7 31  1  0
 31 32  2  0
 31 33  2  0
 31 34  1  0
 34 35  2  0
 35 36  1  0
 36 37  2  0
 37 38  1  0
 38 39  2  0
 39 40  1  0
 40 41  1  0
 41 42  2  0
 18 13  1  0
 30 23  1  0
 42 34  1  0
 30 26  1  0
 41 37  1  0
  1 43  1  0
  1 44  1  0
  1 45  1  0
  2 46  1  0
  2 47  1  0
  3 48  1  0
  4 49  1  0
  4 50  1  0
  5 51  1  0
  5 52  1  0
  5 53  1  0
  6 54  1  0
  6 55  1  0
  8 56  1  0
  8 57  1  0
  9 58  1  1
 10 59  1  0
 11 60  1  1
 12 61  1  0
 12 62  1  0
 14 63  1  0
 15 64  1  0
 16 65  1  0
 17 66  1  0
 18 67  1  0
 19 68  1  0
 23 69  1  1
 24 70  1  0
 24 71  1  0
 26 72  1  6
 28 73  1  0
 28 74  1  0
 29 75  1  0
 29 76  1  0
 30 77  1  1
 35 78  1  0
 36 79  1  0
 39 80  1  0
 42 81  1  0
M  END
>  <meeko>  (9) 
{"is_sidechain": [false], "free_energy": -8.642, "intermolecular_energy": -16.049, "internal_energy": -2.696}

$$$$
