3uex_ligand
     RDKit          3D

 55 54  0  0  0  0  0  0  0  0999 V2000
   -4.3100   15.2330   14.6330 C   0  0  0  0  0  0  0  0  0  0  0  0
   -5.3450   16.0980   13.9310 C   0  0  0  0  0  0  0  0  0  0  0  0
   -5.0620   17.5870   14.1440 C   0  0  0  0  0  0  0  0  0  0  0  0
   -4.0310   17.8510   15.2440 C   0  0  0  0  0  0  0  0  0  0  0  0
   -4.5260   18.7070   16.4180 C   0  0  0  0  0  0  0  0  0  0  0  0
   -4.4260   18.0530   17.7980 C   0  0  0  0  0  0  0  0  0  0  0  0
   -3.9870   16.5830   17.7860 C   0  0  0  0  0  0  0  0  0  0  0  0
   -2.6680   16.3480   18.5300 C   0  0  0  0  0  0  0  0  0  0  0  0
   -2.2810   14.8680   18.6230 C   0  0  0  0  0  0  0  0  0  0  0  0
   -3.4100   13.8640   18.3700 C   0  0  0  0  0  0  0  0  0  0  0  0
   -3.3130   12.5470   19.1480 C   0  0  0  0  0  0  0  0  0  0  0  0
   -2.2680   12.5830   20.2670 C   0  0  0  0  0  0  0  0  0  0  0  0
   -1.0930   11.6280   20.0320 C   0  0  0  0  0  0  0  0  0  0  0  0
   -1.3560   10.6060   18.9220 C   0  0  0  0  0  0  0  0  0  0  0  0
   -1.5780    9.1830   19.4450 C   0  0  0  0  0  0  0  0  0  0  0  0
   -3.0300    8.6970   19.4740 C   0  0  0  0  0  0  0  0  0  0  0  0
   -3.1680    7.2020   19.7430 C   0  0  0  0  0  0  0  0  0  0  0  0
   -3.1610    6.8030   21.2220 C   0  0  0  0  0  0  0  0  0  0  0  0
   -2.5770    5.7040   21.4570 O   0  0  0  0  0  0  0  0  0  0  0  0
   -3.7190    7.5980   22.0270 O   0  0  0  0  0  0  0  0  0  0  0  0
   -4.4278   15.3315   15.7222 H   0  0  0  0  0  0  0  0  0  0  0  0
   -4.4527   14.1817   14.3423 H   0  0  0  0  0  0  0  0  0  0  0  0
   -3.3008   15.5601   14.3423 H   0  0  0  0  0  0  0  0  0  0  0  0
   -5.3228   15.8797   12.8531 H   0  0  0  0  0  0  0  0  0  0  0  0
   -6.3340   15.8685   14.3543 H   0  0  0  0  0  0  0  0  0  0  0  0
   -4.6843   18.0099   13.2014 H   0  0  0  0  0  0  0  0  0  0  0  0
   -6.0049   18.0583   14.4583 H   0  0  0  0  0  0  0  0  0  0  0  0
   -3.7065   16.8796   15.6453 H   0  0  0  0  0  0  0  0  0  0  0  0
   -3.2218   18.4257   14.7697 H   0  0  0  0  0  0  0  0  0  0  0  0
   -3.9312   19.6321   16.4374 H   0  0  0  0  0  0  0  0  0  0  0  0
   -5.5986   18.8733   16.2395 H   0  0  0  0  0  0  0  0  0  0  0  0
   -3.6975   18.6223   18.3939 H   0  0  0  0  0  0  0  0  0  0  0  0
   -5.4414   18.0682   18.2209 H   0  0  0  0  0  0  0  0  0  0  0  0
   -4.7720   15.9784   18.2639 H   0  0  0  0  0  0  0  0  0  0  0  0
   -3.8297   16.2942   16.7363 H   0  0  0  0  0  0  0  0  0  0  0  0
   -1.8677   16.8857   18.0006 H   0  0  0  0  0  0  0  0  0  0  0  0
   -2.8035   16.7150   19.5581 H   0  0  0  0  0  0  0  0  0  0  0  0
   -1.4899   14.6793   17.8823 H   0  0  0  0  0  0  0  0  0  0  0  0
   -1.9677   14.7072   19.6651 H   0  0  0  0  0  0  0  0  0  0  0  0
   -4.3600   14.3478   18.6411 H   0  0  0  0  0  0  0  0  0  0  0  0
   -3.3368   13.5911   17.3069 H   0  0  0  0  0  0  0  0  0  0  0  0
   -4.2952   12.3311   19.5937 H   0  0  0  0  0  0  0  0  0  0  0  0
   -3.0024   11.7685   18.4356 H   0  0  0  0  0  0  0  0  0  0  0  0
   -1.8748   13.6074   20.3443 H   0  0  0  0  0  0  0  0  0  0  0  0
   -2.7698   12.2599   21.1910 H   0  0  0  0  0  0  0  0  0  0  0  0
   -0.2094   12.2226   19.7570 H   0  0  0  0  0  0  0  0  0  0  0  0
   -0.9395   11.0645   20.9642 H   0  0  0  0  0  0  0  0  0  0  0  0
   -2.2531   10.9173   18.3668 H   0  0  0  0  0  0  0  0  0  0  0  0
   -0.4600   10.5815   18.2843 H   0  0  0  0  0  0  0  0  0  0  0  0
   -1.0059    8.4959   18.8042 H   0  0  0  0  0  0  0  0  0  0  0  0
   -1.2495    9.1984   20.4947 H   0  0  0  0  0  0  0  0  0  0  0  0
   -3.5640    9.2435   20.2653 H   0  0  0  0  0  0  0  0  0  0  0  0
   -3.4535    8.8858   18.4765 H   0  0  0  0  0  0  0  0  0  0  0  0
   -4.1177    6.8632   19.3034 H   0  0  0  0  0  0  0  0  0  0  0  0
   -2.2828    6.7277   19.2942 H   0  0  0  0  0  0  0  0  0  0  0  0
  1  2  1  0
  2  3  1  0
  3  4  1  0
  4  5  1  0
  5  6  1  0
  6  7  1  0
  7  8  1  0
  8  9  1  0
  9 10  1  0
 10 11  1  0
 11 12  1  0
 12 13  1  0
 13 14  1  0
 14 15  1  0
 15 16  1  0
 16 17  1  0
 17 18  1  0
 18 19  2  0
 18 20  1  0
  1 21  1  0
  1 22  1  0
  1 23  1  0
  2 24  1  0
  2 25  1  0
  3 26  1  0
  3 27  1  0
  4 28  1  0
  4 29  1  0
  5 30  1  0
  5 31  1  0
  6 32  1  0
  6 33  1  0
  7 34  1  0
  7 35  1  0
  8 36  1  0
  8 37  1  0
  9 38  1  0
  9 39  1  0
 10 40  1  0
 10 41  1  0
 11 42  1  0
 11 43  1  0
 12 44  1  0
 12 45  1  0
 13 46  1  0
 13 47  1  0
 14 48  1  0
 14 49  1  0
 15 50  1  0
 15 51  1  0
 16 52  1  0
 16 53  1  0
 17 54  1  0
 17 55  1  0
M  CHG  1  20  -1
M  END
>  <meeko>  (1) 
{"is_sidechain": [false], "free_energy": -7.266, "intermolecular_energy": -14.063, "internal_energy": -1.323}

$$$$
3uex_ligand
     RDKit          3D

 55 54  0  0  0  0  0  0  0  0999 V2000
   -4.4970   15.3240   14.3890 C   0  0  0  0  0  0  0  0  0  0  0  0
   -5.5700   16.4000   14.3390 C   0  0  0  0  0  0  0  0  0  0  0  0
   -4.9610   17.7820   14.0940 C   0  0  0  0  0  0  0  0  0  0  0  0
   -4.0060   18.2230   15.2060 C   0  0  0  0  0  0  0  0  0  0  0  0
   -4.6780   18.6890   16.5050 C   0  0  0  0  0  0  0  0  0  0  0  0
   -4.5940   17.7090   17.6780 C   0  0  0  0  0  0  0  0  0  0  0  0
   -3.1700   17.3580   18.1270 C   0  0  0  0  0  0  0  0  0  0  0  0
   -2.8720   15.8570   18.0480 C   0  0  0  0  0  0  0  0  0  0  0  0
   -4.1270   15.0000   17.8530 C   0  0  0  0  0  0  0  0  0  0  0  0
   -4.0260   13.5470   18.3290 C   0  0  0  0  0  0  0  0  0  0  0  0
   -2.6030   13.0090   18.5160 C   0  0  0  0  0  0  0  0  0  0  0  0
   -2.3230   12.5280   19.9420 C   0  0  0  0  0  0  0  0  0  0  0  0
   -1.3330   11.3600   20.0060 C   0  0  0  0  0  0  0  0  0  0  0  0
   -1.2950   10.5280   18.7210 C   0  0  0  0  0  0  0  0  0  0  0  0
   -1.9120    9.1340   18.8810 C   0  0  0  0  0  0  0  0  0  0  0  0
   -1.5680    8.3910   20.1750 C   0  0  0  0  0  0  0  0  0  0  0  0
   -2.0310    6.9370   20.1870 C   0  0  0  0  0  0  0  0  0  0  0  0
   -0.9580    5.9160   20.5800 C   0  0  0  0  0  0  0  0  0  0  0  0
    0.1340    6.0480   19.9540 O   0  0  0  0  0  0  0  0  0  0  0  0
   -1.2720    5.0790   21.4690 O   0  0  0  0  0  0  0  0  0  0  0  0
   -4.2623   15.0887   15.4376 H   0  0  0  0  0  0  0  0  0  0  0  0
   -4.8622   14.4182   13.8828 H   0  0  0  0  0  0  0  0  0  0  0  0
   -3.5902   15.6866   13.8828 H   0  0  0  0  0  0  0  0  0  0  0  0
   -6.2720   16.1683   13.5244 H   0  0  0  0  0  0  0  0  0  0  0  0
   -6.0900   16.4168   15.3082 H   0  0  0  0  0  0  0  0  0  0  0  0
   -4.4053   17.7565   13.1450 H   0  0  0  0  0  0  0  0  0  0  0  0
   -5.7893   18.5053   14.0669 H   0  0  0  0  0  0  0  0  0  0  0  0
   -3.3518   17.3726   15.4485 H   0  0  0  0  0  0  0  0  0  0  0  0
   -3.4669   19.0976   14.8131 H   0  0  0  0  0  0  0  0  0  0  0  0
   -4.2007   19.6303   16.8148 H   0  0  0  0  0  0  0  0  0  0  0  0
   -5.7482   18.7906   16.2721 H   0  0  0  0  0  0  0  0  0  0  0  0
   -5.1218   18.1548   18.5339 H   0  0  0  0  0  0  0  0  0  0  0  0
   -5.0468   16.7697   17.3277 H   0  0  0  0  0  0  0  0  0  0  0  0
   -2.4570   17.8917   17.4814 H   0  0  0  0  0  0  0  0  0  0  0  0
   -3.0730   17.6585   19.1807 H   0  0  0  0  0  0  0  0  0  0  0  0
   -2.1930   15.6798   17.2009 H   0  0  0  0  0  0  0  0  0  0  0  0
   -2.4223   15.5629   19.0078 H   0  0  0  0  0  0  0  0  0  0  0  0
   -4.9506   15.4784   18.4033 H   0  0  0  0  0  0  0  0  0  0  0  0
   -4.2850   14.9467   16.7657 H   0  0  0  0  0  0  0  0  0  0  0  0
   -4.5465   13.4703   19.2950 H   0  0  0  0  0  0  0  0  0  0  0  0
   -4.4760   12.9371   17.5318 H   0  0  0  0  0  0  0  0  0  0  0  0
   -2.4551   12.1646   17.8268 H   0  0  0  0  0  0  0  0  0  0  0  0
   -1.9102   13.8378   18.3085 H   0  0  0  0  0  0  0  0  0  0  0  0
   -1.9089   13.3683   20.5186 H   0  0  0  0  0  0  0  0  0  0  0  0
   -3.2764   12.1692   20.3572 H   0  0  0  0  0  0  0  0  0  0  0  0
   -0.3268   11.7647   20.1900 H   0  0  0  0  0  0  0  0  0  0  0  0
   -1.6660   10.6942   20.8158 H   0  0  0  0  0  0  0  0  0  0  0  0
   -1.8501   11.0676   17.9395 H   0  0  0  0  0  0  0  0  0  0  0  0
   -0.2367   10.3867   18.4563 H   0  0  0  0  0  0  0  0  0  0  0  0
   -3.0057    9.2431   18.8364 H   0  0  0  0  0  0  0  0  0  0  0  0
   -1.4861    8.5267   18.0687 H   0  0  0  0  0  0  0  0  0  0  0  0
   -0.4760    8.4092   20.3065 H   0  0  0  0  0  0  0  0  0  0  0  0
   -2.0968    8.9043   20.9917 H   0  0  0  0  0  0  0  0  0  0  0  0
   -2.8623    6.8500   20.9022 H   0  0  0  0  0  0  0  0  0  0  0  0
   -2.3165    6.6980   19.1519 H   0  0  0  0  0  0  0  0  0  0  0  0
  1  2  1  0
  2  3  1  0
  3  4  1  0
  4  5  1  0
  5  6  1  0
  6  7  1  0
  7  8  1  0
  8  9  1  0
  9 10  1  0
 10 11  1  0
 11 12  1  0
 12 13  1  0
 13 14  1  0
 14 15  1  0
 15 16  1  0
 16 17  1  0
 17 18  1  0
 18 19  2  0
 18 20  1  0
  1 21  1  0
  1 22  1  0
  1 23  1  0
  2 24  1  0
  2 25  1  0
  3 26  1  0
  3 27  1  0
  4 28  1  0
  4 29  1  0
  5 30  1  0
  5 31  1  0
  6 32  1  0
  6 33  1  0
  7 34  1  0
  7 35  1  0
  8 36  1  0
  8 37  1  0
  9 38  1  0
  9 39  1  0
 10 40  1  0
 10 41  1  0
 11 42  1  0
 11 43  1  0
 12 44  1  0
 12 45  1  0
 13 46  1  0
 13 47  1  0
 14 48  1  0
 14 49  1  0
 15 50  1  0
 15 51  1  0
 16 52  1  0
 16 53  1  0
 17 54  1  0
 17 55  1  0
M  CHG  1  20  -1
M  END
>  <meeko>  (2) 
{"is_sidechain": [false], "free_energy": -7.171, "intermolecular_energy": -13.822, "internal_energy": -1.379}

$$$$
3uex_ligand
     RDKit          3D

 55 54  0  0  0  0  0  0  0  0999 V2000
   -4.9580   15.7170   13.9730 C   0  0  0  0  0  0  0  0  0  0  0  0
   -5.5450   16.9570   14.6310 C   0  0  0  0  0  0  0  0  0  0  0  0
   -4.5050   18.0750   14.7380 C   0  0  0  0  0  0  0  0  0  0  0  0
   -4.4590   18.7200   16.1250 C   0  0  0  0  0  0  0  0  0  0  0  0
   -4.6850   17.7630   17.3040 C   0  0  0  0  0  0  0  0  0  0  0  0
   -3.4400   17.4340   18.1320 C   0  0  0  0  0  0  0  0  0  0  0  0
   -3.0950   15.9410   18.2160 C   0  0  0  0  0  0  0  0  0  0  0  0
   -4.1840   15.0430   17.6210 C   0  0  0  0  0  0  0  0  0  0  0  0
   -4.1690   13.6180   18.1860 C   0  0  0  0  0  0  0  0  0  0  0  0
   -2.7860   13.0280   18.4750 C   0  0  0  0  0  0  0  0  0  0  0  0
   -2.6060   12.4070   19.8650 C   0  0  0  0  0  0  0  0  0  0  0  0
   -1.3620   11.5220   19.9740 C   0  0  0  0  0  0  0  0  0  0  0  0
   -1.4430   10.2510   19.1220 C   0  0  0  0  0  0  0  0  0  0  0  0
   -1.3840    8.9630   19.9490 C   0  0  0  0  0  0  0  0  0  0  0  0
   -2.7610    8.3470   20.2140 C   0  0  0  0  0  0  0  0  0  0  0  0
   -3.7300    8.3300   19.0280 C   0  0  0  0  0  0  0  0  0  0  0  0
   -4.3630    6.9650   18.7760 C   0  0  0  0  0  0  0  0  0  0  0  0
   -5.8890    6.9720   18.6310 C   0  0  0  0  0  0  0  0  0  0  0  0
   -6.4210    8.1020   18.8390 O   0  0  0  0  0  0  0  0  0  0  0  0
   -6.4340    5.8780   18.3210 O   0  0  0  0  0  0  0  0  0  0  0  0
   -4.6247   15.0128   14.7495 H   0  0  0  0  0  0  0  0  0  0  0  0
   -5.7243   15.2366   13.3469 H   0  0  0  0  0  0  0  0  0  0  0  0
   -4.1007   16.0052   13.3469 H   0  0  0  0  0  0  0  0  0  0  0  0
   -6.3941   17.3138   14.0296 H   0  0  0  0  0  0  0  0  0  0  0  0
   -5.8725   16.6892   15.6464 H   0  0  0  0  0  0  0  0  0  0  0  0
   -3.5137   17.6538   14.5145 H   0  0  0  0  0  0  0  0  0  0  0  0
   -4.7902   18.8586   14.0207 H   0  0  0  0  0  0  0  0  0  0  0  0
   -3.4701   19.1853   16.2503 H   0  0  0  0  0  0  0  0  0  0  0  0
   -5.2920   19.4378   16.1533 H   0  0  0  0  0  0  0  0  0  0  0  0
   -5.4272   18.2205   17.9747 H   0  0  0  0  0  0  0  0  0  0  0  0
   -5.0149   16.8111   16.8622 H   0  0  0  0  0  0  0  0  0  0  0  0
   -2.5831   17.9579   17.6833 H   0  0  0  0  0  0  0  0  0  0  0  0
   -3.6592   17.7580   19.1601 H   0  0  0  0  0  0  0  0  0  0  0  0
   -2.1575   15.7660   17.6678 H   0  0  0  0  0  0  0  0  0  0  0  0
   -3.0005   15.6835   19.2813 H   0  0  0  0  0  0  0  0  0  0  0  0
   -5.1642   15.4936   17.8356 H   0  0  0  0  0  0  0  0  0  0  0  0
   -3.9907   14.9677   16.5407 H   0  0  0  0  0  0  0  0  0  0  0  0
   -4.7369   13.6229   19.1280 H   0  0  0  0  0  0  0  0  0  0  0  0
   -4.6061   12.9822   17.4020 H   0  0  0  0  0  0  0  0  0  0  0  0
   -2.5892   12.2457   17.7272 H   0  0  0  0  0  0  0  0  0  0  0  0
   -2.0838   13.8736   18.4309 H   0  0  0  0  0  0  0  0  0  0  0  0
   -2.5230   13.2189   20.6025 H   0  0  0  0  0  0  0  0  0  0  0  0
   -3.4802   11.7662   20.0522 H   0  0  0  0  0  0  0  0  0  0  0  0
   -0.4889   12.1059   19.6471 H   0  0  0  0  0  0  0  0  0  0  0  0
   -1.2803   11.2045   21.0240 H   0  0  0  0  0  0  0  0  0  0  0  0
   -2.3908   10.2645   18.5638 H   0  0  0  0  0  0  0  0  0  0  0  0
   -0.5689   10.2499   18.4542 H   0  0  0  0  0  0  0  0  0  0  0  0
   -0.7717    8.2278   19.4062 H   0  0  0  0  0  0  0  0  0  0  0  0
   -0.9513    9.2239   20.9261 H   0  0  0  0  0  0  0  0  0  0  0  0
   -2.6075    7.3070   20.5377 H   0  0  0  0  0  0  0  0  0  0  0  0
   -3.2321    8.9903   20.9718 H   0  0  0  0  0  0  0  0  0  0  0  0
   -4.5335    9.0549   19.2250 H   0  0  0  0  0  0  0  0  0  0  0  0
   -3.1466    8.5856   18.1311 H   0  0  0  0  0  0  0  0  0  0  0  0
   -3.9346    6.5568   17.8487 H   0  0  0  0  0  0  0  0  0  0  0  0
   -4.1429    6.3566   19.6656 H   0  0  0  0  0  0  0  0  0  0  0  0
  1  2  1  0
  2  3  1  0
  3  4  1  0
  4  5  1  0
  5  6  1  0
  6  7  1  0
  7  8  1  0
  8  9  1  0
  9 10  1  0
 10 11  1  0
 11 12  1  0
 12 13  1  0
 13 14  1  0
 14 15  1  0
 15 16  1  0
 16 17  1  0
 17 18  1  0
 18 19  2  0
 18 20  1  0
  1 21  1  0
  1 22  1  0
  1 23  1  0
  2 24  1  0
  2 25  1  0
  3 26  1  0
  3 27  1  0
  4 28  1  0
  4 29  1  0
  5 30  1  0
  5 31  1  0
  6 32  1  0
  6 33  1  0
  7 34  1  0
  7 35  1  0
  8 36  1  0
  8 37  1  0
  9 38  1  0
  9 39  1  0
 10 40  1  0
 10 41  1  0
 11 42  1  0
 11 43  1  0
 12 44  1  0
 12 45  1  0
 13 46  1  0
 13 47  1  0
 14 48  1  0
 14 49  1  0
 15 50  1  0
 15 51  1  0
 16 52  1  0
 16 53  1  0
 17 54  1  0
 17 55  1  0
M  CHG  1  20  -1
M  END
>  <meeko>  (3) 
{"is_sidechain": [false], "free_energy": -7.17, "intermolecular_energy": -13.911, "internal_energy": -1.288}

$$$$
3uex_ligand
     RDKit          3D

 55 54  0  0  0  0  0  0  0  0999 V2000
   -4.4220   19.2150   16.1400 C   0  0  0  0  0  0  0  0  0  0  0  0
   -4.8370   18.1680   17.1610 C   0  0  0  0  0  0  0  0  0  0  0  0
   -3.6490   17.7230   18.0160 C   0  0  0  0  0  0  0  0  0  0  0  0
   -3.2110   16.2830   17.7310 C   0  0  0  0  0  0  0  0  0  0  0  0
   -2.4530   15.5890   18.8710 C   0  0  0  0  0  0  0  0  0  0  0  0
   -2.2990   14.0720   18.7300 C   0  0  0  0  0  0  0  0  0  0  0  0
   -3.6100   13.3050   18.5150 C   0  0  0  0  0  0  0  0  0  0  0  0
   -3.5380   11.8530   18.9970 C   0  0  0  0  0  0  0  0  0  0  0  0
   -2.7700   10.9350   18.0410 C   0  0  0  0  0  0  0  0  0  0  0  0
   -1.4090   10.4370   18.5390 C   0  0  0  0  0  0  0  0  0  0  0  0
   -1.3980    9.8430   19.9520 C   0  0  0  0  0  0  0  0  0  0  0  0
   -1.5320    8.3190   19.9660 C   0  0  0  0  0  0  0  0  0  0  0  0
   -2.9430    7.8350   20.3200 C   0  0  0  0  0  0  0  0  0  0  0  0
   -3.8180    7.5710   19.0920 C   0  0  0  0  0  0  0  0  0  0  0  0
   -5.1750    8.2820   19.1470 C   0  0  0  0  0  0  0  0  0  0  0  0
   -6.3790    7.4710   18.6580 C   0  0  0  0  0  0  0  0  0  0  0  0
   -6.6230    6.1970   19.4600 C   0  0  0  0  0  0  0  0  0  0  0  0
   -6.5800    4.8980   18.6470 C   0  0  0  0  0  0  0  0  0  0  0  0
   -7.4530    4.0470   18.9890 O   0  0  0  0  0  0  0  0  0  0  0  0
   -5.7040    4.8240   17.7430 O   0  0  0  0  0  0  0  0  0  0  0  0
   -4.0652   20.1151   16.6621 H   0  0  0  0  0  0  0  0  0  0  0  0
   -3.6153   18.8128   15.5096 H   0  0  0  0  0  0  0  0  0  0  0  0
   -5.2852   19.4747   15.5096 H   0  0  0  0  0  0  0  0  0  0  0  0
   -5.6106   18.5940   17.8167 H   0  0  0  0  0  0  0  0  0  0  0  0
   -5.2237   17.2911   16.6211 H   0  0  0  0  0  0  0  0  0  0  0  0
   -2.8009   18.3937   17.8135 H   0  0  0  0  0  0  0  0  0  0  0  0
   -3.9665   17.7677   19.0682 H   0  0  0  0  0  0  0  0  0  0  0  0
   -4.1119   15.6910   17.5124 H   0  0  0  0  0  0  0  0  0  0  0  0
   -2.5059   16.3411   16.8887 H   0  0  0  0  0  0  0  0  0  0  0  0
   -1.4461   16.0286   18.9259 H   0  0  0  0  0  0  0  0  0  0  0  0
   -3.0557   15.7493   19.7771 H   0  0  0  0  0  0  0  0  0  0  0  0
   -1.6427   13.8740   17.8697 H   0  0  0  0  0  0  0  0  0  0  0  0
   -1.8865   13.7146   19.6850 H   0  0  0  0  0  0  0  0  0  0  0  0
   -4.4113   13.8184   19.0666 H   0  0  0  0  0  0  0  0  0  0  0  0
   -3.8059   13.2838   17.4328 H   0  0  0  0  0  0  0  0  0  0  0  0
   -3.0375   11.8346   19.9764 H   0  0  0  0  0  0  0  0  0  0  0  0
   -4.5700   11.4763   19.0520 H   0  0  0  0  0  0  0  0  0  0  0  0
   -3.3986   10.0546   17.8417 H   0  0  0  0  0  0  0  0  0  0  0  0
   -2.5560   11.5448   17.1509 H   0  0  0  0  0  0  0  0  0  0  0  0
   -1.0570    9.6613   17.8430 H   0  0  0  0  0  0  0  0  0  0  0  0
   -0.7605   11.3245   18.5805 H   0  0  0  0  0  0  0  0  0  0  0  0
   -0.4496   10.1151   20.4383 H   0  0  0  0  0  0  0  0  0  0  0  0
   -2.2683   10.2527   20.4857 H   0  0  0  0  0  0  0  0  0  0  0  0
   -1.2726    7.9370   18.9676 H   0  0  0  0  0  0  0  0  0  0  0  0
   -0.8539    7.9406   20.7451 H   0  0  0  0  0  0  0  0  0  0  0  0
   -2.8578    6.9013   20.8954 H   0  0  0  0  0  0  0  0  0  0  0  0
   -3.4266    8.6357   20.8988 H   0  0  0  0  0  0  0  0  0  0  0  0
   -3.2785    7.9180   18.1984 H   0  0  0  0  0  0  0  0  0  0  0  0
   -4.0189    6.4899   19.0628 H   0  0  0  0  0  0  0  0  0  0  0  0
   -5.3635    8.5668   20.1927 H   0  0  0  0  0  0  0  0  0  0  0  0
   -5.0913    9.1339   18.4562 H   0  0  0  0  0  0  0  0  0  0  0  0
   -7.2762    8.1035   18.7285 H   0  0  0  0  0  0  0  0  0  0  0  0
   -6.1633    7.1649   17.6237 H   0  0  0  0  0  0  0  0  0  0  0  0
   -5.8529    6.1345   20.2429 H   0  0  0  0  0  0  0  0  0  0  0  0
   -7.6459    6.2762   19.8567 H   0  0  0  0  0  0  0  0  0  0  0  0
  1  2  1  0
  2  3  1  0
  3  4  1  0
  4  5  1  0
  5  6  1  0
  6  7  1  0
  7  8  1  0
  8  9  1  0
  9 10  1  0
 10 11  1  0
 11 12  1  0
 12 13  1  0
 13 14  1  0
 14 15  1  0
 15 16  1  0
 16 17  1  0
 17 18  1  0
 18 19  2  0
 18 20  1  0
  1 21  1  0
  1 22  1  0
  1 23  1  0
  2 24  1  0
  2 25  1  0
  3 26  1  0
  3 27  1  0
  4 28  1  0
  4 29  1  0
  5 30  1  0
  5 31  1  0
  6 32  1  0
  6 33  1  0
  7 34  1  0
  7 35  1  0
  8 36  1  0
  8 37  1  0
  9 38  1  0
  9 39  1  0
 10 40  1  0
 10 41  1  0
 11 42  1  0
 11 43  1  0
 12 44  1  0
 12 45  1  0
 13 46  1  0
 13 47  1  0
 14 48  1  0
 14 49  1  0
 15 50  1  0
 15 51  1  0
 16 52  1  0
 16 53  1  0
 17 54  1  0
 17 55  1  0
M  CHG  1  20  -1
M  END
>  <meeko>  (4) 
{"is_sidechain": [false], "free_energy": -6.561, "intermolecular_energy": -12.756, "internal_energy": -1.265}

$$$$
3uex_ligand
     RDKit          3D

 55 54  0  0  0  0  0  0  0  0999 V2000
   -5.5530    7.9780   19.1280 C   0  0  0  0  0  0  0  0  0  0  0  0
   -4.5890    7.0210   18.4450 C   0  0  0  0  0  0  0  0  0  0  0  0
   -3.3730    6.7330   19.3270 C   0  0  0  0  0  0  0  0  0  0  0  0
   -3.0490    7.8740   20.2950 C   0  0  0  0  0  0  0  0  0  0  0  0
   -1.7200    8.5990   20.0360 C   0  0  0  0  0  0  0  0  0  0  0  0
   -1.7770    9.7290   19.0040 C   0  0  0  0  0  0  0  0  0  0  0  0
   -2.2390   11.0840   19.5550 C   0  0  0  0  0  0  0  0  0  0  0  0
   -3.5220   11.5930   18.8900 C   0  0  0  0  0  0  0  0  0  0  0  0
   -3.4470   13.0670   18.4790 C   0  0  0  0  0  0  0  0  0  0  0  0
   -2.2380   13.8470   19.0030 C   0  0  0  0  0  0  0  0  0  0  0  0
   -2.2140   15.3410   18.6620 C   0  0  0  0  0  0  0  0  0  0  0  0
   -3.0510   15.6920   17.4290 C   0  0  0  0  0  0  0  0  0  0  0  0
   -4.3110   16.5000   17.7580 C   0  0  0  0  0  0  0  0  0  0  0  0
   -4.0830   18.0140   17.7280 C   0  0  0  0  0  0  0  0  0  0  0  0
   -4.7560   18.7070   16.5390 C   0  0  0  0  0  0  0  0  0  0  0  0
   -3.9500   18.7410   15.2370 C   0  0  0  0  0  0  0  0  0  0  0  0
   -4.6710   18.1010   14.0550 C   0  0  0  0  0  0  0  0  0  0  0  0
   -5.3510   16.7610   14.3560 C   0  0  0  0  0  0  0  0  0  0  0  0
   -4.5860   15.7590   14.2420 O   0  0  0  0  0  0  0  0  0  0  0  0
   -6.5680   16.8030   14.6820 O   0  0  0  0  0  0  0  0  0  0  0  0
   -5.4549    7.8806   20.2193 H   0  0  0  0  0  0  0  0  0  0  0  0
   -5.3180    9.0103   18.8294 H   0  0  0  0  0  0  0  0  0  0  0  0
   -6.5836    7.7355   18.8294 H   0  0  0  0  0  0  0  0  0  0  0  0
   -5.1111    6.0759   18.2349 H   0  0  0  0  0  0  0  0  0  0  0  0
   -4.2387    7.4879   17.5126 H   0  0  0  0  0  0  0  0  0  0  0  0
   -3.5728    5.8234   19.9124 H   0  0  0  0  0  0  0  0  0  0  0  0
   -2.5061    6.6121   18.6608 H   0  0  0  0  0  0  0  0  0  0  0  0
   -3.8588    8.6155   20.2290 H   0  0  0  0  0  0  0  0  0  0  0  0
   -2.9538    7.4114   21.2884 H   0  0  0  0  0  0  0  0  0  0  0  0
   -1.3759    9.0272   20.9890 H   0  0  0  0  0  0  0  0  0  0  0  0
   -1.0390    7.8425   19.6190 H   0  0  0  0  0  0  0  0  0  0  0  0
   -0.7694    9.8574   18.5818 H   0  0  0  0  0  0  0  0  0  0  0  0
   -2.5266    9.4276   18.2575 H   0  0  0  0  0  0  0  0  0  0  0  0
   -2.4210   10.9800   20.6348 H   0  0  0  0  0  0  0  0  0  0  0  0
   -1.4449   11.8147   19.3418 H   0  0  0  0  0  0  0  0  0  0  0  0
   -3.7126   10.9889   17.9907 H   0  0  0  0  0  0  0  0  0  0  0  0
   -4.3311   11.5014   19.6296 H   0  0  0  0  0  0  0  0  0  0  0  0
   -3.4250   13.1097   17.3800 H   0  0  0  0  0  0  0  0  0  0  0  0
   -4.3285   13.5467   18.9294 H   0  0  0  0  0  0  0  0  0  0  0  0
   -2.2218   13.7498   20.0986 H   0  0  0  0  0  0  0  0  0  0  0  0
   -1.3599   13.4109   18.5042 H   0  0  0  0  0  0  0  0  0  0  0  0
   -2.6069   15.9023   19.5226 H   0  0  0  0  0  0  0  0  0  0  0  0
   -1.1711   15.6078   18.4358 H   0  0  0  0  0  0  0  0  0  0  0  0
   -2.4279   16.2826   16.7413 H   0  0  0  0  0  0  0  0  0  0  0  0
   -3.3816   14.7436   16.9805 H   0  0  0  0  0  0  0  0  0  0  0  0
   -5.0890   16.2492   17.0220 H   0  0  0  0  0  0  0  0  0  0  0  0
   -4.6102   16.2352   18.7829 H   0  0  0  0  0  0  0  0  0  0  0  0
   -4.4851   18.4457   18.6565 H   0  0  0  0  0  0  0  0  0  0  0  0
   -2.9998   18.1774   17.6286 H   0  0  0  0  0  0  0  0  0  0  0  0
   -5.7018   18.1834   16.3357 H   0  0  0  0  0  0  0  0  0  0  0  0
   -4.8786   19.7581   16.8392 H   0  0  0  0  0  0  0  0  0  0  0  0
   -3.7370   19.7909   14.9873 H   0  0  0  0  0  0  0  0  0  0  0  0
   -3.0336   18.1576   15.4099 H   0  0  0  0  0  0  0  0  0  0  0  0
   -5.4420   18.8034   13.7053 H   0  0  0  0  0  0  0  0  0  0  0  0
   -3.8971   17.8894   13.3024 H   0  0  0  0  0  0  0  0  0  0  0  0
  1  2  1  0
  2  3  1  0
  3  4  1  0
  4  5  1  0
  5  6  1  0
  6  7  1  0
  7  8  1  0
  8  9  1  0
  9 10  1  0
 10 11  1  0
 11 12  1  0
 12 13  1  0
 13 14  1  0
 14 15  1  0
 15 16  1  0
 16 17  1  0
 17 18  1  0
 18 19  2  0
 18 20  1  0
  1 21  1  0
  1 22  1  0
  1 23  1  0
  2 24  1  0
  2 25  1  0
  3 26  1  0
  3 27  1  0
  4 28  1  0
  4 29  1  0
  5 30  1  0
  5 31  1  0
  6 32  1  0
  6 33  1  0
  7 34  1  0
  7 35  1  0
  8 36  1  0
  8 37  1  0
  9 38  1  0
  9 39  1  0
 10 40  1  0
 10 41  1  0
 11 42  1  0
 11 43  1  0
 12 44  1  0
 12 45  1  0
 13 46  1  0
 13 47  1  0
 14 48  1  0
 14 49  1  0
 15 50  1  0
 15 51  1  0
 16 52  1  0
 16 53  1  0
 17 54  1  0
 17 55  1  0
M  CHG  1  20  -1
M  END
>  <meeko>  (5) 
{"is_sidechain": [false], "free_energy": -6.397, "intermolecular_energy": -12.53, "internal_energy": -1.173}

$$$$
3uex_ligand
     RDKit          3D

 55 54  0  0  0  0  0  0  0  0999 V2000
   -5.2600   17.5310   14.2870 C   0  0  0  0  0  0  0  0  0  0  0  0
   -5.0410   16.0620   13.9620 C   0  0  0  0  0  0  0  0  0  0  0  0
   -4.3160   15.3420   15.1010 C   0  0  0  0  0  0  0  0  0  0  0  0
   -3.3490   16.2510   15.8650 C   0  0  0  0  0  0  0  0  0  0  0  0
   -3.3350   16.0620   17.3890 C   0  0  0  0  0  0  0  0  0  0  0  0
   -4.3460   15.0510   17.9360 C   0  0  0  0  0  0  0  0  0  0  0  0
   -3.7880   13.6420   18.1750 C   0  0  0  0  0  0  0  0  0  0  0  0
   -2.5100   13.6420   19.0190 C   0  0  0  0  0  0  0  0  0  0  0  0
   -2.3660   12.3950   19.8990 C   0  0  0  0  0  0  0  0  0  0  0  0
   -1.1380   11.5220   19.6260 C   0  0  0  0  0  0  0  0  0  0  0  0
   -1.4050   10.2270   18.8490 C   0  0  0  0  0  0  0  0  0  0  0  0
   -1.4360    8.9840   19.7420 C   0  0  0  0  0  0  0  0  0  0  0  0
   -2.7610    8.2170   19.6710 C   0  0  0  0  0  0  0  0  0  0  0  0
   -3.2640    7.7500   21.0400 C   0  0  0  0  0  0  0  0  0  0  0  0
   -3.8700    6.3420   21.0170 C   0  0  0  0  0  0  0  0  0  0  0  0
   -2.9990    5.2450   20.4000 C   0  0  0  0  0  0  0  0  0  0  0  0
   -1.7840    4.8810   21.2480 C   0  0  0  0  0  0  0  0  0  0  0  0
   -0.4390    4.9400   20.5160 C   0  0  0  0  0  0  0  0  0  0  0  0
   -0.3290    4.1050   19.5710 O   0  0  0  0  0  0  0  0  0  0  0  0
    0.3900    5.7990   20.9230 O   0  0  0  0  0  0  0  0  0  0  0  0
   -5.2801   17.6660   15.3785 H   0  0  0  0  0  0  0  0  0  0  0  0
   -4.4408   18.1273   13.8588 H   0  0  0  0  0  0  0  0  0  0  0  0
   -6.2175   17.8625   13.8588 H   0  0  0  0  0  0  0  0  0  0  0  0
   -6.0171   15.5819   13.7986 H   0  0  0  0  0  0  0  0  0  0  0  0
   -4.4182   15.9959   13.0577 H   0  0  0  0  0  0  0  0  0  0  0  0
   -5.0671   14.9576   15.8068 H   0  0  0  0  0  0  0  0  0  0  0  0
   -3.7213   14.5327   14.6524 H   0  0  0  0  0  0  0  0  0  0  0  0
   -2.3332   16.0583   15.4895 H   0  0  0  0  0  0  0  0  0  0  0  0
   -3.6964   17.2799   15.6896 H   0  0  0  0  0  0  0  0  0  0  0  0
   -2.3286   15.7264   17.6798 H   0  0  0  0  0  0  0  0  0  0  0  0
   -3.6183   17.0349   17.8170 H   0  0  0  0  0  0  0  0  0  0  0  0
   -4.7278   15.4340   18.8939 H   0  0  0  0  0  0  0  0  0  0  0  0
   -5.1248   14.9472   17.1662 H   0  0  0  0  0  0  0  0  0  0  0  0
   -4.5520   13.0455   18.6951 H   0  0  0  0  0  0  0  0  0  0  0  0
   -3.5348   13.2164   17.1928 H   0  0  0  0  0  0  0  0  0  0  0  0
   -1.6444   13.6939   18.3422 H   0  0  0  0  0  0  0  0  0  0  0  0
   -2.5627   14.5113   19.6909 H   0  0  0  0  0  0  0  0  0  0  0  0
   -2.3181   12.7258   20.9470 H   0  0  0  0  0  0  0  0  0  0  0  0
   -3.2370   11.7646   19.6667 H   0  0  0  0  0  0  0  0  0  0  0  0
   -0.4186   12.1210   19.0484 H   0  0  0  0  0  0  0  0  0  0  0  0
   -0.7656   11.2095   20.6128 H   0  0  0  0  0  0  0  0  0  0  0  0
   -2.3769   10.3175   18.3418 H   0  0  0  0  0  0  0  0  0  0  0  0
   -0.5776   10.0969   18.1359 H   0  0  0  0  0  0  0  0  0  0  0  0
   -0.6254    8.3095   19.4291 H   0  0  0  0  0  0  0  0  0  0  0  0
   -1.3141    9.3266   20.7802 H   0  0  0  0  0  0  0  0  0  0  0  0
   -3.5218    8.8746   19.2251 H   0  0  0  0  0  0  0  0  0  0  0  0
   -2.5845    7.3168   19.0640 H   0  0  0  0  0  0  0  0  0  0  0  0
   -2.4177    7.7541   21.7426 H   0  0  0  0  0  0  0  0  0  0  0  0
   -4.0618    8.4424   21.3468 H   0  0  0  0  0  0  0  0  0  0  0  0
   -4.0890    6.0532   22.0556 H   0  0  0  0  0  0  0  0  0  0  0  0
   -4.7581    6.4126   20.3717 H   0  0  0  0  0  0  0  0  0  0  0  0
   -3.6154    4.3432   20.2703 H   0  0  0  0  0  0  0  0  0  0  0  0
   -2.6201    5.6337   19.4433 H   0  0  0  0  0  0  0  0  0  0  0  0
   -1.7403    5.5781   22.0978 H   0  0  0  0  0  0  0  0  0  0  0  0
   -1.9234    3.8321   21.5485 H   0  0  0  0  0  0  0  0  0  0  0  0
  1  2  1  0
  2  3  1  0
  3  4  1  0
  4  5  1  0
  5  6  1  0
  6  7  1  0
  7  8  1  0
  8  9  1  0
  9 10  1  0
 10 11  1  0
 11 12  1  0
 12 13  1  0
 13 14  1  0
 14 15  1  0
 15 16  1  0
 16 17  1  0
 17 18  1  0
 18 19  2  0
 18 20  1  0
  1 21  1  0
  1 22  1  0
  1 23  1  0
  2 24  1  0
  2 25  1  0
  3 26  1  0
  3 27  1  0
  4 28  1  0
  4 29  1  0
  5 30  1  0
  5 31  1  0
  6 32  1  0
  6 33  1  0
  7 34  1  0
  7 35  1  0
  8 36  1  0
  8 37  1  0
  9 38  1  0
  9 39  1  0
 10 40  1  0
 10 41  1  0
 11 42  1  0
 11 43  1  0
 12 44  1  0
 12 45  1  0
 13 46  1  0
 13 47  1  0
 14 48  1  0
 14 49  1  0
 15 50  1  0
 15 51  1  0
 16 52  1  0
 16 53  1  0
 17 54  1  0
 17 55  1  0
M  CHG  1  20  -1
M  END
>  <meeko>  (6) 
{"is_sidechain": [false], "free_energy": -6.386, "intermolecular_energy": -12.699, "internal_energy": -0.984}

$$$$
3uex_ligand
     RDKit          3D

 55 54  0  0  0  0  0  0  0  0999 V2000
   -6.6580    8.3150   18.8540 C   0  0  0  0  0  0  0  0  0  0  0  0
   -5.4440    7.4020   18.8050 C   0  0  0  0  0  0  0  0  0  0  0  0
   -5.6720    6.1280   19.6200 C   0  0  0  0  0  0  0  0  0  0  0  0
   -4.3900    5.5840   20.2560 C   0  0  0  0  0  0  0  0  0  0  0  0
   -3.4570    6.6410   20.8630 C   0  0  0  0  0  0  0  0  0  0  0  0
   -2.0210    6.6320   20.3330 C   0  0  0  0  0  0  0  0  0  0  0  0
   -1.3260    8.0000   20.3250 C   0  0  0  0  0  0  0  0  0  0  0  0
   -2.2470    9.1340   19.8630 C   0  0  0  0  0  0  0  0  0  0  0  0
   -1.9160    9.6470   18.4570 C   0  0  0  0  0  0  0  0  0  0  0  0
   -2.1730   11.1370   18.2120 C   0  0  0  0  0  0  0  0  0  0  0  0
   -3.6020   11.6180   18.4890 C   0  0  0  0  0  0  0  0  0  0  0  0
   -3.7200   13.1420   18.5690 C   0  0  0  0  0  0  0  0  0  0  0  0
   -2.4520   13.8240   19.0920 C   0  0  0  0  0  0  0  0  0  0  0  0
   -2.3140   15.2790   18.6340 C   0  0  0  0  0  0  0  0  0  0  0  0
   -3.6300   15.8860   18.1350 C   0  0  0  0  0  0  0  0  0  0  0  0
   -3.6520   17.4100   17.9840 C   0  0  0  0  0  0  0  0  0  0  0  0
   -4.8080   17.9230   17.1310 C   0  0  0  0  0  0  0  0  0  0  0  0
   -4.4910   18.0970   15.6420 C   0  0  0  0  0  0  0  0  0  0  0  0
   -4.5300   17.0200   14.9780 O   0  0  0  0  0  0  0  0  0  0  0  0
   -4.2360   19.2680   15.2500 O   0  0  0  0  0  0  0  0  0  0  0  0
   -6.9242    8.5152   19.9024 H   0  0  0  0  0  0  0  0  0  0  0  0
   -6.4244    9.2631   18.3475 H   0  0  0  0  0  0  0  0  0  0  0  0
   -7.5041    7.8275   18.3475 H   0  0  0  0  0  0  0  0  0  0  0  0
   -5.2448    7.1269   17.7587 H   0  0  0  0  0  0  0  0  0  0  0  0
   -4.5874    7.9408   19.2363 H   0  0  0  0  0  0  0  0  0  0  0  0
   -6.3934    6.3490   20.4205 H   0  0  0  0  0  0  0  0  0  0  0  0
   -6.0467    5.3590   18.9284 H   0  0  0  0  0  0  0  0  0  0  0  0
   -4.6777    4.8857   21.0557 H   0  0  0  0  0  0  0  0  0  0  0  0
   -3.8233    5.1119   19.4400 H   0  0  0  0  0  0  0  0  0  0  0  0
   -3.8881    7.6320   20.6579 H   0  0  0  0  0  0  0  0  0  0  0  0
   -3.3859    6.4027   21.9345 H   0  0  0  0  0  0  0  0  0  0  0  0
   -1.4288    5.9517   20.9626 H   0  0  0  0  0  0  0  0  0  0  0  0
   -2.0822    6.3112   19.2826 H   0  0  0  0  0  0  0  0  0  0  0  0
   -0.9787    8.2232   21.3446 H   0  0  0  0  0  0  0  0  0  0  0  0
   -0.4907    7.9417   19.6116 H   0  0  0  0  0  0  0  0  0  0  0  0
   -3.2834    8.7654   19.8655 H   0  0  0  0  0  0  0  0  0  0  0  0
   -2.1050    9.9740   20.5589 H   0  0  0  0  0  0  0  0  0  0  0  0
   -0.8495    9.4535   18.2698 H   0  0  0  0  0  0  0  0  0  0  0  0
   -2.5947    9.1116   17.7768 H   0  0  0  0  0  0  0  0  0  0  0  0
   -1.4922   11.7087   18.8598 H   0  0  0  0  0  0  0  0  0  0  0  0
   -2.0048   11.2981   17.1369 H   0  0  0  0  0  0  0  0  0  0  0  0
   -4.2549   11.2587   17.6799 H   0  0  0  0  0  0  0  0  0  0  0  0
   -3.8985   11.2151   19.4687 H   0  0  0  0  0  0  0  0  0  0  0  0
   -3.9335   13.5285   17.5615 H   0  0  0  0  0  0  0  0  0  0  0  0
   -4.5274   13.3681   19.2810 H   0  0  0  0  0  0  0  0  0  0  0  0
   -2.4733   13.8046   20.1916 H   0  0  0  0  0  0  0  0  0  0  0  0
   -1.5928   13.2712   18.6843 H   0  0  0  0  0  0  0  0  0  0  0  0
   -1.9524   15.8790   19.4821 H   0  0  0  0  0  0  0  0  0  0  0  0
   -1.6101   15.2887   17.7888 H   0  0  0  0  0  0  0  0  0  0  0  0
   -3.8512   15.4471   17.1509 H   0  0  0  0  0  0  0  0  0  0  0  0
   -4.3760   15.6540   18.9094 H   0  0  0  0  0  0  0  0  0  0  0  0
   -3.7337   17.8575   18.9856 H   0  0  0  0  0  0  0  0  0  0  0  0
   -2.7216   17.6967   17.4720 H   0  0  0  0  0  0  0  0  0  0  0  0
   -5.6404   17.2095   17.2209 H   0  0  0  0  0  0  0  0  0  0  0  0
   -5.0475   18.9267   17.5121 H   0  0  0  0  0  0  0  0  0  0  0  0
  1  2  1  0
  2  3  1  0
  3  4  1  0
  4  5  1  0
  5  6  1  0
  6  7  1  0
  7  8  1  0
  8  9  1  0
  9 10  1  0
 10 11  1  0
 11 12  1  0
 12 13  1  0
 13 14  1  0
 14 15  1  0
 15 16  1  0
 16 17  1  0
 17 18  1  0
 18 19  2  0
 18 20  1  0
  1 21  1  0
  1 22  1  0
  1 23  1  0
  2 24  1  0
  2 25  1  0
  3 26  1  0
  3 27  1  0
  4 28  1  0
  4 29  1  0
  5 30  1  0
  5 31  1  0
  6 32  1  0
  6 33  1  0
  7 34  1  0
  7 35  1  0
  8 36  1  0
  8 37  1  0
  9 38  1  0
  9 39  1  0
 10 40  1  0
 10 41  1  0
 11 42  1  0
 11 43  1  0
 12 44  1  0
 12 45  1  0
 13 46  1  0
 13 47  1  0
 14 48  1  0
 14 49  1  0
 15 50  1  0
 15 51  1  0
 16 52  1  0
 16 53  1  0
 17 54  1  0
 17 55  1  0
M  CHG  1  20  -1
M  END
>  <meeko>  (7) 
{"is_sidechain": [false], "free_energy": -6.313, "intermolecular_energy": -12.387, "internal_energy": -1.154}

$$$$
3uex_ligand
     RDKit          3D

 55 54  0  0  0  0  0  0  0  0999 V2000
   -6.6700    7.6950   19.2500 C   0  0  0  0  0  0  0  0  0  0  0  0
   -5.8510    6.4190   19.3580 C   0  0  0  0  0  0  0  0  0  0  0  0
   -4.4630    6.5940   18.7390 C   0  0  0  0  0  0  0  0  0  0  0  0
   -3.9000    8.0060   18.9170 C   0  0  0  0  0  0  0  0  0  0  0  0
   -3.0290    8.2150   20.1630 C   0  0  0  0  0  0  0  0  0  0  0  0
   -1.6150    8.7400   19.8980 C   0  0  0  0  0  0  0  0  0  0  0  0
   -1.4860   10.2680   19.8810 C   0  0  0  0  0  0  0  0  0  0  0  0
   -1.8320   10.8820   18.5210 C   0  0  0  0  0  0  0  0  0  0  0  0
   -3.2110   11.5510   18.4920 C   0  0  0  0  0  0  0  0  0  0  0  0
   -3.2420   13.0360   18.8680 C   0  0  0  0  0  0  0  0  0  0  0  0
   -4.1330   13.9230   17.9910 C   0  0  0  0  0  0  0  0  0  0  0  0
   -3.5350   15.3080   17.7320 C   0  0  0  0  0  0  0  0  0  0  0  0
   -3.3310   15.6140   16.2450 C   0  0  0  0  0  0  0  0  0  0  0  0
   -4.3270   14.8890   15.3360 C   0  0  0  0  0  0  0  0  0  0  0  0
   -4.8330   15.7540   14.1760 C   0  0  0  0  0  0  0  0  0  0  0  0
   -5.5810   17.0320   14.5660 C   0  0  0  0  0  0  0  0  0  0  0  0
   -4.7560   18.3020   14.3850 C   0  0  0  0  0  0  0  0  0  0  0  0
   -4.5390   19.1240   15.6600 C   0  0  0  0  0  0  0  0  0  0  0  0
   -4.8150   18.5020   16.7270 O   0  0  0  0  0  0  0  0  0  0  0  0
   -4.1140   20.3020   15.5090 O   0  0  0  0  0  0  0  0  0  0  0  0
   -6.9074    8.0648   20.2584 H   0  0  0  0  0  0  0  0  0  0  0  0
   -6.0918    8.4569   18.7067 H   0  0  0  0  0  0  0  0  0  0  0  0
   -7.6035    7.4867   18.7067 H   0  0  0  0  0  0  0  0  0  0  0  0
   -5.7388    6.1543   20.4198 H   0  0  0  0  0  0  0  0  0  0  0  0
   -6.3766    5.6223   18.8111 H   0  0  0  0  0  0  0  0  0  0  0  0
   -3.7748    5.8801   19.2151 H   0  0  0  0  0  0  0  0  0  0  0  0
   -4.5607    6.4136   17.6583 H   0  0  0  0  0  0  0  0  0  0  0  0
   -3.2897    8.2420   18.0328 H   0  0  0  0  0  0  0  0  0  0  0  0
   -4.7710    8.6661   19.0418 H   0  0  0  0  0  0  0  0  0  0  0  0
   -3.5410    8.9357   20.8175 H   0  0  0  0  0  0  0  0  0  0  0  0
   -2.9022    7.2195   20.6135 H   0  0  0  0  0  0  0  0  0  0  0  0
   -0.9527    8.3499   20.6849 H   0  0  0  0  0  0  0  0  0  0  0  0
   -1.3424    8.3962   18.8893 H   0  0  0  0  0  0  0  0  0  0  0  0
   -2.1664   10.6858   20.6377 H   0  0  0  0  0  0  0  0  0  0  0  0
   -0.4350   10.5122   20.0948 H   0  0  0  0  0  0  0  0  0  0  0  0
   -1.0717   11.6381   18.2755 H   0  0  0  0  0  0  0  0  0  0  0  0
   -1.8519   10.0618   17.7883 H   0  0  0  0  0  0  0  0  0  0  0  0
   -3.6118   11.4530   17.4723 H   0  0  0  0  0  0  0  0  0  0  0  0
   -3.8077   11.0368   19.2599 H   0  0  0  0  0  0  0  0  0  0  0  0
   -3.6013   13.1152   19.9046 H   0  0  0  0  0  0  0  0  0  0  0  0
   -2.2156   13.4044   18.7236 H   0  0  0  0  0  0  0  0  0  0  0  0
   -4.2833   13.4205   17.0241 H   0  0  0  0  0  0  0  0  0  0  0  0
   -5.0800   14.0711   18.5307 H   0  0  0  0  0  0  0  0  0  0  0  0
   -4.2126   16.0648   18.1540 H   0  0  0  0  0  0  0  0  0  0  0  0
   -2.5429   15.3273   18.2067 H   0  0  0  0  0  0  0  0  0  0  0  0
   -3.4439   16.6975   16.0927 H   0  0  0  0  0  0  0  0  0  0  0  0
   -2.3252   15.2603   15.9743 H   0  0  0  0  0  0  0  0  0  0  0  0
   -3.8338   13.9990   14.9181 H   0  0  0  0  0  0  0  0  0  0  0  0
   -5.2001   14.6292   15.9526 H   0  0  0  0  0  0  0  0  0  0  0  0
   -3.9628   16.0455   13.5695 H   0  0  0  0  0  0  0  0  0  0  0  0
   -5.5672   15.1328   13.6421 H   0  0  0  0  0  0  0  0  0  0  0  0
   -6.4830   17.1113   13.9414 H   0  0  0  0  0  0  0  0  0  0  0  0
   -5.8193   16.9521   15.6369 H   0  0  0  0  0  0  0  0  0  0  0  0
   -3.7693   18.0143   13.9931 H   0  0  0  0  0  0  0  0  0  0  0  0
   -5.3292   18.9445   13.7004 H   0  0  0  0  0  0  0  0  0  0  0  0
  1  2  1  0
  2  3  1  0
  3  4  1  0
  4  5  1  0
  5  6  1  0
  6  7  1  0
  7  8  1  0
  8  9  1  0
  9 10  1  0
 10 11  1  0
 11 12  1  0
 12 13  1  0
 13 14  1  0
 14 15  1  0
 15 16  1  0
 16 17  1  0
 17 18  1  0
 18 19  2  0
 18 20  1  0
  1 21  1  0
  1 22  1  0
  1 23  1  0
  2 24  1  0
  2 25  1  0
  3 26  1  0
  3 27  1  0
  4 28  1  0
  4 29  1  0
  5 30  1  0
  5 31  1  0
  6 32  1  0
  6 33  1  0
  7 34  1  0
  7 35  1  0
  8 36  1  0
  8 37  1  0
  9 38  1  0
  9 39  1  0
 10 40  1  0
 10 41  1  0
 11 42  1  0
 11 43  1  0
 12 44  1  0
 12 45  1  0
 13 46  1  0
 13 47  1  0
 14 48  1  0
 14 49  1  0
 15 50  1  0
 15 51  1  0
 16 52  1  0
 16 53  1  0
 17 54  1  0
 17 55  1  0
M  CHG  1  20  -1
M  END
>  <meeko>  (8) 
{"is_sidechain": [false], "free_energy": -6.261, "intermolecular_energy": -12.541, "internal_energy": -0.899}

$$$$
3uex_ligand
     RDKit          3D

 55 54  0  0  0  0  0  0  0  0999 V2000
   -3.4510    6.2480   21.2480 C   0  0  0  0  0  0  0  0  0  0  0  0
   -2.9350    7.0580   20.0690 C   0  0  0  0  0  0  0  0  0  0  0  0
   -2.7140    8.5220   20.4540 C   0  0  0  0  0  0  0  0  0  0  0  0
   -1.4180    9.1040   19.8820 C   0  0  0  0  0  0  0  0  0  0  0  0
   -1.5990   10.1210   18.7460 C   0  0  0  0  0  0  0  0  0  0  0  0
   -3.0270   10.6360   18.5450 C   0  0  0  0  0  0  0  0  0  0  0  0
   -3.3560   11.9360   19.2900 C   0  0  0  0  0  0  0  0  0  0  0  0
   -2.1290   12.8280   19.5060 C   0  0  0  0  0  0  0  0  0  0  0  0
   -2.0870   14.0390   18.5680 C   0  0  0  0  0  0  0  0  0  0  0  0
   -2.4330   15.3890   19.2030 C   0  0  0  0  0  0  0  0  0  0  0  0
   -3.0140   16.4400   18.2510 C   0  0  0  0  0  0  0  0  0  0  0  0
   -4.0120   15.8570   17.2470 C   0  0  0  0  0  0  0  0  0  0  0  0
   -3.4110   15.6300   15.8550 C   0  0  0  0  0  0  0  0  0  0  0  0
   -4.4690   15.4200   14.7670 C   0  0  0  0  0  0  0  0  0  0  0  0
   -5.5160   16.5380   14.7130 C   0  0  0  0  0  0  0  0  0  0  0  0
   -5.1310   17.7820   13.9070 C   0  0  0  0  0  0  0  0  0  0  0  0
   -3.9890   18.5810   14.5260 C   0  0  0  0  0  0  0  0  0  0  0  0
   -4.4120   19.6120   15.5780 C   0  0  0  0  0  0  0  0  0  0  0  0
   -4.7420   20.7350   15.0960 O   0  0  0  0  0  0  0  0  0  0  0  0
   -4.3910   19.2350   16.7820 O   0  0  0  0  0  0  0  0  0  0  0  0
   -3.1434    6.7309   22.1873 H   0  0  0  0  0  0  0  0  0  0  0  0
   -4.5489    6.1962   21.2048 H   0  0  0  0  0  0  0  0  0  0  0  0
   -3.0339    5.2311   21.2048 H   0  0  0  0  0  0  0  0  0  0  0  0
   -1.9807    6.6288   19.7298 H   0  0  0  0  0  0  0  0  0  0  0  0
   -3.6863    7.0199   19.2664 H   0  0  0  0  0  0  0  0  0  0  0  0
   -3.5604    9.1148   20.0770 H   0  0  0  0  0  0  0  0  0  0  0  0
   -2.6373    8.5651   21.5505 H   0  0  0  0  0  0  0  0  0  0  0  0
   -0.8790    9.6023   20.7012 H   0  0  0  0  0  0  0  0  0  0  0  0
   -0.8709    8.2554   19.4454 H   0  0  0  0  0  0  0  0  0  0  0  0
   -0.9535   10.9858   18.9590 H   0  0  0  0  0  0  0  0  0  0  0  0
   -1.3359    9.5896   17.8195 H   0  0  0  0  0  0  0  0  0  0  0  0
   -3.1790   10.8107   17.4696 H   0  0  0  0  0  0  0  0  0  0  0  0
   -3.6938    9.8657   18.9597 H   0  0  0  0  0  0  0  0  0  0  0  0
   -4.0990   12.4974   18.7045 H   0  0  0  0  0  0  0  0  0  0  0  0
   -3.7406   11.6587   20.2826 H   0  0  0  0  0  0  0  0  0  0  0  0
   -2.1397   13.1909   20.5444 H   0  0  0  0  0  0  0  0  0  0  0  0
   -1.2401   12.2173   19.2894 H   0  0  0  0  0  0  0  0  0  0  0  0
   -1.0696   14.1111   18.1561 H   0  0  0  0  0  0  0  0  0  0  0  0
   -2.8652   13.8573   17.8121 H   0  0  0  0  0  0  0  0  0  0  0  0
   -3.1705   15.2092   19.9991 H   0  0  0  0  0  0  0  0  0  0  0  0
   -1.4805   15.8043   19.5639 H   0  0  0  0  0  0  0  0  0  0  0  0
   -3.5272   17.2077   18.8487 H   0  0  0  0  0  0  0  0  0  0  0  0
   -2.1758   16.8580   17.6742 H   0  0  0  0  0  0  0  0  0  0  0  0
   -4.3721   14.8920   17.6332 H   0  0  0  0  0  0  0  0  0  0  0  0
   -4.8256   16.5888   17.1347 H   0  0  0  0  0  0  0  0  0  0  0  0
   -2.8052   16.5086   15.5884 H   0  0  0  0  0  0  0  0  0  0  0  0
   -2.8077   14.7116   15.9055 H   0  0  0  0  0  0  0  0  0  0  0  0
   -3.9617   15.3698   13.7922 H   0  0  0  0  0  0  0  0  0  0  0  0
   -5.0012   14.4877   15.0069 H   0  0  0  0  0  0  0  0  0  0  0  0
   -6.4317   16.1200   14.2694 H   0  0  0  0  0  0  0  0  0  0  0  0
   -5.6344   16.8828   15.7508 H   0  0  0  0  0  0  0  0  0  0  0  0
   -4.8261   17.4630   12.8994 H   0  0  0  0  0  0  0  0  0  0  0  0
   -6.0123   18.4400   13.8886 H   0  0  0  0  0  0  0  0  0  0  0  0
   -3.2965   17.8719   15.0031 H   0  0  0  0  0  0  0  0  0  0  0  0
   -3.5337   19.1520   13.7034 H   0  0  0  0  0  0  0  0  0  0  0  0
  1  2  1  0
  2  3  1  0
  3  4  1  0
  4  5  1  0
  5  6  1  0
  6  7  1  0
  7  8  1  0
  8  9  1  0
  9 10  1  0
 10 11  1  0
 11 12  1  0
 12 13  1  0
 13 14  1  0
 14 15  1  0
 15 16  1  0
 16 17  1  0
 17 18  1  0
 18 19  2  0
 18 20  1  0
  1 21  1  0
  1 22  1  0
  1 23  1  0
  2 24  1  0
  2 25  1  0
  3 26  1  0
  3 27  1  0
  4 28  1  0
  4 29  1  0
  5 30  1  0
  5 31  1  0
  6 32  1  0
  6 33  1  0
  7 34  1  0
  7 35  1  0
  8 36  1  0
  8 37  1  0
  9 38  1  0
  9 39  1  0
 10 40  1  0
 10 41  1  0
 11 42  1  0
 11 43  1  0
 12 44  1  0
 12 45  1  0
 13 46  1  0
 13 47  1  0
 14 48  1  0
 14 49  1  0
 15 50  1  0
 15 51  1  0
 16 52  1  0
 16 53  1  0
 17 54  1  0
 17 55  1  0
M  CHG  1  20  -1
M  END
>  <meeko>  (9) 
{"is_sidechain": [false], "free_energy": -6.221, "intermolecular_energy": -12.463, "internal_energy": -0.9}

$$$$
