3ehy_ligand
     RDKit          3D

 29 29  0  0  0  0  0  0  0  0999 V2000
   -6.4730   -7.5450  -10.0410 C   0  0  0  0  0  0  0  0  0  0  0  0
   -6.4040   -6.9100   -8.7710 O   0  0  0  0  0  0  0  0  0  0  0  0
   -5.1630   -6.5160   -8.3460 C   0  0  0  0  0  0  0  0  0  0  0  0
   -4.0500   -6.2970   -9.1630 C   0  0  0  0  0  0  0  0  0  0  0  0
   -2.8340   -5.8960   -8.5980 C   0  0  0  0  0  0  0  0  0  0  0  0
   -2.7370   -5.7110   -7.2170 C   0  0  0  0  0  0  0  0  0  0  0  0
   -1.1750   -5.2190   -6.5160 S   0  0  0  0  0  0  0  0  0  0  0  0
   -0.2560   -5.0970   -7.6290 O   0  0  0  0  0  0  0  0  0  0  0  0
   -0.8930   -6.0930   -5.3990 O   0  0  0  0  0  0  0  0  0  0  0  0
   -1.5420   -3.6720   -5.9750 N   0  0  0  0  0  0  0  0  0  0  0  0
   -1.2140   -3.3510   -4.5380 C   0  0  2  0  0  0  0  0  0  0  0  0
   -2.4710   -3.5510   -3.7080 C   0  0  0  0  0  0  0  0  0  0  0  0
   -0.8120   -1.8470   -4.4540 C   0  0  0  0  0  0  0  0  0  0  0  0
    0.3040   -1.6010   -3.9180 O   0  0  0  0  0  0  0  0  0  0  0  0
   -1.6900   -1.0560   -4.9270 O   0  0  0  0  0  0  0  0  0  0  0  0
   -3.8400   -5.9340   -6.3920 C   0  0  0  0  0  0  0  0  0  0  0  0
   -5.0500   -6.3350   -6.9630 C   0  0  0  0  0  0  0  0  0  0  0  0
   -6.5909   -8.6299   -9.9026 H   0  0  0  0  0  0  0  0  0  0  0  0
   -7.3336   -7.1512  -10.6016 H   0  0  0  0  0  0  0  0  0  0  0  0
   -5.5479   -7.3453  -10.6016 H   0  0  0  0  0  0  0  0  0  0  0  0
   -4.1300   -6.4400  -10.2507 H   0  0  0  0  0  0  0  0  0  0  0  0
   -1.9569   -5.7270   -9.2399 H   0  0  0  0  0  0  0  0  0  0  0  0
   -1.0090   -2.9830   -6.5440 H   0  0  0  0  0  0  0  0  0  0  0  0
   -0.3991   -3.9934   -4.1729 H   0  0  0  0  0  0  0  0  0  0  0  0
   -2.2149   -3.5102   -2.6390 H   0  0  0  0  0  0  0  0  0  0  0  0
   -3.1952   -2.7568   -3.9421 H   0  0  0  0  0  0  0  0  0  0  0  0
   -2.9129   -4.5308   -3.9421 H   0  0  0  0  0  0  0  0  0  0  0  0
   -3.7575   -5.7955   -5.3039 H   0  0  0  0  0  0  0  0  0  0  0  0
   -5.9239   -6.5105   -6.3183 H   0  0  0  0  0  0  0  0  0  0  0  0
  1  2  1  0
  2  3  1  0
  3  4  2  0
  4  5  1  0
  5  6  2  0
  6  7  1  0
  7  8  2  0
  7  9  2  0
  7 10  1  0
 10 11  1  0
 11 12  1  0
 11 13  1  0
 13 14  2  0
 13 15  1  0
  6 16  1  0
 16 17  2  0
 17  3  1  0
  1 18  1  0
  1 19  1  0
  1 20  1  0
  4 21  1  0
  5 22  1  0
 10 23  1  0
 11 24  1  1
 12 25  1  0
 12 26  1  0
 12 27  1  0
 16 28  1  0
 17 29  1  0
M  CHG  1  15  -1
M  END
>  <meeko>  (1) 
{"is_sidechain": [false], "free_energy": -7.328, "intermolecular_energy": -9.47, "internal_energy": -0.367}

$$$$
3ehy_ligand
     RDKit          3D

 29 29  0  0  0  0  0  0  0  0999 V2000
   -7.1840   -8.4540  -10.5010 C   0  0  0  0  0  0  0  0  0  0  0  0
   -7.2470   -7.1920   -9.8500 O   0  0  0  0  0  0  0  0  0  0  0  0
   -6.1910   -6.8630   -9.0420 C   0  0  0  0  0  0  0  0  0  0  0  0
   -6.2400   -6.7050   -7.6540 C   0  0  0  0  0  0  0  0  0  0  0  0
   -5.0840   -6.3650   -6.9450 C   0  0  0  0  0  0  0  0  0  0  0  0
   -3.8770   -6.1890   -7.6280 C   0  0  0  0  0  0  0  0  0  0  0  0
   -2.4190   -5.7380   -6.7090 S   0  0  0  0  0  0  0  0  0  0  0  0
   -2.8080   -4.6350   -5.8540 O   0  0  0  0  0  0  0  0  0  0  0  0
   -1.3240   -5.6150   -7.6460 O   0  0  0  0  0  0  0  0  0  0  0  0
   -2.2180   -7.0960   -5.7440 N   0  0  0  0  0  0  0  0  0  0  0  0
   -1.7080   -6.8720   -4.3410 C   0  0  2  0  0  0  0  0  0  0  0  0
   -0.2170   -6.5890   -4.4190 C   0  0  0  0  0  0  0  0  0  0  0  0
   -1.9100   -8.1910   -3.5330 C   0  0  0  0  0  0  0  0  0  0  0  0
   -1.9600   -9.2530   -4.2110 O   0  0  0  0  0  0  0  0  0  0  0  0
   -2.0210   -8.0090   -2.2780 O   0  0  0  0  0  0  0  0  0  0  0  0
   -3.8180   -6.3370   -9.0140 C   0  0  0  0  0  0  0  0  0  0  0  0
   -4.9780   -6.6760   -9.7140 C   0  0  0  0  0  0  0  0  0  0  0  0
   -7.1441   -9.2539   -9.7470 H   0  0  0  0  0  0  0  0  0  0  0  0
   -8.0766   -8.5871  -11.1299 H   0  0  0  0  0  0  0  0  0  0  0  0
   -6.2826   -8.4976  -11.1299 H   0  0  0  0  0  0  0  0  0  0  0  0
   -7.1901   -6.8485   -7.1185 H   0  0  0  0  0  0  0  0  0  0  0  0
   -5.1241   -6.2364   -5.8533 H   0  0  0  0  0  0  0  0  0  0  0  0
   -3.1390   -7.5680   -5.6330 H   0  0  0  0  0  0  0  0  0  0  0  0
   -2.2396   -6.0364   -3.8622 H   0  0  0  0  0  0  0  0  0  0  0  0
    0.1951   -6.5108   -3.4021 H   0  0  0  0  0  0  0  0  0  0  0  0
    0.2841   -7.4081   -4.9557 H   0  0  0  0  0  0  0  0  0  0  0  0
   -0.0509   -5.6433   -4.9557 H   0  0  0  0  0  0  0  0  0  0  0  0
   -2.8686   -6.1884   -9.5494 H   0  0  0  0  0  0  0  0  0  0  0  0
   -4.9376   -6.7974  -10.8065 H   0  0  0  0  0  0  0  0  0  0  0  0
  1  2  1  0
  2  3  1  0
  3  4  2  0
  4  5  1  0
  5  6  2  0
  6  7  1  0
  7  8  2  0
  7  9  2  0
  7 10  1  0
 10 11  1  0
 11 12  1  0
 11 13  1  0
 13 14  2  0
 13 15  1  0
  6 16  1  0
 16 17  2  0
 17  3  1  0
  1 18  1  0
  1 19  1  0
  1 20  1  0
  4 21  1  0
  5 22  1  0
 10 23  1  0
 11 24  1  1
 12 25  1  0
 12 26  1  0
 12 27  1  0
 16 28  1  0
 17 29  1  0
M  CHG  1  15  -1
M  END
>  <meeko>  (2) 
{"is_sidechain": [false], "free_energy": -7.327, "intermolecular_energy": -9.518, "internal_energy": -0.318}

$$$$
3ehy_ligand
     RDKit          3D

 29 29  0  0  0  0  0  0  0  0999 V2000
   -7.1540   -7.6970   -8.4470 C   0  0  0  0  0  0  0  0  0  0  0  0
   -6.1860   -6.9280   -9.1470 O   0  0  0  0  0  0  0  0  0  0  0  0
   -5.0830   -6.5330   -8.4380 C   0  0  0  0  0  0  0  0  0  0  0  0
   -5.0330   -6.3120   -7.0580 C   0  0  0  0  0  0  0  0  0  0  0  0
   -3.8370   -5.9070   -6.4560 C   0  0  0  0  0  0  0  0  0  0  0  0
   -2.6920   -5.7300   -7.2360 C   0  0  0  0  0  0  0  0  0  0  0  0
   -1.1830   -5.1980   -6.4520 S   0  0  0  0  0  0  0  0  0  0  0  0
   -0.2300   -4.9800   -7.5210 O   0  0  0  0  0  0  0  0  0  0  0  0
   -0.9010   -6.1100   -5.3650 O   0  0  0  0  0  0  0  0  0  0  0  0
   -1.6460   -3.6980   -5.8560 N   0  0  0  0  0  0  0  0  0  0  0  0
   -1.0730   -3.2810   -4.5240 C   0  0  2  0  0  0  0  0  0  0  0  0
   -2.1240   -3.5350   -3.4560 C   0  0  0  0  0  0  0  0  0  0  0  0
   -0.7900   -1.7490   -4.5730 C   0  0  0  0  0  0  0  0  0  0  0  0
    0.2640   -1.3620   -3.9990 O   0  0  0  0  0  0  0  0  0  0  0  0
   -1.6910   -1.0820   -5.1770 O   0  0  0  0  0  0  0  0  0  0  0  0
   -2.7320   -5.9420   -8.6140 C   0  0  0  0  0  0  0  0  0  0  0  0
   -3.9300   -6.3440   -9.2080 C   0  0  0  0  0  0  0  0  0  0  0  0
   -7.0037   -7.5776   -7.3639 H   0  0  0  0  0  0  0  0  0  0  0  0
   -8.1626   -7.3512   -8.7176 H   0  0  0  0  0  0  0  0  0  0  0  0
   -7.0452   -8.7576   -8.7176 H   0  0  0  0  0  0  0  0  0  0  0  0
   -5.9350   -6.4568   -6.4453 H   0  0  0  0  0  0  0  0  0  0  0  0
   -3.7984   -5.7284   -5.3713 H   0  0  0  0  0  0  0  0  0  0  0  0
   -1.3480   -2.9630   -6.5300 H   0  0  0  0  0  0  0  0  0  0  0  0
   -0.1512   -3.8398   -4.3048 H   0  0  0  0  0  0  0  0  0  0  0  0
   -1.6692   -3.4251   -2.4605 H   0  0  0  0  0  0  0  0  0  0  0  0
   -2.9428   -2.8089   -3.5673 H   0  0  0  0  0  0  0  0  0  0  0  0
   -2.5208   -4.5549   -3.5673 H   0  0  0  0  0  0  0  0  0  0  0  0
   -1.8299   -5.7942   -9.2259 H   0  0  0  0  0  0  0  0  0  0  0  0
   -3.9678   -6.5141  -10.2941 H   0  0  0  0  0  0  0  0  0  0  0  0
  1  2  1  0
  2  3  1  0
  3  4  2  0
  4  5  1  0
  5  6  2  0
  6  7  1  0
  7  8  2  0
  7  9  2  0
  7 10  1  0
 10 11  1  0
 11 12  1  0
 11 13  1  0
 13 14  2  0
 13 15  1  0
  6 16  1  0
 16 17  2  0
 17  3  1  0
  1 18  1  0
  1 19  1  0
  1 20  1  0
  4 21  1  0
  5 22  1  0
 10 23  1  0
 11 24  1  1
 12 25  1  0
 12 26  1  0
 12 27  1  0
 16 28  1  0
 17 29  1  0
M  CHG  1  15  -1
M  END
>  <meeko>  (3) 
{"is_sidechain": [false], "free_energy": -7.313, "intermolecular_energy": -9.498, "internal_energy": -0.32}

$$$$
3ehy_ligand
     RDKit          3D

 29 29  0  0  0  0  0  0  0  0999 V2000
   -2.9150   -4.8150   -5.3490 C   0  0  0  0  0  0  0  0  0  0  0  0
   -2.7440   -5.1050   -6.7300 O   0  0  0  0  0  0  0  0  0  0  0  0
   -3.7850   -5.7330   -7.3610 C   0  0  0  0  0  0  0  0  0  0  0  0
   -4.9640   -6.1740   -6.7530 C   0  0  0  0  0  0  0  0  0  0  0  0
   -5.9520   -6.8060   -7.5160 C   0  0  0  0  0  0  0  0  0  0  0  0
   -5.7590   -6.9890   -8.8880 C   0  0  0  0  0  0  0  0  0  0  0  0
   -7.0220   -7.8120   -9.8380 S   0  0  0  0  0  0  0  0  0  0  0  0
   -6.7350   -9.2290   -9.7450 O   0  0  0  0  0  0  0  0  0  0  0  0
   -7.1200   -7.1460  -11.1170 O   0  0  0  0  0  0  0  0  0  0  0  0
   -8.3810   -7.4960   -8.9030 N   0  0  0  0  0  0  0  0  0  0  0  0
   -9.2730   -8.6670   -8.5710 C   0  0  2  0  0  0  0  0  0  0  0  0
  -10.5400   -8.5470   -9.4010 C   0  0  0  0  0  0  0  0  0  0  0  0
   -9.6670   -8.5680   -7.0660 C   0  0  0  0  0  0  0  0  0  0  0  0
  -10.3760   -9.5090   -6.6160 O   0  0  0  0  0  0  0  0  0  0  0  0
   -9.2290   -7.5200   -6.4910 O   0  0  0  0  0  0  0  0  0  0  0  0
   -4.5840   -6.5590   -9.5030 C   0  0  0  0  0  0  0  0  0  0  0  0
   -3.6010   -5.9310   -8.7340 C   0  0  0  0  0  0  0  0  0  0  0  0
   -2.4473   -5.6081   -4.7471 H   0  0  0  0  0  0  0  0  0  0  0  0
   -2.4413   -3.8500   -5.1156 H   0  0  0  0  0  0  0  0  0  0  0  0
   -3.9887   -4.7624   -5.1156 H   0  0  0  0  0  0  0  0  0  0  0  0
   -5.1151   -6.0240   -5.6738 H   0  0  0  0  0  0  0  0  0  0  0  0
   -6.8779   -7.1578   -7.0374 H   0  0  0  0  0  0  0  0  0  0  0  0
   -8.0750   -7.1100   -7.9870 H   0  0  0  0  0  0  0  0  0  0  0  0
   -8.7600   -9.6179   -8.7772 H   0  0  0  0  0  0  0  0  0  0  0  0
  -11.4098   -8.4646   -8.7326 H   0  0  0  0  0  0  0  0  0  0  0  0
  -10.4791   -7.6506  -10.0356 H   0  0  0  0  0  0  0  0  0  0  0  0
  -10.6484   -9.4389  -10.0356 H   0  0  0  0  0  0  0  0  0  0  0  0
   -4.4326   -6.7125  -10.5817 H   0  0  0  0  0  0  0  0  0  0  0  0
   -2.6720   -5.5884   -9.2132 H   0  0  0  0  0  0  0  0  0  0  0  0
  1  2  1  0
  2  3  1  0
  3  4  2  0
  4  5  1  0
  5  6  2  0
  6  7  1  0
  7  8  2  0
  7  9  2  0
  7 10  1  0
 10 11  1  0
 11 12  1  0
 11 13  1  0
 13 14  2  0
 13 15  1  0
  6 16  1  0
 16 17  2  0
 17  3  1  0
  1 18  1  0
  1 19  1  0
  1 20  1  0
  4 21  1  0
  5 22  1  0
 10 23  1  0
 11 24  1  1
 12 25  1  0
 12 26  1  0
 12 27  1  0
 16 28  1  0
 17 29  1  0
M  CHG  1  15  -1
M  END
>  <meeko>  (4) 
{"is_sidechain": [false], "free_energy": -7.149, "intermolecular_energy": -9.192, "internal_energy": -0.414}

$$$$
3ehy_ligand
     RDKit          3D

 29 29  0  0  0  0  0  0  0  0999 V2000
   -2.8930   -5.3850   -8.6310 C   0  0  0  0  0  0  0  0  0  0  0  0
   -3.5980   -6.1150   -9.6260 O   0  0  0  0  0  0  0  0  0  0  0  0
   -4.8300   -6.6010   -9.2760 C   0  0  0  0  0  0  0  0  0  0  0  0
   -5.7260   -7.2530  -10.1290 C   0  0  0  0  0  0  0  0  0  0  0  0
   -6.9580   -7.7010   -9.6420 C   0  0  0  0  0  0  0  0  0  0  0  0
   -7.2880   -7.5000   -8.2990 C   0  0  0  0  0  0  0  0  0  0  0  0
   -8.8700   -8.0620   -7.7030 S   0  0  0  0  0  0  0  0  0  0  0  0
   -9.2320   -7.1690   -6.6210 O   0  0  0  0  0  0  0  0  0  0  0  0
   -8.7880   -9.4920   -7.5030 O   0  0  0  0  0  0  0  0  0  0  0  0
   -9.8510   -7.7060   -9.0180 N   0  0  0  0  0  0  0  0  0  0  0  0
  -10.4670   -8.8730   -9.7500 C   0  0  2  0  0  0  0  0  0  0  0  0
  -10.0380   -8.7990  -11.2060 C   0  0  0  0  0  0  0  0  0  0  0  0
  -12.0180   -8.7200   -9.6940 C   0  0  0  0  0  0  0  0  0  0  0  0
  -12.5100   -7.8020  -10.4040 O   0  0  0  0  0  0  0  0  0  0  0  0
  -12.5840   -9.5450   -8.9060 O   0  0  0  0  0  0  0  0  0  0  0  0
   -6.4050   -6.8450   -7.4410 C   0  0  0  0  0  0  0  0  0  0  0  0
   -5.1770   -6.3990   -7.9360 C   0  0  0  0  0  0  0  0  0  0  0  0
   -3.2155   -5.7189   -7.6338 H   0  0  0  0  0  0  0  0  0  0  0  0
   -1.8129   -5.5595   -8.7446 H   0  0  0  0  0  0  0  0  0  0  0  0
   -3.1050   -4.3116   -8.7446 H   0  0  0  0  0  0  0  0  0  0  0  0
   -5.4614   -7.4137  -11.1845 H   0  0  0  0  0  0  0  0  0  0  0  0
   -7.6649   -8.2099  -10.3138 H   0  0  0  0  0  0  0  0  0  0  0  0
  -10.6520   -7.1280   -8.6920 H   0  0  0  0  0  0  0  0  0  0  0  0
  -10.1524   -9.8251   -9.2977 H   0  0  0  0  0  0  0  0  0  0  0  0
   -8.9553   -8.6122  -11.2602 H   0  0  0  0  0  0  0  0  0  0  0  0
  -10.2714   -9.7507  -11.7058 H   0  0  0  0  0  0  0  0  0  0  0  0
  -10.5767   -7.9805  -11.7058 H   0  0  0  0  0  0  0  0  0  0  0  0
   -6.6723   -6.6814   -6.3866 H   0  0  0  0  0  0  0  0  0  0  0  0
   -4.4750   -5.8831   -7.2644 H   0  0  0  0  0  0  0  0  0  0  0  0
  1  2  1  0
  2  3  1  0
  3  4  2  0
  4  5  1  0
  5  6  2  0
  6  7  1  0
  7  8  2  0
  7  9  2  0
  7 10  1  0
 10 11  1  0
 11 12  1  0
 11 13  1  0
 13 14  2  0
 13 15  1  0
  6 16  1  0
 16 17  2  0
 17  3  1  0
  1 18  1  0
  1 19  1  0
  1 20  1  0
  4 21  1  0
  5 22  1  0
 10 23  1  0
 11 24  1  1
 12 25  1  0
 12 26  1  0
 12 27  1  0
 16 28  1  0
 17 29  1  0
M  CHG  1  15  -1
M  END
>  <meeko>  (5) 
{"is_sidechain": [false], "free_energy": -7.098, "intermolecular_energy": -9.133, "internal_energy": -0.406}

$$$$
3ehy_ligand
     RDKit          3D

 29 29  0  0  0  0  0  0  0  0999 V2000
   -6.5030   -6.9690   -9.2740 C   0  0  0  0  0  0  0  0  0  0  0  0
   -5.1580   -6.6630   -9.6190 O   0  0  0  0  0  0  0  0  0  0  0  0
   -4.3190   -6.3340   -8.5890 C   0  0  0  0  0  0  0  0  0  0  0  0
   -4.6640   -6.2850   -7.2350 C   0  0  0  0  0  0  0  0  0  0  0  0
   -3.7060   -5.9300   -6.2800 C   0  0  0  0  0  0  0  0  0  0  0  0
   -2.4020   -5.6300   -6.6820 C   0  0  0  0  0  0  0  0  0  0  0  0
   -1.2010   -5.1630   -5.4510 S   0  0  0  0  0  0  0  0  0  0  0  0
   -1.5280   -3.8050   -5.0660 O   0  0  0  0  0  0  0  0  0  0  0  0
    0.1100   -5.5080   -5.9550 O   0  0  0  0  0  0  0  0  0  0  0  0
   -1.6310   -6.1780   -4.1850 N   0  0  0  0  0  0  0  0  0  0  0  0
   -0.7430   -7.3720   -3.9300 C   0  0  2  0  0  0  0  0  0  0  0  0
   -1.3370   -8.5680   -4.6550 C   0  0  0  0  0  0  0  0  0  0  0  0
   -0.7600   -7.6740   -2.4000 C   0  0  0  0  0  0  0  0  0  0  0  0
    0.3670   -7.7800   -1.8450 O   0  0  0  0  0  0  0  0  0  0  0  0
   -1.9320   -7.7960   -1.9170 O   0  0  0  0  0  0  0  0  0  0  0  0
   -2.0480   -5.6690   -8.0310 C   0  0  0  0  0  0  0  0  0  0  0  0
   -3.0110   -6.0230   -8.9780 C   0  0  0  0  0  0  0  0  0  0  0  0
   -6.6045   -6.9921   -8.1789 H   0  0  0  0  0  0  0  0  0  0  0  0
   -7.1718   -6.2001   -9.6881 H   0  0  0  0  0  0  0  0  0  0  0  0
   -6.7733   -7.9516   -9.6881 H   0  0  0  0  0  0  0  0  0  0  0  0
   -5.6902   -6.5260   -6.9205 H   0  0  0  0  0  0  0  0  0  0  0  0
   -3.9784   -5.8871   -5.2151 H   0  0  0  0  0  0  0  0  0  0  0  0
   -1.6240   -5.6320   -3.3000 H   0  0  0  0  0  0  0  0  0  0  0  0
    0.2822   -7.1754   -4.2769 H   0  0  0  0  0  0  0  0  0  0  0  0
   -1.7004   -9.2998   -3.9185 H   0  0  0  0  0  0  0  0  0  0  0  0
   -2.1747   -8.2355   -5.2857 H   0  0  0  0  0  0  0  0  0  0  0  0
   -0.5659   -9.0345   -5.2857 H   0  0  0  0  0  0  0  0  0  0  0  0
   -1.0226   -5.4238   -8.3447 H   0  0  0  0  0  0  0  0  0  0  0  0
   -2.7383   -6.0579  -10.0431 H   0  0  0  0  0  0  0  0  0  0  0  0
  1  2  1  0
  2  3  1  0
  3  4  2  0
  4  5  1  0
  5  6  2  0
  6  7  1  0
  7  8  2  0
  7  9  2  0
  7 10  1  0
 10 11  1  0
 11 12  1  0
 11 13  1  0
 13 14  2  0
 13 15  1  0
  6 16  1  0
 16 17  2  0
 17  3  1  0
  1 18  1  0
  1 19  1  0
  1 20  1  0
  4 21  1  0
  5 22  1  0
 10 23  1  0
 11 24  1  6
 12 25  1  0
 12 26  1  0
 12 27  1  0
 16 28  1  0
 17 29  1  0
M  CHG  1  15  -1
M  END
>  <meeko>  (6) 
{"is_sidechain": [false], "free_energy": -7.034, "intermolecular_energy": -9.005, "internal_energy": -0.453}

$$$$
3ehy_ligand
     RDKit          3D

 29 29  0  0  0  0  0  0  0  0999 V2000
   -0.5790    1.4620   -4.3470 C   0  0  0  0  0  0  0  0  0  0  0  0
   -0.0980    0.4860   -3.4320 O   0  0  0  0  0  0  0  0  0  0  0  0
   -0.2510   -0.8260   -3.7940 C   0  0  0  0  0  0  0  0  0  0  0  0
    0.4970   -1.9020   -3.3090 C   0  0  0  0  0  0  0  0  0  0  0  0
    0.2390   -3.1990   -3.7660 C   0  0  0  0  0  0  0  0  0  0  0  0
   -0.7730   -3.4160   -4.7050 C   0  0  0  0  0  0  0  0  0  0  0  0
   -1.0740   -5.0720   -5.2870 S   0  0  0  0  0  0  0  0  0  0  0  0
   -1.5730   -5.8140   -4.1470 O   0  0  0  0  0  0  0  0  0  0  0  0
    0.0970   -5.5070   -6.0150 O   0  0  0  0  0  0  0  0  0  0  0  0
   -2.3580   -4.8120   -6.3370 N   0  0  0  0  0  0  0  0  0  0  0  0
   -2.8320   -5.9940   -7.1480 C   0  0  2  0  0  0  0  0  0  0  0  0
   -2.6080   -5.6810   -8.6180 C   0  0  0  0  0  0  0  0  0  0  0  0
   -4.3650   -6.1600   -6.9150 C   0  0  0  0  0  0  0  0  0  0  0  0
   -4.7520   -6.1090   -5.7160 O   0  0  0  0  0  0  0  0  0  0  0  0
   -5.0270   -6.3500   -7.9860 O   0  0  0  0  0  0  0  0  0  0  0  0
   -1.5210   -2.3480   -5.2010 C   0  0  0  0  0  0  0  0  0  0  0  0
   -1.2560   -1.0560   -4.7400 C   0  0  0  0  0  0  0  0  0  0  0  0
   -0.9981    2.3124   -3.7892 H   0  0  0  0  0  0  0  0  0  0  0  0
    0.2501    1.8114   -4.9799 H   0  0  0  0  0  0  0  0  0  0  0  0
   -1.3611    1.0173   -4.9799 H   0  0  0  0  0  0  0  0  0  0  0  0
    1.2901   -1.7291   -2.5666 H   0  0  0  0  0  0  0  0  0  0  0  0
    0.8309   -4.0453   -3.3873 H   0  0  0  0  0  0  0  0  0  0  0  0
   -3.1840   -4.5020   -5.7860 H   0  0  0  0  0  0  0  0  0  0  0  0
   -2.2921   -6.9073   -6.8574 H   0  0  0  0  0  0  0  0  0  0  0  0
   -1.9701   -4.7896   -8.7100 H   0  0  0  0  0  0  0  0  0  0  0  0
   -2.1155   -6.5361   -9.1041 H   0  0  0  0  0  0  0  0  0  0  0  0
   -3.5763   -5.4907   -9.1041 H   0  0  0  0  0  0  0  0  0  0  0  0
   -2.3108   -2.5212   -5.9469 H   0  0  0  0  0  0  0  0  0  0  0  0
   -1.8441   -0.2100   -5.1251 H   0  0  0  0  0  0  0  0  0  0  0  0
  1  2  1  0
  2  3  1  0
  3  4  2  0
  4  5  1  0
  5  6  2  0
  6  7  1  0
  7  8  2  0
  7  9  2  0
  7 10  1  0
 10 11  1  0
 11 12  1  0
 11 13  1  0
 13 14  2  0
 13 15  1  0
  6 16  1  0
 16 17  2  0
 17  3  1  0
  1 18  1  0
  1 19  1  0
  1 20  1  0
  4 21  1  0
  5 22  1  0
 10 23  1  0
 11 24  1  1
 12 25  1  0
 12 26  1  0
 12 27  1  0
 16 28  1  0
 17 29  1  0
M  CHG  1  15  -1
M  END
>  <meeko>  (7) 
{"is_sidechain": [false], "free_energy": -6.518, "intermolecular_energy": -8.407, "internal_energy": -0.384}

$$$$
3ehy_ligand
     RDKit          3D

 29 29  0  0  0  0  0  0  0  0999 V2000
   -1.8280  -10.6110   -2.9190 C   0  0  0  0  0  0  0  0  0  0  0  0
   -1.7190   -9.3900   -2.1990 O   0  0  0  0  0  0  0  0  0  0  0  0
   -1.5290   -8.2540   -2.9400 C   0  0  0  0  0  0  0  0  0  0  0  0
   -1.3420   -6.9660   -2.4300 C   0  0  0  0  0  0  0  0  0  0  0  0
   -1.1600   -5.8870   -3.3010 C   0  0  0  0  0  0  0  0  0  0  0  0
   -1.1600   -6.1010   -4.6820 C   0  0  0  0  0  0  0  0  0  0  0  0
   -0.9450   -4.7100   -5.7740 S   0  0  0  0  0  0  0  0  0  0  0  0
   -0.0010   -5.1380   -6.7870 O   0  0  0  0  0  0  0  0  0  0  0  0
   -0.6980   -3.5400   -4.9620 O   0  0  0  0  0  0  0  0  0  0  0  0
   -2.4640   -4.6250   -6.4850 N   0  0  0  0  0  0  0  0  0  0  0  0
   -2.8230   -5.7100   -7.4690 C   0  0  2  0  0  0  0  0  0  0  0  0
   -2.7740   -5.1170   -8.8680 C   0  0  0  0  0  0  0  0  0  0  0  0
   -4.2890   -6.1590   -7.1850 C   0  0  0  0  0  0  0  0  0  0  0  0
   -4.9830   -6.4570   -8.1950 O   0  0  0  0  0  0  0  0  0  0  0  0
   -4.5980   -6.1430   -5.9500 O   0  0  0  0  0  0  0  0  0  0  0  0
   -1.3540   -7.3810   -5.2010 C   0  0  0  0  0  0  0  0  0  0  0  0
   -1.5360   -8.4530   -4.3250 C   0  0  0  0  0  0  0  0  0  0  0  0
   -1.9028  -11.4491   -2.2104 H   0  0  0  0  0  0  0  0  0  0  0  0
   -2.7273  -10.5845   -3.5518 H   0  0  0  0  0  0  0  0  0  0  0  0
   -0.9382  -10.7442   -3.5518 H   0  0  0  0  0  0  0  0  0  0  0  0
   -1.3380   -6.8009   -1.3425 H   0  0  0  0  0  0  0  0  0  0  0  0
   -1.0172   -4.8726   -2.9001 H   0  0  0  0  0  0  0  0  0  0  0  0
   -3.1860   -4.6740   -5.7380 H   0  0  0  0  0  0  0  0  0  0  0  0
   -2.1301   -6.5598   -7.3804 H   0  0  0  0  0  0  0  0  0  0  0  0
   -2.6836   -4.0229   -8.7995 H   0  0  0  0  0  0  0  0  0  0  0  0
   -1.9064   -5.5235   -9.4084 H   0  0  0  0  0  0  0  0  0  0  0  0
   -3.6966   -5.3756   -9.4084 H   0  0  0  0  0  0  0  0  0  0  0  0
   -1.3635   -7.5442   -6.2888 H   0  0  0  0  0  0  0  0  0  0  0  0
   -1.6866   -9.4653   -4.7282 H   0  0  0  0  0  0  0  0  0  0  0  0
  1  2  1  0
  2  3  1  0
  3  4  2  0
  4  5  1  0
  5  6  2  0
  6  7  1  0
  7  8  2  0
  7  9  2  0
  7 10  1  0
 10 11  1  0
 11 12  1  0
 11 13  1  0
 13 14  2  0
 13 15  1  0
  6 16  1  0
 16 17  2  0
 17  3  1  0
  1 18  1  0
  1 19  1  0
  1 20  1  0
  4 21  1  0
  5 22  1  0
 10 23  1  0
 11 24  1  6
 12 25  1  0
 12 26  1  0
 12 27  1  0
 16 28  1  0
 17 29  1  0
M  CHG  1  15  -1
M  END
>  <meeko>  (8) 
{"is_sidechain": [false], "free_energy": -6.337, "intermolecular_energy": -8.381, "internal_energy": -0.176}

$$$$
3ehy_ligand
     RDKit          3D

 29 29  0  0  0  0  0  0  0  0999 V2000
    0.3470   -8.9890   -1.1970 C   0  0  0  0  0  0  0  0  0  0  0  0
   -0.5130   -9.3200   -2.2800 O   0  0  0  0  0  0  0  0  0  0  0  0
   -0.7190   -8.3480   -3.2220 C   0  0  0  0  0  0  0  0  0  0  0  0
   -1.5540   -8.4540   -4.3380 C   0  0  0  0  0  0  0  0  0  0  0  0
   -1.6740   -7.3820   -5.2280 C   0  0  0  0  0  0  0  0  0  0  0  0
   -0.9620   -6.2020   -4.9940 C   0  0  0  0  0  0  0  0  0  0  0  0
   -1.1160   -4.8540   -6.1490 S   0  0  0  0  0  0  0  0  0  0  0  0
   -2.5370   -4.6590   -6.3520 O   0  0  0  0  0  0  0  0  0  0  0  0
   -0.2250   -5.1150   -7.2580 O   0  0  0  0  0  0  0  0  0  0  0  0
   -0.5440   -3.5750   -5.2240 N   0  0  0  0  0  0  0  0  0  0  0  0
   -1.5430   -2.5160   -4.8250 C   0  0  2  0  0  0  0  0  0  0  0  0
   -0.9570   -1.1580   -5.1720 C   0  0  0  0  0  0  0  0  0  0  0  0
   -1.7330   -2.5830   -3.2790 C   0  0  0  0  0  0  0  0  0  0  0  0
   -2.3140   -3.6110   -2.8370 O   0  0  0  0  0  0  0  0  0  0  0  0
   -1.2860   -1.5610   -2.6650 O   0  0  0  0  0  0  0  0  0  0  0  0
   -0.1210   -6.0880   -3.8870 C   0  0  0  0  0  0  0  0  0  0  0  0
   -0.0050   -7.1640   -3.0050 C   0  0  0  0  0  0  0  0  0  0  0  0
   -0.1684   -9.1874   -0.2457 H   0  0  0  0  0  0  0  0  0  0  0  0
    1.2599   -9.6000   -1.2538 H   0  0  0  0  0  0  0  0  0  0  0  0
    0.6147   -7.9236   -1.2538 H   0  0  0  0  0  0  0  0  0  0  0  0
   -2.1174   -9.3818   -4.5164 H   0  0  0  0  0  0  0  0  0  0  0  0
   -2.3266   -7.4671   -6.1094 H   0  0  0  0  0  0  0  0  0  0  0  0
   -0.1650   -3.9510   -4.3310 H   0  0  0  0  0  0  0  0  0  0  0  0
   -2.5017   -2.6707   -5.3417 H   0  0  0  0  0  0  0  0  0  0  0  0
   -0.7217   -0.6127   -4.2461 H   0  0  0  0  0  0  0  0  0  0  0  0
   -0.0378   -1.2948   -5.7606 H   0  0  0  0  0  0  0  0  0  0  0  0
   -1.6871   -0.5831   -5.7606 H   0  0  0  0  0  0  0  0  0  0  0  0
    0.4443   -5.1610   -3.7110 H   0  0  0  0  0  0  0  0  0  0  0  0
    0.6553   -7.0802   -2.1292 H   0  0  0  0  0  0  0  0  0  0  0  0
  1  2  1  0
  2  3  1  0
  3  4  2  0
  4  5  1  0
  5  6  2  0
  6  7  1  0
  7  8  2  0
  7  9  2  0
  7 10  1  0
 10 11  1  0
 11 12  1  0
 11 13  1  0
 13 14  2  0
 13 15  1  0
  6 16  1  0
 16 17  2  0
 17  3  1  0
  1 18  1  0
  1 19  1  0
  1 20  1  0
  4 21  1  0
  5 22  1  0
 10 23  1  0
 11 24  1  6
 12 25  1  0
 12 26  1  0
 12 27  1  0
 16 28  1  0
 17 29  1  0
M  CHG  1  15  -1
M  END
>  <meeko>  (9) 
{"is_sidechain": [false], "free_energy": -5.698, "intermolecular_energy": -7.207, "internal_energy": -0.523}

$$$$
