1vso_ligand
     RDKit          3D

 38 38  0  0  0  0  0  0  0  0999 V2000
   54.9320    1.7740   11.0900 C   0  0  0  0  0  0  0  0  0  0  0  0
   55.0360    3.1390   11.7940 C   0  0  0  0  0  0  0  0  0  0  0  0
   53.7620    3.3380   12.6490 C   0  0  0  0  0  0  0  0  0  0  0  0
   56.2300    3.1230   12.7570 C   0  0  0  0  0  0  0  0  0  0  0  0
   55.1670    4.2280   10.7530 C   0  0  0  0  0  0  0  0  0  0  0  0
   54.9440    3.8290    9.4620 O   0  0  0  0  0  0  0  0  0  0  0  0
   55.2200    4.8580    8.5880 N   0  0  0  0  0  0  0  0  0  0  0  0
   55.5360    5.8930    9.3680 C   0  0  0  0  0  0  0  0  0  0  0  0
   56.0500    6.9940    8.7900 O   0  0  0  0  0  0  0  0  0  0  0  0
   55.0670    7.7340    8.0530 C   0  0  0  0  0  0  0  0  0  0  0  0
   54.5710    9.2240    9.0690 P   0  0  0  0  0  0  0  0  0  0  0  0
   53.9840   10.2260    8.0700 O   0  0  0  0  0  0  0  0  0  0  0  0
   55.8380    9.6680    9.7670 O   0  0  0  0  0  0  0  0  0  0  0  0
   53.4410    8.7320    9.9810 O   0  0  0  0  0  0  0  0  0  0  0  0
   55.5540    5.5640   10.7450 C   0  0  0  0  0  0  0  0  0  0  0  0
   55.9970    6.4480   11.8750 C   0  0  0  0  0  0  0  0  0  0  0  0
   54.8840    7.2790   12.5260 C   0  0  2  0  0  0  0  0  0  0  0  0
   55.2770    8.6990   12.6480 N   0  0  0  0  0  0  0  0  0  0  0  0
   54.3700    6.6510   13.8620 C   0  0  0  0  0  0  0  0  0  0  0  0
   55.1960    5.9840   14.5460 O   0  0  0  0  0  0  0  0  0  0  0  0
   53.1330    6.8470   14.0800 O   0  0  0  0  0  0  0  0  0  0  0  0
   54.8712    0.9759   11.8446 H   0  0  0  0  0  0  0  0  0  0  0  0
   54.0297    1.7536   10.4612 H   0  0  0  0  0  0  0  0  0  0  0  0
   55.8208    1.6171   10.4612 H   0  0  0  0  0  0  0  0  0  0  0  0
   54.0263    3.2967   13.7160 H   0  0  0  0  0  0  0  0  0  0  0  0
   53.3156    4.3168   12.4195 H   0  0  0  0  0  0  0  0  0  0  0  0
   53.0383    2.5420   12.4195 H   0  0  0  0  0  0  0  0  0  0  0  0
   55.8644    3.1279   13.7945 H   0  0  0  0  0  0  0  0  0  0  0  0
   56.8288    2.2167   12.5835 H   0  0  0  0  0  0  0  0  0  0  0  0
   56.8529    4.0129   12.5835 H   0  0  0  0  0  0  0  0  0  0  0  0
   55.4915    8.0629    7.0930 H   0  0  0  0  0  0  0  0  0  0  0  0
   54.1889    7.1026    7.8522 H   0  0  0  0  0  0  0  0  0  0  0  0
   56.4445    5.8101   12.6514 H   0  0  0  0  0  0  0  0  0  0  0  0
   56.7038    7.1700   11.4401 H   0  0  0  0  0  0  0  0  0  0  0  0
   54.0143    7.2567   11.8529 H   0  0  0  0  0  0  0  0  0  0  0  0
   55.0410    9.1970   13.5570 H   0  0  0  0  0  0  0  0  0  0  0  0
   56.3240    8.8630   12.7230 H   0  0  0  0  0  0  0  0  0  0  0  0
   54.8970    9.2840   11.9070 H   0  0  0  0  0  0  0  0  0  0  0  0
  1  2  1  0
  2  3  1  0
  2  4  1  0
  2  5  1  0
  5  6  1  0
  6  7  1  0
  7  8  2  0
  8  9  1  0
  9 10  1  0
 10 11  1  0
 11 12  2  0
 11 13  1  0
 11 14  1  0
  8 15  1  0
 15 16  1  0
 16 17  1  0
 17 18  1  0
 17 19  1  0
 19 20  2  0
 19 21  1  0
 15  5  2  0
  1 22  1  0
  1 23  1  0
  1 24  1  0
  3 25  1  0
  3 26  1  0
  3 27  1  0
  4 28  1  0
  4 29  1  0
  4 30  1  0
 10 31  1  0
 10 32  1  0
 16 33  1  0
 16 34  1  0
 17 35  1  6
 18 36  1  0
 18 37  1  0
 18 38  1  0
M  CHG  4  13  -1  14  -1  18   1  21  -1
M  END
>  <meeko>  (1) 
{"is_sidechain": [false], "free_energy": -5.744, "intermolecular_energy": -8.263, "internal_energy": -1.411}

$$$$
1vso_ligand
     RDKit          3D

 38 38  0  0  0  0  0  0  0  0999 V2000
   56.2950    3.0940   12.6860 C   0  0  0  0  0  0  0  0  0  0  0  0
   55.0540    3.0790   11.7750 C   0  0  0  0  0  0  0  0  0  0  0  0
   54.9750    1.6930   11.0930 C   0  0  0  0  0  0  0  0  0  0  0  0
   53.7920    3.2330   12.6350 C   0  0  0  0  0  0  0  0  0  0  0  0
   55.1750    4.1840   10.7490 C   0  0  0  0  0  0  0  0  0  0  0  0
   54.9600    3.8000    9.4530 O   0  0  0  0  0  0  0  0  0  0  0  0
   55.2260    4.8440    8.5930 N   0  0  0  0  0  0  0  0  0  0  0  0
   55.5290    5.8710    9.3880 C   0  0  0  0  0  0  0  0  0  0  0  0
   56.0310    6.9860    8.8270 O   0  0  0  0  0  0  0  0  0  0  0  0
   55.0470    7.7130    8.0780 C   0  0  0  0  0  0  0  0  0  0  0  0
   54.5270    9.2020    9.0830 P   0  0  0  0  0  0  0  0  0  0  0  0
   53.4440    8.6960   10.0390 O   0  0  0  0  0  0  0  0  0  0  0  0
   54.0710   10.2270    8.0670 O   0  0  0  0  0  0  0  0  0  0  0  0
   55.7620    9.5820    9.9090 O   0  0  0  0  0  0  0  0  0  0  0  0
   55.5470    5.5230   10.7610 C   0  0  0  0  0  0  0  0  0  0  0  0
   55.9780    6.3970   11.9040 C   0  0  0  0  0  0  0  0  0  0  0  0
   54.8590    7.2270   12.5460 C   0  0  2  0  0  0  0  0  0  0  0  0
   55.2740    8.6340   12.7280 N   0  0  0  0  0  0  0  0  0  0  0  0
   54.2900    6.5660   13.8430 C   0  0  0  0  0  0  0  0  0  0  0  0
   53.0570    6.7110   14.0760 O   0  0  0  0  0  0  0  0  0  0  0  0
   55.1710    5.9910   14.5570 O   0  0  0  0  0  0  0  0  0  0  0  0
   55.9769    3.0902   13.7390 H   0  0  0  0  0  0  0  0  0  0  0  0
   56.9082    2.2032   12.4850 H   0  0  0  0  0  0  0  0  0  0  0  0
   56.8865    3.9994   12.4850 H   0  0  0  0  0  0  0  0  0  0  0  0
   54.9302    0.9079   11.8622 H   0  0  0  0  0  0  0  0  0  0  0  0
   54.0726    1.6438   10.4659 H   0  0  0  0  0  0  0  0  0  0  0  0
   55.8660    1.5416   10.4659 H   0  0  0  0  0  0  0  0  0  0  0  0
   54.0673    3.1994   13.6995 H   0  0  0  0  0  0  0  0  0  0  0  0
   53.3109    4.1965   12.4109 H   0  0  0  0  0  0  0  0  0  0  0  0
   53.0933    2.4134   12.4109 H   0  0  0  0  0  0  0  0  0  0  0  0
   55.4767    8.0421    7.1204 H   0  0  0  0  0  0  0  0  0  0  0  0
   54.1772    7.0719    7.8722 H   0  0  0  0  0  0  0  0  0  0  0  0
   56.4126    5.7516   12.6815 H   0  0  0  0  0  0  0  0  0  0  0  0
   56.6934    7.1196   11.4844 H   0  0  0  0  0  0  0  0  0  0  0  0
   54.0115    7.2429   11.8450 H   0  0  0  0  0  0  0  0  0  0  0  0
   54.5150    9.3440   12.9570 H   0  0  0  0  0  0  0  0  0  0  0  0
   55.8410    8.8190   13.6070 H   0  0  0  0  0  0  0  0  0  0  0  0
   55.7690    9.0130   11.9230 H   0  0  0  0  0  0  0  0  0  0  0  0
  1  2  1  0
  2  3  1  0
  2  4  1  0
  2  5  1  0
  5  6  1  0
  6  7  1  0
  7  8  2  0
  8  9  1  0
  9 10  1  0
 10 11  1  0
 11 12  2  0
 11 13  1  0
 11 14  1  0
  8 15  1  0
 15 16  1  0
 16 17  1  0
 17 18  1  0
 17 19  1  0
 19 20  2  0
 19 21  1  0
 15  5  2  0
  1 22  1  0
  1 23  1  0
  1 24  1  0
  3 25  1  0
  3 26  1  0
  3 27  1  0
  4 28  1  0
  4 29  1  0
  4 30  1  0
 10 31  1  0
 10 32  1  0
 16 33  1  0
 16 34  1  0
 17 35  1  6
 18 36  1  0
 18 37  1  0
 18 38  1  0
M  CHG  4  13  -1  14  -1  18   1  21  -1
M  END
>  <meeko>  (2) 
{"is_sidechain": [false], "free_energy": -5.736, "intermolecular_energy": -8.272, "internal_energy": -1.39}

$$$$
1vso_ligand
     RDKit          3D

 38 38  0  0  0  0  0  0  0  0999 V2000
   54.9700    0.8550   14.0190 C   0  0  0  0  0  0  0  0  0  0  0  0
   54.7070    1.5230   12.6570 C   0  0  0  0  0  0  0  0  0  0  0  0
   55.1720    0.5510   11.5470 C   0  0  0  0  0  0  0  0  0  0  0  0
   53.1970    1.7280   12.4760 C   0  0  0  0  0  0  0  0  0  0  0  0
   55.4650    2.8300   12.5880 C   0  0  0  0  0  0  0  0  0  0  0  0
   56.1090    3.1910   13.7410 O   0  0  0  0  0  0  0  0  0  0  0  0
   56.6510    4.4510   13.6130 N   0  0  0  0  0  0  0  0  0  0  0  0
   56.3900    4.8080   12.3550 C   0  0  0  0  0  0  0  0  0  0  0  0
   56.6250    6.0820   11.9920 O   0  0  0  0  0  0  0  0  0  0  0  0
   56.2510    7.0200   13.0110 C   0  0  0  0  0  0  0  0  0  0  0  0
   55.4340    8.4870   12.1880 P   0  0  0  0  0  0  0  0  0  0  0  0
   56.0330    8.5570   10.7810 O   0  0  0  0  0  0  0  0  0  0  0  0
   55.7420    9.6670   13.0850 O   0  0  0  0  0  0  0  0  0  0  0  0
   53.9540    8.1080   12.0660 O   0  0  0  0  0  0  0  0  0  0  0  0
   55.6190    3.8490   11.6550 C   0  0  0  0  0  0  0  0  0  0  0  0
   55.0390    3.9930   10.2770 C   0  0  0  0  0  0  0  0  0  0  0  0
   54.7810    5.4380    9.8290 C   0  0  2  0  0  0  0  0  0  0  0  0
   53.4070    5.8650   10.1650 N   0  0  0  0  0  0  0  0  0  0  0  0
   55.1670    5.6800    8.3330 C   0  0  0  0  0  0  0  0  0  0  0  0
   55.3590    6.8750    7.9700 O   0  0  0  0  0  0  0  0  0  0  0  0
   55.1900    4.6220    7.6300 O   0  0  0  0  0  0  0  0  0  0  0  0
   54.6965    1.5496   14.8269 H   0  0  0  0  0  0  0  0  0  0  0  0
   54.3650   -0.0599   14.1016 H   0  0  0  0  0  0  0  0  0  0  0  0
   56.0364    0.5981   14.1016 H   0  0  0  0  0  0  0  0  0  0  0  0
   55.6034   -0.3507   12.0063 H   0  0  0  0  0  0  0  0  0  0  0  0
   54.3114    0.2687   10.9227 H   0  0  0  0  0  0  0  0  0  0  0  0
   55.9319    1.0439   10.9227 H   0  0  0  0  0  0  0  0  0  0  0  0
   52.7150    1.7934   13.4626 H   0  0  0  0  0  0  0  0  0  0  0  0
   53.0176    2.6587   11.9178 H   0  0  0  0  0  0  0  0  0  0  0  0
   52.7760    0.8788   11.9178 H   0  0  0  0  0  0  0  0  0  0  0  0
   55.5471    6.5470   13.7116 H   0  0  0  0  0  0  0  0  0  0  0  0
   57.1402    7.3462   13.5705 H   0  0  0  0  0  0  0  0  0  0  0  0
   55.7386    3.5342    9.5628 H   0  0  0  0  0  0  0  0  0  0  0  0
   54.0562    3.4998   10.3043 H   0  0  0  0  0  0  0  0  0  0  0  0
   55.4560    6.0905   10.4022 H   0  0  0  0  0  0  0  0  0  0  0  0
   52.6980    5.9070    9.3730 H   0  0  0  0  0  0  0  0  0  0  0  0
   52.8550    5.1680   10.7450 H   0  0  0  0  0  0  0  0  0  0  0  0
   53.3700    6.7790   10.6140 H   0  0  0  0  0  0  0  0  0  0  0  0
  1  2  1  0
  2  3  1  0
  2  4  1  0
  2  5  1  0
  5  6  1  0
  6  7  1  0
  7  8  2  0
  8  9  1  0
  9 10  1  0
 10 11  1  0
 11 12  2  0
 11 13  1  0
 11 14  1  0
  8 15  1  0
 15 16  1  0
 16 17  1  0
 17 18  1  0
 17 19  1  0
 19 20  2  0
 19 21  1  0
 15  5  2  0
  1 22  1  0
  1 23  1  0
  1 24  1  0
  3 25  1  0
  3 26  1  0
  3 27  1  0
  4 28  1  0
  4 29  1  0
  4 30  1  0
 10 31  1  0
 10 32  1  0
 16 33  1  0
 16 34  1  0
 17 35  1  1
 18 36  1  0
 18 37  1  0
 18 38  1  0
M  CHG  4  13  -1  14  -1  18   1  21  -1
M  END
>  <meeko>  (3) 
{"is_sidechain": [false], "free_energy": -5.4, "intermolecular_energy": -8.333, "internal_energy": -0.845}

$$$$
1vso_ligand
     RDKit          3D

 38 38  0  0  0  0  0  0  0  0999 V2000
   57.5550    4.5450   13.6650 C   0  0  0  0  0  0  0  0  0  0  0  0
   56.0350    4.3190   13.7430 C   0  0  0  0  0  0  0  0  0  0  0  0
   55.7870    2.8440   14.1380 C   0  0  0  0  0  0  0  0  0  0  0  0
   55.4490    5.1930   14.8600 C   0  0  0  0  0  0  0  0  0  0  0  0
   55.4150    4.6330   12.3990 C   0  0  0  0  0  0  0  0  0  0  0  0
   56.2120    4.3740   11.3160 O   0  0  0  0  0  0  0  0  0  0  0  0
   55.6090    4.8190   10.1600 N   0  0  0  0  0  0  0  0  0  0  0  0
   54.4180    5.2760   10.5500 C   0  0  0  0  0  0  0  0  0  0  0  0
   53.6750    5.9620    9.6620 O   0  0  0  0  0  0  0  0  0  0  0  0
   54.4620    6.8610    8.8700 C   0  0  0  0  0  0  0  0  0  0  0  0
   54.4800    8.5290    9.7160 P   0  0  0  0  0  0  0  0  0  0  0  0
   54.2370    9.5560    8.6070 O   0  0  0  0  0  0  0  0  0  0  0  0
   55.8280    8.6140   10.3980 O   0  0  0  0  0  0  0  0  0  0  0  0
   53.2600    8.5220   10.6440 O   0  0  0  0  0  0  0  0  0  0  0  0
   54.2360    5.2190   11.9540 C   0  0  0  0  0  0  0  0  0  0  0  0
   53.0780    5.7730   12.7330 C   0  0  0  0  0  0  0  0  0  0  0  0
   52.0640    4.7310   13.2200 C   0  0  2  0  0  0  0  0  0  0  0  0
   52.4720    3.3640   12.8310 N   0  0  0  0  0  0  0  0  0  0  0  0
   50.5960    5.0870   12.8170 C   0  0  0  0  0  0  0  0  0  0  0  0
   49.6720    4.3750   13.3030 O   0  0  0  0  0  0  0  0  0  0  0  0
   50.5080    6.0420   11.9830 O   0  0  0  0  0  0  0  0  0  0  0  0
   57.9692    4.6066   14.6822 H   0  0  0  0  0  0  0  0  0  0  0  0
   58.0233    3.7066   13.1285 H   0  0  0  0  0  0  0  0  0  0  0  0
   57.7591    5.4834   13.1285 H   0  0  0  0  0  0  0  0  0  0  0  0
   55.7721    2.7555   15.2343 H   0  0  0  0  0  0  0  0  0  0  0  0
   54.8206    2.5127   13.7303 H   0  0  0  0  0  0  0  0  0  0  0  0
   56.5920    2.2149   13.7303 H   0  0  0  0  0  0  0  0  0  0  0  0
   55.7294    4.7748   15.8380 H   0  0  0  0  0  0  0  0  0  0  0  0
   55.8448    6.2155   14.7713 H   0  0  0  0  0  0  0  0  0  0  0  0
   54.3528    5.2152   14.7713 H   0  0  0  0  0  0  0  0  0  0  0  0
   55.4892    6.4774    8.7825 H   0  0  0  0  0  0  0  0  0  0  0  0
   54.0321    6.9526    7.8616 H   0  0  0  0  0  0  0  0  0  0  0  0
   53.4788    6.2961   13.6137 H   0  0  0  0  0  0  0  0  0  0  0  0
   52.5319    6.4327   12.0427 H   0  0  0  0  0  0  0  0  0  0  0  0
   52.0663    4.7536   14.3198 H   0  0  0  0  0  0  0  0  0  0  0  0
   51.7890    2.7950   12.2470 H   0  0  0  0  0  0  0  0  0  0  0  0
   53.2590    3.3220   12.1200 H   0  0  0  0  0  0  0  0  0  0  0  0
   52.7080    2.7750   13.6280 H   0  0  0  0  0  0  0  0  0  0  0  0
  1  2  1  0
  2  3  1  0
  2  4  1  0
  2  5  1  0
  5  6  1  0
  6  7  1  0
  7  8  2  0
  8  9  1  0
  9 10  1  0
 10 11  1  0
 11 12  2  0
 11 13  1  0
 11 14  1  0
  8 15  1  0
 15 16  1  0
 16 17  1  0
 17 18  1  0
 17 19  1  0
 19 20  2  0
 19 21  1  0
 15  5  2  0
  1 22  1  0
  1 23  1  0
  1 24  1  0
  3 25  1  0
  3 26  1  0
  3 27  1  0
  4 28  1  0
  4 29  1  0
  4 30  1  0
 10 31  1  0
 10 32  1  0
 16 33  1  0
 16 34  1  0
 17 35  1  1
 18 36  1  0
 18 37  1  0
 18 38  1  0
M  CHG  4  13  -1  14  -1  18   1  21  -1
M  END
>  <meeko>  (4) 
{"is_sidechain": [false], "free_energy": -5.378, "intermolecular_energy": -8.473, "internal_energy": -0.673}

$$$$
1vso_ligand
     RDKit          3D

 38 38  0  0  0  0  0  0  0  0999 V2000
   53.9040    0.9740   11.6890 C   0  0  0  0  0  0  0  0  0  0  0  0
   54.1720    2.2420   12.5200 C   0  0  0  0  0  0  0  0  0  0  0  0
   52.8950    2.5650   13.3300 C   0  0  0  0  0  0  0  0  0  0  0  0
   55.2910    1.9590   13.5310 C   0  0  0  0  0  0  0  0  0  0  0  0
   54.5280    3.3810   11.5900 C   0  0  0  0  0  0  0  0  0  0  0  0
   54.8000    3.0150   10.2990 O   0  0  0  0  0  0  0  0  0  0  0  0
   55.2420    4.1020    9.5750 N   0  0  0  0  0  0  0  0  0  0  0  0
   55.1610    5.1300   10.4210 C   0  0  0  0  0  0  0  0  0  0  0  0
   55.7170    6.3000   10.0570 O   0  0  0  0  0  0  0  0  0  0  0  0
   54.9170    7.0120    9.1040 C   0  0  0  0  0  0  0  0  0  0  0  0
   54.4990    8.6880    9.8220 P   0  0  0  0  0  0  0  0  0  0  0  0
   53.6800    8.4020   11.0840 O   0  0  0  0  0  0  0  0  0  0  0  0
   53.7630    9.4200    8.7210 O   0  0  0  0  0  0  0  0  0  0  0  0
   55.8430    9.2920   10.2440 O   0  0  0  0  0  0  0  0  0  0  0  0
   54.7470    4.7480   11.7210 C   0  0  0  0  0  0  0  0  0  0  0  0
   54.6840    5.6250   12.9380 C   0  0  0  0  0  0  0  0  0  0  0  0
   56.0290    6.2100   13.3880 C   0  0  2  0  0  0  0  0  0  0  0  0
   56.3960    7.3920   12.5810 N   0  0  0  0  0  0  0  0  0  0  0  0
   57.1560    5.1290   13.4700 C   0  0  0  0  0  0  0  0  0  0  0  0
   57.9030    4.9930   12.4600 O   0  0  0  0  0  0  0  0  0  0  0  0
   57.1510    4.4600   14.5510 O   0  0  0  0  0  0  0  0  0  0  0  0
   53.7244    0.1243   12.3641 H   0  0  0  0  0  0  0  0  0  0  0  0
   53.0193    1.1316   11.0546 H   0  0  0  0  0  0  0  0  0  0  0  0
   54.7768    0.7601   11.0546 H   0  0  0  0  0  0  0  0  0  0  0  0
   53.1189    2.5084   14.4055 H   0  0  0  0  0  0  0  0  0  0  0  0
   52.5491    3.5789   13.0804 H   0  0  0  0  0  0  0  0  0  0  0  0
   52.1086    1.8375   13.0804 H   0  0  0  0  0  0  0  0  0  0  0  0
   54.8959    2.0589   14.5527 H   0  0  0  0  0  0  0  0  0  0  0  0
   55.6694    0.9369   13.3825 H   0  0  0  0  0  0  0  0  0  0  0  0
   56.1099    2.6783   13.3825 H   0  0  0  0  0  0  0  0  0  0  0  0
   55.4794    7.1386    8.1672 H   0  0  0  0  0  0  0  0  0  0  0  0
   53.9952    6.4514    8.8894 H   0  0  0  0  0  0  0  0  0  0  0  0
   54.0040    6.4618   12.7204 H   0  0  0  0  0  0  0  0  0  0  0  0
   54.3381    4.9827   13.7613 H   0  0  0  0  0  0  0  0  0  0  0  0
   55.9077    6.5678   14.4211 H   0  0  0  0  0  0  0  0  0  0  0  0
   57.2540    7.3140   11.9570 H   0  0  0  0  0  0  0  0  0  0  0  0
   55.7260    7.6130   11.7880 H   0  0  0  0  0  0  0  0  0  0  0  0
   56.5410    8.2300   13.1420 H   0  0  0  0  0  0  0  0  0  0  0  0
  1  2  1  0
  2  3  1  0
  2  4  1  0
  2  5  1  0
  5  6  1  0
  6  7  1  0
  7  8  2  0
  8  9  1  0
  9 10  1  0
 10 11  1  0
 11 12  2  0
 11 13  1  0
 11 14  1  0
  8 15  1  0
 15 16  1  0
 16 17  1  0
 17 18  1  0
 17 19  1  0
 19 20  2  0
 19 21  1  0
 15  5  2  0
  1 22  1  0
  1 23  1  0
  1 24  1  0
  3 25  1  0
  3 26  1  0
  3 27  1  0
  4 28  1  0
  4 29  1  0
  4 30  1  0
 10 31  1  0
 10 32  1  0
 16 33  1  0
 16 34  1  0
 17 35  1  1
 18 36  1  0
 18 37  1  0
 18 38  1  0
M  CHG  4  13  -1  14  -1  18   1  21  -1
M  END
>  <meeko>  (5) 
{"is_sidechain": [false], "free_energy": -5.356, "intermolecular_energy": -7.831, "internal_energy": -1.285}

$$$$
1vso_ligand
     RDKit          3D

 38 38  0  0  0  0  0  0  0  0999 V2000
   56.0090    3.1310   13.3750 C   0  0  0  0  0  0  0  0  0  0  0  0
   54.8900    2.5930   12.4650 C   0  0  0  0  0  0  0  0  0  0  0  0
   55.3100    1.1920   11.9620 C   0  0  0  0  0  0  0  0  0  0  0  0
   53.6080    2.4130   13.2900 C   0  0  0  0  0  0  0  0  0  0  0  0
   54.6860    3.5470   11.3080 C   0  0  0  0  0  0  0  0  0  0  0  0
   55.3600    3.2230   10.1610 O   0  0  0  0  0  0  0  0  0  0  0  0
   55.2140    4.2210    9.2220 N   0  0  0  0  0  0  0  0  0  0  0  0
   54.3910    5.1050    9.7880 C   0  0  0  0  0  0  0  0  0  0  0  0
   54.2190    6.2950    9.1840 O   0  0  0  0  0  0  0  0  0  0  0  0
   55.3450    7.1650    9.3590 C   0  0  0  0  0  0  0  0  0  0  0  0
   54.7090    8.9040    9.6250 P   0  0  0  0  0  0  0  0  0  0  0  0
   55.7510    9.5930   10.5110 O   0  0  0  0  0  0  0  0  0  0  0  0
   53.3380    8.7340   10.2440 O   0  0  0  0  0  0  0  0  0  0  0  0
   54.7410    9.5600    8.2400 O   0  0  0  0  0  0  0  0  0  0  0  0
   54.0390    4.7630   11.1170 C   0  0  0  0  0  0  0  0  0  0  0  0
   53.2470    5.5990   12.0800 C   0  0  0  0  0  0  0  0  0  0  0  0
   53.9980    6.0110   13.3530 C   0  0  2  0  0  0  0  0  0  0  0  0
   53.0930    6.0440   14.5220 N   0  0  0  0  0  0  0  0  0  0  0  0
   54.8270    7.3220   13.1630 C   0  0  0  0  0  0  0  0  0  0  0  0
   56.0370    7.1990   12.8190 O   0  0  0  0  0  0  0  0  0  0  0  0
   54.1830    8.3830   13.4370 O   0  0  0  0  0  0  0  0  0  0  0  0
   55.7230    2.9935   14.4282 H   0  0  0  0  0  0  0  0  0  0  0  0
   56.9410    2.5825   13.1735 H   0  0  0  0  0  0  0  0  0  0  0  0
   56.1626    4.2014   13.1735 H   0  0  0  0  0  0  0  0  0  0  0  0
   55.5064    0.5368   12.8235 H   0  0  0  0  0  0  0  0  0  0  0  0
   54.5008    0.7635   11.3524 H   0  0  0  0  0  0  0  0  0  0  0  0
   56.2215    1.2793   11.3524 H   0  0  0  0  0  0  0  0  0  0  0  0
   53.8537    2.4475   14.3616 H   0  0  0  0  0  0  0  0  0  0  0  0
   52.9009    3.2207   13.0498 H   0  0  0  0  0  0  0  0  0  0  0  0
   53.1507    1.4418   13.0498 H   0  0  0  0  0  0  0  0  0  0  0  0
   55.9297    6.8450   10.2341 H   0  0  0  0  0  0  0  0  0  0  0  0
   55.9921    7.1303    8.4702 H   0  0  0  0  0  0  0  0  0  0  0  0
   52.9328    6.5148   11.5580 H   0  0  0  0  0  0  0  0  0  0  0  0
   52.4051    4.9725   12.4097 H   0  0  0  0  0  0  0  0  0  0  0  0
   54.7470    5.2335   13.5638 H   0  0  0  0  0  0  0  0  0  0  0  0
   52.0590    6.2080   14.3380 H   0  0  0  0  0  0  0  0  0  0  0  0
   52.9540    5.1060   15.0010 H   0  0  0  0  0  0  0  0  0  0  0  0
   53.3620    6.7390   15.2160 H   0  0  0  0  0  0  0  0  0  0  0  0
  1  2  1  0
  2  3  1  0
  2  4  1  0
  2  5  1  0
  5  6  1  0
  6  7  1  0
  7  8  2  0
  8  9  1  0
  9 10  1  0
 10 11  1  0
 11 12  2  0
 11 13  1  0
 11 14  1  0
  8 15  1  0
 15 16  1  0
 16 17  1  0
 17 18  1  0
 17 19  1  0
 19 20  2  0
 19 21  1  0
 15  5  2  0
  1 22  1  0
  1 23  1  0
  1 24  1  0
  3 25  1  0
  3 26  1  0
  3 27  1  0
  4 28  1  0
  4 29  1  0
  4 30  1  0
 10 31  1  0
 10 32  1  0
 16 33  1  0
 16 34  1  0
 17 35  1  1
 18 36  1  0
 18 37  1  0
 18 38  1  0
M  CHG  4  13  -1  14  -1  18   1  21  -1
M  END
>  <meeko>  (6) 
{"is_sidechain": [false], "free_energy": -5.291, "intermolecular_energy": -7.907, "internal_energy": -1.115}

$$$$
1vso_ligand
     RDKit          3D

 38 38  0  0  0  0  0  0  0  0999 V2000
   56.3810    1.6560   11.1560 C   0  0  0  0  0  0  0  0  0  0  0  0
   55.3230    2.4400   11.9530 C   0  0  0  0  0  0  0  0  0  0  0  0
   54.1480    1.4840   12.2630 C   0  0  0  0  0  0  0  0  0  0  0  0
   55.9210    2.8730   13.2980 C   0  0  0  0  0  0  0  0  0  0  0  0
   54.8590    3.6250   11.1350 C   0  0  0  0  0  0  0  0  0  0  0  0
   55.2660    3.6240    9.8280 O   0  0  0  0  0  0  0  0  0  0  0  0
   54.9070    4.8050    9.2140 N   0  0  0  0  0  0  0  0  0  0  0  0
   54.2200    5.4750   10.1390 C   0  0  0  0  0  0  0  0  0  0  0  0
   53.9070    6.7610    9.8940 O   0  0  0  0  0  0  0  0  0  0  0  0
   54.6140    7.2900    8.7650 C   0  0  0  0  0  0  0  0  0  0  0  0
   55.1640    9.0290    9.1790 P   0  0  0  0  0  0  0  0  0  0  0  0
   54.1630    9.9550    8.4810 O   0  0  0  0  0  0  0  0  0  0  0  0
   56.5910    9.1230    8.6840 O   0  0  0  0  0  0  0  0  0  0  0  0
   54.9710    9.1630   10.6940 O   0  0  0  0  0  0  0  0  0  0  0  0
   54.1740    4.8070   11.3870 C   0  0  0  0  0  0  0  0  0  0  0  0
   53.6050    5.3400   12.6710 C   0  0  0  0  0  0  0  0  0  0  0  0
   52.3430    4.6250   13.1690 C   0  0  2  0  0  0  0  0  0  0  0  0
   51.1620    5.5120   13.1020 N   0  0  0  0  0  0  0  0  0  0  0  0
   52.5450    3.9530   14.5660 C   0  0  0  0  0  0  0  0  0  0  0  0
   52.0020    2.8280   14.7530 O   0  0  0  0  0  0  0  0  0  0  0  0
   53.2050    4.6640   15.3880 O   0  0  0  0  0  0  0  0  0  0  0  0
   57.0645    1.1495   11.8534 H   0  0  0  0  0  0  0  0  0  0  0  0
   55.8826    0.9075   10.5225 H   0  0  0  0  0  0  0  0  0  0  0  0
   56.9520    2.3507   10.5225 H   0  0  0  0  0  0  0  0  0  0  0  0
   54.0306    1.3885   13.3525 H   0  0  0  0  0  0  0  0  0  0  0  0
   53.2219    1.8884   11.8285 H   0  0  0  0  0  0  0  0  0  0  0  0
   54.3555    0.4950   11.8285 H   0  0  0  0  0  0  0  0  0  0  0  0
   55.3275    2.4433   14.1185 H   0  0  0  0  0  0  0  0  0  0  0  0
   56.9588    2.5156   13.3699 H   0  0  0  0  0  0  0  0  0  0  0  0
   55.9053    3.9705   13.3699 H   0  0  0  0  0  0  0  0  0  0  0  0
   55.4921    6.6636    8.5491 H   0  0  0  0  0  0  0  0  0  0  0  0
   53.9614    7.2995    7.8796 H   0  0  0  0  0  0  0  0  0  0  0  0
   54.3772    5.2502   13.4492 H   0  0  0  0  0  0  0  0  0  0  0  0
   53.3081    6.3793   12.4667 H   0  0  0  0  0  0  0  0  0  0  0  0
   52.1417    3.7899   12.4819 H   0  0  0  0  0  0  0  0  0  0  0  0
   51.0140    6.1950   13.9040 H   0  0  0  0  0  0  0  0  0  0  0  0
   51.2140    6.2620   12.3520 H   0  0  0  0  0  0  0  0  0  0  0  0
   50.2850    5.0050   13.0090 H   0  0  0  0  0  0  0  0  0  0  0  0
  1  2  1  0
  2  3  1  0
  2  4  1  0
  2  5  1  0
  5  6  1  0
  6  7  1  0
  7  8  2  0
  8  9  1  0
  9 10  1  0
 10 11  1  0
 11 12  2  0
 11 13  1  0
 11 14  1  0
  8 15  1  0
 15 16  1  0
 16 17  1  0
 17 18  1  0
 17 19  1  0
 19 20  2  0
 19 21  1  0
 15  5  2  0
  1 22  1  0
  1 23  1  0
  1 24  1  0
  3 25  1  0
  3 26  1  0
  3 27  1  0
  4 28  1  0
  4 29  1  0
  4 30  1  0
 10 31  1  0
 10 32  1  0
 16 33  1  0
 16 34  1  0
 17 35  1  6
 18 36  1  0
 18 37  1  0
 18 38  1  0
M  CHG  4  13  -1  14  -1  18   1  21  -1
M  END
>  <meeko>  (7) 
{"is_sidechain": [false], "free_energy": -5.244, "intermolecular_energy": -8.097, "internal_energy": -0.857}

$$$$
1vso_ligand
     RDKit          3D

 38 38  0  0  0  0  0  0  0  0999 V2000
   56.0240    2.0890   11.0020 C   0  0  0  0  0  0  0  0  0  0  0  0
   54.9780    2.6310   11.9930 C   0  0  0  0  0  0  0  0  0  0  0  0
   53.8050    1.6250   12.0510 C   0  0  0  0  0  0  0  0  0  0  0  0
   55.5940    2.6910   13.3970 C   0  0  0  0  0  0  0  0  0  0  0  0
   54.5070    3.9900   11.5260 C   0  0  0  0  0  0  0  0  0  0  0  0
   55.1220    4.4630   10.3980 O   0  0  0  0  0  0  0  0  0  0  0  0
   54.7190    5.7560   10.1390 N   0  0  0  0  0  0  0  0  0  0  0  0
   53.8070    6.0230   11.0750 C   0  0  0  0  0  0  0  0  0  0  0  0
   53.3750    7.2910   11.2010 O   0  0  0  0  0  0  0  0  0  0  0  0
   54.4410    8.2450   11.0980 C   0  0  0  0  0  0  0  0  0  0  0  0
   55.1860    8.4800   12.7970 P   0  0  0  0  0  0  0  0  0  0  0  0
   56.2330    7.3730   12.9440 O   0  0  0  0  0  0  0  0  0  0  0  0
   54.0180    8.4030   13.7570 O   0  0  0  0  0  0  0  0  0  0  0  0
   55.9130    9.8280   12.7350 O   0  0  0  0  0  0  0  0  0  0  0  0
   53.6420    4.9670   12.0050 C   0  0  0  0  0  0  0  0  0  0  0  0
   52.8040    4.9910   13.2510 C   0  0  0  0  0  0  0  0  0  0  0  0
   51.4150    4.3550   13.1130 C   0  0  2  0  0  0  0  0  0  0  0  0
   50.3930    5.3680   12.7760 N   0  0  0  0  0  0  0  0  0  0  0  0
   51.0370    3.4650   14.3410 C   0  0  0  0  0  0  0  0  0  0  0  0
   49.8250    3.4530   14.6990 O   0  0  0  0  0  0  0  0  0  0  0  0
   52.0310    2.8860   14.8830 O   0  0  0  0  0  0  0  0  0  0  0  0
   56.8659    1.6528   11.5596 H   0  0  0  0  0  0  0  0  0  0  0  0
   55.5635    1.3160   10.3691 H   0  0  0  0  0  0  0  0  0  0  0  0
   56.3900    2.9109   10.3691 H   0  0  0  0  0  0  0  0  0  0  0  0
   53.5564    1.4118   13.1011 H   0  0  0  0  0  0  0  0  0  0  0  0
   52.9274    2.0556   11.5466 H   0  0  0  0  0  0  0  0  0  0  0  0
   54.0968    0.6920   11.5466 H   0  0  0  0  0  0  0  0  0  0  0  0
   54.7967    2.6133   14.1508 H   0  0  0  0  0  0  0  0  0  0  0  0
   56.3005    1.8574   13.5234 H   0  0  0  0  0  0  0  0  0  0  0  0
   56.1264    3.6453   13.5234 H   0  0  0  0  0  0  0  0  0  0  0  0
   55.2084    7.8716   10.4039 H   0  0  0  0  0  0  0  0  0  0  0  0
   54.0566    9.2028   10.7173 H   0  0  0  0  0  0  0  0  0  0  0  0
   53.3494    4.4509   14.0390 H   0  0  0  0  0  0  0  0  0  0  0  0
   52.6333    6.0522   13.4851 H   0  0  0  0  0  0  0  0  0  0  0  0
   51.4515    3.6582   12.2626 H   0  0  0  0  0  0  0  0  0  0  0  0
   50.6880    6.1740   12.1480 H   0  0  0  0  0  0  0  0  0  0  0  0
   49.6240    5.0240   12.1290 H   0  0  0  0  0  0  0  0  0  0  0  0
   49.9730    5.8010   13.5970 H   0  0  0  0  0  0  0  0  0  0  0  0
  1  2  1  0
  2  3  1  0
  2  4  1  0
  2  5  1  0
  5  6  1  0
  6  7  1  0
  7  8  2  0
  8  9  1  0
  9 10  1  0
 10 11  1  0
 11 12  2  0
 11 13  1  0
 11 14  1  0
  8 15  1  0
 15 16  1  0
 16 17  1  0
 17 18  1  0
 17 19  1  0
 19 20  2  0
 19 21  1  0
 15  5  2  0
  1 22  1  0
  1 23  1  0
  1 24  1  0
  3 25  1  0
  3 26  1  0
  3 27  1  0
  4 28  1  0
  4 29  1  0
  4 30  1  0
 10 31  1  0
 10 32  1  0
 16 33  1  0
 16 34  1  0
 17 35  1  6
 18 36  1  0
 18 37  1  0
 18 38  1  0
M  CHG  4  13  -1  14  -1  18   1  21  -1
M  END
>  <meeko>  (8) 
{"is_sidechain": [false], "free_energy": -5.184, "intermolecular_energy": -7.73, "internal_energy": -1.139}

$$$$
1vso_ligand
     RDKit          3D

 38 38  0  0  0  0  0  0  0  0999 V2000
   55.8960    8.7610    8.7760 C   0  0  0  0  0  0  0  0  0  0  0  0
   55.2220    8.3230   10.0890 C   0  0  0  0  0  0  0  0  0  0  0  0
   55.8430    9.1430   11.2440 C   0  0  0  0  0  0  0  0  0  0  0  0
   53.7300    8.6740   10.0340 C   0  0  0  0  0  0  0  0  0  0  0  0
   55.4460    6.8410   10.2940 C   0  0  0  0  0  0  0  0  0  0  0  0
   55.0680    6.0450    9.2460 O   0  0  0  0  0  0  0  0  0  0  0  0
   55.1870    4.7150    9.5870 N   0  0  0  0  0  0  0  0  0  0  0  0
   55.7070    4.7230   10.8150 C   0  0  0  0  0  0  0  0  0  0  0  0
   55.7540    3.5630   11.4950 O   0  0  0  0  0  0  0  0  0  0  0  0
   55.2930    2.4520   10.7140 C   0  0  0  0  0  0  0  0  0  0  0  0
   54.6050    1.1600   11.8790 P   0  0  0  0  0  0  0  0  0  0  0  0
   53.1310    1.0050   11.4970 O   0  0  0  0  0  0  0  0  0  0  0  0
   54.8640    1.7010   13.2690 O   0  0  0  0  0  0  0  0  0  0  0  0
   55.3370   -0.1370   11.5190 O   0  0  0  0  0  0  0  0  0  0  0  0
   55.8700    6.0290   11.3390 C   0  0  0  0  0  0  0  0  0  0  0  0
   56.2980    6.3900   12.7320 C   0  0  0  0  0  0  0  0  0  0  0  0
   55.2520    6.1240   13.8230 C   0  0  2  0  0  0  0  0  0  0  0  0
   55.0790    4.6750   14.0560 N   0  0  0  0  0  0  0  0  0  0  0  0
   53.9100    6.8840   13.5660 C   0  0  0  0  0  0  0  0  0  0  0  0
   53.8910    8.1250   13.8060 O   0  0  0  0  0  0  0  0  0  0  0  0
   52.9570    6.1330   13.1880 O   0  0  0  0  0  0  0  0  0  0  0  0
   56.7982    9.3473    9.0048 H   0  0  0  0  0  0  0  0  0  0  0  0
   56.1751    7.8712    8.1925 H   0  0  0  0  0  0  0  0  0  0  0  0
   55.1963    9.3774    8.1925 H   0  0  0  0  0  0  0  0  0  0  0  0
   55.5226    8.7200   12.2076 H   0  0  0  0  0  0  0  0  0  0  0  0
   56.9400    9.1039   11.1730 H   0  0  0  0  0  0  0  0  0  0  0  0
   55.5080   10.1883   11.1730 H   0  0  0  0  0  0  0  0  0  0  0  0
   53.3371    8.7664   11.0573 H   0  0  0  0  0  0  0  0  0  0  0  0
   53.5971    9.6279    9.5026 H   0  0  0  0  0  0  0  0  0  0  0  0
   53.1857    7.8794    9.5026 H   0  0  0  0  0  0  0  0  0  0  0  0
   54.5059    2.7853   10.0215 H   0  0  0  0  0  0  0  0  0  0  0  0
   56.1230    2.0304   10.1281 H   0  0  0  0  0  0  0  0  0  0  0  0
   57.1988    5.8068   12.9738 H   0  0  0  0  0  0  0  0  0  0  0  0
   56.4682    7.4768   12.7287 H   0  0  0  0  0  0  0  0  0  0  0  0
   55.6371    6.5449   14.7635 H   0  0  0  0  0  0  0  0  0  0  0  0
   55.4640    4.2740   14.9630 H   0  0  0  0  0  0  0  0  0  0  0  0
   54.0780    4.3720   14.2400 H   0  0  0  0  0  0  0  0  0  0  0  0
   55.4720    4.1000   13.3140 H   0  0  0  0  0  0  0  0  0  0  0  0
  1  2  1  0
  2  3  1  0
  2  4  1  0
  2  5  1  0
  5  6  1  0
  6  7  1  0
  7  8  2  0
  8  9  1  0
  9 10  1  0
 10 11  1  0
 11 12  2  0
 11 13  1  0
 11 14  1  0
  8 15  1  0
 15 16  1  0
 16 17  1  0
 17 18  1  0
 17 19  1  0
 19 20  2  0
 19 21  1  0
 15  5  2  0
  1 22  1  0
  1 23  1  0
  1 24  1  0
  3 25  1  0
  3 26  1  0
  3 27  1  0
  4 28  1  0
  4 29  1  0
  4 30  1  0
 10 31  1  0
 10 32  1  0
 16 33  1  0
 16 34  1  0
 17 35  1  1
 18 36  1  0
 18 37  1  0
 18 38  1  0
M  CHG  4  13  -1  14  -1  18   1  21  -1
M  END
>  <meeko>  (9) 
{"is_sidechain": [false], "free_energy": -5.092, "intermolecular_energy": -7.77, "internal_energy": -0.966}

$$$$
