3pyy_ligand
     RDKit          3D

 38 41  0  0  0  0  0  0  0  0999 V2000
   10.3870    8.7230  -35.1950 O   0  0  0  0  0  0  0  0  0  0  0  0
   11.3550    7.9890  -35.1330 C   0  0  0  0  0  0  0  0  0  0  0  0
   11.5500    6.8580  -35.8500 N   0  0  0  0  0  0  0  0  0  0  0  0
   12.7550    6.2980  -35.5510 C   0  0  0  0  0  0  0  0  0  0  0  0
   13.1950    5.2790  -36.0630 O   0  0  0  0  0  0  0  0  0  0  0  0
   13.4380    7.1560  -34.4810 C   0  0  1  0  0  0  0  0  0  0  0  0
   14.7220    7.7510  -34.9350 C   0  0  0  0  0  0  0  0  0  0  0  0
   14.9230    8.8260  -35.7840 C   0  0  0  0  0  0  0  0  0  0  0  0
   16.2800    9.0350  -35.8810 N   0  0  0  0  0  0  0  0  0  0  0  0
   16.9640   10.0260  -36.6400 C   0  0  0  0  0  0  0  0  0  0  0  0
   16.3530   10.6570  -37.7330 C   0  0  0  0  0  0  0  0  0  0  0  0
   17.0520   11.6280  -38.4580 C   0  0  0  0  0  0  0  0  0  0  0  0
   18.3540   11.9730  -38.1010 C   0  0  0  0  0  0  0  0  0  0  0  0
   18.9670   11.3480  -37.0170 C   0  0  0  0  0  0  0  0  0  0  0  0
   18.2760   10.3780  -36.2880 C   0  0  0  0  0  0  0  0  0  0  0  0
   16.9610    8.1510  -35.1150 N   0  0  0  0  0  0  0  0  0  0  0  0
   16.0380    7.3490  -34.5720 C   0  0  0  0  0  0  0  0  0  0  0  0
   16.4440    6.2520  -33.6980 C   0  0  0  0  0  0  0  0  0  0  0  0
   15.7980    5.0090  -33.7600 C   0  0  0  0  0  0  0  0  0  0  0  0
   16.1900    3.9720  -32.9090 C   0  0  0  0  0  0  0  0  0  0  0  0
   17.2280    4.1780  -32.0080 C   0  0  0  0  0  0  0  0  0  0  0  0
   17.6010    3.1820  -31.1930 F   0  0  0  0  0  0  0  0  0  0  0  0
   17.8880    5.3980  -31.9430 C   0  0  0  0  0  0  0  0  0  0  0  0
   17.4990    6.4360  -32.7920 C   0  0  0  0  0  0  0  0  0  0  0  0
   12.4400    8.1830  -34.3160 N   0  0  0  0  0  0  0  0  0  0  0  0
   10.9010    6.5030  -36.5320 H   0  0  0  0  0  0  0  0  0  0  0  0
   13.7166    6.5942  -33.5772 H   0  0  0  0  0  0  0  0  0  0  0  0
   14.1390    9.4085  -36.2901 H   0  0  0  0  0  0  0  0  0  0  0  0
   15.3255   10.3889  -38.0200 H   0  0  0  0  0  0  0  0  0  0  0  0
   16.5709   12.1221  -39.3150 H   0  0  0  0  0  0  0  0  0  0  0  0
   18.8975   12.7382  -38.6746 H   0  0  0  0  0  0  0  0  0  0  0  0
   19.9953   11.6187  -36.7355 H   0  0  0  0  0  0  0  0  0  0  0  0
   18.7630    9.8869  -35.4327 H   0  0  0  0  0  0  0  0  0  0  0  0
   14.9814    4.8498  -34.4796 H   0  0  0  0  0  0  0  0  0  0  0  0
   15.6799    2.9984  -32.9521 H   0  0  0  0  0  0  0  0  0  0  0  0
   18.7109    5.5455  -31.2282 H   0  0  0  0  0  0  0  0  0  0  0  0
   18.0223    7.4026  -32.7502 H   0  0  0  0  0  0  0  0  0  0  0  0
   12.5060    8.9760  -33.6930 H   0  0  0  0  0  0  0  0  0  0  0  0
  1  2  2  0
  2  3  1  0
  3  4  1  0
  4  5  2  0
  4  6  1  0
  6  7  1  0
  7  8  2  0
  8  9  1  0
  9 10  1  0
 10 11  2  0
 11 12  1  0
 12 13  2  0
 13 14  1  0
 14 15  2  0
  9 16  1  0
 16 17  2  0
 17 18  1  0
 18 19  2  0
 19 20  1  0
 20 21  2  0
 21 22  1  0
 21 23  1  0
 23 24  2  0
  6 25  1  0
 25  2  1  0
 17  7  1  0
 24 18  1  0
 15 10  1  0
  3 26  1  0
  6 27  1  1
  8 28  1  0
 11 29  1  0
 12 30  1  0
 13 31  1  0
 14 32  1  0
 15 33  1  0
 19 34  1  0
 20 35  1  0
 23 36  1  0
 24 37  1  0
 25 38  1  0
M  END
>  <meeko>  (1) 
{"is_sidechain": [false], "free_energy": -9.089, "intermolecular_energy": -10.683, "internal_energy": -0.741}

$$$$
3pyy_ligand
     RDKit          3D

 38 41  0  0  0  0  0  0  0  0999 V2000
    9.7610    8.9080  -34.9900 O   0  0  0  0  0  0  0  0  0  0  0  0
   10.7610    8.2150  -35.0210 C   0  0  0  0  0  0  0  0  0  0  0  0
   10.9190    7.0670  -35.7200 N   0  0  0  0  0  0  0  0  0  0  0  0
   12.1740    6.5660  -35.5500 C   0  0  0  0  0  0  0  0  0  0  0  0
   12.5940    5.5470  -36.0780 O   0  0  0  0  0  0  0  0  0  0  0  0
   12.9400    7.4890  -34.5960 C   0  0  1  0  0  0  0  0  0  0  0  0
   14.1340    8.1170  -35.2190 C   0  0  0  0  0  0  0  0  0  0  0  0
   14.1860    9.1550  -36.1330 C   0  0  0  0  0  0  0  0  0  0  0  0
   15.5120    9.4190  -36.3920 N   0  0  0  0  0  0  0  0  0  0  0  0
   16.0570   10.3990  -37.2680 C   0  0  0  0  0  0  0  0  0  0  0  0
   17.4230   10.7160  -37.2470 C   0  0  0  0  0  0  0  0  0  0  0  0
   17.9290   11.6830  -38.1220 C   0  0  0  0  0  0  0  0  0  0  0  0
   17.0830   12.3370  -39.0160 C   0  0  0  0  0  0  0  0  0  0  0  0
   15.7250   12.0270  -39.0400 C   0  0  0  0  0  0  0  0  0  0  0  0
   15.2120   11.0630  -38.1710 C   0  0  0  0  0  0  0  0  0  0  0  0
   16.3170    8.6070  -35.6680 N   0  0  0  0  0  0  0  0  0  0  0  0
   15.5010    7.7930  -34.9880 C   0  0  0  0  0  0  0  0  0  0  0  0
   16.0550    6.7630  -34.1150 C   0  0  0  0  0  0  0  0  0  0  0  0
   17.1240    7.0500  -33.2540 C   0  0  0  0  0  0  0  0  0  0  0  0
   17.6510    6.0520  -32.4320 C   0  0  0  0  0  0  0  0  0  0  0  0
   17.1040    4.7740  -32.4660 C   0  0  0  0  0  0  0  0  0  0  0  0
   17.6120    3.8180  -31.6770 F   0  0  0  0  0  0  0  0  0  0  0  0
   16.0360    4.4750  -33.3020 C   0  0  0  0  0  0  0  0  0  0  0  0
   15.5070    5.4720  -34.1250 C   0  0  0  0  0  0  0  0  0  0  0  0
   11.9250    8.4820  -34.3460 N   0  0  0  0  0  0  0  0  0  0  0  0
   10.2100    6.6620  -36.3080 H   0  0  0  0  0  0  0  0  0  0  0  0
   13.3465    6.9720  -33.7142 H   0  0  0  0  0  0  0  0  0  0  0  0
   13.3228    9.6755  -36.5734 H   0  0  0  0  0  0  0  0  0  0  0  0
   18.0960   10.2046  -36.5430 H   0  0  0  0  0  0  0  0  0  0  0  0
   19.0011   11.9288  -38.1044 H   0  0  0  0  0  0  0  0  0  0  0  0
   17.4869   13.0966  -39.7014 H   0  0  0  0  0  0  0  0  0  0  0  0
   15.0562   12.5427  -39.7448 H   0  0  0  0  0  0  0  0  0  0  0  0
   14.1390   10.8221  -38.1938 H   0  0  0  0  0  0  0  0  0  0  0  0
   17.5486    8.0644  -33.2261 H   0  0  0  0  0  0  0  0  0  0  0  0
   18.4939    6.2754  -31.7615 H   0  0  0  0  0  0  0  0  0  0  0  0
   15.6100    3.4609  -33.3159 H   0  0  0  0  0  0  0  0  0  0  0  0
   14.6565    5.2435  -34.7841 H   0  0  0  0  0  0  0  0  0  0  0  0
   12.0300    9.2980  -33.7600 H   0  0  0  0  0  0  0  0  0  0  0  0
  1  2  2  0
  2  3  1  0
  3  4  1  0
  4  5  2  0
  4  6  1  0
  6  7  1  0
  7  8  2  0
  8  9  1  0
  9 10  1  0
 10 11  2  0
 11 12  1  0
 12 13  2  0
 13 14  1  0
 14 15  2  0
  9 16  1  0
 16 17  2  0
 17 18  1  0
 18 19  2  0
 19 20  1  0
 20 21  2  0
 21 22  1  0
 21 23  1  0
 23 24  2  0
  6 25  1  0
 25  2  1  0
 17  7  1  0
 24 18  1  0
 15 10  1  0
  3 26  1  0
  6 27  1  1
  8 28  1  0
 11 29  1  0
 12 30  1  0
 13 31  1  0
 14 32  1  0
 15 33  1  0
 19 34  1  0
 20 35  1  0
 23 36  1  0
 24 37  1  0
 25 38  1  0
M  END
>  <meeko>  (2) 
{"is_sidechain": [false], "free_energy": -8.537, "intermolecular_energy": -10.011, "internal_energy": -0.764}

$$$$
3pyy_ligand
     RDKit          3D

 38 41  0  0  0  0  0  0  0  0999 V2000
   10.4180    7.5840  -35.9970 O   0  0  0  0  0  0  0  0  0  0  0  0
   11.3460    8.2370  -35.5570 C   0  0  0  0  0  0  0  0  0  0  0  0
   11.3390    8.9750  -34.4230 N   0  0  0  0  0  0  0  0  0  0  0  0
   12.5550    9.5530  -34.2150 C   0  0  0  0  0  0  0  0  0  0  0  0
   12.8340   10.2600  -33.2590 O   0  0  0  0  0  0  0  0  0  0  0  0
   13.4810    9.1670  -35.3730 C   0  0  1  0  0  0  0  0  0  0  0  0
   14.6670    8.3820  -34.9410 C   0  0  0  0  0  0  0  0  0  0  0  0
   14.7180    7.3000  -34.0800 C   0  0  0  0  0  0  0  0  0  0  0  0
   16.0280    6.8810  -34.0120 N   0  0  0  0  0  0  0  0  0  0  0  0
   16.5680    5.8040  -33.2540 C   0  0  0  0  0  0  0  0  0  0  0  0
   15.9500    4.5450  -33.2340 C   0  0  0  0  0  0  0  0  0  0  0  0
   16.5060    3.5060  -32.4800 C   0  0  0  0  0  0  0  0  0  0  0  0
   17.6720    3.7150  -31.7460 C   0  0  0  0  0  0  0  0  0  0  0  0
   18.2900    4.9630  -31.7610 C   0  0  0  0  0  0  0  0  0  0  0  0
   17.7410    6.0050  -32.5110 C   0  0  0  0  0  0  0  0  0  0  0  0
   16.8190    7.6370  -34.8090 N   0  0  0  0  0  0  0  0  0  0  0  0
   16.0200    8.5680  -35.3420 C   0  0  0  0  0  0  0  0  0  0  0  0
   16.5690    9.5750  -36.2440 C   0  0  0  0  0  0  0  0  0  0  0  0
   15.8110   10.0690  -37.3150 C   0  0  0  0  0  0  0  0  0  0  0  0
   16.3540   11.0260  -38.1770 C   0  0  0  0  0  0  0  0  0  0  0  0
   17.6460   11.4910  -37.9610 C   0  0  0  0  0  0  0  0  0  0  0  0
   18.1640   12.4080  -38.7890 F   0  0  0  0  0  0  0  0  0  0  0  0
   18.4060   11.0230  -36.8960 C   0  0  0  0  0  0  0  0  0  0  0  0
   17.8660   10.0680  -36.0330 C   0  0  0  0  0  0  0  0  0  0  0  0
   12.5840    8.3380  -36.1390 N   0  0  0  0  0  0  0  0  0  0  0  0
   10.5480    9.0560  -33.8070 H   0  0  0  0  0  0  0  0  0  0  0  0
   13.9163   10.0313  -35.8961 H   0  0  0  0  0  0  0  0  0  0  0  0
   13.8656    6.8547  -33.5460 H   0  0  0  0  0  0  0  0  0  0  0  0
   15.0289    4.3747  -33.8107 H   0  0  0  0  0  0  0  0  0  0  0  0
   16.0203    2.5191  -32.4665 H   0  0  0  0  0  0  0  0  0  0  0  0
   18.1043    2.8943  -31.1548 H   0  0  0  0  0  0  0  0  0  0  0  0
   19.2106    5.1278  -31.1820 H   0  0  0  0  0  0  0  0  0  0  0  0
   18.2313    6.9897  -32.5194 H   0  0  0  0  0  0  0  0  0  0  0  0
   14.7866    9.7026  -37.4773 H   0  0  0  0  0  0  0  0  0  0  0  0
   15.7623   11.4090  -39.0215 H   0  0  0  0  0  0  0  0  0  0  0  0
   19.4258   11.4023  -36.7342 H   0  0  0  0  0  0  0  0  0  0  0  0
   18.4599    9.7000  -35.1834 H   0  0  0  0  0  0  0  0  0  0  0  0
   12.8120    7.8610  -37.0000 H   0  0  0  0  0  0  0  0  0  0  0  0
  1  2  2  0
  2  3  1  0
  3  4  1  0
  4  5  2  0
  4  6  1  0
  6  7  1  0
  7  8  2  0
  8  9  1  0
  9 10  1  0
 10 11  2  0
 11 12  1  0
 12 13  2  0
 13 14  1  0
 14 15  2  0
  9 16  1  0
 16 17  2  0
 17 18  1  0
 18 19  2  0
 19 20  1  0
 20 21  2  0
 21 22  1  0
 21 23  1  0
 23 24  2  0
  6 25  1  0
 25  2  1  0
 17  7  1  0
 24 18  1  0
 15 10  1  0
  3 26  1  0
  6 27  1  6
  8 28  1  0
 11 29  1  0
 12 30  1  0
 13 31  1  0
 14 32  1  0
 15 33  1  0
 19 34  1  0
 20 35  1  0
 23 36  1  0
 24 37  1  0
 25 38  1  0
M  END
>  <meeko>  (3) 
{"is_sidechain": [false], "free_energy": -8.531, "intermolecular_energy": -10.173, "internal_energy": -0.595}

$$$$
3pyy_ligand
     RDKit          3D

 38 41  0  0  0  0  0  0  0  0999 V2000
   10.4010   11.7280  -33.4740 O   0  0  0  0  0  0  0  0  0  0  0  0
   10.8980   10.7350  -33.9740 C   0  0  0  0  0  0  0  0  0  0  0  0
   10.2740    9.8500  -34.7840 N   0  0  0  0  0  0  0  0  0  0  0  0
   11.1350    8.8730  -35.1860 C   0  0  0  0  0  0  0  0  0  0  0  0
   10.8420    7.9520  -35.9340 O   0  0  0  0  0  0  0  0  0  0  0  0
   12.4990    9.1330  -34.5400 C   0  0  1  0  0  0  0  0  0  0  0  0
   13.5790    9.3860  -35.5290 C   0  0  0  0  0  0  0  0  0  0  0  0
   13.5730   10.2490  -36.6110 C   0  0  0  0  0  0  0  0  0  0  0  0
   14.8080   10.1740  -37.2140 N   0  0  0  0  0  0  0  0  0  0  0  0
   15.2690   10.8770  -38.3630 C   0  0  0  0  0  0  0  0  0  0  0  0
   16.0020   10.2290  -39.3680 C   0  0  0  0  0  0  0  0  0  0  0  0
   16.4400   10.9480  -40.4860 C   0  0  0  0  0  0  0  0  0  0  0  0
   16.1530   12.3060  -40.6070 C   0  0  0  0  0  0  0  0  0  0  0  0
   15.4270   12.9550  -39.6100 C   0  0  0  0  0  0  0  0  0  0  0  0
   14.9860   12.2460  -38.4920 C   0  0  0  0  0  0  0  0  0  0  0  0
   15.6170    9.3120  -36.5540 N   0  0  0  0  0  0  0  0  0  0  0  0
   14.8770    8.8030  -35.5620 C   0  0  0  0  0  0  0  0  0  0  0  0
   15.4480    7.8060  -34.6600 C   0  0  0  0  0  0  0  0  0  0  0  0
   16.6470    8.0580  -33.9790 C   0  0  0  0  0  0  0  0  0  0  0  0
   17.1870    7.0920  -33.1280 C   0  0  0  0  0  0  0  0  0  0  0  0
   16.5240    5.8830  -32.9530 C   0  0  0  0  0  0  0  0  0  0  0  0
   17.0440    4.9570  -32.1360 F   0  0  0  0  0  0  0  0  0  0  0  0
   15.3270    5.6220  -33.6080 C   0  0  0  0  0  0  0  0  0  0  0  0
   14.7840    6.5860  -34.4590 C   0  0  0  0  0  0  0  0  0  0  0  0
   12.1990   10.3360  -33.8060 N   0  0  0  0  0  0  0  0  0  0  0  0
    9.3130    9.9260  -35.0710 H   0  0  0  0  0  0  0  0  0  0  0  0
   12.8774    8.2836  -33.9524 H   0  0  0  0  0  0  0  0  0  0  0  0
   12.7320   10.8814  -36.9316 H   0  0  0  0  0  0  0  0  0  0  0  0
   16.2323    9.1572  -39.2776 H   0  0  0  0  0  0  0  0  0  0  0  0
   17.0141   10.4381  -41.2736 H   0  0  0  0  0  0  0  0  0  0  0  0
   16.4991   12.8654  -41.4886 H   0  0  0  0  0  0  0  0  0  0  0  0
   15.2014   14.0274  -39.7045 H   0  0  0  0  0  0  0  0  0  0  0  0
   14.4135   12.7625  -37.7075 H   0  0  0  0  0  0  0  0  0  0  0  0
   17.1638    9.0194  -34.1155 H   0  0  0  0  0  0  0  0  0  0  0  0
   18.1317    7.2865  -32.5991 H   0  0  0  0  0  0  0  0  0  0  0  0
   14.8108    4.6624  -33.4571 H   0  0  0  0  0  0  0  0  0  0  0  0
   13.8322    6.3888  -34.9740 H   0  0  0  0  0  0  0  0  0  0  0  0
   12.8510   10.8580  -33.2360 H   0  0  0  0  0  0  0  0  0  0  0  0
  1  2  2  0
  2  3  1  0
  3  4  1  0
  4  5  2  0
  4  6  1  0
  6  7  1  0
  7  8  2  0
  8  9  1  0
  9 10  1  0
 10 11  2  0
 11 12  1  0
 12 13  2  0
 13 14  1  0
 14 15  2  0
  9 16  1  0
 16 17  2  0
 17 18  1  0
 18 19  2  0
 19 20  1  0
 20 21  2  0
 21 22  1  0
 21 23  1  0
 23 24  2  0
  6 25  1  0
 25  2  1  0
 17  7  1  0
 24 18  1  0
 15 10  1  0
  3 26  1  0
  6 27  1  1
  8 28  1  0
 11 29  1  0
 12 30  1  0
 13 31  1  0
 14 32  1  0
 15 33  1  0
 19 34  1  0
 20 35  1  0
 23 36  1  0
 24 37  1  0
 25 38  1  0
M  END
>  <meeko>  (4) 
{"is_sidechain": [false], "free_energy": -7.373, "intermolecular_energy": -8.61, "internal_energy": -0.797}

$$$$
3pyy_ligand
     RDKit          3D

 38 41  0  0  0  0  0  0  0  0999 V2000
    9.8450    8.5890  -36.6210 O   0  0  0  0  0  0  0  0  0  0  0  0
   10.7820    9.1640  -36.1000 C   0  0  0  0  0  0  0  0  0  0  0  0
   10.7940    9.7210  -34.8670 N   0  0  0  0  0  0  0  0  0  0  0  0
   12.0160   10.2560  -34.5900 C   0  0  0  0  0  0  0  0  0  0  0  0
   12.3120   10.8090  -33.5410 O   0  0  0  0  0  0  0  0  0  0  0  0
   12.9250   10.0460  -35.8050 C   0  0  1  0  0  0  0  0  0  0  0  0
   14.1120    9.2000  -35.5120 C   0  0  0  0  0  0  0  0  0  0  0  0
   14.2400    8.1870  -34.5780 C   0  0  0  0  0  0  0  0  0  0  0  0
   15.5080    7.6650  -34.6980 N   0  0  0  0  0  0  0  0  0  0  0  0
   16.0980    6.6080  -33.9480 C   0  0  0  0  0  0  0  0  0  0  0  0
   15.5350    5.3240  -33.9330 C   0  0  0  0  0  0  0  0  0  0  0  0
   16.1400    4.3060  -33.1870 C   0  0  0  0  0  0  0  0  0  0  0  0
   17.2990    4.5610  -32.4570 C   0  0  0  0  0  0  0  0  0  0  0  0
   17.8620    5.8350  -32.4680 C   0  0  0  0  0  0  0  0  0  0  0  0
   17.2650    6.8570  -33.2090 C   0  0  0  0  0  0  0  0  0  0  0  0
   16.1960    8.2870  -35.6830 N   0  0  0  0  0  0  0  0  0  0  0  0
   15.3810    9.2380  -36.1550 C   0  0  0  0  0  0  0  0  0  0  0  0
   15.8310   10.1230  -37.2260 C   0  0  0  0  0  0  0  0  0  0  0  0
   16.8310   11.0780  -36.9960 C   0  0  0  0  0  0  0  0  0  0  0  0
   17.2430   11.9250  -38.0270 C   0  0  0  0  0  0  0  0  0  0  0  0
   16.6620   11.8100  -39.2850 C   0  0  0  0  0  0  0  0  0  0  0  0
   17.0590   12.6240  -40.2720 F   0  0  0  0  0  0  0  0  0  0  0  0
   15.6800   10.8590  -39.5350 C   0  0  0  0  0  0  0  0  0  0  0  0
   15.2660   10.0110  -38.5060 C   0  0  0  0  0  0  0  0  0  0  0  0
   12.0140    9.3460  -36.6760 N   0  0  0  0  0  0  0  0  0  0  0  0
   10.0120    9.7110  -34.2350 H   0  0  0  0  0  0  0  0  0  0  0  0
   13.3586   10.9778  -36.1971 H   0  0  0  0  0  0  0  0  0  0  0  0
   13.4674    7.8581  -33.8674 H   0  0  0  0  0  0  0  0  0  0  0  0
   14.6194    5.1171  -34.5065 H   0  0  0  0  0  0  0  0  0  0  0  0
   15.6979    3.2988  -33.1770 H   0  0  0  0  0  0  0  0  0  0  0  0
   17.7692    3.7566  -31.8723 H   0  0  0  0  0  0  0  0  0  0  0  0
   18.7776    6.0362  -31.8925 H   0  0  0  0  0  0  0  0  0  0  0  0
   17.7116    7.8623  -33.2136 H   0  0  0  0  0  0  0  0  0  0  0  0
   17.2924   11.1604  -36.0008 H   0  0  0  0  0  0  0  0  0  0  0  0
   18.0229   12.6790  -37.8449 H   0  0  0  0  0  0  0  0  0  0  0  0
   15.2322   10.7750  -40.5362 H   0  0  0  0  0  0  0  0  0  0  0  0
   14.4937    9.2519  -38.6992 H   0  0  0  0  0  0  0  0  0  0  0  0
   12.2280    9.0040  -37.6020 H   0  0  0  0  0  0  0  0  0  0  0  0
  1  2  2  0
  2  3  1  0
  3  4  1  0
  4  5  2  0
  4  6  1  0
  6  7  1  0
  7  8  2  0
  8  9  1  0
  9 10  1  0
 10 11  2  0
 11 12  1  0
 12 13  2  0
 13 14  1  0
 14 15  2  0
  9 16  1  0
 16 17  2  0
 17 18  1  0
 18 19  2  0
 19 20  1  0
 20 21  2  0
 21 22  1  0
 21 23  1  0
 23 24  2  0
  6 25  1  0
 25  2  1  0
 17  7  1  0
 24 18  1  0
 15 10  1  0
  3 26  1  0
  6 27  1  6
  8 28  1  0
 11 29  1  0
 12 30  1  0
 13 31  1  0
 14 32  1  0
 15 33  1  0
 19 34  1  0
 20 35  1  0
 23 36  1  0
 24 37  1  0
 25 38  1  0
M  END
>  <meeko>  (5) 
{"is_sidechain": [false], "free_energy": -7.189, "intermolecular_energy": -8.312, "internal_energy": -0.879}

$$$$
3pyy_ligand
     RDKit          3D

 38 41  0  0  0  0  0  0  0  0999 V2000
   15.7940    3.2060  -34.3140 O   0  0  0  0  0  0  0  0  0  0  0  0
   16.0550    4.3020  -33.8540 C   0  0  0  0  0  0  0  0  0  0  0  0
   17.1470    4.6240  -33.1220 N   0  0  0  0  0  0  0  0  0  0  0  0
   17.1360    5.9460  -32.7930 C   0  0  0  0  0  0  0  0  0  0  0  0
   18.0070    6.5100  -32.1490 O   0  0  0  0  0  0  0  0  0  0  0  0
   15.8610    6.5770  -33.3630 C   0  0  1  0  0  0  0  0  0  0  0  0
   16.1290    7.6430  -34.3630 C   0  0  0  0  0  0  0  0  0  0  0  0
   17.3480    8.1150  -34.8160 C   0  0  0  0  0  0  0  0  0  0  0  0
   17.0980    9.0770  -35.7680 N   0  0  0  0  0  0  0  0  0  0  0  0
   18.0400    9.8430  -36.5110 C   0  0  0  0  0  0  0  0  0  0  0  0
   19.3540    9.3940  -36.7050 C   0  0  0  0  0  0  0  0  0  0  0  0
   20.2550   10.1690  -37.4420 C   0  0  0  0  0  0  0  0  0  0  0  0
   19.8550   11.3890  -37.9850 C   0  0  0  0  0  0  0  0  0  0  0  0
   18.5510   11.8410  -37.7950 C   0  0  0  0  0  0  0  0  0  0  0  0
   17.6460   11.0730  -37.0610 C   0  0  0  0  0  0  0  0  0  0  0  0
   15.7670    9.2320  -35.9610 N   0  0  0  0  0  0  0  0  0  0  0  0
   15.1730    8.4040  -35.0940 C   0  0  0  0  0  0  0  0  0  0  0  0
   13.7160    8.3400  -35.0230 C   0  0  0  0  0  0  0  0  0  0  0  0
   13.0170    7.2590  -35.5770 C   0  0  0  0  0  0  0  0  0  0  0  0
   11.6220    7.2170  -35.5110 C   0  0  0  0  0  0  0  0  0  0  0  0
   10.9330    8.2490  -34.8850 C   0  0  0  0  0  0  0  0  0  0  0  0
    9.5950    8.2070  -34.8230 F   0  0  0  0  0  0  0  0  0  0  0  0
   11.6100    9.3210  -34.3180 C   0  0  0  0  0  0  0  0  0  0  0  0
   13.0040    9.3650  -34.3820 C   0  0  0  0  0  0  0  0  0  0  0  0
   15.2800    5.4240  -34.0030 N   0  0  0  0  0  0  0  0  0  0  0  0
   17.8780    3.9760  -32.8820 H   0  0  0  0  0  0  0  0  0  0  0  0
   15.2418    7.0797  -32.6055 H   0  0  0  0  0  0  0  0  0  0  0  0
   18.3395    7.7812  -34.4762 H   0  0  0  0  0  0  0  0  0  0  0  0
   19.6759    8.4328  -36.2778 H   0  0  0  0  0  0  0  0  0  0  0  0
   21.2850    9.8140  -37.5941 H   0  0  0  0  0  0  0  0  0  0  0  0
   20.5686   11.9944  -38.5632 H   0  0  0  0  0  0  0  0  0  0  0  0
   18.2347   12.8034  -38.2236 H   0  0  0  0  0  0  0  0  0  0  0  0
   16.6175   11.4337  -36.9125 H   0  0  0  0  0  0  0  0  0  0  0  0
   13.5680    6.4415  -36.0650 H   0  0  0  0  0  0  0  0  0  0  0  0
   11.0724    6.3723  -35.9518 H   0  0  0  0  0  0  0  0  0  0  0  0
   11.0522   10.1292  -33.8223 H   0  0  0  0  0  0  0  0  0  0  0  0
   13.5466   10.2072  -33.9278 H   0  0  0  0  0  0  0  0  0  0  0  0
   14.4130    5.4110  -34.5220 H   0  0  0  0  0  0  0  0  0  0  0  0
  1  2  2  0
  2  3  1  0
  3  4  1  0
  4  5  2  0
  4  6  1  0
  6  7  1  0
  7  8  2  0
  8  9  1  0
  9 10  1  0
 10 11  2  0
 11 12  1  0
 12 13  2  0
 13 14  1  0
 14 15  2  0
  9 16  1  0
 16 17  2  0
 17 18  1  0
 18 19  2  0
 19 20  1  0
 20 21  2  0
 21 22  1  0
 21 23  1  0
 23 24  2  0
  6 25  1  0
 25  2  1  0
 17  7  1  0
 24 18  1  0
 15 10  1  0
  3 26  1  0
  6 27  1  1
  8 28  1  0
 11 29  1  0
 12 30  1  0
 13 31  1  0
 14 32  1  0
 15 33  1  0
 19 34  1  0
 20 35  1  0
 23 36  1  0
 24 37  1  0
 25 38  1  0
M  END
>  <meeko>  (6) 
{"is_sidechain": [false], "free_energy": -6.844, "intermolecular_energy": -8.194, "internal_energy": -0.591}

$$$$
3pyy_ligand
     RDKit          3D

 38 41  0  0  0  0  0  0  0  0999 V2000
   16.1270   11.7350  -39.7900 O   0  0  0  0  0  0  0  0  0  0  0  0
   16.2690   11.0300  -38.8090 C   0  0  0  0  0  0  0  0  0  0  0  0
   17.2490   11.1350  -37.8820 N   0  0  0  0  0  0  0  0  0  0  0  0
   17.0900   10.2020  -36.9020 C   0  0  0  0  0  0  0  0  0  0  0  0
   17.8230   10.0800  -35.9320 O   0  0  0  0  0  0  0  0  0  0  0  0
   15.8570    9.3550  -37.2340 C   0  0  1  0  0  0  0  0  0  0  0  0
   14.7820    9.4560  -36.2130 C   0  0  0  0  0  0  0  0  0  0  0  0
   13.6890   10.3040  -36.1910 C   0  0  0  0  0  0  0  0  0  0  0  0
   12.9510   10.0070  -35.0680 N   0  0  0  0  0  0  0  0  0  0  0  0
   11.7440   10.6160  -34.6240 C   0  0  0  0  0  0  0  0  0  0  0  0
   10.5060    9.9740  -34.7710 C   0  0  0  0  0  0  0  0  0  0  0  0
    9.3370   10.5990  -34.3220 C   0  0  0  0  0  0  0  0  0  0  0  0
    9.3950   11.8590  -33.7300 C   0  0  0  0  0  0  0  0  0  0  0  0
   10.6220   12.5020  -33.5810 C   0  0  0  0  0  0  0  0  0  0  0  0
   11.7930   11.8860  -34.0260 C   0  0  0  0  0  0  0  0  0  0  0  0
   13.5130    8.9890  -34.3750 N   0  0  0  0  0  0  0  0  0  0  0  0
   14.6350    8.6740  -35.0310 C   0  0  0  0  0  0  0  0  0  0  0  0
   15.5060    7.6160  -34.5290 C   0  0  0  0  0  0  0  0  0  0  0  0
   16.5940    7.9160  -33.6970 C   0  0  0  0  0  0  0  0  0  0  0  0
   17.4250    6.8940  -33.2320 C   0  0  0  0  0  0  0  0  0  0  0  0
   17.1610    5.5770  -33.5920 C   0  0  0  0  0  0  0  0  0  0  0  0
   17.9600    4.5990  -33.1460 F   0  0  0  0  0  0  0  0  0  0  0  0
   16.0790    5.2600  -34.4040 C   0  0  0  0  0  0  0  0  0  0  0  0
   15.2470    6.2800  -34.8690 C   0  0  0  0  0  0  0  0  0  0  0  0
   15.4440    9.9900  -38.4600 N   0  0  0  0  0  0  0  0  0  0  0  0
   17.9760   11.8290  -37.9060 H   0  0  0  0  0  0  0  0  0  0  0  0
   16.0657    8.2763  -37.2879 H   0  0  0  0  0  0  0  0  0  0  0  0
   13.4524   11.0768  -36.9371 H   0  0  0  0  0  0  0  0  0  0  0  0
   10.4537    8.9798  -35.2389 H   0  0  0  0  0  0  0  0  0  0  0  0
    8.3672   10.0928  -34.4371 H   0  0  0  0  0  0  0  0  0  0  0  0
    8.4726   12.3458  -33.3805 H   0  0  0  0  0  0  0  0  0  0  0  0
   10.6680   13.4961  -33.1122 H   0  0  0  0  0  0  0  0  0  0  0  0
   12.7594   12.3980  -33.9077 H   0  0  0  0  0  0  0  0  0  0  0  0
   16.7937    8.9589  -33.4097 H   0  0  0  0  0  0  0  0  0  0  0  0
   18.2829    7.1295  -32.5851 H   0  0  0  0  0  0  0  0  0  0  0  0
   15.8796    4.2136  -34.6783 H   0  0  0  0  0  0  0  0  0  0  0  0
   14.3839    6.0348  -35.5053 H   0  0  0  0  0  0  0  0  0  0  0  0
   14.6400    9.7350  -39.0150 H   0  0  0  0  0  0  0  0  0  0  0  0
  1  2  2  0
  2  3  1  0
  3  4  1  0
  4  5  2  0
  4  6  1  0
  6  7  1  0
  7  8  2  0
  8  9  1  0
  9 10  1  0
 10 11  2  0
 11 12  1  0
 12 13  2  0
 13 14  1  0
 14 15  2  0
  9 16  1  0
 16 17  2  0
 17 18  1  0
 18 19  2  0
 19 20  1  0
 20 21  2  0
 21 22  1  0
 21 23  1  0
 23 24  2  0
  6 25  1  0
 25  2  1  0
 17  7  1  0
 24 18  1  0
 15 10  1  0
  3 26  1  0
  6 27  1  6
  8 28  1  0
 11 29  1  0
 12 30  1  0
 13 31  1  0
 14 32  1  0
 15 33  1  0
 19 34  1  0
 20 35  1  0
 23 36  1  0
 24 37  1  0
 25 38  1  0
M  END
>  <meeko>  (7) 
{"is_sidechain": [false], "free_energy": -6.743, "intermolecular_energy": -7.712, "internal_energy": -0.955}

$$$$
3pyy_ligand
     RDKit          3D

 38 41  0  0  0  0  0  0  0  0999 V2000
   17.6290    6.0680  -31.6940 O   0  0  0  0  0  0  0  0  0  0  0  0
   17.1530    6.0590  -32.8140 C   0  0  0  0  0  0  0  0  0  0  0  0
   16.4960    5.0300  -33.3970 N   0  0  0  0  0  0  0  0  0  0  0  0
   16.0720    5.3720  -34.6460 C   0  0  0  0  0  0  0  0  0  0  0  0
   15.4400    4.6380  -35.3910 O   0  0  0  0  0  0  0  0  0  0  0  0
   16.5260    6.8060  -34.9370 C   0  0  1  0  0  0  0  0  0  0  0  0
   15.3970    7.7460  -35.1600 C   0  0  0  0  0  0  0  0  0  0  0  0
   14.0750    7.6150  -34.7690 C   0  0  0  0  0  0  0  0  0  0  0  0
   13.4080    8.7530  -35.1630 N   0  0  0  0  0  0  0  0  0  0  0  0
   12.0320    9.0710  -34.9830 C   0  0  0  0  0  0  0  0  0  0  0  0
   11.0250    8.1370  -35.2640 C   0  0  0  0  0  0  0  0  0  0  0  0
    9.6820    8.4800  -35.0750 C   0  0  0  0  0  0  0  0  0  0  0  0
    9.3370    9.7480  -34.6080 C   0  0  0  0  0  0  0  0  0  0  0  0
   10.3340   10.6800  -34.3270 C   0  0  0  0  0  0  0  0  0  0  0  0
   11.6760   10.3450  -34.5140 C   0  0  0  0  0  0  0  0  0  0  0  0
   14.2480    9.6190  -35.7750 N   0  0  0  0  0  0  0  0  0  0  0  0
   15.4390    9.0100  -35.8140 C   0  0  0  0  0  0  0  0  0  0  0  0
   16.5800    9.6700  -36.4390 C   0  0  0  0  0  0  0  0  0  0  0  0
   17.8390    9.6660  -35.8210 C   0  0  0  0  0  0  0  0  0  0  0  0
   18.9200   10.3120  -36.4260 C   0  0  0  0  0  0  0  0  0  0  0  0
   18.7430   10.9500  -37.6490 C   0  0  0  0  0  0  0  0  0  0  0  0
   19.7810   11.5690  -38.2270 F   0  0  0  0  0  0  0  0  0  0  0  0
   17.5060   10.9510  -38.2820 C   0  0  0  0  0  0  0  0  0  0  0  0
   16.4240   10.3060  -37.6800 C   0  0  0  0  0  0  0  0  0  0  0  0
   17.1930    7.1100  -33.6960 N   0  0  0  0  0  0  0  0  0  0  0  0
   16.3230    4.1450  -32.9500 H   0  0  0  0  0  0  0  0  0  0  0  0
   17.1288    6.9000  -35.8523 H   0  0  0  0  0  0  0  0  0  0  0  0
   13.6368    6.7564  -34.2391 H   0  0  0  0  0  0  0  0  0  0  0  0
   11.2907    7.1353  -35.6328 H   0  0  0  0  0  0  0  0  0  0  0  0
    8.8936    7.7454  -35.2960 H   0  0  0  0  0  0  0  0  0  0  0  0
    8.2792   10.0120  -34.4617 H   0  0  0  0  0  0  0  0  0  0  0  0
   10.0633   11.6802  -33.9576 H   0  0  0  0  0  0  0  0  0  0  0  0
   12.4597   11.0843  -34.2923 H   0  0  0  0  0  0  0  0  0  0  0  0
   17.9757    9.1530  -34.8576 H   0  0  0  0  0  0  0  0  0  0  0  0
   19.9057   10.3160  -35.9377 H   0  0  0  0  0  0  0  0  0  0  0  0
   17.3801   11.4565  -39.2508 H   0  0  0  0  0  0  0  0  0  0  0  0
   15.4447   10.2963  -38.1809 H   0  0  0  0  0  0  0  0  0  0  0  0
   17.6370    7.9870  -33.4630 H   0  0  0  0  0  0  0  0  0  0  0  0
  1  2  2  0
  2  3  1  0
  3  4  1  0
  4  5  2  0
  4  6  1  0
  6  7  1  0
  7  8  2  0
  8  9  1  0
  9 10  1  0
 10 11  2  0
 11 12  1  0
 12 13  2  0
 13 14  1  0
 14 15  2  0
  9 16  1  0
 16 17  2  0
 17 18  1  0
 18 19  2  0
 19 20  1  0
 20 21  2  0
 21 22  1  0
 21 23  1  0
 23 24  2  0
  6 25  1  0
 25  2  1  0
 17  7  1  0
 24 18  1  0
 15 10  1  0
  3 26  1  0
  6 27  1  6
  8 28  1  0
 11 29  1  0
 12 30  1  0
 13 31  1  0
 14 32  1  0
 15 33  1  0
 19 34  1  0
 20 35  1  0
 23 36  1  0
 24 37  1  0
 25 38  1  0
M  END
>  <meeko>  (8) 
{"is_sidechain": [false], "free_energy": -6.298, "intermolecular_energy": -7.599, "internal_energy": -0.545}

$$$$
