3f3e_ligand
     RDKit          3D

 22 21  0  0  0  0  0  0  0  0999 V2000
   26.8560   33.3810   22.3290 C   0  0  0  0  0  0  0  0  0  0  0  0
   27.5680   32.1430   21.7900 C   0  0  0  0  0  0  0  0  0  0  0  0
   28.8030   32.5770   20.9900 C   0  0  0  0  0  0  0  0  0  0  0  0
   26.6780   31.2420   20.9040 C   0  0  0  0  0  0  0  0  0  0  0  0
   26.6060   31.5670   19.4120 C   0  0  2  0  0  0  0  0  0  0  0  0
   25.5210   32.5990   19.1440 N   0  0  0  0  0  0  0  0  0  0  0  0
   26.3840   30.3490   18.4690 C   0  0  0  0  0  0  0  0  0  0  0  0
   27.3820   29.6780   18.1380 O   0  0  0  0  0  0  0  0  0  0  0  0
   25.1410   30.2670   18.1860 O   0  0  0  0  0  0  0  0  0  0  0  0
   26.8675   33.3609   23.4288 H   0  0  0  0  0  0  0  0  0  0  0  0
   27.3723   34.2849   21.9733 H   0  0  0  0  0  0  0  0  0  0  0  0
   25.8151   33.3893   21.9733 H   0  0  0  0  0  0  0  0  0  0  0  0
   27.8482   31.5395   22.6659 H   0  0  0  0  0  0  0  0  0  0  0  0
   29.6084   32.8600   21.6837 H   0  0  0  0  0  0  0  0  0  0  0  0
   29.1408   31.7437   20.3563 H   0  0  0  0  0  0  0  0  0  0  0  0
   28.5453   33.4384   20.3563 H   0  0  0  0  0  0  0  0  0  0  0  0
   27.0540   30.2126   20.9989 H   0  0  0  0  0  0  0  0  0  0  0  0
   25.6559   31.4067   21.2756 H   0  0  0  0  0  0  0  0  0  0  0  0
   27.6056   31.9586   19.1724 H   0  0  0  0  0  0  0  0  0  0  0  0
   25.4040   32.8790   18.1730 H   0  0  0  0  0  0  0  0  0  0  0  0
   25.9270   33.4200   19.6680 H   0  0  0  0  0  0  0  0  0  0  0  0
   24.6450   32.3820   19.6210 H   0  0  0  0  0  0  0  0  0  0  0  0
  1  2  1  0
  2  3  1  0
  2  4  1  0
  4  5  1  0
  5  6  1  0
  5  7  1  0
  7  8  2  0
  7  9  1  0
  1 10  1  0
  1 11  1  0
  1 12  1  0
  2 13  1  0
  3 14  1  0
  3 15  1  0
  3 16  1  0
  4 17  1  0
  4 18  1  0
  5 19  1  6
  6 20  1  0
  6 21  1  0
  6 22  1  0
M  CHG  2   6   1   9  -1
M  END
>  <meeko>  (1) 
{"is_sidechain": [false], "free_energy": -6.503, "intermolecular_energy": -7.833, "internal_energy": -0.096}

$$$$
3f3e_ligand
     RDKit          3D

 22 21  0  0  0  0  0  0  0  0999 V2000
   28.0550   31.2240   22.6650 C   0  0  0  0  0  0  0  0  0  0  0  0
   27.4050   32.0980   21.5950 C   0  0  0  0  0  0  0  0  0  0  0  0
   26.8040   33.3440   22.2560 C   0  0  0  0  0  0  0  0  0  0  0  0
   26.3110   31.3780   20.7750 C   0  0  0  0  0  0  0  0  0  0  0  0
   26.2980   31.6030   19.2620 C   0  0  2  0  0  0  0  0  0  0  0  0
   25.1830   32.5630   18.8770 N   0  0  0  0  0  0  0  0  0  0  0  0
   26.1760   30.3180   18.3930 C   0  0  0  0  0  0  0  0  0  0  0  0
   25.0330   29.9330   18.0790 O   0  0  0  0  0  0  0  0  0  0  0  0
   27.3470   29.8660   18.1570 O   0  0  0  0  0  0  0  0  0  0  0  0
   27.7774   31.5973   23.6618 H   0  0  0  0  0  0  0  0  0  0  0  0
   27.7073   30.1865   22.5520 H   0  0  0  0  0  0  0  0  0  0  0  0
   29.1486   31.2585   22.5520 H   0  0  0  0  0  0  0  0  0  0  0  0
   28.2015   32.3646   20.8847 H   0  0  0  0  0  0  0  0  0  0  0  0
   26.8545   33.2393   23.3498 H   0  0  0  0  0  0  0  0  0  0  0  0
   27.3721   34.2335   21.9462 H   0  0  0  0  0  0  0  0  0  0  0  0
   25.7542   33.4532   21.9462 H   0  0  0  0  0  0  0  0  0  0  0  0
   26.4285   30.2978   20.9463 H   0  0  0  0  0  0  0  0  0  0  0  0
   25.3644   31.8112   21.1304 H   0  0  0  0  0  0  0  0  0  0  0  0
   27.2899   32.0250   19.0428 H   0  0  0  0  0  0  0  0  0  0  0  0
   25.2880   33.0300   17.9800 H   0  0  0  0  0  0  0  0  0  0  0  0
   25.3070   33.2890   19.6330 H   0  0  0  0  0  0  0  0  0  0  0  0
   24.2540   32.1700   19.0320 H   0  0  0  0  0  0  0  0  0  0  0  0
  1  2  1  0
  2  3  1  0
  2  4  1  0
  4  5  1  0
  5  6  1  0
  5  7  1  0
  7  8  2  0
  7  9  1  0
  1 10  1  0
  1 11  1  0
  1 12  1  0
  2 13  1  0
  3 14  1  0
  3 15  1  0
  3 16  1  0
  4 17  1  0
  4 18  1  0
  5 19  1  6
  6 20  1  0
  6 21  1  0
  6 22  1  0
M  CHG  2   6   1   9  -1
M  END
>  <meeko>  (2) 
{"is_sidechain": [false], "free_energy": -6.461, "intermolecular_energy": -7.806, "internal_energy": -0.072}

$$$$
3f3e_ligand
     RDKit          3D

 22 21  0  0  0  0  0  0  0  0999 V2000
   26.4820   31.1730   22.3050 C   0  0  0  0  0  0  0  0  0  0  0  0
   27.5370   32.2630   22.4780 C   0  0  0  0  0  0  0  0  0  0  0  0
   26.8450   33.6290   22.5640 C   0  0  0  0  0  0  0  0  0  0  0  0
   28.5950   32.2980   21.3520 C   0  0  0  0  0  0  0  0  0  0  0  0
   28.1650   32.8580   19.9960 C   0  0  2  0  0  0  0  0  0  0  0  0
   27.7820   34.3250   20.1230 N   0  0  0  0  0  0  0  0  0  0  0  0
   27.0050   32.0960   19.2910 C   0  0  0  0  0  0  0  0  0  0  0  0
   25.8740   32.6220   19.2970 O   0  0  0  0  0  0  0  0  0  0  0  0
   27.4580   31.0010   18.8170 O   0  0  0  0  0  0  0  0  0  0  0  0
   26.1469   30.8268   23.2939 H   0  0  0  0  0  0  0  0  0  0  0  0
   25.6241   31.5781   21.7482 H   0  0  0  0  0  0  0  0  0  0  0  0
   26.9149   30.3288   21.7482 H   0  0  0  0  0  0  0  0  0  0  0  0
   28.0777   32.0274   23.4065 H   0  0  0  0  0  0  0  0  0  0  0  0
   26.7058   33.9037   23.6200 H   0  0  0  0  0  0  0  0  0  0  0  0
   27.4676   34.3874   22.0668 H   0  0  0  0  0  0  0  0  0  0  0  0
   25.8652   33.5756   22.0668 H   0  0  0  0  0  0  0  0  0  0  0  0
   29.4363   32.9100   21.7094 H   0  0  0  0  0  0  0  0  0  0  0  0
   28.8310   31.2415   21.1566 H   0  0  0  0  0  0  0  0  0  0  0  0
   29.0497   32.7240   19.3562 H   0  0  0  0  0  0  0  0  0  0  0  0
   27.0830   34.5420   20.8290 H   0  0  0  0  0  0  0  0  0  0  0  0
   27.3370   34.4720   19.1770 H   0  0  0  0  0  0  0  0  0  0  0  0
   28.5930   34.9440   20.1380 H   0  0  0  0  0  0  0  0  0  0  0  0
  1  2  1  0
  2  3  1  0
  2  4  1  0
  4  5  1  0
  5  6  1  0
  5  7  1  0
  7  8  2  0
  7  9  1  0
  1 10  1  0
  1 11  1  0
  1 12  1  0
  2 13  1  0
  3 14  1  0
  3 15  1  0
  3 16  1  0
  4 17  1  0
  4 18  1  0
  5 19  1  6
  6 20  1  0
  6 21  1  0
  6 22  1  0
M  CHG  2   6   1   9  -1
M  END
>  <meeko>  (3) 
{"is_sidechain": [false], "free_energy": -5.227, "intermolecular_energy": -7.363, "internal_energy": 0.97}

$$$$
3f3e_ligand
     RDKit          3D

 22 21  0  0  0  0  0  0  0  0999 V2000
   26.4540   32.9930   22.4800 C   0  0  0  0  0  0  0  0  0  0  0  0
   26.6090   31.5040   22.1730 C   0  0  0  0  0  0  0  0  0  0  0  0
   27.7970   30.9450   22.9650 C   0  0  0  0  0  0  0  0  0  0  0  0
   26.8020   31.1890   20.6730 C   0  0  0  0  0  0  0  0  0  0  0  0
   27.1310   32.3560   19.7420 C   0  0  2  0  0  0  0  0  0  0  0  0
   27.3220   31.8610   18.3160 N   0  0  0  0  0  0  0  0  0  0  0  0
   28.3690   33.2090   20.1460 C   0  0  0  0  0  0  0  0  0  0  0  0
   29.4070   32.6060   20.4840 O   0  0  0  0  0  0  0  0  0  0  0  0
   28.0650   34.4460   20.0570 O   0  0  0  0  0  0  0  0  0  0  0  0
   26.4384   33.1430   23.5696 H   0  0  0  0  0  0  0  0  0  0  0  0
   27.2993   33.5469   22.0457 H   0  0  0  0  0  0  0  0  0  0  0  0
   25.5127   33.3609   22.0457 H   0  0  0  0  0  0  0  0  0  0  0  0
   25.6655   31.0243   22.4727 H   0  0  0  0  0  0  0  0  0  0  0  0
   27.5964   31.0394   24.0424 H   0  0  0  0  0  0  0  0  0  0  0  0
   27.9410   29.8846   22.7104 H   0  0  0  0  0  0  0  0  0  0  0  0
   28.7058   31.5100   22.7104 H   0  0  0  0  0  0  0  0  0  0  0  0
   27.6234   30.4618   20.5923 H   0  0  0  0  0  0  0  0  0  0  0  0
   25.8192   30.8294   20.3341 H   0  0  0  0  0  0  0  0  0  0  0  0
   26.2605   33.0232   19.8268 H   0  0  0  0  0  0  0  0  0  0  0  0
   28.0750   31.1920   18.1740 H   0  0  0  0  0  0  0  0  0  0  0  0
   27.6060   32.7660   17.8530 H   0  0  0  0  0  0  0  0  0  0  0  0
   26.4440   31.5950   17.8700 H   0  0  0  0  0  0  0  0  0  0  0  0
  1  2  1  0
  2  3  1  0
  2  4  1  0
  4  5  1  0
  5  6  1  0
  5  7  1  0
  7  8  2  0
  7  9  1  0
  1 10  1  0
  1 11  1  0
  1 12  1  0
  2 13  1  0
  3 14  1  0
  3 15  1  0
  3 16  1  0
  4 17  1  0
  4 18  1  0
  5 19  1  6
  6 20  1  0
  6 21  1  0
  6 22  1  0
M  CHG  2   6   1   9  -1
M  END
>  <meeko>  (4) 
{"is_sidechain": [false], "free_energy": -4.495, "intermolecular_energy": -5.99, "internal_energy": 0.478}

$$$$
3f3e_ligand
     RDKit          3D

 22 21  0  0  0  0  0  0  0  0999 V2000
   25.5130   32.2260   18.9300 C   0  0  0  0  0  0  0  0  0  0  0  0
   26.7860   31.4440   19.2490 C   0  0  0  0  0  0  0  0  0  0  0  0
   26.7840   30.1290   18.4610 C   0  0  0  0  0  0  0  0  0  0  0  0
   26.9760   31.1380   20.7520 C   0  0  0  0  0  0  0  0  0  0  0  0
   27.4610   32.2760   21.6500 C   0  0  2  0  0  0  0  0  0  0  0  0
   26.2800   33.0760   22.1790 N   0  0  0  0  0  0  0  0  0  0  0  0
   28.4800   33.2570   21.0000 C   0  0  0  0  0  0  0  0  0  0  0  0
   28.0680   34.3830   20.6590 O   0  0  0  0  0  0  0  0  0  0  0  0
   29.6180   32.6820   20.9270 O   0  0  0  0  0  0  0  0  0  0  0  0
   25.0229   32.5270   19.8677 H   0  0  0  0  0  0  0  0  0  0  0  0
   25.7698   33.1223   18.3463 H   0  0  0  0  0  0  0  0  0  0  0  0
   24.8296   31.5917   18.3463 H   0  0  0  0  0  0  0  0  0  0  0  0
   27.6279   32.0874   18.9537 H   0  0  0  0  0  0  0  0  0  0  0  0
   26.7827   29.2814   19.1621 H   0  0  0  0  0  0  0  0  0  0  0  0
   25.8858   30.0824   17.8277 H   0  0  0  0  0  0  0  0  0  0  0  0
   27.6821   30.0797   17.8277 H   0  0  0  0  0  0  0  0  0  0  0  0
   26.0055   30.8000   21.1443 H   0  0  0  0  0  0  0  0  0  0  0  0
   27.7838   30.3921   20.7853 H   0  0  0  0  0  0  0  0  0  0  0  0
   28.0028   31.7680   22.4614 H   0  0  0  0  0  0  0  0  0  0  0  0
   25.8030   33.6660   21.5010 H   0  0  0  0  0  0  0  0  0  0  0  0
   26.7870   33.7100   22.8540 H   0  0  0  0  0  0  0  0  0  0  0  0
   25.6520   32.5160   22.7560 H   0  0  0  0  0  0  0  0  0  0  0  0
  1  2  1  0
  2  3  1  0
  2  4  1  0
  4  5  1  0
  5  6  1  0
  5  7  1  0
  7  8  2  0
  7  9  1  0
  1 10  1  0
  1 11  1  0
  1 12  1  0
  2 13  1  0
  3 14  1  0
  3 15  1  0
  3 16  1  0
  4 17  1  0
  4 18  1  0
  5 19  1  1
  6 20  1  0
  6 21  1  0
  6 22  1  0
M  CHG  2   6   1   9  -1
M  END
>  <meeko>  (5) 
{"is_sidechain": [false], "free_energy": -4.476, "intermolecular_energy": -5.371, "internal_energy": -0.117}

$$$$
3f3e_ligand
     RDKit          3D

 22 21  0  0  0  0  0  0  0  0999 V2000
   27.0260   30.3360   18.2730 C   0  0  0  0  0  0  0  0  0  0  0  0
   26.6490   31.1640   19.5000 C   0  0  0  0  0  0  0  0  0  0  0  0
   25.4450   32.0510   19.1620 C   0  0  0  0  0  0  0  0  0  0  0  0
   27.7970   32.0470   20.0380 C   0  0  0  0  0  0  0  0  0  0  0  0
   27.4200   33.3810   20.6830 C   0  0  2  0  0  0  0  0  0  0  0  0
   28.4650   34.4400   20.3660 N   0  0  0  0  0  0  0  0  0  0  0  0
   27.1960   33.3430   22.2230 C   0  0  0  0  0  0  0  0  0  0  0  0
   27.6570   32.3720   22.8550 O   0  0  0  0  0  0  0  0  0  0  0  0
   26.5330   34.3780   22.5690 O   0  0  0  0  0  0  0  0  0  0  0  0
   27.4617   29.3791   18.5962 H   0  0  0  0  0  0  0  0  0  0  0  0
   26.1265   30.1442   17.6696 H   0  0  0  0  0  0  0  0  0  0  0  0
   27.7613   30.8885   17.6696 H   0  0  0  0  0  0  0  0  0  0  0  0
   26.4075   30.4461   20.2977 H   0  0  0  0  0  0  0  0  0  0  0  0
   24.9730   32.3987   20.0927 H   0  0  0  0  0  0  0  0  0  0  0  0
   25.7818   32.9184   18.5754 H   0  0  0  0  0  0  0  0  0  0  0  0
   24.7164   31.4722   18.5754 H   0  0  0  0  0  0  0  0  0  0  0  0
   28.3395   31.4582   20.7923 H   0  0  0  0  0  0  0  0  0  0  0  0
   28.3798   32.3221   19.1465 H   0  0  0  0  0  0  0  0  0  0  0  0
   26.4444   33.6290   20.2394 H   0  0  0  0  0  0  0  0  0  0  0  0
   29.2340   34.1420   19.7690 H   0  0  0  0  0  0  0  0  0  0  0  0
   28.8550   34.5970   21.3340 H   0  0  0  0  0  0  0  0  0  0  0  0
   28.0530   35.3320   20.0930 H   0  0  0  0  0  0  0  0  0  0  0  0
  1  2  1  0
  2  3  1  0
  2  4  1  0
  4  5  1  0
  5  6  1  0
  5  7  1  0
  7  8  2  0
  7  9  1  0
  1 10  1  0
  1 11  1  0
  1 12  1  0
  2 13  1  0
  3 14  1  0
  3 15  1  0
  3 16  1  0
  4 17  1  0
  4 18  1  0
  5 19  1  6
  6 20  1  0
  6 21  1  0
  6 22  1  0
M  CHG  2   6   1   9  -1
M  END
>  <meeko>  (6) 
{"is_sidechain": [false], "free_energy": -4.3, "intermolecular_energy": -5.155, "internal_energy": -0.121}

$$$$
3f3e_ligand
     RDKit          3D

 22 21  0  0  0  0  0  0  0  0999 V2000
   26.7530   31.0010   19.7550 C   0  0  0  0  0  0  0  0  0  0  0  0
   26.9940   30.9230   21.2620 C   0  0  0  0  0  0  0  0  0  0  0  0
   25.7020   31.2890   22.0010 C   0  0  0  0  0  0  0  0  0  0  0  0
   28.1420   31.8290   21.7620 C   0  0  0  0  0  0  0  0  0  0  0  0
   28.6920   32.8740   20.7910 C   0  0  2  0  0  0  0  0  0  0  0  0
   30.2050   32.9680   20.9120 N   0  0  0  0  0  0  0  0  0  0  0  0
   28.0890   34.3020   20.9290 C   0  0  0  0  0  0  0  0  0  0  0  0
   28.5720   35.2100   20.2230 O   0  0  0  0  0  0  0  0  0  0  0  0
   27.1570   34.2750   21.8010 O   0  0  0  0  0  0  0  0  0  0  0  0
   25.7221   31.3346   19.5653 H   0  0  0  0  0  0  0  0  0  0  0  0
   27.4583   31.7168   19.3074 H   0  0  0  0  0  0  0  0  0  0  0  0
   26.9051   30.0077   19.3074 H   0  0  0  0  0  0  0  0  0  0  0  0
   27.2987   29.8878   21.4753 H   0  0  0  0  0  0  0  0  0  0  0  0
   25.8740   31.2403   23.0864 H   0  0  0  0  0  0  0  0  0  0  0  0
   25.3972   32.3088   21.7235 H   0  0  0  0  0  0  0  0  0  0  0  0
   24.9076   30.5806   21.7235 H   0  0  0  0  0  0  0  0  0  0  0  0
   27.7755   32.3651   22.6498 H   0  0  0  0  0  0  0  0  0  0  0  0
   28.9829   31.1425   21.9399 H   0  0  0  0  0  0  0  0  0  0  0  0
   28.3863   32.5088   19.7995 H   0  0  0  0  0  0  0  0  0  0  0  0
   30.6910   33.3700   20.1150 H   0  0  0  0  0  0  0  0  0  0  0  0
   30.4430   31.9400   20.9470 H   0  0  0  0  0  0  0  0  0  0  0  0
   30.5060   33.3440   21.8120 H   0  0  0  0  0  0  0  0  0  0  0  0
  1  2  1  0
  2  3  1  0
  2  4  1  0
  4  5  1  0
  5  6  1  0
  5  7  1  0
  7  8  2  0
  7  9  1  0
  1 10  1  0
  1 11  1  0
  1 12  1  0
  2 13  1  0
  3 14  1  0
  3 15  1  0
  3 16  1  0
  4 17  1  0
  4 18  1  0
  5 19  1  6
  6 20  1  0
  6 21  1  0
  6 22  1  0
M  CHG  2   6   1   9  -1
M  END
>  <meeko>  (7) 
{"is_sidechain": [false], "free_energy": -3.726, "intermolecular_energy": -4.503, "internal_energy": -0.081}

$$$$
