1owh_ligand
     RDKit          3D

 44 46  0  0  0  0  0  0  0  0999 V2000
   16.9590   19.7300   33.8010 N   0  0  0  0  0  0  0  0  0  0  0  0
   18.2680   19.7910   33.9100 C   0  0  0  0  0  0  0  0  0  0  0  0
   18.8800   20.9280   34.1610 N   0  0  0  0  0  0  0  0  0  0  0  0
   19.0630   18.5660   33.7450 C   0  0  0  0  0  0  0  0  0  0  0  0
   18.4480   17.3500   33.4180 C   0  0  0  0  0  0  0  0  0  0  0  0
   19.2070   16.1840   33.2710 C   0  0  0  0  0  0  0  0  0  0  0  0
   20.5990   16.2030   33.4490 C   0  0  0  0  0  0  0  0  0  0  0  0
   21.3730   15.0330   33.3170 C   0  0  0  0  0  0  0  0  0  0  0  0
   22.7600   15.0740   33.5110 C   0  0  0  0  0  0  0  0  0  0  0  0
   23.6140   13.8560   33.4160 C   0  0  0  0  0  0  0  0  0  0  0  0
   24.8250   14.0140   33.3290 O   0  0  0  0  0  0  0  0  0  0  0  0
   22.9360   12.6480   33.4030 N   0  0  0  0  0  0  0  0  0  0  0  0
   23.5060   11.3600   33.2890 C   0  0  0  0  0  0  0  0  0  0  0  0
   23.8760   10.7730   32.0790 C   0  0  0  0  0  0  0  0  0  0  0  0
   24.4140    9.4810   32.0410 C   0  0  0  0  0  0  0  0  0  0  0  0
   24.5990    8.7480   33.2190 C   0  0  0  0  0  0  0  0  0  0  0  0
   25.1940    7.3710   33.1710 C   0  0  0  0  0  0  0  0  0  0  0  0
   25.5090    6.9720   31.7820 N   0  0  0  0  0  0  0  0  0  0  0  0
   24.2460    9.3420   34.4380 C   0  0  0  0  0  0  0  0  0  0  0  0
   23.7020   10.6320   34.4690 C   0  0  0  0  0  0  0  0  0  0  0  0
   23.3750   16.2820   33.8540 C   0  0  0  0  0  0  0  0  0  0  0  0
   22.6170   17.4470   33.9810 C   0  0  0  0  0  0  0  0  0  0  0  0
   21.2300   17.4240   33.7810 C   0  0  0  0  0  0  0  0  0  0  0  0
   20.4550   18.5890   33.9220 C   0  0  0  0  0  0  0  0  0  0  0  0
   16.3630   20.5410   33.9070 H   0  0  0  0  0  0  0  0  0  0  0  0
   16.5020   18.8370   33.6400 H   0  0  0  0  0  0  0  0  0  0  0  0
   19.8920   20.9600   34.2190 H   0  0  0  0  0  0  0  0  0  0  0  0
   18.3830   21.8000   34.2830 H   0  0  0  0  0  0  0  0  0  0  0  0
   17.3579   17.3119   33.2755 H   0  0  0  0  0  0  0  0  0  0  0  0
   18.7060   15.2395   33.0124 H   0  0  0  0  0  0  0  0  0  0  0  0
   20.8851   14.0812   33.0600 H   0  0  0  0  0  0  0  0  0  0  0  0
   21.9250   12.6870   33.3830 H   0  0  0  0  0  0  0  0  0  0  0  0
   23.7432   11.3330   31.1416 H   0  0  0  0  0  0  0  0  0  0  0  0
   24.6945    9.0369   31.0745 H   0  0  0  0  0  0  0  0  0  0  0  0
   26.1190    7.3590   33.7662 H   0  0  0  0  0  0  0  0  0  0  0  0
   24.4604    6.6604   33.5794 H   0  0  0  0  0  0  0  0  0  0  0  0
   26.3850    7.3950   31.4560 H   0  0  0  0  0  0  0  0  0  0  0  0
   24.7570    7.2560   31.1430 H   0  0  0  0  0  0  0  0  0  0  0  0
   25.6000    5.9510   31.7080 H   0  0  0  0  0  0  0  0  0  0  0  0
   24.3974    8.7908   35.3778 H   0  0  0  0  0  0  0  0  0  0  0  0
   23.4246   11.0800   35.4346 H   0  0  0  0  0  0  0  0  0  0  0  0
   24.4612   16.3143   34.0245 H   0  0  0  0  0  0  0  0  0  0  0  0
   23.1136   18.3935   34.2409 H   0  0  0  0  0  0  0  0  0  0  0  0
   20.9501   19.5378   34.1763 H   0  0  0  0  0  0  0  0  0  0  0  0
  1  2  1  0
  2  3  2  0
  2  4  1  0
  4  5  2  0
  5  6  1  0
  6  7  2  0
  7  8  1  0
  8  9  2  0
  9 10  1  0
 10 11  2  0
 10 12  1  0
 12 13  1  0
 13 14  2  0
 14 15  1  0
 15 16  2  0
 16 17  1  0
 17 18  1  0
 16 19  1  0
 19 20  2  0
  9 21  1  0
 21 22  2  0
 22 23  1  0
 23 24  2  0
 24  4  1  0
 23  7  1  0
 20 13  1  0
  1 25  1  0
  1 26  1  0
  3 27  1  0
  3 28  1  0
  5 29  1  0
  6 30  1  0
  8 31  1  0
 12 32  1  0
 14 33  1  0
 15 34  1  0
 17 35  1  0
 17 36  1  0
 18 37  1  0
 18 38  1  0
 18 39  1  0
 19 40  1  0
 20 41  1  0
 21 42  1  0
 22 43  1  0
 24 44  1  0
M  CHG  2   3   1  18   1
M  END
>  <meeko>  (1) 
{"is_sidechain": [false], "free_energy": -8.587, "intermolecular_energy": -10.846, "internal_energy": -0.493}

$$$$
1owh_ligand
     RDKit          3D

 44 46  0  0  0  0  0  0  0  0999 V2000
   26.6610    7.7660   30.1670 N   0  0  0  0  0  0  0  0  0  0  0  0
   25.9750    7.6860   31.2860 C   0  0  0  0  0  0  0  0  0  0  0  0
   25.8670    6.5510   31.9430 N   0  0  0  0  0  0  0  0  0  0  0  0
   25.3160    8.8890   31.8140 C   0  0  0  0  0  0  0  0  0  0  0  0
   24.2400    8.7850   32.7060 C   0  0  0  0  0  0  0  0  0  0  0  0
   23.6100    9.9330   33.2000 C   0  0  0  0  0  0  0  0  0  0  0  0
   24.0350   11.2120   32.8120 C   0  0  0  0  0  0  0  0  0  0  0  0
   23.4010   12.3750   33.2900 C   0  0  0  0  0  0  0  0  0  0  0  0
   23.8350   13.6420   32.8800 C   0  0  0  0  0  0  0  0  0  0  0  0
   23.1720   14.8970   33.3330 C   0  0  0  0  0  0  0  0  0  0  0  0
   23.7460   15.5740   34.1770 O   0  0  0  0  0  0  0  0  0  0  0  0
   21.9340   15.1600   32.7660 N   0  0  0  0  0  0  0  0  0  0  0  0
   21.0930   16.2600   33.0480 C   0  0  0  0  0  0  0  0  0  0  0  0
   19.7240   16.1540   33.2900 C   0  0  0  0  0  0  0  0  0  0  0  0
   18.9460   17.2920   33.5380 C   0  0  0  0  0  0  0  0  0  0  0  0
   19.5280   18.5660   33.5550 C   0  0  0  0  0  0  0  0  0  0  0  0
   18.6920   19.7790   33.8410 C   0  0  0  0  0  0  0  0  0  0  0  0
   17.2680   19.4190   34.0120 N   0  0  0  0  0  0  0  0  0  0  0  0
   20.9070   18.6730   33.3310 C   0  0  0  0  0  0  0  0  0  0  0  0
   21.6780   17.5320   33.0760 C   0  0  0  0  0  0  0  0  0  0  0  0
   24.8970   13.7500   31.9770 C   0  0  0  0  0  0  0  0  0  0  0  0
   25.5370   12.6040   31.5020 C   0  0  0  0  0  0  0  0  0  0  0  0
   25.1180   11.3300   31.9100 C   0  0  0  0  0  0  0  0  0  0  0  0
   25.7460   10.1680   31.4260 C   0  0  0  0  0  0  0  0  0  0  0  0
   27.1360    6.9710   29.7600 H   0  0  0  0  0  0  0  0  0  0  0  0
   26.7610    8.6580   29.6930 H   0  0  0  0  0  0  0  0  0  0  0  0
   25.3150    6.5050   32.7930 H   0  0  0  0  0  0  0  0  0  0  0  0
   26.2990    5.6940   31.6250 H   0  0  0  0  0  0  0  0  0  0  0  0
   23.8873    7.7918   33.0208 H   0  0  0  0  0  0  0  0  0  0  0  0
   22.7697    9.8307   33.9025 H   0  0  0  0  0  0  0  0  0  0  0  0
   22.5579   12.2877   33.9912 H   0  0  0  0  0  0  0  0  0  0  0  0
   21.5490   14.4530   32.1550 H   0  0  0  0  0  0  0  0  0  0  0  0
   19.2480   15.1623   33.2861 H   0  0  0  0  0  0  0  0  0  0  0  0
   17.8668   17.1841   33.7213 H   0  0  0  0  0  0  0  0  0  0  0  0
   19.0549   20.2554   34.7637 H   0  0  0  0  0  0  0  0  0  0  0  0
   18.7768   20.4692   32.9887 H   0  0  0  0  0  0  0  0  0  0  0  0
   16.7560   20.1360   34.5380 H   0  0  0  0  0  0  0  0  0  0  0  0
   17.1760   18.5260   34.5130 H   0  0  0  0  0  0  0  0  0  0  0  0
   16.8090   19.3020   33.1000 H   0  0  0  0  0  0  0  0  0  0  0  0
   21.3882   19.6618   33.3557 H   0  0  0  0  0  0  0  0  0  0  0  0
   22.7580   17.6364   32.8952 H   0  0  0  0  0  0  0  0  0  0  0  0
   25.2297   14.7426   31.6393 H   0  0  0  0  0  0  0  0  0  0  0  0
   26.3786   12.7016   30.8005 H   0  0  0  0  0  0  0  0  0  0  0  0
   26.5916   10.2634   30.7290 H   0  0  0  0  0  0  0  0  0  0  0  0
  1  2  1  0
  2  3  2  0
  2  4  1  0
  4  5  2  0
  5  6  1  0
  6  7  2  0
  7  8  1  0
  8  9  2  0
  9 10  1  0
 10 11  2  0
 10 12  1  0
 12 13  1  0
 13 14  2  0
 14 15  1  0
 15 16  2  0
 16 17  1  0
 17 18  1  0
 16 19  1  0
 19 20  2  0
  9 21  1  0
 21 22  2  0
 22 23  1  0
 23 24  2  0
 24  4  1  0
 23  7  1  0
 20 13  1  0
  1 25  1  0
  1 26  1  0
  3 27  1  0
  3 28  1  0
  5 29  1  0
  6 30  1  0
  8 31  1  0
 12 32  1  0
 14 33  1  0
 15 34  1  0
 17 35  1  0
 17 36  1  0
 18 37  1  0
 18 38  1  0
 18 39  1  0
 19 40  1  0
 20 41  1  0
 21 42  1  0
 22 43  1  0
 24 44  1  0
M  CHG  2   3   1  18   1
M  END
>  <meeko>  (2) 
{"is_sidechain": [false], "free_energy": -8.14, "intermolecular_energy": -10.602, "internal_energy": -0.173}

$$$$
1owh_ligand
     RDKit          3D

 44 46  0  0  0  0  0  0  0  0999 V2000
   29.0890    9.8030   29.8990 N   0  0  0  0  0  0  0  0  0  0  0  0
   28.2370   10.3700   29.0730 C   0  0  0  0  0  0  0  0  0  0  0  0
   28.1790   10.0220   27.8060 N   0  0  0  0  0  0  0  0  0  0  0  0
   27.3330   11.4150   29.5760 C   0  0  0  0  0  0  0  0  0  0  0  0
   27.1770   12.6220   28.8830 C   0  0  0  0  0  0  0  0  0  0  0  0
   26.3210   13.6170   29.3690 C   0  0  0  0  0  0  0  0  0  0  0  0
   25.6050   13.4330   30.5610 C   0  0  0  0  0  0  0  0  0  0  0  0
   24.7510   14.4310   31.0690 C   0  0  0  0  0  0  0  0  0  0  0  0
   24.0550   14.2290   32.2670 C   0  0  0  0  0  0  0  0  0  0  0  0
   23.1690   15.2720   32.8590 C   0  0  0  0  0  0  0  0  0  0  0  0
   23.4530   15.6970   33.9720 O   0  0  0  0  0  0  0  0  0  0  0  0
   22.0750   15.6370   32.0910 N   0  0  0  0  0  0  0  0  0  0  0  0
   21.0750   16.5730   32.4360 C   0  0  0  0  0  0  0  0  0  0  0  0
   19.7290   16.4410   32.0950 C   0  0  0  0  0  0  0  0  0  0  0  0
   18.7960   17.4220   32.4500 C   0  0  0  0  0  0  0  0  0  0  0  0
   19.1920   18.5600   33.1640 C   0  0  0  0  0  0  0  0  0  0  0  0
   18.1820   19.5980   33.5580 C   0  0  0  0  0  0  0  0  0  0  0  0
   18.6200   20.3420   34.7590 N   0  0  0  0  0  0  0  0  0  0  0  0
   20.5390   18.6860   33.5260 C   0  0  0  0  0  0  0  0  0  0  0  0
   21.4690   17.7040   33.1610 C   0  0  0  0  0  0  0  0  0  0  0  0
   24.2220   13.0320   32.9700 C   0  0  0  0  0  0  0  0  0  0  0  0
   25.0600   12.0340   32.4720 C   0  0  0  0  0  0  0  0  0  0  0  0
   25.7570   12.2190   31.2700 C   0  0  0  0  0  0  0  0  0  0  0  0
   26.6160   11.2250   30.7680 C   0  0  0  0  0  0  0  0  0  0  0  0
   29.7330    9.0780   29.6080 H   0  0  0  0  0  0  0  0  0  0  0  0
   29.0960   10.0620   30.8810 H   0  0  0  0  0  0  0  0  0  0  0  0
   27.5300   10.4860   27.1790 H   0  0  0  0  0  0  0  0  0  0  0  0
   28.7770    9.3100   27.4080 H   0  0  0  0  0  0  0  0  0  0  0  0
   27.7322   12.7895   27.9483 H   0  0  0  0  0  0  0  0  0  0  0  0
   26.2082   14.5566   28.8082 H   0  0  0  0  0  0  0  0  0  0  0  0
   24.6298   15.3766   30.5203 H   0  0  0  0  0  0  0  0  0  0  0  0
   21.9230   15.1220   31.2340 H   0  0  0  0  0  0  0  0  0  0  0  0
   19.3957   15.5525   31.5387 H   0  0  0  0  0  0  0  0  0  0  0  0
   17.7407   17.2980   32.1653 H   0  0  0  0  0  0  0  0  0  0  0  0
   18.0511   20.3053   32.7258 H   0  0  0  0  0  0  0  0  0  0  0  0
   17.2336   19.0910   33.7891 H   0  0  0  0  0  0  0  0  0  0  0  0
   19.4830   20.8680   34.5850 H   0  0  0  0  0  0  0  0  0  0  0  0
   18.7880   19.7000   35.5440 H   0  0  0  0  0  0  0  0  0  0  0  0
   17.8960   21.0050   35.0610 H   0  0  0  0  0  0  0  0  0  0  0  0
   20.8694   19.5632   34.1016 H   0  0  0  0  0  0  0  0  0  0  0  0
   22.5241   17.8233   33.4482 H   0  0  0  0  0  0  0  0  0  0  0  0
   23.6901   12.8765   33.9202 H   0  0  0  0  0  0  0  0  0  0  0  0
   25.1750   11.0921   33.0284 H   0  0  0  0  0  0  0  0  0  0  0  0
   26.7283   10.2802   31.3201 H   0  0  0  0  0  0  0  0  0  0  0  0
  1  2  1  0
  2  3  2  0
  2  4  1  0
  4  5  2  0
  5  6  1  0
  6  7  2  0
  7  8  1  0
  8  9  2  0
  9 10  1  0
 10 11  2  0
 10 12  1  0
 12 13  1  0
 13 14  2  0
 14 15  1  0
 15 16  2  0
 16 17  1  0
 17 18  1  0
 16 19  1  0
 19 20  2  0
  9 21  1  0
 21 22  2  0
 22 23  1  0
 23 24  2  0
 24  4  1  0
 23  7  1  0
 20 13  1  0
  1 25  1  0
  1 26  1  0
  3 27  1  0
  3 28  1  0
  5 29  1  0
  6 30  1  0
  8 31  1  0
 12 32  1  0
 14 33  1  0
 15 34  1  0
 17 35  1  0
 17 36  1  0
 18 37  1  0
 18 38  1  0
 18 39  1  0
 19 40  1  0
 20 41  1  0
 21 42  1  0
 22 43  1  0
 24 44  1  0
M  CHG  2   3   1  18   1
M  END
>  <meeko>  (3) 
{"is_sidechain": [false], "free_energy": -7.671, "intermolecular_energy": -10.141, "internal_energy": -0.041}

$$$$
1owh_ligand
     RDKit          3D

 44 46  0  0  0  0  0  0  0  0999 V2000
   18.6440   20.0690   34.5370 N   0  0  0  0  0  0  0  0  0  0  0  0
   18.5710   19.3830   33.4170 C   0  0  0  0  0  0  0  0  0  0  0  0
   17.6040   19.5910   32.5500 N   0  0  0  0  0  0  0  0  0  0  0  0
   19.5900   18.3630   33.1300 C   0  0  0  0  0  0  0  0  0  0  0  0
   19.2790   17.2370   32.3580 C   0  0  0  0  0  0  0  0  0  0  0  0
   20.2490   16.2640   32.0930 C   0  0  0  0  0  0  0  0  0  0  0  0
   21.5530   16.3910   32.5960 C   0  0  0  0  0  0  0  0  0  0  0  0
   22.5360   15.4120   32.3490 C   0  0  0  0  0  0  0  0  0  0  0  0
   23.8280   15.5550   32.8710 C   0  0  0  0  0  0  0  0  0  0  0  0
   24.8880   14.5280   32.6640 C   0  0  0  0  0  0  0  0  0  0  0  0
   25.9360   14.6570   33.2850 O   0  0  0  0  0  0  0  0  0  0  0  0
   24.5880   13.5310   31.7490 N   0  0  0  0  0  0  0  0  0  0  0  0
   25.4290   12.4660   31.3540 C   0  0  0  0  0  0  0  0  0  0  0  0
   25.3710   11.1820   31.8960 C   0  0  0  0  0  0  0  0  0  0  0  0
   26.2550   10.1820   31.4730 C   0  0  0  0  0  0  0  0  0  0  0  0
   27.2150   10.4460   30.4890 C   0  0  0  0  0  0  0  0  0  0  0  0
   28.1460    9.3630   30.0270 C   0  0  0  0  0  0  0  0  0  0  0  0
   28.1380    9.2440   28.5520 N   0  0  0  0  0  0  0  0  0  0  0  0
   27.2630   11.7290   29.9290 C   0  0  0  0  0  0  0  0  0  0  0  0
   26.3810   12.7280   30.3620 C   0  0  0  0  0  0  0  0  0  0  0  0
   24.1370   16.6690   33.6560 C   0  0  0  0  0  0  0  0  0  0  0  0
   23.1730   17.6480   33.9010 C   0  0  0  0  0  0  0  0  0  0  0  0
   21.8780   17.5230   33.3780 C   0  0  0  0  0  0  0  0  0  0  0  0
   20.8940   18.4950   33.6320 C   0  0  0  0  0  0  0  0  0  0  0  0
   17.9720   20.7840   34.7850 H   0  0  0  0  0  0  0  0  0  0  0  0
   19.4170   19.9180   35.1780 H   0  0  0  0  0  0  0  0  0  0  0  0
   17.5520   19.0360   31.7030 H   0  0  0  0  0  0  0  0  0  0  0  0
   16.8770   20.2790   32.6980 H   0  0  0  0  0  0  0  0  0  0  0  0
   18.2623   17.1162   31.9560 H   0  0  0  0  0  0  0  0  0  0  0  0
   19.9860   15.3878   31.4822 H   0  0  0  0  0  0  0  0  0  0  0  0
   22.2870   14.5291   31.7419 H   0  0  0  0  0  0  0  0  0  0  0  0
   23.7160   13.6170   31.2450 H   0  0  0  0  0  0  0  0  0  0  0  0
   24.6203   10.9519   32.6664 H   0  0  0  0  0  0  0  0  0  0  0  0
   26.1945    9.1782   31.9187 H   0  0  0  0  0  0  0  0  0  0  0  0
   29.1665    9.5998   30.3624 H   0  0  0  0  0  0  0  0  0  0  0  0
   27.8090    8.4076   30.4555 H   0  0  0  0  0  0  0  0  0  0  0  0
   27.2310    8.9160   28.2030 H   0  0  0  0  0  0  0  0  0  0  0  0
   28.8610    8.5850   28.2370 H   0  0  0  0  0  0  0  0  0  0  0  0
   28.3420   10.1490   28.1120 H   0  0  0  0  0  0  0  0  0  0  0  0
   27.9989   11.9541   29.1431 H   0  0  0  0  0  0  0  0  0  0  0  0
   26.4376   13.7320   29.9161 H   0  0  0  0  0  0  0  0  0  0  0  0
   25.1452   16.7748   34.0830 H   0  0  0  0  0  0  0  0  0  0  0  0
   23.4317   18.5264   34.5105 H   0  0  0  0  0  0  0  0  0  0  0  0
   21.1516   19.3771   34.2367 H   0  0  0  0  0  0  0  0  0  0  0  0
  1  2  1  0
  2  3  2  0
  2  4  1  0
  4  5  2  0
  5  6  1  0
  6  7  2  0
  7  8  1  0
  8  9  2  0
  9 10  1  0
 10 11  2  0
 10 12  1  0
 12 13  1  0
 13 14  2  0
 14 15  1  0
 15 16  2  0
 16 17  1  0
 17 18  1  0
 16 19  1  0
 19 20  2  0
  9 21  1  0
 21 22  2  0
 22 23  1  0
 23 24  2  0
 24  4  1  0
 23  7  1  0
 20 13  1  0
  1 25  1  0
  1 26  1  0
  3 27  1  0
  3 28  1  0
  5 29  1  0
  6 30  1  0
  8 31  1  0
 12 32  1  0
 14 33  1  0
 15 34  1  0
 17 35  1  0
 17 36  1  0
 18 37  1  0
 18 38  1  0
 18 39  1  0
 19 40  1  0
 20 41  1  0
 21 42  1  0
 22 43  1  0
 24 44  1  0
M  CHG  2   3   1  18   1
M  END
>  <meeko>  (4) 
{"is_sidechain": [false], "free_energy": -7.408, "intermolecular_energy": -9.373, "internal_energy": -0.477}

$$$$
1owh_ligand
     RDKit          3D

 44 46  0  0  0  0  0  0  0  0999 V2000
   27.5340    6.0970   28.7430 N   0  0  0  0  0  0  0  0  0  0  0  0
   27.6210    7.0950   29.5950 C   0  0  0  0  0  0  0  0  0  0  0  0
   28.0900    8.2690   29.2260 N   0  0  0  0  0  0  0  0  0  0  0  0
   27.1880    6.8970   30.9850 C   0  0  0  0  0  0  0  0  0  0  0  0
   25.9260    7.3300   31.4130 C   0  0  0  0  0  0  0  0  0  0  0  0
   25.5210    7.1460   32.7400 C   0  0  0  0  0  0  0  0  0  0  0  0
   26.3680    6.5290   33.6730 C   0  0  0  0  0  0  0  0  0  0  0  0
   25.9780    6.3490   35.0150 C   0  0  0  0  0  0  0  0  0  0  0  0
   26.8450    5.7410   35.9310 C   0  0  0  0  0  0  0  0  0  0  0  0
   26.4890    5.5630   37.3670 C   0  0  0  0  0  0  0  0  0  0  0  0
   26.8320    4.5230   37.9160 O   0  0  0  0  0  0  0  0  0  0  0  0
   25.7630    6.5960   37.9380 N   0  0  0  0  0  0  0  0  0  0  0  0
   25.2790    6.6570   39.2640 C   0  0  0  0  0  0  0  0  0  0  0  0
   25.7950    7.5010   40.2470 C   0  0  0  0  0  0  0  0  0  0  0  0
   25.2820    7.4890   41.5490 C   0  0  0  0  0  0  0  0  0  0  0  0
   24.2300    6.6310   41.8950 C   0  0  0  0  0  0  0  0  0  0  0  0
   23.6720    6.6380   43.2880 C   0  0  0  0  0  0  0  0  0  0  0  0
   22.5710    5.6600   43.4290 N   0  0  0  0  0  0  0  0  0  0  0  0
   23.6970    5.7950   40.9060 C   0  0  0  0  0  0  0  0  0  0  0  0
   24.2200    5.8070   39.6060 C   0  0  0  0  0  0  0  0  0  0  0  0
   28.1120    5.3230   35.5120 C   0  0  0  0  0  0  0  0  0  0  0  0
   28.5050    5.4890   34.1830 C   0  0  0  0  0  0  0  0  0  0  0  0
   27.6450    6.0890   33.2530 C   0  0  0  0  0  0  0  0  0  0  0  0
   28.0370    6.2760   31.9150 C   0  0  0  0  0  0  0  0  0  0  0  0
   27.8150    6.1780   27.7750 H   0  0  0  0  0  0  0  0  0  0  0  0
   27.1380    5.2090   29.0380 H   0  0  0  0  0  0  0  0  0  0  0  0
   28.1700    9.0200   29.9030 H   0  0  0  0  0  0  0  0  0  0  0  0
   28.4010    8.4600   28.2840 H   0  0  0  0  0  0  0  0  0  0  0  0
   25.2470    7.8193   30.6991 H   0  0  0  0  0  0  0  0  0  0  0  0
   24.5250    7.4898   33.0558 H   0  0  0  0  0  0  0  0  0  0  0  0
   24.9853    6.6886   35.3454 H   0  0  0  0  0  0  0  0  0  0  0  0
   25.4720    7.3460   37.3260 H   0  0  0  0  0  0  0  0  0  0  0  0
   26.6176    8.1865   39.9952 H   0  0  0  0  0  0  0  0  0  0  0  0
   25.7092    8.1602   42.3086 H   0  0  0  0  0  0  0  0  0  0  0  0
   24.4731    6.3808   43.9966 H   0  0  0  0  0  0  0  0  0  0  0  0
   23.2748    7.6419   43.4987 H   0  0  0  0  0  0  0  0  0  0  0  0
   21.6660    6.0690   43.1730 H   0  0  0  0  0  0  0  0  0  0  0  0
   22.5080    5.3200   44.3960 H   0  0  0  0  0  0  0  0  0  0  0  0
   22.7330    4.8410   42.8300 H   0  0  0  0  0  0  0  0  0  0  0  0
   22.8611    5.1235   41.1516 H   0  0  0  0  0  0  0  0  0  0  0  0
   23.7926    5.1393   38.8434 H   0  0  0  0  0  0  0  0  0  0  0  0
   28.8023    4.8611   36.2333 H   0  0  0  0  0  0  0  0  0  0  0  0
   29.4996    5.1455   33.8623 H   0  0  0  0  0  0  0  0  0  0  0  0
   29.0290    5.9286   31.5907 H   0  0  0  0  0  0  0  0  0  0  0  0
  1  2  1  0
  2  3  2  0
  2  4  1  0
  4  5  2  0
  5  6  1  0
  6  7  2  0
  7  8  1  0
  8  9  2  0
  9 10  1  0
 10 11  2  0
 10 12  1  0
 12 13  1  0
 13 14  2  0
 14 15  1  0
 15 16  2  0
 16 17  1  0
 17 18  1  0
 16 19  1  0
 19 20  2  0
  9 21  1  0
 21 22  2  0
 22 23  1  0
 23 24  2  0
 24  4  1  0
 23  7  1  0
 20 13  1  0
  1 25  1  0
  1 26  1  0
  3 27  1  0
  3 28  1  0
  5 29  1  0
  6 30  1  0
  8 31  1  0
 12 32  1  0
 14 33  1  0
 15 34  1  0
 17 35  1  0
 17 36  1  0
 18 37  1  0
 18 38  1  0
 18 39  1  0
 19 40  1  0
 20 41  1  0
 21 42  1  0
 22 43  1  0
 24 44  1  0
M  CHG  2   3   1  18   1
M  END
>  <meeko>  (5) 
{"is_sidechain": [false], "free_energy": -7.114, "intermolecular_energy": -9.072, "internal_energy": -0.406}

$$$$
1owh_ligand
     RDKit          3D

 44 46  0  0  0  0  0  0  0  0999 V2000
   24.2090   20.1130   29.5590 N   0  0  0  0  0  0  0  0  0  0  0  0
   25.2930   19.3730   29.6440 C   0  0  0  0  0  0  0  0  0  0  0  0
   26.4560   19.8110   29.2120 N   0  0  0  0  0  0  0  0  0  0  0  0
   25.2030   18.0290   30.2320 C   0  0  0  0  0  0  0  0  0  0  0  0
   26.1810   17.0620   29.9660 C   0  0  0  0  0  0  0  0  0  0  0  0
   26.0880   15.7810   30.5220 C   0  0  0  0  0  0  0  0  0  0  0  0
   25.0130   15.4330   31.3530 C   0  0  0  0  0  0  0  0  0  0  0  0
   24.8990   14.1430   31.9080 C   0  0  0  0  0  0  0  0  0  0  0  0
   23.8110   13.8150   32.7260 C   0  0  0  0  0  0  0  0  0  0  0  0
   23.6320   12.4530   33.3050 C   0  0  0  0  0  0  0  0  0  0  0  0
   22.5280   12.1620   33.7480 O   0  0  0  0  0  0  0  0  0  0  0  0
   24.7620   11.6510   33.3140 N   0  0  0  0  0  0  0  0  0  0  0  0
   24.8630   10.3400   33.8310 C   0  0  0  0  0  0  0  0  0  0  0  0
   25.0880   10.0460   35.1760 C   0  0  0  0  0  0  0  0  0  0  0  0
   25.2030    8.7210   35.6130 C   0  0  0  0  0  0  0  0  0  0  0  0
   25.0880    7.6570   34.7100 C   0  0  0  0  0  0  0  0  0  0  0  0
   25.1930    6.2390   35.1910 C   0  0  0  0  0  0  0  0  0  0  0  0
   25.5950    6.1840   36.6130 N   0  0  0  0  0  0  0  0  0  0  0  0
   24.8440    7.9490   33.3620 C   0  0  0  0  0  0  0  0  0  0  0  0
   24.7370    9.2770   32.9300 C   0  0  0  0  0  0  0  0  0  0  0  0
   22.8230   14.7720   32.9810 C   0  0  0  0  0  0  0  0  0  0  0  0
   22.9300   16.0550   32.4420 C   0  0  0  0  0  0  0  0  0  0  0  0
   24.0180   16.4000   31.6270 C   0  0  0  0  0  0  0  0  0  0  0  0
   24.1270   17.6850   31.0670 C   0  0  0  0  0  0  0  0  0  0  0  0
   24.2130   21.0450   29.1650 H   0  0  0  0  0  0  0  0  0  0  0  0
   23.3280   19.7700   29.9280 H   0  0  0  0  0  0  0  0  0  0  0  0
   27.2760   19.2170   29.2660 H   0  0  0  0  0  0  0  0  0  0  0  0
   26.5740   20.7260   28.7990 H   0  0  0  0  0  0  0  0  0  0  0  0
   27.0306   17.3120   29.3136 H   0  0  0  0  0  0  0  0  0  0  0  0
   26.8685   15.0371   30.3043 H   0  0  0  0  0  0  0  0  0  0  0  0
   25.6706   13.3879   31.6971 H   0  0  0  0  0  0  0  0  0  0  0  0
   25.6260   12.0720   32.9990 H   0  0  0  0  0  0  0  0  0  0  0  0
   25.1763   10.8666   35.9032 H   0  0  0  0  0  0  0  0  0  0  0  0
   25.3857    8.5134   36.6777 H   0  0  0  0  0  0  0  0  0  0  0  0
   24.2156    5.7478   35.0754 H   0  0  0  0  0  0  0  0  0  0  0  0
   25.9594    5.7245   34.5927 H   0  0  0  0  0  0  0  0  0  0  0  0
   26.0680    5.3020   36.8390 H   0  0  0  0  0  0  0  0  0  0  0  0
   24.7760    6.2760   37.2260 H   0  0  0  0  0  0  0  0  0  0  0  0
   26.2320    6.9570   36.8420 H   0  0  0  0  0  0  0  0  0  0  0  0
   24.7356    7.1289   32.6370 H   0  0  0  0  0  0  0  0  0  0  0  0
   24.5511    9.4874   31.8664 H   0  0  0  0  0  0  0  0  0  0  0  0
   21.9581   14.5122   33.6090 H   0  0  0  0  0  0  0  0  0  0  0  0
   22.1532   16.8031   32.6586 H   0  0  0  0  0  0  0  0  0  0  0  0
   23.3541   18.4361   31.2872 H   0  0  0  0  0  0  0  0  0  0  0  0
  1  2  1  0
  2  3  2  0
  2  4  1  0
  4  5  2  0
  5  6  1  0
  6  7  2  0
  7  8  1  0
  8  9  2  0
  9 10  1  0
 10 11  2  0
 10 12  1  0
 12 13  1  0
 13 14  2  0
 14 15  1  0
 15 16  2  0
 16 17  1  0
 17 18  1  0
 16 19  1  0
 19 20  2  0
  9 21  1  0
 21 22  2  0
 22 23  1  0
 23 24  2  0
 24  4  1  0
 23  7  1  0
 20 13  1  0
  1 25  1  0
  1 26  1  0
  3 27  1  0
  3 28  1  0
  5 29  1  0
  6 30  1  0
  8 31  1  0
 12 32  1  0
 14 33  1  0
 15 34  1  0
 17 35  1  0
 17 36  1  0
 18 37  1  0
 18 38  1  0
 18 39  1  0
 19 40  1  0
 20 41  1  0
 21 42  1  0
 22 43  1  0
 24 44  1  0
M  CHG  2   3   1  18   1
M  END
>  <meeko>  (6) 
{"is_sidechain": [false], "free_energy": -7.049, "intermolecular_energy": -8.907, "internal_energy": -0.49}

$$$$
1owh_ligand
     RDKit          3D

 44 46  0  0  0  0  0  0  0  0999 V2000
   25.9550    3.8970   36.5270 N   0  0  0  0  0  0  0  0  0  0  0  0
   26.1350    4.5230   35.3850 C   0  0  0  0  0  0  0  0  0  0  0  0
   26.7200    3.9310   34.3660 N   0  0  0  0  0  0  0  0  0  0  0  0
   25.6770    5.9120   35.2440 C   0  0  0  0  0  0  0  0  0  0  0  0
   25.5440    6.7410   36.3660 C   0  0  0  0  0  0  0  0  0  0  0  0
   25.0990    8.0610   36.2280 C   0  0  0  0  0  0  0  0  0  0  0  0
   24.7730    8.5840   34.9680 C   0  0  0  0  0  0  0  0  0  0  0  0
   24.3110    9.9060   34.8170 C   0  0  0  0  0  0  0  0  0  0  0  0
   23.9800   10.4030   33.5500 C   0  0  0  0  0  0  0  0  0  0  0  0
   23.4540   11.7830   33.3480 C   0  0  0  0  0  0  0  0  0  0  0  0
   22.2950   12.0060   33.6760 O   0  0  0  0  0  0  0  0  0  0  0  0
   24.3350   12.6820   32.7690 N   0  0  0  0  0  0  0  0  0  0  0  0
   24.0730   14.0330   32.4460 C   0  0  0  0  0  0  0  0  0  0  0  0
   23.8720   14.5000   31.1470 C   0  0  0  0  0  0  0  0  0  0  0  0
   23.6420   15.8590   30.8990 C   0  0  0  0  0  0  0  0  0  0  0  0
   23.6020   16.7810   31.9520 C   0  0  0  0  0  0  0  0  0  0  0  0
   23.3350   18.2330   31.6790 C   0  0  0  0  0  0  0  0  0  0  0  0
   24.1480   18.7230   30.5450 N   0  0  0  0  0  0  0  0  0  0  0  0
   23.7850   16.3120   33.2580 C   0  0  0  0  0  0  0  0  0  0  0  0
   24.0220   14.9530   33.5000 C   0  0  0  0  0  0  0  0  0  0  0  0
   24.0950    9.5740   32.4300 C   0  0  0  0  0  0  0  0  0  0  0  0
   24.5580    8.2640   32.5680 C   0  0  0  0  0  0  0  0  0  0  0  0
   24.9010    7.7560   33.8290 C   0  0  0  0  0  0  0  0  0  0  0  0
   25.3540    6.4330   33.9810 C   0  0  0  0  0  0  0  0  0  0  0  0
   26.2490    2.9410   36.6790 H   0  0  0  0  0  0  0  0  0  0  0  0
   25.4720    4.3600   37.2910 H   0  0  0  0  0  0  0  0  0  0  0  0
   26.8700    4.4370   33.5000 H   0  0  0  0  0  0  0  0  0  0  0  0
   27.0550    2.9780   34.4080 H   0  0  0  0  0  0  0  0  0  0  0  0
   25.7916    6.3509   37.3643 H   0  0  0  0  0  0  0  0  0  0  0  0
   25.0036    8.6971   37.1203 H   0  0  0  0  0  0  0  0  0  0  0  0
   24.2094   10.5530   35.7008 H   0  0  0  0  0  0  0  0  0  0  0  0
   25.2290   12.3190   32.4650 H   0  0  0  0  0  0  0  0  0  0  0  0
   23.8945   13.7912   30.3061 H   0  0  0  0  0  0  0  0  0  0  0  0
   23.4912   16.2058   29.8660 H   0  0  0  0  0  0  0  0  0  0  0  0
   22.2694   18.3628   31.4389 H   0  0  0  0  0  0  0  0  0  0  0  0
   23.6041   18.8109   32.5755 H   0  0  0  0  0  0  0  0  0  0  0  0
   23.5990   18.7760   29.6800 H   0  0  0  0  0  0  0  0  0  0  0  0
   24.9510   18.1040   30.3780 H   0  0  0  0  0  0  0  0  0  0  0  0
   24.5240   19.6580   30.7430 H   0  0  0  0  0  0  0  0  0  0  0  0
   23.7423   17.0168   34.1015 H   0  0  0  0  0  0  0  0  0  0  0  0
   24.1701   14.6037   34.5325 H   0  0  0  0  0  0  0  0  0  0  0  0
   23.8195    9.9555   31.4357 H   0  0  0  0  0  0  0  0  0  0  0  0
   24.6546    7.6241   31.6785 H   0  0  0  0  0  0  0  0  0  0  0  0
   25.4573    5.7935   33.0920 H   0  0  0  0  0  0  0  0  0  0  0  0
  1  2  1  0
  2  3  2  0
  2  4  1  0
  4  5  2  0
  5  6  1  0
  6  7  2  0
  7  8  1  0
  8  9  2  0
  9 10  1  0
 10 11  2  0
 10 12  1  0
 12 13  1  0
 13 14  2  0
 14 15  1  0
 15 16  2  0
 16 17  1  0
 17 18  1  0
 16 19  1  0
 19 20  2  0
  9 21  1  0
 21 22  2  0
 22 23  1  0
 23 24  2  0
 24  4  1  0
 23  7  1  0
 20 13  1  0
  1 25  1  0
  1 26  1  0
  3 27  1  0
  3 28  1  0
  5 29  1  0
  6 30  1  0
  8 31  1  0
 12 32  1  0
 14 33  1  0
 15 34  1  0
 17 35  1  0
 17 36  1  0
 18 37  1  0
 18 38  1  0
 18 39  1  0
 19 40  1  0
 20 41  1  0
 21 42  1  0
 22 43  1  0
 24 44  1  0
M  CHG  2   3   1  18   1
M  END
>  <meeko>  (7) 
{"is_sidechain": [false], "free_energy": -7.005, "intermolecular_energy": -8.928, "internal_energy": -0.412}

$$$$
1owh_ligand
     RDKit          3D

 44 46  0  0  0  0  0  0  0  0999 V2000
   26.6960    4.4370   33.4410 N   0  0  0  0  0  0  0  0  0  0  0  0
   26.4570    4.9320   32.2460 C   0  0  0  0  0  0  0  0  0  0  0  0
   26.4170    4.1580   31.1820 N   0  0  0  0  0  0  0  0  0  0  0  0
   26.2330    6.3760   32.0960 C   0  0  0  0  0  0  0  0  0  0  0  0
   26.8360    7.0910   31.0520 C   0  0  0  0  0  0  0  0  0  0  0  0
   26.6270    8.4680   30.9170 C   0  0  0  0  0  0  0  0  0  0  0  0
   25.8130    9.1660   31.8230 C   0  0  0  0  0  0  0  0  0  0  0  0
   25.6050   10.5540   31.7070 C   0  0  0  0  0  0  0  0  0  0  0  0
   24.7980   11.2310   32.6300 C   0  0  0  0  0  0  0  0  0  0  0  0
   24.5790   12.7040   32.5660 C   0  0  0  0  0  0  0  0  0  0  0  0
   24.1970   13.2680   33.5840 O   0  0  0  0  0  0  0  0  0  0  0  0
   24.8020   13.2910   31.3310 N   0  0  0  0  0  0  0  0  0  0  0  0
   24.6360   14.6550   31.0010 C   0  0  0  0  0  0  0  0  0  0  0  0
   23.4100   15.3210   31.0210 C   0  0  0  0  0  0  0  0  0  0  0  0
   23.3170   16.6690   30.6570 C   0  0  0  0  0  0  0  0  0  0  0  0
   24.4570   17.3860   30.2710 C   0  0  0  0  0  0  0  0  0  0  0  0
   24.3520   18.8370   29.9010 C   0  0  0  0  0  0  0  0  0  0  0  0
   25.5710   19.3020   29.2060 N   0  0  0  0  0  0  0  0  0  0  0  0
   25.6920   16.7250   30.2680 C   0  0  0  0  0  0  0  0  0  0  0  0
   25.7770   15.3740   30.6260 C   0  0  0  0  0  0  0  0  0  0  0  0
   24.2080   10.5240   33.6820 C   0  0  0  0  0  0  0  0  0  0  0  0
   24.4030    9.1470   33.8020 C   0  0  0  0  0  0  0  0  0  0  0  0
   25.2010    8.4550   32.8820 C   0  0  0  0  0  0  0  0  0  0  0  0
   25.4160    7.0700   33.0020 C   0  0  0  0  0  0  0  0  0  0  0  0
   26.8560    3.4510   33.6030 H   0  0  0  0  0  0  0  0  0  0  0  0
   26.6900    5.0450   34.2540 H   0  0  0  0  0  0  0  0  0  0  0  0
   26.2530    4.5610   30.2660 H   0  0  0  0  0  0  0  0  0  0  0  0
   26.5640    3.1590   31.2280 H   0  0  0  0  0  0  0  0  0  0  0  0
   27.4797    6.5646   30.3319 H   0  0  0  0  0  0  0  0  0  0  0  0
   27.1071    9.0110   30.0896 H   0  0  0  0  0  0  0  0  0  0  0  0
   26.0798   11.1105   30.8855 H   0  0  0  0  0  0  0  0  0  0  0  0
   25.0200   12.6730   30.5610 H   0  0  0  0  0  0  0  0  0  0  0  0
   22.5034   14.7785   31.3273 H   0  0  0  0  0  0  0  0  0  0  0  0
   22.3384   17.1710   30.6741 H   0  0  0  0  0  0  0  0  0  0  0  0
   23.4857   18.9761   29.2375 H   0  0  0  0  0  0  0  0  0  0  0  0
   24.2325   19.4236   30.8238 H   0  0  0  0  0  0  0  0  0  0  0  0
   26.4190   19.0880   29.7440 H   0  0  0  0  0  0  0  0  0  0  0  0
   25.5370   20.3170   29.0500 H   0  0  0  0  0  0  0  0  0  0  0  0
   25.6570   18.8570   28.2840 H   0  0  0  0  0  0  0  0  0  0  0  0
   26.6026   17.2718   29.9820 H   0  0  0  0  0  0  0  0  0  0  0  0
   26.7548   14.8703   30.6124 H   0  0  0  0  0  0  0  0  0  0  0  0
   23.5873   11.0553   34.4185 H   0  0  0  0  0  0  0  0  0  0  0  0
   23.9250    8.5996   34.6277 H   0  0  0  0  0  0  0  0  0  0  0  0
   24.9337    6.5194   33.8231 H   0  0  0  0  0  0  0  0  0  0  0  0
  1  2  1  0
  2  3  2  0
  2  4  1  0
  4  5  2  0
  5  6  1  0
  6  7  2  0
  7  8  1  0
  8  9  2  0
  9 10  1  0
 10 11  2  0
 10 12  1  0
 12 13  1  0
 13 14  2  0
 14 15  1  0
 15 16  2  0
 16 17  1  0
 17 18  1  0
 16 19  1  0
 19 20  2  0
  9 21  1  0
 21 22  2  0
 22 23  1  0
 23 24  2  0
 24  4  1  0
 23  7  1  0
 20 13  1  0
  1 25  1  0
  1 26  1  0
  3 27  1  0
  3 28  1  0
  5 29  1  0
  6 30  1  0
  8 31  1  0
 12 32  1  0
 14 33  1  0
 15 34  1  0
 17 35  1  0
 17 36  1  0
 18 37  1  0
 18 38  1  0
 18 39  1  0
 19 40  1  0
 20 41  1  0
 21 42  1  0
 22 43  1  0
 24 44  1  0
M  CHG  2   3   1  18   1
M  END
>  <meeko>  (8) 
{"is_sidechain": [false], "free_energy": -6.949, "intermolecular_energy": -8.85, "internal_energy": -0.42}

$$$$
1owh_ligand
     RDKit          3D

 44 46  0  0  0  0  0  0  0  0999 V2000
   26.3150    4.0350   31.0290 N   0  0  0  0  0  0  0  0  0  0  0  0
   26.6570    4.8520   32.0010 C   0  0  0  0  0  0  0  0  0  0  0  0
   27.1920    4.4010   33.1160 N   0  0  0  0  0  0  0  0  0  0  0  0
   26.4350    6.2960   31.8400 C   0  0  0  0  0  0  0  0  0  0  0  0
   27.1550    7.0310   30.8890 C   0  0  0  0  0  0  0  0  0  0  0  0
   26.9460    8.4070   30.7450 C   0  0  0  0  0  0  0  0  0  0  0  0
   26.0170    9.0830   31.5490 C   0  0  0  0  0  0  0  0  0  0  0  0
   25.8070   10.4710   31.4240 C   0  0  0  0  0  0  0  0  0  0  0  0
   24.8820   11.1270   32.2460 C   0  0  0  0  0  0  0  0  0  0  0  0
   24.6530   12.5980   32.1720 C   0  0  0  0  0  0  0  0  0  0  0  0
   25.1980   13.2150   31.2650 O   0  0  0  0  0  0  0  0  0  0  0  0
   23.8610   13.1330   33.1750 N   0  0  0  0  0  0  0  0  0  0  0  0
   23.5210   14.4940   33.3470 C   0  0  0  0  0  0  0  0  0  0  0  0
   22.2530   15.0200   33.1010 C   0  0  0  0  0  0  0  0  0  0  0  0
   21.9960   16.3860   33.2700 C   0  0  0  0  0  0  0  0  0  0  0  0
   23.0060   17.2570   33.6970 C   0  0  0  0  0  0  0  0  0  0  0  0
   22.7160   18.7160   33.8950 C   0  0  0  0  0  0  0  0  0  0  0  0
   21.2830   19.0110   33.6800 N   0  0  0  0  0  0  0  0  0  0  0  0
   24.2750   16.7280   33.9640 C   0  0  0  0  0  0  0  0  0  0  0  0
   24.5280   15.3620   33.7860 C   0  0  0  0  0  0  0  0  0  0  0  0
   24.1740   10.4000   33.2080 C   0  0  0  0  0  0  0  0  0  0  0  0
   24.3690    9.0230   33.3350 C   0  0  0  0  0  0  0  0  0  0  0  0
   25.2860    8.3520   32.5140 C   0  0  0  0  0  0  0  0  0  0  0  0
   25.5020    6.9690   32.6450 C   0  0  0  0  0  0  0  0  0  0  0  0
   26.4470    3.0330   31.0850 H   0  0  0  0  0  0  0  0  0  0  0  0
   25.9340    4.4040   30.1630 H   0  0  0  0  0  0  0  0  0  0  0  0
   27.4290    5.0450   33.8630 H   0  0  0  0  0  0  0  0  0  0  0  0
   27.3660    3.4190   33.2790 H   0  0  0  0  0  0  0  0  0  0  0  0
   27.8912    6.5217   30.2498 H   0  0  0  0  0  0  0  0  0  0  0  0
   27.5185    8.9664   29.9905 H   0  0  0  0  0  0  0  0  0  0  0  0
   26.3739   11.0435   30.6751 H   0  0  0  0  0  0  0  0  0  0  0  0
   23.5640   12.5060   33.9100 H   0  0  0  0  0  0  0  0  0  0  0  0
   21.4438   14.3526   32.7697 H   0  0  0  0  0  0  0  0  0  0  0  0
   20.9894   16.7794   33.0650 H   0  0  0  0  0  0  0  0  0  0  0  0
   22.9906   19.0002   34.9216 H   0  0  0  0  0  0  0  0  0  0  0  0
   23.3032   19.2900   33.1631 H   0  0  0  0  0  0  0  0  0  0  0  0
   21.1240   19.4870   32.7850 H   0  0  0  0  0  0  0  0  0  0  0  0
   20.9180   19.6100   34.4310 H   0  0  0  0  0  0  0  0  0  0  0  0
   20.7280   18.1470   33.6860 H   0  0  0  0  0  0  0  0  0  0  0  0
   25.0793   17.3906   34.3163 H   0  0  0  0  0  0  0  0  0  0  0  0
   25.5326   14.9653   33.9942 H   0  0  0  0  0  0  0  0  0  0  0  0
   23.4602   10.9150   33.8677 H   0  0  0  0  0  0  0  0  0  0  0  0
   23.7973    8.4592   34.0868 H   0  0  0  0  0  0  0  0  0  0  0  0
   24.9284    6.4026   33.3934 H   0  0  0  0  0  0  0  0  0  0  0  0
  1  2  1  0
  2  3  2  0
  2  4  1  0
  4  5  2  0
  5  6  1  0
  6  7  2  0
  7  8  1  0
  8  9  2  0
  9 10  1  0
 10 11  2  0
 10 12  1  0
 12 13  1  0
 13 14  2  0
 14 15  1  0
 15 16  2  0
 16 17  1  0
 17 18  1  0
 16 19  1  0
 19 20  2  0
  9 21  1  0
 21 22  2  0
 22 23  1  0
 23 24  2  0
 24  4  1  0
 23  7  1  0
 20 13  1  0
  1 25  1  0
  1 26  1  0
  3 27  1  0
  3 28  1  0
  5 29  1  0
  6 30  1  0
  8 31  1  0
 12 32  1  0
 14 33  1  0
 15 34  1  0
 17 35  1  0
 17 36  1  0
 18 37  1  0
 18 38  1  0
 18 39  1  0
 19 40  1  0
 20 41  1  0
 21 42  1  0
 22 43  1  0
 24 44  1  0
M  CHG  2   3   1  18   1
M  END
>  <meeko>  (9) 
{"is_sidechain": [false], "free_energy": -6.788, "intermolecular_energy": -8.635, "internal_energy": -0.433}

$$$$
