4ivd_ligand
     RDKit          3D

 48 51  0  0  0  0  0  0  0  0999 V2000
   10.2910   57.6390   -2.5080 C   0  0  0  0  0  0  0  0  0  0  0  0
    9.7360   57.0690   -1.2110 C   0  0  1  0  0  0  0  0  0  0  0  0
   10.7710   57.0610   -0.2300 O   0  0  0  0  0  0  0  0  0  0  0  0
    8.6360   57.9280   -0.6630 C   0  0  0  0  0  0  0  0  0  0  0  0
    8.6250   59.2470   -0.8040 N   0  0  0  0  0  0  0  0  0  0  0  0
    7.4280   59.6640   -0.2910 C   0  0  0  0  0  0  0  0  0  0  0  0
    6.8420   60.9410   -0.2040 C   0  0  0  0  0  0  0  0  0  0  0  0
    5.5930   61.1490    0.3130 N   0  0  0  0  0  0  0  0  0  0  0  0
    4.9550   60.0350    0.7110 C   0  0  0  0  0  0  0  0  0  0  0  0
    3.6910   59.9470    1.2230 N   0  0  0  0  0  0  0  0  0  0  0  0
    3.3830   58.6240    1.4610 C   0  0  0  0  0  0  0  0  0  0  0  0
    4.4740   57.8440    1.1110 C   0  0  0  0  0  0  0  0  0  0  0  0
    5.4620   58.7550    0.6650 C   0  0  0  0  0  0  0  0  0  0  0  0
    6.7250   58.5740    0.1840 C   0  0  0  0  0  0  0  0  0  0  0  0
    7.5260   57.4890    0.0560 N   0  0  0  0  0  0  0  0  0  0  0  0
    7.3230   56.1570    0.6150 C   0  0  2  0  0  0  0  0  0  0  0  0
    8.4580   55.6560    1.5360 C   0  0  0  0  0  0  0  0  0  0  0  0
    8.8560   54.2050    1.2660 C   0  0  0  0  0  0  0  0  0  0  0  0
    7.6610   53.2440    1.1320 C   0  0  1  0  0  0  0  0  0  0  0  0
    7.1230   52.8390    2.5250 C   0  0  0  0  0  0  0  0  0  0  0  0
    5.5940   52.7740    2.6310 C   0  0  0  0  0  0  0  0  0  0  0  0
    5.1170   51.4210    2.9470 C   0  0  0  0  0  0  0  0  0  0  0  0
    4.7410   50.3510    3.1890 N   0  0  0  0  0  0  0  0  0  0  0  0
    6.5460   53.8040    0.2220 C   0  0  0  0  0  0  0  0  0  0  0  0
    6.9040   55.1310   -0.4450 C   0  0  0  0  0  0  0  0  0  0  0  0
   11.0415   58.4097   -2.2783 H   0  0  0  0  0  0  0  0  0  0  0  0
   10.7599   56.8331   -3.0917 H   0  0  0  0  0  0  0  0  0  0  0  0
    9.4729   58.0862   -3.0917 H   0  0  0  0  0  0  0  0  0  0  0  0
    9.3538   56.0603   -1.4262 H   0  0  0  0  0  0  0  0  0  0  0  0
   11.5580   57.4260   -0.6830 H   0  0  0  0  0  0  0  0  0  0  0  0
    7.4128   61.8083   -0.5672 H   0  0  0  0  0  0  0  0  0  0  0  0
    3.0860   60.7420    1.3680 H   0  0  0  0  0  0  0  0  0  0  0  0
    2.4295   58.2498    1.8621 H   0  0  0  0  0  0  0  0  0  0  0  0
    4.5552   56.7485    1.1677 H   0  0  0  0  0  0  0  0  0  0  0  0
    6.4673   56.2712    1.2967 H   0  0  0  0  0  0  0  0  0  0  0  0
    9.3403   56.2949    1.3829 H   0  0  0  0  0  0  0  0  0  0  0  0
    8.0862   55.7061    2.5701 H   0  0  0  0  0  0  0  0  0  0  0  0
    9.4328   54.1727    0.3299 H   0  0  0  0  0  0  0  0  0  0  0  0
    9.4405   53.8678    2.1347 H   0  0  0  0  0  0  0  0  0  0  0  0
    8.0287   52.3352    0.6331 H   0  0  0  0  0  0  0  0  0  0  0  0
    7.5255   51.8454    2.7715 H   0  0  0  0  0  0  0  0  0  0  0  0
    7.4483   53.6248    3.2226 H   0  0  0  0  0  0  0  0  0  0  0  0
    5.2644   53.4603    3.4249 H   0  0  0  0  0  0  0  0  0  0  0  0
    5.1752   53.0605    1.6550 H   0  0  0  0  0  0  0  0  0  0  0  0
    6.3371   53.0650   -0.5656 H   0  0  0  0  0  0  0  0  0  0  0  0
    5.6728   53.9929    0.8638 H   0  0  0  0  0  0  0  0  0  0  0  0
    7.7359   54.9726   -1.1470 H   0  0  0  0  0  0  0  0  0  0  0  0
    6.0249   55.5108   -0.9863 H   0  0  0  0  0  0  0  0  0  0  0  0
  1  2  1  0
  2  3  1  0
  2  4  1  0
  4  5  2  0
  5  6  1  0
  6  7  2  0
  7  8  1  0
  8  9  2  0
  9 10  1  0
 10 11  1  0
 11 12  2  0
 12 13  1  0
 13 14  2  0
 14 15  1  0
 15 16  1  0
 16 17  1  0
 17 18  1  0
 18 19  1  0
 19 20  1  0
 20 21  1  0
 21 22  1  0
 22 23  3  0
 19 24  1  0
 24 25  1  0
 15  4  1  0
 25 16  1  0
 14  6  1  0
 13  9  1  0
  1 26  1  0
  1 27  1  0
  1 28  1  0
  2 29  1  6
  3 30  1  0
  7 31  1  0
 10 32  1  0
 11 33  1  0
 12 34  1  0
 16 35  1  6
 17 36  1  0
 17 37  1  0
 18 38  1  0
 18 39  1  0
 19 40  1  1
 20 41  1  0
 20 42  1  0
 21 43  1  0
 21 44  1  0
 24 45  1  0
 24 46  1  0
 25 47  1  0
 25 48  1  0
M  END
>  <meeko>  (1) 
{"is_sidechain": [false], "free_energy": -8.772, "intermolecular_energy": -11.08, "internal_energy": -0.768}

$$$$
4ivd_ligand
     RDKit          3D

 48 51  0  0  0  0  0  0  0  0999 V2000
   10.7170   58.1370   -2.5760 C   0  0  0  0  0  0  0  0  0  0  0  0
    9.9080   57.2240   -1.6660 C   0  0  1  0  0  0  0  0  0  0  0  0
   10.7490   56.7600   -0.6120 O   0  0  0  0  0  0  0  0  0  0  0  0
    8.7780   57.9630   -1.0150 C   0  0  0  0  0  0  0  0  0  0  0  0
    8.6500   59.2820   -1.0940 N   0  0  0  0  0  0  0  0  0  0  0  0
    7.4570   59.5740   -0.4920 C   0  0  0  0  0  0  0  0  0  0  0  0
    6.7750   60.7920   -0.3110 C   0  0  0  0  0  0  0  0  0  0  0  0
    5.5480   60.8720    0.2880 N   0  0  0  0  0  0  0  0  0  0  0  0
    5.0300   59.6920    0.6710 C   0  0  0  0  0  0  0  0  0  0  0  0
    3.8120   59.4760    1.2510 N   0  0  0  0  0  0  0  0  0  0  0  0
    3.6290   58.1230    1.4460 C   0  0  0  0  0  0  0  0  0  0  0  0
    4.7560   57.4530    0.9950 C   0  0  0  0  0  0  0  0  0  0  0  0
    5.6360   58.4630    0.5350 C   0  0  0  0  0  0  0  0  0  0  0  0
    6.8770   58.4090   -0.0270 C   0  0  0  0  0  0  0  0  0  0  0  0
    7.7540   57.4030   -0.2520 N   0  0  0  0  0  0  0  0  0  0  0  0
    7.6970   56.0360    0.2550 C   0  0  2  0  0  0  0  0  0  0  0  0
    6.6780   55.1180   -0.4560 C   0  0  0  0  0  0  0  0  0  0  0  0
    5.8570   54.2670    0.5120 C   0  0  0  0  0  0  0  0  0  0  0  0
    6.6970   53.5770    1.6030 C   0  0  1  0  0  0  0  0  0  0  0  0
    7.3730   52.3000    1.0500 C   0  0  0  0  0  0  0  0  0  0  0  0
    8.5050   51.7420    1.9220 C   0  0  0  0  0  0  0  0  0  0  0  0
    8.0180   50.7660    2.9060 C   0  0  0  0  0  0  0  0  0  0  0  0
    7.6310   50.0010    3.6870 N   0  0  0  0  0  0  0  0  0  0  0  0
    7.7150   54.5320    2.2620 C   0  0  0  0  0  0  0  0  0  0  0  0
    7.6030   55.9780    1.7830 C   0  0  0  0  0  0  0  0  0  0  0  0
   11.3232   58.8211   -1.9640 H   0  0  0  0  0  0  0  0  0  0  0  0
   11.3785   57.5293   -3.2109 H   0  0  0  0  0  0  0  0  0  0  0  0
   10.0341   58.7205   -3.2109 H   0  0  0  0  0  0  0  0  0  0  0  0
    9.5145   56.4021   -2.2822 H   0  0  0  0  0  0  0  0  0  0  0  0
   11.6500   57.0610   -0.8490 H   0  0  0  0  0  0  0  0  0  0  0  0
    7.2490   61.7188   -0.6664 H   0  0  0  0  0  0  0  0  0  0  0  0
    3.1540   60.2100    1.4680 H   0  0  0  0  0  0  0  0  0  0  0  0
    2.7370   57.6534    1.8862 H   0  0  0  0  0  0  0  0  0  0  0  0
    4.9299   56.3668    0.9945 H   0  0  0  0  0  0  0  0  0  0  0  0
    8.6703   55.6009   -0.0158 H   0  0  0  0  0  0  0  0  0  0  0  0
    5.9892   55.7463   -1.0398 H   0  0  0  0  0  0  0  0  0  0  0  0
    7.2493   54.4280   -1.0943 H   0  0  0  0  0  0  0  0  0  0  0  0
    5.1178   54.9169    1.0032 H   0  0  0  0  0  0  0  0  0  0  0  0
    5.3886   53.4690   -0.0828 H   0  0  0  0  0  0  0  0  0  0  0  0
    6.0063   53.2745    2.4039 H   0  0  0  0  0  0  0  0  0  0  0  0
    6.6027   51.5212    0.9497 H   0  0  0  0  0  0  0  0  0  0  0  0
    7.8317   52.5830    0.0911 H   0  0  0  0  0  0  0  0  0  0  0  0
    9.2439   51.2509    1.2717 H   0  0  0  0  0  0  0  0  0  0  0  0
    8.9524   52.5824    2.4729 H   0  0  0  0  0  0  0  0  0  0  0  0
    7.5539   54.5136    3.3500 H   0  0  0  0  0  0  0  0  0  0  0  0
    8.7170   54.1773    1.9788 H   0  0  0  0  0  0  0  0  0  0  0  0
    6.6364   56.3936    2.1039 H   0  0  0  0  0  0  0  0  0  0  0  0
    8.4259   56.5653    2.2166 H   0  0  0  0  0  0  0  0  0  0  0  0
  1  2  1  0
  2  3  1  0
  2  4  1  0
  4  5  2  0
  5  6  1  0
  6  7  2  0
  7  8  1  0
  8  9  2  0
  9 10  1  0
 10 11  1  0
 11 12  2  0
 12 13  1  0
 13 14  2  0
 14 15  1  0
 15 16  1  0
 16 17  1  0
 17 18  1  0
 18 19  1  0
 19 20  1  0
 20 21  1  0
 21 22  1  0
 22 23  3  0
 19 24  1  0
 24 25  1  0
 15  4  1  0
 25 16  1  0
 14  6  1  0
 13  9  1  0
  1 26  1  0
  1 27  1  0
  1 28  1  0
  2 29  1  6
  3 30  1  0
  7 31  1  0
 10 32  1  0
 11 33  1  0
 12 34  1  0
 16 35  1  6
 17 36  1  0
 17 37  1  0
 18 38  1  0
 18 39  1  0
 19 40  1  6
 20 41  1  0
 20 42  1  0
 21 43  1  0
 21 44  1  0
 24 45  1  0
 24 46  1  0
 25 47  1  0
 25 48  1  0
M  END
>  <meeko>  (2) 
{"is_sidechain": [false], "free_energy": -8.605, "intermolecular_energy": -11.262, "internal_energy": -0.375}

$$$$
4ivd_ligand
     RDKit          3D

 48 51  0  0  0  0  0  0  0  0999 V2000
    3.5770   51.0860    0.2580 C   0  0  0  0  0  0  0  0  0  0  0  0
    3.9900   51.8110    1.5310 C   0  0  1  0  0  0  0  0  0  0  0  0
    3.4650   51.1060    2.6540 O   0  0  0  0  0  0  0  0  0  0  0  0
    5.4800   51.8240    1.6940 C   0  0  0  0  0  0  0  0  0  0  0  0
    6.1720   50.7350    2.0050 N   0  0  0  0  0  0  0  0  0  0  0  0
    7.4880   51.1040    1.9470 C   0  0  0  0  0  0  0  0  0  0  0  0
    8.6730   50.3700    2.1370 C   0  0  0  0  0  0  0  0  0  0  0  0
    9.9170   50.9210    1.9890 N   0  0  0  0  0  0  0  0  0  0  0  0
    9.9210   52.2140    1.6230 C   0  0  0  0  0  0  0  0  0  0  0  0
   11.0120   52.9950    1.3670 N   0  0  0  0  0  0  0  0  0  0  0  0
   10.5970   54.2500    0.9710 C   0  0  0  0  0  0  0  0  0  0  0  0
    9.2120   54.2840    0.9870 C   0  0  0  0  0  0  0  0  0  0  0  0
    8.8070   53.0000    1.4250 C   0  0  0  0  0  0  0  0  0  0  0  0
    7.5770   52.4440    1.6180 C   0  0  0  0  0  0  0  0  0  0  0  0
    6.3160   52.9320    1.5670 N   0  0  0  0  0  0  0  0  0  0  0  0
    5.9000   54.3280    1.4780 C   0  0  2  0  0  0  0  0  0  0  0  0
    6.0070   54.9530    0.0690 C   0  0  0  0  0  0  0  0  0  0  0  0
    6.6170   56.3540    0.0770 C   0  0  0  0  0  0  0  0  0  0  0  0
    6.0300   57.2850    1.1530 C   0  0  1  0  0  0  0  0  0  0  0  0
    4.6770   57.8760    0.6900 C   0  0  0  0  0  0  0  0  0  0  0  0
    4.5050   59.3760    0.9570 C   0  0  0  0  0  0  0  0  0  0  0  0
    5.5510   60.1780    0.3080 C   0  0  0  0  0  0  0  0  0  0  0  0
    6.3810   60.8100   -0.1990 N   0  0  0  0  0  0  0  0  0  0  0  0
    5.9220   56.6040    2.5340 C   0  0  0  0  0  0  0  0  0  0  0  0
    6.5210   55.1990    2.5770 C   0  0  0  0  0  0  0  0  0  0  0  0
    3.0482   50.1577    0.5199 H   0  0  0  0  0  0  0  0  0  0  0  0
    2.9118   51.7327   -0.3329 H   0  0  0  0  0  0  0  0  0  0  0  0
    4.4726   50.8436   -0.3329 H   0  0  0  0  0  0  0  0  0  0  0  0
    3.6102   52.8414    1.4669 H   0  0  0  0  0  0  0  0  0  0  0  0
    2.5060   51.3040    2.6570 H   0  0  0  0  0  0  0  0  0  0  0  0
    8.5965   49.3088    2.4162 H   0  0  0  0  0  0  0  0  0  0  0  0
   11.9660   52.6700    1.4360 H   0  0  0  0  0  0  0  0  0  0  0  0
   11.2560   55.0845    0.6895 H   0  0  0  0  0  0  0  0  0  0  0  0
    8.5636   55.1304    0.7164 H   0  0  0  0  0  0  0  0  0  0  0  0
    4.8171   54.3054    1.6696 H   0  0  0  0  0  0  0  0  0  0  0  0
    6.6357   54.3015   -0.5557 H   0  0  0  0  0  0  0  0  0  0  0  0
    4.9848   55.0437   -0.3270 H   0  0  0  0  0  0  0  0  0  0  0  0
    7.6986   56.2596    0.2537 H   0  0  0  0  0  0  0  0  0  0  0  0
    6.3857   56.8079   -0.8979 H   0  0  0  0  0  0  0  0  0  0  0  0
    6.7363   58.1182    1.2830 H   0  0  0  0  0  0  0  0  0  0  0  0
    4.5831   57.7083   -0.3931 H   0  0  0  0  0  0  0  0  0  0  0  0
    3.8993   57.3660    1.2774 H   0  0  0  0  0  0  0  0  0  0  0  0
    3.5247   59.6943    0.5726 H   0  0  0  0  0  0  0  0  0  0  0  0
    4.5804   59.5369    2.0426 H   0  0  0  0  0  0  0  0  0  0  0  0
    6.4487   57.2283    3.2707 H   0  0  0  0  0  0  0  0  0  0  0  0
    4.8499   56.5023    2.7582 H   0  0  0  0  0  0  0  0  0  0  0  0
    7.6080   55.2619    2.4208 H   0  0  0  0  0  0  0  0  0  0  0  0
    6.3096   54.7471    3.5573 H   0  0  0  0  0  0  0  0  0  0  0  0
  1  2  1  0
  2  3  1  0
  2  4  1  0
  4  5  2  0
  5  6  1  0
  6  7  2  0
  7  8  1  0
  8  9  2  0
  9 10  1  0
 10 11  1  0
 11 12  2  0
 12 13  1  0
 13 14  2  0
 14 15  1  0
 15 16  1  0
 16 17  1  0
 17 18  1  0
 18 19  1  0
 19 20  1  0
 20 21  1  0
 21 22  1  0
 22 23  3  0
 19 24  1  0
 24 25  1  0
 15  4  1  0
 25 16  1  0
 14  6  1  0
 13  9  1  0
  1 26  1  0
  1 27  1  0
  1 28  1  0
  2 29  1  6
  3 30  1  0
  7 31  1  0
 10 32  1  0
 11 33  1  0
 12 34  1  0
 16 35  1  6
 17 36  1  0
 17 37  1  0
 18 38  1  0
 18 39  1  0
 19 40  1  6
 20 41  1  0
 20 42  1  0
 21 43  1  0
 21 44  1  0
 24 45  1  0
 24 46  1  0
 25 47  1  0
 25 48  1  0
M  END
>  <meeko>  (3) 
{"is_sidechain": [false], "free_energy": -8.271, "intermolecular_energy": -10.707, "internal_energy": -0.509}

$$$$
4ivd_ligand
     RDKit          3D

 48 51  0  0  0  0  0  0  0  0999 V2000
    3.3850   59.6550    1.7630 C   0  0  0  0  0  0  0  0  0  0  0  0
    4.0870   58.3050    1.7160 C   0  0  1  0  0  0  0  0  0  0  0  0
    3.2140   57.3520    1.1140 O   0  0  0  0  0  0  0  0  0  0  0  0
    5.3160   58.3570    0.8610 C   0  0  0  0  0  0  0  0  0  0  0  0
    5.6660   59.4410    0.1800 N   0  0  0  0  0  0  0  0  0  0  0  0
    6.8830   59.1540   -0.3740 C   0  0  0  0  0  0  0  0  0  0  0  0
    7.7580   59.9270   -1.1590 C   0  0  0  0  0  0  0  0  0  0  0  0
    8.9730   59.4660   -1.5870 N   0  0  0  0  0  0  0  0  0  0  0  0
    9.2790   58.2230   -1.1770 C   0  0  0  0  0  0  0  0  0  0  0  0
   10.4360   57.5380   -1.4200 N   0  0  0  0  0  0  0  0  0  0  0  0
   10.3860   56.3130   -0.7870 C   0  0  0  0  0  0  0  0  0  0  0  0
    9.1680   56.2000   -0.1340 C   0  0  0  0  0  0  0  0  0  0  0  0
    8.4770   57.4040   -0.4150 C   0  0  0  0  0  0  0  0  0  0  0  0
    7.2520   57.8670   -0.0340 C   0  0  0  0  0  0  0  0  0  0  0  0
    6.2210   57.3170    0.6500 N   0  0  0  0  0  0  0  0  0  0  0  0
    6.0400   55.9190    1.0250 C   0  0  2  0  0  0  0  0  0  0  0  0
    6.7740   55.4900    2.3160 C   0  0  0  0  0  0  0  0  0  0  0  0
    7.4880   54.1450    2.1830 C   0  0  0  0  0  0  0  0  0  0  0  0
    6.6310   53.0450    1.5300 C   0  0  1  0  0  0  0  0  0  0  0  0
    5.6540   52.4260    2.5580 C   0  0  0  0  0  0  0  0  0  0  0  0
    5.4140   50.9210    2.3930 C   0  0  0  0  0  0  0  0  0  0  0  0
    4.0050   50.5580    2.5970 C   0  0  0  0  0  0  0  0  0  0  0  0
    2.8930   50.2720    2.7650 N   0  0  0  0  0  0  0  0  0  0  0  0
    5.9020   53.5340    0.2610 C   0  0  0  0  0  0  0  0  0  0  0  0
    6.2660   54.9600   -0.1490 C   0  0  0  0  0  0  0  0  0  0  0  0
    3.2307   59.9517    2.8109 H   0  0  0  0  0  0  0  0  0  0  0  0
    4.0054   60.4087    1.2560 H   0  0  0  0  0  0  0  0  0  0  0  0
    2.4117   59.5800    1.2560 H   0  0  0  0  0  0  0  0  0  0  0  0
    4.3582   58.0338    2.7470 H   0  0  0  0  0  0  0  0  0  0  0  0
    3.2110   57.5720    0.1590 H   0  0  0  0  0  0  0  0  0  0  0  0
    7.4523   60.9454   -1.4407 H   0  0  0  0  0  0  0  0  0  0  0  0
   11.2050   57.9050   -1.9610 H   0  0  0  0  0  0  0  0  0  0  0  0
   11.1805   55.5523   -0.7985 H   0  0  0  0  0  0  0  0  0  0  0  0
    8.8135   55.3543    0.4736 H   0  0  0  0  0  0  0  0  0  0  0  0
    4.9760   55.8404    1.2929 H   0  0  0  0  0  0  0  0  0  0  0  0
    7.5199   56.2588    2.5662 H   0  0  0  0  0  0  0  0  0  0  0  0
    6.0140   55.3806    3.1036 H   0  0  0  0  0  0  0  0  0  0  0  0
    8.3898   54.2908    1.5702 H   0  0  0  0  0  0  0  0  0  0  0  0
    7.7205   53.8050    3.2030 H   0  0  0  0  0  0  0  0  0  0  0  0
    7.3176   52.2530    1.1963 H   0  0  0  0  0  0  0  0  0  0  0  0
    6.0621   52.5989    3.5647 H   0  0  0  0  0  0  0  0  0  0  0  0
    4.6820   52.9139    2.3934 H   0  0  0  0  0  0  0  0  0  0  0  0
    5.7128   50.6239    1.3769 H   0  0  0  0  0  0  0  0  0  0  0  0
    6.0111   50.3983    3.1548 H   0  0  0  0  0  0  0  0  0  0  0  0
    6.1588   52.8586   -0.5684 H   0  0  0  0  0  0  0  0  0  0  0  0
    4.8259   53.5312    0.4889 H   0  0  0  0  0  0  0  0  0  0  0  0
    7.3240   54.9938   -0.4480 H   0  0  0  0  0  0  0  0  0  0  0  0
    5.6291   55.2661   -0.9920 H   0  0  0  0  0  0  0  0  0  0  0  0
  1  2  1  0
  2  3  1  0
  2  4  1  0
  4  5  2  0
  5  6  1  0
  6  7  2  0
  7  8  1  0
  8  9  2  0
  9 10  1  0
 10 11  1  0
 11 12  2  0
 12 13  1  0
 13 14  2  0
 14 15  1  0
 15 16  1  0
 16 17  1  0
 17 18  1  0
 18 19  1  0
 19 20  1  0
 20 21  1  0
 21 22  1  0
 22 23  3  0
 19 24  1  0
 24 25  1  0
 15  4  1  0
 25 16  1  0
 14  6  1  0
 13  9  1  0
  1 26  1  0
  1 27  1  0
  1 28  1  0
  2 29  1  1
  3 30  1  0
  7 31  1  0
 10 32  1  0
 11 33  1  0
 12 34  1  0
 16 35  1  6
 17 36  1  0
 17 37  1  0
 18 38  1  0
 18 39  1  0
 19 40  1  1
 20 41  1  0
 20 42  1  0
 21 43  1  0
 21 44  1  0
 24 45  1  0
 24 46  1  0
 25 47  1  0
 25 48  1  0
M  END
>  <meeko>  (4) 
{"is_sidechain": [false], "free_energy": -8.212, "intermolecular_energy": -10.911, "internal_energy": -0.23}

$$$$
4ivd_ligand
     RDKit          3D

 48 51  0  0  0  0  0  0  0  0999 V2000
   11.4850   54.0790   -1.2970 C   0  0  0  0  0  0  0  0  0  0  0  0
   10.6370   54.2800   -0.0490 C   0  0  1  0  0  0  0  0  0  0  0  0
   11.4980   54.3770    1.0830 O   0  0  0  0  0  0  0  0  0  0  0  0
    9.8680   55.5640   -0.1120 C   0  0  0  0  0  0  0  0  0  0  0  0
   10.3860   56.6820   -0.6060 N   0  0  0  0  0  0  0  0  0  0  0  0
    9.3660   57.5930   -0.6080 C   0  0  0  0  0  0  0  0  0  0  0  0
    9.3060   58.9270   -1.0530 C   0  0  0  0  0  0  0  0  0  0  0  0
    8.1590   59.6710   -1.0090 N   0  0  0  0  0  0  0  0  0  0  0  0
    7.0840   59.0220   -0.5300 C   0  0  0  0  0  0  0  0  0  0  0  0
    5.8120   59.5070   -0.4150 N   0  0  0  0  0  0  0  0  0  0  0  0
    4.9850   58.5170    0.0740 C   0  0  0  0  0  0  0  0  0  0  0  0
    5.7400   57.3750    0.2930 C   0  0  0  0  0  0  0  0  0  0  0  0
    7.0640   57.7240   -0.0700 C   0  0  0  0  0  0  0  0  0  0  0  0
    8.2270   57.0120   -0.0840 C   0  0  0  0  0  0  0  0  0  0  0  0
    8.5630   55.7690    0.3350 N   0  0  0  0  0  0  0  0  0  0  0  0
    7.7710   54.8550    1.1510 C   0  0  2  0  0  0  0  0  0  0  0  0
    6.7370   54.0130    0.3700 C   0  0  0  0  0  0  0  0  0  0  0  0
    5.3740   53.9470    1.0570 C   0  0  0  0  0  0  0  0  0  0  0  0
    5.4470   53.6440    2.5650 C   0  0  1  0  0  0  0  0  0  0  0  0
    5.6470   52.1300    2.8120 C   0  0  0  0  0  0  0  0  0  0  0  0
    4.9060   51.2140    1.8300 C   0  0  0  0  0  0  0  0  0  0  0  0
    3.7100   50.6090    2.4310 C   0  0  0  0  0  0  0  0  0  0  0  0
    2.7690   50.1270    2.9090 N   0  0  0  0  0  0  0  0  0  0  0  0
    6.5120   54.4940    3.2900 C   0  0  0  0  0  0  0  0  0  0  0  0
    7.1860   55.5330    2.3950 C   0  0  0  0  0  0  0  0  0  0  0  0
   12.5166   53.8345   -1.0038 H   0  0  0  0  0  0  0  0  0  0  0  0
   11.0684   53.2547   -1.8945 H   0  0  0  0  0  0  0  0  0  0  0  0
   11.4827   55.0026   -1.8945 H   0  0  0  0  0  0  0  0  0  0  0  0
    9.9427   53.4299    0.0237 H   0  0  0  0  0  0  0  0  0  0  0  0
   12.2130   53.7290    0.9200 H   0  0  0  0  0  0  0  0  0  0  0  0
   10.2198   59.3907   -1.4529 H   0  0  0  0  0  0  0  0  0  0  0  0
    5.5400   60.4420   -0.6810 H   0  0  0  0  0  0  0  0  0  0  0  0
    3.9054   58.6171    0.2594 H   0  0  0  0  0  0  0  0  0  0  0  0
    5.3859   56.4038    0.6690 H   0  0  0  0  0  0  0  0  0  0  0  0
    8.4944   54.1088    1.5115 H   0  0  0  0  0  0  0  0  0  0  0  0
    6.6049   54.4581   -0.6272 H   0  0  0  0  0  0  0  0  0  0  0  0
    7.1260   52.9855    0.3150 H   0  0  0  0  0  0  0  0  0  0  0  0
    4.8717   54.9164    0.9228 H   0  0  0  0  0  0  0  0  0  0  0  0
    4.8229   53.1165    0.5917 H   0  0  0  0  0  0  0  0  0  0  0  0
    4.4805   53.9335    3.0032 H   0  0  0  0  0  0  0  0  0  0  0  0
    6.7225   51.9107    2.7393 H   0  0  0  0  0  0  0  0  0  0  0  0
    5.2273   51.9208    3.8070 H   0  0  0  0  0  0  0  0  0  0  0  0
    4.6017   51.8058    0.9541 H   0  0  0  0  0  0  0  0  0  0  0  0
    5.5895   50.4005    1.5453 H   0  0  0  0  0  0  0  0  0  0  0  0
    6.0265   55.0190    4.1259 H   0  0  0  0  0  0  0  0  0  0  0  0
    7.2986   53.8028    3.6268 H   0  0  0  0  0  0  0  0  0  0  0  0
    6.4436   56.2833    2.0855 H   0  0  0  0  0  0  0  0  0  0  0  0
    7.9977   56.0196    2.9557 H   0  0  0  0  0  0  0  0  0  0  0  0
  1  2  1  0
  2  3  1  0
  2  4  1  0
  4  5  2  0
  5  6  1  0
  6  7  2  0
  7  8  1  0
  8  9  2  0
  9 10  1  0
 10 11  1  0
 11 12  2  0
 12 13  1  0
 13 14  2  0
 14 15  1  0
 15 16  1  0
 16 17  1  0
 17 18  1  0
 18 19  1  0
 19 20  1  0
 20 21  1  0
 21 22  1  0
 22 23  3  0
 19 24  1  0
 24 25  1  0
 15  4  1  0
 25 16  1  0
 14  6  1  0
 13  9  1  0
  1 26  1  0
  1 27  1  0
  1 28  1  0
  2 29  1  1
  3 30  1  0
  7 31  1  0
 10 32  1  0
 11 33  1  0
 12 34  1  0
 16 35  1  6
 17 36  1  0
 17 37  1  0
 18 38  1  0
 18 39  1  0
 19 40  1  6
 20 41  1  0
 20 42  1  0
 21 43  1  0
 21 44  1  0
 24 45  1  0
 24 46  1  0
 25 47  1  0
 25 48  1  0
M  END
>  <meeko>  (5) 
{"is_sidechain": [false], "free_energy": -7.888, "intermolecular_energy": -10.292, "internal_energy": -0.439}

$$$$
4ivd_ligand
     RDKit          3D

 48 51  0  0  0  0  0  0  0  0999 V2000
    6.6340   55.7170    3.9290 C   0  0  0  0  0  0  0  0  0  0  0  0
    5.9300   55.4620    2.6040 C   0  0  1  0  0  0  0  0  0  0  0  0
    4.5200   55.5170    2.8130 O   0  0  0  0  0  0  0  0  0  0  0  0
    6.2530   56.5250    1.6000 C   0  0  0  0  0  0  0  0  0  0  0  0
    5.4800   57.5880    1.4120 N   0  0  0  0  0  0  0  0  0  0  0  0
    6.1490   58.3790    0.5200 C   0  0  0  0  0  0  0  0  0  0  0  0
    5.8440   59.6420   -0.0210 C   0  0  0  0  0  0  0  0  0  0  0  0
    6.6790   60.3020   -0.8810 N   0  0  0  0  0  0  0  0  0  0  0  0
    7.8290   59.6600   -1.1520 C   0  0  0  0  0  0  0  0  0  0  0  0
    8.8540   60.1040   -1.9390 N   0  0  0  0  0  0  0  0  0  0  0  0
    9.8770   59.1790   -1.9250 C   0  0  0  0  0  0  0  0  0  0  0  0
    9.5000   58.1110   -1.1250 C   0  0  0  0  0  0  0  0  0  0  0  0
    8.1960   58.4240   -0.6690 C   0  0  0  0  0  0  0  0  0  0  0  0
    7.3320   57.7650    0.1540 C   0  0  0  0  0  0  0  0  0  0  0  0
    7.3520   56.5460    0.7420 N   0  0  0  0  0  0  0  0  0  0  0  0
    8.2750   55.4440    0.4870 C   0  0  2  0  0  0  0  0  0  0  0  0
    7.6090   54.0610    0.3160 C   0  0  0  0  0  0  0  0  0  0  0  0
    8.3330   52.9470    1.0710 C   0  0  0  0  0  0  0  0  0  0  0  0
    9.8610   52.9560    0.8830 C   0  0  1  0  0  0  0  0  0  0  0  0
   10.2530   52.3010   -0.4630 C   0  0  0  0  0  0  0  0  0  0  0  0
   11.5030   52.8910   -1.1260 C   0  0  0  0  0  0  0  0  0  0  0  0
   12.6270   51.9440   -1.1350 C   0  0  0  0  0  0  0  0  0  0  0  0
   13.5150   51.1980   -1.1360 N   0  0  0  0  0  0  0  0  0  0  0  0
   10.4710   54.3650    1.0390 C   0  0  0  0  0  0  0  0  0  0  0  0
    9.4600   55.4320    1.4590 C   0  0  0  0  0  0  0  0  0  0  0  0
    5.9547   55.4709    4.7584 H   0  0  0  0  0  0  0  0  0  0  0  0
    7.5339   55.0877    3.9931 H   0  0  0  0  0  0  0  0  0  0  0  0
    6.9222   56.7766    3.9931 H   0  0  0  0  0  0  0  0  0  0  0  0
    6.2621   54.4812    2.2328 H   0  0  0  0  0  0  0  0  0  0  0  0
    4.2670   54.6150    3.1000 H   0  0  0  0  0  0  0  0  0  0  0  0
    4.8934   60.1191    0.2596 H   0  0  0  0  0  0  0  0  0  0  0  0
    8.8490   60.9900   -2.4230 H   0  0  0  0  0  0  0  0  0  0  0  0
   10.8336   59.2730   -2.4599 H   0  0  0  0  0  0  0  0  0  0  0  0
   10.0889   57.2112   -0.8935 H   0  0  0  0  0  0  0  0  0  0  0  0
    8.6894   55.6559   -0.5097 H   0  0  0  0  0  0  0  0  0  0  0  0
    6.5759   54.1219    0.6888 H   0  0  0  0  0  0  0  0  0  0  0  0
    7.6478   53.8095   -0.7542 H   0  0  0  0  0  0  0  0  0  0  0  0
    8.1155   53.0576    2.1436 H   0  0  0  0  0  0  0  0  0  0  0  0
    7.9668   51.9940    0.6616 H   0  0  0  0  0  0  0  0  0  0  0  0
   10.2920   52.3497    1.6933 H   0  0  0  0  0  0  0  0  0  0  0  0
   10.4341   51.2311   -0.2828 H   0  0  0  0  0  0  0  0  0  0  0  0
    9.4181   52.4900   -1.1537 H   0  0  0  0  0  0  0  0  0  0  0  0
   11.2592   53.1611   -2.1641 H   0  0  0  0  0  0  0  0  0  0  0  0
   11.8093   53.7727   -0.5439 H   0  0  0  0  0  0  0  0  0  0  0  0
   11.2624   54.3178    1.8015 H   0  0  0  0  0  0  0  0  0  0  0  0
   10.8552   54.6589    0.0511 H   0  0  0  0  0  0  0  0  0  0  0  0
    9.0967   55.2102    2.4733 H   0  0  0  0  0  0  0  0  0  0  0  0
    9.9485   56.4175    1.4444 H   0  0  0  0  0  0  0  0  0  0  0  0
  1  2  1  0
  2  3  1  0
  2  4  1  0
  4  5  2  0
  5  6  1  0
  6  7  2  0
  7  8  1  0
  8  9  2  0
  9 10  1  0
 10 11  1  0
 11 12  2  0
 12 13  1  0
 13 14  2  0
 14 15  1  0
 15 16  1  0
 16 17  1  0
 17 18  1  0
 18 19  1  0
 19 20  1  0
 20 21  1  0
 21 22  1  0
 22 23  3  0
 19 24  1  0
 24 25  1  0
 15  4  1  0
 25 16  1  0
 14  6  1  0
 13  9  1  0
  1 26  1  0
  1 27  1  0
  1 28  1  0
  2 29  1  6
  3 30  1  0
  7 31  1  0
 10 32  1  0
 11 33  1  0
 12 34  1  0
 16 35  1  1
 17 36  1  0
 17 37  1  0
 18 38  1  0
 18 39  1  0
 19 40  1  6
 20 41  1  0
 20 42  1  0
 21 43  1  0
 21 44  1  0
 24 45  1  0
 24 46  1  0
 25 47  1  0
 25 48  1  0
M  END
>  <meeko>  (6) 
{"is_sidechain": [false], "free_energy": -7.83, "intermolecular_energy": -9.789, "internal_energy": -0.869}

$$$$
4ivd_ligand
     RDKit          3D

 48 51  0  0  0  0  0  0  0  0999 V2000
    4.5580   51.0490    1.8050 C   0  0  0  0  0  0  0  0  0  0  0  0
    5.4630   51.7860    2.7830 C   0  0  1  0  0  0  0  0  0  0  0  0
    5.3030   51.2130    4.0790 O   0  0  0  0  0  0  0  0  0  0  0  0
    6.9080   51.6220    2.4210 C   0  0  0  0  0  0  0  0  0  0  0  0
    7.6300   50.5830    2.8210 N   0  0  0  0  0  0  0  0  0  0  0  0
    8.8440   50.7170    2.2050 C   0  0  0  0  0  0  0  0  0  0  0  0
    9.9910   49.9030    2.2150 C   0  0  0  0  0  0  0  0  0  0  0  0
   11.1110   50.1910    1.4840 N   0  0  0  0  0  0  0  0  0  0  0  0
   11.0220   51.3030    0.7330 C   0  0  0  0  0  0  0  0  0  0  0  0
   11.9680   51.7990   -0.1200 N   0  0  0  0  0  0  0  0  0  0  0  0
   11.4770   52.9280   -0.7430 C   0  0  0  0  0  0  0  0  0  0  0  0
   10.1970   53.1730   -0.2740 C   0  0  0  0  0  0  0  0  0  0  0  0
    9.9400   52.1520    0.6730 C   0  0  0  0  0  0  0  0  0  0  0  0
    8.8500   51.8690    1.4420 C   0  0  0  0  0  0  0  0  0  0  0  0
    7.6740   52.5050    1.6600 N   0  0  0  0  0  0  0  0  0  0  0  0
    7.3000   53.8570    1.2610 C   0  0  2  0  0  0  0  0  0  0  0  0
    6.8740   54.7860    2.4200 C   0  0  0  0  0  0  0  0  0  0  0  0
    5.6230   55.6050    2.1050 C   0  0  0  0  0  0  0  0  0  0  0  0
    5.6460   56.2720    0.7180 C   0  0  1  0  0  0  0  0  0  0  0  0
    6.4900   57.5690    0.7450 C   0  0  0  0  0  0  0  0  0  0  0  0
    7.5920   57.6430   -0.3200 C   0  0  0  0  0  0  0  0  0  0  0  0
    8.9210   57.3600    0.2380 C   0  0  0  0  0  0  0  0  0  0  0  0
    9.9710   57.1420    0.6800 N   0  0  0  0  0  0  0  0  0  0  0  0
    6.1030   55.3080   -0.3980 C   0  0  0  0  0  0  0  0  0  0  0  0
    6.3240   53.8740    0.0790 C   0  0  0  0  0  0  0  0  0  0  0  0
    3.8236   50.4509    2.3644 H   0  0  0  0  0  0  0  0  0  0  0  0
    4.0312   51.7783    1.1720 H   0  0  0  0  0  0  0  0  0  0  0  0
    5.1655   50.3854    1.1720 H   0  0  0  0  0  0  0  0  0  0  0  0
    5.1874   52.8506    2.7563 H   0  0  0  0  0  0  0  0  0  0  0  0
    4.4650   51.5840    4.4230 H   0  0  0  0  0  0  0  0  0  0  0  0
    9.9874   48.9959    2.8373 H   0  0  0  0  0  0  0  0  0  0  0  0
   12.8690   51.3700   -0.2720 H   0  0  0  0  0  0  0  0  0  0  0  0
   12.0133   53.5333   -1.4887 H   0  0  0  0  0  0  0  0  0  0  0  0
    9.5225   53.9885   -0.5738 H   0  0  0  0  0  0  0  0  0  0  0  0
    8.2369   54.3066    0.9002 H   0  0  0  0  0  0  0  0  0  0  0  0
    6.6733   54.1682    3.3077 H   0  0  0  0  0  0  0  0  0  0  0  0
    7.6965   55.4966    2.5891 H   0  0  0  0  0  0  0  0  0  0  0  0
    4.7505   54.9368    2.1534 H   0  0  0  0  0  0  0  0  0  0  0  0
    5.5768   56.4151    2.8477 H   0  0  0  0  0  0  0  0  0  0  0  0
    4.6097   56.5475    0.4726 H   0  0  0  0  0  0  0  0  0  0  0  0
    5.8115   58.4217    0.5949 H   0  0  0  0  0  0  0  0  0  0  0  0
    7.0001   57.5858    1.7194 H   0  0  0  0  0  0  0  0  0  0  0  0
    7.3740   56.9065   -1.1075 H   0  0  0  0  0  0  0  0  0  0  0  0
    7.6051   58.6666   -0.7226 H   0  0  0  0  0  0  0  0  0  0  0  0
    5.3334   55.2974   -1.1839 H   0  0  0  0  0  0  0  0  0  0  0  0
    7.0726   55.6773   -0.7634 H   0  0  0  0  0  0  0  0  0  0  0  0
    5.3624   53.4433    0.3949 H   0  0  0  0  0  0  0  0  0  0  0  0
    6.7466   53.2812   -0.7456 H   0  0  0  0  0  0  0  0  0  0  0  0
  1  2  1  0
  2  3  1  0
  2  4  1  0
  4  5  2  0
  5  6  1  0
  6  7  2  0
  7  8  1  0
  8  9  2  0
  9 10  1  0
 10 11  1  0
 11 12  2  0
 12 13  1  0
 13 14  2  0
 14 15  1  0
 15 16  1  0
 16 17  1  0
 17 18  1  0
 18 19  1  0
 19 20  1  0
 20 21  1  0
 21 22  1  0
 22 23  3  0
 19 24  1  0
 24 25  1  0
 15  4  1  0
 25 16  1  0
 14  6  1  0
 13  9  1  0
  1 26  1  0
  1 27  1  0
  1 28  1  0
  2 29  1  1
  3 30  1  0
  7 31  1  0
 10 32  1  0
 11 33  1  0
 12 34  1  0
 16 35  1  1
 17 36  1  0
 17 37  1  0
 18 38  1  0
 18 39  1  0
 19 40  1  1
 20 41  1  0
 20 42  1  0
 21 43  1  0
 21 44  1  0
 24 45  1  0
 24 46  1  0
 25 47  1  0
 25 48  1  0
M  END
>  <meeko>  (7) 
{"is_sidechain": [false], "free_energy": -7.431, "intermolecular_energy": -9.054, "internal_energy": -1.1}

$$$$
4ivd_ligand
     RDKit          3D

 48 51  0  0  0  0  0  0  0  0999 V2000
    6.6180   60.7360    0.3020 C   0  0  0  0  0  0  0  0  0  0  0  0
    6.3730   59.2340    0.3080 C   0  0  1  0  0  0  0  0  0  0  0  0
    5.2110   58.9530   -0.4690 O   0  0  0  0  0  0  0  0  0  0  0  0
    7.5050   58.4930   -0.3360 C   0  0  0  0  0  0  0  0  0  0  0  0
    8.2910   59.0470   -1.2520 N   0  0  0  0  0  0  0  0  0  0  0  0
    9.2650   58.1240   -1.5120 C   0  0  0  0  0  0  0  0  0  0  0  0
   10.3890   58.1640   -2.3580 C   0  0  0  0  0  0  0  0  0  0  0  0
   11.2860   57.1350   -2.4470 N   0  0  0  0  0  0  0  0  0  0  0  0
   11.0240   56.0880   -1.6450 C   0  0  0  0  0  0  0  0  0  0  0  0
   11.7710   54.9530   -1.5020 N   0  0  0  0  0  0  0  0  0  0  0  0
   11.1960   54.1420   -0.5450 C   0  0  0  0  0  0  0  0  0  0  0  0
   10.0480   54.7590   -0.0730 C   0  0  0  0  0  0  0  0  0  0  0  0
    9.9460   55.9710   -0.7970 C   0  0  0  0  0  0  0  0  0  0  0  0
    9.0410   56.9900   -0.7530 C   0  0  0  0  0  0  0  0  0  0  0  0
    7.8720   57.1700   -0.0930 N   0  0  0  0  0  0  0  0  0  0  0  0
    7.1040   56.1790    0.6530 C   0  0  2  0  0  0  0  0  0  0  0  0
    5.6370   56.0120    0.1960 C   0  0  0  0  0  0  0  0  0  0  0  0
    4.6510   55.9360    1.3610 C   0  0  0  0  0  0  0  0  0  0  0  0
    5.0880   54.9860    2.4900 C   0  0  1  0  0  0  0  0  0  0  0  0
    4.7720   53.5160    2.1250 C   0  0  0  0  0  0  0  0  0  0  0  0
    5.3740   53.0380    0.7980 C   0  0  0  0  0  0  0  0  0  0  0  0
    6.5340   52.1580    1.0000 C   0  0  0  0  0  0  0  0  0  0  0  0
    7.4530   51.4690    1.1600 N   0  0  0  0  0  0  0  0  0  0  0  0
    6.5670   55.1780    2.8890 C   0  0  0  0  0  0  0  0  0  0  0  0
    7.2540   56.3380    2.1700 C   0  0  0  0  0  0  0  0  0  0  0  0
    6.6777   61.1019    1.3376 H   0  0  0  0  0  0  0  0  0  0  0  0
    7.5631   60.9513   -0.2180 H   0  0  0  0  0  0  0  0  0  0  0  0
    5.7903   61.2405   -0.2180 H   0  0  0  0  0  0  0  0  0  0  0  0
    6.2643   58.9178    1.3559 H   0  0  0  0  0  0  0  0  0  0  0  0
    4.8820   58.0920   -0.1390 H   0  0  0  0  0  0  0  0  0  0  0  0
   10.5532   59.0606   -2.9737 H   0  0  0  0  0  0  0  0  0  0  0  0
   12.6250   54.7730   -2.0100 H   0  0  0  0  0  0  0  0  0  0  0  0
   11.5841   53.1680   -0.2121 H   0  0  0  0  0  0  0  0  0  0  0  0
    9.3612   54.3856    0.7009 H   0  0  0  0  0  0  0  0  0  0  0  0
    7.5675   55.2161    0.3923 H   0  0  0  0  0  0  0  0  0  0  0  0
    5.3671   56.8713   -0.4355 H   0  0  0  0  0  0  0  0  0  0  0  0
    5.5706   55.0607   -0.3524 H   0  0  0  0  0  0  0  0  0  0  0  0
    4.5361   56.9452    1.7832 H   0  0  0  0  0  0  0  0  0  0  0  0
    3.7096   55.5367    0.9556 H   0  0  0  0  0  0  0  0  0  0  0  0
    4.4990   55.2472    3.3815 H   0  0  0  0  0  0  0  0  0  0  0  0
    5.1609   52.8730    2.9283 H   0  0  0  0  0  0  0  0  0  0  0  0
    3.6799   53.4541    2.0091 H   0  0  0  0  0  0  0  0  0  0  0  0
    4.6043   52.4867    0.2379 H   0  0  0  0  0  0  0  0  0  0  0  0
    5.7149   53.9244    0.2429 H   0  0  0  0  0  0  0  0  0  0  0  0
    6.6125   55.3654    3.9720 H   0  0  0  0  0  0  0  0  0  0  0  0
    7.0991   54.2604    2.5979 H   0  0  0  0  0  0  0  0  0  0  0  0
    6.7922   57.2857    2.4841 H   0  0  0  0  0  0  0  0  0  0  0  0
    8.3232   56.3396    2.4283 H   0  0  0  0  0  0  0  0  0  0  0  0
  1  2  1  0
  2  3  1  0
  2  4  1  0
  4  5  2  0
  5  6  1  0
  6  7  2  0
  7  8  1  0
  8  9  2  0
  9 10  1  0
 10 11  1  0
 11 12  2  0
 12 13  1  0
 13 14  2  0
 14 15  1  0
 15 16  1  0
 16 17  1  0
 17 18  1  0
 18 19  1  0
 19 20  1  0
 20 21  1  0
 21 22  1  0
 22 23  3  0
 19 24  1  0
 24 25  1  0
 15  4  1  0
 25 16  1  0
 14  6  1  0
 13  9  1  0
  1 26  1  0
  1 27  1  0
  1 28  1  0
  2 29  1  1
  3 30  1  0
  7 31  1  0
 10 32  1  0
 11 33  1  0
 12 34  1  0
 16 35  1  1
 17 36  1  0
 17 37  1  0
 18 38  1  0
 18 39  1  0
 19 40  1  6
 20 41  1  0
 20 42  1  0
 21 43  1  0
 21 44  1  0
 24 45  1  0
 24 46  1  0
 25 47  1  0
 25 48  1  0
M  END
>  <meeko>  (8) 
{"is_sidechain": [false], "free_energy": -6.702, "intermolecular_energy": -9.02, "internal_energy": -0.214}

$$$$
4ivd_ligand
     RDKit          3D

 48 51  0  0  0  0  0  0  0  0999 V2000
    7.8200   51.2220    2.8640 C   0  0  0  0  0  0  0  0  0  0  0  0
    7.5480   51.2430    1.3660 C   0  0  1  0  0  0  0  0  0  0  0  0
    6.2650   50.6710    1.1220 O   0  0  0  0  0  0  0  0  0  0  0  0
    7.4970   52.6450    0.8390 C   0  0  0  0  0  0  0  0  0  0  0  0
    6.3550   53.2880    0.6340 N   0  0  0  0  0  0  0  0  0  0  0  0
    6.7050   54.5600    0.2730 C   0  0  0  0  0  0  0  0  0  0  0  0
    5.9280   55.6940   -0.0260 C   0  0  0  0  0  0  0  0  0  0  0  0
    6.4770   56.9110   -0.3270 N   0  0  0  0  0  0  0  0  0  0  0  0
    7.8200   56.9460   -0.2910 C   0  0  0  0  0  0  0  0  0  0  0  0
    8.6220   58.0310   -0.5060 N   0  0  0  0  0  0  0  0  0  0  0  0
    9.9420   57.6700   -0.3290 C   0  0  0  0  0  0  0  0  0  0  0  0
    9.9940   56.3230   -0.0070 C   0  0  0  0  0  0  0  0  0  0  0  0
    8.6490   55.8810   -0.0140 C   0  0  0  0  0  0  0  0  0  0  0  0
    8.0820   54.6680    0.2430 C   0  0  0  0  0  0  0  0  0  0  0  0
    8.5900   53.4370    0.4890 N   0  0  0  0  0  0  0  0  0  0  0  0
    9.9730   52.9940    0.3450 C   0  0  2  0  0  0  0  0  0  0  0  0
   10.1480   51.6030   -0.3060 C   0  0  0  0  0  0  0  0  0  0  0  0
   11.1730   50.7280    0.4140 C   0  0  0  0  0  0  0  0  0  0  0  0
   12.4880   51.4540    0.7510 C   0  0  1  0  0  0  0  0  0  0  0  0
   13.4130   51.5200   -0.4880 C   0  0  0  0  0  0  0  0  0  0  0  0
   14.8880   51.2090   -0.2070 C   0  0  0  0  0  0  0  0  0  0  0  0
   15.0520   50.2340    0.8790 C   0  0  0  0  0  0  0  0  0  0  0  0
   15.1800   49.4680    1.7420 N   0  0  0  0  0  0  0  0  0  0  0  0
   12.2550   52.8470    1.3740 C   0  0  0  0  0  0  0  0  0  0  0  0
   10.7840   53.1680    1.6330 C   0  0  0  0  0  0  0  0  0  0  0  0
    6.8682   51.2955    3.4105 H   0  0  0  0  0  0  0  0  0  0  0  0
    8.3250   50.2822    3.1318 H   0  0  0  0  0  0  0  0  0  0  0  0
    8.4633   52.0732    3.1318 H   0  0  0  0  0  0  0  0  0  0  0  0
    8.3573   50.6853    0.8720 H   0  0  0  0  0  0  0  0  0  0  0  0
    6.3980   49.7030    1.1830 H   0  0  0  0  0  0  0  0  0  0  0  0
    4.8322   55.5984   -0.0175 H   0  0  0  0  0  0  0  0  0  0  0  0
    8.2740   58.9520   -0.7310 H   0  0  0  0  0  0  0  0  0  0  0  0
   10.8089   58.3400   -0.4272 H   0  0  0  0  0  0  0  0  0  0  0  0
   10.8909   55.7238    0.2085 H   0  0  0  0  0  0  0  0  0  0  0  0
   10.4082   53.6826   -0.3942 H   0  0  0  0  0  0  0  0  0  0  0  0
    9.1769   51.0864   -0.2940 H   0  0  0  0  0  0  0  0  0  0  0  0
   10.5165   51.7644   -1.3298 H   0  0  0  0  0  0  0  0  0  0  0  0
   10.7245   50.3708    1.3527 H   0  0  0  0  0  0  0  0  0  0  0  0
   11.4290   49.9070   -0.2719 H   0  0  0  0  0  0  0  0  0  0  0  0
   12.9989   50.8603    1.5233 H   0  0  0  0  0  0  0  0  0  0  0  0
   13.0454   50.7943   -1.2285 H   0  0  0  0  0  0  0  0  0  0  0  0
   13.3785   52.5599   -0.8450 H   0  0  0  0  0  0  0  0  0  0  0  0
   15.3445   50.8014   -1.1210 H   0  0  0  0  0  0  0  0  0  0  0  0
   15.3775   52.1444    0.1020 H   0  0  0  0  0  0  0  0  0  0  0  0
   12.7940   52.8932    2.3318 H   0  0  0  0  0  0  0  0  0  0  0  0
   12.6219   53.5880    0.6485 H   0  0  0  0  0  0  0  0  0  0  0  0
   10.3933   52.4874    2.4038 H   0  0  0  0  0  0  0  0  0  0  0  0
   10.6975   54.2098    1.9752 H   0  0  0  0  0  0  0  0  0  0  0  0
  1  2  1  0
  2  3  1  0
  2  4  1  0
  4  5  2  0
  5  6  1  0
  6  7  2  0
  7  8  1  0
  8  9  2  0
  9 10  1  0
 10 11  1  0
 11 12  2  0
 12 13  1  0
 13 14  2  0
 14 15  1  0
 15 16  1  0
 16 17  1  0
 17 18  1  0
 18 19  1  0
 19 20  1  0
 20 21  1  0
 21 22  1  0
 22 23  3  0
 19 24  1  0
 24 25  1  0
 15  4  1  0
 25 16  1  0
 14  6  1  0
 13  9  1  0
  1 26  1  0
  1 27  1  0
  1 28  1  0
  2 29  1  6
  3 30  1  0
  7 31  1  0
 10 32  1  0
 11 33  1  0
 12 34  1  0
 16 35  1  1
 17 36  1  0
 17 37  1  0
 18 38  1  0
 18 39  1  0
 19 40  1  6
 20 41  1  0
 20 42  1  0
 21 43  1  0
 21 44  1  0
 24 45  1  0
 24 46  1  0
 25 47  1  0
 25 48  1  0
M  END
>  <meeko>  (9) 
{"is_sidechain": [false], "free_energy": -6.497, "intermolecular_energy": -8.22, "internal_energy": -0.755}

$$$$
