3ge7_ligand
     RDKit          3D

 54 57  0  0  0  0  0  0  0  0999 V2000
   18.2000   17.9110   14.8440 C   0  0  0  0  0  0  0  0  0  0  0  0
   19.1000   17.4450   15.8970 N   0  0  0  0  0  0  0  0  0  0  0  0
   18.6790   17.2500   17.1520 C   0  0  0  0  0  0  0  0  0  0  0  0
   19.3780   17.3980   18.2630 N   0  0  0  0  0  0  0  0  0  0  0  0
   18.6060   17.1580   19.3700 C   0  0  0  0  0  0  0  0  0  0  0  0
   18.9130   17.2380   20.7150 C   0  0  0  0  0  0  0  0  0  0  0  0
   17.8510   16.9480   21.5870 C   0  0  0  0  0  0  0  0  0  0  0  0
   18.0980   17.0440   23.0320 C   0  0  0  0  0  0  0  0  0  0  0  0
   19.1810   17.3230   23.4990 O   0  0  0  0  0  0  0  0  0  0  0  0
   17.0020   16.7930   23.8620 N   0  0  0  0  0  0  0  0  0  0  0  0
   15.7840   16.4780   23.4510 C   0  0  0  0  0  0  0  0  0  0  0  0
   14.8040   16.2880   24.3420 N   0  0  0  0  0  0  0  0  0  0  0  0
   15.5250   16.3440   22.1160 N   0  0  0  0  0  0  0  0  0  0  0  0
   16.5550   16.5770   21.1430 C   0  0  0  0  0  0  0  0  0  0  0  0
   16.2650   16.4560   19.7420 C   0  0  0  0  0  0  0  0  0  0  0  0
   14.9440   16.0150   19.1540 C   0  0  0  0  0  0  0  0  0  0  0  0
   14.9330   14.5360   18.7180 C   0  0  0  0  0  0  0  0  0  0  0  0
   13.7220   14.1780   17.9070 N   0  0  0  0  0  0  0  0  0  0  0  0
   13.1040   15.2730   17.0810 C   0  0  0  0  0  0  0  0  0  0  0  0
   11.5840   15.2140   17.1950 C   0  0  0  0  0  0  0  0  0  0  0  0
   11.0430   13.8060   16.9590 C   0  0  0  0  0  0  0  0  0  0  0  0
    9.6170   13.8800   17.4880 C   0  0  0  0  0  0  0  0  0  0  0  0
    9.6500   14.9040   18.6230 C   0  0  0  0  0  0  0  0  0  0  0  0
   11.0370   15.5440   18.5840 C   0  0  0  0  0  0  0  0  0  0  0  0
   17.3430   16.7900   18.8910 C   0  0  0  0  0  0  0  0  0  0  0  0
   17.4540   16.8620   17.5090 N   0  0  0  0  0  0  0  0  0  0  0  0
   17.3107   18.3715   15.2990 H   0  0  0  0  0  0  0  0  0  0  0  0
   18.7189   18.6537   14.2202 H   0  0  0  0  0  0  0  0  0  0  0  0
   17.8930   17.0586   14.2202 H   0  0  0  0  0  0  0  0  0  0  0  0
   20.0640   17.2530   15.6560 H   0  0  0  0  0  0  0  0  0  0  0  0
   20.3520   17.6870   18.2790 H   0  0  0  0  0  0  0  0  0  0  0  0
   19.9160   17.5090   21.0763 H   0  0  0  0  0  0  0  0  0  0  0  0
   17.2000   16.8810   24.8530 H   0  0  0  0  0  0  0  0  0  0  0  0
   14.0620   16.9520   24.5250 H   0  0  0  0  0  0  0  0  0  0  0  0
   14.7730   15.4470   24.9160 H   0  0  0  0  0  0  0  0  0  0  0  0
   14.5670   16.1390   21.8680 H   0  0  0  0  0  0  0  0  0  0  0  0
   14.1589   16.1617   19.9104 H   0  0  0  0  0  0  0  0  0  0  0  0
   14.7703   16.6213   18.2528 H   0  0  0  0  0  0  0  0  0  0  0  0
   15.8311   14.3411   18.1135 H   0  0  0  0  0  0  0  0  0  0  0  0
   14.9142   13.9218   19.6304 H   0  0  0  0  0  0  0  0  0  0  0  0
   12.9840   13.7360   18.4770 H   0  0  0  0  0  0  0  0  0  0  0  0
   13.9980   13.4350   17.2420 H   0  0  0  0  0  0  0  0  0  0  0  0
   13.4594   16.2486   17.4440 H   0  0  0  0  0  0  0  0  0  0  0  0
   13.3938   15.1401   16.0282 H   0  0  0  0  0  0  0  0  0  0  0  0
   11.2694   15.9529   16.4434 H   0  0  0  0  0  0  0  0  0  0  0  0
   11.0526   13.5555   15.8879 H   0  0  0  0  0  0  0  0  0  0  0  0
   11.6434   13.0279   17.4529 H   0  0  0  0  0  0  0  0  0  0  0  0
    8.9300   14.2089   16.6944 H   0  0  0  0  0  0  0  0  0  0  0  0
    9.2615   12.8990   17.8362 H   0  0  0  0  0  0  0  0  0  0  0  0
    8.8737   15.6680   18.4692 H   0  0  0  0  0  0  0  0  0  0  0  0
    9.4567   14.4284   19.5959 H   0  0  0  0  0  0  0  0  0  0  0  0
   10.9648   16.6328   18.7228 H   0  0  0  0  0  0  0  0  0  0  0  0
   11.6892   15.1677   19.3859 H   0  0  0  0  0  0  0  0  0  0  0  0
   16.7220   16.7300   16.8230 H   0  0  0  0  0  0  0  0  0  0  0  0
  1  2  1  0
  2  3  1  0
  3  4  1  0
  4  5  1  0
  5  6  2  0
  6  7  1  0
  7  8  1  0
  8  9  2  0
  8 10  1  0
 10 11  1  0
 11 12  1  0
 11 13  2  0
 13 14  1  0
 14 15  1  0
 15 16  1  0
 16 17  1  0
 17 18  1  0
 18 19  1  0
 19 20  1  0
 20 21  1  0
 21 22  1  0
 22 23  1  0
 23 24  1  0
 15 25  2  0
 25 26  1  0
 26  3  2  0
 25  5  1  0
 14  7  2  0
 24 20  1  0
  1 27  1  0
  1 28  1  0
  1 29  1  0
  2 30  1  0
  4 31  1  0
  6 32  1  0
 10 33  1  0
 12 34  1  0
 12 35  1  0
 13 36  1  0
 16 37  1  0
 16 38  1  0
 17 39  1  0
 17 40  1  0
 18 41  1  0
 18 42  1  0
 19 43  1  0
 19 44  1  0
 20 45  1  0
 21 46  1  0
 21 47  1  0
 22 48  1  0
 22 49  1  0
 23 50  1  0
 23 51  1  0
 24 52  1  0
 24 53  1  0
 26 54  1  0
M  CHG  3  13   1  18   1  26   1
M  END
>  <meeko>  (1) 
{"is_sidechain": [false], "free_energy": -11.049, "intermolecular_energy": -15.247, "internal_energy": -0.687}

$$$$
3ge7_ligand
     RDKit          3D

 54 57  0  0  0  0  0  0  0  0999 V2000
   18.2510   17.9040   14.8640 C   0  0  0  0  0  0  0  0  0  0  0  0
   19.1540   17.4650   15.9260 N   0  0  0  0  0  0  0  0  0  0  0  0
   18.7310   17.2750   17.1810 C   0  0  0  0  0  0  0  0  0  0  0  0
   19.4090   17.4880   18.2950 N   0  0  0  0  0  0  0  0  0  0  0  0
   18.6400   17.2300   19.4000 C   0  0  0  0  0  0  0  0  0  0  0  0
   18.9280   17.3570   20.7460 C   0  0  0  0  0  0  0  0  0  0  0  0
   17.8740   17.0280   21.6140 C   0  0  0  0  0  0  0  0  0  0  0  0
   18.1000   17.1700   23.0580 C   0  0  0  0  0  0  0  0  0  0  0  0
   19.1610   17.5210   23.5290 O   0  0  0  0  0  0  0  0  0  0  0  0
   17.0110   16.8780   23.8840 N   0  0  0  0  0  0  0  0  0  0  0  0
   15.8170   16.4860   23.4690 C   0  0  0  0  0  0  0  0  0  0  0  0
   14.8400   16.2610   24.3550 N   0  0  0  0  0  0  0  0  0  0  0  0
   15.5800   16.3080   22.1350 N   0  0  0  0  0  0  0  0  0  0  0  0
   16.6060   16.5750   21.1660 C   0  0  0  0  0  0  0  0  0  0  0  0
   16.3380   16.4070   19.7660 C   0  0  0  0  0  0  0  0  0  0  0  0
   15.0500   15.8790   19.1760 C   0  0  0  0  0  0  0  0  0  0  0  0
   15.0200   14.3430   19.0510 C   0  0  0  0  0  0  0  0  0  0  0  0
   13.8920   13.8520   18.1910 N   0  0  0  0  0  0  0  0  0  0  0  0
   12.5660   14.5480   18.3390 C   0  0  0  0  0  0  0  0  0  0  0  0
   12.1070   15.0800   16.9860 C   0  0  0  0  0  0  0  0  0  0  0  0
   10.5860   15.0710   16.8480 C   0  0  0  0  0  0  0  0  0  0  0  0
   10.3320   15.9690   15.6450 C   0  0  0  0  0  0  0  0  0  0  0  0
   11.4600   17.0000   15.6550 C   0  0  0  0  0  0  0  0  0  0  0  0
   12.4470   16.5490   16.7310 C   0  0  0  0  0  0  0  0  0  0  0  0
   17.4050   16.7810   18.9180 C   0  0  0  0  0  0  0  0  0  0  0  0
   17.5260   16.8280   17.5360 N   0  0  0  0  0  0  0  0  0  0  0  0
   17.3467   18.3436   15.3101 H   0  0  0  0  0  0  0  0  0  0  0  0
   18.7560   18.6571   14.2413 H   0  0  0  0  0  0  0  0  0  0  0  0
   17.9706   17.0416   14.2413 H   0  0  0  0  0  0  0  0  0  0  0  0
   20.1220   17.2890   15.6910 H   0  0  0  0  0  0  0  0  0  0  0  0
   20.3650   17.8310   18.3130 H   0  0  0  0  0  0  0  0  0  0  0  0
   19.9106   17.6912   21.1105 H   0  0  0  0  0  0  0  0  0  0  0  0
   17.1930   16.9990   24.8750 H   0  0  0  0  0  0  0  0  0  0  0  0
   13.8590   16.1880   24.1160 H   0  0  0  0  0  0  0  0  0  0  0  0
   15.0430   16.1750   25.3490 H   0  0  0  0  0  0  0  0  0  0  0  0
   14.6370   16.0430   21.8830 H   0  0  0  0  0  0  0  0  0  0  0  0
   14.2162   16.1929   19.8211 H   0  0  0  0  0  0  0  0  0  0  0  0
   14.9655   16.2899   18.1591 H   0  0  0  0  0  0  0  0  0  0  0  0
   15.9702   14.0075   18.6099 H   0  0  0  0  0  0  0  0  0  0  0  0
   14.8711   13.9311   20.0601 H   0  0  0  0  0  0  0  0  0  0  0  0
   13.7430   12.8350   18.2790 H   0  0  0  0  0  0  0  0  0  0  0  0
   14.1740   13.9750   17.2030 H   0  0  0  0  0  0  0  0  0  0  0  0
   11.8208   13.8358   18.7230 H   0  0  0  0  0  0  0  0  0  0  0  0
   12.6734   15.3876   19.0415 H   0  0  0  0  0  0  0  0  0  0  0  0
   12.6300   14.4095   16.2882 H   0  0  0  0  0  0  0  0  0  0  0  0
   10.2141   14.0523   16.6635 H   0  0  0  0  0  0  0  0  0  0  0  0
   10.0717   15.4171   17.7567 H   0  0  0  0  0  0  0  0  0  0  0  0
   10.3573   15.3815   14.7154 H   0  0  0  0  0  0  0  0  0  0  0  0
    9.3430   16.4478   15.6966 H   0  0  0  0  0  0  0  0  0  0  0  0
   11.9554   17.0314   14.6734 H   0  0  0  0  0  0  0  0  0  0  0  0
   11.0759   18.0094   15.8639 H   0  0  0  0  0  0  0  0  0  0  0  0
   13.4823   16.6502   16.3734 H   0  0  0  0  0  0  0  0  0  0  0  0
   12.3697   17.1566   17.6447 H   0  0  0  0  0  0  0  0  0  0  0  0
   16.8100   16.6400   16.8460 H   0  0  0  0  0  0  0  0  0  0  0  0
  1  2  1  0
  2  3  1  0
  3  4  1  0
  4  5  1  0
  5  6  2  0
  6  7  1  0
  7  8  1  0
  8  9  2  0
  8 10  1  0
 10 11  1  0
 11 12  1  0
 11 13  2  0
 13 14  1  0
 14 15  1  0
 15 16  1  0
 16 17  1  0
 17 18  1  0
 18 19  1  0
 19 20  1  0
 20 21  1  0
 21 22  1  0
 22 23  1  0
 23 24  1  0
 15 25  2  0
 25 26  1  0
 26  3  2  0
 25  5  1  0
 14  7  2  0
 24 20  1  0
  1 27  1  0
  1 28  1  0
  1 29  1  0
  2 30  1  0
  4 31  1  0
  6 32  1  0
 10 33  1  0
 12 34  1  0
 12 35  1  0
 13 36  1  0
 16 37  1  0
 16 38  1  0
 17 39  1  0
 17 40  1  0
 18 41  1  0
 18 42  1  0
 19 43  1  0
 19 44  1  0
 20 45  1  0
 21 46  1  0
 21 47  1  0
 22 48  1  0
 22 49  1  0
 23 50  1  0
 23 51  1  0
 24 52  1  0
 24 53  1  0
 26 54  1  0
M  CHG  3  13   1  18   1  26   1
M  END
>  <meeko>  (2) 
{"is_sidechain": [false], "free_energy": -10.689, "intermolecular_energy": -14.76, "internal_energy": -0.677}

$$$$
3ge7_ligand
     RDKit          3D

 54 57  0  0  0  0  0  0  0  0999 V2000
   15.9380   16.4100   13.0860 C   0  0  0  0  0  0  0  0  0  0  0  0
   16.5380   17.4500   13.9180 N   0  0  0  0  0  0  0  0  0  0  0  0
   16.7650   17.2680   15.2240 C   0  0  0  0  0  0  0  0  0  0  0  0
   17.9080   17.4280   15.8680 N   0  0  0  0  0  0  0  0  0  0  0  0
   17.7560   17.2000   17.2110 C   0  0  0  0  0  0  0  0  0  0  0  0
   18.6650   17.2940   18.2480 C   0  0  0  0  0  0  0  0  0  0  0  0
   18.1470   17.0130   19.5230 C   0  0  0  0  0  0  0  0  0  0  0  0
   19.0500   17.1230   20.6750 C   0  0  0  0  0  0  0  0  0  0  0  0
   20.2240   17.4080   20.5690 O   0  0  0  0  0  0  0  0  0  0  0  0
   18.4810   16.8820   21.9290 N   0  0  0  0  0  0  0  0  0  0  0  0
   17.2160   16.5630   22.1500 C   0  0  0  0  0  0  0  0  0  0  0  0
   16.7790   16.3820   23.4010 N   0  0  0  0  0  0  0  0  0  0  0  0
   16.3550   16.4150   21.0990 N   0  0  0  0  0  0  0  0  0  0  0  0
   16.7970   16.6370   19.7510 C   0  0  0  0  0  0  0  0  0  0  0  0
   15.8770   16.5020   18.6580 C   0  0  0  0  0  0  0  0  0  0  0  0
   14.4370   16.0550   18.7720 C   0  0  0  0  0  0  0  0  0  0  0  0
   14.2260   14.5740   18.3970 C   0  0  0  0  0  0  0  0  0  0  0  0
   13.4200   14.4020   17.1420 N   0  0  0  0  0  0  0  0  0  0  0  0
   12.5670   15.5650   16.7120 C   0  0  0  0  0  0  0  0  0  0  0  0
   11.1020   15.2760   17.0210 C   0  0  0  0  0  0  0  0  0  0  0  0
   10.7820   13.7850   16.9540 C   0  0  0  0  0  0  0  0  0  0  0  0
    9.4330   13.6780   17.6520 C   0  0  0  0  0  0  0  0  0  0  0  0
    9.4220   14.7910   18.7000 C   0  0  0  0  0  0  0  0  0  0  0  0
   10.6680   15.6370   18.4420 C   0  0  0  0  0  0  0  0  0  0  0  0
   16.4190   16.8270   17.3930 C   0  0  0  0  0  0  0  0  0  0  0  0
   15.8590   16.8840   16.1250 N   0  0  0  0  0  0  0  0  0  0  0  0
   15.4922   15.6373   13.7296 H   0  0  0  0  0  0  0  0  0  0  0  0
   15.1570   16.8536   12.4509 H   0  0  0  0  0  0  0  0  0  0  0  0
   16.7129   15.9559   12.4509 H   0  0  0  0  0  0  0  0  0  0  0  0
   16.8000   18.3240   13.4810 H   0  0  0  0  0  0  0  0  0  0  0  0
   18.7710   17.7170   15.4170 H   0  0  0  0  0  0  0  0  0  0  0  0
   19.7178   17.5689   18.0865 H   0  0  0  0  0  0  0  0  0  0  0  0
   19.1270   16.9800   22.7060 H   0  0  0  0  0  0  0  0  0  0  0  0
   15.8060   16.4310   23.6770 H   0  0  0  0  0  0  0  0  0  0  0  0
   17.4290   16.2040   24.1630 H   0  0  0  0  0  0  0  0  0  0  0  0
   15.3940   16.2070   21.3380 H   0  0  0  0  0  0  0  0  0  0  0  0
   14.1069   16.2025   19.8109 H   0  0  0  0  0  0  0  0  0  0  0  0
   13.8519   16.6573   18.0615 H   0  0  0  0  0  0  0  0  0  0  0  0
   15.2100   14.1048   18.2501 H   0  0  0  0  0  0  0  0  0  0  0  0
   13.6672   14.1004   19.2176 H   0  0  0  0  0  0  0  0  0  0  0  0
   12.8350   13.5530   17.1640 H   0  0  0  0  0  0  0  0  0  0  0  0
   14.0810   14.2270   16.3670 H   0  0  0  0  0  0  0  0  0  0  0  0
   12.8826   16.4688   17.2537 H   0  0  0  0  0  0  0  0  0  0  0  0
   12.6851   15.7202   15.6294 H   0  0  0  0  0  0  0  0  0  0  0  0
   10.5850   15.8858   16.2655 H   0  0  0  0  0  0  0  0  0  0  0  0
   10.7126   13.4445   15.9103 H   0  0  0  0  0  0  0  0  0  0  0  0
   11.5567   13.1596   17.4217 H   0  0  0  0  0  0  0  0  0  0  0  0
    8.6151   13.8219   16.9307 H   0  0  0  0  0  0  0  0  0  0  0  0
    9.2889   12.6878   18.1089 H   0  0  0  0  0  0  0  0  0  0  0  0
    8.5159   15.4054   18.5932 H   0  0  0  0  0  0  0  0  0  0  0  0
    9.4232   14.3791   19.7200 H   0  0  0  0  0  0  0  0  0  0  0  0
   10.4297   16.7085   18.5133 H   0  0  0  0  0  0  0  0  0  0  0  0
   11.4608   15.4417   19.1791 H   0  0  0  0  0  0  0  0  0  0  0  0
   14.8900   16.7460   15.8700 H   0  0  0  0  0  0  0  0  0  0  0  0
  1  2  1  0
  2  3  1  0
  3  4  1  0
  4  5  1  0
  5  6  2  0
  6  7  1  0
  7  8  1  0
  8  9  2  0
  8 10  1  0
 10 11  1  0
 11 12  1  0
 11 13  2  0
 13 14  1  0
 14 15  1  0
 15 16  1  0
 16 17  1  0
 17 18  1  0
 18 19  1  0
 19 20  1  0
 20 21  1  0
 21 22  1  0
 22 23  1  0
 23 24  1  0
 15 25  2  0
 25 26  1  0
 26  3  2  0
 25  5  1  0
 14  7  2  0
 24 20  1  0
  1 27  1  0
  1 28  1  0
  1 29  1  0
  2 30  1  0
  4 31  1  0
  6 32  1  0
 10 33  1  0
 12 34  1  0
 12 35  1  0
 13 36  1  0
 16 37  1  0
 16 38  1  0
 17 39  1  0
 17 40  1  0
 18 41  1  0
 18 42  1  0
 19 43  1  0
 19 44  1  0
 20 45  1  0
 21 46  1  0
 21 47  1  0
 22 48  1  0
 22 49  1  0
 23 50  1  0
 23 51  1  0
 24 52  1  0
 24 53  1  0
 26 54  1  0
M  CHG  3  13   1  18   1  26   1
M  END
>  <meeko>  (3) 
{"is_sidechain": [false], "free_energy": -8.933, "intermolecular_energy": -12.148, "internal_energy": -0.865}

$$$$
3ge7_ligand
     RDKit          3D

 54 57  0  0  0  0  0  0  0  0999 V2000
   19.5830   18.5770   12.3690 C   0  0  0  0  0  0  0  0  0  0  0  0
   18.3050   18.0800   12.8740 N   0  0  0  0  0  0  0  0  0  0  0  0
   18.1250   17.7710   14.1630 C   0  0  0  0  0  0  0  0  0  0  0  0
   19.0120   17.8620   15.1390 N   0  0  0  0  0  0  0  0  0  0  0  0
   18.4620   17.5050   16.3430 C   0  0  0  0  0  0  0  0  0  0  0  0
   19.0070   17.4940   17.6130 C   0  0  0  0  0  0  0  0  0  0  0  0
   18.1310   17.0930   18.6340 C   0  0  0  0  0  0  0  0  0  0  0  0
   18.6350   17.0870   20.0130 C   0  0  0  0  0  0  0  0  0  0  0  0
   19.7770   17.3760   20.3000 O   0  0  0  0  0  0  0  0  0  0  0  0
   17.7160   16.7280   21.0040 N   0  0  0  0  0  0  0  0  0  0  0  0
   16.4530   16.3940   20.7940 C   0  0  0  0  0  0  0  0  0  0  0  0
   15.6590   16.0940   21.8280 N   0  0  0  0  0  0  0  0  0  0  0  0
   15.9580   16.3530   19.5210 N   0  0  0  0  0  0  0  0  0  0  0  0
   16.7870   16.7030   18.4010 C   0  0  0  0  0  0  0  0  0  0  0  0
   16.2490   16.6780   17.0700 C   0  0  0  0  0  0  0  0  0  0  0  0
   14.8550   16.2290   16.6940 C   0  0  0  0  0  0  0  0  0  0  0  0
   13.9840   17.3610   16.1140 C   0  0  0  0  0  0  0  0  0  0  0  0
   12.6230   17.4280   16.7450 N   0  0  0  0  0  0  0  0  0  0  0  0
   12.4780   16.8430   18.1230 C   0  0  0  0  0  0  0  0  0  0  0  0
   11.5640   15.6230   18.0760 C   0  0  0  0  0  0  0  0  0  0  0  0
   10.4360   15.7080   19.1000 C   0  0  0  0  0  0  0  0  0  0  0  0
    9.4550   14.6390   18.6390 C   0  0  0  0  0  0  0  0  0  0  0  0
    9.6000   14.5750   17.1180 C   0  0  0  0  0  0  0  0  0  0  0  0
   10.8000   15.4520   16.7630 C   0  0  0  0  0  0  0  0  0  0  0  0
   17.1440   17.1220   16.0700 C   0  0  0  0  0  0  0  0  0  0  0  0
   16.9980   17.3050   14.7020 N   0  0  0  0  0  0  0  0  0  0  0  0
   20.2377   18.8316   13.2155 H   0  0  0  0  0  0  0  0  0  0  0  0
   20.0622   17.7997   11.7557 H   0  0  0  0  0  0  0  0  0  0  0  0
   19.4111   19.4738   11.7557 H   0  0  0  0  0  0  0  0  0  0  0  0
   17.5350   17.9850   12.2240 H   0  0  0  0  0  0  0  0  0  0  0  0
   19.9640   18.1900   15.0040 H   0  0  0  0  0  0  0  0  0  0  0  0
   20.0512   17.7787   17.8095 H   0  0  0  0  0  0  0  0  0  0  0  0
   18.0900   16.7470   21.9470 H   0  0  0  0  0  0  0  0  0  0  0  0
   15.3840   15.1530   22.0810 H   0  0  0  0  0  0  0  0  0  0  0  0
   15.2600   16.8260   22.4120 H   0  0  0  0  0  0  0  0  0  0  0  0
   14.9770   16.1270   19.4320 H   0  0  0  0  0  0  0  0  0  0  0  0
   14.9366   15.4310   15.9413 H   0  0  0  0  0  0  0  0  0  0  0  0
   14.3655   15.8817   17.6158 H   0  0  0  0  0  0  0  0  0  0  0  0
   14.4966   18.3198   16.2809 H   0  0  0  0  0  0  0  0  0  0  0  0
   13.8431   17.1554   15.0426 H   0  0  0  0  0  0  0  0  0  0  0  0
   11.8890   17.0320   16.1380 H   0  0  0  0  0  0  0  0  0  0  0  0
   12.3640   18.4260   16.8260 H   0  0  0  0  0  0  0  0  0  0  0  0
   13.4677   16.5429   18.4977 H   0  0  0  0  0  0  0  0  0  0  0  0
   12.0399   17.5979   18.7924 H   0  0  0  0  0  0  0  0  0  0  0  0
   12.2723   14.7995   18.2498 H   0  0  0  0  0  0  0  0  0  0  0  0
   10.8071   15.4906   20.1124 H   0  0  0  0  0  0  0  0  0  0  0  0
    9.9833   16.7089   19.1561 H   0  0  0  0  0  0  0  0  0  0  0  0
    9.7062   13.6675   19.0897 H   0  0  0  0  0  0  0  0  0  0  0  0
    8.4239   14.8765   18.9396 H   0  0  0  0  0  0  0  0  0  0  0  0
    9.7776   13.5383   16.7958 H   0  0  0  0  0  0  0  0  0  0  0  0
    8.6867   14.9252   16.6147 H   0  0  0  0  0  0  0  0  0  0  0  0
   11.4310   14.9580   16.0095 H   0  0  0  0  0  0  0  0  0  0  0  0
   10.4947   16.4172   16.3327 H   0  0  0  0  0  0  0  0  0  0  0  0
   16.1570   17.1960   14.1500 H   0  0  0  0  0  0  0  0  0  0  0  0
  1  2  1  0
  2  3  1  0
  3  4  1  0
  4  5  1  0
  5  6  2  0
  6  7  1  0
  7  8  1  0
  8  9  2  0
  8 10  1  0
 10 11  1  0
 11 12  1  0
 11 13  2  0
 13 14  1  0
 14 15  1  0
 15 16  1  0
 16 17  1  0
 17 18  1  0
 18 19  1  0
 19 20  1  0
 20 21  1  0
 21 22  1  0
 22 23  1  0
 23 24  1  0
 15 25  2  0
 25 26  1  0
 26  3  2  0
 25  5  1  0
 14  7  2  0
 24 20  1  0
  1 27  1  0
  1 28  1  0
  1 29  1  0
  2 30  1  0
  4 31  1  0
  6 32  1  0
 10 33  1  0
 12 34  1  0
 12 35  1  0
 13 36  1  0
 16 37  1  0
 16 38  1  0
 17 39  1  0
 17 40  1  0
 18 41  1  0
 18 42  1  0
 19 43  1  0
 19 44  1  0
 20 45  1  0
 21 46  1  0
 21 47  1  0
 22 48  1  0
 22 49  1  0
 23 50  1  0
 23 51  1  0
 24 52  1  0
 24 53  1  0
 26 54  1  0
M  CHG  3  13   1  18   1  26   1
M  END
>  <meeko>  (4) 
{"is_sidechain": [false], "free_energy": -8.367, "intermolecular_energy": -11.643, "internal_energy": -0.59}

$$$$
3ge7_ligand
     RDKit          3D

 54 57  0  0  0  0  0  0  0  0999 V2000
   18.0510   17.2330   23.2910 C   0  0  0  0  0  0  0  0  0  0  0  0
   18.8290   16.6990   22.1770 N   0  0  0  0  0  0  0  0  0  0  0  0
   18.4130   16.8030   20.9090 C   0  0  0  0  0  0  0  0  0  0  0  0
   19.0970   17.2650   19.8780 N   0  0  0  0  0  0  0  0  0  0  0  0
   18.3680   17.1770   18.7200 C   0  0  0  0  0  0  0  0  0  0  0  0
   18.7040   17.5010   17.4190 C   0  0  0  0  0  0  0  0  0  0  0  0
   17.7050   17.2470   16.4650 C   0  0  0  0  0  0  0  0  0  0  0  0
   18.0050   17.5390   15.0570 C   0  0  0  0  0  0  0  0  0  0  0  0
   19.0560   18.0200   14.6920 O   0  0  0  0  0  0  0  0  0  0  0  0
   17.0010   17.2270   14.1360 N   0  0  0  0  0  0  0  0  0  0  0  0
   15.8220   16.7040   14.4330 C   0  0  0  0  0  0  0  0  0  0  0  0
   14.9490   16.4230   13.4600 N   0  0  0  0  0  0  0  0  0  0  0  0
   15.4930   16.4530   15.7360 N   0  0  0  0  0  0  0  0  0  0  0  0
   16.4300   16.7190   16.7930 C   0  0  0  0  0  0  0  0  0  0  0  0
   16.0820   16.4290   18.1540 C   0  0  0  0  0  0  0  0  0  0  0  0
   14.7400   15.9190   18.6280 C   0  0  0  0  0  0  0  0  0  0  0  0
   14.6810   14.3830   18.7590 C   0  0  0  0  0  0  0  0  0  0  0  0
   13.4910   13.7860   18.0650 N   0  0  0  0  0  0  0  0  0  0  0  0
   12.1410   14.3490   18.4160 C   0  0  0  0  0  0  0  0  0  0  0  0
   11.4760   14.9190   17.1680 C   0  0  0  0  0  0  0  0  0  0  0  0
   11.4520   16.4450   17.1730 C   0  0  0  0  0  0  0  0  0  0  0  0
   11.1250   16.8010   15.7300 C   0  0  0  0  0  0  0  0  0  0  0  0
   11.7300   15.6820   14.8820 C   0  0  0  0  0  0  0  0  0  0  0  0
   12.2050   14.6090   15.8610 C   0  0  0  0  0  0  0  0  0  0  0  0
   17.1200   16.6600   19.0850 C   0  0  0  0  0  0  0  0  0  0  0  0
   17.2090   16.4530   20.4550 N   0  0  0  0  0  0  0  0  0  0  0  0
   18.5081   16.9193   24.2411 H   0  0  0  0  0  0  0  0  0  0  0  0
   18.0376   18.3315   23.2356 H   0  0  0  0  0  0  0  0  0  0  0  0
   17.0211   16.8505   23.2356 H   0  0  0  0  0  0  0  0  0  0  0  0
   19.7140   16.2520   22.3790 H   0  0  0  0  0  0  0  0  0  0  0  0
   20.0530   17.6050   19.9440 H   0  0  0  0  0  0  0  0  0  0  0  0
   19.6821   17.9266   17.1505 H   0  0  0  0  0  0  0  0  0  0  0  0
   17.2430   17.4270   13.1710 H   0  0  0  0  0  0  0  0  0  0  0  0
   14.2260   17.0560   13.1410 H   0  0  0  0  0  0  0  0  0  0  0  0
   14.9560   15.5180   12.9940 H   0  0  0  0  0  0  0  0  0  0  0  0
   14.5930   16.0200   15.8910 H   0  0  0  0  0  0  0  0  0  0  0  0
   14.5264   16.3615   19.6121 H   0  0  0  0  0  0  0  0  0  0  0  0
   13.9960   16.2097   17.8717 H   0  0  0  0  0  0  0  0  0  0  0  0
   15.5948   13.9572   18.3190 H   0  0  0  0  0  0  0  0  0  0  0  0
   14.5947   14.1446   19.8294 H   0  0  0  0  0  0  0  0  0  0  0  0
   13.4560   12.7600   18.1570 H   0  0  0  0  0  0  0  0  0  0  0  0
   13.6120   13.9390   17.0490 H   0  0  0  0  0  0  0  0  0  0  0  0
   11.5100   13.5503   18.8331 H   0  0  0  0  0  0  0  0  0  0  0  0
   12.2650   15.1510   19.1586 H   0  0  0  0  0  0  0  0  0  0  0  0
   10.4816   14.4501   17.2050 H   0  0  0  0  0  0  0  0  0  0  0  0
   10.6776   16.8236   17.8564 H   0  0  0  0  0  0  0  0  0  0  0  0
   12.3981   16.8868   17.5190 H   0  0  0  0  0  0  0  0  0  0  0  0
   10.0358   16.8474   15.5835 H   0  0  0  0  0  0  0  0  0  0  0  0
   11.5296   17.7855   15.4525 H   0  0  0  0  0  0  0  0  0  0  0  0
   10.9716   15.2675   14.2016 H   0  0  0  0  0  0  0  0  0  0  0  0
   12.5602   16.0540   14.2637 H   0  0  0  0  0  0  0  0  0  0  0  0
   11.9367   13.6064   15.4965 H   0  0  0  0  0  0  0  0  0  0  0  0
   13.2980   14.6158   15.9847 H   0  0  0  0  0  0  0  0  0  0  0  0
   16.5220   16.0250   21.0610 H   0  0  0  0  0  0  0  0  0  0  0  0
  1  2  1  0
  2  3  1  0
  3  4  1  0
  4  5  1  0
  5  6  2  0
  6  7  1  0
  7  8  1  0
  8  9  2  0
  8 10  1  0
 10 11  1  0
 11 12  1  0
 11 13  2  0
 13 14  1  0
 14 15  1  0
 15 16  1  0
 16 17  1  0
 17 18  1  0
 18 19  1  0
 19 20  1  0
 20 21  1  0
 21 22  1  0
 22 23  1  0
 23 24  1  0
 15 25  2  0
 25 26  1  0
 26  3  2  0
 25  5  1  0
 14  7  2  0
 24 20  1  0
  1 27  1  0
  1 28  1  0
  1 29  1  0
  2 30  1  0
  4 31  1  0
  6 32  1  0
 10 33  1  0
 12 34  1  0
 12 35  1  0
 13 36  1  0
 16 37  1  0
 16 38  1  0
 17 39  1  0
 17 40  1  0
 18 41  1  0
 18 42  1  0
 19 43  1  0
 19 44  1  0
 20 45  1  0
 21 46  1  0
 21 47  1  0
 22 48  1  0
 22 49  1  0
 23 50  1  0
 23 51  1  0
 24 52  1  0
 24 53  1  0
 26 54  1  0
M  CHG  3  13   1  18   1  26   1
M  END
>  <meeko>  (5) 
{"is_sidechain": [false], "free_energy": -8.304, "intermolecular_energy": -11.11, "internal_energy": -1.036}

$$$$
3ge7_ligand
     RDKit          3D

 54 57  0  0  0  0  0  0  0  0999 V2000
   10.7270   20.4420   12.7690 C   0  0  0  0  0  0  0  0  0  0  0  0
   11.5470   19.2430   12.6170 N   0  0  0  0  0  0  0  0  0  0  0  0
   11.8140   18.4340   13.6490 C   0  0  0  0  0  0  0  0  0  0  0  0
   10.9740   18.0250   14.5840 N   0  0  0  0  0  0  0  0  0  0  0  0
   11.5860   17.1630   15.4560 C   0  0  0  0  0  0  0  0  0  0  0  0
   11.0800   16.4720   16.5420 C   0  0  0  0  0  0  0  0  0  0  0  0
   12.0000   15.6400   17.2000 C   0  0  0  0  0  0  0  0  0  0  0  0
   11.5230   14.8530   18.3440 C   0  0  0  0  0  0  0  0  0  0  0  0
   10.3870   14.9190   18.7640 O   0  0  0  0  0  0  0  0  0  0  0  0
   12.4580   14.0020   18.9400 N   0  0  0  0  0  0  0  0  0  0  0  0
   13.7180   13.8600   18.5600 C   0  0  0  0  0  0  0  0  0  0  0  0
   14.5150   12.9920   19.1930 N   0  0  0  0  0  0  0  0  0  0  0  0
   14.2080   14.6030   17.5230 N   0  0  0  0  0  0  0  0  0  0  0  0
   13.3590   15.5170   16.8110 C   0  0  0  0  0  0  0  0  0  0  0  0
   13.8790   16.2740   15.7080 C   0  0  0  0  0  0  0  0  0  0  0  0
   15.3160   16.2690   15.2390 C   0  0  0  0  0  0  0  0  0  0  0  0
   16.2200   17.2370   16.0280 C   0  0  0  0  0  0  0  0  0  0  0  0
   16.3830   16.8380   17.4660 N   0  0  0  0  0  0  0  0  0  0  0  0
   17.7720   16.9030   18.0410 C   0  0  0  0  0  0  0  0  0  0  0  0
   17.7570   16.4240   19.4880 C   0  0  0  0  0  0  0  0  0  0  0  0
   18.6180   17.2990   20.3950 C   0  0  0  0  0  0  0  0  0  0  0  0
   18.1690   16.9100   21.7970 C   0  0  0  0  0  0  0  0  0  0  0  0
   16.6970   16.5220   21.6650 C   0  0  0  0  0  0  0  0  0  0  0  0
   16.3900   16.4970   20.1680 C   0  0  0  0  0  0  0  0  0  0  0  0
   12.9200   17.0740   15.0440 C   0  0  0  0  0  0  0  0  0  0  0  0
   13.0000   17.8870   13.9220 N   0  0  0  0  0  0  0  0  0  0  0  0
   10.5821   20.6539   13.8386 H   0  0  0  0  0  0  0  0  0  0  0  0
   11.2320   21.2946   12.2914 H   0  0  0  0  0  0  0  0  0  0  0  0
    9.7493   20.2805   12.2914 H   0  0  0  0  0  0  0  0  0  0  0  0
   11.9050   19.0180   11.6980 H   0  0  0  0  0  0  0  0  0  0  0  0
    9.9950   18.2970   14.6180 H   0  0  0  0  0  0  0  0  0  0  0  0
   10.0333   16.5673   16.8665 H   0  0  0  0  0  0  0  0  0  0  0  0
   12.0950   13.4610   19.7180 H   0  0  0  0  0  0  0  0  0  0  0  0
   15.5190   13.0970   19.2780 H   0  0  0  0  0  0  0  0  0  0  0  0
   14.1390   12.1430   19.6100 H   0  0  0  0  0  0  0  0  0  0  0  0
   15.1670   14.4200   17.2590 H   0  0  0  0  0  0  0  0  0  0  0  0
   15.7155   15.2501   15.3497 H   0  0  0  0  0  0  0  0  0  0  0  0
   15.3172   16.6041   14.1913 H   0  0  0  0  0  0  0  0  0  0  0  0
   17.2124   17.2566   15.5539 H   0  0  0  0  0  0  0  0  0  0  0  0
   15.7404   18.2268   16.0109 H   0  0  0  0  0  0  0  0  0  0  0  0
   15.9860   15.9070   17.6630 H   0  0  0  0  0  0  0  0  0  0  0  0
   15.8040   17.4780   18.0360 H   0  0  0  0  0  0  0  0  0  0  0  0
   18.4416   16.2601   17.4508 H   0  0  0  0  0  0  0  0  0  0  0  0
   18.1298   17.9426   18.0072 H   0  0  0  0  0  0  0  0  0  0  0  0
   18.1120   15.3876   19.3885 H   0  0  0  0  0  0  0  0  0  0  0  0
   19.6868   17.0826   20.2505 H   0  0  0  0  0  0  0  0  0  0  0  0
   18.5000   18.3734   20.1906 H   0  0  0  0  0  0  0  0  0  0  0  0
   18.7588   16.0582   22.1664 H   0  0  0  0  0  0  0  0  0  0  0  0
   18.3099   17.7336   22.5124 H   0  0  0  0  0  0  0  0  0  0  0  0
   16.5244   15.5289   22.1054 H   0  0  0  0  0  0  0  0  0  0  0  0
   16.0476   17.2355   22.1934 H   0  0  0  0  0  0  0  0  0  0  0  0
   15.7828   15.6162   19.9120 H   0  0  0  0  0  0  0  0  0  0  0  0
   15.8147   17.3783   19.8482 H   0  0  0  0  0  0  0  0  0  0  0  0
   13.7940   18.0210   13.3110 H   0  0  0  0  0  0  0  0  0  0  0  0
  1  2  1  0
  2  3  1  0
  3  4  1  0
  4  5  1  0
  5  6  2  0
  6  7  1  0
  7  8  1  0
  8  9  2  0
  8 10  1  0
 10 11  1  0
 11 12  1  0
 11 13  2  0
 13 14  1  0
 14 15  1  0
 15 16  1  0
 16 17  1  0
 17 18  1  0
 18 19  1  0
 19 20  1  0
 20 21  1  0
 21 22  1  0
 22 23  1  0
 23 24  1  0
 15 25  2  0
 25 26  1  0
 26  3  2  0
 25  5  1  0
 14  7  2  0
 24 20  1  0
  1 27  1  0
  1 28  1  0
  1 29  1  0
  2 30  1  0
  4 31  1  0
  6 32  1  0
 10 33  1  0
 12 34  1  0
 12 35  1  0
 13 36  1  0
 16 37  1  0
 16 38  1  0
 17 39  1  0
 17 40  1  0
 18 41  1  0
 18 42  1  0
 19 43  1  0
 19 44  1  0
 20 45  1  0
 21 46  1  0
 21 47  1  0
 22 48  1  0
 22 49  1  0
 23 50  1  0
 23 51  1  0
 24 52  1  0
 24 53  1  0
 26 54  1  0
M  CHG  3  13   1  18   1  26   1
M  END
>  <meeko>  (6) 
{"is_sidechain": [false], "free_energy": -8.083, "intermolecular_energy": -11.409, "internal_energy": -0.432}

$$$$
