3fur_ligand
     RDKit          3D

 43 46  0  0  0  0  0  0  0  0999 V2000
    3.9870    3.9620   25.3930 O   0  0  0  0  0  0  0  0  0  0  0  0
    4.8510    4.9940   25.9160 S   0  0  0  0  0  0  0  0  0  0  0  0
    6.2390    5.1200   25.5270 O   0  0  0  0  0  0  0  0  0  0  0  0
    4.1580    6.4850   25.5300 N   0  0  0  0  0  0  0  0  0  0  0  0
    4.9140    7.6900   25.3990 C   0  0  0  0  0  0  0  0  0  0  0  0
    4.3810    8.6880   24.5790 C   0  0  0  0  0  0  0  0  0  0  0  0
    5.0930    9.8660   24.3330 C   0  0  0  0  0  0  0  0  0  0  0  0
    4.3810   11.0420   23.2890 Cl  0  0  0  0  0  0  0  0  0  0  0  0
    6.3550   10.0570   24.9030 C   0  0  0  0  0  0  0  0  0  0  0  0
    7.0890   11.1890   24.6380 O   0  0  0  0  0  0  0  0  0  0  0  0
    6.9030   12.2760   25.4580 C   0  0  0  0  0  0  0  0  0  0  0  0
    7.0320   13.6090   25.0980 C   0  0  0  0  0  0  0  0  0  0  0  0
    6.8330   14.6480   25.9450 N   0  0  0  0  0  0  0  0  0  0  0  0
    6.4730   14.3700   27.2110 C   0  0  0  0  0  0  0  0  0  0  0  0
    6.2580   15.4100   28.1060 C   0  0  0  0  0  0  0  0  0  0  0  0
    5.8800   15.1730   29.4300 C   0  0  0  0  0  0  0  0  0  0  0  0
    5.7090   13.8690   29.8800 C   0  0  0  0  0  0  0  0  0  0  0  0
    5.9180   12.8060   29.0030 C   0  0  0  0  0  0  0  0  0  0  0  0
    6.2990   13.0470   27.6720 C   0  0  0  0  0  0  0  0  0  0  0  0
    6.5170   12.0000   26.7660 C   0  0  0  0  0  0  0  0  0  0  0  0
    6.9170    9.0330   25.6710 C   0  0  0  0  0  0  0  0  0  0  0  0
    8.5040    9.1770   26.3340 Cl  0  0  0  0  0  0  0  0  0  0  0  0
    6.2010    7.8540   25.9160 C   0  0  0  0  0  0  0  0  0  0  0  0
    4.8350    4.9230   27.6880 C   0  0  0  0  0  0  0  0  0  0  0  0
    6.0450    4.9040   28.4020 C   0  0  0  0  0  0  0  0  0  0  0  0
    6.0340    4.8690   29.7970 C   0  0  0  0  0  0  0  0  0  0  0  0
    4.8190    4.8420   30.4790 C   0  0  0  0  0  0  0  0  0  0  0  0
    4.8060    4.7980   32.1980 Cl  0  0  0  0  0  0  0  0  0  0  0  0
    3.6160    4.8430   29.7760 C   0  0  0  0  0  0  0  0  0  0  0  0
    3.6190    4.8790   28.3770 C   0  0  0  0  0  0  0  0  0  0  0  0
    2.0780    4.8240   27.6010 Cl  0  0  0  0  0  0  0  0  0  0  0  0
    3.2120    6.5440   25.9120 H   0  0  0  0  0  0  0  0  0  0  0  0
    3.3906    8.5454   24.1221 H   0  0  0  0  0  0  0  0  0  0  0  0
    7.3136   13.8374   24.0595 H   0  0  0  0  0  0  0  0  0  0  0  0
    6.3887   16.4471   27.7636 H   0  0  0  0  0  0  0  0  0  0  0  0
    5.7178   16.0177   30.1158 H   0  0  0  0  0  0  0  0  0  0  0  0
    5.4107   13.6773   30.9213 H   0  0  0  0  0  0  0  0  0  0  0  0
    5.7839   11.7724   29.3548 H   0  0  0  0  0  0  0  0  0  0  0  0
    6.3826   10.9574   27.0899 H   0  0  0  0  0  0  0  0  0  0  0  0
    6.6548    7.0534   26.5186 H   0  0  0  0  0  0  0  0  0  0  0  0
    7.0024    4.9167   27.8605 H   0  0  0  0  0  0  0  0  0  0  0  0
    6.9811    4.8627   30.3564 H   0  0  0  0  0  0  0  0  0  0  0  0
    2.6615    4.8154   30.3220 H   0  0  0  0  0  0  0  0  0  0  0  0
  1  2  2  0
  2  3  2  0
  2  4  1  0
  4  5  1  0
  5  6  2  0
  6  7  1  0
  7  8  1  0
  7  9  2  0
  9 10  1  0
 10 11  1  0
 11 12  2  0
 12 13  1  0
 13 14  2  0
 14 15  1  0
 15 16  2  0
 16 17  1  0
 17 18  2  0
 18 19  1  0
 19 20  2  0
  9 21  1  0
 21 22  1  0
 21 23  2  0
  2 24  1  0
 24 25  2  0
 25 26  1  0
 26 27  2  0
 27 28  1  0
 27 29  1  0
 29 30  2  0
 30 31  1  0
 23  5  1  0
 30 24  1  0
 20 11  1  0
 19 14  1  0
  4 32  1  0
  6 33  1  0
 12 34  1  0
 15 35  1  0
 16 36  1  0
 17 37  1  0
 18 38  1  0
 20 39  1  0
 23 40  1  0
 25 41  1  0
 26 42  1  0
 29 43  1  0
M  END
>  <meeko>  (1) 
{"is_sidechain": [false], "free_energy": -11.441, "intermolecular_energy": -14.785, "internal_energy": -0.02}

$$$$
3fur_ligand
     RDKit          3D

 43 46  0  0  0  0  0  0  0  0999 V2000
    3.9710    3.9460   25.4340 O   0  0  0  0  0  0  0  0  0  0  0  0
    4.8540    4.9750   25.9320 S   0  0  0  0  0  0  0  0  0  0  0  0
    6.2340    5.0870   25.5120 O   0  0  0  0  0  0  0  0  0  0  0  0
    4.1640    6.4690   25.5500 N   0  0  0  0  0  0  0  0  0  0  0  0
    4.9340    7.6420   25.2820 C   0  0  0  0  0  0  0  0  0  0  0  0
    6.1590    7.7610   25.9440 C   0  0  0  0  0  0  0  0  0  0  0  0
    6.9390    8.9130   25.8000 C   0  0  0  0  0  0  0  0  0  0  0  0
    8.4290    8.9980   26.6690 Cl  0  0  0  0  0  0  0  0  0  0  0  0
    6.4970    9.9660   24.9950 C   0  0  0  0  0  0  0  0  0  0  0  0
    7.2290   11.1230   24.8770 O   0  0  0  0  0  0  0  0  0  0  0  0
    6.9340   12.1560   25.7350 C   0  0  0  0  0  0  0  0  0  0  0  0
    6.8460   13.5000   25.4060 C   0  0  0  0  0  0  0  0  0  0  0  0
    6.5460   14.4820   26.2900 N   0  0  0  0  0  0  0  0  0  0  0  0
    6.3020   14.1300   27.5650 C   0  0  0  0  0  0  0  0  0  0  0  0
    5.9890   15.1090   28.4980 C   0  0  0  0  0  0  0  0  0  0  0  0
    5.7260   14.7940   29.8340 C   0  0  0  0  0  0  0  0  0  0  0  0
    5.7730   13.4700   30.2560 C   0  0  0  0  0  0  0  0  0  0  0  0
    6.0840   12.4670   29.3400 C   0  0  0  0  0  0  0  0  0  0  0  0
    6.3500   12.7870   27.9980 C   0  0  0  0  0  0  0  0  0  0  0  0
    6.6670   11.8010   27.0540 C   0  0  0  0  0  0  0  0  0  0  0  0
    5.2430    9.8750   24.3850 C   0  0  0  0  0  0  0  0  0  0  0  0
    4.6080   11.1760   23.4430 Cl  0  0  0  0  0  0  0  0  0  0  0  0
    4.4640    8.7200   24.5300 C   0  0  0  0  0  0  0  0  0  0  0  0
    4.8750    4.9160   27.7040 C   0  0  0  0  0  0  0  0  0  0  0  0
    6.1000    4.8800   28.3910 C   0  0  0  0  0  0  0  0  0  0  0  0
    6.1180    4.8540   29.7870 C   0  0  0  0  0  0  0  0  0  0  0  0
    4.9190    4.8550   30.4950 C   0  0  0  0  0  0  0  0  0  0  0  0
    4.9430    4.8230   32.2140 Cl  0  0  0  0  0  0  0  0  0  0  0  0
    3.7010    4.8740   29.8190 C   0  0  0  0  0  0  0  0  0  0  0  0
    3.6730    4.9000   28.4190 C   0  0  0  0  0  0  0  0  0  0  0  0
    2.1150    4.8690   27.6770 Cl  0  0  0  0  0  0  0  0  0  0  0  0
    3.2660    6.5750   26.0260 H   0  0  0  0  0  0  0  0  0  0  0  0
    6.5134    6.9402   26.5849 H   0  0  0  0  0  0  0  0  0  0  0  0
    7.0316   13.7874   24.3606 H   0  0  0  0  0  0  0  0  0  0  0  0
    5.9469   16.1604   28.1774 H   0  0  0  0  0  0  0  0  0  0  0  0
    5.4822   15.5922   30.5505 H   0  0  0  0  0  0  0  0  0  0  0  0
    5.5660   13.2160   31.3061 H   0  0  0  0  0  0  0  0  0  0  0  0
    6.1215   11.4182   29.6696 H   0  0  0  0  0  0  0  0  0  0  0  0
    6.7049   10.7440   27.3562 H   0  0  0  0  0  0  0  0  0  0  0  0
    3.4766    8.6621   24.0487 H   0  0  0  0  0  0  0  0  0  0  0  0
    7.0455    4.8723   27.8288 H   0  0  0  0  0  0  0  0  0  0  0  0
    7.0767    4.8328   30.3259 H   0  0  0  0  0  0  0  0  0  0  0  0
    2.7587    4.8686   30.3864 H   0  0  0  0  0  0  0  0  0  0  0  0
  1  2  2  0
  2  3  2  0
  2  4  1  0
  4  5  1  0
  5  6  2  0
  6  7  1  0
  7  8  1  0
  7  9  2  0
  9 10  1  0
 10 11  1  0
 11 12  2  0
 12 13  1  0
 13 14  2  0
 14 15  1  0
 15 16  2  0
 16 17  1  0
 17 18  2  0
 18 19  1  0
 19 20  2  0
  9 21  1  0
 21 22  1  0
 21 23  2  0
  2 24  1  0
 24 25  2  0
 25 26  1  0
 26 27  2  0
 27 28  1  0
 27 29  1  0
 29 30  2  0
 30 31  1  0
 23  5  1  0
 30 24  1  0
 20 11  1  0
 19 14  1  0
  4 32  1  0
  6 33  1  0
 12 34  1  0
 15 35  1  0
 16 36  1  0
 17 37  1  0
 18 38  1  0
 20 39  1  0
 23 40  1  0
 25 41  1  0
 26 42  1  0
 29 43  1  0
M  END
>  <meeko>  (2) 
{"is_sidechain": [false], "free_energy": -11.151, "intermolecular_energy": -14.583, "internal_energy": 0.152}

$$$$
3fur_ligand
     RDKit          3D

 43 46  0  0  0  0  0  0  0  0999 V2000
    3.0860    6.1960   25.8000 O   0  0  0  0  0  0  0  0  0  0  0  0
    4.1330    5.2220   26.0070 S   0  0  0  0  0  0  0  0  0  0  0  0
    4.0770    3.8880   25.4510 O   0  0  0  0  0  0  0  0  0  0  0  0
    5.5690    5.8800   25.4070 N   0  0  0  0  0  0  0  0  0  0  0  0
    5.9110    7.2610   25.5370 C   0  0  0  0  0  0  0  0  0  0  0  0
    5.1400    8.1760   24.8130 C   0  0  0  0  0  0  0  0  0  0  0  0
    5.4560    9.5390   24.8210 C   0  0  0  0  0  0  0  0  0  0  0  0
    4.4750   10.6040   23.8830 Cl  0  0  0  0  0  0  0  0  0  0  0  0
    6.5550   10.0020   25.5500 C   0  0  0  0  0  0  0  0  0  0  0  0
    6.9070   11.3300   25.5340 O   0  0  0  0  0  0  0  0  0  0  0  0
    6.4510   12.1240   26.5600 C   0  0  0  0  0  0  0  0  0  0  0  0
    6.0450   11.6940   27.8140 C   0  0  0  0  0  0  0  0  0  0  0  0
    5.6080   12.5190   28.7960 N   0  0  0  0  0  0  0  0  0  0  0  0
    5.5780   13.8390   28.5440 C   0  0  0  0  0  0  0  0  0  0  0  0
    5.1370   14.7140   29.5270 C   0  0  0  0  0  0  0  0  0  0  0  0
    5.0900   16.0950   29.3160 C   0  0  0  0  0  0  0  0  0  0  0  0
    5.4920   16.6230   28.0940 C   0  0  0  0  0  0  0  0  0  0  0  0
    5.9390   15.7670   27.0890 C   0  0  0  0  0  0  0  0  0  0  0  0
    5.9840   14.3790   27.3050 C   0  0  0  0  0  0  0  0  0  0  0  0
    6.4280   13.4930   26.3140 C   0  0  0  0  0  0  0  0  0  0  0  0
    7.3630    9.0800   26.2210 C   0  0  0  0  0  0  0  0  0  0  0  0
    8.7790    9.5820   27.0730 Cl  0  0  0  0  0  0  0  0  0  0  0  0
    7.0450    7.7170   26.2120 C   0  0  0  0  0  0  0  0  0  0  0  0
    4.4080    5.0250   27.7480 C   0  0  0  0  0  0  0  0  0  0  0  0
    5.7180    4.9750   28.2520 C   0  0  0  0  0  0  0  0  0  0  0  0
    5.9360    4.8410   29.6240 C   0  0  0  0  0  0  0  0  0  0  0  0
    4.8500    4.7480   30.4910 C   0  0  0  0  0  0  0  0  0  0  0  0
    5.1190    4.5830   32.1810 Cl  0  0  0  0  0  0  0  0  0  0  0  0
    3.5480    4.7800   29.9960 C   0  0  0  0  0  0  0  0  0  0  0  0
    3.3210    4.9140   28.6210 C   0  0  0  0  0  0  0  0  0  0  0  0
    1.6740    4.8900   28.1050 Cl  0  0  0  0  0  0  0  0  0  0  0  0
    5.8580    5.3850   24.5620 H   0  0  0  0  0  0  0  0  0  0  0  0
    4.2766    7.8206   24.2315 H   0  0  0  0  0  0  0  0  0  0  0  0
    6.0799   10.6150   28.0250 H   0  0  0  0  0  0  0  0  0  0  0  0
    4.8158   14.3098   30.4983 H   0  0  0  0  0  0  0  0  0  0  0  0
    4.7357   16.7628   30.1151 H   0  0  0  0  0  0  0  0  0  0  0  0
    5.4574   17.7089   27.9217 H   0  0  0  0  0  0  0  0  0  0  0  0
    6.2585   16.1803   26.1209 H   0  0  0  0  0  0  0  0  0  0  0  0
    6.7591   13.8810   25.3394 H   0  0  0  0  0  0  0  0  0  0  0  0
    7.6922    7.0010   26.7397 H   0  0  0  0  0  0  0  0  0  0  0  0
    6.5738    5.0416   27.5641 H   0  0  0  0  0  0  0  0  0  0  0  0
    6.9620    4.8089   30.0192 H   0  0  0  0  0  0  0  0  0  0  0  0
    2.6962    4.6998   30.6873 H   0  0  0  0  0  0  0  0  0  0  0  0
  1  2  2  0
  2  3  2  0
  2  4  1  0
  4  5  1  0
  5  6  2  0
  6  7  1  0
  7  8  1  0
  7  9  2  0
  9 10  1  0
 10 11  1  0
 11 12  2  0
 12 13  1  0
 13 14  2  0
 14 15  1  0
 15 16  2  0
 16 17  1  0
 17 18  2  0
 18 19  1  0
 19 20  2  0
  9 21  1  0
 21 22  1  0
 21 23  2  0
  2 24  1  0
 24 25  2  0
 25 26  1  0
 26 27  2  0
 27 28  1  0
 27 29  1  0
 29 30  2  0
 30 31  1  0
 23  5  1  0
 30 24  1  0
 20 11  1  0
 19 14  1  0
  4 32  1  0
  6 33  1  0
 12 34  1  0
 15 35  1  0
 16 36  1  0
 17 37  1  0
 18 38  1  0
 20 39  1  0
 23 40  1  0
 25 41  1  0
 26 42  1  0
 29 43  1  0
M  END
>  <meeko>  (3) 
{"is_sidechain": [false], "free_energy": -10.975, "intermolecular_energy": -13.813, "internal_energy": -0.389}

$$$$
3fur_ligand
     RDKit          3D

 43 46  0  0  0  0  0  0  0  0999 V2000
    2.8570    6.1260   25.8380 O   0  0  0  0  0  0  0  0  0  0  0  0
    3.9200    5.1810   26.0860 S   0  0  0  0  0  0  0  0  0  0  0  0
    3.9060    3.8360   25.5520 O   0  0  0  0  0  0  0  0  0  0  0  0
    5.3530    5.8600   25.5060 N   0  0  0  0  0  0  0  0  0  0  0  0
    5.5490    7.2680   25.3600 C   0  0  0  0  0  0  0  0  0  0  0  0
    6.7680    7.7880   25.8050 C   0  0  0  0  0  0  0  0  0  0  0  0
    7.0110    9.1650   25.7710 C   0  0  0  0  0  0  0  0  0  0  0  0
    8.5290    9.7360   26.3610 Cl  0  0  0  0  0  0  0  0  0  0  0  0
    6.0300   10.0410   25.2970 C   0  0  0  0  0  0  0  0  0  0  0  0
    6.2340   11.4000   25.2980 O   0  0  0  0  0  0  0  0  0  0  0  0
    6.0790   12.0680   26.4890 C   0  0  0  0  0  0  0  0  0  0  0  0
    5.7790   11.4990   27.7180 C   0  0  0  0  0  0  0  0  0  0  0  0
    5.6420   12.2020   28.8690 N   0  0  0  0  0  0  0  0  0  0  0  0
    5.8220   13.5330   28.8190 C   0  0  0  0  0  0  0  0  0  0  0  0
    5.6910   14.2860   29.9790 C   0  0  0  0  0  0  0  0  0  0  0  0
    5.8720   15.6710   29.9810 C   0  0  0  0  0  0  0  0  0  0  0  0
    6.1920   16.3300   28.7990 C   0  0  0  0  0  0  0  0  0  0  0  0
    6.3290   15.6000   27.6200 C   0  0  0  0  0  0  0  0  0  0  0  0
    6.1460   14.2060   27.6210 C   0  0  0  0  0  0  0  0  0  0  0  0
    6.2760   13.4450   26.4520 C   0  0  0  0  0  0  0  0  0  0  0  0
    4.7880    9.5280   24.9130 C   0  0  0  0  0  0  0  0  0  0  0  0
    3.5100   10.5670   24.3940 Cl  0  0  0  0  0  0  0  0  0  0  0  0
    4.5480    8.1490   24.9470 C   0  0  0  0  0  0  0  0  0  0  0  0
    4.1590    5.0210   27.8360 C   0  0  0  0  0  0  0  0  0  0  0  0
    3.0670    5.1540   28.7090 C   0  0  0  0  0  0  0  0  0  0  0  0
    3.2510    5.0070   30.0860 C   0  0  0  0  0  0  0  0  0  0  0  0
    4.5210    4.7390   30.5900 C   0  0  0  0  0  0  0  0  0  0  0  0
    4.7460    4.5590   32.2850 Cl  0  0  0  0  0  0  0  0  0  0  0  0
    5.6110    4.6230   29.7300 C   0  0  0  0  0  0  0  0  0  0  0  0
    5.4360    4.7680   28.3480 C   0  0  0  0  0  0  0  0  0  0  0  0
    6.8570    4.6580   27.3750 Cl  0  0  0  0  0  0  0  0  0  0  0  0
    5.7910    5.2360   24.8260 H   0  0  0  0  0  0  0  0  0  0  0  0
    7.5438    7.1074   26.1857 H   0  0  0  0  0  0  0  0  0  0  0  0
    5.6437   10.4082   27.7614 H   0  0  0  0  0  0  0  0  0  0  0  0
    5.4379   13.7779   30.9212 H   0  0  0  0  0  0  0  0  0  0  0  0
    5.7616   16.2396   30.9162 H   0  0  0  0  0  0  0  0  0  0  0  0
    6.3360   17.4205   28.7948 H   0  0  0  0  0  0  0  0  0  0  0  0
    6.5819   16.1175   26.6828 H   0  0  0  0  0  0  0  0  0  0  0  0
    6.5344   13.9371   25.5027 H   0  0  0  0  0  0  0  0  0  0  0  0
    3.5649    7.7575   24.6465 H   0  0  0  0  0  0  0  0  0  0  0  0
    2.0664    5.3740   28.3084 H   0  0  0  0  0  0  0  0  0  0  0  0
    2.3950    5.1027   30.7702 H   0  0  0  0  0  0  0  0  0  0  0  0
    6.6117    4.4170   30.1375 H   0  0  0  0  0  0  0  0  0  0  0  0
  1  2  2  0
  2  3  2  0
  2  4  1  0
  4  5  1  0
  5  6  2  0
  6  7  1  0
  7  8  1  0
  7  9  2  0
  9 10  1  0
 10 11  1  0
 11 12  2  0
 12 13  1  0
 13 14  2  0
 14 15  1  0
 15 16  2  0
 16 17  1  0
 17 18  2  0
 18 19  1  0
 19 20  2  0
  9 21  1  0
 21 22  1  0
 21 23  2  0
  2 24  1  0
 24 25  2  0
 25 26  1  0
 26 27  2  0
 27 28  1  0
 27 29  1  0
 29 30  2  0
 30 31  1  0
 23  5  1  0
 30 24  1  0
 20 11  1  0
 19 14  1  0
  4 32  1  0
  6 33  1  0
 12 34  1  0
 15 35  1  0
 16 36  1  0
 17 37  1  0
 18 38  1  0
 20 39  1  0
 23 40  1  0
 25 41  1  0
 26 42  1  0
 29 43  1  0
M  END
>  <meeko>  (4) 
{"is_sidechain": [false], "free_energy": -9.934, "intermolecular_energy": -13.324, "internal_energy": 0.466}

$$$$
3fur_ligand
     RDKit          3D

 43 46  0  0  0  0  0  0  0  0999 V2000
    3.1310    5.9950   25.6130 O   0  0  0  0  0  0  0  0  0  0  0  0
    4.3430    5.2200   25.7470 S   0  0  0  0  0  0  0  0  0  0  0  0
    4.5170    3.9320   25.1130 O   0  0  0  0  0  0  0  0  0  0  0  0
    5.6180    6.1640   25.1660 N   0  0  0  0  0  0  0  0  0  0  0  0
    5.9220    7.4650   25.6700 C   0  0  0  0  0  0  0  0  0  0  0  0
    5.0530    8.5010   25.3170 C   0  0  0  0  0  0  0  0  0  0  0  0
    5.3200    9.8190   25.7020 C   0  0  0  0  0  0  0  0  0  0  0  0
    4.2140   11.0480   25.2060 Cl  0  0  0  0  0  0  0  0  0  0  0  0
    6.4670   10.1170   26.4420 C   0  0  0  0  0  0  0  0  0  0  0  0
    6.7680   11.4120   26.7920 O   0  0  0  0  0  0  0  0  0  0  0  0
    7.0030   12.3090   25.7770 C   0  0  0  0  0  0  0  0  0  0  0  0
    7.5000   12.0130   24.5170 C   0  0  0  0  0  0  0  0  0  0  0  0
    7.7090   12.9350   23.5460 N   0  0  0  0  0  0  0  0  0  0  0  0
    7.4010   14.2160   23.8150 C   0  0  0  0  0  0  0  0  0  0  0  0
    7.6000   15.1870   22.8440 C   0  0  0  0  0  0  0  0  0  0  0  0
    7.2930   16.5310   23.0740 C   0  0  0  0  0  0  0  0  0  0  0  0
    6.7730   16.9220   24.3020 C   0  0  0  0  0  0  0  0  0  0  0  0
    6.5630   15.9680   25.2960 C   0  0  0  0  0  0  0  0  0  0  0  0
    6.8740   14.6180   25.0620 C   0  0  0  0  0  0  0  0  0  0  0  0
    6.6750   13.6350   26.0410 C   0  0  0  0  0  0  0  0  0  0  0  0
    7.3690    9.0920   26.7410 C   0  0  0  0  0  0  0  0  0  0  0  0
    8.8420    9.4120   27.5830 Cl  0  0  0  0  0  0  0  0  0  0  0  0
    7.0990    7.7730   26.3540 C   0  0  0  0  0  0  0  0  0  0  0  0
    4.6930    4.9810   27.4690 C   0  0  0  0  0  0  0  0  0  0  0  0
    6.0230    4.8790   27.9080 C   0  0  0  0  0  0  0  0  0  0  0  0
    6.3010    4.7110   29.2660 C   0  0  0  0  0  0  0  0  0  0  0  0
    5.2550    4.6350   30.1810 C   0  0  0  0  0  0  0  0  0  0  0  0
    5.5980    4.4280   31.8530 Cl  0  0  0  0  0  0  0  0  0  0  0  0
    3.9320    4.7170   29.7500 C   0  0  0  0  0  0  0  0  0  0  0  0
    3.6450    4.8860   28.3900 C   0  0  0  0  0  0  0  0  0  0  0  0
    1.9760    4.9240   27.9540 Cl  0  0  0  0  0  0  0  0  0  0  0  0
    5.7690    5.9800   24.1720 H   0  0  0  0  0  0  0  0  0  0  0  0
    4.1497    8.2777   24.7303 H   0  0  0  0  0  0  0  0  0  0  0  0
    7.7398   10.9635   24.2912 H   0  0  0  0  0  0  0  0  0  0  0  0
    8.0103   14.8911   21.8672 H   0  0  0  0  0  0  0  0  0  0  0  0
    7.4627   17.2779   22.2845 H   0  0  0  0  0  0  0  0  0  0  0  0
    6.5286   17.9782   24.4883 H   0  0  0  0  0  0  0  0  0  0  0  0
    6.1514   16.2737   26.2692 H   0  0  0  0  0  0  0  0  0  0  0  0
    6.2585   13.9126   27.0205 H   0  0  0  0  0  0  0  0  0  0  0  0
    7.8187    6.9755   26.5905 H   0  0  0  0  0  0  0  0  0  0  0  0
    6.8469    4.9315   27.1811 H   0  0  0  0  0  0  0  0  0  0  0  0
    7.3429    4.6390   29.6114 H   0  0  0  0  0  0  0  0  0  0  0  0
    3.1117    4.6488   30.4797 H   0  0  0  0  0  0  0  0  0  0  0  0
  1  2  2  0
  2  3  2  0
  2  4  1  0
  4  5  1  0
  5  6  2  0
  6  7  1  0
  7  8  1  0
  7  9  2  0
  9 10  1  0
 10 11  1  0
 11 12  2  0
 12 13  1  0
 13 14  2  0
 14 15  1  0
 15 16  2  0
 16 17  1  0
 17 18  2  0
 18 19  1  0
 19 20  2  0
  9 21  1  0
 21 22  1  0
 21 23  2  0
  2 24  1  0
 24 25  2  0
 25 26  1  0
 26 27  2  0
 27 28  1  0
 27 29  1  0
 29 30  2  0
 30 31  1  0
 23  5  1  0
 30 24  1  0
 20 11  1  0
 19 14  1  0
  4 32  1  0
  6 33  1  0
 12 34  1  0
 15 35  1  0
 16 36  1  0
 17 37  1  0
 18 38  1  0
 20 39  1  0
 23 40  1  0
 25 41  1  0
 26 42  1  0
 29 43  1  0
M  END
>  <meeko>  (5) 
{"is_sidechain": [false], "free_energy": -9.118, "intermolecular_energy": -11.896, "internal_energy": 0.093}

$$$$
3fur_ligand
     RDKit          3D

 43 46  0  0  0  0  0  0  0  0999 V2000
    4.5930    3.6950   25.1800 O   0  0  0  0  0  0  0  0  0  0  0  0
    5.1630    4.9140   25.7070 S   0  0  0  0  0  0  0  0  0  0  0  0
    6.5070    5.3440   25.3930 O   0  0  0  0  0  0  0  0  0  0  0  0
    4.1740    6.1930   25.2180 N   0  0  0  0  0  0  0  0  0  0  0  0
    4.6000    7.5570   25.2220 C   0  0  0  0  0  0  0  0  0  0  0  0
    3.6350    8.5230   24.9250 C   0  0  0  0  0  0  0  0  0  0  0  0
    3.9850    9.8750   24.8290 C   0  0  0  0  0  0  0  0  0  0  0  0
    2.7440   11.0070   24.4340 Cl  0  0  0  0  0  0  0  0  0  0  0  0
    5.3100   10.2740   25.0240 C   0  0  0  0  0  0  0  0  0  0  0  0
    5.6800   11.5910   24.8900 O   0  0  0  0  0  0  0  0  0  0  0  0
    5.7210   12.1170   23.6210 C   0  0  0  0  0  0  0  0  0  0  0  0
    6.5510   13.1370   23.1800 C   0  0  0  0  0  0  0  0  0  0  0  0
    6.5570   13.6180   21.9130 N   0  0  0  0  0  0  0  0  0  0  0  0
    5.7170   13.0610   21.0230 C   0  0  0  0  0  0  0  0  0  0  0  0
    5.6970   13.5270   19.7150 C   0  0  0  0  0  0  0  0  0  0  0  0
    4.8440   12.9810   18.7520 C   0  0  0  0  0  0  0  0  0  0  0  0
    3.9870   11.9420   19.0960 C   0  0  0  0  0  0  0  0  0  0  0  0
    3.9850   11.4540   20.4020 C   0  0  0  0  0  0  0  0  0  0  0  0
    4.8430   12.0070   21.3680 C   0  0  0  0  0  0  0  0  0  0  0  0
    4.8640   11.5400   22.6890 C   0  0  0  0  0  0  0  0  0  0  0  0
    6.2860    9.3010   25.2570 C   0  0  0  0  0  0  0  0  0  0  0  0
    7.9520    9.7250   25.4250 Cl  0  0  0  0  0  0  0  0  0  0  0  0
    5.9340    7.9490   25.3520 C   0  0  0  0  0  0  0  0  0  0  0  0
    5.0470    4.8910   27.4770 C   0  0  0  0  0  0  0  0  0  0  0  0
    6.2150    4.9080   28.2580 C   0  0  0  0  0  0  0  0  0  0  0  0
    6.1240    4.9120   29.6510 C   0  0  0  0  0  0  0  0  0  0  0  0
    4.8740    4.8880   30.2630 C   0  0  0  0  0  0  0  0  0  0  0  0
    4.7640    4.8920   31.9790 Cl  0  0  0  0  0  0  0  0  0  0  0  0
    3.7120    4.8540   29.4950 C   0  0  0  0  0  0  0  0  0  0  0  0
    3.7940    4.8500   28.0970 C   0  0  0  0  0  0  0  0  0  0  0  0
    2.3000    4.7540   27.2370 Cl  0  0  0  0  0  0  0  0  0  0  0  0
    3.1970    5.9890   25.4380 H   0  0  0  0  0  0  0  0  0  0  0  0
    2.5903    8.2181   24.7651 H   0  0  0  0  0  0  0  0  0  0  0  0
    7.2482   13.5836   23.9042 H   0  0  0  0  0  0  0  0  0  0  0  0
    6.3708   14.3481   19.4291 H   0  0  0  0  0  0  0  0  0  0  0  0
    4.8508   13.3726   17.7241 H   0  0  0  0  0  0  0  0  0  0  0  0
    3.3142   11.5073   18.3421 H   0  0  0  0  0  0  0  0  0  0  0  0
    3.3083   10.6318   20.6778 H   0  0  0  0  0  0  0  0  0  0  0  0
    4.2013   10.7152   22.9899 H   0  0  0  0  0  0  0  0  0  0  0  0
    6.7121    7.1920   25.5299 H   0  0  0  0  0  0  0  0  0  0  0  0
    7.2015    4.9182   27.7715 H   0  0  0  0  0  0  0  0  0  0  0  0
    7.0375    4.9341   30.2633 H   0  0  0  0  0  0  0  0  0  0  0  0
    2.7287    4.8303   29.9875 H   0  0  0  0  0  0  0  0  0  0  0  0
  1  2  2  0
  2  3  2  0
  2  4  1  0
  4  5  1  0
  5  6  2  0
  6  7  1  0
  7  8  1  0
  7  9  2  0
  9 10  1  0
 10 11  1  0
 11 12  2  0
 12 13  1  0
 13 14  2  0
 14 15  1  0
 15 16  2  0
 16 17  1  0
 17 18  2  0
 18 19  1  0
 19 20  2  0
  9 21  1  0
 21 22  1  0
 21 23  2  0
  2 24  1  0
 24 25  2  0
 25 26  1  0
 26 27  2  0
 27 28  1  0
 27 29  1  0
 29 30  2  0
 30 31  1  0
 23  5  1  0
 30 24  1  0
 20 11  1  0
 19 14  1  0
  4 32  1  0
  6 33  1  0
 12 34  1  0
 15 35  1  0
 16 36  1  0
 17 37  1  0
 18 38  1  0
 20 39  1  0
 23 40  1  0
 25 41  1  0
 26 42  1  0
 29 43  1  0
M  END
>  <meeko>  (6) 
{"is_sidechain": [false], "free_energy": -8.767, "intermolecular_energy": -12.601, "internal_energy": 1.251}

$$$$
3fur_ligand
     RDKit          3D

 43 46  0  0  0  0  0  0  0  0999 V2000
    8.0110   10.8930   24.5180 O   0  0  0  0  0  0  0  0  0  0  0  0
    6.9120   11.7500   24.8970 S   0  0  0  0  0  0  0  0  0  0  0  0
    6.8420   13.1430   24.5130 O   0  0  0  0  0  0  0  0  0  0  0  0
    5.4940   11.0620   24.2880 N   0  0  0  0  0  0  0  0  0  0  0  0
    5.0070    9.7820   24.6950 C   0  0  0  0  0  0  0  0  0  0  0  0
    5.9490    8.7590   24.8310 C   0  0  0  0  0  0  0  0  0  0  0  0
    5.5480    7.4570   25.1490 C   0  0  0  0  0  0  0  0  0  0  0  0
    6.7660    6.2410   25.2740 Cl  0  0  0  0  0  0  0  0  0  0  0  0
    4.1930    7.1630   25.3280 C   0  0  0  0  0  0  0  0  0  0  0  0
    3.7770    5.8810   25.5970 O   0  0  0  0  0  0  0  0  0  0  0  0
    3.6940    5.5010   26.9160 C   0  0  0  0  0  0  0  0  0  0  0  0
    2.5320    5.2170   27.6180 C   0  0  0  0  0  0  0  0  0  0  0  0
    2.5030    4.8390   28.9190 N   0  0  0  0  0  0  0  0  0  0  0  0
    3.6750    4.7180   29.5670 C   0  0  0  0  0  0  0  0  0  0  0  0
    3.6840    4.3320   30.9010 C   0  0  0  0  0  0  0  0  0  0  0  0
    4.8750    4.1890   31.6170 C   0  0  0  0  0  0  0  0  0  0  0  0
    6.0920    4.4350   30.9930 C   0  0  0  0  0  0  0  0  0  0  0  0
    6.1140    4.8250   29.6550 C   0  0  0  0  0  0  0  0  0  0  0  0
    4.9130    4.9690   28.9380 C   0  0  0  0  0  0  0  0  0  0  0  0
    4.9020    5.3590   27.5920 C   0  0  0  0  0  0  0  0  0  0  0  0
    3.2460    8.1710   25.1290 C   0  0  0  0  0  0  0  0  0  0  0  0
    1.5550    7.8490   25.2580 Cl  0  0  0  0  0  0  0  0  0  0  0  0
    3.6500    9.4730   24.8110 C   0  0  0  0  0  0  0  0  0  0  0  0
    6.7240   11.7090   26.6600 C   0  0  0  0  0  0  0  0  0  0  0  0
    5.8460   12.6030   27.2940 C   0  0  0  0  0  0  0  0  0  0  0  0
    5.6820   12.5580   28.6800 C   0  0  0  0  0  0  0  0  0  0  0  0
    6.3980   11.6300   29.4310 C   0  0  0  0  0  0  0  0  0  0  0  0
    6.1950   11.5760   31.1380 Cl  0  0  0  0  0  0  0  0  0  0  0  0
    7.2830   10.7520   28.8100 C   0  0  0  0  0  0  0  0  0  0  0  0
    7.4540   10.7900   27.4210 C   0  0  0  0  0  0  0  0  0  0  0  0
    8.6120    9.6970   26.7550 Cl  0  0  0  0  0  0  0  0  0  0  0  0
    5.3500   11.3510   23.3180 H   0  0  0  0  0  0  0  0  0  0  0  0
    7.0169    8.9797   24.6865 H   0  0  0  0  0  0  0  0  0  0  0  0
    1.5736    5.3041   27.0851 H   0  0  0  0  0  0  0  0  0  0  0  0
    2.7278    4.1336   31.4073 H   0  0  0  0  0  0  0  0  0  0  0  0
    4.8495    3.8822   32.6730 H   0  0  0  0  0  0  0  0  0  0  0  0
    7.0328    4.3226   31.5519 H   0  0  0  0  0  0  0  0  0  0  0  0
    7.0754    5.0210   29.1577 H   0  0  0  0  0  0  0  0  0  0  0  0
    5.8500    5.5532   27.0689 H   0  0  0  0  0  0  0  0  0  0  0  0
    2.8948   10.2567   24.6517 H   0  0  0  0  0  0  0  0  0  0  0  0
    5.2869   13.3395   26.6982 H   0  0  0  0  0  0  0  0  0  0  0  0
    4.9894   13.2535   29.1767 H   0  0  0  0  0  0  0  0  0  0  0  0
    7.8493   10.0266   29.4126 H   0  0  0  0  0  0  0  0  0  0  0  0
  1  2  2  0
  2  3  2  0
  2  4  1  0
  4  5  1  0
  5  6  2  0
  6  7  1  0
  7  8  1  0
  7  9  2  0
  9 10  1  0
 10 11  1  0
 11 12  2  0
 12 13  1  0
 13 14  2  0
 14 15  1  0
 15 16  2  0
 16 17  1  0
 17 18  2  0
 18 19  1  0
 19 20  2  0
  9 21  1  0
 21 22  1  0
 21 23  2  0
  2 24  1  0
 24 25  2  0
 25 26  1  0
 26 27  2  0
 27 28  1  0
 27 29  1  0
 29 30  2  0
 30 31  1  0
 23  5  1  0
 30 24  1  0
 20 11  1  0
 19 14  1  0
  4 32  1  0
  6 33  1  0
 12 34  1  0
 15 35  1  0
 16 36  1  0
 17 37  1  0
 18 38  1  0
 20 39  1  0
 23 40  1  0
 25 41  1  0
 26 42  1  0
 29 43  1  0
M  END
>  <meeko>  (7) 
{"is_sidechain": [false], "free_energy": -8.592, "intermolecular_energy": -11.151, "internal_energy": 0.028}

$$$$
