3p5o_ligand
     RDKit          3D

 52 55  0  0  0  0  0  0  0  0999 V2000
   23.9720   50.1680   -7.1060 C   0  0  0  0  0  0  0  0  0  0  0  0
   23.4000   51.3900   -6.4080 C   0  0  0  0  0  0  0  0  0  0  0  0
   23.2520   51.1710   -4.9870 N   0  0  0  0  0  0  0  0  0  0  0  0
   23.3790   52.1960   -4.0770 C   0  0  0  0  0  0  0  0  0  0  0  0
   23.7070   53.3400   -4.3810 O   0  0  0  0  0  0  0  0  0  0  0  0
   23.0400   51.8160   -2.6540 C   0  0  0  0  0  0  0  0  0  0  0  0
   24.2970   51.3520   -1.9160 C   0  0  2  0  0  0  0  0  0  0  0  0
   25.2690   50.9180   -2.9220 N   0  0  0  0  0  0  0  0  0  0  0  0
   26.4750   50.6210   -2.5670 C   0  0  0  0  0  0  0  0  0  0  0  0
   27.3970   50.1500   -3.6540 C   0  0  0  0  0  0  0  0  0  0  0  0
   27.1150   50.5010   -4.9820 C   0  0  0  0  0  0  0  0  0  0  0  0
   27.9490   50.0690   -6.0160 C   0  0  0  0  0  0  0  0  0  0  0  0
   29.0580   49.2760   -5.7240 C   0  0  0  0  0  0  0  0  0  0  0  0
   30.0860   48.7420   -6.9950 Cl  0  0  0  0  0  0  0  0  0  0  0  0
   29.3360   48.9070   -4.4070 C   0  0  0  0  0  0  0  0  0  0  0  0
   28.5030   49.3390   -3.3710 C   0  0  0  0  0  0  0  0  0  0  0  0
   27.0030   50.7050   -1.1660 C   0  0  0  0  0  0  0  0  0  0  0  0
   28.2720   51.2820   -0.9910 C   0  0  0  0  0  0  0  0  0  0  0  0
   28.8880   51.3100    0.2610 C   0  0  0  0  0  0  0  0  0  0  0  0
   30.1250   51.8900    0.2760 O   0  0  0  0  0  0  0  0  0  0  0  0
   30.8160   51.9160    1.5190 C   0  0  0  0  0  0  0  0  0  0  0  0
   28.2270   50.7620    1.3570 C   0  0  0  0  0  0  0  0  0  0  0  0
   26.9500   50.2060    1.2060 C   0  0  0  0  0  0  0  0  0  0  0  0
   26.3260   50.1800   -0.0500 C   0  0  0  0  0  0  0  0  0  0  0  0
   24.9980   49.6930   -0.1590 N   0  0  0  0  0  0  0  0  0  0  0  0
   24.3480   48.6980    0.5560 C   0  0  0  0  0  0  0  0  0  0  0  0
   24.9710   47.7460    1.5050 C   0  0  0  0  0  0  0  0  0  0  0  0
   23.0840   48.6490    0.1830 N   0  0  0  0  0  0  0  0  0  0  0  0
   22.8890   49.5730   -0.8010 N   0  0  0  0  0  0  0  0  0  0  0  0
   24.0300   50.2020   -1.0010 C   0  0  0  0  0  0  0  0  0  0  0  0
   24.3121   49.4415   -6.3533 H   0  0  0  0  0  0  0  0  0  0  0  0
   23.1956   49.7081   -7.7350 H   0  0  0  0  0  0  0  0  0  0  0  0
   24.8225   50.4696   -7.7350 H   0  0  0  0  0  0  0  0  0  0  0  0
   24.0764   52.2424   -6.5692 H   0  0  0  0  0  0  0  0  0  0  0  0
   22.4047   51.5927   -6.8302 H   0  0  0  0  0  0  0  0  0  0  0  0
   22.7040   50.3620   -4.6960 H   0  0  0  0  0  0  0  0  0  0  0  0
   22.6163   52.6891   -2.1361 H   0  0  0  0  0  0  0  0  0  0  0  0
   22.3083   50.9947   -2.6670 H   0  0  0  0  0  0  0  0  0  0  0  0
   24.6665   52.1889   -1.3053 H   0  0  0  0  0  0  0  0  0  0  0  0
   26.2339   51.1187   -5.2103 H   0  0  0  0  0  0  0  0  0  0  0  0
   27.7317   50.3532   -7.0562 H   0  0  0  0  0  0  0  0  0  0  0  0
   30.2097   48.2769   -4.1845 H   0  0  0  0  0  0  0  0  0  0  0  0
   28.7162   49.0420   -2.3335 H   0  0  0  0  0  0  0  0  0  0  0  0
   28.7898   51.7199   -1.8571 H   0  0  0  0  0  0  0  0  0  0  0  0
   30.0885   51.8886    2.3436 H   0  0  0  0  0  0  0  0  0  0  0  0
   31.4807   51.0422    1.5873 H   0  0  0  0  0  0  0  0  0  0  0  0
   31.4132   52.8373    1.5873 H   0  0  0  0  0  0  0  0  0  0  0  0
   28.7094   50.7656    2.3456 H   0  0  0  0  0  0  0  0  0  0  0  0
   26.4318   49.7859    2.0806 H   0  0  0  0  0  0  0  0  0  0  0  0
   24.7614   48.0662    2.5363 H   0  0  0  0  0  0  0  0  0  0  0  0
   24.5555   46.7407    1.3417 H   0  0  0  0  0  0  0  0  0  0  0  0
   26.0586   47.7243    1.3417 H   0  0  0  0  0  0  0  0  0  0  0  0
  1  2  1  0
  2  3  1  0
  3  4  1  0
  4  5  2  0
  4  6  1  0
  6  7  1  0
  7  8  1  0
  8  9  2  0
  9 10  1  0
 10 11  2  0
 11 12  1  0
 12 13  2  0
 13 14  1  0
 13 15  1  0
 15 16  2  0
  9 17  1  0
 17 18  2  0
 18 19  1  0
 19 20  1  0
 20 21  1  0
 19 22  2  0
 22 23  1  0
 23 24  2  0
 24 25  1  0
 25 26  1  0
 26 27  1  0
 26 28  2  0
 28 29  1  0
 29 30  2  0
 30  7  1  0
 16 10  1  0
 24 17  1  0
 30 25  1  0
  1 31  1  0
  1 32  1  0
  1 33  1  0
  2 34  1  0
  2 35  1  0
  3 36  1  0
  6 37  1  0
  6 38  1  0
  7 39  1  1
 11 40  1  0
 12 41  1  0
 15 42  1  0
 16 43  1  0
 18 44  1  0
 21 45  1  0
 21 46  1  0
 21 47  1  0
 22 48  1  0
 23 49  1  0
 27 50  1  0
 27 51  1  0
 27 52  1  0
M  END
>  <meeko>  (1) 
{"is_sidechain": [false], "free_energy": -9.067, "intermolecular_energy": -11.717, "internal_energy": -1.102}

$$$$
3p5o_ligand
     RDKit          3D

 52 55  0  0  0  0  0  0  0  0999 V2000
   23.6480   46.3360    3.9140 C   0  0  0  0  0  0  0  0  0  0  0  0
   22.9290   46.2680    2.5780 C   0  0  0  0  0  0  0  0  0  0  0  0
   22.8240   47.5710    1.9620 N   0  0  0  0  0  0  0  0  0  0  0  0
   23.6740   47.9690    0.9550 C   0  0  0  0  0  0  0  0  0  0  0  0
   24.6270   47.3000    0.5640 O   0  0  0  0  0  0  0  0  0  0  0  0
   23.3200   49.2970    0.3250 C   0  0  0  0  0  0  0  0  0  0  0  0
   24.3650   49.6800   -0.7240 C   0  0  2  0  0  0  0  0  0  0  0  0
   25.5640   50.1320   -0.0150 N   0  0  0  0  0  0  0  0  0  0  0  0
   26.6510   50.3700   -0.6710 C   0  0  0  0  0  0  0  0  0  0  0  0
   27.8210   50.8660    0.1260 C   0  0  0  0  0  0  0  0  0  0  0  0
   27.8110   50.7010    1.5180 C   0  0  0  0  0  0  0  0  0  0  0  0
   28.8820   51.1620    2.2890 C   0  0  0  0  0  0  0  0  0  0  0  0
   29.9570   51.7970    1.6690 C   0  0  0  0  0  0  0  0  0  0  0  0
   31.2760   52.3650    2.6140 Cl  0  0  0  0  0  0  0  0  0  0  0  0
   29.9680   51.9800    0.2850 C   0  0  0  0  0  0  0  0  0  0  0  0
   28.8970   51.5200   -0.4880 C   0  0  0  0  0  0  0  0  0  0  0  0
   26.8140   50.1940   -2.1520 C   0  0  0  0  0  0  0  0  0  0  0  0
   27.9900   49.5670   -2.5990 C   0  0  0  0  0  0  0  0  0  0  0  0
   28.2770   49.4530   -3.9600 C   0  0  0  0  0  0  0  0  0  0  0  0
   29.4600   48.8310   -4.2430 O   0  0  0  0  0  0  0  0  0  0  0  0
   29.9470   48.9360   -5.5750 C   0  0  0  0  0  0  0  0  0  0  0  0
   27.3770   49.9650   -4.8900 C   0  0  0  0  0  0  0  0  0  0  0  0
   26.1880   50.5700   -4.4640 C   0  0  0  0  0  0  0  0  0  0  0  0
   25.8930   50.6830   -3.0970 C   0  0  0  0  0  0  0  0  0  0  0  0
   24.6440   51.2190   -2.6940 N   0  0  0  0  0  0  0  0  0  0  0  0
   23.8570   52.1970   -3.2850 C   0  0  0  0  0  0  0  0  0  0  0  0
   24.2450   53.0760   -4.4130 C   0  0  0  0  0  0  0  0  0  0  0  0
   22.7250   52.3080   -2.6170 N   0  0  0  0  0  0  0  0  0  0  0  0
   22.7620   51.4430   -1.5630 N   0  0  0  0  0  0  0  0  0  0  0  0
   23.9030   50.7890   -1.6120 C   0  0  0  0  0  0  0  0  0  0  0  0
   22.9133   46.2665    4.7297 H   0  0  0  0  0  0  0  0  0  0  0  0
   24.3603   45.5012    3.9900 H   0  0  0  0  0  0  0  0  0  0  0  0
   24.1912   47.2895    3.9900 H   0  0  0  0  0  0  0  0  0  0  0  0
   23.4874   45.5997    1.9060 H   0  0  0  0  0  0  0  0  0  0  0  0
   21.9117   45.8885    2.7544 H   0  0  0  0  0  0  0  0  0  0  0  0
   21.9180   48.0370    2.0120 H   0  0  0  0  0  0  0  0  0  0  0  0
   22.3339   49.2194   -0.1561 H   0  0  0  0  0  0  0  0  0  0  0  0
   23.2968   50.0702    1.1071 H   0  0  0  0  0  0  0  0  0  0  0  0
   24.5559   48.8005   -1.3564 H   0  0  0  0  0  0  0  0  0  0  0  0
   26.9574   50.2071    2.0053 H   0  0  0  0  0  0  0  0  0  0  0  0
   28.8765   51.0243    3.3803 H   0  0  0  0  0  0  0  0  0  0  0  0
   30.8179   52.4853   -0.1969 H   0  0  0  0  0  0  0  0  0  0  0  0
   28.8996   51.6717   -1.5775 H   0  0  0  0  0  0  0  0  0  0  0  0
   28.6973   49.1585   -1.8622 H   0  0  0  0  0  0  0  0  0  0  0  0
   31.0221   49.1678   -5.5551 H   0  0  0  0  0  0  0  0  0  0  0  0
   29.7871   47.9827   -6.1001 H   0  0  0  0  0  0  0  0  0  0  0  0
   29.4085   49.7387   -6.1001 H   0  0  0  0  0  0  0  0  0  0  0  0
   27.6007   49.8941   -5.9647 H   0  0  0  0  0  0  0  0  0  0  0  0
   25.4785   50.9604   -5.2084 H   0  0  0  0  0  0  0  0  0  0  0  0
   24.6598   54.0158   -4.0196 H   0  0  0  0  0  0  0  0  0  0  0  0
   25.0033   52.5697   -5.0284 H   0  0  0  0  0  0  0  0  0  0  0  0
   23.3599   53.2951   -5.0284 H   0  0  0  0  0  0  0  0  0  0  0  0
  1  2  1  0
  2  3  1  0
  3  4  1  0
  4  5  2  0
  4  6  1  0
  6  7  1  0
  7  8  1  0
  8  9  2  0
  9 10  1  0
 10 11  2  0
 11 12  1  0
 12 13  2  0
 13 14  1  0
 13 15  1  0
 15 16  2  0
  9 17  1  0
 17 18  2  0
 18 19  1  0
 19 20  1  0
 20 21  1  0
 19 22  2  0
 22 23  1  0
 23 24  2  0
 24 25  1  0
 25 26  1  0
 26 27  1  0
 26 28  2  0
 28 29  1  0
 29 30  2  0
 30  7  1  0
 16 10  1  0
 24 17  1  0
 30 25  1  0
  1 31  1  0
  1 32  1  0
  1 33  1  0
  2 34  1  0
  2 35  1  0
  3 36  1  0
  6 37  1  0
  6 38  1  0
  7 39  1  6
 11 40  1  0
 12 41  1  0
 15 42  1  0
 16 43  1  0
 18 44  1  0
 21 45  1  0
 21 46  1  0
 21 47  1  0
 22 48  1  0
 23 49  1  0
 27 50  1  0
 27 51  1  0
 27 52  1  0
M  END
>  <meeko>  (2) 
{"is_sidechain": [false], "free_energy": -8.702, "intermolecular_energy": -11.894, "internal_energy": -0.454}

$$$$
3p5o_ligand
     RDKit          3D

 52 55  0  0  0  0  0  0  0  0999 V2000
   25.7220   47.6690    1.1040 C   0  0  0  0  0  0  0  0  0  0  0  0
   24.2070   47.5860    1.0340 C   0  0  0  0  0  0  0  0  0  0  0  0
   23.6810   48.3740   -0.0580 N   0  0  0  0  0  0  0  0  0  0  0  0
   23.3440   49.6990    0.0990 C   0  0  0  0  0  0  0  0  0  0  0  0
   23.3790   50.2880    1.1760 O   0  0  0  0  0  0  0  0  0  0  0  0
   22.9590   50.4040   -1.1820 C   0  0  0  0  0  0  0  0  0  0  0  0
   24.1780   50.5440   -2.0960 C   0  0  2  0  0  0  0  0  0  0  0  0
   25.3490   50.7700   -1.2460 N   0  0  0  0  0  0  0  0  0  0  0  0
   26.5320   50.7700   -1.7640 C   0  0  0  0  0  0  0  0  0  0  0  0
   27.6730   51.0470   -0.8300 C   0  0  0  0  0  0  0  0  0  0  0  0
   27.5610   50.6580    0.5120 C   0  0  0  0  0  0  0  0  0  0  0  0
   28.6020   50.9110    1.4080 C   0  0  0  0  0  0  0  0  0  0  0  0
   29.7530   51.5630    0.9640 C   0  0  0  0  0  0  0  0  0  0  0  0
   31.0360   51.8760    2.0640 Cl  0  0  0  0  0  0  0  0  0  0  0  0
   29.8660   51.9690   -0.3660 C   0  0  0  0  0  0  0  0  0  0  0  0
   28.8250   51.7170   -1.2640 C   0  0  0  0  0  0  0  0  0  0  0  0
   26.8340   50.5270   -3.2130 C   0  0  0  0  0  0  0  0  0  0  0  0
   27.9050   49.6680   -3.5110 C   0  0  0  0  0  0  0  0  0  0  0  0
   28.3250   49.4620   -4.8260 C   0  0  0  0  0  0  0  0  0  0  0  0
   29.3860   48.6120   -4.9600 O   0  0  0  0  0  0  0  0  0  0  0  0
   30.1670   48.7290   -6.1430 C   0  0  0  0  0  0  0  0  0  0  0  0
   27.6630   50.1170   -5.8610 C   0  0  0  0  0  0  0  0  0  0  0  0
   26.5770   50.9570   -5.5850 C   0  0  0  0  0  0  0  0  0  0  0  0
   26.1490   51.1620   -4.2660 C   0  0  0  0  0  0  0  0  0  0  0  0
   24.9920   51.9450   -4.0200 N   0  0  0  0  0  0  0  0  0  0  0  0
   24.4930   53.0430   -4.7060 C   0  0  0  0  0  0  0  0  0  0  0  0
   25.1810   53.7980   -5.7800 C   0  0  0  0  0  0  0  0  0  0  0  0
   23.3340   53.3930   -4.1820 N   0  0  0  0  0  0  0  0  0  0  0  0
   23.0710   52.5670   -3.1300 N   0  0  0  0  0  0  0  0  0  0  0  0
   24.0560   51.6990   -3.0370 C   0  0  0  0  0  0  0  0  0  0  0  0
   26.0400   47.6864    2.1569 H   0  0  0  0  0  0  0  0  0  0  0  0
   26.1607   46.7935    0.6029 H   0  0  0  0  0  0  0  0  0  0  0  0
   26.0625   48.5871    0.6029 H   0  0  0  0  0  0  0  0  0  0  0  0
   23.9132   46.5357    0.8903 H   0  0  0  0  0  0  0  0  0  0  0  0
   23.7967   47.9834    1.9741 H   0  0  0  0  0  0  0  0  0  0  0  0
   23.9020   48.0630   -1.0040 H   0  0  0  0  0  0  0  0  0  0  0  0
   22.1828   49.8204   -1.6986 H   0  0  0  0  0  0  0  0  0  0  0  0
   22.5763   51.4062   -0.9387 H   0  0  0  0  0  0  0  0  0  0  0  0
   24.2644   49.6272   -2.6976 H   0  0  0  0  0  0  0  0  0  0  0  0
   26.6492   50.1512    0.8610 H   0  0  0  0  0  0  0  0  0  0  0  0
   28.5150   50.5977    2.4589 H   0  0  0  0  0  0  0  0  0  0  0  0
   30.7741   52.4873   -0.7078 H   0  0  0  0  0  0  0  0  0  0  0  0
   28.9098   52.0443   -2.3107 H   0  0  0  0  0  0  0  0  0  0  0  0
   28.4228   49.1475   -2.6918 H   0  0  0  0  0  0  0  0  0  0  0  0
   31.2214   48.8870   -5.8722 H   0  0  0  0  0  0  0  0  0  0  0  0
   30.0749   47.8070   -6.7359 H   0  0  0  0  0  0  0  0  0  0  0  0
   29.8087   49.5835   -6.7359 H   0  0  0  0  0  0  0  0  0  0  0  0
   27.9945   49.9741   -6.9001 H   0  0  0  0  0  0  0  0  0  0  0  0
   26.0546   51.4610   -6.4115 H   0  0  0  0  0  0  0  0  0  0  0  0
   25.8574   54.5402   -5.3310 H   0  0  0  0  0  0  0  0  0  0  0  0
   25.7620   53.1021   -6.4031 H   0  0  0  0  0  0  0  0  0  0  0  0
   24.4343   54.3120   -6.4031 H   0  0  0  0  0  0  0  0  0  0  0  0
  1  2  1  0
  2  3  1  0
  3  4  1  0
  4  5  2  0
  4  6  1  0
  6  7  1  0
  7  8  1  0
  8  9  2  0
  9 10  1  0
 10 11  2  0
 11 12  1  0
 12 13  2  0
 13 14  1  0
 13 15  1  0
 15 16  2  0
  9 17  1  0
 17 18  2  0
 18 19  1  0
 19 20  1  0
 20 21  1  0
 19 22  2  0
 22 23  1  0
 23 24  2  0
 24 25  1  0
 25 26  1  0
 26 27  1  0
 26 28  2  0
 28 29  1  0
 29 30  2  0
 30  7  1  0
 16 10  1  0
 24 17  1  0
 30 25  1  0
  1 31  1  0
  1 32  1  0
  1 33  1  0
  2 34  1  0
  2 35  1  0
  3 36  1  0
  6 37  1  0
  6 38  1  0
  7 39  1  6
 11 40  1  0
 12 41  1  0
 15 42  1  0
 16 43  1  0
 18 44  1  0
 21 45  1  0
 21 46  1  0
 21 47  1  0
 22 48  1  0
 23 49  1  0
 27 50  1  0
 27 51  1  0
 27 52  1  0
M  END
>  <meeko>  (3) 
{"is_sidechain": [false], "free_energy": -8.113, "intermolecular_energy": -10.397, "internal_energy": -1.19}

$$$$
3p5o_ligand
     RDKit          3D

 52 55  0  0  0  0  0  0  0  0999 V2000
   24.5670   52.3510   -8.8570 C   0  0  0  0  0  0  0  0  0  0  0  0
   25.5290   51.2250   -9.1940 C   0  0  0  0  0  0  0  0  0  0  0  0
   26.3350   50.8530   -8.0530 N   0  0  0  0  0  0  0  0  0  0  0  0
   26.1350   49.6710   -7.3760 C   0  0  0  0  0  0  0  0  0  0  0  0
   25.2200   48.8910   -7.6250 O   0  0  0  0  0  0  0  0  0  0  0  0
   27.1660   49.3770   -6.3110 C   0  0  0  0  0  0  0  0  0  0  0  0
   26.6100   49.7170   -4.9280 C   0  0  2  0  0  0  0  0  0  0  0  0
   25.4610   50.6060   -5.1150 N   0  0  0  0  0  0  0  0  0  0  0  0
   24.7160   50.9200   -4.1070 C   0  0  0  0  0  0  0  0  0  0  0  0
   23.5840   51.8650   -4.3790 C   0  0  0  0  0  0  0  0  0  0  0  0
   22.9130   51.7840   -5.6070 C   0  0  0  0  0  0  0  0  0  0  0  0
   21.8610   52.6580   -5.8930 C   0  0  0  0  0  0  0  0  0  0  0  0
   21.4870   53.6200   -4.9560 C   0  0  0  0  0  0  0  0  0  0  0  0
   20.1930   54.6970   -5.3050 Cl  0  0  0  0  0  0  0  0  0  0  0  0
   22.1600   53.7190   -3.7380 C   0  0  0  0  0  0  0  0  0  0  0  0
   23.2130   52.8460   -3.4490 C   0  0  0  0  0  0  0  0  0  0  0  0
   24.9120   50.4180   -2.7080 C   0  0  0  0  0  0  0  0  0  0  0  0
   23.7670   49.9950   -2.0110 C   0  0  0  0  0  0  0  0  0  0  0  0
   23.8350   49.6100   -0.6710 C   0  0  0  0  0  0  0  0  0  0  0  0
   22.6410   49.2360   -0.1230 O   0  0  0  0  0  0  0  0  0  0  0  0
   22.6640   48.1720    0.8200 C   0  0  0  0  0  0  0  0  0  0  0  0
   25.0640   49.6390   -0.0170 C   0  0  0  0  0  0  0  0  0  0  0  0
   26.2200   50.0330   -0.7020 C   0  0  0  0  0  0  0  0  0  0  0  0
   26.1560   50.4170   -2.0500 C   0  0  0  0  0  0  0  0  0  0  0  0
   27.3530   50.7250   -2.7460 N   0  0  0  0  0  0  0  0  0  0  0  0
   28.5280   51.3050   -2.2910 C   0  0  0  0  0  0  0  0  0  0  0  0
   28.7450   51.9350   -0.9670 C   0  0  0  0  0  0  0  0  0  0  0  0
   29.4170   51.3110   -3.2660 N   0  0  0  0  0  0  0  0  0  0  0  0
   28.8370   50.7760   -4.3790 N   0  0  0  0  0  0  0  0  0  0  0  0
   27.6080   50.4210   -4.0670 C   0  0  0  0  0  0  0  0  0  0  0  0
   24.4842   52.4479   -7.7644 H   0  0  0  0  0  0  0  0  0  0  0  0
   24.9429   53.2937   -9.2813 H   0  0  0  0  0  0  0  0  0  0  0  0
   23.5772   52.1269   -9.2813 H   0  0  0  0  0  0  0  0  0  0  0  0
   24.9513   50.3489   -9.5236 H   0  0  0  0  0  0  0  0  0  0  0  0
   26.2020   51.5749   -9.9907 H   0  0  0  0  0  0  0  0  0  0  0  0
   27.2610   51.2750   -7.9810 H   0  0  0  0  0  0  0  0  0  0  0  0
   27.4283   48.3093   -6.3445 H   0  0  0  0  0  0  0  0  0  0  0  0
   28.0599   49.9900   -6.4986 H   0  0  0  0  0  0  0  0  0  0  0  0
   26.3384   48.7763   -4.4266 H   0  0  0  0  0  0  0  0  0  0  0  0
   23.2157   51.0297   -6.3482 H   0  0  0  0  0  0  0  0  0  0  0  0
   21.3300   52.5872   -6.8538 H   0  0  0  0  0  0  0  0  0  0  0  0
   21.8623   54.4836   -3.0054 H   0  0  0  0  0  0  0  0  0  0  0  0
   23.7500   52.9289   -2.4926 H   0  0  0  0  0  0  0  0  0  0  0  0
   22.7985   49.9668   -2.5317 H   0  0  0  0  0  0  0  0  0  0  0  0
   22.6551   48.5853    1.8394 H   0  0  0  0  0  0  0  0  0  0  0  0
   21.7794   47.5344    0.6751 H   0  0  0  0  0  0  0  0  0  0  0  0
   23.5753   47.5732    0.6751 H   0  0  0  0  0  0  0  0  0  0  0  0
   25.1271   49.3510    1.0428 H   0  0  0  0  0  0  0  0  0  0  0  0
   27.1873   50.0415   -0.1784 H   0  0  0  0  0  0  0  0  0  0  0  0
   28.4970   51.2150   -0.1733 H   0  0  0  0  0  0  0  0  0  0  0  0
   29.7987   52.2363   -0.8726 H   0  0  0  0  0  0  0  0  0  0  0  0
   28.1003   52.8213   -0.8726 H   0  0  0  0  0  0  0  0  0  0  0  0
  1  2  1  0
  2  3  1  0
  3  4  1  0
  4  5  2  0
  4  6  1  0
  6  7  1  0
  7  8  1  0
  8  9  2  0
  9 10  1  0
 10 11  2  0
 11 12  1  0
 12 13  2  0
 13 14  1  0
 13 15  1  0
 15 16  2  0
  9 17  1  0
 17 18  2  0
 18 19  1  0
 19 20  1  0
 20 21  1  0
 19 22  2  0
 22 23  1  0
 23 24  2  0
 24 25  1  0
 25 26  1  0
 26 27  1  0
 26 28  2  0
 28 29  1  0
 29 30  2  0
 30  7  1  0
 16 10  1  0
 24 17  1  0
 30 25  1  0
  1 31  1  0
  1 32  1  0
  1 33  1  0
  2 34  1  0
  2 35  1  0
  3 36  1  0
  6 37  1  0
  6 38  1  0
  7 39  1  1
 11 40  1  0
 12 41  1  0
 15 42  1  0
 16 43  1  0
 18 44  1  0
 21 45  1  0
 21 46  1  0
 21 47  1  0
 22 48  1  0
 23 49  1  0
 27 50  1  0
 27 51  1  0
 27 52  1  0
M  END
>  <meeko>  (4) 
{"is_sidechain": [false], "free_energy": -6.924, "intermolecular_energy": -8.876, "internal_energy": -1.174}

$$$$
3p5o_ligand
     RDKit          3D

 52 55  0  0  0  0  0  0  0  0999 V2000
   28.1180   48.8180   -5.6030 C   0  0  0  0  0  0  0  0  0  0  0  0
   27.4060   49.2600   -6.8700 C   0  0  0  0  0  0  0  0  0  0  0  0
   26.0860   49.7770   -6.5870 N   0  0  0  0  0  0  0  0  0  0  0  0
   25.0540   49.6680   -7.4910 C   0  0  0  0  0  0  0  0  0  0  0  0
   25.1850   49.2140   -8.6240 O   0  0  0  0  0  0  0  0  0  0  0  0
   23.7110   50.1220   -6.9660 C   0  0  0  0  0  0  0  0  0  0  0  0
   23.8720   51.3920   -6.1290 C   0  0  2  0  0  0  0  0  0  0  0  0
   24.2840   50.9900   -4.7820 N   0  0  0  0  0  0  0  0  0  0  0  0
   24.6350   51.8860   -3.9200 C   0  0  0  0  0  0  0  0  0  0  0  0
   25.0070   51.3910   -2.5530 C   0  0  0  0  0  0  0  0  0  0  0  0
   26.2340   50.7370   -2.3790 C   0  0  0  0  0  0  0  0  0  0  0  0
   26.6030   50.2560   -1.1200 C   0  0  0  0  0  0  0  0  0  0  0  0
   25.7400   50.4200   -0.0380 C   0  0  0  0  0  0  0  0  0  0  0  0
   26.1910   49.8290    1.5130 Cl  0  0  0  0  0  0  0  0  0  0  0  0
   24.5080   51.0540   -0.2050 C   0  0  0  0  0  0  0  0  0  0  0  0
   24.1370   51.5360   -1.4640 C   0  0  0  0  0  0  0  0  0  0  0  0
   24.6860   53.3600   -4.1880 C   0  0  0  0  0  0  0  0  0  0  0  0
   25.8130   54.0590   -3.7240 C   0  0  0  0  0  0  0  0  0  0  0  0
   25.9010   55.4480   -3.8350 C   0  0  0  0  0  0  0  0  0  0  0  0
   27.0480   55.9890   -3.3290 O   0  0  0  0  0  0  0  0  0  0  0  0
   28.2780   55.5410   -3.8840 C   0  0  0  0  0  0  0  0  0  0  0  0
   24.8530   56.1500   -4.4230 C   0  0  0  0  0  0  0  0  0  0  0  0
   23.7330   55.4680   -4.9150 C   0  0  0  0  0  0  0  0  0  0  0  0
   23.6430   54.0720   -4.8090 C   0  0  0  0  0  0  0  0  0  0  0  0
   22.5410   53.3970   -5.3940 N   0  0  0  0  0  0  0  0  0  0  0  0
   21.2240   53.8040   -5.5520 C   0  0  0  0  0  0  0  0  0  0  0  0
   20.5960   55.0050   -4.9540 C   0  0  0  0  0  0  0  0  0  0  0  0
   20.5670   52.8920   -6.2420 N   0  0  0  0  0  0  0  0  0  0  0  0
   21.4180   51.8620   -6.5140 N   0  0  0  0  0  0  0  0  0  0  0  0
   22.5980   52.1660   -6.0140 C   0  0  0  0  0  0  0  0  0  0  0  0
   27.5550   49.1675   -4.7250 H   0  0  0  0  0  0  0  0  0  0  0  0
   28.1836   47.7201   -5.5832 H   0  0  0  0  0  0  0  0  0  0  0  0
   29.1310   49.2463   -5.5832 H   0  0  0  0  0  0  0  0  0  0  0  0
   28.0004   50.0469   -7.3573 H   0  0  0  0  0  0  0  0  0  0  0  0
   27.2985   48.3844   -7.5271 H   0  0  0  0  0  0  0  0  0  0  0  0
   25.8300   49.8820   -5.6050 H   0  0  0  0  0  0  0  0  0  0  0  0
   23.0406   50.3281   -7.8134 H   0  0  0  0  0  0  0  0  0  0  0  0
   23.2858   49.3279   -6.3346 H   0  0  0  0  0  0  0  0  0  0  0  0
   24.6144   52.0366   -6.6223 H   0  0  0  0  0  0  0  0  0  0  0  0
   26.9093   50.6017   -3.2367 H   0  0  0  0  0  0  0  0  0  0  0  0
   27.5702   49.7502   -0.9835 H   0  0  0  0  0  0  0  0  0  0  0  0
   23.8298   51.1744    0.6526 H   0  0  0  0  0  0  0  0  0  0  0  0
   23.1629   52.0287   -1.5996 H   0  0  0  0  0  0  0  0  0  0  0  0
   26.6421   53.5011   -3.2643 H   0  0  0  0  0  0  0  0  0  0  0  0
   28.9756   55.2869   -3.0723 H   0  0  0  0  0  0  0  0  0  0  0  0
   28.0976   54.6508   -4.5045 H   0  0  0  0  0  0  0  0  0  0  0  0
   28.7124   56.3387   -4.5045 H   0  0  0  0  0  0  0  0  0  0  0  0
   24.9046   57.2460   -4.5017 H   0  0  0  0  0  0  0  0  0  0  0  0
   22.9163   56.0322   -5.3890 H   0  0  0  0  0  0  0  0  0  0  0  0
   20.6346   54.9313   -3.8572 H   0  0  0  0  0  0  0  0  0  0  0  0
   21.1395   55.9040   -5.2804 H   0  0  0  0  0  0  0  0  0  0  0  0
   19.5477   55.0716   -5.2804 H   0  0  0  0  0  0  0  0  0  0  0  0
  1  2  1  0
  2  3  1  0
  3  4  1  0
  4  5  2  0
  4  6  1  0
  6  7  1  0
  7  8  1  0
  8  9  2  0
  9 10  1  0
 10 11  2  0
 11 12  1  0
 12 13  2  0
 13 14  1  0
 13 15  1  0
 15 16  2  0
  9 17  1  0
 17 18  2  0
 18 19  1  0
 19 20  1  0
 20 21  1  0
 19 22  2  0
 22 23  1  0
 23 24  2  0
 24 25  1  0
 25 26  1  0
 26 27  1  0
 26 28  2  0
 28 29  1  0
 29 30  2  0
 30  7  1  0
 16 10  1  0
 24 17  1  0
 30 25  1  0
  1 31  1  0
  1 32  1  0
  1 33  1  0
  2 34  1  0
  2 35  1  0
  3 36  1  0
  6 37  1  0
  6 38  1  0
  7 39  1  6
 11 40  1  0
 12 41  1  0
 15 42  1  0
 16 43  1  0
 18 44  1  0
 21 45  1  0
 21 46  1  0
 21 47  1  0
 22 48  1  0
 23 49  1  0
 27 50  1  0
 27 51  1  0
 27 52  1  0
M  END
>  <meeko>  (5) 
{"is_sidechain": [false], "free_energy": -6.857, "intermolecular_energy": -8.66, "internal_energy": -1.303}

$$$$
3p5o_ligand
     RDKit          3D

 52 55  0  0  0  0  0  0  0  0999 V2000
   23.6680   47.5910    0.9140 C   0  0  0  0  0  0  0  0  0  0  0  0
   23.4800   48.9030    0.1720 C   0  0  0  0  0  0  0  0  0  0  0  0
   24.6690   49.2740   -0.5620 N   0  0  0  0  0  0  0  0  0  0  0  0
   25.6180   50.1170   -0.0300 C   0  0  0  0  0  0  0  0  0  0  0  0
   25.4960   50.6830    1.0530 O   0  0  0  0  0  0  0  0  0  0  0  0
   26.8630   50.2710   -0.8730 C   0  0  0  0  0  0  0  0  0  0  0  0
   26.4860   50.5450   -2.3290 C   0  0  2  0  0  0  0  0  0  0  0  0
   27.6840   50.3400   -3.1460 N   0  0  0  0  0  0  0  0  0  0  0  0
   27.5980   50.3600   -4.4350 C   0  0  0  0  0  0  0  0  0  0  0  0
   28.8780   50.1790   -5.1960 C   0  0  0  0  0  0  0  0  0  0  0  0
   29.4170   48.8910   -5.3190 C   0  0  0  0  0  0  0  0  0  0  0  0
   30.6130   48.6930   -6.0130 C   0  0  0  0  0  0  0  0  0  0  0  0
   31.2760   49.7830   -6.5740 C   0  0  0  0  0  0  0  0  0  0  0  0
   32.7490   49.5420   -7.4290 Cl  0  0  0  0  0  0  0  0  0  0  0  0
   30.7560   51.0710   -6.4420 C   0  0  0  0  0  0  0  0  0  0  0  0
   29.5590   51.2720   -5.7480 C   0  0  0  0  0  0  0  0  0  0  0  0
   26.3270   50.5590   -5.2060 C   0  0  0  0  0  0  0  0  0  0  0  0
   26.1050   49.7160   -6.3080 C   0  0  0  0  0  0  0  0  0  0  0  0
   25.0030   49.8940   -7.1460 C   0  0  0  0  0  0  0  0  0  0  0  0
   24.9250   49.0070   -8.1820 O   0  0  0  0  0  0  0  0  0  0  0  0
   24.8610   49.5480   -9.4960 C   0  0  0  0  0  0  0  0  0  0  0  0
   24.1040   50.9220   -6.8780 C   0  0  0  0  0  0  0  0  0  0  0  0
   24.2950   51.7560   -5.7690 C   0  0  0  0  0  0  0  0  0  0  0  0
   25.3980   51.5780   -4.9220 C   0  0  0  0  0  0  0  0  0  0  0  0
   25.5210   52.3780   -3.7570 N   0  0  0  0  0  0  0  0  0  0  0  0
   25.1350   53.6900   -3.5280 C   0  0  0  0  0  0  0  0  0  0  0  0
   24.6600   54.6590   -4.5440 C   0  0  0  0  0  0  0  0  0  0  0  0
   25.3540   53.9940   -2.2630 N   0  0  0  0  0  0  0  0  0  0  0  0
   25.9180   52.9130   -1.6530 N   0  0  0  0  0  0  0  0  0  0  0  0
   26.0120   51.9460   -2.5420 C   0  0  0  0  0  0  0  0  0  0  0  0
   23.6415   47.7758    1.9980 H   0  0  0  0  0  0  0  0  0  0  0  0
   22.8602   46.8962    0.6406 H   0  0  0  0  0  0  0  0  0  0  0  0
   24.6384   47.1509    0.6406 H   0  0  0  0  0  0  0  0  0  0  0  0
   22.6431   48.7972   -0.5340 H   0  0  0  0  0  0  0  0  0  0  0  0
   23.2725   49.6902    0.9118 H   0  0  0  0  0  0  0  0  0  0  0  0
   24.9770   48.6390   -1.2990 H   0  0  0  0  0  0  0  0  0  0  0  0
   27.4603   51.1108   -0.4884 H   0  0  0  0  0  0  0  0  0  0  0  0
   27.4468   49.3401   -0.8232 H   0  0  0  0  0  0  0  0  0  0  0  0
   25.6657   49.8663   -2.6056 H   0  0  0  0  0  0  0  0  0  0  0  0
   28.8966   48.0334   -4.8676 H   0  0  0  0  0  0  0  0  0  0  0  0
   31.0300   47.6804   -6.1164 H   0  0  0  0  0  0  0  0  0  0  0  0
   31.2871   51.9272   -6.8834 H   0  0  0  0  0  0  0  0  0  0  0  0
   29.1521   52.2878   -5.6354 H   0  0  0  0  0  0  0  0  0  0  0  0
   26.8133   48.9001   -6.5143 H   0  0  0  0  0  0  0  0  0  0  0  0
   24.7320   50.6388   -9.4375 H   0  0  0  0  0  0  0  0  0  0  0  0
   25.7927   49.3173  -10.0333 H   0  0  0  0  0  0  0  0  0  0  0  0
   24.0089   49.1062  -10.0333 H   0  0  0  0  0  0  0  0  0  0  0  0
   23.2398   51.0802   -7.5399 H   0  0  0  0  0  0  0  0  0  0  0  0
   23.5724   52.5587   -5.5605 H   0  0  0  0  0  0  0  0  0  0  0  0
   24.2296   55.5370   -4.0402 H   0  0  0  0  0  0  0  0  0  0  0  0
   25.5054   54.9749   -5.1729 H   0  0  0  0  0  0  0  0  0  0  0  0
   23.8925   54.1842   -5.1729 H   0  0  0  0  0  0  0  0  0  0  0  0
  1  2  1  0
  2  3  1  0
  3  4  1  0
  4  5  2  0
  4  6  1  0
  6  7  1  0
  7  8  1  0
  8  9  2  0
  9 10  1  0
 10 11  2  0
 11 12  1  0
 12 13  2  0
 13 14  1  0
 13 15  1  0
 15 16  2  0
  9 17  1  0
 17 18  2  0
 18 19  1  0
 19 20  1  0
 20 21  1  0
 19 22  2  0
 22 23  1  0
 23 24  2  0
 24 25  1  0
 25 26  1  0
 26 27  1  0
 26 28  2  0
 28 29  1  0
 29 30  2  0
 30  7  1  0
 16 10  1  0
 24 17  1  0
 30 25  1  0
  1 31  1  0
  1 32  1  0
  1 33  1  0
  2 34  1  0
  2 35  1  0
  3 36  1  0
  6 37  1  0
  6 38  1  0
  7 39  1  6
 11 40  1  0
 12 41  1  0
 15 42  1  0
 16 43  1  0
 18 44  1  0
 21 45  1  0
 21 46  1  0
 21 47  1  0
 22 48  1  0
 23 49  1  0
 27 50  1  0
 27 51  1  0
 27 52  1  0
M  END
>  <meeko>  (6) 
{"is_sidechain": [false], "free_energy": -6.828, "intermolecular_energy": -9.004, "internal_energy": -0.922}

$$$$
3p5o_ligand
     RDKit          3D

 52 55  0  0  0  0  0  0  0  0999 V2000
   17.3680   52.2610   -5.9710 C   0  0  0  0  0  0  0  0  0  0  0  0
   18.6820   51.5230   -6.1640 C   0  0  0  0  0  0  0  0  0  0  0  0
   19.6980   51.9980   -5.2520 N   0  0  0  0  0  0  0  0  0  0  0  0
   20.6750   52.8810   -5.6500 C   0  0  0  0  0  0  0  0  0  0  0  0
   20.8180   53.2640   -6.8080 O   0  0  0  0  0  0  0  0  0  0  0  0
   21.5550   53.3880   -4.5300 C   0  0  0  0  0  0  0  0  0  0  0  0
   22.9910   52.8970   -4.7210 C   0  0  2  0  0  0  0  0  0  0  0  0
   23.3500   52.1000   -3.5460 N   0  0  0  0  0  0  0  0  0  0  0  0
   24.4620   51.4410   -3.5280 C   0  0  0  0  0  0  0  0  0  0  0  0
   24.7710   50.6820   -2.2720 C   0  0  0  0  0  0  0  0  0  0  0  0
   23.7340   49.9990   -1.6210 C   0  0  0  0  0  0  0  0  0  0  0  0
   23.9890   49.2910   -0.4430 C   0  0  0  0  0  0  0  0  0  0  0  0
   25.2780   49.2750    0.0890 C   0  0  0  0  0  0  0  0  0  0  0  0
   25.5940   48.4050    1.5370 Cl  0  0  0  0  0  0  0  0  0  0  0  0
   26.3120   49.9660   -0.5440 C   0  0  0  0  0  0  0  0  0  0  0  0
   26.0590   50.6750   -1.7220 C   0  0  0  0  0  0  0  0  0  0  0  0
   25.4490   51.3960   -4.6560 C   0  0  0  0  0  0  0  0  0  0  0  0
   25.9920   50.1410   -4.9850 C   0  0  0  0  0  0  0  0  0  0  0  0
   26.9930   50.0150   -5.9490 C   0  0  0  0  0  0  0  0  0  0  0  0
   27.4310   48.7370   -6.1530 O   0  0  0  0  0  0  0  0  0  0  0  0
   28.8340   48.5140   -6.0900 C   0  0  0  0  0  0  0  0  0  0  0  0
   27.4560   51.1540   -6.6000 C   0  0  0  0  0  0  0  0  0  0  0  0
   26.9100   52.4090   -6.3040 C   0  0  0  0  0  0  0  0  0  0  0  0
   25.9000   52.5400   -5.3400 C   0  0  0  0  0  0  0  0  0  0  0  0
   25.3020   53.8080   -5.1220 N   0  0  0  0  0  0  0  0  0  0  0  0
   25.8460   55.0800   -5.2080 C   0  0  0  0  0  0  0  0  0  0  0  0
   27.2810   55.4160   -5.3650 C   0  0  0  0  0  0  0  0  0  0  0  0
   24.8940   55.9740   -5.0190 N   0  0  0  0  0  0  0  0  0  0  0  0
   23.7280   55.3140   -4.7710 N   0  0  0  0  0  0  0  0  0  0  0  0
   23.9690   54.0210   -4.8380 C   0  0  0  0  0  0  0  0  0  0  0  0
   17.1658   52.3746   -4.8957 H   0  0  0  0  0  0  0  0  0  0  0  0
   17.4333   53.2544   -6.4388 H   0  0  0  0  0  0  0  0  0  0  0  0
   16.5536   51.6883   -6.4388 H   0  0  0  0  0  0  0  0  0  0  0  0
   18.5178   50.4497   -5.9879 H   0  0  0  0  0  0  0  0  0  0  0  0
   19.0304   51.7037   -7.1916 H   0  0  0  0  0  0  0  0  0  0  0  0
   19.4760   51.9720   -4.2570 H   0  0  0  0  0  0  0  0  0  0  0  0
   21.5444   54.4879   -4.5295 H   0  0  0  0  0  0  0  0  0  0  0  0
   21.1707   53.0076   -3.5721 H   0  0  0  0  0  0  0  0  0  0  0  0
   23.0342   52.3158   -5.6539 H   0  0  0  0  0  0  0  0  0  0  0  0
   22.7165   50.0203   -2.0385 H   0  0  0  0  0  0  0  0  0  0  0  0
   23.1762   48.7487    0.0623 H   0  0  0  0  0  0  0  0  0  0  0  0
   27.3254   49.9528   -0.1164 H   0  0  0  0  0  0  0  0  0  0  0  0
   26.8714   51.2273   -2.2169 H   0  0  0  0  0  0  0  0  0  0  0  0
   25.6204   49.2414   -4.4725 H   0  0  0  0  0  0  0  0  0  0  0  0
   29.1504   48.4637   -5.0377 H   0  0  0  0  0  0  0  0  0  0  0  0
   29.0775   47.5659   -6.5918 H   0  0  0  0  0  0  0  0  0  0  0  0
   29.3594   49.3399   -6.5918 H   0  0  0  0  0  0  0  0  0  0  0  0
   28.2551   51.0683   -7.3511 H   0  0  0  0  0  0  0  0  0  0  0  0
   27.2770   53.3010   -6.8329 H   0  0  0  0  0  0  0  0  0  0  0  0
   27.7430   55.5242   -4.3726 H   0  0  0  0  0  0  0  0  0  0  0  0
   27.7873   54.6121   -5.9195 H   0  0  0  0  0  0  0  0  0  0  0  0
   27.3778   56.3611   -5.9195 H   0  0  0  0  0  0  0  0  0  0  0  0
  1  2  1  0
  2  3  1  0
  3  4  1  0
  4  5  2  0
  4  6  1  0
  6  7  1  0
  7  8  1  0
  8  9  2  0
  9 10  1  0
 10 11  2  0
 11 12  1  0
 12 13  2  0
 13 14  1  0
 13 15  1  0
 15 16  2  0
  9 17  1  0
 17 18  2  0
 18 19  1  0
 19 20  1  0
 20 21  1  0
 19 22  2  0
 22 23  1  0
 23 24  2  0
 24 25  1  0
 25 26  1  0
 26 27  1  0
 26 28  2  0
 28 29  1  0
 29 30  2  0
 30  7  1  0
 16 10  1  0
 24 17  1  0
 30 25  1  0
  1 31  1  0
  1 32  1  0
  1 33  1  0
  2 34  1  0
  2 35  1  0
  3 36  1  0
  6 37  1  0
  6 38  1  0
  7 39  1  6
 11 40  1  0
 12 41  1  0
 15 42  1  0
 16 43  1  0
 18 44  1  0
 21 45  1  0
 21 46  1  0
 21 47  1  0
 22 48  1  0
 23 49  1  0
 27 50  1  0
 27 51  1  0
 27 52  1  0
M  END
>  <meeko>  (7) 
{"is_sidechain": [false], "free_energy": -6.645, "intermolecular_energy": -8.803, "internal_energy": -0.886}

$$$$
3p5o_ligand
     RDKit          3D

 52 55  0  0  0  0  0  0  0  0999 V2000
   31.5210   52.4080   -5.2210 C   0  0  0  0  0  0  0  0  0  0  0  0
   31.5130   51.2890   -6.2490 C   0  0  0  0  0  0  0  0  0  0  0  0
   30.2100   50.6710   -6.3520 N   0  0  0  0  0  0  0  0  0  0  0  0
   30.0470   49.3060   -6.2920 C   0  0  0  0  0  0  0  0  0  0  0  0
   30.9800   48.5100   -6.2340 O   0  0  0  0  0  0  0  0  0  0  0  0
   28.6060   48.8470   -6.2600 C   0  0  0  0  0  0  0  0  0  0  0  0
   27.6960   49.9950   -5.8210 C   0  0  2  0  0  0  0  0  0  0  0  0
   27.5950   49.9510   -4.3610 N   0  0  0  0  0  0  0  0  0  0  0  0
   27.0040   50.9080   -3.7250 C   0  0  0  0  0  0  0  0  0  0  0  0
   26.9120   50.7670   -2.2340 C   0  0  0  0  0  0  0  0  0  0  0  0
   28.0610   50.9790   -1.4610 C   0  0  0  0  0  0  0  0  0  0  0  0
   28.0090   50.8440   -0.0710 C   0  0  0  0  0  0  0  0  0  0  0  0
   26.8100   50.4870    0.5440 C   0  0  0  0  0  0  0  0  0  0  0  0
   26.7430   50.3200    2.2540 Cl  0  0  0  0  0  0  0  0  0  0  0  0
   25.6650   50.2560   -0.2190 C   0  0  0  0  0  0  0  0  0  0  0  0
   25.7150   50.3900   -1.6100 C   0  0  0  0  0  0  0  0  0  0  0  0
   26.4060   52.1240   -4.3690 C   0  0  0  0  0  0  0  0  0  0  0  0
   26.6630   53.3650   -3.7610 C   0  0  0  0  0  0  0  0  0  0  0  0
   26.0660   54.5370   -4.2270 C   0  0  0  0  0  0  0  0  0  0  0  0
   26.3980   55.6630   -3.5290 O   0  0  0  0  0  0  0  0  0  0  0  0
   27.4200   56.4880   -4.0750 C   0  0  0  0  0  0  0  0  0  0  0  0
   25.2060   54.4740   -5.3190 C   0  0  0  0  0  0  0  0  0  0  0  0
   24.9590   53.2500   -5.9540 C   0  0  0  0  0  0  0  0  0  0  0  0
   25.5600   52.0700   -5.4920 C   0  0  0  0  0  0  0  0  0  0  0  0
   25.3650   50.8600   -6.2060 N   0  0  0  0  0  0  0  0  0  0  0  0
   24.2660   50.4130   -6.9240 C   0  0  0  0  0  0  0  0  0  0  0  0
   22.9210   51.0350   -6.9550 C   0  0  0  0  0  0  0  0  0  0  0  0
   24.5640   49.2690   -7.5090 N   0  0  0  0  0  0  0  0  0  0  0  0
   25.8360   48.9260   -7.1580 N   0  0  0  0  0  0  0  0  0  0  0  0
   26.3170   49.8790   -6.3860 C   0  0  0  0  0  0  0  0  0  0  0  0
   31.5179   51.9764   -4.2092 H   0  0  0  0  0  0  0  0  0  0  0  0
   32.4236   53.0224   -5.3548 H   0  0  0  0  0  0  0  0  0  0  0  0
   30.6273   53.0352   -5.3548 H   0  0  0  0  0  0  0  0  0  0  0  0
   31.7904   51.7030   -7.2296 H   0  0  0  0  0  0  0  0  0  0  0  0
   32.2335   50.5220   -5.9287 H   0  0  0  0  0  0  0  0  0  0  0  0
   29.4030   51.2430   -6.1030 H   0  0  0  0  0  0  0  0  0  0  0  0
   28.3090   48.5117   -7.2647 H   0  0  0  0  0  0  0  0  0  0  0  0
   28.5091   48.0179   -5.5436 H   0  0  0  0  0  0  0  0  0  0  0  0
   28.1312   50.9372   -6.1856 H   0  0  0  0  0  0  0  0  0  0  0  0
   29.0076   51.2527   -1.9499 H   0  0  0  0  0  0  0  0  0  0  0  0
   28.9102   51.0187    0.5351 H   0  0  0  0  0  0  0  0  0  0  0  0
   24.7241   49.9688    0.2731 H   0  0  0  0  0  0  0  0  0  0  0  0
   24.8156   50.1997   -2.2140 H   0  0  0  0  0  0  0  0  0  0  0  0
   27.3478   53.4132   -2.9015 H   0  0  0  0  0  0  0  0  0  0  0  0
   27.9932   56.9507   -3.2581 H   0  0  0  0  0  0  0  0  0  0  0  0
   28.0927   55.8768   -4.6946 H   0  0  0  0  0  0  0  0  0  0  0  0
   26.9644   57.2745   -4.6946 H   0  0  0  0  0  0  0  0  0  0  0  0
   24.7180   55.3893   -5.6852 H   0  0  0  0  0  0  0  0  0  0  0  0
   24.2868   53.2140   -6.8239 H   0  0  0  0  0  0  0  0  0  0  0  0
   22.5686   51.1980   -5.9258 H   0  0  0  0  0  0  0  0  0  0  0  0
   22.9751   51.9995   -7.4811 H   0  0  0  0  0  0  0  0  0  0  0  0
   22.2211   50.3691   -7.4811 H   0  0  0  0  0  0  0  0  0  0  0  0
  1  2  1  0
  2  3  1  0
  3  4  1  0
  4  5  2  0
  4  6  1  0
  6  7  1  0
  7  8  1  0
  8  9  2  0
  9 10  1  0
 10 11  2  0
 11 12  1  0
 12 13  2  0
 13 14  1  0
 13 15  1  0
 15 16  2  0
  9 17  1  0
 17 18  2  0
 18 19  1  0
 19 20  1  0
 20 21  1  0
 19 22  2  0
 22 23  1  0
 23 24  2  0
 24 25  1  0
 25 26  1  0
 26 27  1  0
 26 28  2  0
 28 29  1  0
 29 30  2  0
 30  7  1  0
 16 10  1  0
 24 17  1  0
 30 25  1  0
  1 31  1  0
  1 32  1  0
  1 33  1  0
  2 34  1  0
  2 35  1  0
  3 36  1  0
  6 37  1  0
  6 38  1  0
  7 39  1  1
 11 40  1  0
 12 41  1  0
 15 42  1  0
 16 43  1  0
 18 44  1  0
 21 45  1  0
 21 46  1  0
 21 47  1  0
 22 48  1  0
 23 49  1  0
 27 50  1  0
 27 51  1  0
 27 52  1  0
M  END
>  <meeko>  (8) 
{"is_sidechain": [false], "free_energy": -6.633, "intermolecular_energy": -8.364, "internal_energy": -1.31}

$$$$
3p5o_ligand
     RDKit          3D

 52 55  0  0  0  0  0  0  0  0999 V2000
   27.1600   50.6160    2.2240 C   0  0  0  0  0  0  0  0  0  0  0  0
   26.4660   49.7180    1.2140 C   0  0  0  0  0  0  0  0  0  0  0  0
   25.7480   50.4880    0.2230 N   0  0  0  0  0  0  0  0  0  0  0  0
   24.3790   50.4130    0.0970 C   0  0  0  0  0  0  0  0  0  0  0  0
   23.6770   49.6380    0.7410 O   0  0  0  0  0  0  0  0  0  0  0  0
   23.7850   51.3990   -0.8830 C   0  0  0  0  0  0  0  0  0  0  0  0
   24.4410   51.2410   -2.2560 C   0  0  2  0  0  0  0  0  0  0  0  0
   25.7550   51.8850   -2.1990 N   0  0  0  0  0  0  0  0  0  0  0  0
   26.5780   51.7600   -3.1870 C   0  0  0  0  0  0  0  0  0  0  0  0
   27.8870   52.4820   -3.0650 C   0  0  0  0  0  0  0  0  0  0  0  0
   28.1170   53.6100   -3.8640 C   0  0  0  0  0  0  0  0  0  0  0  0
   29.3310   54.2960   -3.7800 C   0  0  0  0  0  0  0  0  0  0  0  0
   30.3190   53.8490   -2.9030 C   0  0  0  0  0  0  0  0  0  0  0  0
   31.8130   54.6920   -2.7970 Cl  0  0  0  0  0  0  0  0  0  0  0  0
   30.1050   52.7170   -2.1160 C   0  0  0  0  0  0  0  0  0  0  0  0
   28.8920   52.0280   -2.1990 C   0  0  0  0  0  0  0  0  0  0  0  0
   26.3110   50.9640   -4.4300 C   0  0  0  0  0  0  0  0  0  0  0  0
   27.3480   50.1420   -4.9020 C   0  0  0  0  0  0  0  0  0  0  0  0
   27.2300   49.4450   -6.1050 C   0  0  0  0  0  0  0  0  0  0  0  0
   28.3230   48.6970   -6.4410 O   0  0  0  0  0  0  0  0  0  0  0  0
   29.5470   49.0050   -5.7870 C   0  0  0  0  0  0  0  0  0  0  0  0
   26.0580   49.5620   -6.8460 C   0  0  0  0  0  0  0  0  0  0  0  0
   25.0030   50.3570   -6.3790 C   0  0  0  0  0  0  0  0  0  0  0  0
   25.1160   51.0550   -5.1680 C   0  0  0  0  0  0  0  0  0  0  0  0
   24.0020   51.7810   -4.6740 N   0  0  0  0  0  0  0  0  0  0  0  0
   23.0010   52.4570   -5.3550 C   0  0  0  0  0  0  0  0  0  0  0  0
   22.9680   52.7510   -6.8070 C   0  0  0  0  0  0  0  0  0  0  0  0
   22.1110   52.9040   -4.4900 N   0  0  0  0  0  0  0  0  0  0  0  0
   22.5250   52.5680   -3.2350 N   0  0  0  0  0  0  0  0  0  0  0  0
   23.6500   51.8920   -3.3440 C   0  0  0  0  0  0  0  0  0  0  0  0
   26.9059   50.2872    3.2425 H   0  0  0  0  0  0  0  0  0  0  0  0
   28.2489   50.5563    2.0804 H   0  0  0  0  0  0  0  0  0  0  0  0
   26.8276   51.6547    2.0804 H   0  0  0  0  0  0  0  0  0  0  0  0
   27.2217   49.0999    0.7072 H   0  0  0  0  0  0  0  0  0  0  0  0
   25.7417   49.0894    1.7527 H   0  0  0  0  0  0  0  0  0  0  0  0
   26.1970   51.3360   -0.1210 H   0  0  0  0  0  0  0  0  0  0  0  0
   22.7043   51.2149   -0.9735 H   0  0  0  0  0  0  0  0  0  0  0  0
   23.9629   52.4206   -0.5161 H   0  0  0  0  0  0  0  0  0  0  0  0
   24.5078   50.1671   -2.4846 H   0  0  0  0  0  0  0  0  0  0  0  0
   27.3388   53.9565   -4.5599 H   0  0  0  0  0  0  0  0  0  0  0  0
   29.5070   55.1852   -4.4031 H   0  0  0  0  0  0  0  0  0  0  0  0
   30.8908   52.3670   -1.4304 H   0  0  0  0  0  0  0  0  0  0  0  0
   28.7258   51.1303   -1.5855 H   0  0  0  0  0  0  0  0  0  0  0  0
   28.2711   50.0460   -4.3116 H   0  0  0  0  0  0  0  0  0  0  0  0
   29.4000   48.9680   -4.6975 H   0  0  0  0  0  0  0  0  0  0  0  0
   30.3132   48.2717   -6.0787 H   0  0  0  0  0  0  0  0  0  0  0  0
   29.8749   50.0137   -6.0787 H   0  0  0  0  0  0  0  0  0  0  0  0
   25.9594   49.0280   -7.8026 H   0  0  0  0  0  0  0  0  0  0  0  0
   24.0772   50.4344   -6.9680 H   0  0  0  0  0  0  0  0  0  0  0  0
   22.8465   53.8336   -6.9592 H   0  0  0  0  0  0  0  0  0  0  0  0
   23.9091   52.4190   -7.2698 H   0  0  0  0  0  0  0  0  0  0  0  0
   22.1240   52.2186   -7.2698 H   0  0  0  0  0  0  0  0  0  0  0  0
  1  2  1  0
  2  3  1  0
  3  4  1  0
  4  5  2  0
  4  6  1  0
  6  7  1  0
  7  8  1  0
  8  9  2  0
  9 10  1  0
 10 11  2  0
 11 12  1  0
 12 13  2  0
 13 14  1  0
 13 15  1  0
 15 16  2  0
  9 17  1  0
 17 18  2  0
 18 19  1  0
 19 20  1  0
 20 21  1  0
 19 22  2  0
 22 23  1  0
 23 24  2  0
 24 25  1  0
 25 26  1  0
 26 27  1  0
 26 28  2  0
 28 29  1  0
 29 30  2  0
 30  7  1  0
 16 10  1  0
 24 17  1  0
 30 25  1  0
  1 31  1  0
  1 32  1  0
  1 33  1  0
  2 34  1  0
  2 35  1  0
  3 36  1  0
  6 37  1  0
  6 38  1  0
  7 39  1  6
 11 40  1  0
 12 41  1  0
 15 42  1  0
 16 43  1  0
 18 44  1  0
 21 45  1  0
 21 46  1  0
 21 47  1  0
 22 48  1  0
 23 49  1  0
 27 50  1  0
 27 51  1  0
 27 52  1  0
M  END
>  <meeko>  (9) 
{"is_sidechain": [false], "free_energy": -6.307, "intermolecular_energy": -8.022, "internal_energy": -1.231}

$$$$
