4cig_ligand
     RDKit          3D

 67 70  0  0  0  0  0  0  0  0999 V2000
   30.4260  -30.3570    0.9720 C   0  0  0  0  0  0  0  0  0  0  0  0
   31.4170  -29.3680    1.2200 O   0  0  0  0  0  0  0  0  0  0  0  0
   32.4580  -29.2990    0.3360 C   0  0  0  0  0  0  0  0  0  0  0  0
   32.1720  -29.7900   -0.9410 C   0  0  0  0  0  0  0  0  0  0  0  0
   33.1440  -29.7810   -1.9440 C   0  0  0  0  0  0  0  0  0  0  0  0
   34.4250  -29.2820   -1.6810 C   0  0  0  0  0  0  0  0  0  0  0  0
   35.4670  -29.2350   -2.7640 C   0  0  0  0  0  0  0  0  0  0  0  0
   35.6240  -30.5340   -3.3740 N   0  0  0  0  0  0  0  0  0  0  0  0
   36.8530  -30.9840   -3.7870 C   0  0  0  0  0  0  0  0  0  0  0  0
   37.8850  -30.3230   -3.7310 O   0  0  0  0  0  0  0  0  0  0  0  0
   36.8990  -32.3750   -4.3080 C   0  0  0  0  0  0  0  0  0  0  0  0
   36.6380  -32.5890   -5.6720 C   0  0  0  0  0  0  0  0  0  0  0  0
   36.7040  -33.8770   -6.2220 C   0  0  0  0  0  0  0  0  0  0  0  0
   36.4470  -34.1090   -7.5840 C   0  0  0  0  0  0  0  0  0  0  0  0
   36.5230  -35.3980   -8.1140 C   0  0  0  0  0  0  0  0  0  0  0  0
   36.8600  -36.4700   -7.2910 C   0  0  0  0  0  0  0  0  0  0  0  0
   37.1190  -36.2540   -5.9370 C   0  0  0  0  0  0  0  0  0  0  0  0
   37.0440  -34.9650   -5.3890 C   0  0  0  0  0  0  0  0  0  0  0  0
   37.3060  -34.7380   -4.0290 C   0  0  0  0  0  0  0  0  0  0  0  0
   37.2440  -33.4490   -3.4670 C   0  0  0  0  0  0  0  0  0  0  0  0
   37.5180  -33.2930   -1.9850 C   0  0  0  0  0  0  0  0  0  0  0  0
   36.4270  -33.8010   -1.0710 N   0  0  1  0  0  0  0  0  0  0  0  0
   36.9470  -34.0850    0.3010 C   0  0  0  0  0  0  0  0  0  0  0  0
   35.1390  -33.0070   -1.1360 C   0  0  0  0  0  0  0  0  0  0  0  0
   34.1080  -33.2410   -0.0530 C   0  0  0  0  0  0  0  0  0  0  0  0
   34.0500  -32.3830    1.0610 C   0  0  0  0  0  0  0  0  0  0  0  0
   33.1120  -32.5940    2.0720 C   0  0  0  0  0  0  0  0  0  0  0  0
   32.2200  -33.6590    1.9830 C   0  0  0  0  0  0  0  0  0  0  0  0
   32.2510  -34.5070    0.8750 C   0  0  0  0  0  0  0  0  0  0  0  0
   31.3970  -35.5760    0.8550 O   0  0  0  0  0  0  0  0  0  0  0  0
   30.4820  -35.5040    1.9490 C   0  0  0  0  0  0  0  0  0  0  0  0
   33.1940  -34.3200   -0.1410 C   0  0  0  0  0  0  0  0  0  0  0  0
   33.2360  -35.2110   -1.3380 C   0  0  0  0  0  0  0  0  0  0  0  0
   34.2800  -35.9180   -1.4800 O   0  0  0  0  0  0  0  0  0  0  0  0
   32.3360  -35.0290   -2.2140 O   0  0  0  0  0  0  0  0  0  0  0  0
   34.7050  -28.7800   -0.4030 C   0  0  0  0  0  0  0  0  0  0  0  0
   33.7290  -28.7920    0.6000 C   0  0  0  0  0  0  0  0  0  0  0  0
   30.0424  -30.7398    1.9292 H   0  0  0  0  0  0  0  0  0  0  0  0
   29.6000  -29.9124    0.3974 H   0  0  0  0  0  0  0  0  0  0  0  0
   30.8689  -31.1839    0.3974 H   0  0  0  0  0  0  0  0  0  0  0  0
   31.1699  -30.1881   -1.1586 H   0  0  0  0  0  0  0  0  0  0  0  0
   32.9017  -30.1677   -2.9449 H   0  0  0  0  0  0  0  0  0  0  0  0
   35.1584  -28.5100   -3.5315 H   0  0  0  0  0  0  0  0  0  0  0  0
   36.4270  -28.9331   -2.3199 H   0  0  0  0  0  0  0  0  0  0  0  0
   34.8560  -31.1880   -3.2810 H   0  0  0  0  0  0  0  0  0  0  0  0
   36.3788  -31.7358   -6.3160 H   0  0  0  0  0  0  0  0  0  0  0  0
   36.1832  -33.2658   -8.2393 H   0  0  0  0  0  0  0  0  0  0  0  0
   36.3168  -35.5672   -9.1812 H   0  0  0  0  0  0  0  0  0  0  0  0
   36.9219  -37.4860   -7.7081 H   0  0  0  0  0  0  0  0  0  0  0  0
   37.3851  -37.1044   -5.2919 H   0  0  0  0  0  0  0  0  0  0  0  0
   37.5669  -35.5906   -3.3848 H   0  0  0  0  0  0  0  0  0  0  0  0
   38.4416  -33.8424   -1.7502 H   0  0  0  0  0  0  0  0  0  0  0  0
   37.5908  -32.2110   -1.8007 H   0  0  0  0  0  0  0  0  0  0  0  0
   36.2080  -34.7330   -1.4610 H   0  0  0  0  0  0  0  0  0  0  0  0
   36.2390  -33.6983    1.0488 H   0  0  0  0  0  0  0  0  0  0  0  0
   37.0619  -35.1711    0.4320 H   0  0  0  0  0  0  0  0  0  0  0  0
   37.9229  -33.5946    0.4320 H   0  0  0  0  0  0  0  0  0  0  0  0
   35.4093  -31.9411   -1.1063 H   0  0  0  0  0  0  0  0  0  0  0  0
   34.6506  -33.3485   -2.0606 H   0  0  0  0  0  0  0  0  0  0  0  0
   34.7506  -31.5383    1.1353 H   0  0  0  0  0  0  0  0  0  0  0  0
   33.0773  -31.9187    2.9396 H   0  0  0  0  0  0  0  0  0  0  0  0
   31.4897  -33.8324    2.7871 H   0  0  0  0  0  0  0  0  0  0  0  0
   31.0391  -35.5478    2.8965 H   0  0  0  0  0  0  0  0  0  0  0  0
   29.9215  -34.5590    1.8966 H   0  0  0  0  0  0  0  0  0  0  0  0
   29.7806  -36.3497    1.8966 H   0  0  0  0  0  0  0  0  0  0  0  0
   35.7031  -28.3719   -0.1857 H   0  0  0  0  0  0  0  0  0  0  0  0
   33.9659  -28.3999    1.6001 H   0  0  0  0  0  0  0  0  0  0  0  0
  1  2  1  0
  2  3  1  0
  3  4  2  0
  4  5  1  0
  5  6  2  0
  6  7  1  0
  7  8  1  0
  8  9  1  0
  9 10  2  0
  9 11  1  0
 11 12  2  0
 12 13  1  0
 13 14  2  0
 14 15  1  0
 15 16  2  0
 16 17  1  0
 17 18  2  0
 18 19  1  0
 19 20  2  0
 20 21  1  0
 21 22  1  0
 22 23  1  0
 22 24  1  0
 24 25  1  0
 25 26  2  0
 26 27  1  0
 27 28  2  0
 28 29  1  0
 29 30  1  0
 30 31  1  0
 29 32  2  0
 32 33  1  0
 33 34  2  0
 33 35  1  0
  6 36  1  0
 36 37  2  0
 37  3  1  0
 20 11  1  0
 32 25  1  0
 18 13  1  0
  1 38  1  0
  1 39  1  0
  1 40  1  0
  4 41  1  0
  5 42  1  0
  7 43  1  0
  7 44  1  0
  8 45  1  0
 12 46  1  0
 14 47  1  0
 15 48  1  0
 16 49  1  0
 17 50  1  0
 19 51  1  0
 21 52  1  0
 21 53  1  0
 22 54  1  6
 23 55  1  0
 23 56  1  0
 23 57  1  0
 24 58  1  0
 24 59  1  0
 26 60  1  0
 27 61  1  0
 28 62  1  0
 31 63  1  0
 31 64  1  0
 31 65  1  0
 36 66  1  0
 37 67  1  0
M  CHG  2  22   1  35  -1
M  END
>  <meeko>  (1) 
{"is_sidechain": [false], "free_energy": -7.946, "intermolecular_energy": -12.591, "internal_energy": -2.684}

$$$$
4cig_ligand
     RDKit          3D

 67 70  0  0  0  0  0  0  0  0999 V2000
   37.2310  -27.5230   -6.9280 C   0  0  0  0  0  0  0  0  0  0  0  0
   36.7960  -26.3440   -6.2630 O   0  0  0  0  0  0  0  0  0  0  0  0
   35.9330  -26.5080   -5.2150 C   0  0  0  0  0  0  0  0  0  0  0  0
   34.7590  -27.1970   -5.5270 C   0  0  0  0  0  0  0  0  0  0  0  0
   33.7890  -27.4360   -4.5510 C   0  0  0  0  0  0  0  0  0  0  0  0
   33.9790  -26.9810   -3.2410 C   0  0  0  0  0  0  0  0  0  0  0  0
   32.9580  -27.2640   -2.1750 C   0  0  0  0  0  0  0  0  0  0  0  0
   33.1030  -28.6130   -1.6770 N   0  0  0  0  0  0  0  0  0  0  0  0
   33.6780  -28.8640   -0.4570 C   0  0  0  0  0  0  0  0  0  0  0  0
   34.1560  -28.0010    0.2720 O   0  0  0  0  0  0  0  0  0  0  0  0
   33.6790  -30.2820   -0.0150 C   0  0  0  0  0  0  0  0  0  0  0  0
   32.5090  -30.8050    0.5620 C   0  0  0  0  0  0  0  0  0  0  0  0
   32.4440  -32.1480    0.9640 C   0  0  0  0  0  0  0  0  0  0  0  0
   31.2830  -32.6870    1.5430 C   0  0  0  0  0  0  0  0  0  0  0  0
   31.2370  -34.0260    1.9310 C   0  0  0  0  0  0  0  0  0  0  0  0
   32.3480  -34.8440    1.7440 C   0  0  0  0  0  0  0  0  0  0  0  0
   33.5080  -34.3220    1.1700 C   0  0  0  0  0  0  0  0  0  0  0  0
   33.5710  -32.9770    0.7770 C   0  0  0  0  0  0  0  0  0  0  0  0
   34.7320  -32.4440    0.1960 C   0  0  0  0  0  0  0  0  0  0  0  0
   34.8080  -31.1000   -0.2130 C   0  0  0  0  0  0  0  0  0  0  0  0
   36.1060  -30.5960   -0.8090 C   0  0  0  0  0  0  0  0  0  0  0  0
   36.3510  -30.9910   -2.2470 N   0  0  1  0  0  0  0  0  0  0  0  0
   36.1780  -29.8320   -3.1740 C   0  0  0  0  0  0  0  0  0  0  0  0
   37.5960  -31.8260   -2.4610 C   0  0  0  0  0  0  0  0  0  0  0  0
   37.7490  -33.0910   -1.6430 C   0  0  0  0  0  0  0  0  0  0  0  0
   38.6380  -33.1210   -0.5520 C   0  0  0  0  0  0  0  0  0  0  0  0
   38.7980  -34.2830    0.2030 C   0  0  0  0  0  0  0  0  0  0  0  0
   38.0720  -35.4270   -0.1190 C   0  0  0  0  0  0  0  0  0  0  0  0
   37.1710  -35.4080   -1.1850 C   0  0  0  0  0  0  0  0  0  0  0  0
   36.5230  -36.5700   -1.5040 O   0  0  0  0  0  0  0  0  0  0  0  0
   35.5940  -36.9200   -0.4780 C   0  0  0  0  0  0  0  0  0  0  0  0
   37.0100  -34.2550   -1.9620 C   0  0  0  0  0  0  0  0  0  0  0  0
   36.0440  -34.2140   -3.1000 C   0  0  0  0  0  0  0  0  0  0  0  0
   34.8530  -33.8820   -2.8180 O   0  0  0  0  0  0  0  0  0  0  0  0
   36.4380  -34.7160   -4.1970 O   0  0  0  0  0  0  0  0  0  0  0  0
   35.1630  -26.3010   -2.9280 C   0  0  0  0  0  0  0  0  0  0  0  0
   36.1330  -26.0620   -3.9090 C   0  0  0  0  0  0  0  0  0  0  0  0
   37.5111  -28.2821   -6.1828 H   0  0  0  0  0  0  0  0  0  0  0  0
   36.4166  -27.9104   -7.5578 H   0  0  0  0  0  0  0  0  0  0  0  0
   38.1019  -27.2886   -7.5578 H   0  0  0  0  0  0  0  0  0  0  0  0
   34.5963  -27.5558   -6.5540 H   0  0  0  0  0  0  0  0  0  0  0  0
   32.8719  -27.9841   -4.8129 H   0  0  0  0  0  0  0  0  0  0  0  0
   33.0960  -26.5555   -1.3450 H   0  0  0  0  0  0  0  0  0  0  0  0
   31.9530  -27.1519   -2.6079 H   0  0  0  0  0  0  0  0  0  0  0  0
   32.5710  -29.3390   -2.1410 H   0  0  0  0  0  0  0  0  0  0  0  0
   31.6334  -30.1536    0.7002 H   0  0  0  0  0  0  0  0  0  0  0  0
   30.4012  -32.0465    1.6919 H   0  0  0  0  0  0  0  0  0  0  0  0
   30.3226  -34.4358    2.3849 H   0  0  0  0  0  0  0  0  0  0  0  0
   32.3115  -35.9004    2.0483 H   0  0  0  0  0  0  0  0  0  0  0  0
   34.3828  -34.9727    1.0241 H   0  0  0  0  0  0  0  0  0  0  0  0
   35.6073  -33.0954    0.0564 H   0  0  0  0  0  0  0  0  0  0  0  0
   36.1015  -29.4974   -0.7541 H   0  0  0  0  0  0  0  0  0  0  0  0
   36.9118  -31.0625   -0.2232 H   0  0  0  0  0  0  0  0  0  0  0  0
   35.5510  -31.6120   -2.4600 H   0  0  0  0  0  0  0  0  0  0  0  0
   36.0406  -28.9112   -2.5881 H   0  0  0  0  0  0  0  0  0  0  0  0
   37.0713  -29.7332   -3.8082 H   0  0  0  0  0  0  0  0  0  0  0  0
   35.2947  -29.9984   -3.8082 H   0  0  0  0  0  0  0  0  0  0  0  0
   37.6172  -32.1170   -3.5216 H   0  0  0  0  0  0  0  0  0  0  0  0
   38.4221  -31.1804   -2.1283 H   0  0  0  0  0  0  0  0  0  0  0  0
   39.2121  -32.2194   -0.2923 H   0  0  0  0  0  0  0  0  0  0  0  0
   39.4971  -34.2957    1.0521 H   0  0  0  0  0  0  0  0  0  0  0  0
   38.2088  -36.3473    0.4678 H   0  0  0  0  0  0  0  0  0  0  0  0
   36.0529  -36.7471    0.5067 H   0  0  0  0  0  0  0  0  0  0  0  0
   34.6900  -36.3008   -0.5751 H   0  0  0  0  0  0  0  0  0  0  0  0
   35.3233  -37.9817   -0.5751 H   0  0  0  0  0  0  0  0  0  0  0  0
   35.3327  -25.9506   -1.8992 H   0  0  0  0  0  0  0  0  0  0  0  0
   37.0549  -25.5212   -3.6489 H   0  0  0  0  0  0  0  0  0  0  0  0
  1  2  1  0
  2  3  1  0
  3  4  2  0
  4  5  1  0
  5  6  2  0
  6  7  1  0
  7  8  1  0
  8  9  1  0
  9 10  2  0
  9 11  1  0
 11 12  2  0
 12 13  1  0
 13 14  2  0
 14 15  1  0
 15 16  2  0
 16 17  1  0
 17 18  2  0
 18 19  1  0
 19 20  2  0
 20 21  1  0
 21 22  1  0
 22 23  1  0
 22 24  1  0
 24 25  1  0
 25 26  2  0
 26 27  1  0
 27 28  2  0
 28 29  1  0
 29 30  1  0
 30 31  1  0
 29 32  2  0
 32 33  1  0
 33 34  2  0
 33 35  1  0
  6 36  1  0
 36 37  2  0
 37  3  1  0
 20 11  1  0
 32 25  1  0
 18 13  1  0
  1 38  1  0
  1 39  1  0
  1 40  1  0
  4 41  1  0
  5 42  1  0
  7 43  1  0
  7 44  1  0
  8 45  1  0
 12 46  1  0
 14 47  1  0
 15 48  1  0
 16 49  1  0
 17 50  1  0
 19 51  1  0
 21 52  1  0
 21 53  1  0
 22 54  1  6
 23 55  1  0
 23 56  1  0
 23 57  1  0
 24 58  1  0
 24 59  1  0
 26 60  1  0
 27 61  1  0
 28 62  1  0
 31 63  1  0
 31 64  1  0
 31 65  1  0
 36 66  1  0
 37 67  1  0
M  CHG  2  22   1  35  -1
M  END
>  <meeko>  (2) 
{"is_sidechain": [false], "free_energy": -7.518, "intermolecular_energy": -11.871, "internal_energy": -2.726}

$$$$
4cig_ligand
     RDKit          3D

 67 70  0  0  0  0  0  0  0  0999 V2000
   31.4860  -33.0640    1.4740 C   0  0  0  0  0  0  0  0  0  0  0  0
   31.2730  -31.7810    2.0470 O   0  0  0  0  0  0  0  0  0  0  0  0
   31.4900  -30.6990    1.2400 C   0  0  0  0  0  0  0  0  0  0  0  0
   32.7470  -30.6680    0.6320 C   0  0  0  0  0  0  0  0  0  0  0  0
   33.1050  -29.6200   -0.2190 C   0  0  0  0  0  0  0  0  0  0  0  0
   32.2050  -28.5770   -0.4700 C   0  0  0  0  0  0  0  0  0  0  0  0
   32.5670  -27.4630   -1.4120 C   0  0  0  0  0  0  0  0  0  0  0  0
   33.3540  -27.9640   -2.5140 N   0  0  0  0  0  0  0  0  0  0  0  0
   34.4800  -27.3080   -2.9430 C   0  0  0  0  0  0  0  0  0  0  0  0
   34.8750  -26.2400   -2.4840 O   0  0  0  0  0  0  0  0  0  0  0  0
   35.2570  -27.9760   -4.0180 C   0  0  0  0  0  0  0  0  0  0  0  0
   35.1590  -27.4750   -5.3270 C   0  0  0  0  0  0  0  0  0  0  0  0
   35.8990  -28.0460   -6.3730 C   0  0  0  0  0  0  0  0  0  0  0  0
   35.8120  -27.5570   -7.6880 C   0  0  0  0  0  0  0  0  0  0  0  0
   36.5610  -28.1360   -8.7130 C   0  0  0  0  0  0  0  0  0  0  0  0
   37.4060  -29.2080   -8.4390 C   0  0  0  0  0  0  0  0  0  0  0  0
   37.5030  -29.7020   -7.1370 C   0  0  0  0  0  0  0  0  0  0  0  0
   36.7550  -29.1340   -6.0970 C   0  0  0  0  0  0  0  0  0  0  0  0
   36.8470  -29.6230   -4.7840 C   0  0  0  0  0  0  0  0  0  0  0  0
   36.1110  -29.0570   -3.7270 C   0  0  0  0  0  0  0  0  0  0  0  0
   36.2500  -29.6590   -2.3440 C   0  0  0  0  0  0  0  0  0  0  0  0
   37.6640  -29.9820   -1.9200 N   0  0  1  0  0  0  0  0  0  0  0  0
   38.1270  -29.0840   -0.8190 C   0  0  0  0  0  0  0  0  0  0  0  0
   37.9340  -31.4580   -1.7240 C   0  0  0  0  0  0  0  0  0  0  0  0
   36.8240  -32.3100   -1.1450 C   0  0  0  0  0  0  0  0  0  0  0  0
   36.4690  -32.1770    0.2100 C   0  0  0  0  0  0  0  0  0  0  0  0
   35.4560  -32.9640    0.7600 C   0  0  0  0  0  0  0  0  0  0  0  0
   34.7840  -33.8880   -0.0350 C   0  0  0  0  0  0  0  0  0  0  0  0
   35.1100  -34.0170   -1.3860 C   0  0  0  0  0  0  0  0  0  0  0  0
   34.4670  -34.9790   -2.1170 O   0  0  0  0  0  0  0  0  0  0  0  0
   33.1010  -35.0820   -1.7140 C   0  0  0  0  0  0  0  0  0  0  0  0
   36.1330  -33.2480   -1.9500 C   0  0  0  0  0  0  0  0  0  0  0  0
   36.4900  -33.3660   -3.3950 C   0  0  0  0  0  0  0  0  0  0  0  0
   35.7700  -32.7110   -4.2090 O   0  0  0  0  0  0  0  0  0  0  0  0
   37.3300  -34.2670   -3.7010 O   0  0  0  0  0  0  0  0  0  0  0  0
   30.9410  -28.6160    0.1330 C   0  0  0  0  0  0  0  0  0  0  0  0
   30.5870  -29.6680    0.9860 C   0  0  0  0  0  0  0  0  0  0  0  0
   31.6094  -33.8075    2.2752 H   0  0  0  0  0  0  0  0  0  0  0  0
   30.6207  -33.3359    0.8516 H   0  0  0  0  0  0  0  0  0  0  0  0
   32.3927  -33.0417    0.8516 H   0  0  0  0  0  0  0  0  0  0  0  0
   33.4641  -31.4793    0.8258 H   0  0  0  0  0  0  0  0  0  0  0  0
   34.0973  -29.6139   -0.6937 H   0  0  0  0  0  0  0  0  0  0  0  0
   31.6457  -27.0072   -1.8037 H   0  0  0  0  0  0  0  0  0  0  0  0
   33.1593  -26.7148   -0.8649 H   0  0  0  0  0  0  0  0  0  0  0  0
   33.1880  -28.9190   -2.8080 H   0  0  0  0  0  0  0  0  0  0  0  0
   34.4934  -26.6241   -5.5343 H   0  0  0  0  0  0  0  0  0  0  0  0
   35.1470  -26.7097   -7.9111 H   0  0  0  0  0  0  0  0  0  0  0  0
   36.4838  -27.7452   -9.7383 H   0  0  0  0  0  0  0  0  0  0  0  0
   37.9962  -29.6649   -9.2471 H   0  0  0  0  0  0  0  0  0  0  0  0
   38.1745  -30.5471   -6.9249 H   0  0  0  0  0  0  0  0  0  0  0  0
   37.5136  -30.4729   -4.5759 H   0  0  0  0  0  0  0  0  0  0  0  0
   35.8324  -28.9450   -1.6189 H   0  0  0  0  0  0  0  0  0  0  0  0
   35.7145  -30.6194   -2.3748 H   0  0  0  0  0  0  0  0  0  0  0  0
   38.2270  -29.6950   -2.7390 H   0  0  0  0  0  0  0  0  0  0  0  0
   37.8904  -29.5428    0.1524 H   0  0  0  0  0  0  0  0  0  0  0  0
   39.2140  -28.9357   -0.8994 H   0  0  0  0  0  0  0  0  0  0  0  0
   37.6174  -28.1125   -0.8994 H   0  0  0  0  0  0  0  0  0  0  0  0
   38.1900  -31.8778   -2.7080 H   0  0  0  0  0  0  0  0  0  0  0  0
   38.7328  -31.4947   -0.9687 H   0  0  0  0  0  0  0  0  0  0  0  0
   36.9948  -31.4459    0.8418 H   0  0  0  0  0  0  0  0  0  0  0  0
   35.1888  -32.8541    1.8214 H   0  0  0  0  0  0  0  0  0  0  0  0
   33.9949  -34.5175    0.4021 H   0  0  0  0  0  0  0  0  0  0  0  0
   33.0421  -35.0864   -0.6156 H   0  0  0  0  0  0  0  0  0  0  0  0
   32.5368  -34.2239   -2.1080 H   0  0  0  0  0  0  0  0  0  0  0  0
   32.6718  -36.0151   -2.1080 H   0  0  0  0  0  0  0  0  0  0  0  0
   30.2185  -27.8108   -0.0661 H   0  0  0  0  0  0  0  0  0  0  0  0
   29.5932  -29.6811    1.4573 H   0  0  0  0  0  0  0  0  0  0  0  0
  1  2  1  0
  2  3  1  0
  3  4  2  0
  4  5  1  0
  5  6  2  0
  6  7  1  0
  7  8  1  0
  8  9  1  0
  9 10  2  0
  9 11  1  0
 11 12  2  0
 12 13  1  0
 13 14  2  0
 14 15  1  0
 15 16  2  0
 16 17  1  0
 17 18  2  0
 18 19  1  0
 19 20  2  0
 20 21  1  0
 21 22  1  0
 22 23  1  0
 22 24  1  0
 24 25  1  0
 25 26  2  0
 26 27  1  0
 27 28  2  0
 28 29  1  0
 29 30  1  0
 30 31  1  0
 29 32  2  0
 32 33  1  0
 33 34  2  0
 33 35  1  0
  6 36  1  0
 36 37  2  0
 37  3  1  0
 20 11  1  0
 32 25  1  0
 18 13  1  0
  1 38  1  0
  1 39  1  0
  1 40  1  0
  4 41  1  0
  5 42  1  0
  7 43  1  0
  7 44  1  0
  8 45  1  0
 12 46  1  0
 14 47  1  0
 15 48  1  0
 16 49  1  0
 17 50  1  0
 19 51  1  0
 21 52  1  0
 21 53  1  0
 22 54  1  6
 23 55  1  0
 23 56  1  0
 23 57  1  0
 24 58  1  0
 24 59  1  0
 26 60  1  0
 27 61  1  0
 28 62  1  0
 31 63  1  0
 31 64  1  0
 31 65  1  0
 36 66  1  0
 37 67  1  0
M  CHG  2  22   1  35  -1
M  END
>  <meeko>  (3) 
{"is_sidechain": [false], "free_energy": -7.413, "intermolecular_energy": -11.86, "internal_energy": -2.571}

$$$$
4cig_ligand
     RDKit          3D

 67 70  0  0  0  0  0  0  0  0999 V2000
   31.5100  -35.6600    3.0650 C   0  0  0  0  0  0  0  0  0  0  0  0
   32.5490  -35.2060    2.2060 O   0  0  0  0  0  0  0  0  0  0  0  0
   32.4870  -33.9030    1.7960 C   0  0  0  0  0  0  0  0  0  0  0  0
   31.1950  -33.4150    1.5930 C   0  0  0  0  0  0  0  0  0  0  0  0
   30.9830  -32.1000    1.1740 C   0  0  0  0  0  0  0  0  0  0  0  0
   32.0720  -31.2500    0.9450 C   0  0  0  0  0  0  0  0  0  0  0  0
   31.8550  -29.8220    0.5270 C   0  0  0  0  0  0  0  0  0  0  0  0
   32.6690  -29.5000   -0.6220 N   0  0  0  0  0  0  0  0  0  0  0  0
   33.7180  -28.6210   -0.5290 C   0  0  0  0  0  0  0  0  0  0  0  0
   34.0150  -28.0040    0.4900 O   0  0  0  0  0  0  0  0  0  0  0  0
   34.5380  -28.4490   -1.7560 C   0  0  0  0  0  0  0  0  0  0  0  0
   34.0270  -27.6570   -2.7980 C   0  0  0  0  0  0  0  0  0  0  0  0
   34.7750  -27.4320   -3.9640 C   0  0  0  0  0  0  0  0  0  0  0  0
   34.2790  -26.6430   -5.0150 C   0  0  0  0  0  0  0  0  0  0  0  0
   35.0410  -26.4270   -6.1630 C   0  0  0  0  0  0  0  0  0  0  0  0
   36.3070  -26.9950   -6.2760 C   0  0  0  0  0  0  0  0  0  0  0  0
   36.8130  -27.7800   -5.2390 C   0  0  0  0  0  0  0  0  0  0  0  0
   36.0580  -28.0090   -4.0790 C   0  0  0  0  0  0  0  0  0  0  0  0
   36.5590  -28.7950   -3.0300 C   0  0  0  0  0  0  0  0  0  0  0  0
   35.8180  -29.0250   -1.8560 C   0  0  0  0  0  0  0  0  0  0  0  0
   36.4210  -29.9050   -0.7810 C   0  0  0  0  0  0  0  0  0  0  0  0
   37.9200  -30.0780   -0.8540 N   0  0  1  0  0  0  0  0  0  0  0  0
   38.5950  -29.5650    0.3760 C   0  0  0  0  0  0  0  0  0  0  0  0
   38.3670  -31.4450   -1.3290 C   0  0  0  0  0  0  0  0  0  0  0  0
   37.2980  -32.4700   -1.6420 C   0  0  0  0  0  0  0  0  0  0  0  0
   36.6480  -32.4500   -2.8900 C   0  0  0  0  0  0  0  0  0  0  0  0
   35.6530  -33.3820   -3.1880 C   0  0  0  0  0  0  0  0  0  0  0  0
   35.2960  -34.3440   -2.2470 C   0  0  0  0  0  0  0  0  0  0  0  0
   35.9450  -34.3890   -1.0120 C   0  0  0  0  0  0  0  0  0  0  0  0
   35.5230  -35.3120   -0.0940 O   0  0  0  0  0  0  0  0  0  0  0  0
   35.7890  -36.6360   -0.5580 C   0  0  0  0  0  0  0  0  0  0  0  0
   36.9350  -33.4540   -0.6910 C   0  0  0  0  0  0  0  0  0  0  0  0
   37.6460  -33.4930    0.6210 C   0  0  0  0  0  0  0  0  0  0  0  0
   38.5070  -34.4130    0.7690 O   0  0  0  0  0  0  0  0  0  0  0  0
   37.1820  -32.7520    1.5410 O   0  0  0  0  0  0  0  0  0  0  0  0
   33.3680  -31.7380    1.1600 C   0  0  0  0  0  0  0  0  0  0  0  0
   33.5740  -33.0580    1.5790 C   0  0  0  0  0  0  0  0  0  0  0  0
   31.8161  -35.5263    4.1131 H   0  0  0  0  0  0  0  0  0  0  0  0
   30.5956  -35.0794    2.8731 H   0  0  0  0  0  0  0  0  0  0  0  0
   31.3149  -36.7254    2.8731 H   0  0  0  0  0  0  0  0  0  0  0  0
   30.3323  -34.0753    1.7654 H   0  0  0  0  0  0  0  0  0  0  0  0
   29.9578  -31.7308    1.0234 H   0  0  0  0  0  0  0  0  0  0  0  0
   30.7950  -29.6771    0.2713 H   0  0  0  0  0  0  0  0  0  0  0  0
   32.1390  -29.1614    1.3595 H   0  0  0  0  0  0  0  0  0  0  0  0
   32.5900  -30.1040   -1.4310 H   0  0  0  0  0  0  0  0  0  0  0  0
   33.0279  -27.2076   -2.6986 H   0  0  0  0  0  0  0  0  0  0  0  0
   33.2796  -26.1910   -4.9318 H   0  0  0  0  0  0  0  0  0  0  0  0
   34.6415  -25.8076   -6.9795 H   0  0  0  0  0  0  0  0  0  0  0  0
   36.9078  -26.8252   -7.1817 H   0  0  0  0  0  0  0  0  0  0  0  0
   37.8150  -28.2241   -5.3322 H   0  0  0  0  0  0  0  0  0  0  0  0
   37.5585  -29.2437   -3.1281 H   0  0  0  0  0  0  0  0  0  0  0  0
   36.1771  -29.4631    0.1964 H   0  0  0  0  0  0  0  0  0  0  0  0
   35.9915  -30.9065   -0.9314 H   0  0  0  0  0  0  0  0  0  0  0  0
   38.1980  -29.4130   -1.5960 H   0  0  0  0  0  0  0  0  0  0  0  0
   38.0808  -29.9558    1.2665 H   0  0  0  0  0  0  0  0  0  0  0  0
   39.6440  -29.8958    0.3836 H   0  0  0  0  0  0  0  0  0  0  0  0
   38.5571  -28.4657    0.3836 H   0  0  0  0  0  0  0  0  0  0  0  0
   38.9571  -31.2967   -2.2454 H   0  0  0  0  0  0  0  0  0  0  0  0
   38.9142  -31.8690   -0.4741 H   0  0  0  0  0  0  0  0  0  0  0  0
   36.9268  -31.6927   -3.6375 H   0  0  0  0  0  0  0  0  0  0  0  0
   35.1508  -33.3566   -4.1663 H   0  0  0  0  0  0  0  0  0  0  0  0
   34.5017  -35.0694   -2.4770 H   0  0  0  0  0  0  0  0  0  0  0  0
   35.9237  -37.3064    0.3037 H   0  0  0  0  0  0  0  0  0  0  0  0
   34.9436  -36.9877   -1.1676 H   0  0  0  0  0  0  0  0  0  0  0  0
   36.7047  -36.6339   -1.1676 H   0  0  0  0  0  0  0  0  0  0  0  0
   34.2323  -31.0772    0.9979 H   0  0  0  0  0  0  0  0  0  0  0  0
   34.5972  -33.4294    1.7375 H   0  0  0  0  0  0  0  0  0  0  0  0
  1  2  1  0
  2  3  1  0
  3  4  2  0
  4  5  1  0
  5  6  2  0
  6  7  1  0
  7  8  1  0
  8  9  1  0
  9 10  2  0
  9 11  1  0
 11 12  2  0
 12 13  1  0
 13 14  2  0
 14 15  1  0
 15 16  2  0
 16 17  1  0
 17 18  2  0
 18 19  1  0
 19 20  2  0
 20 21  1  0
 21 22  1  0
 22 23  1  0
 22 24  1  0
 24 25  1  0
 25 26  2  0
 26 27  1  0
 27 28  2  0
 28 29  1  0
 29 30  1  0
 30 31  1  0
 29 32  2  0
 32 33  1  0
 33 34  2  0
 33 35  1  0
  6 36  1  0
 36 37  2  0
 37  3  1  0
 20 11  1  0
 32 25  1  0
 18 13  1  0
  1 38  1  0
  1 39  1  0
  1 40  1  0
  4 41  1  0
  5 42  1  0
  7 43  1  0
  7 44  1  0
  8 45  1  0
 12 46  1  0
 14 47  1  0
 15 48  1  0
 16 49  1  0
 17 50  1  0
 19 51  1  0
 21 52  1  0
 21 53  1  0
 22 54  1  6
 23 55  1  0
 23 56  1  0
 23 57  1  0
 24 58  1  0
 24 59  1  0
 26 60  1  0
 27 61  1  0
 28 62  1  0
 31 63  1  0
 31 64  1  0
 31 65  1  0
 36 66  1  0
 37 67  1  0
M  CHG  2  22   1  35  -1
M  END
>  <meeko>  (4) 
{"is_sidechain": [false], "free_energy": -7.35, "intermolecular_energy": -11.781, "internal_energy": -2.549}

$$$$
4cig_ligand
     RDKit          3D

 67 70  0  0  0  0  0  0  0  0999 V2000
   38.0330  -27.3050   -6.2620 C   0  0  0  0  0  0  0  0  0  0  0  0
   36.8600  -26.5010   -6.2920 O   0  0  0  0  0  0  0  0  0  0  0  0
   36.0080  -26.6110   -5.2290 C   0  0  0  0  0  0  0  0  0  0  0  0
   34.8540  -27.3570   -5.4810 C   0  0  0  0  0  0  0  0  0  0  0  0
   33.8960  -27.5510   -4.4840 C   0  0  0  0  0  0  0  0  0  0  0  0
   34.0770  -26.9920   -3.2130 C   0  0  0  0  0  0  0  0  0  0  0  0
   33.0690  -27.2240   -2.1220 C   0  0  0  0  0  0  0  0  0  0  0  0
   33.1750  -28.5710   -1.6100 N   0  0  0  0  0  0  0  0  0  0  0  0
   33.5880  -28.8140   -0.3250 C   0  0  0  0  0  0  0  0  0  0  0  0
   33.9480  -27.9440    0.4620 O   0  0  0  0  0  0  0  0  0  0  0  0
   33.5610  -30.2340    0.1130 C   0  0  0  0  0  0  0  0  0  0  0  0
   32.3290  -30.7940    0.4910 C   0  0  0  0  0  0  0  0  0  0  0  0
   32.2400  -32.1400    0.8790 C   0  0  0  0  0  0  0  0  0  0  0  0
   31.0170  -32.7160    1.2600 C   0  0  0  0  0  0  0  0  0  0  0  0
   30.9490  -34.0580    1.6360 C   0  0  0  0  0  0  0  0  0  0  0  0
   32.1010  -34.8410    1.6350 C   0  0  0  0  0  0  0  0  0  0  0  0
   33.3220  -34.2810    1.2570 C   0  0  0  0  0  0  0  0  0  0  0  0
   33.4070  -32.9340    0.8800 C   0  0  0  0  0  0  0  0  0  0  0  0
   34.6310  -32.3630    0.4960 C   0  0  0  0  0  0  0  0  0  0  0  0
   34.7310  -31.0160    0.1040 C   0  0  0  0  0  0  0  0  0  0  0  0
   36.0940  -30.4710   -0.2730 C   0  0  0  0  0  0  0  0  0  0  0  0
   36.5220  -30.7340   -1.6980 N   0  0  1  0  0  0  0  0  0  0  0  0
   36.8300  -29.4650   -2.4240 C   0  0  0  0  0  0  0  0  0  0  0  0
   37.5430  -31.8430   -1.8470 C   0  0  0  0  0  0  0  0  0  0  0  0
   37.0640  -33.2710   -1.6950 C   0  0  0  0  0  0  0  0  0  0  0  0
   36.0430  -33.7630   -2.5300 C   0  0  0  0  0  0  0  0  0  0  0  0
   35.5830  -35.0730   -2.3940 C   0  0  0  0  0  0  0  0  0  0  0  0
   36.1370  -35.9080   -1.4280 C   0  0  0  0  0  0  0  0  0  0  0  0
   37.1650  -35.4420   -0.6060 C   0  0  0  0  0  0  0  0  0  0  0  0
   37.6400  -36.2760    0.3700 O   0  0  0  0  0  0  0  0  0  0  0  0
   37.2770  -37.6280    0.0910 C   0  0  0  0  0  0  0  0  0  0  0  0
   37.6280  -34.1260   -0.7180 C   0  0  0  0  0  0  0  0  0  0  0  0
   38.7320  -33.6140    0.1460 C   0  0  0  0  0  0  0  0  0  0  0  0
   39.9130  -33.8790   -0.2310 O   0  0  0  0  0  0  0  0  0  0  0  0
   38.3980  -33.1510    1.2790 O   0  0  0  0  0  0  0  0  0  0  0  0
   35.2410  -26.2540   -2.9600 C   0  0  0  0  0  0  0  0  0  0  0  0
   36.1980  -26.0610   -3.9620 C   0  0  0  0  0  0  0  0  0  0  0  0
   38.3173  -27.4999   -5.2174 H   0  0  0  0  0  0  0  0  0  0  0  0
   37.8366  -28.2593   -6.7727 H   0  0  0  0  0  0  0  0  0  0  0  0
   38.8522  -26.7776   -6.7727 H   0  0  0  0  0  0  0  0  0  0  0  0
   34.6982  -27.7969   -6.4771 H   0  0  0  0  0  0  0  0  0  0  0  0
   32.9954  -28.1454   -4.6978 H   0  0  0  0  0  0  0  0  0  0  0  0
   33.2507  -26.5110   -1.3043 H   0  0  0  0  0  0  0  0  0  0  0  0
   32.0597  -27.0799   -2.5350 H   0  0  0  0  0  0  0  0  0  0  0  0
   32.7250  -29.3070   -2.1410 H   0  0  0  0  0  0  0  0  0  0  0  0
   31.4232  -30.1699    0.4828 H   0  0  0  0  0  0  0  0  0  0  0  0
   30.1036  -32.1030    1.2620 H   0  0  0  0  0  0  0  0  0  0  0  0
   29.9855  -34.4977    1.9332 H   0  0  0  0  0  0  0  0  0  0  0  0
   32.0484  -35.8989    1.9317 H   0  0  0  0  0  0  0  0  0  0  0  0
   34.2284  -34.9042    1.2549 H   0  0  0  0  0  0  0  0  0  0  0  0
   35.5371  -32.9867    0.5019 H   0  0  0  0  0  0  0  0  0  0  0  0
   36.0796  -29.3821   -0.1178 H   0  0  0  0  0  0  0  0  0  0  0  0
   36.8195  -30.9971    0.3649 H   0  0  0  0  0  0  0  0  0  0  0  0
   35.6560  -31.0820   -2.1440 H   0  0  0  0  0  0  0  0  0  0  0  0
   37.0244  -28.6639   -1.6957 H   0  0  0  0  0  0  0  0  0  0  0  0
   37.7190  -29.6103   -3.0554 H   0  0  0  0  0  0  0  0  0  0  0  0
   35.9734  -29.1866   -3.0554 H   0  0  0  0  0  0  0  0  0  0  0  0
   37.9835  -31.7502   -2.8506 H   0  0  0  0  0  0  0  0  0  0  0  0
   38.2374  -31.6938   -1.0070 H   0  0  0  0  0  0  0  0  0  0  0  0
   35.6037  -33.1083   -3.2970 H   0  0  0  0  0  0  0  0  0  0  0  0
   34.7827  -35.4459   -3.0500 H   0  0  0  0  0  0  0  0  0  0  0  0
   35.7644  -36.9365   -1.3120 H   0  0  0  0  0  0  0  0  0  0  0  0
   37.1312  -38.1711    1.0364 H   0  0  0  0  0  0  0  0  0  0  0  0
   36.3426  -37.6445   -0.4892 H   0  0  0  0  0  0  0  0  0  0  0  0
   38.0775  -38.1103   -0.4892 H   0  0  0  0  0  0  0  0  0  0  0  0
   35.4042  -25.8214   -1.9619 H   0  0  0  0  0  0  0  0  0  0  0  0
   37.1033  -25.4734   -3.7496 H   0  0  0  0  0  0  0  0  0  0  0  0
  1  2  1  0
  2  3  1  0
  3  4  2  0
  4  5  1  0
  5  6  2  0
  6  7  1  0
  7  8  1  0
  8  9  1  0
  9 10  2  0
  9 11  1  0
 11 12  2  0
 12 13  1  0
 13 14  2  0
 14 15  1  0
 15 16  2  0
 16 17  1  0
 17 18  2  0
 18 19  1  0
 19 20  2  0
 20 21  1  0
 21 22  1  0
 22 23  1  0
 22 24  1  0
 24 25  1  0
 25 26  2  0
 26 27  1  0
 27 28  2  0
 28 29  1  0
 29 30  1  0
 30 31  1  0
 29 32  2  0
 32 33  1  0
 33 34  2  0
 33 35  1  0
  6 36  1  0
 36 37  2  0
 37  3  1  0
 20 11  1  0
 32 25  1  0
 18 13  1  0
  1 38  1  0
  1 39  1  0
  1 40  1  0
  4 41  1  0
  5 42  1  0
  7 43  1  0
  7 44  1  0
  8 45  1  0
 12 46  1  0
 14 47  1  0
 15 48  1  0
 16 49  1  0
 17 50  1  0
 19 51  1  0
 21 52  1  0
 21 53  1  0
 22 54  1  6
 23 55  1  0
 23 56  1  0
 23 57  1  0
 24 58  1  0
 24 59  1  0
 26 60  1  0
 27 61  1  0
 28 62  1  0
 31 63  1  0
 31 64  1  0
 31 65  1  0
 36 66  1  0
 37 67  1  0
M  CHG  2  22   1  35  -1
M  END
>  <meeko>  (5) 
{"is_sidechain": [false], "free_energy": -7.304, "intermolecular_energy": -11.566, "internal_energy": -2.692}

$$$$
4cig_ligand
     RDKit          3D

 67 70  0  0  0  0  0  0  0  0999 V2000
   31.8580  -35.7350    1.7640 C   0  0  0  0  0  0  0  0  0  0  0  0
   32.6470  -34.7010    2.3380 O   0  0  0  0  0  0  0  0  0  0  0  0
   32.5000  -33.4470    1.8130 C   0  0  0  0  0  0  0  0  0  0  0  0
   31.1770  -33.0540    1.6020 C   0  0  0  0  0  0  0  0  0  0  0  0
   30.8800  -31.7970    1.0700 C   0  0  0  0  0  0  0  0  0  0  0  0
   31.9110  -30.9120    0.7350 C   0  0  0  0  0  0  0  0  0  0  0  0
   31.6020  -29.5430    0.1960 C   0  0  0  0  0  0  0  0  0  0  0  0
   32.4710  -29.2260   -0.9140 N   0  0  0  0  0  0  0  0  0  0  0  0
   33.5930  -28.4550   -0.7420 C   0  0  0  0  0  0  0  0  0  0  0  0
   33.9180  -27.9340    0.3200 O   0  0  0  0  0  0  0  0  0  0  0  0
   34.4570  -28.2830   -1.9390 C   0  0  0  0  0  0  0  0  0  0  0  0
   33.9750  -27.5110   -3.0080 C   0  0  0  0  0  0  0  0  0  0  0  0
   34.7640  -27.2860   -4.1470 C   0  0  0  0  0  0  0  0  0  0  0  0
   34.2980  -26.5160   -5.2250 C   0  0  0  0  0  0  0  0  0  0  0  0
   35.1000  -26.3000   -6.3450 C   0  0  0  0  0  0  0  0  0  0  0  0
   36.3790  -26.8490   -6.4020 C   0  0  0  0  0  0  0  0  0  0  0  0
   36.8550  -27.6150   -5.3380 C   0  0  0  0  0  0  0  0  0  0  0  0
   36.0600  -27.8440   -4.2060 C   0  0  0  0  0  0  0  0  0  0  0  0
   36.5320  -28.6110   -3.1290 C   0  0  0  0  0  0  0  0  0  0  0  0
   35.7500  -28.8400   -1.9820 C   0  0  0  0  0  0  0  0  0  0  0  0
   36.3240  -29.6990   -0.8740 C   0  0  0  0  0  0  0  0  0  0  0  0
   37.7650  -30.1140   -1.0610 N   0  0  1  0  0  0  0  0  0  0  0  0
   38.5590  -29.9280    0.1910 C   0  0  0  0  0  0  0  0  0  0  0  0
   37.9440  -31.4430   -1.7640 C   0  0  0  0  0  0  0  0  0  0  0  0
   37.1350  -32.6220   -1.2650 C   0  0  0  0  0  0  0  0  0  0  0  0
   37.4510  -33.2220   -0.0320 C   0  0  0  0  0  0  0  0  0  0  0  0
   36.7210  -34.3150    0.4350 C   0  0  0  0  0  0  0  0  0  0  0  0
   35.6670  -34.8220   -0.3210 C   0  0  0  0  0  0  0  0  0  0  0  0
   35.3270  -34.2250   -1.5360 C   0  0  0  0  0  0  0  0  0  0  0  0
   34.3240  -34.7910   -2.2750 O   0  0  0  0  0  0  0  0  0  0  0  0
   33.0560  -34.5430   -1.6670 C   0  0  0  0  0  0  0  0  0  0  0  0
   36.0580  -33.1370   -2.0260 C   0  0  0  0  0  0  0  0  0  0  0  0
   35.7040  -32.4810   -3.3200 C   0  0  0  0  0  0  0  0  0  0  0  0
   34.7440  -31.6520   -3.2880 O   0  0  0  0  0  0  0  0  0  0  0  0
   36.2390  -32.9610   -4.3660 O   0  0  0  0  0  0  0  0  0  0  0  0
   33.2380  -31.3040    0.9590 C   0  0  0  0  0  0  0  0  0  0  0  0
   33.5310  -32.5650    1.4910 C   0  0  0  0  0  0  0  0  0  0  0  0
   31.4005  -36.3346    2.5648 H   0  0  0  0  0  0  0  0  0  0  0  0
   31.0675  -35.2904    1.1416 H   0  0  0  0  0  0  0  0  0  0  0  0
   32.4955  -36.3801    1.1416 H   0  0  0  0  0  0  0  0  0  0  0  0
   30.3584  -33.7428    1.8579 H   0  0  0  0  0  0  0  0  0  0  0  0
   29.8319  -31.5017    0.9138 H   0  0  0  0  0  0  0  0  0  0  0  0
   30.5563  -29.5159   -0.1442 H   0  0  0  0  0  0  0  0  0  0  0  0
   31.7615  -28.8030    0.9941 H   0  0  0  0  0  0  0  0  0  0  0  0
   32.3600  -29.7690   -1.7620 H   0  0  0  0  0  0  0  0  0  0  0  0
   32.9659  -27.0768   -2.9523 H   0  0  0  0  0  0  0  0  0  0  0  0
   33.2895  -26.0786   -5.1854 H   0  0  0  0  0  0  0  0  0  0  0  0
   34.7228  -25.6961   -7.1835 H   0  0  0  0  0  0  0  0  0  0  0  0
   37.0127  -26.6787   -7.2849 H   0  0  0  0  0  0  0  0  0  0  0  0
   37.8664  -28.0447   -5.3876 H   0  0  0  0  0  0  0  0  0  0  0  0
   37.5413  -29.0450   -3.1834 H   0  0  0  0  0  0  0  0  0  0  0  0
   36.2523  -29.1333    0.0667 H   0  0  0  0  0  0  0  0  0  0  0  0
   35.7366  -30.6290   -0.8740 H   0  0  0  0  0  0  0  0  0  0  0  0
   38.1340  -29.3970   -1.7090 H   0  0  0  0  0  0  0  0  0  0  0  0
   37.9077  -30.0806    1.0643 H   0  0  0  0  0  0  0  0  0  0  0  0
   39.3817  -30.6577    0.2152 H   0  0  0  0  0  0  0  0  0  0  0  0
   38.9720  -28.9088    0.2152 H   0  0  0  0  0  0  0  0  0  0  0  0
   37.6844  -31.2917   -2.8222 H   0  0  0  0  0  0  0  0  0  0  0  0
   38.9895  -31.7217   -1.5661 H   0  0  0  0  0  0  0  0  0  0  0  0
   38.2820  -32.8251    0.5696 H   0  0  0  0  0  0  0  0  0  0  0  0
   36.9777  -34.7763    1.4000 H   0  0  0  0  0  0  0  0  0  0  0  0
   35.1018  -35.6940    0.0398 H   0  0  0  0  0  0  0  0  0  0  0  0
   33.1638  -34.5641   -0.5725 H   0  0  0  0  0  0  0  0  0  0  0  0
   32.6861  -33.5555   -1.9801 H   0  0  0  0  0  0  0  0  0  0  0  0
   32.3413  -35.3184   -1.9801 H   0  0  0  0  0  0  0  0  0  0  0  0
   34.0581  -30.6130    0.7140 H   0  0  0  0  0  0  0  0  0  0  0  0
   34.5775  -32.8611    1.6556 H   0  0  0  0  0  0  0  0  0  0  0  0
  1  2  1  0
  2  3  1  0
  3  4  2  0
  4  5  1  0
  5  6  2  0
  6  7  1  0
  7  8  1  0
  8  9  1  0
  9 10  2  0
  9 11  1  0
 11 12  2  0
 12 13  1  0
 13 14  2  0
 14 15  1  0
 15 16  2  0
 16 17  1  0
 17 18  2  0
 18 19  1  0
 19 20  2  0
 20 21  1  0
 21 22  1  0
 22 23  1  0
 22 24  1  0
 24 25  1  0
 25 26  2  0
 26 27  1  0
 27 28  2  0
 28 29  1  0
 29 30  1  0
 30 31  1  0
 29 32  2  0
 32 33  1  0
 33 34  2  0
 33 35  1  0
  6 36  1  0
 36 37  2  0
 37  3  1  0
 20 11  1  0
 32 25  1  0
 18 13  1  0
  1 38  1  0
  1 39  1  0
  1 40  1  0
  4 41  1  0
  5 42  1  0
  7 43  1  0
  7 44  1  0
  8 45  1  0
 12 46  1  0
 14 47  1  0
 15 48  1  0
 16 49  1  0
 17 50  1  0
 19 51  1  0
 21 52  1  0
 21 53  1  0
 22 54  1  6
 23 55  1  0
 23 56  1  0
 23 57  1  0
 24 58  1  0
 24 59  1  0
 26 60  1  0
 27 61  1  0
 28 62  1  0
 31 63  1  0
 31 64  1  0
 31 65  1  0
 36 66  1  0
 37 67  1  0
M  CHG  2  22   1  35  -1
M  END
>  <meeko>  (6) 
{"is_sidechain": [false], "free_energy": -7.265, "intermolecular_energy": -11.603, "internal_energy": -2.593}

$$$$
4cig_ligand
     RDKit          3D

 67 70  0  0  0  0  0  0  0  0999 V2000
   31.4450  -35.4930    3.2580 C   0  0  0  0  0  0  0  0  0  0  0  0
   32.4550  -34.8460    2.4930 O   0  0  0  0  0  0  0  0  0  0  0  0
   32.1550  -33.6100    1.9920 C   0  0  0  0  0  0  0  0  0  0  0  0
   33.2050  -32.6910    2.0380 C   0  0  0  0  0  0  0  0  0  0  0  0
   33.0390  -31.3900    1.5590 C   0  0  0  0  0  0  0  0  0  0  0  0
   31.8090  -30.9860    1.0280 C   0  0  0  0  0  0  0  0  0  0  0  0
   31.6290  -29.5990    0.4770 C   0  0  0  0  0  0  0  0  0  0  0  0
   32.4060  -29.4270   -0.7290 N   0  0  0  0  0  0  0  0  0  0  0  0
   33.5190  -28.6250   -0.7520 C   0  0  0  0  0  0  0  0  0  0  0  0
   33.9100  -27.9570    0.2010 O   0  0  0  0  0  0  0  0  0  0  0  0
   34.2870  -28.6090   -2.0240 C   0  0  0  0  0  0  0  0  0  0  0  0
   33.9640  -27.6420   -2.9900 C   0  0  0  0  0  0  0  0  0  0  0  0
   34.6810  -27.5590   -4.1930 C   0  0  0  0  0  0  0  0  0  0  0  0
   34.3710  -26.5980   -5.1700 C   0  0  0  0  0  0  0  0  0  0  0  0
   35.1010  -26.5290   -6.3570 C   0  0  0  0  0  0  0  0  0  0  0  0
   36.1490  -27.4170   -6.5830 C   0  0  0  0  0  0  0  0  0  0  0  0
   36.4690  -28.3760   -5.6200 C   0  0  0  0  0  0  0  0  0  0  0  0
   35.7430  -28.4600   -4.4240 C   0  0  0  0  0  0  0  0  0  0  0  0
   36.0590  -29.4200   -3.4490 C   0  0  0  0  0  0  0  0  0  0  0  0
   35.3470  -29.5100   -2.2380 C   0  0  0  0  0  0  0  0  0  0  0  0
   35.7360  -30.5890   -1.2490 C   0  0  0  0  0  0  0  0  0  0  0  0
   37.2090  -30.9240   -1.2050 N   0  0  1  0  0  0  0  0  0  0  0  0
   37.8560  -30.3990    0.0350 C   0  0  0  0  0  0  0  0  0  0  0  0
   37.5330  -32.3590   -1.5600 C   0  0  0  0  0  0  0  0  0  0  0  0
   37.7330  -32.6990   -3.0220 C   0  0  0  0  0  0  0  0  0  0  0  0
   38.6430  -31.9580   -3.7980 C   0  0  0  0  0  0  0  0  0  0  0  0
   38.8300  -32.2520   -5.1500 C   0  0  0  0  0  0  0  0  0  0  0  0
   38.1130  -33.2890   -5.7410 C   0  0  0  0  0  0  0  0  0  0  0  0
   37.2210  -34.0470   -4.9800 C   0  0  0  0  0  0  0  0  0  0  0  0
   36.4930  -35.0170   -5.6140 O   0  0  0  0  0  0  0  0  0  0  0  0
   36.4440  -34.7660   -7.0180 C   0  0  0  0  0  0  0  0  0  0  0  0
   37.0110  -33.7560   -3.6280 C   0  0  0  0  0  0  0  0  0  0  0  0
   36.0680  -34.5610   -2.7960 C   0  0  0  0  0  0  0  0  0  0  0  0
   36.5160  -35.6540   -2.3330 O   0  0  0  0  0  0  0  0  0  0  0  0
   34.8520  -34.1980   -2.8040 O   0  0  0  0  0  0  0  0  0  0  0  0
   30.7600  -31.9140    0.9720 C   0  0  0  0  0  0  0  0  0  0  0  0
   30.9310  -33.2170    1.4540 C   0  0  0  0  0  0  0  0  0  0  0  0
   31.6543  -35.3589    4.3296 H   0  0  0  0  0  0  0  0  0  0  0  0
   30.4654  -35.0539    3.0180 H   0  0  0  0  0  0  0  0  0  0  0  0
   31.4344  -36.5664    3.0180 H   0  0  0  0  0  0  0  0  0  0  0  0
   34.1754  -32.9957    2.4569 H   0  0  0  0  0  0  0  0  0  0  0  0
   33.8782  -30.6800    1.5992 H   0  0  0  0  0  0  0  0  0  0  0  0
   30.5655  -29.4359    0.2484 H   0  0  0  0  0  0  0  0  0  0  0  0
   31.9724  -28.8716    1.2273 H   0  0  0  0  0  0  0  0  0  0  0  0
   32.2440  -30.0830   -1.4830 H   0  0  0  0  0  0  0  0  0  0  0  0
   33.1380  -26.9406   -2.8009 H   0  0  0  0  0  0  0  0  0  0  0  0
   33.5445  -25.8930   -4.9973 H   0  0  0  0  0  0  0  0  0  0  0  0
   34.8483  -25.7726   -7.1146 H   0  0  0  0  0  0  0  0  0  0  0  0
   36.7242  -27.3632   -7.5191 H   0  0  0  0  0  0  0  0  0  0  0  0
   37.3001  -29.0733   -5.8019 H   0  0  0  0  0  0  0  0  0  0  0  0
   36.8857  -30.1210   -3.6368 H   0  0  0  0  0  0  0  0  0  0  0  0
   35.4332  -30.2554   -0.2455 H   0  0  0  0  0  0  0  0  0  0  0  0
   35.2255  -31.5049   -1.5816 H   0  0  0  0  0  0  0  0  0  0  0  0
   37.6050  -30.3450   -1.9660 H   0  0  0  0  0  0  0  0  0  0  0  0
   37.3464  -30.8125    0.9178 H   0  0  0  0  0  0  0  0  0  0  0  0
   38.9149  -30.6964    0.0501 H   0  0  0  0  0  0  0  0  0  0  0  0
   37.7831  -29.3015    0.0501 H   0  0  0  0  0  0  0  0  0  0  0  0
   38.4602  -32.6259   -1.0317 H   0  0  0  0  0  0  0  0  0  0  0  0
   36.6373  -32.9253   -1.2650 H   0  0  0  0  0  0  0  0  0  0  0  0
   39.2128  -31.1389   -3.3350 H   0  0  0  0  0  0  0  0  0  0  0  0
   39.5430  -31.6650   -5.7476 H   0  0  0  0  0  0  0  0  0  0  0  0
   38.2496  -33.5115   -6.8096 H   0  0  0  0  0  0  0  0  0  0  0  0
   36.2359  -33.7001   -7.1929 H   0  0  0  0  0  0  0  0  0  0  0  0
   37.4107  -35.0301   -7.4717 H   0  0  0  0  0  0  0  0  0  0  0  0
   35.6477  -35.3743   -7.4717 H   0  0  0  0  0  0  0  0  0  0  0  0
   29.7916  -31.6150    0.5445 H   0  0  0  0  0  0  0  0  0  0  0  0
   30.0969  -33.9327    1.4080 H   0  0  0  0  0  0  0  0  0  0  0  0
  1  2  1  0
  2  3  1  0
  3  4  2  0
  4  5  1  0
  5  6  2  0
  6  7  1  0
  7  8  1  0
  8  9  1  0
  9 10  2  0
  9 11  1  0
 11 12  2  0
 12 13  1  0
 13 14  2  0
 14 15  1  0
 15 16  2  0
 16 17  1  0
 17 18  2  0
 18 19  1  0
 19 20  2  0
 20 21  1  0
 21 22  1  0
 22 23  1  0
 22 24  1  0
 24 25  1  0
 25 26  2  0
 26 27  1  0
 27 28  2  0
 28 29  1  0
 29 30  1  0
 30 31  1  0
 29 32  2  0
 32 33  1  0
 33 34  2  0
 33 35  1  0
  6 36  1  0
 36 37  2  0
 37  3  1  0
 20 11  1  0
 32 25  1  0
 18 13  1  0
  1 38  1  0
  1 39  1  0
  1 40  1  0
  4 41  1  0
  5 42  1  0
  7 43  1  0
  7 44  1  0
  8 45  1  0
 12 46  1  0
 14 47  1  0
 15 48  1  0
 16 49  1  0
 17 50  1  0
 19 51  1  0
 21 52  1  0
 21 53  1  0
 22 54  1  6
 23 55  1  0
 23 56  1  0
 23 57  1  0
 24 58  1  0
 24 59  1  0
 26 60  1  0
 27 61  1  0
 28 62  1  0
 31 63  1  0
 31 64  1  0
 31 65  1  0
 36 66  1  0
 37 67  1  0
M  CHG  2  22   1  35  -1
M  END
>  <meeko>  (7) 
{"is_sidechain": [false], "free_energy": -7.137, "intermolecular_energy": -11.629, "internal_energy": -2.365}

$$$$
4cig_ligand
     RDKit          3D

 67 70  0  0  0  0  0  0  0  0999 V2000
   36.6220  -26.9350   -7.5090 C   0  0  0  0  0  0  0  0  0  0  0  0
   36.9540  -26.2880   -6.2870 O   0  0  0  0  0  0  0  0  0  0  0  0
   36.0910  -26.4610   -5.2410 C   0  0  0  0  0  0  0  0  0  0  0  0
   34.8840  -27.0790   -5.5770 C   0  0  0  0  0  0  0  0  0  0  0  0
   33.9090  -27.3190   -4.6060 C   0  0  0  0  0  0  0  0  0  0  0  0
   34.1280  -26.9370   -3.2770 C   0  0  0  0  0  0  0  0  0  0  0  0
   33.1000  -27.2220   -2.2180 C   0  0  0  0  0  0  0  0  0  0  0  0
   33.2390  -28.5740   -1.7270 N   0  0  0  0  0  0  0  0  0  0  0  0
   33.6890  -28.8280   -0.4570 C   0  0  0  0  0  0  0  0  0  0  0  0
   34.0590  -27.9630    0.3320 O   0  0  0  0  0  0  0  0  0  0  0  0
   33.6930  -30.2530   -0.0370 C   0  0  0  0  0  0  0  0  0  0  0  0
   32.5210  -30.7900    0.5210 C   0  0  0  0  0  0  0  0  0  0  0  0
   32.4580  -32.1390    0.9000 C   0  0  0  0  0  0  0  0  0  0  0  0
   31.2940  -32.6920    1.4600 C   0  0  0  0  0  0  0  0  0  0  0  0
   31.2490  -34.0380    1.8250 C   0  0  0  0  0  0  0  0  0  0  0  0
   32.3660  -34.8480    1.6360 C   0  0  0  0  0  0  0  0  0  0  0  0
   33.5290  -34.3120    1.0800 C   0  0  0  0  0  0  0  0  0  0  0  0
   33.5890  -32.9610    0.7100 C   0  0  0  0  0  0  0  0  0  0  0  0
   34.7540  -32.4140    0.1480 C   0  0  0  0  0  0  0  0  0  0  0  0
   34.8270  -31.0630   -0.2380 C   0  0  0  0  0  0  0  0  0  0  0  0
   36.1280  -30.5440   -0.8150 C   0  0  0  0  0  0  0  0  0  0  0  0
   36.4510  -31.0240   -2.2110 N   0  0  1  0  0  0  0  0  0  0  0  0
   36.3260  -29.9240   -3.2140 C   0  0  0  0  0  0  0  0  0  0  0  0
   37.7080  -31.8630   -2.3070 C   0  0  0  0  0  0  0  0  0  0  0  0
   37.9680  -32.6040   -3.6010 C   0  0  0  0  0  0  0  0  0  0  0  0
   38.9740  -32.1570   -4.4780 C   0  0  0  0  0  0  0  0  0  0  0  0
   39.2170  -32.8230   -5.6800 C   0  0  0  0  0  0  0  0  0  0  0  0
   38.4620  -33.9430   -6.0200 C   0  0  0  0  0  0  0  0  0  0  0  0
   37.4750  -34.4110   -5.1510 C   0  0  0  0  0  0  0  0  0  0  0  0
   36.7160  -35.4780   -5.5510 O   0  0  0  0  0  0  0  0  0  0  0  0
   36.5680  -35.4810   -6.9700 C   0  0  0  0  0  0  0  0  0  0  0  0
   37.2080  -33.7470   -3.9490 C   0  0  0  0  0  0  0  0  0  0  0  0
   36.1610  -34.2380   -3.0040 C   0  0  0  0  0  0  0  0  0  0  0  0
   36.4630  -35.2550   -2.3080 O   0  0  0  0  0  0  0  0  0  0  0  0
   35.0010  -33.7400   -3.1320 O   0  0  0  0  0  0  0  0  0  0  0  0
   35.3440  -26.3280   -2.9410 C   0  0  0  0  0  0  0  0  0  0  0  0
   36.3180  -26.0880   -3.9180 C   0  0  0  0  0  0  0  0  0  0  0  0
   36.1295  -27.8948   -7.2937 H   0  0  0  0  0  0  0  0  0  0  0  0
   35.9407  -26.2953   -8.0893 H   0  0  0  0  0  0  0  0  0  0  0  0
   37.5389  -27.1154   -8.0893 H   0  0  0  0  0  0  0  0  0  0  0  0
   34.6992  -27.3802   -6.6187 H   0  0  0  0  0  0  0  0  0  0  0  0
   32.9655  -27.8100   -4.8866 H   0  0  0  0  0  0  0  0  0  0  0  0
   33.2356  -26.5183   -1.3835 H   0  0  0  0  0  0  0  0  0  0  0  0
   32.0975  -27.1041   -2.6551 H   0  0  0  0  0  0  0  0  0  0  0  0
   32.7830  -29.3090   -2.2550 H   0  0  0  0  0  0  0  0  0  0  0  0
   31.6416  -30.1445    0.6625 H   0  0  0  0  0  0  0  0  0  0  0  0
   30.4088  -32.0570    1.6123 H   0  0  0  0  0  0  0  0  0  0  0  0
   30.3315  -34.4592    2.2619 H   0  0  0  0  0  0  0  0  0  0  0  0
   32.3319  -35.9089    1.9245 H   0  0  0  0  0  0  0  0  0  0  0  0
   34.4078  -34.9566    0.9306 H   0  0  0  0  0  0  0  0  0  0  0  0
   35.6334  -33.0594    0.0057 H   0  0  0  0  0  0  0  0  0  0  0  0
   36.0761  -29.4454   -0.8366 H   0  0  0  0  0  0  0  0  0  0  0  0
   36.9261  -30.9342   -0.1664 H   0  0  0  0  0  0  0  0  0  0  0  0
   35.6650  -31.6610   -2.4290 H   0  0  0  0  0  0  0  0  0  0  0  0
   36.2167  -28.9621   -2.6916 H   0  0  0  0  0  0  0  0  0  0  0  0
   37.2270  -29.8985   -3.8445 H   0  0  0  0  0  0  0  0  0  0  0  0
   35.4422  -30.1013   -3.8445 H   0  0  0  0  0  0  0  0  0  0  0  0
   38.5631  -31.1926   -2.1359 H   0  0  0  0  0  0  0  0  0  0  0  0
   37.5678  -32.6565   -1.5582 H   0  0  0  0  0  0  0  0  0  0  0  0
   39.5745  -31.2742   -4.2134 H   0  0  0  0  0  0  0  0  0  0  0  0
   40.0045  -32.4636   -6.3587 H   0  0  0  0  0  0  0  0  0  0  0  0
   38.6437  -34.4592   -6.9742 H   0  0  0  0  0  0  0  0  0  0  0  0
   35.4987  -35.5027   -7.2271 H   0  0  0  0  0  0  0  0  0  0  0  0
   37.0274  -34.5734   -7.3885 H   0  0  0  0  0  0  0  0  0  0  0  0
   37.0638  -36.3693   -7.3885 H   0  0  0  0  0  0  0  0  0  0  0  0
   35.5358  -26.0351   -1.8982 H   0  0  0  0  0  0  0  0  0  0  0  0
   37.2655  -25.6033   -3.6400 H   0  0  0  0  0  0  0  0  0  0  0  0
  1  2  1  0
  2  3  1  0
  3  4  2  0
  4  5  1  0
  5  6  2  0
  6  7  1  0
  7  8  1  0
  8  9  1  0
  9 10  2  0
  9 11  1  0
 11 12  2  0
 12 13  1  0
 13 14  2  0
 14 15  1  0
 15 16  2  0
 16 17  1  0
 17 18  2  0
 18 19  1  0
 19 20  2  0
 20 21  1  0
 21 22  1  0
 22 23  1  0
 22 24  1  0
 24 25  1  0
 25 26  2  0
 26 27  1  0
 27 28  2  0
 28 29  1  0
 29 30  1  0
 30 31  1  0
 29 32  2  0
 32 33  1  0
 33 34  2  0
 33 35  1  0
  6 36  1  0
 36 37  2  0
 37  3  1  0
 20 11  1  0
 32 25  1  0
 18 13  1  0
  1 38  1  0
  1 39  1  0
  1 40  1  0
  4 41  1  0
  5 42  1  0
  7 43  1  0
  7 44  1  0
  8 45  1  0
 12 46  1  0
 14 47  1  0
 15 48  1  0
 16 49  1  0
 17 50  1  0
 19 51  1  0
 21 52  1  0
 21 53  1  0
 22 54  1  6
 23 55  1  0
 23 56  1  0
 23 57  1  0
 24 58  1  0
 24 59  1  0
 26 60  1  0
 27 61  1  0
 28 62  1  0
 31 63  1  0
 31 64  1  0
 31 65  1  0
 36 66  1  0
 37 67  1  0
M  CHG  2  22   1  35  -1
M  END
>  <meeko>  (8) 
{"is_sidechain": [false], "free_energy": -7.08, "intermolecular_energy": -11.598, "internal_energy": -2.304}

$$$$
4cig_ligand
     RDKit          3D

 67 70  0  0  0  0  0  0  0  0999 V2000
   31.5190  -32.9650    1.5500 C   0  0  0  0  0  0  0  0  0  0  0  0
   31.2100  -31.6640    2.0350 O   0  0  0  0  0  0  0  0  0  0  0  0
   31.4420  -30.6170    1.1880 C   0  0  0  0  0  0  0  0  0  0  0  0
   32.6850  -30.6450    0.5510 C   0  0  0  0  0  0  0  0  0  0  0  0
   33.0550  -29.6370   -0.3420 C   0  0  0  0  0  0  0  0  0  0  0  0
   32.1820  -28.5760   -0.6090 C   0  0  0  0  0  0  0  0  0  0  0  0
   32.5560  -27.5050   -1.5950 C   0  0  0  0  0  0  0  0  0  0  0  0
   33.5390  -27.9980   -2.5320 N   0  0  0  0  0  0  0  0  0  0  0  0
   34.6110  -27.2300   -2.9110 C   0  0  0  0  0  0  0  0  0  0  0  0
   34.7960  -26.0730   -2.5450 O   0  0  0  0  0  0  0  0  0  0  0  0
   35.6020  -27.8860   -3.8020 C   0  0  0  0  0  0  0  0  0  0  0  0
   35.4090  -27.8090   -5.1910 C   0  0  0  0  0  0  0  0  0  0  0  0
   36.3340  -28.3790   -6.0790 C   0  0  0  0  0  0  0  0  0  0  0  0
   36.1560  -28.3110   -7.4700 C   0  0  0  0  0  0  0  0  0  0  0  0
   37.0900  -28.8800   -8.3360 C   0  0  0  0  0  0  0  0  0  0  0  0
   38.2140  -29.5220   -7.8230 C   0  0  0  0  0  0  0  0  0  0  0  0
   38.4040  -29.5960   -6.4430 C   0  0  0  0  0  0  0  0  0  0  0  0
   37.4720  -29.0320   -5.5600 C   0  0  0  0  0  0  0  0  0  0  0  0
   37.6570  -29.1000   -4.1690 C   0  0  0  0  0  0  0  0  0  0  0  0
   36.7360  -28.5290   -3.2710 C   0  0  0  0  0  0  0  0  0  0  0  0
   36.9960  -28.6670   -1.7840 C   0  0  0  0  0  0  0  0  0  0  0  0
   37.2300  -30.0780   -1.2990 N   0  0  1  0  0  0  0  0  0  0  0  0
   38.0090  -30.1000   -0.0230 C   0  0  0  0  0  0  0  0  0  0  0  0
   36.0010  -30.9610   -1.3350 C   0  0  0  0  0  0  0  0  0  0  0  0
   36.1210  -32.3160   -2.0010 C   0  0  0  0  0  0  0  0  0  0  0  0
   36.2230  -32.4040   -3.4020 C   0  0  0  0  0  0  0  0  0  0  0  0
   36.3240  -33.6460   -4.0300 C   0  0  0  0  0  0  0  0  0  0  0  0
   36.3260  -34.8130   -3.2700 C   0  0  0  0  0  0  0  0  0  0  0  0
   36.2470  -34.7410   -1.8780 C   0  0  0  0  0  0  0  0  0  0  0  0
   36.1930  -35.9120   -1.1720 O   0  0  0  0  0  0  0  0  0  0  0  0
   37.4690  -36.5510   -1.1680 C   0  0  0  0  0  0  0  0  0  0  0  0
   36.1310  -33.5050   -1.2330 C   0  0  0  0  0  0  0  0  0  0  0  0
   36.0530  -33.4080    0.2550 C   0  0  0  0  0  0  0  0  0  0  0  0
   37.1570  -33.4250    0.8800 O   0  0  0  0  0  0  0  0  0  0  0  0
   34.9020  -33.5350    0.7740 O   0  0  0  0  0  0  0  0  0  0  0  0
   30.9310  -28.5560    0.0220 C   0  0  0  0  0  0  0  0  0  0  0  0
   30.5650  -29.5670    0.9180 C   0  0  0  0  0  0  0  0  0  0  0  0
   31.6804  -33.6444    2.3999 H   0  0  0  0  0  0  0  0  0  0  0  0
   30.6840  -33.3359    0.9375 H   0  0  0  0  0  0  0  0  0  0  0  0
   32.4316  -32.9208    0.9375 H   0  0  0  0  0  0  0  0  0  0  0  0
   33.3813  -31.4717    0.7554 H   0  0  0  0  0  0  0  0  0  0  0  0
   34.0363  -29.6770   -0.8374 H   0  0  0  0  0  0  0  0  0  0  0  0
   31.6572  -27.1907   -2.1458 H   0  0  0  0  0  0  0  0  0  0  0  0
   32.9840  -26.6524   -1.0474 H   0  0  0  0  0  0  0  0  0  0  0  0
   33.5410  -28.9930   -2.7230 H   0  0  0  0  0  0  0  0  0  0  0  0
   34.5211  -27.2951   -5.5880 H   0  0  0  0  0  0  0  0  0  0  0  0
   35.2708  -27.8038   -7.8813 H   0  0  0  0  0  0  0  0  0  0  0  0
   36.9385  -28.8215   -9.4239 H   0  0  0  0  0  0  0  0  0  0  0  0
   38.9513  -29.9703   -8.5051 H   0  0  0  0  0  0  0  0  0  0  0  0
   39.2948  -30.1024   -6.0430 H   0  0  0  0  0  0  0  0  0  0  0  0
   38.5451  -29.6130   -3.7713 H   0  0  0  0  0  0  0  0  0  0  0  0
   37.8869  -28.0707   -1.5378 H   0  0  0  0  0  0  0  0  0  0  0  0
   36.0813  -28.3198   -1.2813 H   0  0  0  0  0  0  0  0  0  0  0  0
   37.8810  -30.4650   -2.0040 H   0  0  0  0  0  0  0  0  0  0  0  0
   37.3153  -30.0804    0.8305 H   0  0  0  0  0  0  0  0  0  0  0  0
   38.6170  -31.0157    0.0196 H   0  0  0  0  0  0  0  0  0  0  0  0
   38.6678  -29.2201    0.0196 H   0  0  0  0  0  0  0  0  0  0  0  0
   35.6914  -31.1341   -0.2938 H   0  0  0  0  0  0  0  0  0  0  0  0
   35.2832  -30.4092   -1.9598 H   0  0  0  0  0  0  0  0  0  0  0  0
   36.2231  -31.4855   -4.0073 H   0  0  0  0  0  0  0  0  0  0  0  0
   36.4021  -33.7033   -5.1257 H   0  0  0  0  0  0  0  0  0  0  0  0
   36.3899  -35.7923   -3.7669 H   0  0  0  0  0  0  0  0  0  0  0  0
   37.7943  -36.7139   -0.1299 H   0  0  0  0  0  0  0  0  0  0  0  0
   37.3960  -37.5189   -1.6855 H   0  0  0  0  0  0  0  0  0  0  0  0
   38.2003  -35.9128   -1.6855 H   0  0  0  0  0  0  0  0  0  0  0  0
   30.2285  -27.7363   -0.1893 H   0  0  0  0  0  0  0  0  0  0  0  0
   29.5822  -29.5332    1.4109 H   0  0  0  0  0  0  0  0  0  0  0  0
  1  2  1  0
  2  3  1  0
  3  4  2  0
  4  5  1  0
  5  6  2  0
  6  7  1  0
  7  8  1  0
  8  9  1  0
  9 10  2  0
  9 11  1  0
 11 12  2  0
 12 13  1  0
 13 14  2  0
 14 15  1  0
 15 16  2  0
 16 17  1  0
 17 18  2  0
 18 19  1  0
 19 20  2  0
 20 21  1  0
 21 22  1  0
 22 23  1  0
 22 24  1  0
 24 25  1  0
 25 26  2  0
 26 27  1  0
 27 28  2  0
 28 29  1  0
 29 30  1  0
 30 31  1  0
 29 32  2  0
 32 33  1  0
 33 34  2  0
 33 35  1  0
  6 36  1  0
 36 37  2  0
 37  3  1  0
 20 11  1  0
 32 25  1  0
 18 13  1  0
  1 38  1  0
  1 39  1  0
  1 40  1  0
  4 41  1  0
  5 42  1  0
  7 43  1  0
  7 44  1  0
  8 45  1  0
 12 46  1  0
 14 47  1  0
 15 48  1  0
 16 49  1  0
 17 50  1  0
 19 51  1  0
 21 52  1  0
 21 53  1  0
 22 54  1  6
 23 55  1  0
 23 56  1  0
 23 57  1  0
 24 58  1  0
 24 59  1  0
 26 60  1  0
 27 61  1  0
 28 62  1  0
 31 63  1  0
 31 64  1  0
 31 65  1  0
 36 66  1  0
 37 67  1  0
M  CHG  2  22   1  35  -1
M  END
>  <meeko>  (9) 
{"is_sidechain": [false], "free_energy": -7.02, "intermolecular_energy": -11.22, "internal_energy": -2.588}

$$$$
