3pww_ligand
     RDKit          3D

100104  0  0  0  0  0  0  0  0999 V2000
    4.9490    7.7840   15.0520 C   0  0  0  0  0  0  0  0  0  0  0  0
    3.7040    8.4320   14.4150 C   0  0  0  0  0  0  0  0  0  0  0  0
    3.7870    9.9510   14.6340 C   0  0  0  0  0  0  0  0  0  0  0  0
    2.4540    7.8620   15.1010 C   0  0  0  0  0  0  0  0  0  0  0  0
    3.7080    8.1070   12.9730 N   0  0  0  0  0  0  0  0  0  0  0  0
    2.7720    8.5540   12.0660 C   0  0  0  0  0  0  0  0  0  0  0  0
    1.8070    9.2520   12.3700 O   0  0  0  0  0  0  0  0  0  0  0  0
    2.9800    8.0780   10.6040 C   0  0  2  0  0  0  0  0  0  0  0  0
    3.7620    9.0650    9.7260 C   0  0  0  0  0  0  0  0  0  0  0  0
    2.9510   10.2600    9.1990 C   0  0  2  0  0  0  0  0  0  0  0  0
    2.7290   11.3410   10.2710 C   0  0  0  0  0  0  0  0  0  0  0  0
    1.9230   12.5170    9.7250 C   0  0  0  0  0  0  0  0  0  0  0  0
    0.5920   12.0550    9.1440 C   0  0  0  0  0  0  0  0  0  0  0  0
    0.7900   10.9830    8.0760 C   0  0  0  0  0  0  0  0  0  0  0  0
    1.6310    9.7920    8.5590 C   0  0  2  0  0  0  0  0  0  0  0  0
    0.8340    8.8840    9.4990 C   0  0  0  0  0  0  0  0  0  0  0  0
    1.6840    7.7020    9.8790 N   0  0  2  0  0  0  0  0  0  0  0  0
    0.8850    6.6070   10.5970 C   0  0  0  0  0  0  0  0  0  0  0  0
    0.7580    5.4190    9.6230 C   0  0  1  0  0  0  0  0  0  0  0  0
    2.0460    4.7670    9.6300 O   0  0  0  0  0  0  0  0  0  0  0  0
   -0.4200    4.4750    9.9880 C   0  0  2  0  0  0  0  0  0  0  0  0
    0.0520    3.0750   10.4500 C   0  0  0  0  0  0  0  0  0  0  0  0
   -1.0760    2.1280   10.7910 C   0  0  0  0  0  0  0  0  0  0  0  0
   -1.0460    0.7870   10.3840 C   0  0  0  0  0  0  0  0  0  0  0  0
   -2.0930   -0.0750   10.7120 C   0  0  0  0  0  0  0  0  0  0  0  0
   -3.1830    0.3940   11.4410 C   0  0  0  0  0  0  0  0  0  0  0  0
   -3.2310    1.7270   11.8410 C   0  0  0  0  0  0  0  0  0  0  0  0
   -2.1840    2.5900   11.5160 C   0  0  0  0  0  0  0  0  0  0  0  0
   -1.3990    4.3940    8.8980 N   0  0  0  0  0  0  0  0  0  0  0  0
   -2.2550    5.4090    8.5380 C   0  0  0  0  0  0  0  0  0  0  0  0
   -2.3670    6.4250    9.2290 O   0  0  0  0  0  0  0  0  0  0  0  0
   -3.0660    5.1720    7.2430 C   0  0  2  0  0  0  0  0  0  0  0  0
   -4.1400    6.2440    7.0430 C   0  0  0  0  0  0  0  0  0  0  0  0
   -4.0630    6.8550    5.6650 C   0  0  0  0  0  0  0  0  0  0  0  0
   -4.7540    6.1860    4.7000 N   0  0  0  0  0  0  0  0  0  0  0  0
   -3.4790    7.9070    5.4160 O   0  0  0  0  0  0  0  0  0  0  0  0
   -3.6700    3.8490    7.3600 N   0  0  0  0  0  0  0  0  0  0  0  0
   -3.8980    3.0320    6.2750 C   0  0  0  0  0  0  0  0  0  0  0  0
   -3.6490    3.3640    5.1230 O   0  0  0  0  0  0  0  0  0  0  0  0
   -4.4830    1.6950    6.6150 C   0  0  0  0  0  0  0  0  0  0  0  0
   -3.8370    0.8710    7.5220 C   0  0  0  0  0  0  0  0  0  0  0  0
   -4.4150   -0.3610    7.8010 C   0  0  0  0  0  0  0  0  0  0  0  0
   -5.6110   -0.7280    7.1700 C   0  0  0  0  0  0  0  0  0  0  0  0
   -6.2260   -1.9660    7.4250 C   0  0  0  0  0  0  0  0  0  0  0  0
   -7.4140   -2.3080    6.7820 C   0  0  0  0  0  0  0  0  0  0  0  0
   -7.9910   -1.4180    5.8840 C   0  0  0  0  0  0  0  0  0  0  0  0
   -7.3780   -0.1850    5.6330 C   0  0  0  0  0  0  0  0  0  0  0  0
   -6.1950    0.1820    6.2590 C   0  0  0  0  0  0  0  0  0  0  0  0
   -5.6470    1.3780    5.9820 N   0  0  0  0  0  0  0  0  0  0  0  0
    4.8650    7.8277   16.1479 H   0  0  0  0  0  0  0  0  0  0  0  0
    5.0206    6.7342   14.7313 H   0  0  0  0  0  0  0  0  0  0  0  0
    5.8499    8.3276   14.7313 H   0  0  0  0  0  0  0  0  0  0  0  0
    3.7987   10.1658   15.7128 H   0  0  0  0  0  0  0  0  0  0  0  0
    4.7076   10.3382   14.1730 H   0  0  0  0  0  0  0  0  0  0  0  0
    2.9140   10.4362   14.1730 H   0  0  0  0  0  0  0  0  0  0  0  0
    2.5771    7.9181   16.1927 H   0  0  0  0  0  0  0  0  0  0  0  0
    1.5721    8.4470   14.8009 H   0  0  0  0  0  0  0  0  0  0  0  0
    2.3174    6.8126   14.8009 H   0  0  0  0  0  0  0  0  0  0  0  0
    4.4120    7.4410   12.6740 H   0  0  0  0  0  0  0  0  0  0  0  0
    3.5867    7.1701   10.7367 H   0  0  0  0  0  0  0  0  0  0  0  0
    4.5999    9.4584   10.3203 H   0  0  0  0  0  0  0  0  0  0  0  0
    4.0794    8.4976    8.8387 H   0  0  0  0  0  0  0  0  0  0  0  0
    3.5502   10.7386    8.4103 H   0  0  0  0  0  0  0  0  0  0  0  0
    2.1845   10.8976   11.1177 H   0  0  0  0  0  0  0  0  0  0  0  0
    3.7126   11.7165   10.5897 H   0  0  0  0  0  0  0  0  0  0  0  0
    1.7298   13.2285   10.5413 H   0  0  0  0  0  0  0  0  0  0  0  0
    2.5050   12.9935    8.9224 H   0  0  0  0  0  0  0  0  0  0  0  0
   -0.0276   11.6426    9.9539 H   0  0  0  0  0  0  0  0  0  0  0  0
    0.1001   12.9209    8.6769 H   0  0  0  0  0  0  0  0  0  0  0  0
   -0.1981   10.6105    7.7678 H   0  0  0  0  0  0  0  0  0  0  0  0
    1.3353   11.4502    7.2427 H   0  0  0  0  0  0  0  0  0  0  0  0
    1.8917    9.1912    7.6752 H   0  0  0  0  0  0  0  0  0  0  0  0
    0.5559    9.4439   10.4040 H   0  0  0  0  0  0  0  0  0  0  0  0
   -0.0791    8.5368    8.9933 H   0  0  0  0  0  0  0  0  0  0  0  0
    1.9610    7.2190    9.0010 H   0  0  0  0  0  0  0  0  0  0  0  0
    1.4137    6.2916   11.5086 H   0  0  0  0  0  0  0  0  0  0  0  0
   -0.1081    6.9782   10.8901 H   0  0  0  0  0  0  0  0  0  0  0  0
    0.5060    5.7557    8.6066 H   0  0  0  0  0  0  0  0  0  0  0  0
    2.6500    5.3570    9.1100 H   0  0  0  0  0  0  0  0  0  0  0  0
   -0.9259    4.9241   10.8554 H   0  0  0  0  0  0  0  0  0  0  0  0
    0.6478    2.6265    9.6414 H   0  0  0  0  0  0  0  0  0  0  0  0
    0.6333    3.2231   11.3720 H   0  0  0  0  0  0  0  0  0  0  0  0
   -0.1913    0.4117    9.8021 H   0  0  0  0  0  0  0  0  0  0  0  0
   -2.0574   -1.1274   10.3940 H   0  0  0  0  0  0  0  0  0  0  0  0
   -4.0058   -0.2883   11.7008 H   0  0  0  0  0  0  0  0  0  0  0  0
   -4.0938    2.0993   12.4128 H   0  0  0  0  0  0  0  0  0  0  0  0
   -2.2280    3.6429   11.8315 H   0  0  0  0  0  0  0  0  0  0  0  0
   -1.2320    3.6720    8.1880 H   0  0  0  0  0  0  0  0  0  0  0  0
   -2.4063    5.2312    6.3648 H   0  0  0  0  0  0  0  0  0  0  0  0
   -5.1312    5.7859    7.1758 H   0  0  0  0  0  0  0  0  0  0  0  0
   -3.9740    7.0406    7.7831 H   0  0  0  0  0  0  0  0  0  0  0  0
   -4.6810    6.5300    3.7510 H   0  0  0  0  0  0  0  0  0  0  0  0
   -5.0660    5.2320    4.8260 H   0  0  0  0  0  0  0  0  0  0  0  0
   -3.8950    3.4710    8.2820 H   0  0  0  0  0  0  0  0  0  0  0  0
   -2.8986    1.1816    8.0047 H   0  0  0  0  0  0  0  0  0  0  0  0
   -3.9352   -1.0464    8.5152 H   0  0  0  0  0  0  0  0  0  0  0  0
   -5.7670   -2.6687    8.1360 H   0  0  0  0  0  0  0  0  0  0  0  0
   -7.8927   -3.2775    6.9842 H   0  0  0  0  0  0  0  0  0  0  0  0
   -8.9278   -1.6821    5.3714 H   0  0  0  0  0  0  0  0  0  0  0  0
   -7.8459    0.5110    4.9213 H   0  0  0  0  0  0  0  0  0  0  0  0
  1  2  1  0
  2  3  1  0
  2  4  1  0
  2  5  1  0
  5  6  1  0
  6  7  2  0
  6  8  1  0
  8  9  1  0
  9 10  1  0
 10 11  1  0
 11 12  1  0
 12 13  1  0
 13 14  1  0
 14 15  1  0
 15 16  1  0
 16 17  1  0
 17 18  1  0
 18 19  1  0
 19 20  1  0
 19 21  1  0
 21 22  1  0
 22 23  1  0
 23 24  2  0
 24 25  1  0
 25 26  2  0
 26 27  1  0
 27 28  2  0
 21 29  1  0
 29 30  1  0
 30 31  2  0
 30 32  1  0
 32 33  1  0
 33 34  1  0
 34 35  1  0
 34 36  2  0
 32 37  1  0
 37 38  1  0
 38 39  2  0
 38 40  1  0
 40 41  2  0
 41 42  1  0
 42 43  2  0
 43 44  1  0
 44 45  2  0
 45 46  1  0
 46 47  2  0
 47 48  1  0
 48 49  2  0
 17  8  1  0
 28 23  1  0
 49 40  1  0
 15 10  1  0
 48 43  1  0
  1 50  1  0
  1 51  1  0
  1 52  1  0
  3 53  1  0
  3 54  1  0
  3 55  1  0
  4 56  1  0
  4 57  1  0
  4 58  1  0
  5 59  1  0
  8 60  1  1
  9 61  1  0
  9 62  1  0
 10 63  1  6
 11 64  1  0
 11 65  1  0
 12 66  1  0
 12 67  1  0
 13 68  1  0
 13 69  1  0
 14 70  1  0
 14 71  1  0
 15 72  1  6
 16 73  1  0
 16 74  1  0
 17 75  1  6
 18 76  1  0
 18 77  1  0
 19 78  1  6
 20 79  1  0
 21 80  1  1
 22 81  1  0
 22 82  1  0
 24 83  1  0
 25 84  1  0
 26 85  1  0
 27 86  1  0
 28 87  1  0
 29 88  1  0
 32 89  1  6
 33 90  1  0
 33 91  1  0
 35 92  1  0
 35 93  1  0
 37 94  1  0
 41 95  1  0
 42 96  1  0
 44 97  1  0
 45 98  1  0
 46 99  1  0
 47100  1  0
M  CHG  1  17   1
M  END
>  <meeko>  (1) 
{"is_sidechain": [false], "free_energy": -11.583, "intermolecular_energy": -20.724, "internal_energy": -2.061}

$$$$
3pww_ligand
     RDKit          3D

100104  0  0  0  0  0  0  0  0999 V2000
    4.9560    7.9400   14.9510 C   0  0  0  0  0  0  0  0  0  0  0  0
    3.6420    8.4540   14.3330 C   0  0  0  0  0  0  0  0  0  0  0  0
    3.5790    9.9760   14.5350 C   0  0  0  0  0  0  0  0  0  0  0  0
    2.4670    7.7720   15.0520 C   0  0  0  0  0  0  0  0  0  0  0  0
    3.6490    8.1110   12.8950 N   0  0  0  0  0  0  0  0  0  0  0  0
    2.6600    8.4590   12.0010 C   0  0  0  0  0  0  0  0  0  0  0  0
    1.6410    9.0700   12.3160 O   0  0  0  0  0  0  0  0  0  0  0  0
    2.8850    7.9860   10.5410 C   0  0  2  0  0  0  0  0  0  0  0  0
    3.4910    9.0530    9.6200 C   0  0  0  0  0  0  0  0  0  0  0  0
    2.5020   10.1120    9.1020 C   0  0  2  0  0  0  0  0  0  0  0  0
    2.1660   11.1740   10.1630 C   0  0  0  0  0  0  0  0  0  0  0  0
    1.1850   12.2130    9.6260 C   0  0  0  0  0  0  0  0  0  0  0  0
   -0.0870   11.5570    9.1010 C   0  0  0  0  0  0  0  0  0  0  0  0
    0.2250   10.5010    8.0450 C   0  0  0  0  0  0  0  0  0  0  0  0
    1.2410    9.4490    8.5180 C   0  0  2  0  0  0  0  0  0  0  0  0
    0.6110    8.4590    9.5010 C   0  0  0  0  0  0  0  0  0  0  0  0
    1.6320    7.4170    9.8700 N   0  0  2  0  0  0  0  0  0  0  0  0
    1.0180    6.2360   10.6340 C   0  0  0  0  0  0  0  0  0  0  0  0
    0.4770    5.2440    9.5860 C   0  0  1  0  0  0  0  0  0  0  0  0
    1.5930    4.4010    9.2300 O   0  0  0  0  0  0  0  0  0  0  0  0
   -0.7600    4.4560   10.0980 C   0  0  2  0  0  0  0  0  0  0  0  0
   -0.3880    3.0830   10.7080 C   0  0  0  0  0  0  0  0  0  0  0  0
   -1.5670    2.1560   10.9010 C   0  0  0  0  0  0  0  0  0  0  0  0
   -2.7340    2.5900   11.5450 C   0  0  0  0  0  0  0  0  0  0  0  0
   -3.8150    1.7240   11.7090 C   0  0  0  0  0  0  0  0  0  0  0  0
   -3.7400    0.4150   11.2400 C   0  0  0  0  0  0  0  0  0  0  0  0
   -2.5820   -0.0320   10.6080 C   0  0  0  0  0  0  0  0  0  0  0  0
   -1.5010    0.8330   10.4410 C   0  0  0  0  0  0  0  0  0  0  0  0
   -1.7870    4.3360    9.0570 N   0  0  0  0  0  0  0  0  0  0  0  0
   -2.8650    5.1800    8.9190 C   0  0  0  0  0  0  0  0  0  0  0  0
   -3.1310    6.0210    9.7810 O   0  0  0  0  0  0  0  0  0  0  0  0
   -3.7120    4.9790    7.6420 C   0  0  2  0  0  0  0  0  0  0  0  0
   -2.9990    4.0870    6.6230 C   0  0  0  0  0  0  0  0  0  0  0  0
   -3.7810    2.8250    6.3470 C   0  0  0  0  0  0  0  0  0  0  0  0
   -5.1090    2.8980    6.6370 N   0  0  0  0  0  0  0  0  0  0  0  0
   -3.2940    1.8160    5.8430 O   0  0  0  0  0  0  0  0  0  0  0  0
   -3.9600    6.3050    7.0870 N   0  0  0  0  0  0  0  0  0  0  0  0
   -5.0450    6.5910    6.2890 C   0  0  0  0  0  0  0  0  0  0  0  0
   -5.8680    5.7500    5.9510 O   0  0  0  0  0  0  0  0  0  0  0  0
   -5.1420    8.0240    5.8610 C   0  0  0  0  0  0  0  0  0  0  0  0
   -4.1320    8.9120    6.1920 C   0  0  0  0  0  0  0  0  0  0  0  0
   -4.2680   10.2310    5.7760 C   0  0  0  0  0  0  0  0  0  0  0  0
   -5.4020   10.6170    5.0490 C   0  0  0  0  0  0  0  0  0  0  0  0
   -5.5770   11.9420    4.6120 C   0  0  0  0  0  0  0  0  0  0  0  0
   -6.7140   12.3010    3.8920 C   0  0  0  0  0  0  0  0  0  0  0  0
   -7.6790   11.3420    3.6060 C   0  0  0  0  0  0  0  0  0  0  0  0
   -7.5020   10.0240    4.0400 C   0  0  0  0  0  0  0  0  0  0  0  0
   -6.3790    9.6370    4.7590 C   0  0  0  0  0  0  0  0  0  0  0  0
   -6.2580    8.3580    5.1530 N   0  0  0  0  0  0  0  0  0  0  0  0
    4.8813    7.9692   16.0481 H   0  0  0  0  0  0  0  0  0  0  0  0
    5.1353    6.9054   14.6231 H   0  0  0  0  0  0  0  0  0  0  0  0
    5.7897    8.5783   14.6231 H   0  0  0  0  0  0  0  0  0  0  0  0
    3.5696   10.2030   15.6113 H   0  0  0  0  0  0  0  0  0  0  0  0
    4.4585   10.4444   14.0692 H   0  0  0  0  0  0  0  0  0  0  0  0
    2.6638   10.3701   14.0692 H   0  0  0  0  0  0  0  0  0  0  0  0
    2.6063    7.8528   16.1401 H   0  0  0  0  0  0  0  0  0  0  0  0
    1.5261    8.2643   14.7652 H   0  0  0  0  0  0  0  0  0  0  0  0
    2.4278    6.7108   14.7652 H   0  0  0  0  0  0  0  0  0  0  0  0
    4.4060    7.5090   12.5910 H   0  0  0  0  0  0  0  0  0  0  0  0
    3.6179    7.1754   10.6664 H   0  0  0  0  0  0  0  0  0  0  0  0
    4.2843    9.5725   10.1775 H   0  0  0  0  0  0  0  0  0  0  0  0
    3.8560    8.5168    8.7316 H   0  0  0  0  0  0  0  0  0  0  0  0
    3.0007   10.6533    8.2845 H   0  0  0  0  0  0  0  0  0  0  0  0
    1.7176   10.6772   11.0360 H   0  0  0  0  0  0  0  0  0  0  0  0
    3.0969   11.6903   10.4403 H   0  0  0  0  0  0  0  0  0  0  0  0
    0.9209   12.9085   10.4363 H   0  0  0  0  0  0  0  0  0  0  0  0
    1.6675   12.7479    8.7947 H   0  0  0  0  0  0  0  0  0  0  0  0
   -0.6153   11.0794    9.9393 H   0  0  0  0  0  0  0  0  0  0  0  0
   -0.7115   12.3351    8.6378 H   0  0  0  0  0  0  0  0  0  0  0  0
   -0.7104    9.9875    7.7779 H   0  0  0  0  0  0  0  0  0  0  0  0
    0.6721   11.0221    7.1856 H   0  0  0  0  0  0  0  0  0  0  0  0
    1.5542    8.8706    7.6364 H   0  0  0  0  0  0  0  0  0  0  0  0
    0.2865    8.9938   10.4058 H   0  0  0  0  0  0  0  0  0  0  0  0
   -0.2604    7.9762    9.0345 H   0  0  0  0  0  0  0  0  0  0  0  0
    1.9440    6.9580    8.9900 H   0  0  0  0  0  0  0  0  0  0  0  0
    1.7854    5.7483   11.2531 H   0  0  0  0  0  0  0  0  0  0  0  0
    0.2113    6.5791   11.2985 H   0  0  0  0  0  0  0  0  0  0  0  0
    0.0945    5.7660    8.6965 H   0  0  0  0  0  0  0  0  0  0  0  0
    2.3980    4.8460    9.6020 H   0  0  0  0  0  0  0  0  0  0  0  0
   -1.1898    5.0453   10.9214 H   0  0  0  0  0  0  0  0  0  0  0  0
    0.3329    2.5910   10.0385 H   0  0  0  0  0  0  0  0  0  0  0  0
    0.0282    3.2808   11.7068 H   0  0  0  0  0  0  0  0  0  0  0  0
   -2.7977    3.6208   11.9237 H   0  0  0  0  0  0  0  0  0  0  0  0
   -4.7289    2.0759   12.2100 H   0  0  0  0  0  0  0  0  0  0  0  0
   -4.5946   -0.2655   11.3685 H   0  0  0  0  0  0  0  0  0  0  0  0
   -2.5202   -1.0670   10.2407 H   0  0  0  0  0  0  0  0  0  0  0  0
   -0.5878    0.4741    9.9437 H   0  0  0  0  0  0  0  0  0  0  0  0
   -1.5310    3.7910    8.2250 H   0  0  0  0  0  0  0  0  0  0  0  0
   -4.6551    4.4691    7.8879 H   0  0  0  0  0  0  0  0  0  0  0  0
   -2.8780    4.6450    5.6828 H   0  0  0  0  0  0  0  0  0  0  0  0
   -2.0213    3.8023    7.0390 H   0  0  0  0  0  0  0  0  0  0  0  0
   -5.6590    2.0560    6.5210 H   0  0  0  0  0  0  0  0  0  0  0  0
   -5.4910    3.6240    7.2290 H   0  0  0  0  0  0  0  0  0  0  0  0
   -3.3420    7.0810    7.3270 H   0  0  0  0  0  0  0  0  0  0  0  0
   -3.2519    8.5843    6.7648 H   0  0  0  0  0  0  0  0  0  0  0  0
   -3.4886   10.9690    6.0165 H   0  0  0  0  0  0  0  0  0  0  0  0
   -4.8120   12.6989    4.8399 H   0  0  0  0  0  0  0  0  0  0  0  0
   -6.8477   13.3383    3.5513 H   0  0  0  0  0  0  0  0  0  0  0  0
   -8.5802   11.6191    3.0394 H   0  0  0  0  0  0  0  0  0  0  0  0
   -8.2725    9.2747    3.8056 H   0  0  0  0  0  0  0  0  0  0  0  0
  1  2  1  0
  2  3  1  0
  2  4  1  0
  2  5  1  0
  5  6  1  0
  6  7  2  0
  6  8  1  0
  8  9  1  0
  9 10  1  0
 10 11  1  0
 11 12  1  0
 12 13  1  0
 13 14  1  0
 14 15  1  0
 15 16  1  0
 16 17  1  0
 17 18  1  0
 18 19  1  0
 19 20  1  0
 19 21  1  0
 21 22  1  0
 22 23  1  0
 23 24  2  0
 24 25  1  0
 25 26  2  0
 26 27  1  0
 27 28  2  0
 21 29  1  0
 29 30  1  0
 30 31  2  0
 30 32  1  0
 32 33  1  0
 33 34  1  0
 34 35  1  0
 34 36  2  0
 32 37  1  0
 37 38  1  0
 38 39  2  0
 38 40  1  0
 40 41  2  0
 41 42  1  0
 42 43  2  0
 43 44  1  0
 44 45  2  0
 45 46  1  0
 46 47  2  0
 47 48  1  0
 48 49  2  0
 17  8  1  0
 28 23  1  0
 49 40  1  0
 15 10  1  0
 48 43  1  0
  1 50  1  0
  1 51  1  0
  1 52  1  0
  3 53  1  0
  3 54  1  0
  3 55  1  0
  4 56  1  0
  4 57  1  0
  4 58  1  0
  5 59  1  0
  8 60  1  1
  9 61  1  0
  9 62  1  0
 10 63  1  6
 11 64  1  0
 11 65  1  0
 12 66  1  0
 12 67  1  0
 13 68  1  0
 13 69  1  0
 14 70  1  0
 14 71  1  0
 15 72  1  6
 16 73  1  0
 16 74  1  0
 17 75  1  6
 18 76  1  0
 18 77  1  0
 19 78  1  6
 20 79  1  0
 21 80  1  1
 22 81  1  0
 22 82  1  0
 24 83  1  0
 25 84  1  0
 26 85  1  0
 27 86  1  0
 28 87  1  0
 29 88  1  0
 32 89  1  1
 33 90  1  0
 33 91  1  0
 35 92  1  0
 35 93  1  0
 37 94  1  0
 41 95  1  0
 42 96  1  0
 44 97  1  0
 45 98  1  0
 46 99  1  0
 47100  1  0
M  CHG  1  17   1
M  END
>  <meeko>  (2) 
{"is_sidechain": [false], "free_energy": -10.951, "intermolecular_energy": -20.13, "internal_energy": -1.524}

$$$$
3pww_ligand
     RDKit          3D

100104  0  0  0  0  0  0  0  0999 V2000
    0.9720   11.7270    8.3130 C   0  0  0  0  0  0  0  0  0  0  0  0
    1.9700   10.6680    8.8170 C   0  0  0  0  0  0  0  0  0  0  0  0
    3.2170   11.3940    9.3440 C   0  0  0  0  0  0  0  0  0  0  0  0
    2.3420    9.7520    7.6410 C   0  0  0  0  0  0  0  0  0  0  0  0
    1.3130    9.8980    9.8950 N   0  0  0  0  0  0  0  0  0  0  0  0
    1.9300    8.9270   10.6530 C   0  0  0  0  0  0  0  0  0  0  0  0
    3.0950    8.5720   10.4890 O   0  0  0  0  0  0  0  0  0  0  0  0
    1.0360    8.2520   11.7270 C   0  0  2  0  0  0  0  0  0  0  0  0
    0.8820    9.0650   13.0190 C   0  0  0  0  0  0  0  0  0  0  0  0
    2.0720    8.9860   13.9900 C   0  0  2  0  0  0  0  0  0  0  0  0
    3.2560    9.8610   13.5440 C   0  0  0  0  0  0  0  0  0  0  0  0
    4.4230    9.7670   14.5240 C   0  0  0  0  0  0  0  0  0  0  0  0
    4.8680    8.3220   14.7220 C   0  0  0  0  0  0  0  0  0  0  0  0
    3.7060    7.4370   15.1670 C   0  0  0  0  0  0  0  0  0  0  0  0
    2.4850    7.5240   14.2380 C   0  0  2  0  0  0  0  0  0  0  0  0
    2.7210    6.7690   12.9270 C   0  0  0  0  0  0  0  0  0  0  0  0
    1.4690    6.8290   12.0940 N   0  0  2  0  0  0  0  0  0  0  0  0
    1.5160    5.8800   10.8900 C   0  0  0  0  0  0  0  0  0  0  0  0
    0.2000    6.0630   10.1100 C   0  0  1  0  0  0  0  0  0  0  0  0
    0.5850    6.2780    8.7350 O   0  0  0  0  0  0  0  0  0  0  0  0
   -0.7760    4.8710   10.3040 C   0  0  2  0  0  0  0  0  0  0  0  0
   -0.0530    3.5570   10.6890 C   0  0  0  0  0  0  0  0  0  0  0  0
   -0.9820    2.3840   10.9020 C   0  0  0  0  0  0  0  0  0  0  0  0
   -2.1760    2.5250   11.6230 C   0  0  0  0  0  0  0  0  0  0  0  0
   -3.0250    1.4330   11.8060 C   0  0  0  0  0  0  0  0  0  0  0  0
   -2.6880    0.1890   11.2790 C   0  0  0  0  0  0  0  0  0  0  0  0
   -1.4990    0.0330   10.5710 C   0  0  0  0  0  0  0  0  0  0  0  0
   -0.6490    1.1230   10.3850 C   0  0  0  0  0  0  0  0  0  0  0  0
   -1.6470    4.6970    9.1350 N   0  0  0  0  0  0  0  0  0  0  0  0
   -2.8530    5.3340    8.9570 C   0  0  0  0  0  0  0  0  0  0  0  0
   -3.3700    5.9900    9.8650 O   0  0  0  0  0  0  0  0  0  0  0  0
   -3.5100    5.1460    7.5690 C   0  0  2  0  0  0  0  0  0  0  0  0
   -4.5820    6.2050    7.3020 C   0  0  0  0  0  0  0  0  0  0  0  0
   -4.4450    6.7960    5.9200 C   0  0  0  0  0  0  0  0  0  0  0  0
   -3.8200    8.0050    5.8720 N   0  0  0  0  0  0  0  0  0  0  0  0
   -4.8050    6.2250    4.8940 O   0  0  0  0  0  0  0  0  0  0  0  0
   -4.0890    3.8070    7.5550 N   0  0  0  0  0  0  0  0  0  0  0  0
   -3.9410    2.9400    6.4950 C   0  0  0  0  0  0  0  0  0  0  0  0
   -3.3460    3.2360    5.4660 O   0  0  0  0  0  0  0  0  0  0  0  0
   -4.5720    1.5960    6.6970 C   0  0  0  0  0  0  0  0  0  0  0  0
   -3.9780    0.6760    7.5450 C   0  0  0  0  0  0  0  0  0  0  0  0
   -4.5970   -0.5580    7.6970 C   0  0  0  0  0  0  0  0  0  0  0  0
   -5.7830   -0.8320    7.0020 C   0  0  0  0  0  0  0  0  0  0  0  0
   -6.4390   -2.0680    7.1290 C   0  0  0  0  0  0  0  0  0  0  0  0
   -7.6160   -2.3160    6.4250 C   0  0  0  0  0  0  0  0  0  0  0  0
   -8.1410   -1.3330    5.5940 C   0  0  0  0  0  0  0  0  0  0  0  0
   -7.4870   -0.1020    5.4710 C   0  0  0  0  0  0  0  0  0  0  0  0
   -6.3140    0.1730    6.1600 C   0  0  0  0  0  0  0  0  0  0  0  0
   -5.7250    1.3720    6.0060 N   0  0  0  0  0  0  0  0  0  0  0  0
    0.5016   12.2262    9.1730 H   0  0  0  0  0  0  0  0  0  0  0  0
    1.5044   12.4716    7.7030 H   0  0  0  0  0  0  0  0  0  0  0  0
    0.1971   11.2397    7.7030 H   0  0  0  0  0  0  0  0  0  0  0  0
    3.2072   11.3883   10.4439 H   0  0  0  0  0  0  0  0  0  0  0  0
    4.1203   10.8806    8.9827 H   0  0  0  0  0  0  0  0  0  0  0  0
    3.2165   12.4330    8.9827 H   0  0  0  0  0  0  0  0  0  0  0  0
    2.7295    8.7979    8.0277 H   0  0  0  0  0  0  0  0  0  0  0  0
    1.4493    9.5632    7.0266 H   0  0  0  0  0  0  0  0  0  0  0  0
    3.1136   10.2391    7.0266 H   0  0  0  0  0  0  0  0  0  0  0  0
    0.3180   10.0600   10.0070 H   0  0  0  0  0  0  0  0  0  0  0  0
    0.0584    8.2056   11.2248 H   0  0  0  0  0  0  0  0  0  0  0  0
    0.7387   10.1198   12.7419 H   0  0  0  0  0  0  0  0  0  0  0  0
    0.0242    8.6295   13.5524 H   0  0  0  0  0  0  0  0  0  0  0  0
    1.7378    9.4029   14.9515 H   0  0  0  0  0  0  0  0  0  0  0  0
    3.5943    9.5258   12.5524 H   0  0  0  0  0  0  0  0  0  0  0  0
    2.9179   10.9072   13.5100 H   0  0  0  0  0  0  0  0  0  0  0  0
    5.2682   10.3512   14.1312 H   0  0  0  0  0  0  0  0  0  0  0  0
    4.0924   10.1637   15.4953 H   0  0  0  0  0  0  0  0  0  0  0  0
    5.2675    7.9372   13.7721 H   0  0  0  0  0  0  0  0  0  0  0  0
    5.6388    8.3016   15.5065 H   0  0  0  0  0  0  0  0  0  0  0  0
    4.0519    6.3931   15.1921 H   0  0  0  0  0  0  0  0  0  0  0  0
    3.3871    7.7920   16.1581 H   0  0  0  0  0  0  0  0  0  0  0  0
    1.6447    7.0299   14.7478 H   0  0  0  0  0  0  0  0  0  0  0  0
    3.5521    7.2352   12.3775 H   0  0  0  0  0  0  0  0  0  0  0  0
    2.9736    5.7204   13.1427 H   0  0  0  0  0  0  0  0  0  0  0  0
    0.6970    6.4170   12.6560 H   0  0  0  0  0  0  0  0  0  0  0  0
    2.3726    6.1302   10.2468 H   0  0  0  0  0  0  0  0  0  0  0  0
    1.6307    4.8372   11.2207 H   0  0  0  0  0  0  0  0  0  0  0  0
   -0.3742    6.9233   10.4845 H   0  0  0  0  0  0  0  0  0  0  0  0
    0.7400    7.2540    8.6470 H   0  0  0  0  0  0  0  0  0  0  0  0
   -1.4163    5.1253   11.1615 H   0  0  0  0  0  0  0  0  0  0  0  0
    0.6497    3.2998    9.8827 H   0  0  0  0  0  0  0  0  0  0  0  0
    0.4524    3.7411   11.6485 H   0  0  0  0  0  0  0  0  0  0  0  0
   -2.4454    3.5034   12.0474 H   0  0  0  0  0  0  0  0  0  0  0  0
   -3.9627    1.5551   12.3679 H   0  0  0  0  0  0  0  0  0  0  0  0
   -3.3604   -0.6698   11.4218 H   0  0  0  0  0  0  0  0  0  0  0  0
   -1.2300   -0.9505   10.1582 H   0  0  0  0  0  0  0  0  0  0  0  0
    0.2906    0.9929    9.8281 H   0  0  0  0  0  0  0  0  0  0  0  0
   -1.2040    4.3240    8.2880 H   0  0  0  0  0  0  0  0  0  0  0  0
   -2.7594    5.2624    6.7733 H   0  0  0  0  0  0  0  0  0  0  0  0
   -5.5745    5.7400    7.3949 H   0  0  0  0  0  0  0  0  0  0  0  0
   -4.4578    7.0141    8.0368 H   0  0  0  0  0  0  0  0  0  0  0  0
   -3.7580    8.4640    4.9710 H   0  0  0  0  0  0  0  0  0  0  0  0
   -3.6990    8.5810    6.6950 H   0  0  0  0  0  0  0  0  0  0  0  0
   -4.5860    3.4580    8.3750 H   0  0  0  0  0  0  0  0  0  0  0  0
   -3.0471    0.9147    8.0802 H   0  0  0  0  0  0  0  0  0  0  0  0
   -4.1580   -1.3177    8.3605 H   0  0  0  0  0  0  0  0  0  0  0  0
   -6.0215   -2.8439    7.7875 H   0  0  0  0  0  0  0  0  0  0  0  0
   -8.1270   -3.2848    6.5264 H   0  0  0  0  0  0  0  0  0  0  0  0
   -9.0688   -1.5225    5.0342 H   0  0  0  0  0  0  0  0  0  0  0  0
   -7.9137    0.6677    4.8111 H   0  0  0  0  0  0  0  0  0  0  0  0
  1  2  1  0
  2  3  1  0
  2  4  1  0
  2  5  1  0
  5  6  1  0
  6  7  2  0
  6  8  1  0
  8  9  1  0
  9 10  1  0
 10 11  1  0
 11 12  1  0
 12 13  1  0
 13 14  1  0
 14 15  1  0
 15 16  1  0
 16 17  1  0
 17 18  1  0
 18 19  1  0
 19 20  1  0
 19 21  1  0
 21 22  1  0
 22 23  1  0
 23 24  2  0
 24 25  1  0
 25 26  2  0
 26 27  1  0
 27 28  2  0
 21 29  1  0
 29 30  1  0
 30 31  2  0
 30 32  1  0
 32 33  1  0
 33 34  1  0
 34 35  1  0
 34 36  2  0
 32 37  1  0
 37 38  1  0
 38 39  2  0
 38 40  1  0
 40 41  2  0
 41 42  1  0
 42 43  2  0
 43 44  1  0
 44 45  2  0
 45 46  1  0
 46 47  2  0
 47 48  1  0
 48 49  2  0
 17  8  1  0
 28 23  1  0
 49 40  1  0
 15 10  1  0
 48 43  1  0
  1 50  1  0
  1 51  1  0
  1 52  1  0
  3 53  1  0
  3 54  1  0
  3 55  1  0
  4 56  1  0
  4 57  1  0
  4 58  1  0
  5 59  1  0
  8 60  1  6
  9 61  1  0
  9 62  1  0
 10 63  1  1
 11 64  1  0
 11 65  1  0
 12 66  1  0
 12 67  1  0
 13 68  1  0
 13 69  1  0
 14 70  1  0
 14 71  1  0
 15 72  1  1
 16 73  1  0
 16 74  1  0
 17 75  1  1
 18 76  1  0
 18 77  1  0
 19 78  1  1
 20 79  1  0
 21 80  1  1
 22 81  1  0
 22 82  1  0
 24 83  1  0
 25 84  1  0
 26 85  1  0
 27 86  1  0
 28 87  1  0
 29 88  1  0
 32 89  1  6
 33 90  1  0
 33 91  1  0
 35 92  1  0
 35 93  1  0
 37 94  1  0
 41 95  1  0
 42 96  1  0
 44 97  1  0
 45 98  1  0
 46 99  1  0
 47100  1  0
M  CHG  1  17   1
M  END
>  <meeko>  (3) 
{"is_sidechain": [false], "free_energy": -10.925, "intermolecular_energy": -19.631, "internal_energy": -1.976}

$$$$
3pww_ligand
     RDKit          3D

100104  0  0  0  0  0  0  0  0999 V2000
    2.5170    7.3120   14.7250 C   0  0  0  0  0  0  0  0  0  0  0  0
    3.5320    8.3570   14.2240 C   0  0  0  0  0  0  0  0  0  0  0  0
    4.8820    8.0790   14.9030 C   0  0  0  0  0  0  0  0  0  0  0  0
    3.0200    9.7540   14.6060 C   0  0  0  0  0  0  0  0  0  0  0  0
    3.6420    8.2200   12.7560 N   0  0  0  0  0  0  0  0  0  0  0  0
    2.6060    8.4170   11.8700 C   0  0  0  0  0  0  0  0  0  0  0  0
    1.4600    8.6990   12.2140 O   0  0  0  0  0  0  0  0  0  0  0  0
    2.9600    8.2130   10.3740 C   0  0  2  0  0  0  0  0  0  0  0  0
    3.4590    9.4810    9.6670 C   0  0  0  0  0  0  0  0  0  0  0  0
    2.3620   10.4750    9.2500 C   0  0  2  0  0  0  0  0  0  0  0  0
    1.8370   11.3040   10.4340 C   0  0  0  0  0  0  0  0  0  0  0  0
    0.7510   12.2840    9.9960 C   0  0  0  0  0  0  0  0  0  0  0  0
   -0.3950   11.5650    9.2940 C   0  0  0  0  0  0  0  0  0  0  0  0
    0.1050   10.7370    8.1140 C   0  0  0  0  0  0  0  0  0  0  0  0
    1.2300    9.7600    8.4890 C   0  0  2  0  0  0  0  0  0  0  0  0
    0.6940    8.5560    9.2670 C   0  0  0  0  0  0  0  0  0  0  0  0
    1.8280    7.6040    9.5420 N   0  0  2  0  0  0  0  0  0  0  0  0
    1.3440    6.2500   10.0750 C   0  0  0  0  0  0  0  0  0  0  0  0
    0.3600    5.6740    9.0390 C   0  0  1  0  0  0  0  0  0  0  0  0
    1.0240    4.5310    8.4590 O   0  0  0  0  0  0  0  0  0  0  0  0
   -1.0260    5.3410    9.6570 C   0  0  2  0  0  0  0  0  0  0  0  0
   -0.9180    4.5720   10.9960 C   0  0  0  0  0  0  0  0  0  0  0  0
   -1.2210    3.0950   10.8820 C   0  0  0  0  0  0  0  0  0  0  0  0
   -2.4320    2.5640   11.3480 C   0  0  0  0  0  0  0  0  0  0  0  0
   -2.6970    1.1990   11.2300 C   0  0  0  0  0  0  0  0  0  0  0  0
   -1.7550    0.3500   10.6540 C   0  0  0  0  0  0  0  0  0  0  0  0
   -0.5430    0.8640   10.1980 C   0  0  0  0  0  0  0  0  0  0  0  0
   -0.2760    2.2280   10.3130 C   0  0  0  0  0  0  0  0  0  0  0  0
   -1.8890    4.6490    8.6930 N   0  0  0  0  0  0  0  0  0  0  0  0
   -2.5840    5.2680    7.6790 C   0  0  0  0  0  0  0  0  0  0  0  0
   -2.6520    6.4980    7.6100 O   0  0  0  0  0  0  0  0  0  0  0  0
   -3.2780    4.3230    6.6710 C   0  0  2  0  0  0  0  0  0  0  0  0
   -4.3830    5.0410    5.8910 C   0  0  0  0  0  0  0  0  0  0  0  0
   -4.4310    4.5850    4.4530 C   0  0  0  0  0  0  0  0  0  0  0  0
   -5.4750    3.7660    4.1450 N   0  0  0  0  0  0  0  0  0  0  0  0
   -3.6380    4.9560    3.5910 O   0  0  0  0  0  0  0  0  0  0  0  0
   -3.8250    3.2120    7.4420 N   0  0  0  0  0  0  0  0  0  0  0  0
   -3.8030    1.9100    6.9960 C   0  0  0  0  0  0  0  0  0  0  0  0
   -3.3580    1.5840    5.9020 O   0  0  0  0  0  0  0  0  0  0  0  0
   -4.3730    0.9130    7.9580 C   0  0  0  0  0  0  0  0  0  0  0  0
   -4.0830   -0.4330    7.8080 C   0  0  0  0  0  0  0  0  0  0  0  0
   -4.6380   -1.3210    8.7210 C   0  0  0  0  0  0  0  0  0  0  0  0
   -5.4600   -0.8380    9.7490 C   0  0  0  0  0  0  0  0  0  0  0  0
   -6.0410   -1.7030   10.6920 C   0  0  0  0  0  0  0  0  0  0  0  0
   -6.8560   -1.1980   11.7020 C   0  0  0  0  0  0  0  0  0  0  0  0
   -7.0940    0.1700   11.7760 C   0  0  0  0  0  0  0  0  0  0  0  0
   -6.5130    1.0290   10.8370 C   0  0  0  0  0  0  0  0  0  0  0  0
   -5.6970    0.5550    9.8200 C   0  0  0  0  0  0  0  0  0  0  0  0
   -5.1640    1.4230    8.9440 N   0  0  0  0  0  0  0  0  0  0  0  0
    2.5104    7.3052   15.8250 H   0  0  0  0  0  0  0  0  0  0  0  0
    1.5137    7.5681   14.3539 H   0  0  0  0  0  0  0  0  0  0  0  0
    2.8022    6.3165   14.3539 H   0  0  0  0  0  0  0  0  0  0  0  0
    4.7553    8.1051   15.9954 H   0  0  0  0  0  0  0  0  0  0  0  0
    5.2475    7.0868   14.5999 H   0  0  0  0  0  0  0  0  0  0  0  0
    5.6098    8.8461   14.5999 H   0  0  0  0  0  0  0  0  0  0  0  0
    2.9865    9.8453   15.7017 H   0  0  0  0  0  0  0  0  0  0  0  0
    3.6967   10.5176   14.1949 H   0  0  0  0  0  0  0  0  0  0  0  0
    2.0101    9.8995   14.1949 H   0  0  0  0  0  0  0  0  0  0  0  0
    4.5330    7.8780   12.4130 H   0  0  0  0  0  0  0  0  0  0  0  0
    3.7885    7.4912   10.4246 H   0  0  0  0  0  0  0  0  0  0  0  0
    4.1481   10.0014   10.3484 H   0  0  0  0  0  0  0  0  0  0  0  0
    3.9339    9.1427    8.7343 H   0  0  0  0  0  0  0  0  0  0  0  0
    2.8209   11.1972    8.5588 H   0  0  0  0  0  0  0  0  0  0  0  0
    1.4192   10.6225   11.1896 H   0  0  0  0  0  0  0  0  0  0  0  0
    2.6760   11.8825   10.8480 H   0  0  0  0  0  0  0  0  0  0  0  0
    0.3584   12.8032   10.8827 H   0  0  0  0  0  0  0  0  0  0  0  0
    1.1952   13.0007    9.2896 H   0  0  0  0  0  0  0  0  0  0  0  0
   -0.8929   10.8982   10.0133 H   0  0  0  0  0  0  0  0  0  0  0  0
   -1.0960   12.3221    8.9126 H   0  0  0  0  0  0  0  0  0  0  0  0
   -0.7394   10.1587    7.7108 H   0  0  0  0  0  0  0  0  0  0  0  0
    0.5173   11.4397    7.3750 H   0  0  0  0  0  0  0  0  0  0  0  0
    1.6588    9.3731    7.5528 H   0  0  0  0  0  0  0  0  0  0  0  0
    0.2592    8.8959   10.2185 H   0  0  0  0  0  0  0  0  0  0  0  0
   -0.0821    8.0478    8.6758 H   0  0  0  0  0  0  0  0  0  0  0  0
    2.2400    7.3340    8.6260 H   0  0  0  0  0  0  0  0  0  0  0  0
    2.1981    5.5686   10.2021 H   0  0  0  0  0  0  0  0  0  0  0  0
    0.8540    6.3693   11.0526 H   0  0  0  0  0  0  0  0  0  0  0  0
    0.1190    6.4115    8.2593 H   0  0  0  0  0  0  0  0  0  0  0  0
    0.4580    4.2480    7.6960 H   0  0  0  0  0  0  0  0  0  0  0  0
   -1.5025    6.3025    9.8989 H   0  0  0  0  0  0  0  0  0  0  0  0
    0.1067    4.6865   11.3792 H   0  0  0  0  0  0  0  0  0  0  0  0
   -1.6727    5.0009   11.6716 H   0  0  0  0  0  0  0  0  0  0  0  0
   -3.1780    3.2276   11.8096 H   0  0  0  0  0  0  0  0  0  0  0  0
   -3.6525    0.7924   11.5929 H   0  0  0  0  0  0  0  0  0  0  0  0
   -1.9677   -0.7251   10.5592 H   0  0  0  0  0  0  0  0  0  0  0  0
    0.2036    0.1937    9.7471 H   0  0  0  0  0  0  0  0  0  0  0  0
    0.6840    2.6277    9.9544 H   0  0  0  0  0  0  0  0  0  0  0  0
   -1.7330    3.6410    8.5820 H   0  0  0  0  0  0  0  0  0  0  0  0
   -2.5551    3.9676    5.9220 H   0  0  0  0  0  0  0  0  0  0  0  0
   -5.3520    4.8280    6.3660 H   0  0  0  0  0  0  0  0  0  0  0  0
   -4.1692    6.1200    5.9039 H   0  0  0  0  0  0  0  0  0  0  0  0
   -5.5120    3.3900    3.2050 H   0  0  0  0  0  0  0  0  0  0  0  0
   -6.0120    3.2890    4.8570 H   0  0  0  0  0  0  0  0  0  0  0  0
   -4.2010    3.3770    8.3770 H   0  0  0  0  0  0  0  0  0  0  0  0
   -3.4347   -0.7872    6.9930 H   0  0  0  0  0  0  0  0  0  0  0  0
   -4.4334   -2.3986    8.6377 H   0  0  0  0  0  0  0  0  0  0  0  0
   -5.8510   -2.7848   10.6320 H   0  0  0  0  0  0  0  0  0  0  0  0
   -7.3095   -1.8783   12.4380 H   0  0  0  0  0  0  0  0  0  0  0  0
   -7.7374    0.5757   12.5707 H   0  0  0  0  0  0  0  0  0  0  0  0
   -6.7084    2.1092   10.9069 H   0  0  0  0  0  0  0  0  0  0  0  0
  1  2  1  0
  2  3  1  0
  2  4  1  0
  2  5  1  0
  5  6  1  0
  6  7  2  0
  6  8  1  0
  8  9  1  0
  9 10  1  0
 10 11  1  0
 11 12  1  0
 12 13  1  0
 13 14  1  0
 14 15  1  0
 15 16  1  0
 16 17  1  0
 17 18  1  0
 18 19  1  0
 19 20  1  0
 19 21  1  0
 21 22  1  0
 22 23  1  0
 23 24  2  0
 24 25  1  0
 25 26  2  0
 26 27  1  0
 27 28  2  0
 21 29  1  0
 29 30  1  0
 30 31  2  0
 30 32  1  0
 32 33  1  0
 33 34  1  0
 34 35  1  0
 34 36  2  0
 32 37  1  0
 37 38  1  0
 38 39  2  0
 38 40  1  0
 40 41  2  0
 41 42  1  0
 42 43  2  0
 43 44  1  0
 44 45  2  0
 45 46  1  0
 46 47  2  0
 47 48  1  0
 48 49  2  0
 17  8  1  0
 28 23  1  0
 49 40  1  0
 15 10  1  0
 48 43  1  0
  1 50  1  0
  1 51  1  0
  1 52  1  0
  3 53  1  0
  3 54  1  0
  3 55  1  0
  4 56  1  0
  4 57  1  0
  4 58  1  0
  5 59  1  0
  8 60  1  1
  9 61  1  0
  9 62  1  0
 10 63  1  6
 11 64  1  0
 11 65  1  0
 12 66  1  0
 12 67  1  0
 13 68  1  0
 13 69  1  0
 14 70  1  0
 14 71  1  0
 15 72  1  6
 16 73  1  0
 16 74  1  0
 17 75  1  6
 18 76  1  0
 18 77  1  0
 19 78  1  6
 20 79  1  0
 21 80  1  1
 22 81  1  0
 22 82  1  0
 24 83  1  0
 25 84  1  0
 26 85  1  0
 27 86  1  0
 28 87  1  0
 29 88  1  0
 32 89  1  6
 33 90  1  0
 33 91  1  0
 35 92  1  0
 35 93  1  0
 37 94  1  0
 41 95  1  0
 42 96  1  0
 44 97  1  0
 45 98  1  0
 46 99  1  0
 47100  1  0
M  CHG  1  17   1
M  END
>  <meeko>  (4) 
{"is_sidechain": [false], "free_energy": -10.83, "intermolecular_energy": -19.387, "internal_energy": -2.05}

$$$$
3pww_ligand
     RDKit          3D

100104  0  0  0  0  0  0  0  0999 V2000
    1.1070   12.3180    8.8120 C   0  0  0  0  0  0  0  0  0  0  0  0
    1.9470   11.0470    9.0340 C   0  0  0  0  0  0  0  0  0  0  0  0
    3.3430   11.4700    9.5180 C   0  0  0  0  0  0  0  0  0  0  0  0
    2.0520   10.2930    7.6990 C   0  0  0  0  0  0  0  0  0  0  0  0
    1.2640   10.2210   10.0520 N   0  0  0  0  0  0  0  0  0  0  0  0
    1.7870    9.0760   10.6140 C   0  0  0  0  0  0  0  0  0  0  0  0
    2.8760    8.6000   10.3000 O   0  0  0  0  0  0  0  0  0  0  0  0
    0.8840    8.3750   11.6610 C   0  0  2  0  0  0  0  0  0  0  0  0
    0.7610    9.1290   12.9920 C   0  0  0  0  0  0  0  0  0  0  0  0
    1.9560    8.9720   13.9480 C   0  0  2  0  0  0  0  0  0  0  0  0
    3.1600    9.8350   13.5350 C   0  0  0  0  0  0  0  0  0  0  0  0
    4.3310    9.6640   14.4980 C   0  0  0  0  0  0  0  0  0  0  0  0
    4.7380    8.2000   14.6240 C   0  0  0  0  0  0  0  0  0  0  0  0
    3.5560    7.3260   15.0360 C   0  0  0  0  0  0  0  0  0  0  0  0
    2.3310    7.4890   14.1230 C   0  0  2  0  0  0  0  0  0  0  0  0
    2.5370    6.7920   12.7750 C   0  0  0  0  0  0  0  0  0  0  0  0
    1.2810    6.9250   11.9570 N   0  0  2  0  0  0  0  0  0  0  0  0
    1.2940    6.0340   10.7090 C   0  0  0  0  0  0  0  0  0  0  0  0
   -0.0800    6.1800   10.0270 C   0  0  1  0  0  0  0  0  0  0  0  0
    0.1980    6.4810    8.6420 O   0  0  0  0  0  0  0  0  0  0  0  0
   -0.9770    4.9270   10.2230 C   0  0  2  0  0  0  0  0  0  0  0  0
   -0.1640    3.6500   10.5500 C   0  0  0  0  0  0  0  0  0  0  0  0
   -1.0180    2.4330   10.8280 C   0  0  0  0  0  0  0  0  0  0  0  0
   -0.6670    1.1710   10.3300 C   0  0  0  0  0  0  0  0  0  0  0  0
   -1.4630    0.0580   10.6010 C   0  0  0  0  0  0  0  0  0  0  0  0
   -2.6200    0.1940   11.3640 C   0  0  0  0  0  0  0  0  0  0  0  0
   -2.9860    1.4450   11.8550 C   0  0  0  0  0  0  0  0  0  0  0  0
   -2.1910    2.5590   11.5870 C   0  0  0  0  0  0  0  0  0  0  0  0
   -1.8770    4.7290    9.0810 N   0  0  0  0  0  0  0  0  0  0  0  0
   -3.0880    5.3630    8.9200 C   0  0  0  0  0  0  0  0  0  0  0  0
   -3.5810    6.0390    9.8260 O   0  0  0  0  0  0  0  0  0  0  0  0
   -3.7790    5.1460    7.5540 C   0  0  2  0  0  0  0  0  0  0  0  0
   -2.9160    4.3050    6.6090 C   0  0  0  0  0  0  0  0  0  0  0  0
   -3.7100    3.1810    5.9880 C   0  0  0  0  0  0  0  0  0  0  0  0
   -3.2670    1.9290    6.2890 N   0  0  0  0  0  0  0  0  0  0  0  0
   -4.7180    3.3520    5.3070 O   0  0  0  0  0  0  0  0  0  0  0  0
   -4.0250    6.4690    6.9910 N   0  0  0  0  0  0  0  0  0  0  0  0
   -5.2470    6.8510    6.4840 C   0  0  0  0  0  0  0  0  0  0  0  0
   -6.2130    6.1000    6.4290 O   0  0  0  0  0  0  0  0  0  0  0  0
   -5.3040    8.2670    5.9960 C   0  0  0  0  0  0  0  0  0  0  0  0
   -4.3980    9.1970    6.4760 C   0  0  0  0  0  0  0  0  0  0  0  0
   -4.4930   10.4990    5.9980 C   0  0  0  0  0  0  0  0  0  0  0  0
   -5.4840   10.8260    5.0630 C   0  0  0  0  0  0  0  0  0  0  0  0
   -5.6140   12.1310    4.5570 C   0  0  0  0  0  0  0  0  0  0  0  0
   -6.6100   12.4300    3.6300 C   0  0  0  0  0  0  0  0  0  0  0  0
   -7.4780   11.4310    3.2050 C   0  0  0  0  0  0  0  0  0  0  0  0
   -7.3460   10.1330    3.7090 C   0  0  0  0  0  0  0  0  0  0  0  0
   -6.3640    9.8050    4.6330 C   0  0  0  0  0  0  0  0  0  0  0  0
   -6.2800    8.5420    5.0860 N   0  0  0  0  0  0  0  0  0  0  0  0
    0.8245   12.7455    9.7854 H   0  0  0  0  0  0  0  0  0  0  0  0
    1.6975   13.0535    8.2460 H   0  0  0  0  0  0  0  0  0  0  0  0
    0.1989   12.0631    8.2460 H   0  0  0  0  0  0  0  0  0  0  0  0
    3.3635   11.4762   10.6178 H   0  0  0  0  0  0  0  0  0  0  0  0
    4.0928   10.7587    9.1413 H   0  0  0  0  0  0  0  0  0  0  0  0
    3.5719   12.4778    9.1413 H   0  0  0  0  0  0  0  0  0  0  0  0
    2.2013    9.2208    7.8942 H   0  0  0  0  0  0  0  0  0  0  0  0
    1.1254   10.4354    7.1236 H   0  0  0  0  0  0  0  0  0  0  0  0
    2.9045   10.6831    7.1236 H   0  0  0  0  0  0  0  0  0  0  0  0
    0.3130   10.4940   10.2740 H   0  0  0  0  0  0  0  0  0  0  0  0
   -0.0976    8.3786   11.1646 H   0  0  0  0  0  0  0  0  0  0  0  0
    0.6439   10.1993   12.7669 H   0  0  0  0  0  0  0  0  0  0  0  0
   -0.1043    8.6913   13.5113 H   0  0  0  0  0  0  0  0  0  0  0  0
    1.6399    9.3517   14.9308 H   0  0  0  0  0  0  0  0  0  0  0  0
    3.4818    9.5389   12.5257 H   0  0  0  0  0  0  0  0  0  0  0  0
    2.8497   10.8901   13.5550 H   0  0  0  0  0  0  0  0  0  0  0  0
    5.1886   10.2431   14.1251 H   0  0  0  0  0  0  0  0  0  0  0  0
    4.0191   10.0234   15.4898 H   0  0  0  0  0  0  0  0  0  0  0  0
    5.1205    7.8502   13.6538 H   0  0  0  0  0  0  0  0  0  0  0  0
    5.5131    8.1221   15.4006 H   0  0  0  0  0  0  0  0  0  0  0  0
    3.8741    6.2733   15.0086 H   0  0  0  0  0  0  0  0  0  0  0  0
    3.2539    7.6421   16.0454 H   0  0  0  0  0  0  0  0  0  0  0  0
    1.4819    6.9931   14.6161 H   0  0  0  0  0  0  0  0  0  0  0  0
    3.3761    7.2622   12.2413 H   0  0  0  0  0  0  0  0  0  0  0  0
    2.7632    5.7279   12.9379 H   0  0  0  0  0  0  0  0  0  0  0  0
    0.5030    6.5070   12.5060 H   0  0  0  0  0  0  0  0  0  0  0  0
    2.0908    6.3581   10.0234 H   0  0  0  0  0  0  0  0  0  0  0  0
    1.4840    4.9853   10.9813 H   0  0  0  0  0  0  0  0  0  0  0  0
   -0.6711    6.9884   10.4821 H   0  0  0  0  0  0  0  0  0  0  0  0
    0.7670    5.7370    8.3140 H   0  0  0  0  0  0  0  0  0  0  0  0
   -1.6011    5.1220   11.1076 H   0  0  0  0  0  0  0  0  0  0  0  0
    0.4888    3.4264    9.6933 H   0  0  0  0  0  0  0  0  0  0  0  0
    0.4020    3.8592   11.4697 H   0  0  0  0  0  0  0  0  0  0  0  0
    0.2422    1.0573    9.7214 H   0  0  0  0  0  0  0  0  0  0  0  0
   -1.1760   -0.9297   10.2110 H   0  0  0  0  0  0  0  0  0  0  0  0
   -3.2443   -0.6858   11.5787 H   0  0  0  0  0  0  0  0  0  0  0  0
   -3.9020    1.5543   12.4541 H   0  0  0  0  0  0  0  0  0  0  0  0
   -2.4864    3.5453   11.9742 H   0  0  0  0  0  0  0  0  0  0  0  0
   -1.4560    4.3380    8.2310 H   0  0  0  0  0  0  0  0  0  0  0  0
   -4.7187    4.5900    7.6875 H   0  0  0  0  0  0  0  0  0  0  0  0
   -2.5268    4.9522    5.8092 H   0  0  0  0  0  0  0  0  0  0  0  0
   -2.0933    3.8654    7.1920 H   0  0  0  0  0  0  0  0  0  0  0  0
   -3.7350    1.1490    5.8460 H   0  0  0  0  0  0  0  0  0  0  0  0
   -2.3430    1.7630    6.6670 H   0  0  0  0  0  0  0  0  0  0  0  0
   -3.2880    7.1760    7.0090 H   0  0  0  0  0  0  0  0  0  0  0  0
   -3.6291    8.9155    7.2106 H   0  0  0  0  0  0  0  0  0  0  0  0
   -3.7927   11.2697    6.3525 H   0  0  0  0  0  0  0  0  0  0  0  0
   -4.9259   12.9200    4.8947 H   0  0  0  0  0  0  0  0  0  0  0  0
   -6.7091   13.4523    3.2361 H   0  0  0  0  0  0  0  0  0  0  0  0
   -8.2671   11.6608    2.4738 H   0  0  0  0  0  0  0  0  0  0  0  0
   -8.0389    9.3515    3.3638 H   0  0  0  0  0  0  0  0  0  0  0  0
  1  2  1  0
  2  3  1  0
  2  4  1  0
  2  5  1  0
  5  6  1  0
  6  7  2  0
  6  8  1  0
  8  9  1  0
  9 10  1  0
 10 11  1  0
 11 12  1  0
 12 13  1  0
 13 14  1  0
 14 15  1  0
 15 16  1  0
 16 17  1  0
 17 18  1  0
 18 19  1  0
 19 20  1  0
 19 21  1  0
 21 22  1  0
 22 23  1  0
 23 24  2  0
 24 25  1  0
 25 26  2  0
 26 27  1  0
 27 28  2  0
 21 29  1  0
 29 30  1  0
 30 31  2  0
 30 32  1  0
 32 33  1  0
 33 34  1  0
 34 35  1  0
 34 36  2  0
 32 37  1  0
 37 38  1  0
 38 39  2  0
 38 40  1  0
 40 41  2  0
 41 42  1  0
 42 43  2  0
 43 44  1  0
 44 45  2  0
 45 46  1  0
 46 47  2  0
 47 48  1  0
 48 49  2  0
 17  8  1  0
 28 23  1  0
 49 40  1  0
 15 10  1  0
 48 43  1  0
  1 50  1  0
  1 51  1  0
  1 52  1  0
  3 53  1  0
  3 54  1  0
  3 55  1  0
  4 56  1  0
  4 57  1  0
  4 58  1  0
  5 59  1  0
  8 60  1  6
  9 61  1  0
  9 62  1  0
 10 63  1  1
 11 64  1  0
 11 65  1  0
 12 66  1  0
 12 67  1  0
 13 68  1  0
 13 69  1  0
 14 70  1  0
 14 71  1  0
 15 72  1  1
 16 73  1  0
 16 74  1  0
 17 75  1  1
 18 76  1  0
 18 77  1  0
 19 78  1  1
 20 79  1  0
 21 80  1  1
 22 81  1  0
 22 82  1  0
 24 83  1  0
 25 84  1  0
 26 85  1  0
 27 86  1  0
 28 87  1  0
 29 88  1  0
 32 89  1  1
 33 90  1  0
 33 91  1  0
 35 92  1  0
 35 93  1  0
 37 94  1  0
 41 95  1  0
 42 96  1  0
 44 97  1  0
 45 98  1  0
 46 99  1  0
 47100  1  0
M  CHG  1  17   1
M  END
>  <meeko>  (5) 
{"is_sidechain": [false], "free_energy": -10.559, "intermolecular_energy": -19.385, "internal_energy": -1.568}

$$$$
3pww_ligand
     RDKit          3D

100104  0  0  0  0  0  0  0  0999 V2000
   -7.7200   -1.4310    8.1840 C   0  0  0  0  0  0  0  0  0  0  0  0
   -7.3540   -1.0040    6.7500 C   0  0  0  0  0  0  0  0  0  0  0  0
   -8.1380   -1.8910    5.7700 C   0  0  0  0  0  0  0  0  0  0  0  0
   -5.8430   -1.2000    6.5550 C   0  0  0  0  0  0  0  0  0  0  0  0
   -7.7260    0.4170    6.5880 N   0  0  0  0  0  0  0  0  0  0  0  0
   -7.3830    1.1990    5.5060 C   0  0  0  0  0  0  0  0  0  0  0  0
   -6.6970    0.8010    4.5680 O   0  0  0  0  0  0  0  0  0  0  0  0
   -7.8840    2.6660    5.5590 C   0  0  2  0  0  0  0  0  0  0  0  0
   -9.2610    2.8840    4.9170 C   0  0  0  0  0  0  0  0  0  0  0  0
   -9.2640    2.9600    3.3810 C   0  0  2  0  0  0  0  0  0  0  0  0
   -9.1420    1.5750    2.7220 C   0  0  0  0  0  0  0  0  0  0  0  0
   -9.1490    1.6760    1.1980 C   0  0  0  0  0  0  0  0  0  0  0  0
   -8.0520    2.6080    0.6980 C   0  0  0  0  0  0  0  0  0  0  0  0
   -8.1570    3.9890    1.3390 C   0  0  0  0  0  0  0  0  0  0  0  0
   -8.1950    3.9450    2.8740 C   0  0  2  0  0  0  0  0  0  0  0  0
   -6.8160    3.6400    3.4640 C   0  0  0  0  0  0  0  0  0  0  0  0
   -6.9030    3.6820    4.9660 N   0  0  2  0  0  0  0  0  0  0  0  0
   -5.5240    3.6570    5.6370 C   0  0  0  0  0  0  0  0  0  0  0  0
   -5.6400    4.4470    6.9540 C   0  0  1  0  0  0  0  0  0  0  0  0
   -5.7420    3.4560    8.0000 O   0  0  0  0  0  0  0  0  0  0  0  0
   -4.4660    5.4450    7.1540 C   0  0  2  0  0  0  0  0  0  0  0  0
   -3.8930    5.9750    5.8170 C   0  0  0  0  0  0  0  0  0  0  0  0
   -3.9650    7.4780    5.6720 C   0  0  0  0  0  0  0  0  0  0  0  0
   -2.8010    8.2570    5.6050 C   0  0  0  0  0  0  0  0  0  0  0  0
   -2.8850    9.6430    5.4650 C   0  0  0  0  0  0  0  0  0  0  0  0
   -4.1290   10.2650    5.3990 C   0  0  0  0  0  0  0  0  0  0  0  0
   -5.2930    9.5030    5.4750 C   0  0  0  0  0  0  0  0  0  0  0  0
   -5.2110    8.1180    5.6130 C   0  0  0  0  0  0  0  0  0  0  0  0
   -3.4220    4.8760    8.0140 N   0  0  0  0  0  0  0  0  0  0  0  0
   -2.6480    5.6020    8.8900 C   0  0  0  0  0  0  0  0  0  0  0  0
   -2.6750    6.8360    8.8940 O   0  0  0  0  0  0  0  0  0  0  0  0
   -1.7430    4.7720    9.8290 C   0  0  2  0  0  0  0  0  0  0  0  0
   -0.3550    4.5460    9.2230 C   0  0  0  0  0  0  0  0  0  0  0  0
    0.7120    5.2900    9.9900 C   0  0  0  0  0  0  0  0  0  0  0  0
    1.9910    4.9240    9.6980 N   0  0  0  0  0  0  0  0  0  0  0  0
    0.4750    6.2020   10.7790 O   0  0  0  0  0  0  0  0  0  0  0  0
   -2.4230    3.5010   10.0550 N   0  0  0  0  0  0  0  0  0  0  0  0
   -1.9270    2.5260   10.8920 C   0  0  0  0  0  0  0  0  0  0  0  0
   -0.8590    2.6310   11.4830 O   0  0  0  0  0  0  0  0  0  0  0  0
   -2.8000    1.3160   11.0230 C   0  0  0  0  0  0  0  0  0  0  0  0
   -2.2520    0.0520   10.8810 C   0  0  0  0  0  0  0  0  0  0  0  0
   -3.1020   -1.0400   11.0070 C   0  0  0  0  0  0  0  0  0  0  0  0
   -4.4640   -0.8350   11.2690 C   0  0  0  0  0  0  0  0  0  0  0  0
   -5.3550   -1.9130   11.4020 C   0  0  0  0  0  0  0  0  0  0  0  0
   -6.7050   -1.6830   11.6600 C   0  0  0  0  0  0  0  0  0  0  0  0
   -7.1680   -0.3780   11.7870 C   0  0  0  0  0  0  0  0  0  0  0  0
   -6.2780    0.6930   11.6560 C   0  0  0  0  0  0  0  0  0  0  0  0
   -4.9290    0.4940   11.3990 C   0  0  0  0  0  0  0  0  0  0  0  0
   -4.1160    1.5580   11.2810 N   0  0  0  0  0  0  0  0  0  0  0  0
   -7.1788   -0.7996    8.9040 H   0  0  0  0  0  0  0  0  0  0  0  0
   -8.8032   -1.3147    8.3360 H   0  0  0  0  0  0  0  0  0  0  0  0
   -7.4394   -2.4837    8.3360 H   0  0  0  0  0  0  0  0  0  0  0  0
   -8.7630   -2.5981    6.3351 H   0  0  0  0  0  0  0  0  0  0  0  0
   -8.7790   -1.2601    5.1367 H   0  0  0  0  0  0  0  0  0  0  0  0
   -7.4331   -2.4497    5.1367 H   0  0  0  0  0  0  0  0  0  0  0  0
   -5.3518   -1.2637    7.5372 H   0  0  0  0  0  0  0  0  0  0  0  0
   -5.6631   -2.1290    5.9941 H   0  0  0  0  0  0  0  0  0  0  0  0
   -5.4321   -0.3476    5.9941 H   0  0  0  0  0  0  0  0  0  0  0  0
   -8.1960    0.8420    7.3800 H   0  0  0  0  0  0  0  0  0  0  0  0
   -7.9694    2.8470    6.6406 H   0  0  0  0  0  0  0  0  0  0  0  0
   -9.9122    2.0500    5.2175 H   0  0  0  0  0  0  0  0  0  0  0  0
   -9.6106    3.8650    5.2713 H   0  0  0  0  0  0  0  0  0  0  0  0
  -10.2455    3.3519    3.0759 H   0  0  0  0  0  0  0  0  0  0  0  0
   -8.1999    1.1077    3.0446 H   0  0  0  0  0  0  0  0  0  0  0  0
  -10.0065    0.9691    3.0311 H   0  0  0  0  0  0  0  0  0  0  0  0
   -8.9894    0.6744    0.7721 H   0  0  0  0  0  0  0  0  0  0  0  0
  -10.1206    2.0839    0.8823 H   0  0  0  0  0  0  0  0  0  0  0  0
   -7.0726    2.1725    0.9454 H   0  0  0  0  0  0  0  0  0  0  0  0
   -8.1657    2.7227   -0.3901 H   0  0  0  0  0  0  0  0  0  0  0  0
   -7.2864    4.5853    1.0282 H   0  0  0  0  0  0  0  0  0  0  0  0
   -9.1052    4.4333    1.0022 H   0  0  0  0  0  0  0  0  0  0  0  0
   -8.4810    4.9472    3.2258 H   0  0  0  0  0  0  0  0  0  0  0  0
   -6.4904    2.6400    3.1417 H   0  0  0  0  0  0  0  0  0  0  0  0
   -6.0893    4.3878    3.1137 H   0  0  0  0  0  0  0  0  0  0  0  0
   -7.2500    4.6260    5.2340 H   0  0  0  0  0  0  0  0  0  0  0  0
   -5.2260    2.6190    5.8459 H   0  0  0  0  0  0  0  0  0  0  0  0
   -4.7637    4.1049    4.9803 H   0  0  0  0  0  0  0  0  0  0  0  0
   -6.5275    5.0969    6.9567 H   0  0  0  0  0  0  0  0  0  0  0  0
   -6.4890    2.8600    7.7350 H   0  0  0  0  0  0  0  0  0  0  0  0
   -4.8817    6.3219    7.6720 H   0  0  0  0  0  0  0  0  0  0  0  0
   -2.8383    5.6706    5.7474 H   0  0  0  0  0  0  0  0  0  0  0  0
   -4.5103    5.5470    5.0134 H   0  0  0  0  0  0  0  0  0  0  0  0
   -1.8152    7.7725    5.6632 H   0  0  0  0  0  0  0  0  0  0  0  0
   -1.9664   10.2454    5.4067 H   0  0  0  0  0  0  0  0  0  0  0  0
   -4.1928   11.3574    5.2869 H   0  0  0  0  0  0  0  0  0  0  0  0
   -6.2762    9.9939    5.4261 H   0  0  0  0  0  0  0  0  0  0  0  0
   -6.1331    7.5215    5.6762 H   0  0  0  0  0  0  0  0  0  0  0  0
   -3.4760    3.8660    8.1900 H   0  0  0  0  0  0  0  0  0  0  0  0
   -1.5812    5.3093   10.7751 H   0  0  0  0  0  0  0  0  0  0  0  0
   -0.1264    3.4702    9.2449 H   0  0  0  0  0  0  0  0  0  0  0  0
   -0.3640    4.9237    8.1899 H   0  0  0  0  0  0  0  0  0  0  0  0
    2.7340    5.3580   10.2320 H   0  0  0  0  0  0  0  0  0  0  0  0
    2.2060    4.0590    9.2200 H   0  0  0  0  0  0  0  0  0  0  0  0
   -3.3310    3.3260    9.6240 H   0  0  0  0  0  0  0  0  0  0  0  0
   -1.1798   -0.0829   10.6754 H   0  0  0  0  0  0  0  0  0  0  0  0
   -2.7078   -2.0615   10.9016 H   0  0  0  0  0  0  0  0  0  0  0  0
   -4.9851   -2.9441   11.3020 H   0  0  0  0  0  0  0  0  0  0  0  0
   -7.4005   -2.5291   11.7626 H   0  0  0  0  0  0  0  0  0  0  0  0
   -8.2323   -0.1883   11.9901 H   0  0  0  0  0  0  0  0  0  0  0  0
   -6.6575    1.7203   11.7594 H   0  0  0  0  0  0  0  0  0  0  0  0
  1  2  1  0
  2  3  1  0
  2  4  1  0
  2  5  1  0
  5  6  1  0
  6  7  2  0
  6  8  1  0
  8  9  1  0
  9 10  1  0
 10 11  1  0
 11 12  1  0
 12 13  1  0
 13 14  1  0
 14 15  1  0
 15 16  1  0
 16 17  1  0
 17 18  1  0
 18 19  1  0
 19 20  1  0
 19 21  1  0
 21 22  1  0
 22 23  1  0
 23 24  2  0
 24 25  1  0
 25 26  2  0
 26 27  1  0
 27 28  2  0
 21 29  1  0
 29 30  1  0
 30 31  2  0
 30 32  1  0
 32 33  1  0
 33 34  1  0
 34 35  1  0
 34 36  2  0
 32 37  1  0
 37 38  1  0
 38 39  2  0
 38 40  1  0
 40 41  2  0
 41 42  1  0
 42 43  2  0
 43 44  1  0
 44 45  2  0
 45 46  1  0
 46 47  2  0
 47 48  1  0
 48 49  2  0
 17  8  1  0
 28 23  1  0
 49 40  1  0
 15 10  1  0
 48 43  1  0
  1 50  1  0
  1 51  1  0
  1 52  1  0
  3 53  1  0
  3 54  1  0
  3 55  1  0
  4 56  1  0
  4 57  1  0
  4 58  1  0
  5 59  1  0
  8 60  1  1
  9 61  1  0
  9 62  1  0
 10 63  1  6
 11 64  1  0
 11 65  1  0
 12 66  1  0
 12 67  1  0
 13 68  1  0
 13 69  1  0
 14 70  1  0
 14 71  1  0
 15 72  1  1
 16 73  1  0
 16 74  1  0
 17 75  1  6
 18 76  1  0
 18 77  1  0
 19 78  1  6
 20 79  1  0
 21 80  1  1
 22 81  1  0
 22 82  1  0
 24 83  1  0
 25 84  1  0
 26 85  1  0
 27 86  1  0
 28 87  1  0
 29 88  1  0
 32 89  1  1
 33 90  1  0
 33 91  1  0
 35 92  1  0
 35 93  1  0
 37 94  1  0
 41 95  1  0
 42 96  1  0
 44 97  1  0
 45 98  1  0
 46 99  1  0
 47100  1  0
M  CHG  1  17   1
M  END
>  <meeko>  (6) 
{"is_sidechain": [false], "free_energy": -10.259, "intermolecular_energy": -18.571, "internal_energy": -1.846}

$$$$
3pww_ligand
     RDKit          3D

100104  0  0  0  0  0  0  0  0999 V2000
   -9.5020    0.0790    7.5080 C   0  0  0  0  0  0  0  0  0  0  0  0
   -8.3060   -0.6850    6.9100 C   0  0  0  0  0  0  0  0  0  0  0  0
   -8.4040   -0.6090    5.3790 C   0  0  0  0  0  0  0  0  0  0  0  0
   -8.3800   -2.1470    7.3770 C   0  0  0  0  0  0  0  0  0  0  0  0
   -7.0660   -0.0410    7.3920 N   0  0  0  0  0  0  0  0  0  0  0  0
   -5.7940   -0.3930    6.9960 C   0  0  0  0  0  0  0  0  0  0  0  0
   -5.5530   -1.3120    6.2160 O   0  0  0  0  0  0  0  0  0  0  0  0
   -4.6440    0.4250    7.6410 C   0  0  2  0  0  0  0  0  0  0  0  0
   -3.9070   -0.3080    8.7700 C   0  0  0  0  0  0  0  0  0  0  0  0
   -4.6310   -0.3190   10.1270 C   0  0  2  0  0  0  0  0  0  0  0  0
   -5.7810   -1.3400   10.1730 C   0  0  0  0  0  0  0  0  0  0  0  0
   -6.4820   -1.3340   11.5290 C   0  0  0  0  0  0  0  0  0  0  0  0
   -6.9860    0.0590   11.8880 C   0  0  0  0  0  0  0  0  0  0  0  0
   -5.8590    1.0870   11.8490 C   0  0  0  0  0  0  0  0  0  0  0  0
   -5.0900    1.0970   10.5200 C   0  0  2  0  0  0  0  0  0  0  0  0
   -5.9010    1.7610    9.4040 C   0  0  0  0  0  0  0  0  0  0  0  0
   -5.0700    1.8050    8.1510 N   0  0  2  0  0  0  0  0  0  0  0  0
   -5.6910    2.6880    7.0610 C   0  0  0  0  0  0  0  0  0  0  0  0
   -4.5380    3.2200    6.1890 C   0  0  1  0  0  0  0  0  0  0  0  0
   -5.0560    3.2710    4.8420 O   0  0  0  0  0  0  0  0  0  0  0  0
   -3.9880    4.5810    6.6960 C   0  0  2  0  0  0  0  0  0  0  0  0
   -3.6880    5.5740    5.5470 C   0  0  0  0  0  0  0  0  0  0  0  0
   -3.8660    7.0270    5.9290 C   0  0  0  0  0  0  0  0  0  0  0  0
   -2.9560    8.0050    5.5060 C   0  0  0  0  0  0  0  0  0  0  0  0
   -3.1370    9.3410    5.8630 C   0  0  0  0  0  0  0  0  0  0  0  0
   -4.2230    9.7130    6.6520 C   0  0  0  0  0  0  0  0  0  0  0  0
   -5.1280    8.7490    7.0890 C   0  0  0  0  0  0  0  0  0  0  0  0
   -4.9490    7.4120    6.7320 C   0  0  0  0  0  0  0  0  0  0  0  0
   -2.8310    4.3940    7.5790 N   0  0  0  0  0  0  0  0  0  0  0  0
   -2.8950    4.3330    8.9510 C   0  0  0  0  0  0  0  0  0  0  0  0
   -3.9390    4.5960    9.5540 O   0  0  0  0  0  0  0  0  0  0  0  0
   -1.5800    3.9440    9.6660 C   0  0  2  0  0  0  0  0  0  0  0  0
   -1.8420    3.0880   10.9080 C   0  0  0  0  0  0  0  0  0  0  0  0
   -1.1370    1.7560   10.8200 C   0  0  0  0  0  0  0  0  0  0  0  0
    0.1140    1.8020   10.2850 N   0  0  0  0  0  0  0  0  0  0  0  0
   -1.6080    0.7040   11.2470 O   0  0  0  0  0  0  0  0  0  0  0  0
   -0.9120    5.1900   10.0270 N   0  0  0  0  0  0  0  0  0  0  0  0
    0.4280    5.4120    9.8020 C   0  0  0  0  0  0  0  0  0  0  0  0
    1.1740    4.5700    9.3160 O   0  0  0  0  0  0  0  0  0  0  0  0
    0.9090    6.7740   10.2020 C   0  0  0  0  0  0  0  0  0  0  0  0
    0.8810    7.1510   11.5340 C   0  0  0  0  0  0  0  0  0  0  0  0
    1.3330    8.4240   11.8560 C   0  0  0  0  0  0  0  0  0  0  0  0
    1.7960    9.2750   10.8430 C   0  0  0  0  0  0  0  0  0  0  0  0
    2.2600   10.5700   11.1280 C   0  0  0  0  0  0  0  0  0  0  0  0
    2.7130   11.3970   10.1020 C   0  0  0  0  0  0  0  0  0  0  0  0
    2.7040   10.9350    8.7910 C   0  0  0  0  0  0  0  0  0  0  0  0
    2.2440    9.6440    8.5100 C   0  0  0  0  0  0  0  0  0  0  0  0
    1.7870    8.7990    9.5110 C   0  0  0  0  0  0  0  0  0  0  0  0
    1.3540    7.5680    9.1870 N   0  0  0  0  0  0  0  0  0  0  0  0
   -9.4474    0.0441    8.6061 H   0  0  0  0  0  0  0  0  0  0  0  0
   -9.4729    1.1262    7.1725 H   0  0  0  0  0  0  0  0  0  0  0  0
  -10.4399   -0.3876    7.1725 H   0  0  0  0  0  0  0  0  0  0  0  0
   -9.2443    0.0426    5.0973 H   0  0  0  0  0  0  0  0  0  0  0  0
   -7.4686   -0.1979    4.9717 H   0  0  0  0  0  0  0  0  0  0  0  0
   -8.5694   -1.6173    4.9717 H   0  0  0  0  0  0  0  0  0  0  0  0
   -8.3817   -2.1811    8.4765 H   0  0  0  0  0  0  0  0  0  0  0  0
   -9.3026   -2.6079    6.9944 H   0  0  0  0  0  0  0  0  0  0  0  0
   -7.5086   -2.6987    6.9944 H   0  0  0  0  0  0  0  0  0  0  0  0
   -7.1860    0.6500    8.1240 H   0  0  0  0  0  0  0  0  0  0  0  0
   -3.9489    0.5589    6.7990 H   0  0  0  0  0  0  0  0  0  0  0  0
   -3.7563   -1.3515    8.4564 H   0  0  0  0  0  0  0  0  0  0  0  0
   -2.9686    0.2433    8.9297 H   0  0  0  0  0  0  0  0  0  0  0  0
   -3.9038   -0.6520   10.8822 H   0  0  0  0  0  0  0  0  0  0  0  0
   -6.5131   -1.0890    9.3913 H   0  0  0  0  0  0  0  0  0  0  0  0
   -5.3589   -2.3422   10.0077 H   0  0  0  0  0  0  0  0  0  0  0  0
   -7.3366   -2.0257   11.4932 H   0  0  0  0  0  0  0  0  0  0  0  0
   -5.7575   -1.6482   12.2948 H   0  0  0  0  0  0  0  0  0  0  0  0
   -7.7644    0.3541   11.1690 H   0  0  0  0  0  0  0  0  0  0  0  0
   -7.3902    0.0276   12.9106 H   0  0  0  0  0  0  0  0  0  0  0  0
   -6.2919    2.0855   12.0092 H   0  0  0  0  0  0  0  0  0  0  0  0
   -5.1422    0.8139   12.6374 H   0  0  0  0  0  0  0  0  0  0  0  0
   -4.1854    1.7054   10.6666 H   0  0  0  0  0  0  0  0  0  0  0  0
   -6.8166    1.1803    9.2185 H   0  0  0  0  0  0  0  0  0  0  0  0
   -6.1749    2.7835    9.7031 H   0  0  0  0  0  0  0  0  0  0  0  0
   -4.1970    2.3260    8.3710 H   0  0  0  0  0  0  0  0  0  0  0  0
   -6.3848    2.0954    6.4467 H   0  0  0  0  0  0  0  0  0  0  0  0
   -6.2558    3.5191    7.5085 H   0  0  0  0  0  0  0  0  0  0  0  0
   -3.6596    2.5595    6.2359 H   0  0  0  0  0  0  0  0  0  0  0  0
   -6.0380    3.3800    4.9340 H   0  0  0  0  0  0  0  0  0  0  0  0
   -4.7891    5.0431    7.2916 H   0  0  0  0  0  0  0  0  0  0  0  0
   -2.6468    5.4259    5.2245 H   0  0  0  0  0  0  0  0  0  0  0  0
   -4.4126    5.3637    4.7465 H   0  0  0  0  0  0  0  0  0  0  0  0
   -2.0928    7.7170    4.8880 H   0  0  0  0  0  0  0  0  0  0  0  0
   -2.4207   10.1025    5.5208 H   0  0  0  0  0  0  0  0  0  0  0  0
   -4.3657   10.7677    6.9298 H   0  0  0  0  0  0  0  0  0  0  0  0
   -5.9836    9.0414    7.7154 H   0  0  0  0  0  0  0  0  0  0  0  0
   -5.6638    6.6534    7.0836 H   0  0  0  0  0  0  0  0  0  0  0  0
   -1.9890    3.9950    7.1480 H   0  0  0  0  0  0  0  0  0  0  0  0
   -0.9511    3.3343    9.0006 H   0  0  0  0  0  0  0  0  0  0  0  0
   -1.4796    3.6263   11.7962 H   0  0  0  0  0  0  0  0  0  0  0  0
   -2.9240    2.9022   10.9774 H   0  0  0  0  0  0  0  0  0  0  0  0
    0.5990    0.9230   10.1550 H   0  0  0  0  0  0  0  0  0  0  0  0
    0.4410    2.5960    9.7490 H   0  0  0  0  0  0  0  0  0  0  0  0
   -1.4520    5.9630   10.4190 H   0  0  0  0  0  0  0  0  0  0  0  0
    0.5130    6.4651   12.3112 H   0  0  0  0  0  0  0  0  0  0  0  0
    1.3277    8.7633   12.9023 H   0  0  0  0  0  0  0  0  0  0  0  0
    2.2658   10.9330   12.1664 H   0  0  0  0  0  0  0  0  0  0  0  0
    3.0759   12.4104   10.3284 H   0  0  0  0  0  0  0  0  0  0  0  0
    3.0579   11.5833    7.9759 H   0  0  0  0  0  0  0  0  0  0  0  0
    2.2447    9.2898    7.4686 H   0  0  0  0  0  0  0  0  0  0  0  0
  1  2  1  0
  2  3  1  0
  2  4  1  0
  2  5  1  0
  5  6  1  0
  6  7  2  0
  6  8  1  0
  8  9  1  0
  9 10  1  0
 10 11  1  0
 11 12  1  0
 12 13  1  0
 13 14  1  0
 14 15  1  0
 15 16  1  0
 16 17  1  0
 17 18  1  0
 18 19  1  0
 19 20  1  0
 19 21  1  0
 21 22  1  0
 22 23  1  0
 23 24  2  0
 24 25  1  0
 25 26  2  0
 26 27  1  0
 27 28  2  0
 21 29  1  0
 29 30  1  0
 30 31  2  0
 30 32  1  0
 32 33  1  0
 33 34  1  0
 34 35  1  0
 34 36  2  0
 32 37  1  0
 37 38  1  0
 38 39  2  0
 38 40  1  0
 40 41  2  0
 41 42  1  0
 42 43  2  0
 43 44  1  0
 44 45  2  0
 45 46  1  0
 46 47  2  0
 47 48  1  0
 48 49  2  0
 17  8  1  0
 28 23  1  0
 49 40  1  0
 15 10  1  0
 48 43  1  0
  1 50  1  0
  1 51  1  0
  1 52  1  0
  3 53  1  0
  3 54  1  0
  3 55  1  0
  4 56  1  0
  4 57  1  0
  4 58  1  0
  5 59  1  0
  8 60  1  6
  9 61  1  0
  9 62  1  0
 10 63  1  1
 11 64  1  0
 11 65  1  0
 12 66  1  0
 12 67  1  0
 13 68  1  0
 13 69  1  0
 14 70  1  0
 14 71  1  0
 15 72  1  1
 16 73  1  0
 16 74  1  0
 17 75  1  1
 18 76  1  0
 18 77  1  0
 19 78  1  6
 20 79  1  0
 21 80  1  1
 22 81  1  0
 22 82  1  0
 24 83  1  0
 25 84  1  0
 26 85  1  0
 27 86  1  0
 28 87  1  0
 29 88  1  0
 32 89  1  6
 33 90  1  0
 33 91  1  0
 35 92  1  0
 35 93  1  0
 37 94  1  0
 41 95  1  0
 42 96  1  0
 44 97  1  0
 45 98  1  0
 46 99  1  0
 47100  1  0
M  CHG  1  17   1
M  END
>  <meeko>  (7) 
{"is_sidechain": [false], "free_energy": -10.09, "intermolecular_energy": -17.789, "internal_energy": -2.324}

$$$$
3pww_ligand
     RDKit          3D

100104  0  0  0  0  0  0  0  0999 V2000
   -6.6030    0.9170   11.9710 C   0  0  0  0  0  0  0  0  0  0  0  0
   -6.8670    0.5090   10.5090 C   0  0  0  0  0  0  0  0  0  0  0  0
   -8.1110    1.2650   10.0160 C   0  0  0  0  0  0  0  0  0  0  0  0
   -7.1120   -1.0070   10.4640 C   0  0  0  0  0  0  0  0  0  0  0  0
   -5.6770    0.8740    9.7110 N   0  0  0  0  0  0  0  0  0  0  0  0
   -5.4780    0.5230    8.3940 C   0  0  0  0  0  0  0  0  0  0  0  0
   -6.2640   -0.1650    7.7460 O   0  0  0  0  0  0  0  0  0  0  0  0
   -4.1500    1.0180    7.7650 C   0  0  2  0  0  0  0  0  0  0  0  0
   -2.9260    0.1670    8.1280 C   0  0  0  0  0  0  0  0  0  0  0  0
   -2.3370    0.4260    9.5250 C   0  0  2  0  0  0  0  0  0  0  0  0
   -3.1640   -0.2280   10.6450 C   0  0  0  0  0  0  0  0  0  0  0  0
   -2.5590    0.0420   12.0200 C   0  0  0  0  0  0  0  0  0  0  0  0
   -2.4010    1.5370   12.2730 C   0  0  0  0  0  0  0  0  0  0  0  0
   -1.5810    2.2050   11.1730 C   0  0  0  0  0  0  0  0  0  0  0  0
   -2.1210    1.9330    9.7610 C   0  0  2  0  0  0  0  0  0  0  0  0
   -3.3900    2.7400    9.4780 C   0  0  0  0  0  0  0  0  0  0  0  0
   -3.8280    2.4860    8.0600 N   0  0  2  0  0  0  0  0  0  0  0  0
   -4.9280    3.4520    7.6010 C   0  0  0  0  0  0  0  0  0  0  0  0
   -4.3750    4.2370    6.3970 C   0  0  1  0  0  0  0  0  0  0  0  0
   -5.3250    4.0380    5.3280 O   0  0  0  0  0  0  0  0  0  0  0  0
   -4.1170    5.7320    6.7290 C   0  0  2  0  0  0  0  0  0  0  0  0
   -4.4900    6.6810    5.5640 C   0  0  0  0  0  0  0  0  0  0  0  0
   -4.4120    8.1490    5.9180 C   0  0  0  0  0  0  0  0  0  0  0  0
   -3.3560    8.9500    5.4650 C   0  0  0  0  0  0  0  0  0  0  0  0
   -3.3020   10.3040    5.7960 C   0  0  0  0  0  0  0  0  0  0  0  0
   -4.2970   10.8700    6.5900 C   0  0  0  0  0  0  0  0  0  0  0  0
   -5.3460   10.0820    7.0570 C   0  0  0  0  0  0  0  0  0  0  0  0
   -5.4030    8.7280    6.7250 C   0  0  0  0  0  0  0  0  0  0  0  0
   -2.7430    5.9480    7.1960 N   0  0  0  0  0  0  0  0  0  0  0  0
   -2.3890    6.1860    8.5040 C   0  0  0  0  0  0  0  0  0  0  0  0
   -3.2430    6.3960    9.3690 O   0  0  0  0  0  0  0  0  0  0  0  0
   -0.8700    6.1960    8.7940 C   0  0  2  0  0  0  0  0  0  0  0  0
   -0.5190    5.3250   10.0030 C   0  0  0  0  0  0  0  0  0  0  0  0
    0.9550    5.3930   10.3260 C   0  0  0  0  0  0  0  0  0  0  0  0
    1.7490    4.6010    9.5540 N   0  0  0  0  0  0  0  0  0  0  0  0
    1.4340    6.1420   11.1730 O   0  0  0  0  0  0  0  0  0  0  0  0
   -0.4950    7.5860    9.0310 N   0  0  0  0  0  0  0  0  0  0  0  0
   -0.3420    8.5020    8.0150 C   0  0  0  0  0  0  0  0  0  0  0  0
   -0.4720    8.2170    6.8300 O   0  0  0  0  0  0  0  0  0  0  0  0
   -0.0000    9.8880    8.4720 C   0  0  0  0  0  0  0  0  0  0  0  0
   -1.0050   10.8270    8.6360 C   0  0  0  0  0  0  0  0  0  0  0  0
   -0.6380   12.0990    9.0570 C   0  0  0  0  0  0  0  0  0  0  0  0
    0.7110   12.3900    9.3000 C   0  0  0  0  0  0  0  0  0  0  0  0
    1.1210   13.6650    9.7250 C   0  0  0  0  0  0  0  0  0  0  0  0
    2.4700   13.9290    9.9570 C   0  0  0  0  0  0  0  0  0  0  0  0
    3.4110   12.9240    9.7650 C   0  0  0  0  0  0  0  0  0  0  0  0
    3.0000   11.6560    9.3430 C   0  0  0  0  0  0  0  0  0  0  0  0
    1.6640   11.3630    9.1040 C   0  0  0  0  0  0  0  0  0  0  0  0
    1.3220   10.1280    8.6990 N   0  0  0  0  0  0  0  0  0  0  0  0
   -7.0748    0.1878   12.6461 H   0  0  0  0  0  0  0  0  0  0  0  0
   -5.5188    0.9393   12.1554 H   0  0  0  0  0  0  0  0  0  0  0  0
   -7.0269    1.9152   12.1554 H   0  0  0  0  0  0  0  0  0  0  0  0
   -8.6921    1.6181   10.8807 H   0  0  0  0  0  0  0  0  0  0  0  0
   -7.7992    2.1265    9.4072 H   0  0  0  0  0  0  0  0  0  0  0  0
   -8.7321    0.5915    9.4072 H   0  0  0  0  0  0  0  0  0  0  0  0
   -7.1753   -1.3988   11.4899 H   0  0  0  0  0  0  0  0  0  0  0  0
   -8.0547   -1.2105    9.9349 H   0  0  0  0  0  0  0  0  0  0  0  0
   -6.2814   -1.4971    9.9349 H   0  0  0  0  0  0  0  0  0  0  0  0
   -4.9360    1.3460   10.2180 H   0  0  0  0  0  0  0  0  0  0  0  0
   -4.3455    0.9089    6.6880 H   0  0  0  0  0  0  0  0  0  0  0  0
   -3.2199   -0.8916    8.0739 H   0  0  0  0  0  0  0  0  0  0  0  0
   -2.1396    0.4430    7.4101 H   0  0  0  0  0  0  0  0  0  0  0  0
   -1.3508   -0.0601    9.5591 H   0  0  0  0  0  0  0  0  0  0  0  0
   -4.1858    0.1785   10.6184 H   0  0  0  0  0  0  0  0  0  0  0  0
   -3.1698   -1.3154   10.4788 H   0  0  0  0  0  0  0  0  0  0  0  0
   -3.2178   -0.3840   12.7910 H   0  0  0  0  0  0  0  0  0  0  0  0
   -1.5630   -0.4232   12.0580 H   0  0  0  0  0  0  0  0  0  0  0  0
   -3.3976    2.0012   12.3082 H   0  0  0  0  0  0  0  0  0  0  0  0
   -1.8730    1.6722   13.2285 H   0  0  0  0  0  0  0  0  0  0  0  0
   -1.5858    3.2914   11.3451 H   0  0  0  0  0  0  0  0  0  0  0  0
   -0.5668    1.7817   11.2206 H   0  0  0  0  0  0  0  0  0  0  0  0
   -1.3584    2.2708    9.0438 H   0  0  0  0  0  0  0  0  0  0  0  0
   -4.1861    2.4299   10.1708 H   0  0  0  0  0  0  0  0  0  0  0  0
   -3.1868    3.8121    9.6172 H   0  0  0  0  0  0  0  0  0  0  0  0
   -3.0400    2.7520    7.4360 H   0  0  0  0  0  0  0  0  0  0  0  0
   -5.8241    2.8879    7.3031 H   0  0  0  0  0  0  0  0  0  0  0  0
   -5.2105    4.1357    8.4151 H   0  0  0  0  0  0  0  0  0  0  0  0
   -3.3820    3.8693    6.0991 H   0  0  0  0  0  0  0  0  0  0  0  0
   -4.9420    3.3230    4.7560 H   0  0  0  0  0  0  0  0  0  0  0  0
   -4.7935    5.9907    7.5569 H   0  0  0  0  0  0  0  0  0  0  0  0
   -3.8013    6.4897    4.7279 H   0  0  0  0  0  0  0  0  0  0  0  0
   -5.5384    6.4711    5.3055 H   0  0  0  0  0  0  0  0  0  0  0  0
   -2.5633    8.5080    4.8435 H   0  0  0  0  0  0  0  0  0  0  0  0
   -2.4722   10.9260    5.4294 H   0  0  0  0  0  0  0  0  0  0  0  0
   -4.2541   11.9385    6.8479 H   0  0  0  0  0  0  0  0  0  0  0  0
   -6.1297   10.5271    7.6877 H   0  0  0  0  0  0  0  0  0  0  0  0
   -6.2319    8.1092    7.0991 H   0  0  0  0  0  0  0  0  0  0  0  0
   -1.9940    5.6110    6.5800 H   0  0  0  0  0  0  0  0  0  0  0  0
   -0.3169    5.7753    7.9413 H   0  0  0  0  0  0  0  0  0  0  0  0
   -1.0922    5.6752   10.8741 H   0  0  0  0  0  0  0  0  0  0  0  0
   -0.7713    4.2819    9.7614 H   0  0  0  0  0  0  0  0  0  0  0  0
    2.7370    4.5730    9.7750 H   0  0  0  0  0  0  0  0  0  0  0  0
    1.3760    3.8390    9.0020 H   0  0  0  0  0  0  0  0  0  0  0  0
   -0.3840    7.9280    9.9860 H   0  0  0  0  0  0  0  0  0  0  0  0
   -2.0574   10.5742    8.4397 H   0  0  0  0  0  0  0  0  0  0  0  0
   -1.4041   12.8754    9.1992 H   0  0  0  0  0  0  0  0  0  0  0  0
    0.3741   14.4584    9.8753 H   0  0  0  0  0  0  0  0  0  0  0  0
    2.7883   14.9278   10.2904 H   0  0  0  0  0  0  0  0  0  0  0  0
    4.4772   13.1260    9.9448 H   0  0  0  0  0  0  0  0  0  0  0  0
    3.7551   10.8697    9.1964 H   0  0  0  0  0  0  0  0  0  0  0  0
  1  2  1  0
  2  3  1  0
  2  4  1  0
  2  5  1  0
  5  6  1  0
  6  7  2  0
  6  8  1  0
  8  9  1  0
  9 10  1  0
 10 11  1  0
 11 12  1  0
 12 13  1  0
 13 14  1  0
 14 15  1  0
 15 16  1  0
 16 17  1  0
 17 18  1  0
 18 19  1  0
 19 20  1  0
 19 21  1  0
 21 22  1  0
 22 23  1  0
 23 24  2  0
 24 25  1  0
 25 26  2  0
 26 27  1  0
 27 28  2  0
 21 29  1  0
 29 30  1  0
 30 31  2  0
 30 32  1  0
 32 33  1  0
 33 34  1  0
 34 35  1  0
 34 36  2  0
 32 37  1  0
 37 38  1  0
 38 39  2  0
 38 40  1  0
 40 41  2  0
 41 42  1  0
 42 43  2  0
 43 44  1  0
 44 45  2  0
 45 46  1  0
 46 47  2  0
 47 48  1  0
 48 49  2  0
 17  8  1  0
 28 23  1  0
 49 40  1  0
 15 10  1  0
 48 43  1  0
  1 50  1  0
  1 51  1  0
  1 52  1  0
  3 53  1  0
  3 54  1  0
  3 55  1  0
  4 56  1  0
  4 57  1  0
  4 58  1  0
  5 59  1  0
  8 60  1  6
  9 61  1  0
  9 62  1  0
 10 63  1  6
 11 64  1  0
 11 65  1  0
 12 66  1  0
 12 67  1  0
 13 68  1  0
 13 69  1  0
 14 70  1  0
 14 71  1  0
 15 72  1  6
 16 73  1  0
 16 74  1  0
 17 75  1  6
 18 76  1  0
 18 77  1  0
 19 78  1  6
 20 79  1  0
 21 80  1  1
 22 81  1  0
 22 82  1  0
 24 83  1  0
 25 84  1  0
 26 85  1  0
 27 86  1  0
 28 87  1  0
 29 88  1  0
 32 89  1  6
 33 90  1  0
 33 91  1  0
 35 92  1  0
 35 93  1  0
 37 94  1  0
 41 95  1  0
 42 96  1  0
 44 97  1  0
 45 98  1  0
 46 99  1  0
 47100  1  0
M  CHG  1  17   1
M  END
>  <meeko>  (8) 
{"is_sidechain": [false], "free_energy": -9.868, "intermolecular_energy": -17.539, "internal_energy": -2.178}

$$$$
3pww_ligand
     RDKit          3D

100104  0  0  0  0  0  0  0  0999 V2000
   -7.8580    2.3550    0.2580 C   0  0  0  0  0  0  0  0  0  0  0  0
   -8.3940    2.8690    1.6070 C   0  0  0  0  0  0  0  0  0  0  0  0
   -9.7770    2.2430    1.8450 C   0  0  0  0  0  0  0  0  0  0  0  0
   -8.5070    4.3990    1.5340 C   0  0  0  0  0  0  0  0  0  0  0  0
   -7.4420    2.4610    2.6620 N   0  0  0  0  0  0  0  0  0  0  0  0
   -7.5890    2.7430    4.0030 C   0  0  0  0  0  0  0  0  0  0  0  0
   -8.5220    3.3970    4.4630 O   0  0  0  0  0  0  0  0  0  0  0  0
   -6.4580    2.2130    4.9230 C   0  0  2  0  0  0  0  0  0  0  0  0
   -6.6950    0.7940    5.4580 C   0  0  0  0  0  0  0  0  0  0  0  0
   -7.6750    0.6930    6.6390 C   0  0  2  0  0  0  0  0  0  0  0  0
   -9.1440    0.8040    6.1970 C   0  0  0  0  0  0  0  0  0  0  0  0
  -10.0970    0.7000    7.3860 C   0  0  0  0  0  0  0  0  0  0  0  0
   -9.7750    1.7420    8.4500 C   0  0  0  0  0  0  0  0  0  0  0  0
   -8.3210    1.6470    8.9030 C   0  0  0  0  0  0  0  0  0  0  0  0
   -7.3160    1.7060    7.7420 C   0  0  2  0  0  0  0  0  0  0  0  0
   -7.1800    3.1260    7.1860 C   0  0  0  0  0  0  0  0  0  0  0  0
   -6.1340    3.1320    6.1040 N   0  0  2  0  0  0  0  0  0  0  0  0
   -5.7360    4.5500    5.6770 C   0  0  0  0  0  0  0  0  0  0  0  0
   -4.1980    4.5910    5.5980 C   0  0  1  0  0  0  0  0  0  0  0  0
   -3.8790    4.6780    4.1920 O   0  0  0  0  0  0  0  0  0  0  0  0
   -3.5890    5.7410    6.4460 C   0  0  2  0  0  0  0  0  0  0  0  0
   -2.9040    6.8280    5.5820 C   0  0  0  0  0  0  0  0  0  0  0  0
   -3.1480    8.2400    6.0640 C   0  0  0  0  0  0  0  0  0  0  0  0
   -4.3260    8.9250    5.7360 C   0  0  0  0  0  0  0  0  0  0  0  0
   -4.5380   10.2260    6.1940 C   0  0  0  0  0  0  0  0  0  0  0  0
   -3.5740   10.8580    6.9760 C   0  0  0  0  0  0  0  0  0  0  0  0
   -2.3940   10.1920    7.2990 C   0  0  0  0  0  0  0  0  0  0  0  0
   -2.1810    8.8910    6.8440 C   0  0  0  0  0  0  0  0  0  0  0  0
   -2.6960    5.2220    7.4880 N   0  0  0  0  0  0  0  0  0  0  0  0
   -2.7850    5.5380    8.8240 C   0  0  0  0  0  0  0  0  0  0  0  0
   -3.5450    6.4250    9.2210 O   0  0  0  0  0  0  0  0  0  0  0  0
   -1.8620    4.7310    9.7660 C   0  0  2  0  0  0  0  0  0  0  0  0
   -0.4730    4.5230    9.1550 C   0  0  0  0  0  0  0  0  0  0  0  0
    0.5920    5.2480    9.9420 C   0  0  0  0  0  0  0  0  0  0  0  0
    1.8720    4.9040    9.6290 N   0  0  0  0  0  0  0  0  0  0  0  0
    0.3520    6.1300   10.7630 O   0  0  0  0  0  0  0  0  0  0  0  0
   -2.5190    3.4510   10.0060 N   0  0  0  0  0  0  0  0  0  0  0  0
   -2.0030    2.4910   10.8480 C   0  0  0  0  0  0  0  0  0  0  0  0
   -0.9340    2.6180   11.4320 O   0  0  0  0  0  0  0  0  0  0  0  0
   -2.8560    1.2680   10.9950 C   0  0  0  0  0  0  0  0  0  0  0  0
   -2.2840    0.0120   10.8790 C   0  0  0  0  0  0  0  0  0  0  0  0
   -3.1150   -1.0930   11.0180 C   0  0  0  0  0  0  0  0  0  0  0  0
   -4.4820   -0.9080   11.2660 C   0  0  0  0  0  0  0  0  0  0  0  0
   -5.3550   -2.0000   11.4110 C   0  0  0  0  0  0  0  0  0  0  0  0
   -6.7110   -1.7890   11.6550 C   0  0  0  0  0  0  0  0  0  0  0  0
   -7.1980   -0.4910   11.7550 C   0  0  0  0  0  0  0  0  0  0  0  0
   -6.3270    0.5940   11.6120 C   0  0  0  0  0  0  0  0  0  0  0  0
   -4.9720    0.4140   11.3680 C   0  0  0  0  0  0  0  0  0  0  0  0
   -4.1780    1.4910   11.2380 N   0  0  0  0  0  0  0  0  0  0  0  0
   -7.0746    1.6038    0.4369 H   0  0  0  0  0  0  0  0  0  0  0  0
   -8.6799    1.8988   -0.3133 H   0  0  0  0  0  0  0  0  0  0  0  0
   -7.4366    3.1953   -0.3133 H   0  0  0  0  0  0  0  0  0  0  0  0
   -9.9607    2.1599    2.9264 H   0  0  0  0  0  0  0  0  0  0  0  0
  -10.5505    2.8787    1.3895 H   0  0  0  0  0  0  0  0  0  0  0  0
   -9.8098    1.2423    1.3895 H   0  0  0  0  0  0  0  0  0  0  0  0
   -8.5376    4.8134    2.5525 H   0  0  0  0  0  0  0  0  0  0  0  0
   -7.6365    4.8058    0.9986 H   0  0  0  0  0  0  0  0  0  0  0  0
   -9.4279    4.6735    0.9986 H   0  0  0  0  0  0  0  0  0  0  0  0
   -6.5910    2.0150    2.3370 H   0  0  0  0  0  0  0  0  0  0  0  0
   -5.5926    2.1906    4.2444 H   0  0  0  0  0  0  0  0  0  0  0  0
   -7.0909    0.1818    4.6343 H   0  0  0  0  0  0  0  0  0  0  0  0
   -5.7233    0.4455    5.8379 H   0  0  0  0  0  0  0  0  0  0  0  0
   -7.5677   -0.3141    7.0682 H   0  0  0  0  0  0  0  0  0  0  0  0
   -9.2956    1.7743    5.7015 H   0  0  0  0  0  0  0  0  0  0  0  0
   -9.3603   -0.0261    5.5084 H   0  0  0  0  0  0  0  0  0  0  0  0
  -11.1273    0.8553    7.0334 H   0  0  0  0  0  0  0  0  0  0  0  0
   -9.9837   -0.2983    7.8339 H   0  0  0  0  0  0  0  0  0  0  0  0
   -9.9554    2.7445    8.0348 H   0  0  0  0  0  0  0  0  0  0  0  0
  -10.4209    1.5572    9.3210 H   0  0  0  0  0  0  0  0  0  0  0  0
   -8.1134    2.4831    9.5870 H   0  0  0  0  0  0  0  0  0  0  0  0
   -8.1960    0.6696    9.3919 H   0  0  0  0  0  0  0  0  0  0  0  0
   -6.3316    1.4208    8.1414 H   0  0  0  0  0  0  0  0  0  0  0  0
   -8.1440    3.4522    6.7685 H   0  0  0  0  0  0  0  0  0  0  0  0
   -6.8838    3.8133    7.9922 H   0  0  0  0  0  0  0  0  0  0  0  0
   -5.2480    2.7820    6.5220 H   0  0  0  0  0  0  0  0  0  0  0  0
   -6.1696    4.7823    4.6931 H   0  0  0  0  0  0  0  0  0  0  0  0
   -6.1084    5.2924    6.3982 H   0  0  0  0  0  0  0  0  0  0  0  0
   -3.7484    3.6881    6.0369 H   0  0  0  0  0  0  0  0  0  0  0  0
   -4.3020    3.8860    3.7700 H   0  0  0  0  0  0  0  0  0  0  0  0
   -4.4299    6.2413    6.9485 H   0  0  0  0  0  0  0  0  0  0  0  0
   -1.8197    6.6427    5.5885 H   0  0  0  0  0  0  0  0  0  0  0  0
   -3.3398    6.7556    4.5746 H   0  0  0  0  0  0  0  0  0  0  0  0
   -5.0884    8.4338    5.1135 H   0  0  0  0  0  0  0  0  0  0  0  0
   -5.4684   10.7536    5.9369 H   0  0  0  0  0  0  0  0  0  0  0  0
   -3.7445   11.8825    7.3383 H   0  0  0  0  0  0  0  0  0  0  0  0
   -1.6303   10.6921    7.9128 H   0  0  0  0  0  0  0  0  0  0  0  0
   -1.2461    8.3706    7.0992 H   0  0  0  0  0  0  0  0  0  0  0  0
   -2.1800    4.3640    7.2610 H   0  0  0  0  0  0  0  0  0  0  0  0
   -1.7053    5.2790   10.7068 H   0  0  0  0  0  0  0  0  0  0  0  0
   -0.2427    3.4474    9.1487 H   0  0  0  0  0  0  0  0  0  0  0  0
   -0.4818    4.9277    8.1322 H   0  0  0  0  0  0  0  0  0  0  0  0
    2.6150    5.3240   10.1740 H   0  0  0  0  0  0  0  0  0  0  0  0
    2.0910    4.0580    9.1200 H   0  0  0  0  0  0  0  0  0  0  0  0
   -3.4280    3.2570    9.5820 H   0  0  0  0  0  0  0  0  0  0  0  0
   -1.2081   -0.1068   10.6834 H   0  0  0  0  0  0  0  0  0  0  0  0
   -2.7016   -2.1089   10.9337 H   0  0  0  0  0  0  0  0  0  0  0  0
   -4.9662   -3.0259   11.3315 H   0  0  0  0  0  0  0  0  0  0  0  0
   -7.3922   -2.6453   11.7678 H   0  0  0  0  0  0  0  0  0  0  0  0
   -8.2672   -0.3173   11.9464 H   0  0  0  0  0  0  0  0  0  0  0  0
   -6.7256    1.6159   11.6949 H   0  0  0  0  0  0  0  0  0  0  0  0
  1  2  1  0
  2  3  1  0
  2  4  1  0
  2  5  1  0
  5  6  1  0
  6  7  2  0
  6  8  1  0
  8  9  1  0
  9 10  1  0
 10 11  1  0
 11 12  1  0
 12 13  1  0
 13 14  1  0
 14 15  1  0
 15 16  1  0
 16 17  1  0
 17 18  1  0
 18 19  1  0
 19 20  1  0
 19 21  1  0
 21 22  1  0
 22 23  1  0
 23 24  2  0
 24 25  1  0
 25 26  2  0
 26 27  1  0
 27 28  2  0
 21 29  1  0
 29 30  1  0
 30 31  2  0
 30 32  1  0
 32 33  1  0
 33 34  1  0
 34 35  1  0
 34 36  2  0
 32 37  1  0
 37 38  1  0
 38 39  2  0
 38 40  1  0
 40 41  2  0
 41 42  1  0
 42 43  2  0
 43 44  1  0
 44 45  2  0
 45 46  1  0
 46 47  2  0
 47 48  1  0
 48 49  2  0
 17  8  1  0
 28 23  1  0
 49 40  1  0
 15 10  1  0
 48 43  1  0
  1 50  1  0
  1 51  1  0
  1 52  1  0
  3 53  1  0
  3 54  1  0
  3 55  1  0
  4 56  1  0
  4 57  1  0
  4 58  1  0
  5 59  1  0
  8 60  1  6
  9 61  1  0
  9 62  1  0
 10 63  1  1
 11 64  1  0
 11 65  1  0
 12 66  1  0
 12 67  1  0
 13 68  1  0
 13 69  1  0
 14 70  1  0
 14 71  1  0
 15 72  1  1
 16 73  1  0
 16 74  1  0
 17 75  1  1
 18 76  1  0
 18 77  1  0
 19 78  1  1
 20 79  1  0
 21 80  1  1
 22 81  1  0
 22 82  1  0
 24 83  1  0
 25 84  1  0
 26 85  1  0
 27 86  1  0
 28 87  1  0
 29 88  1  0
 32 89  1  1
 33 90  1  0
 33 91  1  0
 35 92  1  0
 35 93  1  0
 37 94  1  0
 41 95  1  0
 42 96  1  0
 44 97  1  0
 45 98  1  0
 46 99  1  0
 47100  1  0
M  CHG  1  17   1
M  END
>  <meeko>  (9) 
{"is_sidechain": [false], "free_energy": -9.838, "intermolecular_energy": -17.875, "internal_energy": -1.789}

$$$$
