3wz8_ligand
     RDKit          3D

 58 61  0  0  0  0  0  0  0  0999 V2000
   22.7990    3.0440   55.5110 O   0  0  0  0  0  0  0  0  0  0  0  0
   22.6670    2.9210   56.7240 C   0  0  0  0  0  0  0  0  0  0  0  0
   22.1970    1.6010   57.3030 C   0  0  0  0  0  0  0  0  0  0  0  0
   22.3850    1.5990   58.8140 C   0  0  0  0  0  0  0  0  0  0  0  0
   21.1030    1.3990   59.4860 N   0  0  0  0  0  0  0  0  0  0  0  0
   20.8340    0.1720   60.1050 C   0  0  0  0  0  0  0  0  0  0  0  0
   21.2810   -1.0610   59.6140 C   0  0  0  0  0  0  0  0  0  0  0  0
   21.0430   -2.2490   60.3140 C   0  0  0  0  0  0  0  0  0  0  0  0
   20.3760   -2.2210   61.5340 C   0  0  0  0  0  0  0  0  0  0  0  0
   19.9600   -1.0030   62.0610 C   0  0  0  0  0  0  0  0  0  0  0  0
   20.2010    0.1800   61.3570 C   0  0  0  0  0  0  0  0  0  0  0  0
   22.9400    3.8570   57.7040 N   0  0  0  0  0  0  0  0  0  0  0  0
   23.4420    5.1420   57.5420 C   0  0  0  0  0  0  0  0  0  0  0  0
   22.9920    6.1020   56.2200 S   0  0  0  0  0  0  0  0  0  0  0  0
   24.0010    7.3780   56.7150 C   0  0  0  0  0  0  0  0  0  0  0  0
   24.6720    7.0920   57.8870 C   0  0  0  0  0  0  0  0  0  0  0  0
   25.6140    8.0710   58.4080 C   0  0  0  0  0  0  0  0  0  0  0  0
   25.2660    9.4270   58.4510 C   0  0  0  0  0  0  0  0  0  0  0  0
   26.1590   10.3600   58.9820 C   0  0  0  0  0  0  0  0  0  0  0  0
   27.3980    9.9420   59.4690 C   0  0  0  0  0  0  0  0  0  0  0  0
   27.7480    8.5920   59.4220 C   0  0  0  0  0  0  0  0  0  0  0  0
   26.8600    7.6570   58.8940 C   0  0  0  0  0  0  0  0  0  0  0  0
   24.3340    5.7780   58.4030 C   0  0  0  0  0  0  0  0  0  0  0  0
   24.8070    5.1030   59.6250 C   0  0  0  0  0  0  0  0  0  0  0  0
   24.4430    5.4780   60.7410 O   0  0  0  0  0  0  0  0  0  0  0  0
   25.6980    4.0720   59.4590 N   0  0  0  0  0  0  0  0  0  0  0  0
   26.3530    3.4300   60.5740 C   0  0  0  0  0  0  0  0  0  0  0  0
   25.5790    2.2120   61.0080 C   0  0  0  0  0  0  0  0  0  0  0  0
   25.9900    0.9330   60.6070 C   0  0  0  0  0  0  0  0  0  0  0  0
   25.2590   -0.1950   60.9820 C   0  0  0  0  0  0  0  0  0  0  0  0
   24.1080   -0.0550   61.7560 C   0  0  0  0  0  0  0  0  0  0  0  0
   23.6840    1.2120   62.1510 C   0  0  0  0  0  0  0  0  0  0  0  0
   24.4120    2.3420   61.7760 C   0  0  0  0  0  0  0  0  0  0  0  0
   21.1318    1.4589   57.0682 H   0  0  0  0  0  0  0  0  0  0  0  0
   22.7879    0.7834   56.8644 H   0  0  0  0  0  0  0  0  0  0  0  0
   23.0713    0.7858   59.0929 H   0  0  0  0  0  0  0  0  0  0  0  0
   22.8027    2.5685   59.1231 H   0  0  0  0  0  0  0  0  0  0  0  0
   20.3070    1.7080   58.9210 H   0  0  0  0  0  0  0  0  0  0  0  0
   21.8291   -1.0962   58.6609 H   0  0  0  0  0  0  0  0  0  0  0  0
   21.3846   -3.2083   59.8979 H   0  0  0  0  0  0  0  0  0  0  0  0
   20.1787   -3.1561   62.0786 H   0  0  0  0  0  0  0  0  0  0  0  0
   19.4419   -0.9708   63.0308 H   0  0  0  0  0  0  0  0  0  0  0  0
   19.8872    1.1392   61.7945 H   0  0  0  0  0  0  0  0  0  0  0  0
   22.7910    3.5940   58.6790 H   0  0  0  0  0  0  0  0  0  0  0  0
   24.1070    8.3240   56.1638 H   0  0  0  0  0  0  0  0  0  0  0  0
   24.2896    9.7569   58.0666 H   0  0  0  0  0  0  0  0  0  0  0  0
   25.8856   11.4249   59.0164 H   0  0  0  0  0  0  0  0  0  0  0  0
   28.0994   10.6772   59.8903 H   0  0  0  0  0  0  0  0  0  0  0  0
   28.7270    8.2652   59.8026 H   0  0  0  0  0  0  0  0  0  0  0  0
   27.1380    6.5933   58.8590 H   0  0  0  0  0  0  0  0  0  0  0  0
   26.1170    3.9260   58.5530 H   0  0  0  0  0  0  0  0  0  0  0  0
   27.3668    3.1270   60.2732 H   0  0  0  0  0  0  0  0  0  0  0  0
   26.4037    4.1384   61.4140 H   0  0  0  0  0  0  0  0  0  0  0  0
   26.8950    0.8178   59.9925 H   0  0  0  0  0  0  0  0  0  0  0  0
   25.5911   -1.1951   60.6667 H   0  0  0  0  0  0  0  0  0  0  0  0
   23.5346   -0.9449   62.0549 H   0  0  0  0  0  0  0  0  0  0  0  0
   22.7741    1.3218   62.7593 H   0  0  0  0  0  0  0  0  0  0  0  0
   24.0689    3.3406   62.0844 H   0  0  0  0  0  0  0  0  0  0  0  0
  1  2  2  0
  2  3  1  0
  3  4  1  0
  4  5  1  0
  5  6  1  0
  6  7  2  0
  7  8  1  0
  8  9  2  0
  9 10  1  0
 10 11  2  0
  2 12  1  0
 12 13  1  0
 13 14  1  0
 14 15  1  0
 15 16  2  0
 16 17  1  0
 17 18  2  0
 18 19  1  0
 19 20  2  0
 20 21  1  0
 21 22  2  0
 16 23  1  0
 23 24  1  0
 24 25  2  0
 24 26  1  0
 26 27  1  0
 27 28  1  0
 28 29  2  0
 29 30  1  0
 30 31  2  0
 31 32  1  0
 32 33  2  0
 11  6  1  0
 23 13  2  0
 33 28  1  0
 22 17  1  0
  3 34  1  0
  3 35  1  0
  4 36  1  0
  4 37  1  0
  5 38  1  0
  7 39  1  0
  8 40  1  0
  9 41  1  0
 10 42  1  0
 11 43  1  0
 12 44  1  0
 15 45  1  0
 18 46  1  0
 19 47  1  0
 20 48  1  0
 21 49  1  0
 22 50  1  0
 26 51  1  0
 27 52  1  0
 27 53  1  0
 29 54  1  0
 30 55  1  0
 31 56  1  0
 32 57  1  0
 33 58  1  0
M  END
>  <meeko>  (1) 
{"is_sidechain": [false], "free_energy": -9.783, "intermolecular_energy": -14.931, "internal_energy": -1.802}

$$$$
3wz8_ligand
     RDKit          3D

 58 61  0  0  0  0  0  0  0  0999 V2000
   18.5960    1.4600   56.3170 O   0  0  0  0  0  0  0  0  0  0  0  0
   19.2990    0.7920   55.5660 C   0  0  0  0  0  0  0  0  0  0  0  0
   19.0760    0.8560   54.0680 C   0  0  0  0  0  0  0  0  0  0  0  0
   19.2070    2.2930   53.5820 C   0  0  0  0  0  0  0  0  0  0  0  0
   19.1010    2.3510   52.1260 N   0  0  0  0  0  0  0  0  0  0  0  0
   17.8410    2.2570   51.5230 C   0  0  0  0  0  0  0  0  0  0  0  0
   17.5290    1.3380   50.5130 C   0  0  0  0  0  0  0  0  0  0  0  0
   16.2320    1.2410   49.9970 C   0  0  0  0  0  0  0  0  0  0  0  0
   15.2150    2.0440   50.5040 C   0  0  0  0  0  0  0  0  0  0  0  0
   15.4930    2.9340   51.5360 C   0  0  0  0  0  0  0  0  0  0  0  0
   16.7910    3.0260   52.0470 C   0  0  0  0  0  0  0  0  0  0  0  0
   20.3570   -0.0310   55.9050 N   0  0  0  0  0  0  0  0  0  0  0  0
   20.8770   -0.2760   57.1690 C   0  0  0  0  0  0  0  0  0  0  0  0
   20.3660   -1.6030   58.0900 S   0  0  0  0  0  0  0  0  0  0  0  0
   21.3670   -1.1730   59.3940 C   0  0  0  0  0  0  0  0  0  0  0  0
   22.1030   -0.0330   59.1380 C   0  0  0  0  0  0  0  0  0  0  0  0
   22.9680    0.4880   60.1850 C   0  0  0  0  0  0  0  0  0  0  0  0
   22.4470    1.3310   61.1740 C   0  0  0  0  0  0  0  0  0  0  0  0
   23.2730    1.8010   62.1960 C   0  0  0  0  0  0  0  0  0  0  0  0
   24.6180    1.4330   62.2320 C   0  0  0  0  0  0  0  0  0  0  0  0
   25.1410    0.5970   61.2460 C   0  0  0  0  0  0  0  0  0  0  0  0
   24.3190    0.1240   60.2230 C   0  0  0  0  0  0  0  0  0  0  0  0
   21.8400    0.4990   57.8140 C   0  0  0  0  0  0  0  0  0  0  0  0
   22.4240    1.6770   57.1460 C   0  0  0  0  0  0  0  0  0  0  0  0
   23.1850    1.5510   56.1850 O   0  0  0  0  0  0  0  0  0  0  0  0
   22.1130    2.9060   57.6730 N   0  0  0  0  0  0  0  0  0  0  0  0
   22.7370    4.1230   57.2110 C   0  0  0  0  0  0  0  0  0  0  0  0
   23.7230    4.6290   58.2320 C   0  0  0  0  0  0  0  0  0  0  0  0
   24.2720    3.7530   59.1800 C   0  0  0  0  0  0  0  0  0  0  0  0
   25.1620    4.2230   60.1460 C   0  0  0  0  0  0  0  0  0  0  0  0
   25.5080    5.5730   60.1770 C   0  0  0  0  0  0  0  0  0  0  0  0
   24.9610    6.4540   59.2480 C   0  0  0  0  0  0  0  0  0  0  0  0
   24.0690    5.9870   58.2810 C   0  0  0  0  0  0  0  0  0  0  0  0
   19.8256    0.2305   53.5612 H   0  0  0  0  0  0  0  0  0  0  0  0
   18.0652    0.4881   53.8378 H   0  0  0  0  0  0  0  0  0  0  0  0
   18.4059    2.9007   54.0280 H   0  0  0  0  0  0  0  0  0  0  0  0
   20.1904    2.6829   53.8835 H   0  0  0  0  0  0  0  0  0  0  0  0
   19.7800    1.7460   51.6560 H   0  0  0  0  0  0  0  0  0  0  0  0
   18.3178    0.6807   50.1184 H   0  0  0  0  0  0  0  0  0  0  0  0
   16.0157    0.5277   49.1880 H   0  0  0  0  0  0  0  0  0  0  0  0
   14.1977    1.9753   50.0913 H   0  0  0  0  0  0  0  0  0  0  0  0
   14.6924    3.5648   51.9497 H   0  0  0  0  0  0  0  0  0  0  0  0
   16.9937    3.7169   52.8786 H   0  0  0  0  0  0  0  0  0  0  0  0
   20.8560   -0.5110   55.1550 H   0  0  0  0  0  0  0  0  0  0  0  0
   21.4225   -1.7388   60.3357 H   0  0  0  0  0  0  0  0  0  0  0  0
   21.3868    1.6228   61.1455 H   0  0  0  0  0  0  0  0  0  0  0  0
   22.8631    2.4621   62.9737 H   0  0  0  0  0  0  0  0  0  0  0  0
   25.2671    1.8028   63.0394 H   0  0  0  0  0  0  0  0  0  0  0  0
   26.2026    0.3103   61.2749 H   0  0  0  0  0  0  0  0  0  0  0  0
   24.7327   -0.5354   59.4458 H   0  0  0  0  0  0  0  0  0  0  0  0
   21.6520    2.9540   58.5680 H   0  0  0  0  0  0  0  0  0  0  0  0
   23.2639    3.9239   56.2661 H   0  0  0  0  0  0  0  0  0  0  0  0
   21.9597    4.8861   57.0573 H   0  0  0  0  0  0  0  0  0  0  0  0
   23.9988    2.6876   59.1616 H   0  0  0  0  0  0  0  0  0  0  0  0
   25.5908    3.5283   60.8833 H   0  0  0  0  0  0  0  0  0  0  0  0
   26.2135    5.9424   60.9358 H   0  0  0  0  0  0  0  0  0  0  0  0
   25.2321    7.5197   59.2760 H   0  0  0  0  0  0  0  0  0  0  0  0
   23.6350    6.6884   57.5532 H   0  0  0  0  0  0  0  0  0  0  0  0
  1  2  2  0
  2  3  1  0
  3  4  1  0
  4  5  1  0
  5  6  1  0
  6  7  2  0
  7  8  1  0
  8  9  2  0
  9 10  1  0
 10 11  2  0
  2 12  1  0
 12 13  1  0
 13 14  1  0
 14 15  1  0
 15 16  2  0
 16 17  1  0
 17 18  2  0
 18 19  1  0
 19 20  2  0
 20 21  1  0
 21 22  2  0
 16 23  1  0
 23 24  1  0
 24 25  2  0
 24 26  1  0
 26 27  1  0
 27 28  1  0
 28 29  2  0
 29 30  1  0
 30 31  2  0
 31 32  1  0
 32 33  2  0
 11  6  1  0
 23 13  2  0
 33 28  1  0
 22 17  1  0
  3 34  1  0
  3 35  1  0
  4 36  1  0
  4 37  1  0
  5 38  1  0
  7 39  1  0
  8 40  1  0
  9 41  1  0
 10 42  1  0
 11 43  1  0
 12 44  1  0
 15 45  1  0
 18 46  1  0
 19 47  1  0
 20 48  1  0
 21 49  1  0
 22 50  1  0
 26 51  1  0
 27 52  1  0
 27 53  1  0
 29 54  1  0
 30 55  1  0
 31 56  1  0
 32 57  1  0
 33 58  1  0
M  END
>  <meeko>  (2) 
{"is_sidechain": [false], "free_energy": -9.615, "intermolecular_energy": -14.053, "internal_energy": -2.424}

$$$$
3wz8_ligand
     RDKit          3D

 58 61  0  0  0  0  0  0  0  0999 V2000
   23.1700    3.3390   55.7810 O   0  0  0  0  0  0  0  0  0  0  0  0
   22.6710    3.4280   56.8990 C   0  0  0  0  0  0  0  0  0  0  0  0
   21.8570    2.2780   57.4560 C   0  0  0  0  0  0  0  0  0  0  0  0
   22.7730    1.1130   57.8080 C   0  0  0  0  0  0  0  0  0  0  0  0
   22.4780   -0.0410   56.9610 N   0  0  0  0  0  0  0  0  0  0  0  0
   21.5350   -0.9840   57.3870 C   0  0  0  0  0  0  0  0  0  0  0  0
   21.4720   -1.4840   58.6930 C   0  0  0  0  0  0  0  0  0  0  0  0
   20.4620   -2.3720   59.0810 C   0  0  0  0  0  0  0  0  0  0  0  0
   19.4800   -2.7550   58.1730 C   0  0  0  0  0  0  0  0  0  0  0  0
   19.4990   -2.2380   56.8820 C   0  0  0  0  0  0  0  0  0  0  0  0
   20.5110   -1.3510   56.5020 C   0  0  0  0  0  0  0  0  0  0  0  0
   22.7860    4.4740   57.7950 N   0  0  0  0  0  0  0  0  0  0  0  0
   23.5030    5.6540   57.6440 C   0  0  0  0  0  0  0  0  0  0  0  0
   23.2330    6.6870   56.3280 S   0  0  0  0  0  0  0  0  0  0  0  0
   24.4440    7.7650   56.8360 C   0  0  0  0  0  0  0  0  0  0  0  0
   25.0520    7.3590   58.0080 C   0  0  0  0  0  0  0  0  0  0  0  0
   26.1460    8.1570   58.5390 C   0  0  0  0  0  0  0  0  0  0  0  0
   25.9680    9.5250   58.7770 C   0  0  0  0  0  0  0  0  0  0  0  0
   27.0100   10.2800   59.3180 C   0  0  0  0  0  0  0  0  0  0  0  0
   28.2290    9.6730   59.6190 C   0  0  0  0  0  0  0  0  0  0  0  0
   28.4110    8.3110   59.3790 C   0  0  0  0  0  0  0  0  0  0  0  0
   27.3730    7.5520   58.8400 C   0  0  0  0  0  0  0  0  0  0  0  0
   24.4890    6.1200   58.5120 C   0  0  0  0  0  0  0  0  0  0  0  0
   24.8320    5.3640   59.7310 C   0  0  0  0  0  0  0  0  0  0  0  0
   24.5310    5.7880   60.8490 O   0  0  0  0  0  0  0  0  0  0  0  0
   25.5360    4.1980   59.5600 N   0  0  0  0  0  0  0  0  0  0  0  0
   26.0650    3.4450   60.6730 C   0  0  0  0  0  0  0  0  0  0  0  0
   25.1600    2.2870   61.0010 C   0  0  0  0  0  0  0  0  0  0  0  0
   25.5990    0.9690   60.8100 C   0  0  0  0  0  0  0  0  0  0  0  0
   24.7540   -0.1070   61.0850 C   0  0  0  0  0  0  0  0  0  0  0  0
   23.4600    0.1250   61.5480 C   0  0  0  0  0  0  0  0  0  0  0  0
   23.0080    1.4290   61.7320 C   0  0  0  0  0  0  0  0  0  0  0  0
   23.8510    2.5070   61.4560 C   0  0  0  0  0  0  0  0  0  0  0  0
   21.3276    2.6112   58.3608 H   0  0  0  0  0  0  0  0  0  0  0  0
   21.1306    1.9496   56.6980 H   0  0  0  0  0  0  0  0  0  0  0  0
   23.8195    1.4160   57.6561 H   0  0  0  0  0  0  0  0  0  0  0  0
   22.6088    0.8351   58.8596 H   0  0  0  0  0  0  0  0  0  0  0  0
   23.3230   -0.4980   56.6070 H   0  0  0  0  0  0  0  0  0  0  0  0
   22.2298   -1.1735   59.4274 H   0  0  0  0  0  0  0  0  0  0  0  0
   20.4447   -2.7682   60.1070 H   0  0  0  0  0  0  0  0  0  0  0  0
   18.6933   -3.4624   58.4743 H   0  0  0  0  0  0  0  0  0  0  0  0
   18.7195   -2.5263   56.1613 H   0  0  0  0  0  0  0  0  0  0  0  0
   20.5037   -0.9314   55.4852 H   0  0  0  0  0  0  0  0  0  0  0  0
   22.3200    4.3890   58.7000 H   0  0  0  0  0  0  0  0  0  0  0  0
   24.7135    8.6828   56.2928 H   0  0  0  0  0  0  0  0  0  0  0  0
   25.0075   10.0047   58.5378 H   0  0  0  0  0  0  0  0  0  0  0  0
   26.8696   11.3545   59.5071 H   0  0  0  0  0  0  0  0  0  0  0  0
   29.0485   10.2694   60.0465 H   0  0  0  0  0  0  0  0  0  0  0  0
   29.3743    7.8353   59.6152 H   0  0  0  0  0  0  0  0  0  0  0  0
   27.5176    6.4780   58.6511 H   0  0  0  0  0  0  0  0  0  0  0  0
   25.9290    3.9900   58.6550 H   0  0  0  0  0  0  0  0  0  0  0  0
   27.0624    3.0625   60.4104 H   0  0  0  0  0  0  0  0  0  0  0  0
   26.1322    4.1050   61.5505 H   0  0  0  0  0  0  0  0  0  0  0  0
   26.6179    0.7817   60.4403 H   0  0  0  0  0  0  0  0  0  0  0  0
   25.1089   -1.1375   60.9365 H   0  0  0  0  0  0  0  0  0  0  0  0
   22.7951   -0.7231   61.7683 H   0  0  0  0  0  0  0  0  0  0  0  0
   21.9856    1.6100   62.0952 H   0  0  0  0  0  0  0  0  0  0  0  0
   23.4867    3.5354   61.5961 H   0  0  0  0  0  0  0  0  0  0  0  0
  1  2  2  0
  2  3  1  0
  3  4  1  0
  4  5  1  0
  5  6  1  0
  6  7  2  0
  7  8  1  0
  8  9  2  0
  9 10  1  0
 10 11  2  0
  2 12  1  0
 12 13  1  0
 13 14  1  0
 14 15  1  0
 15 16  2  0
 16 17  1  0
 17 18  2  0
 18 19  1  0
 19 20  2  0
 20 21  1  0
 21 22  2  0
 16 23  1  0
 23 24  1  0
 24 25  2  0
 24 26  1  0
 26 27  1  0
 27 28  1  0
 28 29  2  0
 29 30  1  0
 30 31  2  0
 31 32  1  0
 32 33  2  0
 11  6  1  0
 23 13  2  0
 33 28  1  0
 22 17  1  0
  3 34  1  0
  3 35  1  0
  4 36  1  0
  4 37  1  0
  5 38  1  0
  7 39  1  0
  8 40  1  0
  9 41  1  0
 10 42  1  0
 11 43  1  0
 12 44  1  0
 15 45  1  0
 18 46  1  0
 19 47  1  0
 20 48  1  0
 21 49  1  0
 22 50  1  0
 26 51  1  0
 27 52  1  0
 27 53  1  0
 29 54  1  0
 30 55  1  0
 31 56  1  0
 32 57  1  0
 33 58  1  0
M  END
>  <meeko>  (3) 
{"is_sidechain": [false], "free_energy": -9.468, "intermolecular_energy": -14.55, "internal_energy": -1.702}

$$$$
3wz8_ligand
     RDKit          3D

 58 61  0  0  0  0  0  0  0  0999 V2000
   24.3760    5.7320   60.4030 O   0  0  0  0  0  0  0  0  0  0  0  0
   24.8980    4.7790   59.8340 C   0  0  0  0  0  0  0  0  0  0  0  0
   25.9300    3.9390   60.5600 C   0  0  0  0  0  0  0  0  0  0  0  0
   27.2050    4.7450   60.7690 C   0  0  0  0  0  0  0  0  0  0  0  0
   27.5470    5.4820   59.5540 N   0  0  0  0  0  0  0  0  0  0  0  0
   27.9130    6.8300   59.6470 C   0  0  0  0  0  0  0  0  0  0  0  0
   29.1900    7.2640   60.0240 C   0  0  0  0  0  0  0  0  0  0  0  0
   29.5210    8.6240   60.0300 C   0  0  0  0  0  0  0  0  0  0  0  0
   28.5860    9.5730   59.6310 C   0  0  0  0  0  0  0  0  0  0  0  0
   27.3250    9.1620   59.2130 C   0  0  0  0  0  0  0  0  0  0  0  0
   27.0010    7.8020   59.2090 C   0  0  0  0  0  0  0  0  0  0  0  0
   24.6370    4.3060   58.5620 N   0  0  0  0  0  0  0  0  0  0  0  0
   23.7130    4.7890   57.6440 C   0  0  0  0  0  0  0  0  0  0  0  0
   23.6460    6.4350   57.2450 S   0  0  0  0  0  0  0  0  0  0  0  0
   22.3320    6.1980   56.1930 C   0  0  0  0  0  0  0  0  0  0  0  0
   21.9450    4.8740   56.1260 C   0  0  0  0  0  0  0  0  0  0  0  0
   20.7970    4.5240   55.3040 C   0  0  0  0  0  0  0  0  0  0  0  0
   19.5150    4.9590   55.6640 C   0  0  0  0  0  0  0  0  0  0  0  0
   18.4210    4.6500   54.8550 C   0  0  0  0  0  0  0  0  0  0  0  0
   18.6030    3.9070   53.6880 C   0  0  0  0  0  0  0  0  0  0  0  0
   19.8780    3.4690   53.3300 C   0  0  0  0  0  0  0  0  0  0  0  0
   20.9740    3.7760   54.1340 C   0  0  0  0  0  0  0  0  0  0  0  0
   22.7690    4.0220   56.9640 C   0  0  0  0  0  0  0  0  0  0  0  0
   22.7060    2.5620   57.1630 C   0  0  0  0  0  0  0  0  0  0  0  0
   23.2050    1.7860   56.3470 O   0  0  0  0  0  0  0  0  0  0  0  0
   22.0290    2.1160   58.2720 N   0  0  0  0  0  0  0  0  0  0  0  0
   21.7630    0.7160   58.5020 C   0  0  0  0  0  0  0  0  0  0  0  0
   22.6330    0.1910   59.6140 C   0  0  0  0  0  0  0  0  0  0  0  0
   22.4420   -1.1070   60.1090 C   0  0  0  0  0  0  0  0  0  0  0  0
   23.2260   -1.5860   61.1590 C   0  0  0  0  0  0  0  0  0  0  0  0
   24.2040   -0.7720   61.7270 C   0  0  0  0  0  0  0  0  0  0  0  0
   24.3960    0.5230   61.2510 C   0  0  0  0  0  0  0  0  0  0  0  0
   23.6120    1.0060   60.2020 C   0  0  0  0  0  0  0  0  0  0  0  0
   25.5283    3.6330   61.5373 H   0  0  0  0  0  0  0  0  0  0  0  0
   26.1606    3.0492   59.9559 H   0  0  0  0  0  0  0  0  0  0  0  0
   27.0528    5.4567   61.5938 H   0  0  0  0  0  0  0  0  0  0  0  0
   28.0272    4.0556   61.0114 H   0  0  0  0  0  0  0  0  0  0  0  0
   26.8710    5.3350   58.8000 H   0  0  0  0  0  0  0  0  0  0  0  0
   29.9466    6.5227   60.3208 H   0  0  0  0  0  0  0  0  0  0  0  0
   30.5235    8.9431   60.3512 H   0  0  0  0  0  0  0  0  0  0  0  0
   28.8424   10.6426   59.6460 H   0  0  0  0  0  0  0  0  0  0  0  0
   26.5835    9.9058   58.8860 H   0  0  0  0  0  0  0  0  0  0  0  0
   26.0085    7.4869   58.8544 H   0  0  0  0  0  0  0  0  0  0  0  0
   25.1500    3.4860   58.2350 H   0  0  0  0  0  0  0  0  0  0  0  0
   21.8451    7.0075   55.6294 H   0  0  0  0  0  0  0  0  0  0  0  0
   19.3708    5.5441   56.5843 H   0  0  0  0  0  0  0  0  0  0  0  0
   17.4145    4.9923   55.1373 H   0  0  0  0  0  0  0  0  0  0  0  0
   17.7401    3.6664   53.0497 H   0  0  0  0  0  0  0  0  0  0  0  0
   20.0186    2.8803   52.4115 H   0  0  0  0  0  0  0  0  0  0  0  0
   21.9787    3.4304   53.8492 H   0  0  0  0  0  0  0  0  0  0  0  0
   21.4720    2.7690   58.8020 H   0  0  0  0  0  0  0  0  0  0  0  0
   20.7059    0.5887   58.7782 H   0  0  0  0  0  0  0  0  0  0  0  0
   21.9839    0.1554   57.5817 H   0  0  0  0  0  0  0  0  0  0  0  0
   21.6687   -1.7520   59.6664 H   0  0  0  0  0  0  0  0  0  0  0  0
   23.0720   -2.6068   61.5387 H   0  0  0  0  0  0  0  0  0  0  0  0
   24.8247   -1.1522   62.5517 H   0  0  0  0  0  0  0  0  0  0  0  0
   25.1663    1.1657   61.7023 H   0  0  0  0  0  0  0  0  0  0  0  0
   23.7626    2.0317   59.8342 H   0  0  0  0  0  0  0  0  0  0  0  0
  1  2  2  0
  2  3  1  0
  3  4  1  0
  4  5  1  0
  5  6  1  0
  6  7  2  0
  7  8  1  0
  8  9  2  0
  9 10  1  0
 10 11  2  0
  2 12  1  0
 12 13  1  0
 13 14  1  0
 14 15  1  0
 15 16  2  0
 16 17  1  0
 17 18  2  0
 18 19  1  0
 19 20  2  0
 20 21  1  0
 21 22  2  0
 16 23  1  0
 23 24  1  0
 24 25  2  0
 24 26  1  0
 26 27  1  0
 27 28  1  0
 28 29  2  0
 29 30  1  0
 30 31  2  0
 31 32  1  0
 32 33  2  0
 11  6  1  0
 23 13  2  0
 33 28  1  0
 22 17  1  0
  3 34  1  0
  3 35  1  0
  4 36  1  0
  4 37  1  0
  5 38  1  0
  7 39  1  0
  8 40  1  0
  9 41  1  0
 10 42  1  0
 11 43  1  0
 12 44  1  0
 15 45  1  0
 18 46  1  0
 19 47  1  0
 20 48  1  0
 21 49  1  0
 22 50  1  0
 26 51  1  0
 27 52  1  0
 27 53  1  0
 29 54  1  0
 30 55  1  0
 31 56  1  0
 32 57  1  0
 33 58  1  0
M  END
>  <meeko>  (4) 
{"is_sidechain": [false], "free_energy": -9.378, "intermolecular_energy": -14.396, "internal_energy": -1.718}

$$$$
3wz8_ligand
     RDKit          3D

 58 61  0  0  0  0  0  0  0  0999 V2000
   24.2620    5.3110   61.2730 O   0  0  0  0  0  0  0  0  0  0  0  0
   24.7590    4.7750   60.2880 C   0  0  0  0  0  0  0  0  0  0  0  0
   24.5910    3.2840   60.0730 C   0  0  0  0  0  0  0  0  0  0  0  0
   24.2530    2.6030   61.3930 C   0  0  0  0  0  0  0  0  0  0  0  0
   22.8140    2.3700   61.4910 N   0  0  0  0  0  0  0  0  0  0  0  0
   22.3190    1.0650   61.3770 C   0  0  0  0  0  0  0  0  0  0  0  0
   23.1040   -0.0350   61.0100 C   0  0  0  0  0  0  0  0  0  0  0  0
   22.5710   -1.3290   60.9830 C   0  0  0  0  0  0  0  0  0  0  0  0
   21.2470   -1.5480   61.3500 C   0  0  0  0  0  0  0  0  0  0  0  0
   20.4610   -0.4760   61.7580 C   0  0  0  0  0  0  0  0  0  0  0  0
   21.0000    0.8140   61.7840 C   0  0  0  0  0  0  0  0  0  0  0  0
   25.4600    5.3780   59.2600 N   0  0  0  0  0  0  0  0  0  0  0  0
   25.7460    6.7280   59.0980 C   0  0  0  0  0  0  0  0  0  0  0  0
   24.7880    7.7200   58.1130 S   0  0  0  0  0  0  0  0  0  0  0  0
   25.7680    9.0770   58.4060 C   0  0  0  0  0  0  0  0  0  0  0  0
   26.8170    8.7930   59.2590 C   0  0  0  0  0  0  0  0  0  0  0  0
   27.7730    9.8470   59.5620 C   0  0  0  0  0  0  0  0  0  0  0  0
   27.3850   10.9480   60.3360 C   0  0  0  0  0  0  0  0  0  0  0  0
   28.3140   11.9400   60.6530 C   0  0  0  0  0  0  0  0  0  0  0  0
   29.6290   11.8360   60.1990 C   0  0  0  0  0  0  0  0  0  0  0  0
   30.0170   10.7420   59.4240 C   0  0  0  0  0  0  0  0  0  0  0  0
   29.0930    9.7480   59.1060 C   0  0  0  0  0  0  0  0  0  0  0  0
   26.8040    7.4100   59.6960 C   0  0  0  0  0  0  0  0  0  0  0  0
   27.7220    6.7100   60.6150 C   0  0  0  0  0  0  0  0  0  0  0  0
   28.1950    5.6100   60.3260 O   0  0  0  0  0  0  0  0  0  0  0  0
   27.9840    7.3230   61.8150 N   0  0  0  0  0  0  0  0  0  0  0  0
   28.7400    6.6780   62.8620 C   0  0  0  0  0  0  0  0  0  0  0  0
   29.5990    7.6820   63.5860 C   0  0  0  0  0  0  0  0  0  0  0  0
   29.4300    9.0550   63.3550 C   0  0  0  0  0  0  0  0  0  0  0  0
   30.2440    9.9860   64.0000 C   0  0  0  0  0  0  0  0  0  0  0  0
   31.2370    9.5550   64.8770 C   0  0  0  0  0  0  0  0  0  0  0  0
   31.4220    8.1930   65.1060 C   0  0  0  0  0  0  0  0  0  0  0  0
   30.6100    7.2590   64.4610 C   0  0  0  0  0  0  0  0  0  0  0  0
   23.7773    3.1089   59.3538 H   0  0  0  0  0  0  0  0  0  0  0  0
   25.5306    2.8671   59.6814 H   0  0  0  0  0  0  0  0  0  0  0  0
   24.7810    1.6397   61.4497 H   0  0  0  0  0  0  0  0  0  0  0  0
   24.5666    3.2547   62.2218 H   0  0  0  0  0  0  0  0  0  0  0  0
   22.2680    3.0220   60.9210 H   0  0  0  0  0  0  0  0  0  0  0  0
   24.1584    0.1206   60.7380 H   0  0  0  0  0  0  0  0  0  0  0  0
   23.2007   -2.1751   60.6707 H   0  0  0  0  0  0  0  0  0  0  0  0
   20.8245   -2.5631   61.3176 H   0  0  0  0  0  0  0  0  0  0  0  0
   19.4164   -0.6425   62.0599 H   0  0  0  0  0  0  0  0  0  0  0  0
   20.3760    1.6506   62.1313 H   0  0  0  0  0  0  0  0  0  0  0  0
   25.7990    4.7920   58.4960 H   0  0  0  0  0  0  0  0  0  0  0  0
   25.5876   10.0690   57.9663 H   0  0  0  0  0  0  0  0  0  0  0  0
   26.3482   11.0308   60.6939 H   0  0  0  0  0  0  0  0  0  0  0  0
   28.0092   12.8044   61.2612 H   0  0  0  0  0  0  0  0  0  0  0  0
   30.3610   12.6171   60.4521 H   0  0  0  0  0  0  0  0  0  0  0  0
   31.0534   10.6641   59.0637 H   0  0  0  0  0  0  0  0  0  0  0  0
   29.4010    8.8856   58.4966 H   0  0  0  0  0  0  0  0  0  0  0  0
   27.4290    8.1180   62.0920 H   0  0  0  0  0  0  0  0  0  0  0  0
   28.0451    6.2134   63.5770 H   0  0  0  0  0  0  0  0  0  0  0  0
   29.3891    5.9120   62.4127 H   0  0  0  0  0  0  0  0  0  0  0  0
   28.6500    9.4000   62.6603 H   0  0  0  0  0  0  0  0  0  0  0  0
   30.1019   11.0612   63.8161 H   0  0  0  0  0  0  0  0  0  0  0  0
   31.8753   10.2902   65.3889 H   0  0  0  0  0  0  0  0  0  0  0  0
   32.2088    7.8537   65.7958 H   0  0  0  0  0  0  0  0  0  0  0  0
   30.7639    6.1846   64.6400 H   0  0  0  0  0  0  0  0  0  0  0  0
  1  2  2  0
  2  3  1  0
  3  4  1  0
  4  5  1  0
  5  6  1  0
  6  7  2  0
  7  8  1  0
  8  9  2  0
  9 10  1  0
 10 11  2  0
  2 12  1  0
 12 13  1  0
 13 14  1  0
 14 15  1  0
 15 16  2  0
 16 17  1  0
 17 18  2  0
 18 19  1  0
 19 20  2  0
 20 21  1  0
 21 22  2  0
 16 23  1  0
 23 24  1  0
 24 25  2  0
 24 26  1  0
 26 27  1  0
 27 28  1  0
 28 29  2  0
 29 30  1  0
 30 31  2  0
 31 32  1  0
 32 33  2  0
 11  6  1  0
 23 13  2  0
 33 28  1  0
 22 17  1  0
  3 34  1  0
  3 35  1  0
  4 36  1  0
  4 37  1  0
  5 38  1  0
  7 39  1  0
  8 40  1  0
  9 41  1  0
 10 42  1  0
 11 43  1  0
 12 44  1  0
 15 45  1  0
 18 46  1  0
 19 47  1  0
 20 48  1  0
 21 49  1  0
 22 50  1  0
 26 51  1  0
 27 52  1  0
 27 53  1  0
 29 54  1  0
 30 55  1  0
 31 56  1  0
 32 57  1  0
 33 58  1  0
M  END
>  <meeko>  (5) 
{"is_sidechain": [false], "free_energy": -9.37, "intermolecular_energy": -13.958, "internal_energy": -2.144}

$$$$
3wz8_ligand
     RDKit          3D

 58 61  0  0  0  0  0  0  0  0999 V2000
   27.5780    7.0640   58.5600 O   0  0  0  0  0  0  0  0  0  0  0  0
   26.8770    8.0080   58.9090 C   0  0  0  0  0  0  0  0  0  0  0  0
   27.4860    9.1520   59.6950 C   0  0  0  0  0  0  0  0  0  0  0  0
   28.6450    8.6420   60.5420 C   0  0  0  0  0  0  0  0  0  0  0  0
   28.2080    7.5370   61.3920 N   0  0  0  0  0  0  0  0  0  0  0  0
   28.4890    7.5700   62.7630 C   0  0  0  0  0  0  0  0  0  0  0  0
   28.8870    6.4490   63.5020 C   0  0  0  0  0  0  0  0  0  0  0  0
   29.2240    6.5570   64.8560 C   0  0  0  0  0  0  0  0  0  0  0  0
   29.1960    7.7960   65.4880 C   0  0  0  0  0  0  0  0  0  0  0  0
   28.8440    8.9290   64.7620 C   0  0  0  0  0  0  0  0  0  0  0  0
   28.5080    8.8140   63.4100 C   0  0  0  0  0  0  0  0  0  0  0  0
   25.5360    8.2130   58.6380 N   0  0  0  0  0  0  0  0  0  0  0  0
   24.6830    7.4070   57.8960 C   0  0  0  0  0  0  0  0  0  0  0  0
   24.0640    7.9190   56.4040 S   0  0  0  0  0  0  0  0  0  0  0  0
   23.1590    6.4940   56.2110 C   0  0  0  0  0  0  0  0  0  0  0  0
   23.3280    5.6170   57.2650 C   0  0  0  0  0  0  0  0  0  0  0  0
   22.5730    4.3730   57.2650 C   0  0  0  0  0  0  0  0  0  0  0  0
   21.2250    4.3690   56.8880 C   0  0  0  0  0  0  0  0  0  0  0  0
   20.5130    3.1690   56.8570 C   0  0  0  0  0  0  0  0  0  0  0  0
   21.1440    1.9730   57.2020 C   0  0  0  0  0  0  0  0  0  0  0  0
   22.4860    1.9760   57.5820 C   0  0  0  0  0  0  0  0  0  0  0  0
   23.2020    3.1720   57.6140 C   0  0  0  0  0  0  0  0  0  0  0  0
   24.2460    6.1350   58.2620 C   0  0  0  0  0  0  0  0  0  0  0  0
   24.7130    5.5150   59.5160 C   0  0  0  0  0  0  0  0  0  0  0  0
   24.3570    5.9510   60.6120 O   0  0  0  0  0  0  0  0  0  0  0  0
   25.5900    4.4660   59.4000 N   0  0  0  0  0  0  0  0  0  0  0  0
   26.2390    3.8720   60.5450 C   0  0  0  0  0  0  0  0  0  0  0  0
   25.5160    2.6200   60.9680 C   0  0  0  0  0  0  0  0  0  0  0  0
   26.1170    1.3640   60.8010 C   0  0  0  0  0  0  0  0  0  0  0  0
   25.4390    0.2000   61.1650 C   0  0  0  0  0  0  0  0  0  0  0  0
   24.1520    0.2800   61.6930 C   0  0  0  0  0  0  0  0  0  0  0  0
   23.5390    1.5210   61.8540 C   0  0  0  0  0  0  0  0  0  0  0  0
   24.2150    2.6870   61.4890 C   0  0  0  0  0  0  0  0  0  0  0  0
   27.8542    9.9184   58.9971 H   0  0  0  0  0  0  0  0  0  0  0  0
   26.7198    9.5858   60.3544 H   0  0  0  0  0  0  0  0  0  0  0  0
   29.4513    8.2930   59.8802 H   0  0  0  0  0  0  0  0  0  0  0  0
   29.0074    9.4611   61.1805 H   0  0  0  0  0  0  0  0  0  0  0  0
   28.4290    6.6200   60.9930 H   0  0  0  0  0  0  0  0  0  0  0  0
   28.9356    5.4665   63.0097 H   0  0  0  0  0  0  0  0  0  0  0  0
   29.5120    5.6591   65.4225 H   0  0  0  0  0  0  0  0  0  0  0  0
   29.4506    7.8791   66.5549 H   0  0  0  0  0  0  0  0  0  0  0  0
   28.8300    9.9142   65.2511 H   0  0  0  0  0  0  0  0  0  0  0  0
   28.2527    9.7199   62.8407 H   0  0  0  0  0  0  0  0  0  0  0  0
   25.0960    9.0640   58.9900 H   0  0  0  0  0  0  0  0  0  0  0  0
   22.5117    6.2925   55.3447 H   0  0  0  0  0  0  0  0  0  0  0  0
   20.7269    5.3114   56.6162 H   0  0  0  0  0  0  0  0  0  0  0  0
   19.4537    3.1659   56.5604 H   0  0  0  0  0  0  0  0  0  0  0  0
   20.5827    1.0274   57.1742 H   0  0  0  0  0  0  0  0  0  0  0  0
   22.9806    1.0328   57.8571 H   0  0  0  0  0  0  0  0  0  0  0  0
   24.2605    3.1719   57.9133 H   0  0  0  0  0  0  0  0  0  0  0  0
   26.0050    4.2700   58.5020 H   0  0  0  0  0  0  0  0  0  0  0  0
   27.2771    3.6199   60.2828 H   0  0  0  0  0  0  0  0  0  0  0  0
   26.2231    4.5914   61.3770 H   0  0  0  0  0  0  0  0  0  0  0  0
   27.1309    1.2959   60.3797 H   0  0  0  0  0  0  0  0  0  0  0  0
   25.9204   -0.7805   61.0352 H   0  0  0  0  0  0  0  0  0  0  0  0
   23.6192   -0.6376   61.9831 H   0  0  0  0  0  0  0  0  0  0  0  0
   22.5221    1.5821   62.2688 H   0  0  0  0  0  0  0  0  0  0  0  0
   23.7245    3.6641   61.6107 H   0  0  0  0  0  0  0  0  0  0  0  0
  1  2  2  0
  2  3  1  0
  3  4  1  0
  4  5  1  0
  5  6  1  0
  6  7  2  0
  7  8  1  0
  8  9  2  0
  9 10  1  0
 10 11  2  0
  2 12  1  0
 12 13  1  0
 13 14  1  0
 14 15  1  0
 15 16  2  0
 16 17  1  0
 17 18  2  0
 18 19  1  0
 19 20  2  0
 20 21  1  0
 21 22  2  0
 16 23  1  0
 23 24  1  0
 24 25  2  0
 24 26  1  0
 26 27  1  0
 27 28  1  0
 28 29  2  0
 29 30  1  0
 30 31  2  0
 31 32  1  0
 32 33  2  0
 11  6  1  0
 23 13  2  0
 33 28  1  0
 22 17  1  0
  3 34  1  0
  3 35  1  0
  4 36  1  0
  4 37  1  0
  5 38  1  0
  7 39  1  0
  8 40  1  0
  9 41  1  0
 10 42  1  0
 11 43  1  0
 12 44  1  0
 15 45  1  0
 18 46  1  0
 19 47  1  0
 20 48  1  0
 21 49  1  0
 22 50  1  0
 26 51  1  0
 27 52  1  0
 27 53  1  0
 29 54  1  0
 30 55  1  0
 31 56  1  0
 32 57  1  0
 33 58  1  0
M  END
>  <meeko>  (6) 
{"is_sidechain": [false], "free_energy": -9.302, "intermolecular_energy": -14.014, "internal_energy": -1.984}

$$$$
3wz8_ligand
     RDKit          3D

 58 61  0  0  0  0  0  0  0  0999 V2000
   19.9640    3.5630   55.8940 O   0  0  0  0  0  0  0  0  0  0  0  0
   20.8050    3.7970   55.0320 C   0  0  0  0  0  0  0  0  0  0  0  0
   20.4260    3.7210   53.5670 C   0  0  0  0  0  0  0  0  0  0  0  0
   19.1140    2.9650   53.4060 C   0  0  0  0  0  0  0  0  0  0  0  0
   18.2540    3.6370   52.4350 N   0  0  0  0  0  0  0  0  0  0  0  0
   17.2980    2.8940   51.7320 C   0  0  0  0  0  0  0  0  0  0  0  0
   15.9290    3.1860   51.7370 C   0  0  0  0  0  0  0  0  0  0  0  0
   15.0270    2.4510   50.9580 C   0  0  0  0  0  0  0  0  0  0  0  0
   15.4870    1.4270   50.1370 C   0  0  0  0  0  0  0  0  0  0  0  0
   16.8480    1.1470   50.0840 C   0  0  0  0  0  0  0  0  0  0  0  0
   17.7420    1.8850   50.8650 C   0  0  0  0  0  0  0  0  0  0  0  0
   22.1190    4.1840   55.2160 N   0  0  0  0  0  0  0  0  0  0  0  0
   22.7830    4.4120   56.4150 C   0  0  0  0  0  0  0  0  0  0  0  0
   23.2310    5.9750   56.8910 S   0  0  0  0  0  0  0  0  0  0  0  0
   23.9650    5.4070   58.3140 C   0  0  0  0  0  0  0  0  0  0  0  0
   23.8650    4.0360   58.4460 C   0  0  0  0  0  0  0  0  0  0  0  0
   24.4940    3.3980   59.5920 C   0  0  0  0  0  0  0  0  0  0  0  0
   23.7550    2.5340   60.4090 C   0  0  0  0  0  0  0  0  0  0  0  0
   24.3710    1.8980   61.4880 C   0  0  0  0  0  0  0  0  0  0  0  0
   25.7220    2.1230   61.7540 C   0  0  0  0  0  0  0  0  0  0  0  0
   26.4590    2.9870   60.9440 C   0  0  0  0  0  0  0  0  0  0  0  0
   25.8490    3.6240   59.8640 C   0  0  0  0  0  0  0  0  0  0  0  0
   23.1470    3.4330   57.3390 C   0  0  0  0  0  0  0  0  0  0  0  0
   22.8060    2.0180   57.1040 C   0  0  0  0  0  0  0  0  0  0  0  0
   23.4400    1.3360   56.2970 O   0  0  0  0  0  0  0  0  0  0  0  0
   21.7280    1.5180   57.7910 N   0  0  0  0  0  0  0  0  0  0  0  0
   21.1970    0.1990   57.5400 C   0  0  0  0  0  0  0  0  0  0  0  0
   21.2660   -0.6420   58.7880 C   0  0  0  0  0  0  0  0  0  0  0  0
   20.1270   -1.3190   59.2490 C   0  0  0  0  0  0  0  0  0  0  0  0
   20.1780   -2.0750   60.4200 C   0  0  0  0  0  0  0  0  0  0  0  0
   21.3660   -2.1560   61.1460 C   0  0  0  0  0  0  0  0  0  0  0  0
   22.5010   -1.4800   60.7040 C   0  0  0  0  0  0  0  0  0  0  0  0
   22.4510   -0.7220   59.5330 C   0  0  0  0  0  0  0  0  0  0  0  0
   20.3108    4.7394   53.1674 H   0  0  0  0  0  0  0  0  0  0  0  0
   21.2175    3.1911   53.0167 H   0  0  0  0  0  0  0  0  0  0  0  0
   19.3250    1.9434   53.0571 H   0  0  0  0  0  0  0  0  0  0  0  0
   18.5988    2.9343   54.3774 H   0  0  0  0  0  0  0  0  0  0  0  0
   18.7750    4.2550   51.8060 H   0  0  0  0  0  0  0  0  0  0  0  0
   15.5548    4.0082   52.3646 H   0  0  0  0  0  0  0  0  0  0  0  0
   13.9526    2.6839   50.9955 H   0  0  0  0  0  0  0  0  0  0  0  0
   14.7781    0.8418   49.5329 H   0  0  0  0  0  0  0  0  0  0  0  0
   17.2205    0.3460   49.4285 H   0  0  0  0  0  0  0  0  0  0  0  0
   18.8186    1.6694   50.7981 H   0  0  0  0  0  0  0  0  0  0  0  0
   22.6930    4.3580   54.3900 H   0  0  0  0  0  0  0  0  0  0  0  0
   24.4636    6.0578   59.0474 H   0  0  0  0  0  0  0  0  0  0  0  0
   22.6896    2.3565   60.2007 H   0  0  0  0  0  0  0  0  0  0  0  0
   23.7906    1.2185   62.1294 H   0  0  0  0  0  0  0  0  0  0  0  0
   26.2063    1.6187   62.6031 H   0  0  0  0  0  0  0  0  0  0  0  0
   27.5231    3.1661   61.1576 H   0  0  0  0  0  0  0  0  0  0  0  0
   26.4321    4.3040   59.2256 H   0  0  0  0  0  0  0  0  0  0  0  0
   21.1230    2.1550   58.2860 H   0  0  0  0  0  0  0  0  0  0  0  0
   20.1485    0.2856   57.2190 H   0  0  0  0  0  0  0  0  0  0  0  0
   21.7953   -0.2822   56.7523 H   0  0  0  0  0  0  0  0  0  0  0  0
   19.1864   -1.2531   58.6825 H   0  0  0  0  0  0  0  0  0  0  0  0
   19.2815   -2.6072   60.7708 H   0  0  0  0  0  0  0  0  0  0  0  0
   21.4068   -2.7541   62.0683 H   0  0  0  0  0  0  0  0  0  0  0  0
   23.4371   -1.5436   61.2781 H   0  0  0  0  0  0  0  0  0  0  0  0
   23.3477   -0.1836   59.1923 H   0  0  0  0  0  0  0  0  0  0  0  0
  1  2  2  0
  2  3  1  0
  3  4  1  0
  4  5  1  0
  5  6  1  0
  6  7  2  0
  7  8  1  0
  8  9  2  0
  9 10  1  0
 10 11  2  0
  2 12  1  0
 12 13  1  0
 13 14  1  0
 14 15  1  0
 15 16  2  0
 16 17  1  0
 17 18  2  0
 18 19  1  0
 19 20  2  0
 20 21  1  0
 21 22  2  0
 16 23  1  0
 23 24  1  0
 24 25  2  0
 24 26  1  0
 26 27  1  0
 27 28  1  0
 28 29  2  0
 29 30  1  0
 30 31  2  0
 31 32  1  0
 32 33  2  0
 11  6  1  0
 23 13  2  0
 33 28  1  0
 22 17  1  0
  3 34  1  0
  3 35  1  0
  4 36  1  0
  4 37  1  0
  5 38  1  0
  7 39  1  0
  8 40  1  0
  9 41  1  0
 10 42  1  0
 11 43  1  0
 12 44  1  0
 15 45  1  0
 18 46  1  0
 19 47  1  0
 20 48  1  0
 21 49  1  0
 22 50  1  0
 26 51  1  0
 27 52  1  0
 27 53  1  0
 29 54  1  0
 30 55  1  0
 31 56  1  0
 32 57  1  0
 33 58  1  0
M  END
>  <meeko>  (7) 
{"is_sidechain": [false], "free_energy": -9.144, "intermolecular_energy": -13.926, "internal_energy": -1.832}

$$$$
3wz8_ligand
     RDKit          3D

 58 61  0  0  0  0  0  0  0  0999 V2000
   19.5900   -2.6560   56.5560 O   0  0  0  0  0  0  0  0  0  0  0  0
   19.0140   -1.5760   56.6350 C   0  0  0  0  0  0  0  0  0  0  0  0
   17.9640   -1.2030   55.6090 C   0  0  0  0  0  0  0  0  0  0  0  0
   18.0350    0.2890   55.3090 C   0  0  0  0  0  0  0  0  0  0  0  0
   17.0210    0.6600   54.3240 N   0  0  0  0  0  0  0  0  0  0  0  0
   17.4160    1.0050   53.0270 C   0  0  0  0  0  0  0  0  0  0  0  0
   16.5600    0.9690   51.9180 C   0  0  0  0  0  0  0  0  0  0  0  0
   16.9910    1.3930   50.6560 C   0  0  0  0  0  0  0  0  0  0  0  0
   18.2800    1.8890   50.4870 C   0  0  0  0  0  0  0  0  0  0  0  0
   19.1330    1.9730   51.5820 C   0  0  0  0  0  0  0  0  0  0  0  0
   18.6960    1.5470   52.8400 C   0  0  0  0  0  0  0  0  0  0  0  0
   19.1650   -0.6060   57.6090 N   0  0  0  0  0  0  0  0  0  0  0  0
   19.9890   -0.6400   58.7270 C   0  0  0  0  0  0  0  0  0  0  0  0
   19.6050   -1.5910   60.0760 S   0  0  0  0  0  0  0  0  0  0  0  0
   20.9780   -1.0630   60.9270 C   0  0  0  0  0  0  0  0  0  0  0  0
   21.7420   -0.1760   60.1940 C   0  0  0  0  0  0  0  0  0  0  0  0
   22.9240    0.4030   60.8120 C   0  0  0  0  0  0  0  0  0  0  0  0
   24.2000   -0.0510   60.4530 C   0  0  0  0  0  0  0  0  0  0  0  0
   25.3330    0.5300   61.0240 C   0  0  0  0  0  0  0  0  0  0  0  0
   25.1970    1.5610   61.9530 C   0  0  0  0  0  0  0  0  0  0  0  0
   23.9270    2.0120   62.3160 C   0  0  0  0  0  0  0  0  0  0  0  0
   22.7920    1.4350   61.7480 C   0  0  0  0  0  0  0  0  0  0  0  0
   21.1810    0.0680   58.8780 C   0  0  0  0  0  0  0  0  0  0  0  0
   21.6880    0.9220   57.7880 C   0  0  0  0  0  0  0  0  0  0  0  0
   21.7590    0.5020   56.6310 O   0  0  0  0  0  0  0  0  0  0  0  0
   22.1120    2.1810   58.1330 N   0  0  0  0  0  0  0  0  0  0  0  0
   22.7700    3.0580   57.1940 C   0  0  0  0  0  0  0  0  0  0  0  0
   23.5300    4.1350   57.9240 C   0  0  0  0  0  0  0  0  0  0  0  0
   24.2070    3.8390   59.1160 C   0  0  0  0  0  0  0  0  0  0  0  0
   24.8880    4.8390   59.8100 C   0  0  0  0  0  0  0  0  0  0  0  0
   24.8940    6.1450   59.3240 C   0  0  0  0  0  0  0  0  0  0  0  0
   24.2160    6.4540   58.1460 C   0  0  0  0  0  0  0  0  0  0  0  0
   23.5330    5.4550   57.4500 C   0  0  0  0  0  0  0  0  0  0  0  0
   18.1421   -1.7696   54.6831 H   0  0  0  0  0  0  0  0  0  0  0  0
   16.9677   -1.4439   56.0082 H   0  0  0  0  0  0  0  0  0  0  0  0
   17.8624    0.8538   56.2370 H   0  0  0  0  0  0  0  0  0  0  0  0
   19.0298    0.5240   54.9025 H   0  0  0  0  0  0  0  0  0  0  0  0
   16.3390    1.3290   54.6920 H   0  0  0  0  0  0  0  0  0  0  0  0
   15.5309    0.6008   52.0418 H   0  0  0  0  0  0  0  0  0  0  0  0
   16.3088    1.3340   49.7951 H   0  0  0  0  0  0  0  0  0  0  0  0
   18.6223    2.2128   49.4930 H   0  0  0  0  0  0  0  0  0  0  0  0
   20.1499    2.3739   51.4587 H   0  0  0  0  0  0  0  0  0  0  0  0
   19.3718    1.6391   53.7030 H   0  0  0  0  0  0  0  0  0  0  0  0
   18.5970    0.2390   57.5430 H   0  0  0  0  0  0  0  0  0  0  0  0
   21.2298   -1.3906   61.9464 H   0  0  0  0  0  0  0  0  0  0  0  0
   24.3086   -0.8651   59.7213 H   0  0  0  0  0  0  0  0  0  0  0  0
   26.3347    0.1742   60.7409 H   0  0  0  0  0  0  0  0  0  0  0  0
   26.0914    2.0193   62.4002 H   0  0  0  0  0  0  0  0  0  0  0  0
   23.8215    2.8236   63.0510 H   0  0  0  0  0  0  0  0  0  0  0  0
   21.7919    1.7912   62.0358 H   0  0  0  0  0  0  0  0  0  0  0  0
   22.2200    2.4120   59.1090 H   0  0  0  0  0  0  0  0  0  0  0  0
   23.4707    2.4722   56.5809 H   0  0  0  0  0  0  0  0  0  0  0  0
   22.0100    3.5295   56.5537 H   0  0  0  0  0  0  0  0  0  0  0  0
   24.2009    2.8107   59.5065 H   0  0  0  0  0  0  0  0  0  0  0  0
   25.4206    4.5966   60.7414 H   0  0  0  0  0  0  0  0  0  0  0  0
   25.4340    6.9324   59.8702 H   0  0  0  0  0  0  0  0  0  0  0  0
   24.2191    7.4857   57.7645 H   0  0  0  0  0  0  0  0  0  0  0  0
   22.9939    5.7046   56.5242 H   0  0  0  0  0  0  0  0  0  0  0  0
  1  2  2  0
  2  3  1  0
  3  4  1  0
  4  5  1  0
  5  6  1  0
  6  7  2  0
  7  8  1  0
  8  9  2  0
  9 10  1  0
 10 11  2  0
  2 12  1  0
 12 13  1  0
 13 14  1  0
 14 15  1  0
 15 16  2  0
 16 17  1  0
 17 18  2  0
 18 19  1  0
 19 20  2  0
 20 21  1  0
 21 22  2  0
 16 23  1  0
 23 24  1  0
 24 25  2  0
 24 26  1  0
 26 27  1  0
 27 28  1  0
 28 29  2  0
 29 30  1  0
 30 31  2  0
 31 32  1  0
 32 33  2  0
 11  6  1  0
 23 13  2  0
 33 28  1  0
 22 17  1  0
  3 34  1  0
  3 35  1  0
  4 36  1  0
  4 37  1  0
  5 38  1  0
  7 39  1  0
  8 40  1  0
  9 41  1  0
 10 42  1  0
 11 43  1  0
 12 44  1  0
 15 45  1  0
 18 46  1  0
 19 47  1  0
 20 48  1  0
 21 49  1  0
 22 50  1  0
 26 51  1  0
 27 52  1  0
 27 53  1  0
 29 54  1  0
 30 55  1  0
 31 56  1  0
 32 57  1  0
 33 58  1  0
M  END
>  <meeko>  (8) 
{"is_sidechain": [false], "free_energy": -9.142, "intermolecular_energy": -13.448, "internal_energy": -2.306}

$$$$
3wz8_ligand
     RDKit          3D

 58 61  0  0  0  0  0  0  0  0999 V2000
   26.7780    5.9490   61.4110 O   0  0  0  0  0  0  0  0  0  0  0  0
   27.8780    5.7950   60.8900 C   0  0  0  0  0  0  0  0  0  0  0  0
   28.2670    4.4400   60.3340 C   0  0  0  0  0  0  0  0  0  0  0  0
   27.0230    3.6810   59.8920 C   0  0  0  0  0  0  0  0  0  0  0  0
   26.9310    2.4010   60.5900 N   0  0  0  0  0  0  0  0  0  0  0  0
   25.6830    1.9440   61.0280 C   0  0  0  0  0  0  0  0  0  0  0  0
   24.6230    2.7910   61.3750 C   0  0  0  0  0  0  0  0  0  0  0  0
   23.3730    2.2760   61.7380 C   0  0  0  0  0  0  0  0  0  0  0  0
   23.1530    0.9020   61.7320 C   0  0  0  0  0  0  0  0  0  0  0  0
   24.1790    0.0440   61.3500 C   0  0  0  0  0  0  0  0  0  0  0  0
   25.4260    0.5650   60.9890 C   0  0  0  0  0  0  0  0  0  0  0  0
   28.8600    6.7470   60.6890 N   0  0  0  0  0  0  0  0  0  0  0  0
   28.8200    8.0970   61.0130 C   0  0  0  0  0  0  0  0  0  0  0  0
   28.4340    9.2710   59.8540 S   0  0  0  0  0  0  0  0  0  0  0  0
   28.6400   10.5380   60.9660 C   0  0  0  0  0  0  0  0  0  0  0  0
   28.9880   10.0840   62.2230 C   0  0  0  0  0  0  0  0  0  0  0  0
   29.2490   11.0590   63.2700 C   0  0  0  0  0  0  0  0  0  0  0  0
   30.3730   11.8910   63.1910 C   0  0  0  0  0  0  0  0  0  0  0  0
   30.6030   12.8490   64.1800 C   0  0  0  0  0  0  0  0  0  0  0  0
   29.7140   12.9770   65.2480 C   0  0  0  0  0  0  0  0  0  0  0  0
   28.5960   12.1470   65.3310 C   0  0  0  0  0  0  0  0  0  0  0  0
   28.3620   11.1890   64.3450 C   0  0  0  0  0  0  0  0  0  0  0  0
   29.0770    8.6360   62.2730 C   0  0  0  0  0  0  0  0  0  0  0  0
   29.3970    7.7570   63.4130 C   0  0  0  0  0  0  0  0  0  0  0  0
   28.5090    7.1620   64.0270 O   0  0  0  0  0  0  0  0  0  0  0  0
   30.7170    7.6720   63.7790 N   0  0  0  0  0  0  0  0  0  0  0  0
   31.1450    6.9710   64.9660 C   0  0  0  0  0  0  0  0  0  0  0  0
   31.1920    7.9110   66.1430 C   0  0  0  0  0  0  0  0  0  0  0  0
   31.1440    7.4090   67.4520 C   0  0  0  0  0  0  0  0  0  0  0  0
   31.1570    8.2770   68.5440 C   0  0  0  0  0  0  0  0  0  0  0  0
   31.2130    9.6540   68.3390 C   0  0  0  0  0  0  0  0  0  0  0  0
   31.2510   10.1650   67.0430 C   0  0  0  0  0  0  0  0  0  0  0  0
   31.2360    9.2990   65.9490 C   0  0  0  0  0  0  0  0  0  0  0  0
   28.9348    4.5786   59.4710 H   0  0  0  0  0  0  0  0  0  0  0  0
   28.7825    3.8635   61.1163 H   0  0  0  0  0  0  0  0  0  0  0  0
   26.1312    4.2830   60.1204 H   0  0  0  0  0  0  0  0  0  0  0  0
   27.0860    3.4930   58.8100 H   0  0  0  0  0  0  0  0  0  0  0  0
   27.6390    2.2990   61.3220 H   0  0  0  0  0  0  0  0  0  0  0  0
   24.7754    3.8803   61.3621 H   0  0  0  0  0  0  0  0  0  0  0  0
   22.5619    2.9597   62.0290 H   0  0  0  0  0  0  0  0  0  0  0  0
   22.1739    0.4969   62.0275 H   0  0  0  0  0  0  0  0  0  0  0  0
   24.0100   -1.0428   61.3318 H   0  0  0  0  0  0  0  0  0  0  0  0
   26.2229   -0.1216   60.6674 H   0  0  0  0  0  0  0  0  0  0  0  0
   29.7230    6.4620   60.2230 H   0  0  0  0  0  0  0  0  0  0  0  0
   28.5108   11.6008   60.7134 H   0  0  0  0  0  0  0  0  0  0  0  0
   31.0744   11.7895   62.3497 H   0  0  0  0  0  0  0  0  0  0  0  0
   31.4852   13.5031   64.1174 H   0  0  0  0  0  0  0  0  0  0  0  0
   29.8952   13.7336   66.0256 H   0  0  0  0  0  0  0  0  0  0  0  0
   27.8981   12.2483   66.1752 H   0  0  0  0  0  0  0  0  0  0  0  0
   27.4799   10.5352   64.4121 H   0  0  0  0  0  0  0  0  0  0  0  0
   31.3790    8.3200   63.3820 H   0  0  0  0  0  0  0  0  0  0  0  0
   30.4377    6.1564   65.1807 H   0  0  0  0  0  0  0  0  0  0  0  0
   32.1519    6.5622   64.7954 H   0  0  0  0  0  0  0  0  0  0  0  0
   31.0957    6.3228   67.6186 H   0  0  0  0  0  0  0  0  0  0  0  0
   31.1230    7.8743   69.5671 H   0  0  0  0  0  0  0  0  0  0  0  0
   31.2272   10.3380   69.2004 H   0  0  0  0  0  0  0  0  0  0  0  0
   31.2929   11.2524   66.8823 H   0  0  0  0  0  0  0  0  0  0  0  0
   31.2588    9.7077   64.9280 H   0  0  0  0  0  0  0  0  0  0  0  0
  1  2  2  0
  2  3  1  0
  3  4  1  0
  4  5  1  0
  5  6  1  0
  6  7  2  0
  7  8  1  0
  8  9  2  0
  9 10  1  0
 10 11  2  0
  2 12  1  0
 12 13  1  0
 13 14  1  0
 14 15  1  0
 15 16  2  0
 16 17  1  0
 17 18  2  0
 18 19  1  0
 19 20  2  0
 20 21  1  0
 21 22  2  0
 16 23  1  0
 23 24  1  0
 24 25  2  0
 24 26  1  0
 26 27  1  0
 27 28  1  0
 28 29  2  0
 29 30  1  0
 30 31  2  0
 31 32  1  0
 32 33  2  0
 11  6  1  0
 23 13  2  0
 33 28  1  0
 22 17  1  0
  3 34  1  0
  3 35  1  0
  4 36  1  0
  4 37  1  0
  5 38  1  0
  7 39  1  0
  8 40  1  0
  9 41  1  0
 10 42  1  0
 11 43  1  0
 12 44  1  0
 15 45  1  0
 18 46  1  0
 19 47  1  0
 20 48  1  0
 21 49  1  0
 22 50  1  0
 26 51  1  0
 27 52  1  0
 27 53  1  0
 29 54  1  0
 30 55  1  0
 31 56  1  0
 32 57  1  0
 33 58  1  0
M  END
>  <meeko>  (9) 
{"is_sidechain": [false], "free_energy": -9.114, "intermolecular_energy": -13.295, "internal_energy": -2.416}

$$$$
