2wnc_ligand
     RDKit          3D

 42 45  0  0  0  0  0  0  0  0999 V2000
  -69.6530  -44.8180  -73.5610 C   0  0  0  0  0  0  0  0  0  0  0  0
  -70.6390  -45.9340  -73.7760 N   0  0  2  0  0  0  0  0  0  0  0  0
  -71.5260  -46.2350  -72.5830 C   0  0  2  0  0  0  0  0  0  0  0  0
  -70.6110  -47.0700  -71.6820 C   0  0  0  0  0  0  0  0  0  0  0  0
  -69.6360  -47.7670  -72.6260 C   0  0  0  0  0  0  0  0  0  0  0  0
  -70.0110  -47.2900  -74.0320 C   0  0  1  0  0  0  0  0  0  0  0  0
  -71.0710  -48.1970  -74.6690 C   0  0  0  0  0  0  0  0  0  0  0  0
  -72.5190  -47.7460  -74.4190 C   0  0  1  0  0  0  0  0  0  0  0  0
  -73.4220  -48.8600  -74.5020 O   0  0  0  0  0  0  0  0  0  0  0  0
  -73.1360  -49.7820  -75.4770 C   0  0  0  0  0  0  0  0  0  0  0  0
  -72.9880  -49.4760  -76.6560 O   0  0  0  0  0  0  0  0  0  0  0  0
  -73.0240  -51.1370  -74.9580 C   0  0  0  0  0  0  0  0  0  0  0  0
  -73.2760  -52.3050  -75.6600 C   0  0  0  0  0  0  0  0  0  0  0  0
  -73.0590  -53.3700  -74.8260 N   0  0  0  0  0  0  0  0  0  0  0  0
  -72.6690  -52.9280  -73.5850 C   0  0  0  0  0  0  0  0  0  0  0  0
  -72.3450  -53.6560  -72.4330 C   0  0  0  0  0  0  0  0  0  0  0  0
  -71.9750  -52.9360  -71.2940 C   0  0  0  0  0  0  0  0  0  0  0  0
  -71.9320  -51.5450  -71.3070 C   0  0  0  0  0  0  0  0  0  0  0  0
  -72.2590  -50.8330  -72.4670 C   0  0  0  0  0  0  0  0  0  0  0  0
  -72.6360  -51.5330  -73.6340 C   0  0  0  0  0  0  0  0  0  0  0  0
  -72.7300  -47.0550  -73.0660 C   0  0  0  0  0  0  0  0  0  0  0  0
  -69.5108  -44.6571  -72.4822 H   0  0  0  0  0  0  0  0  0  0  0  0
  -68.6906  -45.0852  -74.0218 H   0  0  0  0  0  0  0  0  0  0  0  0
  -70.0367  -43.8958  -74.0218 H   0  0  0  0  0  0  0  0  0  0  0  0
  -71.1990  -45.6330  -74.5870 H   0  0  0  0  0  0  0  0  0  0  0  0
  -71.9257  -45.3494  -72.0673 H   0  0  0  0  0  0  0  0  0  0  0  0
  -70.0681  -46.4215  -70.9786 H   0  0  0  0  0  0  0  0  0  0  0  0
  -71.1807  -47.7914  -71.0779 H   0  0  0  0  0  0  0  0  0  0  0  0
  -68.6007  -47.4821  -72.3874 H   0  0  0  0  0  0  0  0  0  0  0  0
  -69.6970  -48.8618  -72.5381 H   0  0  0  0  0  0  0  0  0  0  0  0
  -69.1439  -47.2814  -74.7088 H   0  0  0  0  0  0  0  0  0  0  0  0
  -70.8990  -48.2183  -75.7553 H   0  0  0  0  0  0  0  0  0  0  0  0
  -70.9629  -49.1865  -74.2008 H   0  0  0  0  0  0  0  0  0  0  0  0
  -72.7286  -47.0086  -75.2079 H   0  0  0  0  0  0  0  0  0  0  0  0
  -73.5965  -52.3666  -76.7105 H   0  0  0  0  0  0  0  0  0  0  0  0
  -73.1650  -54.3440  -75.0760 H   0  0  0  0  0  0  0  0  0  0  0  0
  -72.3806  -54.7554  -72.4252 H   0  0  0  0  0  0  0  0  0  0  0  0
  -71.7136  -53.4771  -70.3727 H   0  0  0  0  0  0  0  0  0  0  0  0
  -71.6384  -51.0002  -70.3976 H   0  0  0  0  0  0  0  0  0  0  0  0
  -72.2225  -49.7336  -72.4695 H   0  0  0  0  0  0  0  0  0  0  0  0
  -73.5938  -46.3798  -73.1547 H   0  0  0  0  0  0  0  0  0  0  0  0
  -72.8864  -47.8528  -72.3250 H   0  0  0  0  0  0  0  0  0  0  0  0
  1  2  1  0
  2  3  1  0
  3  4  1  0
  4  5  1  0
  5  6  1  0
  6  7  1  0
  7  8  1  0
  8  9  1  0
  9 10  1  0
 10 11  2  0
 10 12  1  0
 12 13  2  0
 13 14  1  0
 14 15  1  0
 15 16  2  0
 16 17  1  0
 17 18  2  0
 18 19  1  0
 19 20  2  0
  8 21  1  0
  6  2  1  0
 20 12  1  0
 21  3  1  0
 20 15  1  0
  1 22  1  0
  1 23  1  0
  1 24  1  0
  2 25  1  6
  3 26  1  1
  4 27  1  0
  4 28  1  0
  5 29  1  0
  5 30  1  0
  6 31  1  6
  7 32  1  0
  7 33  1  0
  8 34  1  6
 13 35  1  0
 14 36  1  0
 16 37  1  0
 17 38  1  0
 18 39  1  0
 19 40  1  0
 21 41  1  0
 21 42  1  0
M  CHG  1   2   1
M  END
>  <meeko>  (1) 
{"is_sidechain": [false], "free_energy": -8.333, "intermolecular_energy": -9.795, "internal_energy": -0.419}

$$$$
2wnc_ligand
     RDKit          3D

 42 45  0  0  0  0  0  0  0  0999 V2000
  -73.6730  -49.9450  -79.2430 C   0  0  0  0  0  0  0  0  0  0  0  0
  -73.5220  -49.6660  -77.7720 N   0  0  2  0  0  0  0  0  0  0  0  0
  -73.8490  -50.8390  -76.8680 C   0  0  2  0  0  0  0  0  0  0  0  0
  -75.3800  -50.8210  -76.8260 C   0  0  0  0  0  0  0  0  0  0  0  0
  -75.7760  -49.3650  -77.0480 C   0  0  0  0  0  0  0  0  0  0  0  0
  -74.4590  -48.6030  -77.2330 C   0  0  1  0  0  0  0  0  0  0  0  0
  -73.9040  -48.1100  -75.8910 C   0  0  0  0  0  0  0  0  0  0  0  0
  -72.9330  -49.0900  -75.2130 C   0  0  1  0  0  0  0  0  0  0  0  0
  -72.9110  -48.8840  -73.7920 O   0  0  0  0  0  0  0  0  0  0  0  0
  -71.8020  -48.2380  -73.3040 C   0  0  0  0  0  0  0  0  0  0  0  0
  -71.5890  -47.0470  -73.5010 O   0  0  0  0  0  0  0  0  0  0  0  0
  -70.9330  -49.1130  -72.5320 C   0  0  0  0  0  0  0  0  0  0  0  0
  -69.6190  -48.8530  -72.1740 C   0  0  0  0  0  0  0  0  0  0  0  0
  -69.1450  -49.9170  -71.4540 N   0  0  0  0  0  0  0  0  0  0  0  0
  -70.1190  -50.8770  -71.3300 C   0  0  0  0  0  0  0  0  0  0  0  0
  -70.0790  -52.1190  -70.6830 C   0  0  0  0  0  0  0  0  0  0  0  0
  -71.2350  -52.9040  -70.7140 C   0  0  0  0  0  0  0  0  0  0  0  0
  -72.3830  -52.4640  -71.3660 C   0  0  0  0  0  0  0  0  0  0  0  0
  -72.4060  -51.2200  -72.0080 C   0  0  0  0  0  0  0  0  0  0  0  0
  -71.2530  -50.4040  -71.9930 C   0  0  0  0  0  0  0  0  0  0  0  0
  -73.2510  -50.5660  -75.4810 C   0  0  0  0  0  0  0  0  0  0  0  0
  -74.1923  -50.9046  -79.3828 H   0  0  0  0  0  0  0  0  0  0  0  0
  -74.2584  -49.1397  -79.7107 H   0  0  0  0  0  0  0  0  0  0  0  0
  -72.6786  -49.9947  -79.7107 H   0  0  0  0  0  0  0  0  0  0  0  0
  -72.5410  -49.3760  -77.6620 H   0  0  0  0  0  0  0  0  0  0  0  0
  -73.4522  -51.8080  -77.2051 H   0  0  0  0  0  0  0  0  0  0  0  0
  -75.7940  -51.4577  -77.6217 H   0  0  0  0  0  0  0  0  0  0  0  0
  -75.7669  -51.2085  -75.8720 H   0  0  0  0  0  0  0  0  0  0  0  0
  -76.4037  -49.2705  -77.9464 H   0  0  0  0  0  0  0  0  0  0  0  0
  -76.3602  -48.9690  -76.2043 H   0  0  0  0  0  0  0  0  0  0  0  0
  -74.5805  -47.7200  -77.8777 H   0  0  0  0  0  0  0  0  0  0  0  0
  -73.3729  -47.1625  -76.0644 H   0  0  0  0  0  0  0  0  0  0  0  0
  -74.7643  -47.9984  -75.2147 H   0  0  0  0  0  0  0  0  0  0  0  0
  -71.9508  -48.8735  -75.6586 H   0  0  0  0  0  0  0  0  0  0  0  0
  -69.0524  -47.9445  -72.4261 H   0  0  0  0  0  0  0  0  0  0  0  0
  -68.2140  -49.9950  -71.0640 H   0  0  0  0  0  0  0  0  0  0  0  0
  -69.1699  -52.4642  -70.1688 H   0  0  0  0  0  0  0  0  0  0  0  0
  -71.2374  -53.8845  -70.2154 H   0  0  0  0  0  0  0  0  0  0  0  0
  -73.2808  -53.0995  -71.3771 H   0  0  0  0  0  0  0  0  0  0  0  0
  -73.3173  -50.8798  -72.5215 H   0  0  0  0  0  0  0  0  0  0  0  0
  -72.3186  -51.1422  -75.3878 H   0  0  0  0  0  0  0  0  0  0  0  0
  -74.0117  -50.8642  -74.7445 H   0  0  0  0  0  0  0  0  0  0  0  0
  1  2  1  0
  2  3  1  0
  3  4  1  0
  4  5  1  0
  5  6  1  0
  6  7  1  0
  7  8  1  0
  8  9  1  0
  9 10  1  0
 10 11  2  0
 10 12  1  0
 12 13  2  0
 13 14  1  0
 14 15  1  0
 15 16  2  0
 16 17  1  0
 17 18  2  0
 18 19  1  0
 19 20  2  0
  8 21  1  0
  6  2  1  0
 20 12  1  0
 21  3  1  0
 20 15  1  0
  1 22  1  0
  1 23  1  0
  1 24  1  0
  2 25  1  6
  3 26  1  6
  4 27  1  0
  4 28  1  0
  5 29  1  0
  5 30  1  0
  6 31  1  6
  7 32  1  0
  7 33  1  0
  8 34  1  6
 13 35  1  0
 14 36  1  0
 16 37  1  0
 17 38  1  0
 18 39  1  0
 19 40  1  0
 21 41  1  0
 21 42  1  0
M  CHG  1   2   1
M  END
>  <meeko>  (2) 
{"is_sidechain": [false], "free_energy": -8.33, "intermolecular_energy": -9.845, "internal_energy": -0.364}

$$$$
2wnc_ligand
     RDKit          3D

 42 45  0  0  0  0  0  0  0  0999 V2000
  -72.9030  -47.2610  -73.2860 C   0  0  0  0  0  0  0  0  0  0  0  0
  -71.7750  -46.6330  -72.5150 N   0  0  2  0  0  0  0  0  0  0  0  0
  -71.0950  -45.4730  -73.2170 C   0  0  2  0  0  0  0  0  0  0  0  0
  -70.1690  -46.1740  -74.2160 C   0  0  0  0  0  0  0  0  0  0  0  0
  -69.8350  -47.5210  -73.5830 C   0  0  0  0  0  0  0  0  0  0  0  0
  -70.5990  -47.5540  -72.2560 C   0  0  1  0  0  0  0  0  0  0  0  0
  -69.7660  -46.9590  -71.1130 C   0  0  0  0  0  0  0  0  0  0  0  0
  -69.9830  -45.4540  -70.8940 C   0  0  1  0  0  0  0  0  0  0  0  0
  -68.8320  -44.8590  -70.2740 O   0  0  0  0  0  0  0  0  0  0  0  0
  -68.9170  -44.6790  -68.9160 C   0  0  0  0  0  0  0  0  0  0  0  0
  -69.9740  -44.4370  -68.3440 O   0  0  0  0  0  0  0  0  0  0  0  0
  -67.6320  -44.8150  -68.2460 C   0  0  0  0  0  0  0  0  0  0  0  0
  -66.5900  -45.6420  -68.6350 C   0  0  0  0  0  0  0  0  0  0  0  0
  -65.5560  -45.4870  -67.7510 N   0  0  0  0  0  0  0  0  0  0  0  0
  -65.8950  -44.5730  -66.7820 C   0  0  0  0  0  0  0  0  0  0  0  0
  -65.1550  -44.1090  -65.6880 C   0  0  0  0  0  0  0  0  0  0  0  0
  -65.7560  -43.1630  -64.8530 C   0  0  0  0  0  0  0  0  0  0  0  0
  -67.0440  -42.7010  -65.1040 C   0  0  0  0  0  0  0  0  0  0  0  0
  -67.7700  -43.1760  -66.2030 C   0  0  0  0  0  0  0  0  0  0  0  0
  -67.1890  -44.1320  -67.0640 C   0  0  0  0  0  0  0  0  0  0  0  0
  -70.2930  -44.6760  -72.1790 C   0  0  0  0  0  0  0  0  0  0  0  0
  -73.6426  -47.6728  -72.5836 H   0  0  0  0  0  0  0  0  0  0  0  0
  -73.3826  -46.5001  -73.9192 H   0  0  0  0  0  0  0  0  0  0  0  0
  -72.5089  -48.0695  -73.9192 H   0  0  0  0  0  0  0  0  0  0  0  0
  -72.2020  -46.3300  -71.6290 H   0  0  0  0  0  0  0  0  0  0  0  0
  -71.7788  -44.7647  -73.7076 H   0  0  0  0  0  0  0  0  0  0  0  0
  -70.6804  -46.3177  -75.1792 H   0  0  0  0  0  0  0  0  0  0  0  0
  -69.2643  -45.5823  -74.4197 H   0  0  0  0  0  0  0  0  0  0  0  0
  -70.1631  -48.3436  -74.2354 H   0  0  0  0  0  0  0  0  0  0  0  0
  -68.7522  -47.6422  -73.4320 H   0  0  0  0  0  0  0  0  0  0  0  0
  -70.8672  -48.5793  -71.9612 H   0  0  0  0  0  0  0  0  0  0  0  0
  -70.0302  -47.4846  -70.1835 H   0  0  0  0  0  0  0  0  0  0  0  0
  -68.7095  -47.0893  -71.3903 H   0  0  0  0  0  0  0  0  0  0  0  0
  -70.8650  -45.3847  -70.2404 H   0  0  0  0  0  0  0  0  0  0  0  0
  -66.5932  -46.3111  -69.5081 H   0  0  0  0  0  0  0  0  0  0  0  0
  -64.6680  -45.9680  -67.7940 H   0  0  0  0  0  0  0  0  0  0  0  0
  -64.1366  -44.4759  -65.4925 H   0  0  0  0  0  0  0  0  0  0  0  0
  -65.2022  -42.7779  -63.9841 H   0  0  0  0  0  0  0  0  0  0  0  0
  -67.4961  -41.9558  -64.4330 H   0  0  0  0  0  0  0  0  0  0  0  0
  -68.7881  -42.8061  -66.3945 H   0  0  0  0  0  0  0  0  0  0  0  0
  -70.8716  -43.7802  -71.9092 H   0  0  0  0  0  0  0  0  0  0  0  0
  -69.3259  -44.4336  -72.6438 H   0  0  0  0  0  0  0  0  0  0  0  0
  1  2  1  0
  2  3  1  0
  3  4  1  0
  4  5  1  0
  5  6  1  0
  6  7  1  0
  7  8  1  0
  8  9  1  0
  9 10  1  0
 10 11  2  0
 10 12  1  0
 12 13  2  0
 13 14  1  0
 14 15  1  0
 15 16  2  0
 16 17  1  0
 17 18  2  0
 18 19  1  0
 19 20  2  0
  8 21  1  0
  6  2  1  0
 20 12  1  0
 21  3  1  0
 20 15  1  0
  1 22  1  0
  1 23  1  0
  1 24  1  0
  2 25  1  1
  3 26  1  6
  4 27  1  0
  4 28  1  0
  5 29  1  0
  5 30  1  0
  6 31  1  1
  7 32  1  0
  7 33  1  0
  8 34  1  1
 13 35  1  0
 14 36  1  0
 16 37  1  0
 17 38  1  0
 18 39  1  0
 19 40  1  0
 21 41  1  0
 21 42  1  0
M  CHG  1   2   1
M  END
>  <meeko>  (3) 
{"is_sidechain": [false], "free_energy": -8.021, "intermolecular_energy": -9.439, "internal_energy": -0.408}

$$$$
2wnc_ligand
     RDKit          3D

 42 45  0  0  0  0  0  0  0  0999 V2000
  -64.9280  -44.3630  -64.8100 C   0  0  0  0  0  0  0  0  0  0  0  0
  -65.9320  -44.3830  -65.9300 N   0  0  2  0  0  0  0  0  0  0  0  0
  -65.5960  -43.4780  -67.1000 C   0  0  2  0  0  0  0  0  0  0  0  0
  -66.0230  -42.0970  -66.5950 C   0  0  0  0  0  0  0  0  0  0  0  0
  -67.1480  -42.3570  -65.5990 C   0  0  0  0  0  0  0  0  0  0  0  0
  -67.3110  -43.8800  -65.5510 C   0  0  1  0  0  0  0  0  0  0  0  0
  -68.3090  -44.3720  -66.6070 C   0  0  0  0  0  0  0  0  0  0  0  0
  -67.6680  -44.7510  -67.9510 C   0  0  1  0  0  0  0  0  0  0  0  0
  -68.6200  -44.6330  -69.0200 O   0  0  0  0  0  0  0  0  0  0  0  0
  -68.8510  -45.7810  -69.7370 C   0  0  0  0  0  0  0  0  0  0  0  0
  -68.5380  -46.8930  -69.3260 O   0  0  0  0  0  0  0  0  0  0  0  0
  -69.5060  -45.5290  -71.0110 C   0  0  0  0  0  0  0  0  0  0  0  0
  -69.9950  -44.3100  -71.4530 C   0  0  0  0  0  0  0  0  0  0  0  0
  -70.5380  -44.4830  -72.6980 N   0  0  0  0  0  0  0  0  0  0  0  0
  -70.4200  -45.7960  -73.0880 C   0  0  0  0  0  0  0  0  0  0  0  0
  -70.8310  -46.4220  -74.2710 C   0  0  0  0  0  0  0  0  0  0  0  0
  -70.5770  -47.7900  -74.4040 C   0  0  0  0  0  0  0  0  0  0  0  0
  -69.9380  -48.5010  -73.3930 C   0  0  0  0  0  0  0  0  0  0  0  0
  -69.5330  -47.8600  -72.2160 C   0  0  0  0  0  0  0  0  0  0  0  0
  -69.7760  -46.4780  -72.0540 C   0  0  0  0  0  0  0  0  0  0  0  0
  -66.4350  -43.9130  -68.3100 C   0  0  0  0  0  0  0  0  0  0  0  0
  -65.4553  -44.3735  -63.8447 H   0  0  0  0  0  0  0  0  0  0  0  0
  -64.2794  -45.2484  -64.8832 H   0  0  0  0  0  0  0  0  0  0  0  0
  -64.3152  -43.4525  -64.8832 H   0  0  0  0  0  0  0  0  0  0  0  0
  -65.9730  -45.3690  -66.2250 H   0  0  0  0  0  0  0  0  0  0  0  0
  -64.5423  -43.5001  -67.4151 H   0  0  0  0  0  0  0  0  0  0  0  0
  -65.1807  -41.5914  -66.1001 H   0  0  0  0  0  0  0  0  0  0  0  0
  -66.3496  -41.4446  -67.4182 H   0  0  0  0  0  0  0  0  0  0  0  0
  -66.8793  -41.9680  -64.6058 H   0  0  0  0  0  0  0  0  0  0  0  0
  -68.0808  -41.8567  -65.8984 H   0  0  0  0  0  0  0  0  0  0  0  0
  -67.6794  -44.2241  -64.5733 H   0  0  0  0  0  0  0  0  0  0  0  0
  -68.8241  -45.2584  -66.2083 H   0  0  0  0  0  0  0  0  0  0  0  0
  -68.9943  -43.5355  -66.8083 H   0  0  0  0  0  0  0  0  0  0  0  0
  -67.3394  -45.7935  -67.8275 H   0  0  0  0  0  0  0  0  0  0  0  0
  -69.9538  -43.3619  -70.8967 H   0  0  0  0  0  0  0  0  0  0  0  0
  -70.9670  -43.7590  -73.2590 H   0  0  0  0  0  0  0  0  0  0  0  0
  -71.3362  -45.8568  -75.0681 H   0  0  0  0  0  0  0  0  0  0  0  0
  -70.8868  -48.3121  -75.3213 H   0  0  0  0  0  0  0  0  0  0  0  0
  -69.7492  -49.5772  -73.5197 H   0  0  0  0  0  0  0  0  0  0  0  0
  -69.0283  -48.4295  -71.4217 H   0  0  0  0  0  0  0  0  0  0  0  0
  -65.7951  -44.5091  -68.9772 H   0  0  0  0  0  0  0  0  0  0  0  0
  -66.8055  -42.9927  -68.7852 H   0  0  0  0  0  0  0  0  0  0  0  0
  1  2  1  0
  2  3  1  0
  3  4  1  0
  4  5  1  0
  5  6  1  0
  6  7  1  0
  7  8  1  0
  8  9  1  0
  9 10  1  0
 10 11  2  0
 10 12  1  0
 12 13  2  0
 13 14  1  0
 14 15  1  0
 15 16  2  0
 16 17  1  0
 17 18  2  0
 18 19  1  0
 19 20  2  0
  8 21  1  0
  6  2  1  0
 20 12  1  0
 21  3  1  0
 20 15  1  0
  1 22  1  0
  1 23  1  0
  1 24  1  0
  2 25  1  6
  3 26  1  6
  4 27  1  0
  4 28  1  0
  5 29  1  0
  5 30  1  0
  6 31  1  1
  7 32  1  0
  7 33  1  0
  8 34  1  1
 13 35  1  0
 14 36  1  0
 16 37  1  0
 17 38  1  0
 18 39  1  0
 19 40  1  0
 21 41  1  0
 21 42  1  0
M  CHG  1   2   1
M  END
>  <meeko>  (4) 
{"is_sidechain": [false], "free_energy": -7.999, "intermolecular_energy": -9.53, "internal_energy": -0.291}

$$$$
2wnc_ligand
     RDKit          3D

 42 45  0  0  0  0  0  0  0  0999 V2000
  -73.6750  -49.8980  -79.1180 C   0  0  0  0  0  0  0  0  0  0  0  0
  -73.5380  -49.7940  -77.6230 N   0  0  2  0  0  0  0  0  0  0  0  0
  -73.9100  -51.0530  -76.8630 C   0  0  2  0  0  0  0  0  0  0  0  0
  -75.4410  -50.9940  -76.8360 C   0  0  0  0  0  0  0  0  0  0  0  0
  -75.7920  -49.5100  -76.8940 C   0  0  0  0  0  0  0  0  0  0  0  0
  -74.4510  -48.7730  -76.9750 C   0  0  1  0  0  0  0  0  0  0  0  0
  -73.9010  -48.4530  -75.5790 C   0  0  0  0  0  0  0  0  0  0  0  0
  -72.9680  -49.5330  -75.0090 C   0  0  1  0  0  0  0  0  0  0  0  0
  -72.9610  -49.4920  -73.5730 O   0  0  0  0  0  0  0  0  0  0  0  0
  -71.7240  -49.3780  -72.9900 C   0  0  0  0  0  0  0  0  0  0  0  0
  -71.2610  -50.2340  -72.2430 O   0  0  0  0  0  0  0  0  0  0  0  0
  -71.0350  -48.1510  -73.3610 C   0  0  0  0  0  0  0  0  0  0  0  0
  -70.5890  -47.8140  -74.6290 C   0  0  0  0  0  0  0  0  0  0  0  0
  -69.9930  -46.5830  -74.5690 N   0  0  0  0  0  0  0  0  0  0  0  0
  -70.0330  -46.0990  -73.2830 C   0  0  0  0  0  0  0  0  0  0  0  0
  -69.5490  -44.8930  -72.7620 C   0  0  0  0  0  0  0  0  0  0  0  0
  -69.7320  -44.6570  -71.3970 C   0  0  0  0  0  0  0  0  0  0  0  0
  -70.3730  -45.5890  -70.5880 C   0  0  0  0  0  0  0  0  0  0  0  0
  -70.8510  -46.7900  -71.1250 C   0  0  0  0  0  0  0  0  0  0  0  0
  -70.6810  -47.0570  -72.5010 C   0  0  0  0  0  0  0  0  0  0  0  0
  -73.3250  -50.9580  -75.4470 C   0  0  0  0  0  0  0  0  0  0  0  0
  -74.5290  -50.5463  -79.3637 H   0  0  0  0  0  0  0  0  0  0  0  0
  -73.8411  -48.8965  -79.5415 H   0  0  0  0  0  0  0  0  0  0  0  0
  -72.7550  -50.3272  -79.5415 H   0  0  0  0  0  0  0  0  0  0  0  0
  -72.5500  -49.5480  -77.4700 H   0  0  0  0  0  0  0  0  0  0  0  0
  -73.5353  -51.9883  -77.3044 H   0  0  0  0  0  0  0  0  0  0  0  0
  -75.8616  -51.5229  -77.7040 H   0  0  0  0  0  0  0  0  0  0  0  0
  -75.8526  -51.4762  -75.9371 H   0  0  0  0  0  0  0  0  0  0  0  0
  -76.4031  -49.2943  -77.7828 H   0  0  0  0  0  0  0  0  0  0  0  0
  -76.3774  -49.1953  -76.0175 H   0  0  0  0  0  0  0  0  0  0  0  0
  -74.5376  -47.8185  -77.5148 H   0  0  0  0  0  0  0  0  0  0  0  0
  -73.3408  -47.5081  -75.6368 H   0  0  0  0  0  0  0  0  0  0  0  0
  -74.7669  -48.3932  -74.9032 H   0  0  0  0  0  0  0  0  0  0  0  0
  -71.9742  -49.2970  -75.4172 H   0  0  0  0  0  0  0  0  0  0  0  0
  -70.6960  -48.4322  -75.5326 H   0  0  0  0  0  0  0  0  0  0  0  0
  -69.5790  -46.0910  -75.3500 H   0  0  0  0  0  0  0  0  0  0  0  0
  -69.0427  -44.1575  -73.4044 H   0  0  0  0  0  0  0  0  0  0  0  0
  -69.3633  -43.7194  -70.9554 H   0  0  0  0  0  0  0  0  0  0  0  0
  -70.5056  -45.3804  -69.5161 H   0  0  0  0  0  0  0  0  0  0  0  0
  -71.3566  -47.5222  -70.4782 H   0  0  0  0  0  0  0  0  0  0  0  0
  -72.4114  -51.5695  -75.4094 H   0  0  0  0  0  0  0  0  0  0  0  0
  -74.1050  -51.3144  -74.7581 H   0  0  0  0  0  0  0  0  0  0  0  0
  1  2  1  0
  2  3  1  0
  3  4  1  0
  4  5  1  0
  5  6  1  0
  6  7  1  0
  7  8  1  0
  8  9  1  0
  9 10  1  0
 10 11  2  0
 10 12  1  0
 12 13  2  0
 13 14  1  0
 14 15  1  0
 15 16  2  0
 16 17  1  0
 17 18  2  0
 18 19  1  0
 19 20  2  0
  8 21  1  0
  6  2  1  0
 20 12  1  0
 21  3  1  0
 20 15  1  0
  1 22  1  0
  1 23  1  0
  1 24  1  0
  2 25  1  6
  3 26  1  6
  4 27  1  0
  4 28  1  0
  5 29  1  0
  5 30  1  0
  6 31  1  6
  7 32  1  0
  7 33  1  0
  8 34  1  6
 13 35  1  0
 14 36  1  0
 16 37  1  0
 17 38  1  0
 18 39  1  0
 19 40  1  0
 21 41  1  0
 21 42  1  0
M  CHG  1   2   1
M  END
>  <meeko>  (5) 
{"is_sidechain": [false], "free_energy": -7.947, "intermolecular_energy": -9.842, "internal_energy": 0.083}

$$$$
2wnc_ligand
     RDKit          3D

 42 45  0  0  0  0  0  0  0  0999 V2000
  -70.1930  -46.0940  -74.2660 C   0  0  0  0  0  0  0  0  0  0  0  0
  -70.6770  -47.2710  -73.4640 N   0  0  2  0  0  0  0  0  0  0  0  0
  -71.7930  -46.9560  -72.4860 C   0  0  2  0  0  0  0  0  0  0  0  0
  -71.0440  -46.3220  -71.3090 C   0  0  0  0  0  0  0  0  0  0  0  0
  -69.6480  -46.9350  -71.3390 C   0  0  0  0  0  0  0  0  0  0  0  0
  -69.6370  -47.8790  -72.5450 C   0  0  1  0  0  0  0  0  0  0  0  0
  -70.1030  -49.2890  -72.1580 C   0  0  0  0  0  0  0  0  0  0  0  0
  -71.6130  -49.5210  -72.3270 C   0  0  1  0  0  0  0  0  0  0  0  0
  -72.0690  -50.5640  -71.4500 O   0  0  0  0  0  0  0  0  0  0  0  0
  -72.0250  -51.8340  -71.9680 C   0  0  0  0  0  0  0  0  0  0  0  0
  -72.6250  -52.1550  -72.9890 O   0  0  0  0  0  0  0  0  0  0  0  0
  -71.1940  -52.7350  -71.1840 C   0  0  0  0  0  0  0  0  0  0  0  0
  -70.3120  -52.3700  -70.1790 C   0  0  0  0  0  0  0  0  0  0  0  0
  -69.7200  -53.5010  -69.6860 N   0  0  0  0  0  0  0  0  0  0  0  0
  -70.1920  -54.6100  -70.3470 C   0  0  0  0  0  0  0  0  0  0  0  0
  -69.8690  -55.9610  -70.1770 C   0  0  0  0  0  0  0  0  0  0  0  0
  -70.5130  -56.8910  -70.9990 C   0  0  0  0  0  0  0  0  0  0  0  0
  -71.4410  -56.4820  -71.9510 C   0  0  0  0  0  0  0  0  0  0  0  0
  -71.7530  -55.1270  -72.1080 C   0  0  0  0  0  0  0  0  0  0  0  0
  -71.1180  -54.1650  -71.2920 C   0  0  0  0  0  0  0  0  0  0  0  0
  -72.4660  -48.2720  -72.0740 C   0  0  0  0  0  0  0  0  0  0  0  0
  -69.8647  -45.2957  -73.5841 H   0  0  0  0  0  0  0  0  0  0  0  0
  -69.3495  -46.4044  -74.9002 H   0  0  0  0  0  0  0  0  0  0  0  0
  -71.0108  -45.7212  -74.9002 H   0  0  0  0  0  0  0  0  0  0  0  0
  -70.9860  -47.9560  -74.1690 H   0  0  0  0  0  0  0  0  0  0  0  0
  -72.5836  -46.3005  -72.8802 H   0  0  0  0  0  0  0  0  0  0  0  0
  -70.9876  -45.2304  -71.4320 H   0  0  0  0  0  0  0  0  0  0  0  0
  -71.5525  -46.5100  -70.3519 H   0  0  0  0  0  0  0  0  0  0  0  0
  -68.8867  -46.1501  -71.4591 H   0  0  0  0  0  0  0  0  0  0  0  0
  -69.4175  -47.4671  -70.4042 H   0  0  0  0  0  0  0  0  0  0  0  0
  -68.6322  -47.9786  -72.9814 H   0  0  0  0  0  0  0  0  0  0  0  0
  -69.5695  -50.0144  -72.7898 H   0  0  0  0  0  0  0  0  0  0  0  0
  -69.8816  -49.4129  -71.0877 H   0  0  0  0  0  0  0  0  0  0  0  0
  -71.7426  -49.8064  -73.3814 H   0  0  0  0  0  0  0  0  0  0  0  0
  -70.1200  -51.3429  -69.8352 H   0  0  0  0  0  0  0  0  0  0  0  0
  -69.0340  -53.5300  -68.9430 H   0  0  0  0  0  0  0  0  0  0  0  0
  -69.1343  -56.2802  -69.4232 H   0  0  0  0  0  0  0  0  0  0  0  0
  -70.2825  -57.9612  -70.8912 H   0  0  0  0  0  0  0  0  0  0  0  0
  -71.9347  -57.2315  -72.5870 H   0  0  0  0  0  0  0  0  0  0  0  0
  -72.4888  -54.8128  -72.8629 H   0  0  0  0  0  0  0  0  0  0  0  0
  -73.4025  -48.3731  -72.6421 H   0  0  0  0  0  0  0  0  0  0  0  0
  -72.6301  -48.2163  -70.9877 H   0  0  0  0  0  0  0  0  0  0  0  0
  1  2  1  0
  2  3  1  0
  3  4  1  0
  4  5  1  0
  5  6  1  0
  6  7  1  0
  7  8  1  0
  8  9  1  0
  9 10  1  0
 10 11  2  0
 10 12  1  0
 12 13  2  0
 13 14  1  0
 14 15  1  0
 15 16  2  0
 16 17  1  0
 17 18  2  0
 18 19  1  0
 19 20  2  0
  8 21  1  0
  6  2  1  0
 20 12  1  0
 21  3  1  0
 20 15  1  0
  1 22  1  0
  1 23  1  0
  1 24  1  0
  2 25  1  6
  3 26  1  6
  4 27  1  0
  4 28  1  0
  5 29  1  0
  5 30  1  0
  6 31  1  6
  7 32  1  0
  7 33  1  0
  8 34  1  6
 13 35  1  0
 14 36  1  0
 16 37  1  0
 17 38  1  0
 18 39  1  0
 19 40  1  0
 21 41  1  0
 21 42  1  0
M  CHG  1   2   1
M  END
>  <meeko>  (6) 
{"is_sidechain": [false], "free_energy": -7.778, "intermolecular_energy": -9.181, "internal_energy": -0.38}

$$$$
2wnc_ligand
     RDKit          3D

 42 45  0  0  0  0  0  0  0  0999 V2000
  -71.7400  -46.2560  -72.3140 C   0  0  0  0  0  0  0  0  0  0  0  0
  -71.2650  -47.6790  -72.1960 N   0  0  2  0  0  0  0  0  0  0  0  0
  -69.8290  -47.9070  -72.6270 C   0  0  2  0  0  0  0  0  0  0  0  0
  -69.9360  -47.9530  -74.1540 C   0  0  0  0  0  0  0  0  0  0  0  0
  -71.3440  -48.4610  -74.4490 C   0  0  0  0  0  0  0  0  0  0  0  0
  -72.0020  -48.6650  -73.0810 C   0  0  1  0  0  0  0  0  0  0  0  0
  -71.7480  -50.0780  -72.5400 C   0  0  0  0  0  0  0  0  0  0  0  0
  -70.4960  -50.1980  -71.6580 C   0  0  1  0  0  0  0  0  0  0  0  0
  -69.9910  -51.5430  -71.6710 O   0  0  0  0  0  0  0  0  0  0  0  0
  -70.2510  -52.2850  -70.5460 C   0  0  0  0  0  0  0  0  0  0  0  0
  -70.2610  -51.8000  -69.4200 O   0  0  0  0  0  0  0  0  0  0  0  0
  -70.5180  -53.6850  -70.8420 C   0  0  0  0  0  0  0  0  0  0  0  0
  -69.7740  -54.7700  -70.4050 C   0  0  0  0  0  0  0  0  0  0  0  0
  -70.3450  -55.9150  -70.8940 N   0  0  0  0  0  0  0  0  0  0  0  0
  -71.4510  -55.6080  -71.6480 C   0  0  0  0  0  0  0  0  0  0  0  0
  -72.3330  -56.4520  -72.3340 C   0  0  0  0  0  0  0  0  0  0  0  0
  -73.3910  -55.8590  -73.0290 C   0  0  0  0  0  0  0  0  0  0  0  0
  -73.5580  -54.4780  -73.0370 C   0  0  0  0  0  0  0  0  0  0  0  0
  -72.6670  -53.6480  -72.3470 C   0  0  0  0  0  0  0  0  0  0  0  0
  -71.5890  -54.2180  -71.6350 C   0  0  0  0  0  0  0  0  0  0  0  0
  -69.3580  -49.2530  -72.0600 C   0  0  0  0  0  0  0  0  0  0  0  0
  -71.8815  -45.8321  -71.3089 H   0  0  0  0  0  0  0  0  0  0  0  0
  -70.9909  -45.6635  -72.8597 H   0  0  0  0  0  0  0  0  0  0  0  0
  -72.6948  -46.2322  -72.8597 H   0  0  0  0  0  0  0  0  0  0  0  0
  -71.3950  -47.9140  -71.2020 H   0  0  0  0  0  0  0  0  0  0  0  0
  -69.1146  -47.1453  -72.2814 H   0  0  0  0  0  0  0  0  0  0  0  0
  -69.7925  -46.9490  -74.5798 H   0  0  0  0  0  0  0  0  0  0  0  0
  -69.1667  -48.6022  -74.5976 H   0  0  0  0  0  0  0  0  0  0  0  0
  -71.9042  -47.7200  -75.0381 H   0  0  0  0  0  0  0  0  0  0  0  0
  -71.3270  -49.3913  -75.0358 H   0  0  0  0  0  0  0  0  0  0  0  0
  -73.0924  -48.5264  -73.1246 H   0  0  0  0  0  0  0  0  0  0  0  0
  -72.6209  -50.3812  -71.9433 H   0  0  0  0  0  0  0  0  0  0  0  0
  -71.5833  -50.7263  -73.4132 H   0  0  0  0  0  0  0  0  0  0  0  0
  -70.8286  -49.9100  -70.6498 H   0  0  0  0  0  0  0  0  0  0  0  0
  -68.8759  -54.7198  -69.7718 H   0  0  0  0  0  0  0  0  0  0  0  0
  -70.0090  -56.8550  -70.7300 H   0  0  0  0  0  0  0  0  0  0  0  0
  -72.1980  -57.5437  -72.3262 H   0  0  0  0  0  0  0  0  0  0  0  0
  -74.1021  -56.4939  -73.5778 H   0  0  0  0  0  0  0  0  0  0  0  0
  -74.3983  -54.0341  -73.5909 H   0  0  0  0  0  0  0  0  0  0  0  0
  -72.8058  -52.5569  -72.3593 H   0  0  0  0  0  0  0  0  0  0  0  0
  -68.7424  -49.0560  -71.1699 H   0  0  0  0  0  0  0  0  0  0  0  0
  -68.7982  -49.7556  -72.8625 H   0  0  0  0  0  0  0  0  0  0  0  0
  1  2  1  0
  2  3  1  0
  3  4  1  0
  4  5  1  0
  5  6  1  0
  6  7  1  0
  7  8  1  0
  8  9  1  0
  9 10  1  0
 10 11  2  0
 10 12  1  0
 12 13  2  0
 13 14  1  0
 14 15  1  0
 15 16  2  0
 16 17  1  0
 17 18  2  0
 18 19  1  0
 19 20  2  0
  8 21  1  0
  6  2  1  0
 20 12  1  0
 21  3  1  0
 20 15  1  0
  1 22  1  0
  1 23  1  0
  1 24  1  0
  2 25  1  1
  3 26  1  6
  4 27  1  0
  4 28  1  0
  5 29  1  0
  5 30  1  0
  6 31  1  6
  7 32  1  0
  7 33  1  0
  8 34  1  1
 13 35  1  0
 14 36  1  0
 16 37  1  0
 17 38  1  0
 18 39  1  0
 19 40  1  0
 21 41  1  0
 21 42  1  0
M  CHG  1   2   1
M  END
>  <meeko>  (7) 
{"is_sidechain": [false], "free_energy": -7.656, "intermolecular_energy": -8.75, "internal_energy": -0.667}

$$$$
2wnc_ligand
     RDKit          3D

 42 45  0  0  0  0  0  0  0  0999 V2000
  -74.6260  -57.5910  -72.3420 C   0  0  0  0  0  0  0  0  0  0  0  0
  -73.4730  -56.6380  -72.1850 N   0  0  2  0  0  0  0  0  0  0  0  0
  -73.6610  -55.2970  -72.8680 C   0  0  2  0  0  0  0  0  0  0  0  0
  -73.3440  -55.6130  -74.3320 C   0  0  0  0  0  0  0  0  0  0  0  0
  -72.3660  -56.7830  -74.2940 C   0  0  0  0  0  0  0  0  0  0  0  0
  -72.1750  -57.1110  -72.8090 C   0  0  1  0  0  0  0  0  0  0  0  0
  -71.0250  -56.3000  -72.1980 C   0  0  0  0  0  0  0  0  0  0  0  0
  -71.4590  -54.9660  -71.5730 C   0  0  1  0  0  0  0  0  0  0  0  0
  -70.3680  -54.0320  -71.5580 O   0  0  0  0  0  0  0  0  0  0  0  0
  -70.3790  -53.1230  -70.5290 C   0  0  0  0  0  0  0  0  0  0  0  0
  -70.7220  -53.4180  -69.3890 O   0  0  0  0  0  0  0  0  0  0  0  0
  -69.9370  -51.7990  -70.9390 C   0  0  0  0  0  0  0  0  0  0  0  0
  -68.6870  -51.2470  -70.7110 C   0  0  0  0  0  0  0  0  0  0  0  0
  -68.6610  -49.9880  -71.2490 N   0  0  0  0  0  0  0  0  0  0  0  0
  -69.8730  -49.6950  -71.8270 C   0  0  0  0  0  0  0  0  0  0  0  0
  -70.2960  -48.5350  -72.4880 C   0  0  0  0  0  0  0  0  0  0  0  0
  -71.6020  -48.5120  -72.9860 C   0  0  0  0  0  0  0  0  0  0  0  0
  -72.4480  -49.6050  -72.8290 C   0  0  0  0  0  0  0  0  0  0  0  0
  -72.0090  -50.7570  -72.1660 C   0  0  0  0  0  0  0  0  0  0  0  0
  -70.6950  -50.8100  -71.6520 C   0  0  0  0  0  0  0  0  0  0  0  0
  -72.6480  -54.3050  -72.2800 C   0  0  0  0  0  0  0  0  0  0  0  0
  -74.9905  -57.8923  -71.3489 H   0  0  0  0  0  0  0  0  0  0  0  0
  -75.4376  -57.0966  -72.8960 H   0  0  0  0  0  0  0  0  0  0  0  0
  -74.2932  -58.4811  -72.8960 H   0  0  0  0  0  0  0  0  0  0  0  0
  -73.3670  -56.5240  -71.1670 H   0  0  0  0  0  0  0  0  0  0  0  0
  -74.6584  -54.8498  -72.7443 H   0  0  0  0  0  0  0  0  0  0  0  0
  -74.2602  -55.8952  -74.8714 H   0  0  0  0  0  0  0  0  0  0  0  0
  -72.9194  -54.7431  -74.8545 H   0  0  0  0  0  0  0  0  0  0  0  0
  -72.7827  -57.6495  -74.8283 H   0  0  0  0  0  0  0  0  0  0  0  0
  -71.4124  -56.5330  -74.7820 H   0  0  0  0  0  0  0  0  0  0  0  0
  -71.9419  -58.1740  -72.6488 H   0  0  0  0  0  0  0  0  0  0  0  0
  -70.5506  -56.9098  -71.4150 H   0  0  0  0  0  0  0  0  0  0  0  0
  -70.3382  -56.0550  -73.0215 H   0  0  0  0  0  0  0  0  0  0  0  0
  -71.7768  -55.2196  -70.5509 H   0  0  0  0  0  0  0  0  0  0  0  0
  -67.8545  -51.7379  -70.1856 H   0  0  0  0  0  0  0  0  0  0  0  0
  -67.8720  -49.3560  -71.2300 H   0  0  0  0  0  0  0  0  0  0  0  0
  -69.6244  -47.6726  -72.6109 H   0  0  0  0  0  0  0  0  0  0  0  0
  -71.9662  -47.6160  -73.5100 H   0  0  0  0  0  0  0  0  0  0  0  0
  -73.4716  -49.5636  -73.2296 H   0  0  0  0  0  0  0  0  0  0  0  0
  -72.6845  -51.6169  -72.0460 H   0  0  0  0  0  0  0  0  0  0  0  0
  -73.1716  -53.6680  -71.5519 H   0  0  0  0  0  0  0  0  0  0  0  0
  -72.2359  -53.7353  -73.1259 H   0  0  0  0  0  0  0  0  0  0  0  0
  1  2  1  0
  2  3  1  0
  3  4  1  0
  4  5  1  0
  5  6  1  0
  6  7  1  0
  7  8  1  0
  8  9  1  0
  9 10  1  0
 10 11  2  0
 10 12  1  0
 12 13  2  0
 13 14  1  0
 14 15  1  0
 15 16  2  0
 16 17  1  0
 17 18  2  0
 18 19  1  0
 19 20  2  0
  8 21  1  0
  6  2  1  0
 20 12  1  0
 21  3  1  0
 20 15  1  0
  1 22  1  0
  1 23  1  0
  1 24  1  0
  2 25  1  1
  3 26  1  6
  4 27  1  0
  4 28  1  0
  5 29  1  0
  5 30  1  0
  6 31  1  6
  7 32  1  0
  7 33  1  0
  8 34  1  1
 13 35  1  0
 14 36  1  0
 16 37  1  0
 17 38  1  0
 18 39  1  0
 19 40  1  0
 21 41  1  0
 21 42  1  0
M  CHG  1   2   1
M  END
>  <meeko>  (8) 
{"is_sidechain": [false], "free_energy": -7.528, "intermolecular_energy": -8.584, "internal_energy": -0.683}

$$$$
2wnc_ligand
     RDKit          3D

 42 45  0  0  0  0  0  0  0  0999 V2000
  -70.0500  -46.9580  -74.1150 C   0  0  0  0  0  0  0  0  0  0  0  0
  -70.8260  -48.1920  -73.7410 N   0  0  2  0  0  0  0  0  0  0  0  0
  -72.2970  -48.1520  -74.1100 C   0  0  2  0  0  0  0  0  0  0  0  0
  -72.9040  -47.2970  -72.9930 C   0  0  0  0  0  0  0  0  0  0  0  0
  -72.0040  -47.5130  -71.7810 C   0  0  0  0  0  0  0  0  0  0  0  0
  -70.8990  -48.4640  -72.2520 C   0  0  1  0  0  0  0  0  0  0  0  0
  -71.2980  -49.9310  -72.0500 C   0  0  0  0  0  0  0  0  0  0  0  0
  -71.9940  -50.5660  -73.2650 C   0  0  1  0  0  0  0  0  0  0  0  0
  -72.8320  -51.6600  -72.8580 O   0  0  0  0  0  0  0  0  0  0  0  0
  -72.9460  -52.6870  -73.7610 C   0  0  0  0  0  0  0  0  0  0  0  0
  -73.0280  -52.5000  -74.9700 O   0  0  0  0  0  0  0  0  0  0  0  0
  -72.9500  -53.9980  -73.1290 C   0  0  0  0  0  0  0  0  0  0  0  0
  -72.0430  -54.4540  -72.1860 C   0  0  0  0  0  0  0  0  0  0  0  0
  -72.3830  -55.7340  -71.8360 N   0  0  0  0  0  0  0  0  0  0  0  0
  -73.4980  -56.1340  -72.5330 C   0  0  0  0  0  0  0  0  0  0  0  0
  -74.1900  -57.3510  -72.4970 C   0  0  0  0  0  0  0  0  0  0  0  0
  -75.3090  -57.4850  -73.3230 C   0  0  0  0  0  0  0  0  0  0  0  0
  -75.7180  -56.4440  -74.1510 C   0  0  0  0  0  0  0  0  0  0  0  0
  -75.0140  -55.2340  -74.1750 C   0  0  0  0  0  0  0  0  0  0  0  0
  -73.8790  -55.0690  -73.3510 C   0  0  0  0  0  0  0  0  0  0  0  0
  -72.8470  -49.5840  -74.0770 C   0  0  0  0  0  0  0  0  0  0  0  0
  -69.7237  -46.4392  -73.2016 H   0  0  0  0  0  0  0  0  0  0  0  0
  -69.1692  -47.2445  -74.7084 H   0  0  0  0  0  0  0  0  0  0  0  0
  -70.6898  -46.2883  -74.7084 H   0  0  0  0  0  0  0  0  0  0  0  0
  -70.3430  -48.9600  -74.2280 H   0  0  0  0  0  0  0  0  0  0  0  0
  -72.5133  -47.7479  -75.1100 H   0  0  0  0  0  0  0  0  0  0  0  0
  -72.9117  -46.2357  -73.2821 H   0  0  0  0  0  0  0  0  0  0  0  0
  -73.9463  -47.5791  -72.7832 H   0  0  0  0  0  0  0  0  0  0  0  0
  -71.5722  -46.5576  -71.4484 H   0  0  0  0  0  0  0  0  0  0  0  0
  -72.5620  -47.9281  -70.9287 H   0  0  0  0  0  0  0  0  0  0  0  0
  -69.9582  -48.3064  -71.7042 H   0  0  0  0  0  0  0  0  0  0  0  0
  -70.3881  -50.5094  -71.8319 H   0  0  0  0  0  0  0  0  0  0  0  0
  -72.0231  -49.9512  -71.2231 H   0  0  0  0  0  0  0  0  0  0  0  0
  -71.1760  -50.9139  -73.9129 H   0  0  0  0  0  0  0  0  0  0  0  0
  -71.1921  -53.8835  -71.7854 H   0  0  0  0  0  0  0  0  0  0  0  0
  -71.8930  -56.3100  -71.1650 H   0  0  0  0  0  0  0  0  0  0  0  0
  -73.8642  -58.1723  -71.8417 H   0  0  0  0  0  0  0  0  0  0  0  0
  -75.8754  -58.4280  -73.3187 H   0  0  0  0  0  0  0  0  0  0  0  0
  -76.6023  -56.5729  -74.7924 H   0  0  0  0  0  0  0  0  0  0  0  0
  -75.3433  -54.4159  -74.8325 H   0  0  0  0  0  0  0  0  0  0  0  0
  -72.9086  -49.9539  -75.1111 H   0  0  0  0  0  0  0  0  0  0  0  0
  -73.8286  -49.5344  -73.5831 H   0  0  0  0  0  0  0  0  0  0  0  0
  1  2  1  0
  2  3  1  0
  3  4  1  0
  4  5  1  0
  5  6  1  0
  6  7  1  0
  7  8  1  0
  8  9  1  0
  9 10  1  0
 10 11  2  0
 10 12  1  0
 12 13  2  0
 13 14  1  0
 14 15  1  0
 15 16  2  0
 16 17  1  0
 17 18  2  0
 18 19  1  0
 19 20  2  0
  8 21  1  0
  6  2  1  0
 20 12  1  0
 21  3  1  0
 20 15  1  0
  1 22  1  0
  1 23  1  0
  1 24  1  0
  2 25  1  6
  3 26  1  6
  4 27  1  0
  4 28  1  0
  5 29  1  0
  5 30  1  0
  6 31  1  1
  7 32  1  0
  7 33  1  0
  8 34  1  6
 13 35  1  0
 14 36  1  0
 16 37  1  0
 17 38  1  0
 18 39  1  0
 19 40  1  0
 21 41  1  0
 21 42  1  0
M  CHG  1   2   1
M  END
>  <meeko>  (9) 
{"is_sidechain": [false], "free_energy": -7.488, "intermolecular_energy": -9.072, "internal_energy": -0.148}

$$$$
