3g2n_ligand
     RDKit          3D

 37 38  0  0  0  0  0  0  0  0999 V2000
   32.1560   24.4740   30.2790 O   0  0  0  0  0  0  0  0  0  0  0  0
   33.3500   24.2490   30.1150 C   0  0  0  0  0  0  0  0  0  0  0  0
   33.8340   23.6410   28.9840 N   0  0  0  0  0  0  0  0  0  0  0  0
   32.9770   23.0620   27.9790 C   0  0  2  0  0  0  0  0  0  0  0  0
   32.9830   21.6790   28.3240 O   0  0  0  0  0  0  0  0  0  0  0  0
   32.1690   20.8810   27.4560 C   0  0  2  0  0  0  0  0  0  0  0  0
   32.1410   19.4390   27.9820 C   0  0  0  0  0  0  0  0  0  0  0  0
   30.9260   18.7750   27.6550 O   0  0  0  0  0  0  0  0  0  0  0  0
   32.7260   20.9380   26.0290 C   0  0  1  0  0  0  0  0  0  0  0  0
   31.9450   20.1410   25.1310 O   0  0  0  0  0  0  0  0  0  0  0  0
   32.7250   22.3880   25.5580 C   0  0  2  0  0  0  0  0  0  0  0  0
   33.3160   22.4530   24.2490 O   0  0  0  0  0  0  0  0  0  0  0  0
   33.4830   23.2970   26.5290 C   0  0  1  0  0  0  0  0  0  0  0  0
   33.2930   24.6360   26.0460 O   0  0  0  0  0  0  0  0  0  0  0  0
   34.3460   24.6150   31.1610 C   0  0  0  0  0  0  0  0  0  0  0  0
   33.9710   25.2210   32.3670 C   0  0  0  0  0  0  0  0  0  0  0  0
   34.9430   25.5430   33.3190 C   0  0  0  0  0  0  0  0  0  0  0  0
   36.2860   25.2560   33.0720 C   0  0  0  0  0  0  0  0  0  0  0  0
   36.6620   24.6390   31.8790 C   0  0  0  0  0  0  0  0  0  0  0  0
   35.6940   24.3160   30.9260 C   0  0  0  0  0  0  0  0  0  0  0  0
   34.7700   23.2650   28.9870 H   0  0  0  0  0  0  0  0  0  0  0  0
   31.9746   23.5149   27.9729 H   0  0  0  0  0  0  0  0  0  0  0  0
   31.1402   21.2698   27.4362 H   0  0  0  0  0  0  0  0  0  0  0  0
   32.9800   18.8829   27.5382 H   0  0  0  0  0  0  0  0  0  0  0  0
   32.2231   19.4760   29.0783 H   0  0  0  0  0  0  0  0  0  0  0  0
   31.1540   18.0610   27.0200 H   0  0  0  0  0  0  0  0  0  0  0  0
   33.7497   20.5355   26.0346 H   0  0  0  0  0  0  0  0  0  0  0  0
   32.2390   20.4140   24.2350 H   0  0  0  0  0  0  0  0  0  0  0  0
   31.6855   22.7458   25.5205 H   0  0  0  0  0  0  0  0  0  0  0  0
   33.9700   21.7230   24.2350 H   0  0  0  0  0  0  0  0  0  0  0  0
   34.5615   23.0850   26.5712 H   0  0  0  0  0  0  0  0  0  0  0  0
   32.6710   25.0890   26.6610 H   0  0  0  0  0  0  0  0  0  0  0  0
   32.9121   25.4435   32.5650 H   0  0  0  0  0  0  0  0  0  0  0  0
   34.6487   26.0232   34.2639 H   0  0  0  0  0  0  0  0  0  0  0  0
   37.0496   25.5169   33.8196 H   0  0  0  0  0  0  0  0  0  0  0  0
   37.7203   24.4070   31.6890 H   0  0  0  0  0  0  0  0  0  0  0  0
   35.9911   23.8251   29.9875 H   0  0  0  0  0  0  0  0  0  0  0  0
  1  2  2  0
  2  3  1  0
  3  4  1  0
  4  5  1  0
  5  6  1  0
  6  7  1  0
  7  8  1  0
  6  9  1  0
  9 10  1  0
  9 11  1  0
 11 12  1  0
 11 13  1  0
 13 14  1  0
  2 15  1  0
 15 16  2  0
 16 17  1  0
 17 18  2  0
 18 19  1  0
 19 20  2  0
 13  4  1  0
 20 15  1  0
  3 21  1  0
  4 22  1  6
  6 23  1  6
  7 24  1  0
  7 25  1  0
  8 26  1  0
  9 27  1  1
 10 28  1  0
 11 29  1  6
 12 30  1  0
 13 31  1  1
 14 32  1  0
 16 33  1  0
 17 34  1  0
 18 35  1  0
 19 36  1  0
 20 37  1  0
M  END
>  <meeko>  (1) 
{"is_sidechain": [false], "free_energy": -9.453, "intermolecular_energy": -12.216, "internal_energy": -0.6}

$$$$
3g2n_ligand
     RDKit          3D

 37 38  0  0  0  0  0  0  0  0999 V2000
   34.0090   24.9560   29.6100 O   0  0  0  0  0  0  0  0  0  0  0  0
   34.9660   24.2010   29.4700 C   0  0  0  0  0  0  0  0  0  0  0  0
   34.9670   23.1800   28.5520 N   0  0  0  0  0  0  0  0  0  0  0  0
   33.7960   22.7990   27.8020 C   0  0  2  0  0  0  0  0  0  0  0  0
   33.6420   21.4240   28.1430 O   0  0  0  0  0  0  0  0  0  0  0  0
   32.5070   20.8150   27.5170 C   0  0  2  0  0  0  0  0  0  0  0  0
   32.3560   19.3800   28.0420 C   0  0  0  0  0  0  0  0  0  0  0  0
   33.1970   18.4660   27.3480 O   0  0  0  0  0  0  0  0  0  0  0  0
   32.6860   20.8300   25.9940 C   0  0  1  0  0  0  0  0  0  0  0  0
   31.5750   20.2170   25.3300 O   0  0  0  0  0  0  0  0  0  0  0  0
   32.8250   22.2760   25.5300 C   0  0  2  0  0  0  0  0  0  0  0  0
   33.0680   22.2890   24.1130 O   0  0  0  0  0  0  0  0  0  0  0  0
   33.9530   23.0010   26.2700 C   0  0  1  0  0  0  0  0  0  0  0  0
   33.8890   24.3700   25.8430 O   0  0  0  0  0  0  0  0  0  0  0  0
   36.1830   24.3480   30.3150 C   0  0  0  0  0  0  0  0  0  0  0  0
   36.4410   25.5090   31.0550 C   0  0  0  0  0  0  0  0  0  0  0  0
   37.5970   25.5980   31.8360 C   0  0  0  0  0  0  0  0  0  0  0  0
   38.4910   24.5280   31.8860 C   0  0  0  0  0  0  0  0  0  0  0  0
   38.2300   23.3630   31.1640 C   0  0  0  0  0  0  0  0  0  0  0  0
   37.0770   23.2710   30.3830 C   0  0  0  0  0  0  0  0  0  0  0  0
   35.6580   22.4490   28.6270 H   0  0  0  0  0  0  0  0  0  0  0  0
   32.9213   23.4189   28.0485 H   0  0  0  0  0  0  0  0  0  0  0  0
   31.5932   21.3779   27.7582 H   0  0  0  0  0  0  0  0  0  0  0  0
   32.6188   19.3633   29.1100 H   0  0  0  0  0  0  0  0  0  0  0  0
   31.3129   19.0688   27.8833 H   0  0  0  0  0  0  0  0  0  0  0  0
   34.1170   18.6440   27.6460 H   0  0  0  0  0  0  0  0  0  0  0  0
   33.5888   20.2550   25.7403 H   0  0  0  0  0  0  0  0  0  0  0  0
   30.7830   20.5850   25.7780 H   0  0  0  0  0  0  0  0  0  0  0  0
   31.8908   22.8103   25.7573 H   0  0  0  0  0  0  0  0  0  0  0  0
   33.9510   22.7050   24.0170 H   0  0  0  0  0  0  0  0  0  0  0  0
   34.9522   22.6043   26.0370 H   0  0  0  0  0  0  0  0  0  0  0  0
   33.5190   24.3800   24.9310 H   0  0  0  0  0  0  0  0  0  0  0  0
   35.7338   26.3509   31.0216 H   0  0  0  0  0  0  0  0  0  0  0  0
   37.8020   26.5126   32.4117 H   0  0  0  0  0  0  0  0  0  0  0  0
   39.4034   24.6030   32.4958 H   0  0  0  0  0  0  0  0  0  0  0  0
   38.9324   22.5177   31.2103 H   0  0  0  0  0  0  0  0  0  0  0  0
   36.8693   22.3498   29.8188 H   0  0  0  0  0  0  0  0  0  0  0  0
  1  2  2  0
  2  3  1  0
  3  4  1  0
  4  5  1  0
  5  6  1  0
  6  7  1  0
  7  8  1  0
  6  9  1  0
  9 10  1  0
  9 11  1  0
 11 12  1  0
 11 13  1  0
 13 14  1  0
  2 15  1  0
 15 16  2  0
 16 17  1  0
 17 18  2  0
 18 19  1  0
 19 20  2  0
 13  4  1  0
 20 15  1  0
  3 21  1  0
  4 22  1  1
  6 23  1  6
  7 24  1  0
  7 25  1  0
  8 26  1  0
  9 27  1  1
 10 28  1  0
 11 29  1  6
 12 30  1  0
 13 31  1  6
 14 32  1  0
 16 33  1  0
 17 34  1  0
 18 35  1  0
 19 36  1  0
 20 37  1  0
M  END
>  <meeko>  (2) 
{"is_sidechain": [false], "free_energy": -9.367, "intermolecular_energy": -12.092, "internal_energy": -0.613}

$$$$
3g2n_ligand
     RDKit          3D

 37 38  0  0  0  0  0  0  0  0999 V2000
   33.8220   24.4410   31.1830 O   0  0  0  0  0  0  0  0  0  0  0  0
   34.7860   24.3030   30.4380 C   0  0  0  0  0  0  0  0  0  0  0  0
   34.6480   23.9620   29.1150 N   0  0  0  0  0  0  0  0  0  0  0  0
   33.3870   23.5690   28.5350 C   0  0  2  0  0  0  0  0  0  0  0  0
   33.7850   22.9620   27.3090 O   0  0  0  0  0  0  0  0  0  0  0  0
   32.6800   22.4670   26.5440 C   0  0  2  0  0  0  0  0  0  0  0  0
   33.2160   21.7250   25.3110 C   0  0  0  0  0  0  0  0  0  0  0  0
   33.1660   22.5300   24.1400 O   0  0  0  0  0  0  0  0  0  0  0  0
   31.7710   23.6320   26.1350 C   0  0  1  0  0  0  0  0  0  0  0  0
   30.6580   23.1800   25.3560 O   0  0  0  0  0  0  0  0  0  0  0  0
   31.2650   24.3270   27.3950 C   0  0  2  0  0  0  0  0  0  0  0  0
   30.4740   25.4650   27.0130 O   0  0  0  0  0  0  0  0  0  0  0  0
   32.4200   24.7610   28.3020 C   0  0  1  0  0  0  0  0  0  0  0  0
   31.8110   25.2720   29.4970 O   0  0  0  0  0  0  0  0  0  0  0  0
   36.1740   24.4850   30.9450 C   0  0  0  0  0  0  0  0  0  0  0  0
   36.5360   25.5700   31.7530 C   0  0  0  0  0  0  0  0  0  0  0  0
   37.8530   25.6950   32.2060 C   0  0  0  0  0  0  0  0  0  0  0  0
   38.8050   24.7360   31.8620 C   0  0  0  0  0  0  0  0  0  0  0  0
   38.4460   23.6450   31.0710 C   0  0  0  0  0  0  0  0  0  0  0  0
   37.1320   23.5170   30.6160 C   0  0  0  0  0  0  0  0  0  0  0  0
   35.4520   23.6310   28.6040 H   0  0  0  0  0  0  0  0  0  0  0  0
   32.8116   22.9030   29.1948 H   0  0  0  0  0  0  0  0  0  0  0  0
   32.0852   21.7657   27.1476 H   0  0  0  0  0  0  0  0  0  0  0  0
   34.2604   21.4346   25.4977 H   0  0  0  0  0  0  0  0  0  0  0  0
   32.5809   20.8426   25.1434 H   0  0  0  0  0  0  0  0  0  0  0  0
   33.7310   23.3160   24.3100 H   0  0  0  0  0  0  0  0  0  0  0  0
   32.3530   24.3309   25.5163 H   0  0  0  0  0  0  0  0  0  0  0  0
   31.0060   22.4190   24.8420 H   0  0  0  0  0  0  0  0  0  0  0  0
   30.6506   23.6167   27.9678 H   0  0  0  0  0  0  0  0  0  0  0  0
   29.6290   25.3540   27.4980 H   0  0  0  0  0  0  0  0  0  0  0  0
   33.0490   25.5479   27.8601 H   0  0  0  0  0  0  0  0  0  0  0  0
   31.2640   24.5500   29.8850 H   0  0  0  0  0  0  0  0  0  0  0  0
   35.7846   26.3236   32.0312 H   0  0  0  0  0  0  0  0  0  0  0  0
   38.1385   26.5513   32.8348 H   0  0  0  0  0  0  0  0  0  0  0  0
   39.8415   24.8402   32.2153 H   0  0  0  0  0  0  0  0  0  0  0  0
   39.1970   22.8862   30.8058 H   0  0  0  0  0  0  0  0  0  0  0  0
   36.8481   22.6531   29.9971 H   0  0  0  0  0  0  0  0  0  0  0  0
  1  2  2  0
  2  3  1  0
  3  4  1  0
  4  5  1  0
  5  6  1  0
  6  7  1  0
  7  8  1  0
  6  9  1  0
  9 10  1  0
  9 11  1  0
 11 12  1  0
 11 13  1  0
 13 14  1  0
  2 15  1  0
 15 16  2  0
 16 17  1  0
 17 18  2  0
 18 19  1  0
 19 20  2  0
 13  4  1  0
 20 15  1  0
  3 21  1  0
  4 22  1  1
  6 23  1  1
  7 24  1  0
  7 25  1  0
  8 26  1  0
  9 27  1  6
 10 28  1  0
 11 29  1  1
 12 30  1  0
 13 31  1  6
 14 32  1  0
 16 33  1  0
 17 34  1  0
 18 35  1  0
 19 36  1  0
 20 37  1  0
M  END
>  <meeko>  (3) 
{"is_sidechain": [false], "free_energy": -8.573, "intermolecular_energy": -11.131, "internal_energy": -0.547}

$$$$
3g2n_ligand
     RDKit          3D

 37 38  0  0  0  0  0  0  0  0999 V2000
   33.8340   24.7650   28.0250 O   0  0  0  0  0  0  0  0  0  0  0  0
   34.2590   23.6420   28.2710 C   0  0  0  0  0  0  0  0  0  0  0  0
   35.1500   23.4000   29.2880 N   0  0  0  0  0  0  0  0  0  0  0  0
   35.7910   24.4550   30.0340 C   0  0  2  0  0  0  0  0  0  0  0  0
   36.9730   23.8210   30.5150 O   0  0  0  0  0  0  0  0  0  0  0  0
   37.8020   24.6950   31.2900 C   0  0  2  0  0  0  0  0  0  0  0  0
   39.1010   23.9610   31.6540 C   0  0  0  0  0  0  0  0  0  0  0  0
   40.0320   24.8160   32.3060 O   0  0  0  0  0  0  0  0  0  0  0  0
   37.0480   25.1400   32.5500 C   0  0  1  0  0  0  0  0  0  0  0  0
   37.8490   26.0070   33.3600 O   0  0  0  0  0  0  0  0  0  0  0  0
   35.7740   25.8650   32.1290 C   0  0  2  0  0  0  0  0  0  0  0  0
   35.0280   26.2170   33.3070 O   0  0  0  0  0  0  0  0  0  0  0  0
   34.9180   25.0060   31.1940 C   0  0  1  0  0  0  0  0  0  0  0  0
   33.8320   25.8450   30.7720 O   0  0  0  0  0  0  0  0  0  0  0  0
   33.8360   22.4700   27.4540 C   0  0  0  0  0  0  0  0  0  0  0  0
   33.5430   21.2270   28.0300 C   0  0  0  0  0  0  0  0  0  0  0  0
   33.1470   20.1590   27.2200 C   0  0  0  0  0  0  0  0  0  0  0  0
   33.0360   20.3300   25.8410 C   0  0  0  0  0  0  0  0  0  0  0  0
   33.3110   21.5700   25.2650 C   0  0  0  0  0  0  0  0  0  0  0  0
   33.7070   22.6400   26.0700 C   0  0  0  0  0  0  0  0  0  0  0  0
   35.6490   22.5240   29.3090 H   0  0  0  0  0  0  0  0  0  0  0  0
   35.9831   25.3462   29.4185 H   0  0  0  0  0  0  0  0  0  0  0  0
   38.0546   25.5935   30.7078 H   0  0  0  0  0  0  0  0  0  0  0  0
   38.8593   23.1227   32.3239 H   0  0  0  0  0  0  0  0  0  0  0  0
   39.5626   23.6050   30.7212 H   0  0  0  0  0  0  0  0  0  0  0  0
   40.3030   25.4950   31.6490 H   0  0  0  0  0  0  0  0  0  0  0  0
   36.8053   24.2495   33.1483 H   0  0  0  0  0  0  0  0  0  0  0  0
   38.0250   26.7870   32.7920 H   0  0  0  0  0  0  0  0  0  0  0  0
   36.0520   26.7727   31.5733 H   0  0  0  0  0  0  0  0  0  0  0  0
   35.6800   26.6580   33.8910 H   0  0  0  0  0  0  0  0  0  0  0  0
   34.5048   24.1106   31.6814 H   0  0  0  0  0  0  0  0  0  0  0  0
   33.0350   25.2750   30.6790 H   0  0  0  0  0  0  0  0  0  0  0  0
   33.6245   21.0917   29.1186 H   0  0  0  0  0  0  0  0  0  0  0  0
   32.9225   19.1815   27.6717 H   0  0  0  0  0  0  0  0  0  0  0  0
   32.7309   19.4853   25.2059 H   0  0  0  0  0  0  0  0  0  0  0  0
   33.2160   21.7050   24.1775 H   0  0  0  0  0  0  0  0  0  0  0  0
   33.9182   23.6193   25.6157 H   0  0  0  0  0  0  0  0  0  0  0  0
  1  2  2  0
  2  3  1  0
  3  4  1  0
  4  5  1  0
  5  6  1  0
  6  7  1  0
  7  8  1  0
  6  9  1  0
  9 10  1  0
  9 11  1  0
 11 12  1  0
 11 13  1  0
 13 14  1  0
  2 15  1  0
 15 16  2  0
 16 17  1  0
 17 18  2  0
 18 19  1  0
 19 20  2  0
 13  4  1  0
 20 15  1  0
  3 21  1  0
  4 22  1  6
  6 23  1  6
  7 24  1  0
  7 25  1  0
  8 26  1  0
  9 27  1  1
 10 28  1  0
 11 29  1  6
 12 30  1  0
 13 31  1  1
 14 32  1  0
 16 33  1  0
 17 34  1  0
 18 35  1  0
 19 36  1  0
 20 37  1  0
M  END
>  <meeko>  (4) 
{"is_sidechain": [false], "free_energy": -8.036, "intermolecular_energy": -10.334, "internal_energy": -0.651}

$$$$
3g2n_ligand
     RDKit          3D

 37 38  0  0  0  0  0  0  0  0999 V2000
   37.3650   26.1650   35.7110 O   0  0  0  0  0  0  0  0  0  0  0  0
   38.1670   27.0470   35.4210 C   0  0  0  0  0  0  0  0  0  0  0  0
   38.3540   27.4730   34.1300 N   0  0  0  0  0  0  0  0  0  0  0  0
   37.7630   26.8110   32.9930 C   0  0  2  0  0  0  0  0  0  0  0  0
   36.4270   26.5750   33.4310 O   0  0  0  0  0  0  0  0  0  0  0  0
   35.6200   25.9250   32.4420 C   0  0  2  0  0  0  0  0  0  0  0  0
   34.1770   25.8290   32.9580 C   0  0  0  0  0  0  0  0  0  0  0  0
   34.0690   26.2260   34.3200 O   0  0  0  0  0  0  0  0  0  0  0  0
   36.1920   24.5340   32.1400 C   0  0  1  0  0  0  0  0  0  0  0  0
   35.4040   23.8450   31.1630 O   0  0  0  0  0  0  0  0  0  0  0  0
   37.6200   24.6910   31.6280 C   0  0  2  0  0  0  0  0  0  0  0  0
   38.1840   23.3860   31.4160 O   0  0  0  0  0  0  0  0  0  0  0  0
   38.4850   25.4920   32.6050 C   0  0  1  0  0  0  0  0  0  0  0  0
   39.7480   25.6800   31.9500 O   0  0  0  0  0  0  0  0  0  0  0  0
   39.0000   27.6950   36.4720 C   0  0  0  0  0  0  0  0  0  0  0  0
   40.4000   27.6800   36.4280 C   0  0  0  0  0  0  0  0  0  0  0  0
   41.1370   28.3050   37.4380 C   0  0  0  0  0  0  0  0  0  0  0  0
   40.4820   28.9510   38.4850 C   0  0  0  0  0  0  0  0  0  0  0  0
   39.0870   28.9820   38.5250 C   0  0  0  0  0  0  0  0  0  0  0  0
   38.3470   28.3590   37.5190 C   0  0  0  0  0  0  0  0  0  0  0  0
   39.1720   28.0190   33.9040 H   0  0  0  0  0  0  0  0  0  0  0  0
   37.8307   27.4141   32.0756 H   0  0  0  0  0  0  0  0  0  0  0  0
   35.6240   26.5056   31.5077 H   0  0  0  0  0  0  0  0  0  0  0  0
   33.5372   26.4820   32.3462 H   0  0  0  0  0  0  0  0  0  0  0  0
   33.8599   24.7782   32.8849 H   0  0  0  0  0  0  0  0  0  0  0  0
   34.9560   26.0990   34.7240 H   0  0  0  0  0  0  0  0  0  0  0  0
   36.1772   23.9387   33.0649 H   0  0  0  0  0  0  0  0  0  0  0  0
   34.6710   23.4390   31.6740 H   0  0  0  0  0  0  0  0  0  0  0  0
   37.5959   25.2500   30.6809 H   0  0  0  0  0  0  0  0  0  0  0  0
   38.8640   23.2930   32.1160 H   0  0  0  0  0  0  0  0  0  0  0  0
   38.6545   24.9746   33.5608 H   0  0  0  0  0  0  0  0  0  0  0  0
   39.9450   24.8590   31.4430 H   0  0  0  0  0  0  0  0  0  0  0  0
   40.9191   27.1766   35.5991 H   0  0  0  0  0  0  0  0  0  0  0  0
   42.2364   28.2870   37.4064 H   0  0  0  0  0  0  0  0  0  0  0  0
   41.0652   29.4371   39.2810 H   0  0  0  0  0  0  0  0  0  0  0  0
   38.5713   29.4971   39.3489 H   0  0  0  0  0  0  0  0  0  0  0  0
   37.2478   28.3893   37.5481 H   0  0  0  0  0  0  0  0  0  0  0  0
  1  2  2  0
  2  3  1  0
  3  4  1  0
  4  5  1  0
  5  6  1  0
  6  7  1  0
  7  8  1  0
  6  9  1  0
  9 10  1  0
  9 11  1  0
 11 12  1  0
 11 13  1  0
 13 14  1  0
  2 15  1  0
 15 16  2  0
 16 17  1  0
 17 18  2  0
 18 19  1  0
 19 20  2  0
 13  4  1  0
 20 15  1  0
  3 21  1  0
  4 22  1  6
  6 23  1  6
  7 24  1  0
  7 25  1  0
  8 26  1  0
  9 27  1  1
 10 28  1  0
 11 29  1  6
 12 30  1  0
 13 31  1  1
 14 32  1  0
 16 33  1  0
 17 34  1  0
 18 35  1  0
 19 36  1  0
 20 37  1  0
M  END
>  <meeko>  (5) 
{"is_sidechain": [false], "free_energy": -8.032, "intermolecular_energy": -11.22, "internal_energy": 0.241}

$$$$
3g2n_ligand
     RDKit          3D

 37 38  0  0  0  0  0  0  0  0999 V2000
   36.4140   25.8230   36.1620 O   0  0  0  0  0  0  0  0  0  0  0  0
   37.2910   26.4180   35.5460 C   0  0  0  0  0  0  0  0  0  0  0  0
   37.4010   26.3520   34.1790 N   0  0  0  0  0  0  0  0  0  0  0  0
   36.6150   25.4510   33.3730 C   0  0  2  0  0  0  0  0  0  0  0  0
   37.5880   24.8890   32.4950 O   0  0  0  0  0  0  0  0  0  0  0  0
   37.0350   23.9300   31.5870 C   0  0  2  0  0  0  0  0  0  0  0  0
   38.1740   23.2950   30.7760 C   0  0  0  0  0  0  0  0  0  0  0  0
   39.4530   23.6130   31.3110 O   0  0  0  0  0  0  0  0  0  0  0  0
   36.0170   24.6140   30.6670 C   0  0  1  0  0  0  0  0  0  0  0  0
   35.4500   23.6890   29.7330 O   0  0  0  0  0  0  0  0  0  0  0  0
   34.9100   25.2200   31.5230 C   0  0  2  0  0  0  0  0  0  0  0  0
   33.9950   25.9270   30.6700 O   0  0  0  0  0  0  0  0  0  0  0  0
   35.4740   26.1600   32.5930 C   0  0  1  0  0  0  0  0  0  0  0  0
   34.3560   26.5510   33.4030 O   0  0  0  0  0  0  0  0  0  0  0  0
   38.3050   27.2390   36.2640 C   0  0  0  0  0  0  0  0  0  0  0  0
   37.9610   28.0950   37.3180 C   0  0  0  0  0  0  0  0  0  0  0  0
   38.9500   28.8430   37.9630 C   0  0  0  0  0  0  0  0  0  0  0  0
   40.2820   28.7330   37.5630 C   0  0  0  0  0  0  0  0  0  0  0  0
   40.6320   27.8700   36.5240 C   0  0  0  0  0  0  0  0  0  0  0  0
   39.6470   27.1210   35.8780 C   0  0  0  0  0  0  0  0  0  0  0  0
   38.2570   26.6530   33.7370 H   0  0  0  0  0  0  0  0  0  0  0  0
   36.0801   24.7053   33.9795 H   0  0  0  0  0  0  0  0  0  0  0  0
   36.5121   23.1384   32.1437 H   0  0  0  0  0  0  0  0  0  0  0  0
   38.0482   22.2022   30.7831 H   0  0  0  0  0  0  0  0  0  0  0  0
   38.1256   23.6954   29.7526 H   0  0  0  0  0  0  0  0  0  0  0  0
   39.5660   24.5850   31.2190 H   0  0  0  0  0  0  0  0  0  0  0  0
   36.5334   25.3975   30.0931 H   0  0  0  0  0  0  0  0  0  0  0  0
   36.1490   23.0140   29.5940 H   0  0  0  0  0  0  0  0  0  0  0  0
   34.3853   24.4074   32.0467 H   0  0  0  0  0  0  0  0  0  0  0  0
   34.1420   25.5460   29.7780 H   0  0  0  0  0  0  0  0  0  0  0  0
   35.9418   27.0639   32.1758 H   0  0  0  0  0  0  0  0  0  0  0  0
   34.5940   26.3750   34.3430 H   0  0  0  0  0  0  0  0  0  0  0  0
   36.9120   28.1786   37.6383 H   0  0  0  0  0  0  0  0  0  0  0  0
   38.6778   29.5191   38.7869 H   0  0  0  0  0  0  0  0  0  0  0  0
   41.0577   29.3277   38.0676 H   0  0  0  0  0  0  0  0  0  0  0  0
   41.6836   27.7799   36.2141 H   0  0  0  0  0  0  0  0  0  0  0  0
   39.9250   26.4360   35.0634 H   0  0  0  0  0  0  0  0  0  0  0  0
  1  2  2  0
  2  3  1  0
  3  4  1  0
  4  5  1  0
  5  6  1  0
  6  7  1  0
  7  8  1  0
  6  9  1  0
  9 10  1  0
  9 11  1  0
 11 12  1  0
 11 13  1  0
 13 14  1  0
  2 15  1  0
 15 16  2  0
 16 17  1  0
 17 18  2  0
 18 19  1  0
 19 20  2  0
 13  4  1  0
 20 15  1  0
  3 21  1  0
  4 22  1  1
  6 23  1  1
  7 24  1  0
  7 25  1  0
  8 26  1  0
  9 27  1  6
 10 28  1  0
 11 29  1  1
 12 30  1  0
 13 31  1  6
 14 32  1  0
 16 33  1  0
 17 34  1  0
 18 35  1  0
 19 36  1  0
 20 37  1  0
M  END
>  <meeko>  (6) 
{"is_sidechain": [false], "free_energy": -7.99, "intermolecular_energy": -10.486, "internal_energy": -0.439}

$$$$
3g2n_ligand
     RDKit          3D

 37 38  0  0  0  0  0  0  0  0999 V2000
   35.1070   24.3220   27.7720 O   0  0  0  0  0  0  0  0  0  0  0  0
   35.1280   23.4910   28.6740 C   0  0  0  0  0  0  0  0  0  0  0  0
   34.4530   22.2990   28.5890 N   0  0  0  0  0  0  0  0  0  0  0  0
   33.5310   21.9950   27.5230 C   0  0  2  0  0  0  0  0  0  0  0  0
   32.6630   23.1250   27.5310 O   0  0  0  0  0  0  0  0  0  0  0  0
   31.6470   23.0590   26.5240 C   0  0  2  0  0  0  0  0  0  0  0  0
   30.8480   24.3700   26.5310 C   0  0  0  0  0  0  0  0  0  0  0  0
   31.6910   25.5090   26.4130 O   0  0  0  0  0  0  0  0  0  0  0  0
   30.7340   21.8550   26.7890 C   0  0  1  0  0  0  0  0  0  0  0  0
   29.6950   21.7600   25.8080 O   0  0  0  0  0  0  0  0  0  0  0  0
   31.5780   20.5840   26.7640 C   0  0  2  0  0  0  0  0  0  0  0  0
   30.7390   19.4620   27.0860 O   0  0  0  0  0  0  0  0  0  0  0  0
   32.7530   20.6680   27.7420 C   0  0  1  0  0  0  0  0  0  0  0  0
   33.5320   19.4820   27.5250 O   0  0  0  0  0  0  0  0  0  0  0  0
   35.8840   23.7490   29.9300 C   0  0  0  0  0  0  0  0  0  0  0  0
   37.1780   23.2530   30.1370 C   0  0  0  0  0  0  0  0  0  0  0  0
   37.8480   23.5260   31.3340 C   0  0  0  0  0  0  0  0  0  0  0  0
   37.2330   24.2970   32.3190 C   0  0  0  0  0  0  0  0  0  0  0  0
   35.9510   24.8060   32.1120 C   0  0  0  0  0  0  0  0  0  0  0  0
   35.2790   24.5360   30.9180 C   0  0  0  0  0  0  0  0  0  0  0  0
   34.3020   21.7560   29.4260 H   0  0  0  0  0  0  0  0  0  0  0  0
   34.0412   21.8325   26.5621 H   0  0  0  0  0  0  0  0  0  0  0  0
   32.1045   22.9293   25.5321 H   0  0  0  0  0  0  0  0  0  0  0  0
   30.1434   24.3608   25.6864 H   0  0  0  0  0  0  0  0  0  0  0  0
   30.3170   24.4388   27.4919 H   0  0  0  0  0  0  0  0  0  0  0  0
   31.3520   26.0370   25.6570 H   0  0  0  0  0  0  0  0  0  0  0  0
   30.2584   21.9838   27.7725 H   0  0  0  0  0  0  0  0  0  0  0  0
   29.9320   22.4270   25.1280 H   0  0  0  0  0  0  0  0  0  0  0  0
   32.0014   20.4610   25.7562 H   0  0  0  0  0  0  0  0  0  0  0  0
   29.8810   19.6610   26.6540 H   0  0  0  0  0  0  0  0  0  0  0  0
   32.4405   20.6986   28.7962 H   0  0  0  0  0  0  0  0  0  0  0  0
   33.7460   19.4380   26.5650 H   0  0  0  0  0  0  0  0  0  0  0  0
   37.6668   22.6491   29.3583 H   0  0  0  0  0  0  0  0  0  0  0  0
   38.8617   23.1317   31.4983 H   0  0  0  0  0  0  0  0  0  0  0  0
   37.7600   24.5046   33.2620 H   0  0  0  0  0  0  0  0  0  0  0  0
   35.4699   25.4193   32.8882 H   0  0  0  0  0  0  0  0  0  0  0  0
   34.2705   24.9430   30.7528 H   0  0  0  0  0  0  0  0  0  0  0  0
  1  2  2  0
  2  3  1  0
  3  4  1  0
  4  5  1  0
  5  6  1  0
  6  7  1  0
  7  8  1  0
  6  9  1  0
  9 10  1  0
  9 11  1  0
 11 12  1  0
 11 13  1  0
 13 14  1  0
  2 15  1  0
 15 16  2  0
 16 17  1  0
 17 18  2  0
 18 19  1  0
 19 20  2  0
 13  4  1  0
 20 15  1  0
  3 21  1  0
  4 22  1  6
  6 23  1  6
  7 24  1  0
  7 25  1  0
  8 26  1  0
  9 27  1  1
 10 28  1  0
 11 29  1  6
 12 30  1  0
 13 31  1  1
 14 32  1  0
 16 33  1  0
 17 34  1  0
 18 35  1  0
 19 36  1  0
 20 37  1  0
M  END
>  <meeko>  (7) 
{"is_sidechain": [false], "free_energy": -7.813, "intermolecular_energy": -10.684, "internal_energy": -0.012}

$$$$
3g2n_ligand
     RDKit          3D

 37 38  0  0  0  0  0  0  0  0999 V2000
   38.7870   27.3710   32.1870 O   0  0  0  0  0  0  0  0  0  0  0  0
   38.4030   26.8140   33.2100 C   0  0  0  0  0  0  0  0  0  0  0  0
   37.2940   26.0060   33.2330 N   0  0  0  0  0  0  0  0  0  0  0  0
   36.3930   25.8800   32.1140 C   0  0  2  0  0  0  0  0  0  0  0  0
   35.2100   25.3670   32.7230 O   0  0  0  0  0  0  0  0  0  0  0  0
   34.1410   25.1690   31.7910 C   0  0  2  0  0  0  0  0  0  0  0  0
   32.8830   24.7370   32.5580 C   0  0  0  0  0  0  0  0  0  0  0  0
   31.7230   24.7550   31.7340 O   0  0  0  0  0  0  0  0  0  0  0  0
   34.5460   24.1130   30.7560 C   0  0  1  0  0  0  0  0  0  0  0  0
   33.4960   23.8760   29.8110 O   0  0  0  0  0  0  0  0  0  0  0  0
   35.7940   24.5960   30.0240 C   0  0  2  0  0  0  0  0  0  0  0  0
   36.2190   23.5750   29.1050 O   0  0  0  0  0  0  0  0  0  0  0  0
   36.9240   24.9390   30.9990 C   0  0  1  0  0  0  0  0  0  0  0  0
   37.9760   25.5000   30.2010 O   0  0  0  0  0  0  0  0  0  0  0  0
   39.1240   27.0060   34.4990 C   0  0  0  0  0  0  0  0  0  0  0  0
   40.4650   26.6370   34.6650 C   0  0  0  0  0  0  0  0  0  0  0  0
   41.0980   26.8400   35.8950 C   0  0  0  0  0  0  0  0  0  0  0  0
   40.3990   27.4160   36.9550 C   0  0  0  0  0  0  0  0  0  0  0  0
   39.0680   27.8000   36.7890 C   0  0  0  0  0  0  0  0  0  0  0  0
   38.4320   27.5990   35.5630 C   0  0  0  0  0  0  0  0  0  0  0  0
   36.8790   25.7610   34.1200 H   0  0  0  0  0  0  0  0  0  0  0  0
   36.2440   26.8342   31.5874 H   0  0  0  0  0  0  0  0  0  0  0  0
   33.9255   26.1056   31.2559 H   0  0  0  0  0  0  0  0  0  0  0  0
   33.0324   23.7158   32.9385 H   0  0  0  0  0  0  0  0  0  0  0  0
   32.7258   25.4496   33.3811 H   0  0  0  0  0  0  0  0  0  0  0  0
   31.9470   25.2870   30.9380 H   0  0  0  0  0  0  0  0  0  0  0  0
   34.7477   23.1667   31.2793 H   0  0  0  0  0  0  0  0  0  0  0  0
   33.1330   24.7660   29.6130 H   0  0  0  0  0  0  0  0  0  0  0  0
   35.5469   25.5173   29.4760 H   0  0  0  0  0  0  0  0  0  0  0  0
   37.1250   23.3390   29.3990 H   0  0  0  0  0  0  0  0  0  0  0  0
   37.3166   24.0634   31.5367 H   0  0  0  0  0  0  0  0  0  0  0  0
   37.8850   26.4800   30.2360 H   0  0  0  0  0  0  0  0  0  0  0  0
   41.0198   26.1878   33.8281 H   0  0  0  0  0  0  0  0  0  0  0  0
   42.1494   26.5447   36.0267 H   0  0  0  0  0  0  0  0  0  0  0  0
   40.8977   27.5679   37.9236 H   0  0  0  0  0  0  0  0  0  0  0  0
   38.5201   28.2610   37.6240 H   0  0  0  0  0  0  0  0  0  0  0  0
   37.3842   27.9071   35.4318 H   0  0  0  0  0  0  0  0  0  0  0  0
  1  2  2  0
  2  3  1  0
  3  4  1  0
  4  5  1  0
  5  6  1  0
  6  7  1  0
  7  8  1  0
  6  9  1  0
  9 10  1  0
  9 11  1  0
 11 12  1  0
 11 13  1  0
 13 14  1  0
  2 15  1  0
 15 16  2  0
 16 17  1  0
 17 18  2  0
 18 19  1  0
 19 20  2  0
 13  4  1  0
 20 15  1  0
  3 21  1  0
  4 22  1  6
  6 23  1  6
  7 24  1  0
  7 25  1  0
  8 26  1  0
  9 27  1  1
 10 28  1  0
 11 29  1  6
 12 30  1  0
 13 31  1  1
 14 32  1  0
 16 33  1  0
 17 34  1  0
 18 35  1  0
 19 36  1  0
 20 37  1  0
M  END
>  <meeko>  (8) 
{"is_sidechain": [false], "free_energy": -7.725, "intermolecular_energy": -9.988, "internal_energy": -0.595}

$$$$
3g2n_ligand
     RDKit          3D

 37 38  0  0  0  0  0  0  0  0999 V2000
   35.4260   22.6040   29.9550 O   0  0  0  0  0  0  0  0  0  0  0  0
   35.1180   23.7850   29.8290 C   0  0  0  0  0  0  0  0  0  0  0  0
   35.8160   24.7950   30.4420 N   0  0  0  0  0  0  0  0  0  0  0  0
   36.8530   24.5520   31.4150 C   0  0  2  0  0  0  0  0  0  0  0  0
   36.8980   25.7810   32.1350 O   0  0  0  0  0  0  0  0  0  0  0  0
   37.8670   25.7780   33.1900 C   0  0  2  0  0  0  0  0  0  0  0  0
   37.7520   27.0900   33.9790 C   0  0  0  0  0  0  0  0  0  0  0  0
   37.6540   28.2210   33.1230 O   0  0  0  0  0  0  0  0  0  0  0  0
   39.2730   25.6080   32.6020 C   0  0  1  0  0  0  0  0  0  0  0  0
   40.2730   25.6120   33.6260 O   0  0  0  0  0  0  0  0  0  0  0  0
   39.3290   24.2900   31.8360 C   0  0  2  0  0  0  0  0  0  0  0  0
   40.6220   24.1650   31.2210 O   0  0  0  0  0  0  0  0  0  0  0  0
   38.2260   24.2040   30.7780 C   0  0  1  0  0  0  0  0  0  0  0  0
   38.3070   22.8790   30.2310 O   0  0  0  0  0  0  0  0  0  0  0  0
   33.9420   24.1820   29.0070 C   0  0  0  0  0  0  0  0  0  0  0  0
   32.8390   24.8490   29.5560 C   0  0  0  0  0  0  0  0  0  0  0  0
   31.7600   25.2030   28.7410 C   0  0  0  0  0  0  0  0  0  0  0  0
   31.7820   24.9000   27.3800 C   0  0  0  0  0  0  0  0  0  0  0  0
   32.8850   24.2500   26.8250 C   0  0  0  0  0  0  0  0  0  0  0  0
   33.9650   23.8950   27.6360 C   0  0  0  0  0  0  0  0  0  0  0  0
   35.4020   25.7120   30.5090 H   0  0  0  0  0  0  0  0  0  0  0  0
   36.6392   23.6756   32.0444 H   0  0  0  0  0  0  0  0  0  0  0  0
   37.6803   24.9367   33.8736 H   0  0  0  0  0  0  0  0  0  0  0  0
   36.8539   27.0456   34.6125 H   0  0  0  0  0  0  0  0  0  0  0  0
   38.6627   27.2018   34.5858 H   0  0  0  0  0  0  0  0  0  0  0  0
   37.9170   27.9220   32.2240 H   0  0  0  0  0  0  0  0  0  0  0  0
   39.4776   26.4539   31.9293 H   0  0  0  0  0  0  0  0  0  0  0  0
   40.2740   26.5310   33.9710 H   0  0  0  0  0  0  0  0  0  0  0  0
   39.1657   23.4635   32.5433 H   0  0  0  0  0  0  0  0  0  0  0  0
   40.4330   24.0680   30.2630 H   0  0  0  0  0  0  0  0  0  0  0  0
   38.3473   24.9318   29.9622 H   0  0  0  0  0  0  0  0  0  0  0  0
   39.2580   22.6290   30.1970 H   0  0  0  0  0  0  0  0  0  0  0  0
   32.8221   25.0941   30.6282 H   0  0  0  0  0  0  0  0  0  0  0  0
   30.8919   25.7216   29.1740 H   0  0  0  0  0  0  0  0  0  0  0  0
   30.9283   25.1739   26.7427 H   0  0  0  0  0  0  0  0  0  0  0  0
   32.9038   24.0175   25.7500 H   0  0  0  0  0  0  0  0  0  0  0  0
   34.8369   23.3882   27.1967 H   0  0  0  0  0  0  0  0  0  0  0  0
  1  2  2  0
  2  3  1  0
  3  4  1  0
  4  5  1  0
  5  6  1  0
  6  7  1  0
  7  8  1  0
  6  9  1  0
  9 10  1  0
  9 11  1  0
 11 12  1  0
 11 13  1  0
 13 14  1  0
  2 15  1  0
 15 16  2  0
 16 17  1  0
 17 18  2  0
 18 19  1  0
 19 20  2  0
 13  4  1  0
 20 15  1  0
  3 21  1  0
  4 22  1  1
  6 23  1  1
  7 24  1  0
  7 25  1  0
  8 26  1  0
  9 27  1  6
 10 28  1  0
 11 29  1  1
 12 30  1  0
 13 31  1  6
 14 32  1  0
 16 33  1  0
 17 34  1  0
 18 35  1  0
 19 36  1  0
 20 37  1  0
M  END
>  <meeko>  (9) 
{"is_sidechain": [false], "free_energy": -7.624, "intermolecular_energy": -9.968, "internal_energy": -0.484}

$$$$
