2r9w_ligand
     RDKit          3D

 42 45  0  0  0  0  0  0  0  0999 V2000
   20.0780    5.0370    9.5490 O   0  0  0  0  0  0  0  0  0  0  0  0
   20.2770    4.2410   10.5200 C   0  0  0  0  0  0  0  0  0  0  0  0
   19.6290    3.1690   10.7440 O   0  0  0  0  0  0  0  0  0  0  0  0
   21.3880    4.5930   11.4940 C   0  0  0  0  0  0  0  0  0  0  0  0
   22.7490    4.4330   11.1150 C   0  0  0  0  0  0  0  0  0  0  0  0
   23.7980    4.7660   11.9770 C   0  0  0  0  0  0  0  0  0  0  0  0
   23.4600    5.2550   13.2240 C   0  0  0  0  0  0  0  0  0  0  0  0
   22.1460    5.4130   13.6180 C   0  0  0  0  0  0  0  0  0  0  0  0
   21.0910    5.0930   12.7810 C   0  0  0  0  0  0  0  0  0  0  0  0
   22.1610    5.9750   14.9710 C   0  0  0  0  0  0  0  0  0  0  0  0
   21.1560    6.2630   15.5980 O   0  0  0  0  0  0  0  0  0  0  0  0
   23.4800    6.1240   15.3170 N   0  0  0  0  0  0  0  0  0  0  0  0
   23.9320    6.7000   16.5970 C   0  0  2  0  0  0  0  0  0  0  0  0
   24.4560    8.1420   16.4350 C   0  0  0  0  0  0  0  0  0  0  0  0
   23.5570    9.0330   15.5830 C   0  0  0  0  0  0  0  0  0  0  0  0
   23.8940    9.1570   14.2220 C   0  0  0  0  0  0  0  0  0  0  0  0
   23.1640    9.9790   13.3730 C   0  0  0  0  0  0  0  0  0  0  0  0
   22.0790   10.6920   13.8690 C   0  0  0  0  0  0  0  0  0  0  0  0
   21.7080   10.5940   15.2180 C   0  0  0  0  0  0  0  0  0  0  0  0
   20.6170   11.3400   15.6950 C   0  0  0  0  0  0  0  0  0  0  0  0
   20.2300   11.2760   17.0310 C   0  0  0  0  0  0  0  0  0  0  0  0
   20.9260   10.4570   17.9070 C   0  0  0  0  0  0  0  0  0  0  0  0
   22.0110    9.7060   17.4460 C   0  0  0  0  0  0  0  0  0  0  0  0
   22.4410    9.7540   16.0990 C   0  0  0  0  0  0  0  0  0  0  0  0
   24.9510    5.8110   17.3680 C   0  0  0  0  0  0  0  0  0  0  0  0
   26.0880    6.3320   17.5740 O   0  0  0  0  0  0  0  0  0  0  0  0
   24.5680    4.6370   17.6540 O   0  0  0  0  0  0  0  0  0  0  0  0
   24.3170    5.7280   14.3090 C   0  0  0  0  0  0  0  0  0  0  0  0
   25.5300    5.7920   14.2180 O   0  0  0  0  0  0  0  0  0  0  0  0
   22.9830    4.0363   10.1161 H   0  0  0  0  0  0  0  0  0  0  0  0
   24.8486    4.6438   11.6749 H   0  0  0  0  0  0  0  0  0  0  0  0
   20.0494    5.2246   13.1094 H   0  0  0  0  0  0  0  0  0  0  0  0
   23.0290    6.7355   17.2242 H   0  0  0  0  0  0  0  0  0  0  0  0
   24.5441    8.5931   17.4344 H   0  0  0  0  0  0  0  0  0  0  0  0
   25.4236    8.0743   15.9161 H   0  0  0  0  0  0  0  0  0  0  0  0
   24.7504    8.5931   13.8238 H   0  0  0  0  0  0  0  0  0  0  0  0
   23.4435   10.0653   12.3126 H   0  0  0  0  0  0  0  0  0  0  0  0
   21.5032   11.3423   13.1941 H   0  0  0  0  0  0  0  0  0  0  0  0
   20.0590   11.9857   15.0010 H   0  0  0  0  0  0  0  0  0  0  0  0
   19.3774   11.8715   17.3893 H   0  0  0  0  0  0  0  0  0  0  0  0
   20.6247   10.3984   18.9633 H   0  0  0  0  0  0  0  0  0  0  0  0
   22.5478    9.0567   18.1533 H   0  0  0  0  0  0  0  0  0  0  0  0
  1  2  2  0
  2  3  1  0
  2  4  1  0
  4  5  2  0
  5  6  1  0
  6  7  2  0
  7  8  1  0
  8  9  2  0
  8 10  1  0
 10 11  2  0
 10 12  1  0
 12 13  1  0
 13 14  1  0
 14 15  1  0
 15 16  2  0
 16 17  1  0
 17 18  2  0
 18 19  1  0
 19 20  2  0
 20 21  1  0
 21 22  2  0
 22 23  1  0
 23 24  2  0
 13 25  1  0
 25 26  2  0
 25 27  1  0
 12 28  1  0
 28 29  2  0
  9  4  1  0
 24 15  1  0
 28  7  1  0
 24 19  1  0
  5 30  1  0
  6 31  1  0
  9 32  1  0
 13 33  1  1
 14 34  1  0
 14 35  1  0
 16 36  1  0
 17 37  1  0
 18 38  1  0
 20 39  1  0
 21 40  1  0
 22 41  1  0
 23 42  1  0
M  CHG  2   3  -1  27  -1
M  END
>  <meeko>  (1) 
{"is_sidechain": [false], "free_energy": -8.301, "intermolecular_energy": -10.728, "internal_energy": -1.038}

$$$$
2r9w_ligand
     RDKit          3D

 42 45  0  0  0  0  0  0  0  0999 V2000
   27.1100    5.5430   20.0040 O   0  0  0  0  0  0  0  0  0  0  0  0
   26.4280    6.5860   19.7530 C   0  0  0  0  0  0  0  0  0  0  0  0
   26.6320    7.7410   20.2480 O   0  0  0  0  0  0  0  0  0  0  0  0
   25.2750    6.4480   18.7750 C   0  0  0  0  0  0  0  0  0  0  0  0
   23.9390    6.3590   19.2530 C   0  0  0  0  0  0  0  0  0  0  0  0
   22.8510    6.2510   18.3820 C   0  0  0  0  0  0  0  0  0  0  0  0
   23.1250    6.2280   17.0280 C   0  0  0  0  0  0  0  0  0  0  0  0
   24.4140    6.3060   16.5390 C   0  0  0  0  0  0  0  0  0  0  0  0
   25.5070    6.4160   17.3820 C   0  0  0  0  0  0  0  0  0  0  0  0
   24.3280    6.2840   15.0770 C   0  0  0  0  0  0  0  0  0  0  0  0
   25.2950    6.3680   14.3390 O   0  0  0  0  0  0  0  0  0  0  0  0
   22.9950    6.1930   14.7660 N   0  0  0  0  0  0  0  0  0  0  0  0
   22.4750    6.1830   13.3860 C   0  0  2  0  0  0  0  0  0  0  0  0
   23.3540    5.3450   12.4360 C   0  0  0  0  0  0  0  0  0  0  0  0
   22.9870    5.4960   10.9630 C   0  0  0  0  0  0  0  0  0  0  0  0
   23.7780    6.3760   10.2010 C   0  0  0  0  0  0  0  0  0  0  0  0
   23.5000    6.6150    8.8610 C   0  0  0  0  0  0  0  0  0  0  0  0
   22.4230    5.9760    8.2560 C   0  0  0  0  0  0  0  0  0  0  0  0
   21.6130    5.0890    8.9800 C   0  0  0  0  0  0  0  0  0  0  0  0
   20.5210    4.4710    8.3460 C   0  0  0  0  0  0  0  0  0  0  0  0
   19.6890    3.5950    9.0380 C   0  0  0  0  0  0  0  0  0  0  0  0
   19.9420    3.3210   10.3740 C   0  0  0  0  0  0  0  0  0  0  0  0
   21.0260    3.9260   11.0160 C   0  0  0  0  0  0  0  0  0  0  0  0
   21.8870    4.8290   10.3500 C   0  0  0  0  0  0  0  0  0  0  0  0
   22.2030    7.6000   12.8010 C   0  0  0  0  0  0  0  0  0  0  0  0
   23.1830    8.4030   12.8280 O   0  0  0  0  0  0  0  0  0  0  0  0
   21.0170    7.8310   12.4180 O   0  0  0  0  0  0  0  0  0  0  0  0
   22.2120    6.1730   15.8880 C   0  0  0  0  0  0  0  0  0  0  0  0
   21.0000    6.1860   16.0060 O   0  0  0  0  0  0  0  0  0  0  0  0
   23.7565    6.3756   20.3376 H   0  0  0  0  0  0  0  0  0  0  0  0
   21.8196    6.1870   18.7589 H   0  0  0  0  0  0  0  0  0  0  0  0
   26.5283    6.4768   16.9779 H   0  0  0  0  0  0  0  0  0  0  0  0
   21.4930    5.6928   13.4597 H   0  0  0  0  0  0  0  0  0  0  0  0
   24.4007    5.6573   12.5663 H   0  0  0  0  0  0  0  0  0  0  0  0
   23.1934    4.2891   12.6993 H   0  0  0  0  0  0  0  0  0  0  0  0
   24.6313    6.8834   10.6747 H   0  0  0  0  0  0  0  0  0  0  0  0
   24.1289    7.3065    8.2811 H   0  0  0  0  0  0  0  0  0  0  0  0
   22.2035    6.1689    7.1955 H   0  0  0  0  0  0  0  0  0  0  0  0
   20.3205    4.6831    7.2854 H   0  0  0  0  0  0  0  0  0  0  0  0
   18.8361    3.1230    8.5283 H   0  0  0  0  0  0  0  0  0  0  0  0
   19.2905    2.6286   10.9273 H   0  0  0  0  0  0  0  0  0  0  0  0
   21.2158    3.6922   12.0740 H   0  0  0  0  0  0  0  0  0  0  0  0
  1  2  2  0
  2  3  1  0
  2  4  1  0
  4  5  2  0
  5  6  1  0
  6  7  2  0
  7  8  1  0
  8  9  2  0
  8 10  1  0
 10 11  2  0
 10 12  1  0
 12 13  1  0
 13 14  1  0
 14 15  1  0
 15 16  2  0
 16 17  1  0
 17 18  2  0
 18 19  1  0
 19 20  2  0
 20 21  1  0
 21 22  2  0
 22 23  1  0
 23 24  2  0
 13 25  1  0
 25 26  2  0
 25 27  1  0
 12 28  1  0
 28 29  2  0
  9  4  1  0
 24 15  1  0
 28  7  1  0
 24 19  1  0
  5 30  1  0
  6 31  1  0
  9 32  1  0
 13 33  1  1
 14 34  1  0
 14 35  1  0
 16 36  1  0
 17 37  1  0
 18 38  1  0
 20 39  1  0
 21 40  1  0
 22 41  1  0
 23 42  1  0
M  CHG  2   3  -1  27  -1
M  END
>  <meeko>  (2) 
{"is_sidechain": [false], "free_energy": -8.289, "intermolecular_energy": -11.544, "internal_energy": -0.207}

$$$$
2r9w_ligand
     RDKit          3D

 42 45  0  0  0  0  0  0  0  0999 V2000
   18.7250    2.4160   10.4690 O   0  0  0  0  0  0  0  0  0  0  0  0
   19.2810    3.4930   10.0850 C   0  0  0  0  0  0  0  0  0  0  0  0
   18.9130    4.2040    9.0970 O   0  0  0  0  0  0  0  0  0  0  0  0
   20.4830    3.9770   10.8770 C   0  0  0  0  0  0  0  0  0  0  0  0
   21.6920    3.2290   10.8690 C   0  0  0  0  0  0  0  0  0  0  0  0
   22.8260    3.6550   11.5690 C   0  0  0  0  0  0  0  0  0  0  0  0
   22.7240    4.8360   12.2770 C   0  0  0  0  0  0  0  0  0  0  0  0
   21.5590    5.5760   12.3060 C   0  0  0  0  0  0  0  0  0  0  0  0
   20.4250    5.1760   11.6190 C   0  0  0  0  0  0  0  0  0  0  0  0
   21.8190    6.7670   13.1200 C   0  0  0  0  0  0  0  0  0  0  0  0
   20.9970    7.6450   13.3190 O   0  0  0  0  0  0  0  0  0  0  0  0
   23.1220    6.6770   13.5370 N   0  0  0  0  0  0  0  0  0  0  0  0
   23.7940    7.7060   14.3530 C   0  0  2  0  0  0  0  0  0  0  0  0
   23.0220    8.0160   15.6510 C   0  0  0  0  0  0  0  0  0  0  0  0
   23.6250    7.3710   16.8960 C   0  0  0  0  0  0  0  0  0  0  0  0
   25.0220    7.2010   16.9070 C   0  0  0  0  0  0  0  0  0  0  0  0
   25.6620    6.5850   17.9750 C   0  0  0  0  0  0  0  0  0  0  0  0
   24.9160    6.1280   19.0550 C   0  0  0  0  0  0  0  0  0  0  0  0
   23.5220    6.2820   19.0840 C   0  0  0  0  0  0  0  0  0  0  0  0
   22.7920    5.7950   20.1820 C   0  0  0  0  0  0  0  0  0  0  0  0
   21.4060    5.9190   20.2370 C   0  0  0  0  0  0  0  0  0  0  0  0
   20.7330    6.5390   19.1950 C   0  0  0  0  0  0  0  0  0  0  0  0
   21.4460    7.0310   18.0990 C   0  0  0  0  0  0  0  0  0  0  0  0
   22.8520    6.9140   18.0020 C   0  0  0  0  0  0  0  0  0  0  0  0
   24.1370    9.0090   13.5730 C   0  0  0  0  0  0  0  0  0  0  0  0
   25.2890    9.0490   13.0490 O   0  0  0  0  0  0  0  0  0  0  0  0
   23.2580    9.9240   13.5950 O   0  0  0  0  0  0  0  0  0  0  0  0
   23.7330    5.5520   13.0540 C   0  0  0  0  0  0  0  0  0  0  0  0
   24.8920    5.1830   13.1390 O   0  0  0  0  0  0  0  0  0  0  0  0
   21.7370    2.2904   10.2972 H   0  0  0  0  0  0  0  0  0  0  0  0
   23.7596    3.0735   11.5559 H   0  0  0  0  0  0  0  0  0  0  0  0
   19.5040    5.7766   11.6508 H   0  0  0  0  0  0  0  0  0  0  0  0
   24.7598    7.2592   14.6315 H   0  0  0  0  0  0  0  0  0  0  0  0
   23.0113    9.1063   15.7960 H   0  0  0  0  0  0  0  0  0  0  0  0
   22.0121    7.5970   15.5306 H   0  0  0  0  0  0  0  0  0  0  0  0
   25.6173    7.5621   16.0554 H   0  0  0  0  0  0  0  0  0  0  0  0
   26.7548    6.4594   17.9660 H   0  0  0  0  0  0  0  0  0  0  0  0
   25.4255    5.6390   19.8983 H   0  0  0  0  0  0  0  0  0  0  0  0
   23.3245    5.3076   21.0120 H   0  0  0  0  0  0  0  0  0  0  0  0
   20.8489    5.5278   21.1011 H   0  0  0  0  0  0  0  0  0  0  0  0
   19.6386    6.6433   19.2314 H   0  0  0  0  0  0  0  0  0  0  0  0
   20.8958    7.5255   17.2849 H   0  0  0  0  0  0  0  0  0  0  0  0
  1  2  2  0
  2  3  1  0
  2  4  1  0
  4  5  2  0
  5  6  1  0
  6  7  2  0
  7  8  1  0
  8  9  2  0
  8 10  1  0
 10 11  2  0
 10 12  1  0
 12 13  1  0
 13 14  1  0
 14 15  1  0
 15 16  2  0
 16 17  1  0
 17 18  2  0
 18 19  1  0
 19 20  2  0
 20 21  1  0
 21 22  2  0
 22 23  1  0
 23 24  2  0
 13 25  1  0
 25 26  2  0
 25 27  1  0
 12 28  1  0
 28 29  2  0
  9  4  1  0
 24 15  1  0
 28  7  1  0
 24 19  1  0
  5 30  1  0
  6 31  1  0
  9 32  1  0
 13 33  1  1
 14 34  1  0
 14 35  1  0
 16 36  1  0
 17 37  1  0
 18 38  1  0
 20 39  1  0
 21 40  1  0
 22 41  1  0
 23 42  1  0
M  CHG  2   3  -1  27  -1
M  END
>  <meeko>  (3) 
{"is_sidechain": [false], "free_energy": -8.153, "intermolecular_energy": -10.779, "internal_energy": -0.795}

$$$$
2r9w_ligand
     RDKit          3D

 42 45  0  0  0  0  0  0  0  0999 V2000
   24.6890    4.7420   20.1750 O   0  0  0  0  0  0  0  0  0  0  0  0
   25.5470    5.3880   19.4940 C   0  0  0  0  0  0  0  0  0  0  0  0
   26.8060    5.3690   19.6800 O   0  0  0  0  0  0  0  0  0  0  0  0
   25.0290    6.2510   18.3570 C   0  0  0  0  0  0  0  0  0  0  0  0
   25.7280    7.4290   17.9780 C   0  0  0  0  0  0  0  0  0  0  0  0
   25.2920    8.2380   16.9240 C   0  0  0  0  0  0  0  0  0  0  0  0
   24.1450    7.8470   16.2610 C   0  0  0  0  0  0  0  0  0  0  0  0
   23.4450    6.7110   16.6140 C   0  0  0  0  0  0  0  0  0  0  0  0
   23.8580    5.8940   17.6530 C   0  0  0  0  0  0  0  0  0  0  0  0
   22.3140    6.5910   15.6900 C   0  0  0  0  0  0  0  0  0  0  0  0
   21.5130    5.6720   15.7140 O   0  0  0  0  0  0  0  0  0  0  0  0
   22.3940    7.6590   14.8340 N   0  0  0  0  0  0  0  0  0  0  0  0
   21.4570    7.8890   13.7190 C   0  0  2  0  0  0  0  0  0  0  0  0
   22.0890    7.5650   12.3500 C   0  0  0  0  0  0  0  0  0  0  0  0
   22.0710    6.0800   11.9990 C   0  0  0  0  0  0  0  0  0  0  0  0
   23.2170    5.3360   12.3370 C   0  0  0  0  0  0  0  0  0  0  0  0
   23.3170    3.9870   12.0210 C   0  0  0  0  0  0  0  0  0  0  0  0
   22.2700    3.3550   11.3600 C   0  0  0  0  0  0  0  0  0  0  0  0
   21.1100    4.0600   11.0070 C   0  0  0  0  0  0  0  0  0  0  0  0
   20.0750    3.3990   10.3240 C   0  0  0  0  0  0  0  0  0  0  0  0
   18.9160    4.0720    9.9470 C   0  0  0  0  0  0  0  0  0  0  0  0
   18.7740    5.4160   10.2570 C   0  0  0  0  0  0  0  0  0  0  0  0
   19.7930    6.0860   10.9390 C   0  0  0  0  0  0  0  0  0  0  0  0
   20.9890    5.4390   11.3280 C   0  0  0  0  0  0  0  0  0  0  0  0
   20.8040    9.3020   13.7200 C   0  0  0  0  0  0  0  0  0  0  0  0
   21.1720   10.0780   12.7890 O   0  0  0  0  0  0  0  0  0  0  0  0
   20.0220    9.5580   14.6850 O   0  0  0  0  0  0  0  0  0  0  0  0
   23.4790    8.4470   15.1070 C   0  0  0  0  0  0  0  0  0  0  0  0
   23.9190    9.4190   14.5170 O   0  0  0  0  0  0  0  0  0  0  0  0
   26.6370    7.7122   18.5289 H   0  0  0  0  0  0  0  0  0  0  0  0
   25.8393    9.1474   16.6351 H   0  0  0  0  0  0  0  0  0  0  0  0
   23.2895    4.9917   17.9226 H   0  0  0  0  0  0  0  0  0  0  0  0
   20.6355    7.1779   13.8907 H   0  0  0  0  0  0  0  0  0  0  0  0
   21.5336    8.1116   11.5736 H   0  0  0  0  0  0  0  0  0  0  0  0
   23.1449    7.8683   12.4049 H   0  0  0  0  0  0  0  0  0  0  0  0
   24.0479    5.8314   12.8605 H   0  0  0  0  0  0  0  0  0  0  0  0
   24.2205    3.4214   12.2926 H   0  0  0  0  0  0  0  0  0  0  0  0
   22.3525    2.2869   11.1103 H   0  0  0  0  0  0  0  0  0  0  0  0
   20.1824    2.3311   10.0830 H   0  0  0  0  0  0  0  0  0  0  0  0
   18.1183    3.5411    9.4068 H   0  0  0  0  0  0  0  0  0  0  0  0
   17.8599    5.9543    9.9663 H   0  0  0  0  0  0  0  0  0  0  0  0
   19.6608    7.1508   11.1811 H   0  0  0  0  0  0  0  0  0  0  0  0
  1  2  2  0
  2  3  1  0
  2  4  1  0
  4  5  2  0
  5  6  1  0
  6  7  2  0
  7  8  1  0
  8  9  2  0
  8 10  1  0
 10 11  2  0
 10 12  1  0
 12 13  1  0
 13 14  1  0
 14 15  1  0
 15 16  2  0
 16 17  1  0
 17 18  2  0
 18 19  1  0
 19 20  2  0
 20 21  1  0
 21 22  2  0
 22 23  1  0
 23 24  2  0
 13 25  1  0
 25 26  2  0
 25 27  1  0
 12 28  1  0
 28 29  2  0
  9  4  1  0
 24 15  1  0
 28  7  1  0
 24 19  1  0
  5 30  1  0
  6 31  1  0
  9 32  1  0
 13 33  1  1
 14 34  1  0
 14 35  1  0
 16 36  1  0
 17 37  1  0
 18 38  1  0
 20 39  1  0
 21 40  1  0
 22 41  1  0
 23 42  1  0
M  CHG  2   3  -1  27  -1
M  END
>  <meeko>  (4) 
{"is_sidechain": [false], "free_energy": -8.088, "intermolecular_energy": -10.432, "internal_energy": -1.058}

$$$$
2r9w_ligand
     RDKit          3D

 42 45  0  0  0  0  0  0  0  0999 V2000
   19.4140    3.1620   10.5230 O   0  0  0  0  0  0  0  0  0  0  0  0
   20.2360    4.0590   10.1540 C   0  0  0  0  0  0  0  0  0  0  0  0
   20.2390    4.6390    9.0210 O   0  0  0  0  0  0  0  0  0  0  0  0
   21.3030    4.4800   11.1500 C   0  0  0  0  0  0  0  0  0  0  0  0
   22.6750    4.4630   10.7770 C   0  0  0  0  0  0  0  0  0  0  0  0
   23.6830    4.8630   11.6600 C   0  0  0  0  0  0  0  0  0  0  0  0
   23.2930    5.2740   12.9190 C   0  0  0  0  0  0  0  0  0  0  0  0
   21.9680    5.2930   13.3070 C   0  0  0  0  0  0  0  0  0  0  0  0
   20.9520    4.9040   12.4500 C   0  0  0  0  0  0  0  0  0  0  0  0
   21.9220    5.8060   14.6790 C   0  0  0  0  0  0  0  0  0  0  0  0
   20.8900    5.9760   15.3060 O   0  0  0  0  0  0  0  0  0  0  0  0
   23.2190    6.0660   15.0410 N   0  0  0  0  0  0  0  0  0  0  0  0
   23.6070    6.6380   16.3440 C   0  0  2  0  0  0  0  0  0  0  0  0
   23.9850    8.1290   16.2380 C   0  0  0  0  0  0  0  0  0  0  0  0
   22.7850    9.0720   16.2630 C   0  0  0  0  0  0  0  0  0  0  0  0
   22.3650    9.5280   17.5270 C   0  0  0  0  0  0  0  0  0  0  0  0
   21.2570   10.3560   17.6600 C   0  0  0  0  0  0  0  0  0  0  0  0
   20.5480   10.7440   16.5290 C   0  0  0  0  0  0  0  0  0  0  0  0
   20.9360   10.3140   15.2520 C   0  0  0  0  0  0  0  0  0  0  0  0
   20.1900   10.7100   14.1280 C   0  0  0  0  0  0  0  0  0  0  0  0
   20.5400   10.2910   12.8470 C   0  0  0  0  0  0  0  0  0  0  0  0
   21.6470    9.4740   12.6730 C   0  0  0  0  0  0  0  0  0  0  0  0
   22.4010    9.0760   13.7800 C   0  0  0  0  0  0  0  0  0  0  0  0
   22.0700    9.4720   15.0970 C   0  0  0  0  0  0  0  0  0  0  0  0
   24.7080    5.8270   17.0890 C   0  0  0  0  0  0  0  0  0  0  0  0
   25.7860    6.4500   17.3230 O   0  0  0  0  0  0  0  0  0  0  0  0
   24.4430    4.6100   17.3300 O   0  0  0  0  0  0  0  0  0  0  0  0
   24.0950    5.7870   14.0280 C   0  0  0  0  0  0  0  0  0  0  0  0
   25.2970    5.9690   13.9500 O   0  0  0  0  0  0  0  0  0  0  0  0
   22.9509    4.1262    9.7668 H   0  0  0  0  0  0  0  0  0  0  0  0
   24.7423    4.8507   11.3638 H   0  0  0  0  0  0  0  0  0  0  0  0
   19.9008    4.9248   12.7733 H   0  0  0  0  0  0  0  0  0  0  0  0
   22.7027    6.5613   16.9656 H   0  0  0  0  0  0  0  0  0  0  0  0
   24.6419    8.3812   17.0835 H   0  0  0  0  0  0  0  0  0  0  0  0
   24.4797    8.2657   15.2651 H   0  0  0  0  0  0  0  0  0  0  0  0
   22.9234    9.2237   18.4245 H   0  0  0  0  0  0  0  0  0  0  0  0
   20.9425   10.7027   18.6554 H   0  0  0  0  0  0  0  0  0  0  0  0
   19.6700   11.3977   16.6374 H   0  0  0  0  0  0  0  0  0  0  0  0
   19.3145   11.3622   14.2629 H   0  0  0  0  0  0  0  0  0  0  0  0
   19.9424   10.6060   11.9789 H   0  0  0  0  0  0  0  0  0  0  0  0
   21.9312    9.1396   11.6644 H   0  0  0  0  0  0  0  0  0  0  0  0
   23.2802    8.4341   13.6222 H   0  0  0  0  0  0  0  0  0  0  0  0
  1  2  2  0
  2  3  1  0
  2  4  1  0
  4  5  2  0
  5  6  1  0
  6  7  2  0
  7  8  1  0
  8  9  2  0
  8 10  1  0
 10 11  2  0
 10 12  1  0
 12 13  1  0
 13 14  1  0
 14 15  1  0
 15 16  2  0
 16 17  1  0
 17 18  2  0
 18 19  1  0
 19 20  2  0
 20 21  1  0
 21 22  2  0
 22 23  1  0
 23 24  2  0
 13 25  1  0
 25 26  2  0
 25 27  1  0
 12 28  1  0
 28 29  2  0
  9  4  1  0
 24 15  1  0
 28  7  1  0
 24 19  1  0
  5 30  1  0
  6 31  1  0
  9 32  1  0
 13 33  1  1
 14 34  1  0
 14 35  1  0
 16 36  1  0
 17 37  1  0
 18 38  1  0
 20 39  1  0
 21 40  1  0
 22 41  1  0
 23 42  1  0
M  CHG  2   3  -1  27  -1
M  END
>  <meeko>  (5) 
{"is_sidechain": [false], "free_energy": -7.844, "intermolecular_energy": -9.812, "internal_energy": -1.363}

$$$$
2r9w_ligand
     RDKit          3D

 42 45  0  0  0  0  0  0  0  0999 V2000
   26.8950    7.7300   20.2480 O   0  0  0  0  0  0  0  0  0  0  0  0
   26.4150    6.6330   19.8210 C   0  0  0  0  0  0  0  0  0  0  0  0
   26.8120    5.4710   20.1560 O   0  0  0  0  0  0  0  0  0  0  0  0
   25.2660    6.7130   18.8310 C   0  0  0  0  0  0  0  0  0  0  0  0
   24.0230    6.0900   19.1280 C   0  0  0  0  0  0  0  0  0  0  0  0
   22.9360    6.1590   18.2510 C   0  0  0  0  0  0  0  0  0  0  0  0
   23.1190    6.8580   17.0730 C   0  0  0  0  0  0  0  0  0  0  0  0
   24.3180    7.4650   16.7590 C   0  0  0  0  0  0  0  0  0  0  0  0
   25.4070    7.4120   17.6130 C   0  0  0  0  0  0  0  0  0  0  0  0
   24.1450    8.1300   15.4650 C   0  0  0  0  0  0  0  0  0  0  0  0
   25.0140    8.7870   14.9180 O   0  0  0  0  0  0  0  0  0  0  0  0
   22.8540    7.8870   15.0720 N   0  0  0  0  0  0  0  0  0  0  0  0
   22.2610    8.4190   13.8310 C   0  0  2  0  0  0  0  0  0  0  0  0
   23.2080    8.2740   12.6230 C   0  0  0  0  0  0  0  0  0  0  0  0
   22.6360    7.4280   11.4890 C   0  0  0  0  0  0  0  0  0  0  0  0
   21.9860    8.1200   10.4490 C   0  0  0  0  0  0  0  0  0  0  0  0
   21.3940    7.4380    9.3930 C   0  0  0  0  0  0  0  0  0  0  0  0
   21.4420    6.0500    9.3560 C   0  0  0  0  0  0  0  0  0  0  0  0
   22.0820    5.3230   10.3710 C   0  0  0  0  0  0  0  0  0  0  0  0
   22.0990    3.9190   10.3160 C   0  0  0  0  0  0  0  0  0  0  0  0
   22.7140    3.1670   11.3140 C   0  0  0  0  0  0  0  0  0  0  0  0
   23.3270    3.8120   12.3780 C   0  0  0  0  0  0  0  0  0  0  0  0
   23.3200    5.2080   12.4440 C   0  0  0  0  0  0  0  0  0  0  0  0
   22.6970    6.0050   11.4560 C   0  0  0  0  0  0  0  0  0  0  0  0
   21.7260    9.8760   13.9580 C   0  0  0  0  0  0  0  0  0  0  0  0
   22.4750   10.7800   13.4810 O   0  0  0  0  0  0  0  0  0  0  0  0
   20.6310   10.0200   14.5810 O   0  0  0  0  0  0  0  0  0  0  0  0
   22.1730    7.1430   15.9970 C   0  0  0  0  0  0  0  0  0  0  0  0
   21.0020    6.8080   16.0350 O   0  0  0  0  0  0  0  0  0  0  0  0
   23.9134    5.5386   20.0735 H   0  0  0  0  0  0  0  0  0  0  0  0
   21.9760    5.6773   18.4887 H   0  0  0  0  0  0  0  0  0  0  0  0
   26.3561    7.9014   17.3492 H   0  0  0  0  0  0  0  0  0  0  0  0
   21.3785    7.7884   13.6479 H   0  0  0  0  0  0  0  0  0  0  0  0
   23.4255    9.2783   12.2305 H   0  0  0  0  0  0  0  0  0  0  0  0
   24.1100    7.7580   12.9836 H   0  0  0  0  0  0  0  0  0  0  0  0
   21.9462    9.2190   10.4730 H   0  0  0  0  0  0  0  0  0  0  0  0
   20.8894    7.9948    8.5896 H   0  0  0  0  0  0  0  0  0  0  0  0
   20.9715    5.5134    8.5189 H   0  0  0  0  0  0  0  0  0  0  0  0
   21.6184    3.4052    9.4704 H   0  0  0  0  0  0  0  0  0  0  0  0
   22.7136    2.0684   11.2588 H   0  0  0  0  0  0  0  0  0  0  0  0
   23.8179    3.2256   13.1687 H   0  0  0  0  0  0  0  0  0  0  0  0
   23.8154    5.7030   13.2923 H   0  0  0  0  0  0  0  0  0  0  0  0
  1  2  2  0
  2  3  1  0
  2  4  1  0
  4  5  2  0
  5  6  1  0
  6  7  2  0
  7  8  1  0
  8  9  2  0
  8 10  1  0
 10 11  2  0
 10 12  1  0
 12 13  1  0
 13 14  1  0
 14 15  1  0
 15 16  2  0
 16 17  1  0
 17 18  2  0
 18 19  1  0
 19 20  2  0
 20 21  1  0
 21 22  2  0
 22 23  1  0
 23 24  2  0
 13 25  1  0
 25 26  2  0
 25 27  1  0
 12 28  1  0
 28 29  2  0
  9  4  1  0
 24 15  1  0
 28  7  1  0
 24 19  1  0
  5 30  1  0
  6 31  1  0
  9 32  1  0
 13 33  1  6
 14 34  1  0
 14 35  1  0
 16 36  1  0
 17 37  1  0
 18 38  1  0
 20 39  1  0
 21 40  1  0
 22 41  1  0
 23 42  1  0
M  CHG  2   3  -1  27  -1
M  END
>  <meeko>  (6) 
{"is_sidechain": [false], "free_energy": -7.526, "intermolecular_energy": -9.928, "internal_energy": -0.835}

$$$$
2r9w_ligand
     RDKit          3D

 42 45  0  0  0  0  0  0  0  0999 V2000
   24.1590    5.0090   18.6900 O   0  0  0  0  0  0  0  0  0  0  0  0
   24.9690    5.7940   18.1030 C   0  0  0  0  0  0  0  0  0  0  0  0
   26.2200    5.8700   18.3270 O   0  0  0  0  0  0  0  0  0  0  0  0
   24.4000    6.7170   17.0390 C   0  0  0  0  0  0  0  0  0  0  0  0
   25.1570    7.8270   16.5770 C   0  0  0  0  0  0  0  0  0  0  0  0
   24.6740    8.6860   15.5850 C   0  0  0  0  0  0  0  0  0  0  0  0
   23.4210    8.4150   15.0700 C   0  0  0  0  0  0  0  0  0  0  0  0
   22.6640    7.3460   15.5070 C   0  0  0  0  0  0  0  0  0  0  0  0
   23.1220    6.4820   16.4870 C   0  0  0  0  0  0  0  0  0  0  0  0
   21.4210    7.3460   14.7310 C   0  0  0  0  0  0  0  0  0  0  0  0
   20.5440    6.5080   14.8540 O   0  0  0  0  0  0  0  0  0  0  0  0
   21.4970    8.4130   13.8720 N   0  0  0  0  0  0  0  0  0  0  0  0
   20.4560    8.7440   12.8820 C   0  0  2  0  0  0  0  0  0  0  0  0
   20.8650    8.3470   11.4500 C   0  0  0  0  0  0  0  0  0  0  0  0
   20.5400    6.8990   11.0940 C   0  0  0  0  0  0  0  0  0  0  0  0
   19.2590    6.6490   10.5680 C   0  0  0  0  0  0  0  0  0  0  0  0
   18.8510    5.3590   10.2530 C   0  0  0  0  0  0  0  0  0  0  0  0
   19.7190    4.2930   10.4570 C   0  0  0  0  0  0  0  0  0  0  0  0
   21.0050    4.5000   10.9760 C   0  0  0  0  0  0  0  0  0  0  0  0
   21.8540    3.4010   11.1880 C   0  0  0  0  0  0  0  0  0  0  0  0
   23.1330    3.5690   11.7140 C   0  0  0  0  0  0  0  0  0  0  0  0
   23.5800    4.8430   12.0290 C   0  0  0  0  0  0  0  0  0  0  0  0
   22.7480    5.9460   11.8210 C   0  0  0  0  0  0  0  0  0  0  0  0
   21.4400    5.8140   11.2990 C   0  0  0  0  0  0  0  0  0  0  0  0
   19.9710   10.2220   12.9430 C   0  0  0  0  0  0  0  0  0  0  0  0
   20.1300   10.8960   11.8820 O   0  0  0  0  0  0  0  0  0  0  0  0
   19.5270   10.6220   14.0620 O   0  0  0  0  0  0  0  0  0  0  0  0
   22.6790    9.0900   14.0080 C   0  0  0  0  0  0  0  0  0  0  0  0
   23.1330   10.0220   13.3680 O   0  0  0  0  0  0  0  0  0  0  0  0
   26.1498    8.0157   17.0114 H   0  0  0  0  0  0  0  0  0  0  0  0
   25.2669    9.5417   15.2296 H   0  0  0  0  0  0  0  0  0  0  0  0
   22.5069    5.6355   16.8263 H   0  0  0  0  0  0  0  0  0  0  0  0
   19.5893    8.1303   13.1688 H   0  0  0  0  0  0  0  0  0  0  0  0
   20.3366    9.0044   10.7439 H   0  0  0  0  0  0  0  0  0  0  0  0
   21.9581    8.4537   11.3885 H   0  0  0  0  0  0  0  0  0  0  0  0
   18.5688    7.4896   10.4034 H   0  0  0  0  0  0  0  0  0  0  0  0
   17.8453    5.1821    9.8439 H   0  0  0  0  0  0  0  0  0  0  0  0
   19.3926    3.2725   10.2078 H   0  0  0  0  0  0  0  0  0  0  0  0
   21.5027    2.3900   10.9342 H   0  0  0  0  0  0  0  0  0  0  0  0
   23.7835    2.6973   11.8782 H   0  0  0  0  0  0  0  0  0  0  0  0
   24.5893    4.9854   12.4425 H   0  0  0  0  0  0  0  0  0  0  0  0
   23.1223    6.9496   12.0713 H   0  0  0  0  0  0  0  0  0  0  0  0
  1  2  2  0
  2  3  1  0
  2  4  1  0
  4  5  2  0
  5  6  1  0
  6  7  2  0
  7  8  1  0
  8  9  2  0
  8 10  1  0
 10 11  2  0
 10 12  1  0
 12 13  1  0
 13 14  1  0
 14 15  1  0
 15 16  2  0
 16 17  1  0
 17 18  2  0
 18 19  1  0
 19 20  2  0
 20 21  1  0
 21 22  2  0
 22 23  1  0
 23 24  2  0
 13 25  1  0
 25 26  2  0
 25 27  1  0
 12 28  1  0
 28 29  2  0
  9  4  1  0
 24 15  1  0
 28  7  1  0
 24 19  1  0
  5 30  1  0
  6 31  1  0
  9 32  1  0
 13 33  1  1
 14 34  1  0
 14 35  1  0
 16 36  1  0
 17 37  1  0
 18 38  1  0
 20 39  1  0
 21 40  1  0
 22 41  1  0
 23 42  1  0
M  CHG  2   3  -1  27  -1
M  END
>  <meeko>  (7) 
{"is_sidechain": [false], "free_energy": -7.482, "intermolecular_energy": -9.305, "internal_energy": -1.401}

$$$$
2r9w_ligand
     RDKit          3D

 42 45  0  0  0  0  0  0  0  0999 V2000
   22.2430    4.2430    9.7040 O   0  0  0  0  0  0  0  0  0  0  0  0
   21.4070    4.1920   10.6600 C   0  0  0  0  0  0  0  0  0  0  0  0
   20.5900    3.2410   10.8790 O   0  0  0  0  0  0  0  0  0  0  0  0
   21.3850    5.3600   11.6310 C   0  0  0  0  0  0  0  0  0  0  0  0
   21.7190    6.6670   11.1830 C   0  0  0  0  0  0  0  0  0  0  0  0
   21.6890    7.7700   12.0420 C   0  0  0  0  0  0  0  0  0  0  0  0
   21.3260    7.5390   13.3540 C   0  0  0  0  0  0  0  0  0  0  0  0
   21.0040    6.2770   13.8150 C   0  0  0  0  0  0  0  0  0  0  0  0
   21.0240    5.1710   12.9820 C   0  0  0  0  0  0  0  0  0  0  0  0
   20.6440    6.4080   15.2290 C   0  0  0  0  0  0  0  0  0  0  0  0
   20.2790    5.4760   15.9250 O   0  0  0  0  0  0  0  0  0  0  0  0
   20.7690    7.7370   15.5420 N   0  0  0  0  0  0  0  0  0  0  0  0
   20.4580    8.3000   16.8700 C   0  0  2  0  0  0  0  0  0  0  0  0
   21.2480    7.6050   17.9970 C   0  0  0  0  0  0  0  0  0  0  0  0
   22.7620    7.7470   17.8670 C   0  0  0  0  0  0  0  0  0  0  0  0
   23.2310    8.7430   16.9900 C   0  0  0  0  0  0  0  0  0  0  0  0
   24.5910    8.9230   16.7690 C   0  0  0  0  0  0  0  0  0  0  0  0
   25.5090    8.1100   17.4240 C   0  0  0  0  0  0  0  0  0  0  0  0
   25.0820    7.1080   18.3080 C   0  0  0  0  0  0  0  0  0  0  0  0
   26.0330    6.2900   18.9430 C   0  0  0  0  0  0  0  0  0  0  0  0
   25.6430    5.2780   19.8160 C   0  0  0  0  0  0  0  0  0  0  0  0
   24.2950    5.0750   20.0710 C   0  0  0  0  0  0  0  0  0  0  0  0
   23.3390    5.8840   19.4500 C   0  0  0  0  0  0  0  0  0  0  0  0
   23.6960    6.9140   18.5490 C   0  0  0  0  0  0  0  0  0  0  0  0
   18.9370    8.3530   17.1950 C   0  0  0  0  0  0  0  0  0  0  0  0
   18.5710    7.7040   18.2200 O   0  0  0  0  0  0  0  0  0  0  0  0
   18.2080    8.9830   16.3710 O   0  0  0  0  0  0  0  0  0  0  0  0
   21.1580    8.4790   14.4600 C   0  0  0  0  0  0  0  0  0  0  0  0
   21.2880    9.6840   14.3330 O   0  0  0  0  0  0  0  0  0  0  0  0
   22.0089    6.8148   10.1322 H   0  0  0  0  0  0  0  0  0  0  0  0
   21.9439    8.7796   11.6873 H   0  0  0  0  0  0  0  0  0  0  0  0
   20.7655    4.1721   13.3631 H   0  0  0  0  0  0  0  0  0  0  0  0
   20.7914    9.3470   16.8178 H   0  0  0  0  0  0  0  0  0  0  0  0
   20.9399    8.0435   18.9576 H   0  0  0  0  0  0  0  0  0  0  0  0
   21.0205    6.5308   17.9318 H   0  0  0  0  0  0  0  0  0  0  0  0
   22.5086    9.3899   16.4707 H   0  0  0  0  0  0  0  0  0  0  0  0
   24.9397    9.7053   16.0788 H   0  0  0  0  0  0  0  0  0  0  0  0
   26.5850    8.2544   17.2466 H   0  0  0  0  0  0  0  0  0  0  0  0
   27.1031    6.4523   18.7468 H   0  0  0  0  0  0  0  0  0  0  0  0
   26.3995    4.6433   20.3006 H   0  0  0  0  0  0  0  0  0  0  0  0
   23.9786    4.2787   20.7608 H   0  0  0  0  0  0  0  0  0  0  0  0
   22.2746    5.7140   19.6692 H   0  0  0  0  0  0  0  0  0  0  0  0
  1  2  2  0
  2  3  1  0
  2  4  1  0
  4  5  2  0
  5  6  1  0
  6  7  2  0
  7  8  1  0
  8  9  2  0
  8 10  1  0
 10 11  2  0
 10 12  1  0
 12 13  1  0
 13 14  1  0
 14 15  1  0
 15 16  2  0
 16 17  1  0
 17 18  2  0
 18 19  1  0
 19 20  2  0
 20 21  1  0
 21 22  2  0
 22 23  1  0
 23 24  2  0
 13 25  1  0
 25 26  2  0
 25 27  1  0
 12 28  1  0
 28 29  2  0
  9  4  1  0
 24 15  1  0
 28  7  1  0
 24 19  1  0
  5 30  1  0
  6 31  1  0
  9 32  1  0
 13 33  1  6
 14 34  1  0
 14 35  1  0
 16 36  1  0
 17 37  1  0
 18 38  1  0
 20 39  1  0
 21 40  1  0
 22 41  1  0
 23 42  1  0
M  CHG  2   3  -1  27  -1
M  END
>  <meeko>  (8) 
{"is_sidechain": [false], "free_energy": -6.9, "intermolecular_energy": -9.456, "internal_energy": -0.499}

$$$$
2r9w_ligand
     RDKit          3D

 42 45  0  0  0  0  0  0  0  0999 V2000
   24.0830    6.8450    8.7630 O   0  0  0  0  0  0  0  0  0  0  0  0
   23.0080    6.2400    9.0700 C   0  0  0  0  0  0  0  0  0  0  0  0
   22.2080    5.6890    8.2480 O   0  0  0  0  0  0  0  0  0  0  0  0
   22.6480    6.1620   10.5440 C   0  0  0  0  0  0  0  0  0  0  0  0
   21.4080    5.5950   10.9470 C   0  0  0  0  0  0  0  0  0  0  0  0
   21.0520    5.4880   12.2950 C   0  0  0  0  0  0  0  0  0  0  0  0
   21.9550    5.9610   13.2270 C   0  0  0  0  0  0  0  0  0  0  0  0
   23.1620    6.5220   12.8590 C   0  0  0  0  0  0  0  0  0  0  0  0
   23.5370    6.6370   11.5320 C   0  0  0  0  0  0  0  0  0  0  0  0
   23.8680    6.8820   14.0910 C   0  0  0  0  0  0  0  0  0  0  0  0
   24.9840    7.3750   14.1150 O   0  0  0  0  0  0  0  0  0  0  0  0
   23.0500    6.5200   15.1300 N   0  0  0  0  0  0  0  0  0  0  0  0
   23.4110    6.6780   16.5520 C   0  0  2  0  0  0  0  0  0  0  0  0
   23.5540    8.1590   16.9560 C   0  0  0  0  0  0  0  0  0  0  0  0
   22.3360    9.0130   16.6140 C   0  0  0  0  0  0  0  0  0  0  0  0
   22.5330   10.0530   15.6860 C   0  0  0  0  0  0  0  0  0  0  0  0
   21.4980   10.9120   15.3410 C   0  0  0  0  0  0  0  0  0  0  0  0
   20.2440   10.7480   15.9170 C   0  0  0  0  0  0  0  0  0  0  0  0
   20.0060    9.7220   16.8440 C   0  0  0  0  0  0  0  0  0  0  0  0
   18.7320    9.5900   17.4230 C   0  0  0  0  0  0  0  0  0  0  0  0
   18.4650    8.5910   18.3560 C   0  0  0  0  0  0  0  0  0  0  0  0
   19.4700    7.7060   18.7170 C   0  0  0  0  0  0  0  0  0  0  0  0
   20.7400    7.8220   18.1460 C   0  0  0  0  0  0  0  0  0  0  0  0
   21.0520    8.8300   17.2040 C   0  0  0  0  0  0  0  0  0  0  0  0
   24.6560    5.8510   16.9850 C   0  0  0  0  0  0  0  0  0  0  0  0
   24.4710    4.6040   17.1120 O   0  0  0  0  0  0  0  0  0  0  0  0
   25.7110    6.5110   17.2290 O   0  0  0  0  0  0  0  0  0  0  0  0
   21.8900    5.9450   14.6870 C   0  0  0  0  0  0  0  0  0  0  0  0
   20.9760    5.4290   15.3060 O   0  0  0  0  0  0  0  0  0  0  0  0
   20.7105    5.2310   10.1783 H   0  0  0  0  0  0  0  0  0  0  0  0
   20.0924    5.0454   12.6006 H   0  0  0  0  0  0  0  0  0  0  0  0
   24.5019    7.0865   11.2546 H   0  0  0  0  0  0  0  0  0  0  0  0
   22.5607    6.2555   17.1074 H   0  0  0  0  0  0  0  0  0  0  0  0
   23.7171    8.2075   18.0428 H   0  0  0  0  0  0  0  0  0  0  0  0
   24.4006    8.5661   16.3837 H   0  0  0  0  0  0  0  0  0  0  0  0
   23.5233   10.1874   15.2265 H   0  0  0  0  0  0  0  0  0  0  0  0
   21.6701   11.7196   14.6142 H   0  0  0  0  0  0  0  0  0  0  0  0
   19.4271   11.4316   15.6425 H   0  0  0  0  0  0  0  0  0  0  0  0
   17.9321   10.2877   17.1343 H   0  0  0  0  0  0  0  0  0  0  0  0
   17.4639    8.5045   18.8035 H   0  0  0  0  0  0  0  0  0  0  0  0
   19.2674    6.9133   19.4523 H   0  0  0  0  0  0  0  0  0  0  0  0
   21.5224    7.1063   18.4385 H   0  0  0  0  0  0  0  0  0  0  0  0
  1  2  2  0
  2  3  1  0
  2  4  1  0
  4  5  2  0
  5  6  1  0
  6  7  2  0
  7  8  1  0
  8  9  2  0
  8 10  1  0
 10 11  2  0
 10 12  1  0
 12 13  1  0
 13 14  1  0
 14 15  1  0
 15 16  2  0
 16 17  1  0
 17 18  2  0
 18 19  1  0
 19 20  2  0
 20 21  1  0
 21 22  2  0
 22 23  1  0
 23 24  2  0
 13 25  1  0
 25 26  2  0
 25 27  1  0
 12 28  1  0
 28 29  2  0
  9  4  1  0
 24 15  1  0
 28  7  1  0
 24 19  1  0
  5 30  1  0
  6 31  1  0
  9 32  1  0
 13 33  1  1
 14 34  1  0
 14 35  1  0
 16 36  1  0
 17 37  1  0
 18 38  1  0
 20 39  1  0
 21 40  1  0
 22 41  1  0
 23 42  1  0
M  CHG  2   3  -1  27  -1
M  END
>  <meeko>  (9) 
{"is_sidechain": [false], "free_energy": -6.833, "intermolecular_energy": -8.809, "internal_energy": -1.06}

$$$$
