2brb_ligand
     RDKit          3D

 42 45  0  0  0  0  0  0  0  0999 V2000
   14.0880   -6.0560   17.3600 O   0  0  0  0  0  0  0  0  0  0  0  0
   14.7300   -6.0810   16.0860 C   0  0  0  0  0  0  0  0  0  0  0  0
   13.7650   -5.6230   14.9890 C   0  0  0  0  0  0  0  0  0  0  0  0
   13.8450   -6.4650   13.8050 N   0  0  0  0  0  0  0  0  0  0  0  0
   15.0870   -6.6070   13.1940 C   0  0  0  0  0  0  0  0  0  0  0  0
   15.7990   -7.7450   13.3820 N   0  0  0  0  0  0  0  0  0  0  0  0
   16.9770   -7.8990   12.7480 C   0  0  0  0  0  0  0  0  0  0  0  0
   17.5780   -7.0430   11.9170 N   0  0  0  0  0  0  0  0  0  0  0  0
   16.8530   -5.9290   11.7620 C   0  0  0  0  0  0  0  0  0  0  0  0
   17.2480   -4.9130   10.9520 O   0  0  0  0  0  0  0  0  0  0  0  0
   16.2990   -3.9290   11.0100 C   0  0  0  0  0  0  0  0  0  0  0  0
   16.5860   -2.7580   10.1800 C   0  0  0  0  0  0  0  0  0  0  0  0
   15.5700   -1.9010    9.7370 C   0  0  0  0  0  0  0  0  0  0  0  0
   15.8630   -0.7910    8.9390 C   0  0  0  0  0  0  0  0  0  0  0  0
   17.1800   -0.5180    8.5760 C   0  0  0  0  0  0  0  0  0  0  0  0
   18.2040   -1.3520    9.0140 C   0  0  0  0  0  0  0  0  0  0  0  0
   17.9090   -2.4620    9.8100 C   0  0  0  0  0  0  0  0  0  0  0  0
   15.2890   -4.3210   11.8780 C   0  0  0  0  0  0  0  0  0  0  0  0
   14.1130   -3.5340   12.1830 C   0  0  0  0  0  0  0  0  0  0  0  0
   14.1920   -2.5000   13.1250 C   0  0  0  0  0  0  0  0  0  0  0  0
   13.0580   -1.7490   13.4340 C   0  0  0  0  0  0  0  0  0  0  0  0
   11.8440   -2.0270   12.8050 C   0  0  0  0  0  0  0  0  0  0  0  0
   11.7620   -3.0560   11.8670 C   0  0  0  0  0  0  0  0  0  0  0  0
   12.8950   -3.8100   11.5560 C   0  0  0  0  0  0  0  0  0  0  0  0
   15.6370   -5.6260   12.3520 C   0  0  0  0  0  0  0  0  0  0  0  0
   14.5680   -5.4050   17.9010 H   0  0  0  0  0  0  0  0  0  0  0  0
   15.6003   -5.4086   16.1062 H   0  0  0  0  0  0  0  0  0  0  0  0
   15.0507   -7.1108   15.8699 H   0  0  0  0  0  0  0  0  0  0  0  0
   12.7381   -5.6594   15.3817 H   0  0  0  0  0  0  0  0  0  0  0  0
   14.0439   -4.5997   14.6972 H   0  0  0  0  0  0  0  0  0  0  0  0
   13.0710   -6.3820   13.1580 H   0  0  0  0  0  0  0  0  0  0  0  0
   17.5084   -8.8434   12.9372 H   0  0  0  0  0  0  0  0  0  0  0  0
   14.5270   -2.1044   10.0211 H   0  0  0  0  0  0  0  0  0  0  0  0
   15.0517   -0.1317    8.5970 H   0  0  0  0  0  0  0  0  0  0  0  0
   17.4095    0.3536    7.9455 H   0  0  0  0  0  0  0  0  0  0  0  0
   19.2458   -1.1376    8.7337 H   0  0  0  0  0  0  0  0  0  0  0  0
   18.7256   -3.1146   10.1525 H   0  0  0  0  0  0  0  0  0  0  0  0
   15.1488   -2.2803   13.6212 H   0  0  0  0  0  0  0  0  0  0  0  0
   13.1208   -0.9373   14.1738 H   0  0  0  0  0  0  0  0  0  0  0  0
   10.9504   -1.4339   13.0492 H   0  0  0  0  0  0  0  0  0  0  0  0
   10.8041   -3.2735   11.3720 H   0  0  0  0  0  0  0  0  0  0  0  0
   12.8289   -4.6220   10.8169 H   0  0  0  0  0  0  0  0  0  0  0  0
  1  2  1  0
  2  3  1  0
  3  4  1  0
  4  5  1  0
  5  6  2  0
  6  7  1  0
  7  8  2  0
  8  9  1  0
  9 10  1  0
 10 11  1  0
 11 12  1  0
 12 13  2  0
 13 14  1  0
 14 15  2  0
 15 16  1  0
 16 17  2  0
 11 18  2  0
 18 19  1  0
 19 20  2  0
 20 21  1  0
 21 22  2  0
 22 23  1  0
 23 24  2  0
 18 25  1  0
 25  5  1  0
 25  9  2  0
 17 12  1  0
 24 19  1  0
  1 26  1  0
  2 27  1  0
  2 28  1  0
  3 29  1  0
  3 30  1  0
  4 31  1  0
  7 32  1  0
 13 33  1  0
 14 34  1  0
 15 35  1  0
 16 36  1  0
 17 37  1  0
 20 38  1  0
 21 39  1  0
 22 40  1  0
 23 41  1  0
 24 42  1  0
M  END
>  <meeko>  (1) 
{"is_sidechain": [false], "free_energy": -8.156, "intermolecular_energy": -10.778, "internal_energy": -1.123}

$$$$
2brb_ligand
     RDKit          3D

 42 45  0  0  0  0  0  0  0  0999 V2000
   11.6760   -1.8160   13.7260 O   0  0  0  0  0  0  0  0  0  0  0  0
   12.4280   -2.9780   14.0730 C   0  0  0  0  0  0  0  0  0  0  0  0
   13.8040   -2.9480   13.4020 C   0  0  0  0  0  0  0  0  0  0  0  0
   13.7180   -3.2010   11.9710 N   0  0  0  0  0  0  0  0  0  0  0  0
   14.0160   -2.1510   11.1090 C   0  0  0  0  0  0  0  0  0  0  0  0
   13.0830   -1.1950   10.8700 N   0  0  0  0  0  0  0  0  0  0  0  0
   13.3940   -0.1550   10.0740 C   0  0  0  0  0  0  0  0  0  0  0  0
   14.5510    0.0830    9.4510 N   0  0  0  0  0  0  0  0  0  0  0  0
   15.4430   -0.8820    9.7000 C   0  0  0  0  0  0  0  0  0  0  0  0
   16.7020   -0.8570    9.1900 O   0  0  0  0  0  0  0  0  0  0  0  0
   17.3600   -1.9740    9.6270 C   0  0  0  0  0  0  0  0  0  0  0  0
   18.7410   -2.0880    9.1560 C   0  0  0  0  0  0  0  0  0  0  0  0
   19.5870   -3.1170    9.5930 C   0  0  0  0  0  0  0  0  0  0  0  0
   20.9060   -3.2060    9.1370 C   0  0  0  0  0  0  0  0  0  0  0  0
   21.3980   -2.2680    8.2330 C   0  0  0  0  0  0  0  0  0  0  0  0
   20.5720   -1.2440    7.7820 C   0  0  0  0  0  0  0  0  0  0  0  0
   19.2540   -1.1560    8.2390 C   0  0  0  0  0  0  0  0  0  0  0  0
   16.5030   -2.7270   10.4200 C   0  0  0  0  0  0  0  0  0  0  0  0
   16.8600   -3.9750   11.0620 C   0  0  0  0  0  0  0  0  0  0  0  0
   16.7580   -5.1770   10.3510 C   0  0  0  0  0  0  0  0  0  0  0  0
   17.0840   -6.3840   10.9700 C   0  0  0  0  0  0  0  0  0  0  0  0
   17.5110   -6.3940   12.2980 C   0  0  0  0  0  0  0  0  0  0  0  0
   17.6140   -5.1980   13.0090 C   0  0  0  0  0  0  0  0  0  0  0  0
   17.2870   -3.9880   12.3920 C   0  0  0  0  0  0  0  0  0  0  0  0
   15.2660   -2.0100   10.4840 C   0  0  0  0  0  0  0  0  0  0  0  0
   10.9310   -1.7700   14.3500 H   0  0  0  0  0  0  0  0  0  0  0  0
   12.5585   -3.0117   15.1647 H   0  0  0  0  0  0  0  0  0  0  0  0
   11.8838   -3.8695   13.7278 H   0  0  0  0  0  0  0  0  0  0  0  0
   14.2553   -1.9575   13.5611 H   0  0  0  0  0  0  0  0  0  0  0  0
   14.4187   -3.7419   13.8513 H   0  0  0  0  0  0  0  0  0  0  0  0
   12.9360   -3.7720   11.6760 H   0  0  0  0  0  0  0  0  0  0  0  0
   12.5989    0.5889    9.9178 H   0  0  0  0  0  0  0  0  0  0  0  0
   19.2078   -3.8651   10.3048 H   0  0  0  0  0  0  0  0  0  0  0  0
   21.5562   -4.0186    9.4931 H   0  0  0  0  0  0  0  0  0  0  0  0
   22.4365   -2.3367    7.8768 H   0  0  0  0  0  0  0  0  0  0  0  0
   20.9561   -0.5031    7.0654 H   0  0  0  0  0  0  0  0  0  0  0  0
   18.6081   -0.3436    7.8746 H   0  0  0  0  0  0  0  0  0  0  0  0
   16.4207   -5.1696    9.3040 H   0  0  0  0  0  0  0  0  0  0  0  0
   17.0043   -7.3279   10.4108 H   0  0  0  0  0  0  0  0  0  0  0  0
   17.7669   -7.3464   12.7854 H   0  0  0  0  0  0  0  0  0  0  0  0
   17.9527   -5.2078   14.0555 H   0  0  0  0  0  0  0  0  0  0  0  0
   17.3658   -3.0454   12.9535 H   0  0  0  0  0  0  0  0  0  0  0  0
  1  2  1  0
  2  3  1  0
  3  4  1  0
  4  5  1  0
  5  6  2  0
  6  7  1  0
  7  8  2  0
  8  9  1  0
  9 10  1  0
 10 11  1  0
 11 12  1  0
 12 13  2  0
 13 14  1  0
 14 15  2  0
 15 16  1  0
 16 17  2  0
 11 18  2  0
 18 19  1  0
 19 20  2  0
 20 21  1  0
 21 22  2  0
 22 23  1  0
 23 24  2  0
 18 25  1  0
 25  5  1  0
 25  9  2  0
 17 12  1  0
 24 19  1  0
  1 26  1  0
  2 27  1  0
  2 28  1  0
  3 29  1  0
  3 30  1  0
  4 31  1  0
  7 32  1  0
 13 33  1  0
 14 34  1  0
 15 35  1  0
 16 36  1  0
 17 37  1  0
 20 38  1  0
 21 39  1  0
 22 40  1  0
 23 41  1  0
 24 42  1  0
M  END
>  <meeko>  (2) 
{"is_sidechain": [false], "free_energy": -8.077, "intermolecular_energy": -10.413, "internal_energy": -1.383}

$$$$
2brb_ligand
     RDKit          3D

 42 45  0  0  0  0  0  0  0  0999 V2000
   12.4170   -0.2890   12.1880 O   0  0  0  0  0  0  0  0  0  0  0  0
   12.4130   -1.6940   12.4370 C   0  0  0  0  0  0  0  0  0  0  0  0
   13.8320   -2.2620   12.3400 C   0  0  0  0  0  0  0  0  0  0  0  0
   14.1930   -2.5970   10.9710 N   0  0  0  0  0  0  0  0  0  0  0  0
   14.9950   -1.6990   10.2750 C   0  0  0  0  0  0  0  0  0  0  0  0
   14.4480   -0.5650    9.7690 N   0  0  0  0  0  0  0  0  0  0  0  0
   15.2390    0.3250    9.1400 C   0  0  0  0  0  0  0  0  0  0  0  0
   16.5540    0.2460    8.9280 N   0  0  0  0  0  0  0  0  0  0  0  0
   17.0590   -0.8870    9.4300 C   0  0  0  0  0  0  0  0  0  0  0  0
   18.3810   -1.1900    9.3540 O   0  0  0  0  0  0  0  0  0  0  0  0
   18.5740   -2.4040    9.9540 C   0  0  0  0  0  0  0  0  0  0  0  0
   19.9620   -2.8690    9.9510 C   0  0  0  0  0  0  0  0  0  0  0  0
   20.6220   -3.2140    8.7640 C   0  0  0  0  0  0  0  0  0  0  0  0
   21.9460   -3.6630    8.7820 C   0  0  0  0  0  0  0  0  0  0  0  0
   22.6330   -3.7680    9.9890 C   0  0  0  0  0  0  0  0  0  0  0  0
   21.9980   -3.4220   11.1770 C   0  0  0  0  0  0  0  0  0  0  0  0
   20.6740   -2.9760   11.1580 C   0  0  0  0  0  0  0  0  0  0  0  0
   17.3540   -2.8860   10.4120 C   0  0  0  0  0  0  0  0  0  0  0  0
   17.1740   -4.1430   11.1060 C   0  0  0  0  0  0  0  0  0  0  0  0
   17.1690   -4.1710   12.5070 C   0  0  0  0  0  0  0  0  0  0  0  0
   17.0130   -5.3820   13.1810 C   0  0  0  0  0  0  0  0  0  0  0  0
   16.8630   -6.5670   12.4600 C   0  0  0  0  0  0  0  0  0  0  0  0
   16.8690   -6.5430   11.0650 C   0  0  0  0  0  0  0  0  0  0  0  0
   17.0260   -5.3330   10.3870 C   0  0  0  0  0  0  0  0  0  0  0  0
   16.3740   -1.8940   10.0900 C   0  0  0  0  0  0  0  0  0  0  0  0
   12.6050    0.1440   13.0380 H   0  0  0  0  0  0  0  0  0  0  0  0
   12.0167   -1.8813   13.4459 H   0  0  0  0  0  0  0  0  0  0  0  0
   11.7813   -2.1863   11.6829 H   0  0  0  0  0  0  0  0  0  0  0  0
   14.5413   -1.5125   12.7210 H   0  0  0  0  0  0  0  0  0  0  0  0
   13.8697   -3.1853   12.9368 H   0  0  0  0  0  0  0  0  0  0  0  0
   13.4560   -3.0130   10.4160 H   0  0  0  0  0  0  0  0  0  0  0  0
   14.7406    1.2265    8.7542 H   0  0  0  0  0  0  0  0  0  0  0  0
   20.0909   -3.1304    7.8044 H   0  0  0  0  0  0  0  0  0  0  0  0
   22.4463   -3.9340    7.8406 H   0  0  0  0  0  0  0  0  0  0  0  0
   23.6740   -4.1233   10.0026 H   0  0  0  0  0  0  0  0  0  0  0  0
   22.5384   -3.4995   12.1320 H   0  0  0  0  0  0  0  0  0  0  0  0
   20.1809   -2.7042   12.1030 H   0  0  0  0  0  0  0  0  0  0  0  0
   17.2882   -3.2370   13.0757 H   0  0  0  0  0  0  0  0  0  0  0  0
   17.0082   -5.4028   14.2808 H   0  0  0  0  0  0  0  0  0  0  0  0
   16.7398   -7.5217   12.9922 H   0  0  0  0  0  0  0  0  0  0  0  0
   16.7499   -7.4786   10.4989 H   0  0  0  0  0  0  0  0  0  0  0  0
   17.0333   -5.3157    9.2872 H   0  0  0  0  0  0  0  0  0  0  0  0
  1  2  1  0
  2  3  1  0
  3  4  1  0
  4  5  1  0
  5  6  2  0
  6  7  1  0
  7  8  2  0
  8  9  1  0
  9 10  1  0
 10 11  1  0
 11 12  1  0
 12 13  2  0
 13 14  1  0
 14 15  2  0
 15 16  1  0
 16 17  2  0
 11 18  2  0
 18 19  1  0
 19 20  2  0
 20 21  1  0
 21 22  2  0
 22 23  1  0
 23 24  2  0
 18 25  1  0
 25  5  1  0
 25  9  2  0
 17 12  1  0
 24 19  1  0
  1 26  1  0
  2 27  1  0
  2 28  1  0
  3 29  1  0
  3 30  1  0
  4 31  1  0
  7 32  1  0
 13 33  1  0
 14 34  1  0
 15 35  1  0
 16 36  1  0
 17 37  1  0
 20 38  1  0
 21 39  1  0
 22 40  1  0
 23 41  1  0
 24 42  1  0
M  END
>  <meeko>  (3) 
{"is_sidechain": [false], "free_energy": -7.935, "intermolecular_energy": -9.985, "internal_energy": -1.623}

$$$$
2brb_ligand
     RDKit          3D

 42 45  0  0  0  0  0  0  0  0999 V2000
   23.0940   -3.1280   12.4070 O   0  0  0  0  0  0  0  0  0  0  0  0
   22.6650   -4.3540   11.8170 C   0  0  0  0  0  0  0  0  0  0  0  0
   21.1370   -4.4100   11.7420 C   0  0  0  0  0  0  0  0  0  0  0  0
   20.6620   -4.5410   10.3730 N   0  0  0  0  0  0  0  0  0  0  0  0
   20.3680   -3.3750    9.6740 C   0  0  0  0  0  0  0  0  0  0  0  0
   21.3280   -2.7860    8.9180 N   0  0  0  0  0  0  0  0  0  0  0  0
   21.0230   -1.6860    8.2050 C   0  0  0  0  0  0  0  0  0  0  0  0
   19.8480   -1.0560    8.1320 N   0  0  0  0  0  0  0  0  0  0  0  0
   18.9280   -1.6560    8.8950 C   0  0  0  0  0  0  0  0  0  0  0  0
   17.6480   -1.2100    8.9770 O   0  0  0  0  0  0  0  0  0  0  0  0
   16.9640   -2.0320    9.8300 C   0  0  0  0  0  0  0  0  0  0  0  0
   15.5580   -1.6760   10.0200 C   0  0  0  0  0  0  0  0  0  0  0  0
   14.6370   -2.5750   10.5750 C   0  0  0  0  0  0  0  0  0  0  0  0
   13.2950   -2.2190   10.7420 C   0  0  0  0  0  0  0  0  0  0  0  0
   12.8540   -0.9550   10.3610 C   0  0  0  0  0  0  0  0  0  0  0  0
   13.7540   -0.0440    9.8160 C   0  0  0  0  0  0  0  0  0  0  0  0
   15.0940   -0.4020    9.6480 C   0  0  0  0  0  0  0  0  0  0  0  0
   17.8260   -3.0110   10.3080 C   0  0  0  0  0  0  0  0  0  0  0  0
   17.4480   -4.0610   11.2300 C   0  0  0  0  0  0  0  0  0  0  0  0
   17.4390   -3.8080   12.6080 C   0  0  0  0  0  0  0  0  0  0  0  0
   17.0920   -4.8220   13.5010 C   0  0  0  0  0  0  0  0  0  0  0  0
   16.7540   -6.0880   13.0230 C   0  0  0  0  0  0  0  0  0  0  0  0
   16.7620   -6.3430   11.6520 C   0  0  0  0  0  0  0  0  0  0  0  0
   17.1100   -5.3320   10.7550 C   0  0  0  0  0  0  0  0  0  0  0  0
   19.0950   -2.7810    9.6870 C   0  0  0  0  0  0  0  0  0  0  0  0
   22.3380   -2.7830   12.9130 H   0  0  0  0  0  0  0  0  0  0  0  0
   23.0799   -4.4310   10.8012 H   0  0  0  0  0  0  0  0  0  0  0  0
   23.0205   -5.1898   12.4375 H   0  0  0  0  0  0  0  0  0  0  0  0
   20.7845   -5.2741   12.3242 H   0  0  0  0  0  0  0  0  0  0  0  0
   20.7425   -3.4674   12.1493 H   0  0  0  0  0  0  0  0  0  0  0  0
   20.0110   -5.3000   10.2080 H   0  0  0  0  0  0  0  0  0  0  0  0
   21.8410   -1.2535    7.6102 H   0  0  0  0  0  0  0  0  0  0  0  0
   14.9748   -3.5753   10.8838 H   0  0  0  0  0  0  0  0  0  0  0  0
   12.5861   -2.9397   11.1756 H   0  0  0  0  0  0  0  0  0  0  0  0
   11.7976   -0.6770   10.4902 H   0  0  0  0  0  0  0  0  0  0  0  0
   13.4105    0.9575    9.5176 H   0  0  0  0  0  0  0  0  0  0  0  0
   15.7980    0.3253    9.2173 H   0  0  0  0  0  0  0  0  0  0  0  0
   17.7055   -2.8099   12.9857 H   0  0  0  0  0  0  0  0  0  0  0  0
   17.0849   -4.6230   14.5828 H   0  0  0  0  0  0  0  0  0  0  0  0
   16.4807   -6.8865   13.7285 H   0  0  0  0  0  0  0  0  0  0  0  0
   16.4938   -7.3418   11.2772 H   0  0  0  0  0  0  0  0  0  0  0  0
   17.1184   -5.5351    9.6739 H   0  0  0  0  0  0  0  0  0  0  0  0
  1  2  1  0
  2  3  1  0
  3  4  1  0
  4  5  1  0
  5  6  2  0
  6  7  1  0
  7  8  2  0
  8  9  1  0
  9 10  1  0
 10 11  1  0
 11 12  1  0
 12 13  2  0
 13 14  1  0
 14 15  2  0
 15 16  1  0
 16 17  2  0
 11 18  2  0
 18 19  1  0
 19 20  2  0
 20 21  1  0
 21 22  2  0
 22 23  1  0
 23 24  2  0
 18 25  1  0
 25  5  1  0
 25  9  2  0
 17 12  1  0
 24 19  1  0
  1 26  1  0
  2 27  1  0
  2 28  1  0
  3 29  1  0
  3 30  1  0
  4 31  1  0
  7 32  1  0
 13 33  1  0
 14 34  1  0
 15 35  1  0
 16 36  1  0
 17 37  1  0
 20 38  1  0
 21 39  1  0
 22 40  1  0
 23 41  1  0
 24 42  1  0
M  END
>  <meeko>  (4) 
{"is_sidechain": [false], "free_energy": -7.9, "intermolecular_energy": -10.3, "internal_energy": -1.262}

$$$$
2brb_ligand
     RDKit          3D

 42 45  0  0  0  0  0  0  0  0999 V2000
   20.2460   -3.7880    9.3490 O   0  0  0  0  0  0  0  0  0  0  0  0
   20.7970   -4.1490   10.6150 C   0  0  0  0  0  0  0  0  0  0  0  0
   19.7110   -4.7170   11.5320 C   0  0  0  0  0  0  0  0  0  0  0  0
   18.6010   -5.2810   10.7780 N   0  0  0  0  0  0  0  0  0  0  0  0
   17.4880   -5.7150   11.4910 C   0  0  0  0  0  0  0  0  0  0  0  0
   17.4820   -6.9580   12.0340 N   0  0  0  0  0  0  0  0  0  0  0  0
   16.4230   -7.3540   12.7650 C   0  0  0  0  0  0  0  0  0  0  0  0
   15.3170   -6.6620   13.0460 N   0  0  0  0  0  0  0  0  0  0  0  0
   15.3510   -5.4460   12.4880 C   0  0  0  0  0  0  0  0  0  0  0  0
   14.3440   -4.5470   12.6420 O   0  0  0  0  0  0  0  0  0  0  0  0
   14.6790   -3.4120   11.9560 C   0  0  0  0  0  0  0  0  0  0  0  0
   13.6830   -2.3420   12.0300 C   0  0  0  0  0  0  0  0  0  0  0  0
   13.6300   -1.3160   11.0760 C   0  0  0  0  0  0  0  0  0  0  0  0
   12.6760   -0.2980   11.1680 C   0  0  0  0  0  0  0  0  0  0  0  0
   11.7550   -0.2930   12.2130 C   0  0  0  0  0  0  0  0  0  0  0  0
   11.7860   -1.3080   13.1640 C   0  0  0  0  0  0  0  0  0  0  0  0
   12.7410   -2.3230   13.0730 C   0  0  0  0  0  0  0  0  0  0  0  0
   15.9140   -3.5940   11.3470 C   0  0  0  0  0  0  0  0  0  0  0  0
   16.5890   -2.5990   10.5410 C   0  0  0  0  0  0  0  0  0  0  0  0
   16.1600   -2.3580    9.2290 C   0  0  0  0  0  0  0  0  0  0  0  0
   16.8180   -1.4120    8.4430 C   0  0  0  0  0  0  0  0  0  0  0  0
   17.9040   -0.7070    8.9610 C   0  0  0  0  0  0  0  0  0  0  0  0
   18.3340   -0.9460   10.2670 C   0  0  0  0  0  0  0  0  0  0  0  0
   17.6790   -1.8920   11.0570 C   0  0  0  0  0  0  0  0  0  0  0  0
   16.3600   -4.9060   11.7070 C   0  0  0  0  0  0  0  0  0  0  0  0
   19.4960   -3.1960    9.5310 H   0  0  0  0  0  0  0  0  0  0  0  0
   21.5783   -4.9088   10.4660 H   0  0  0  0  0  0  0  0  0  0  0  0
   21.2247   -3.2512   11.0851 H   0  0  0  0  0  0  0  0  0  0  0  0
   20.1522   -5.5062   12.1585 H   0  0  0  0  0  0  0  0  0  0  0  0
   19.3202   -3.8929   12.1469 H   0  0  0  0  0  0  0  0  0  0  0  0
   18.8600   -5.8830   10.0060 H   0  0  0  0  0  0  0  0  0  0  0  0
   16.4758   -8.3710   13.1810 H   0  0  0  0  0  0  0  0  0  0  0  0
   14.3490   -1.3118   10.2435 H   0  0  0  0  0  0  0  0  0  0  0  0
   12.6527    0.5014   10.4128 H   0  0  0  0  0  0  0  0  0  0  0  0
   11.0066    0.5098   12.2860 H   0  0  0  0  0  0  0  0  0  0  0  0
   11.0577   -1.3111   13.9883 H   0  0  0  0  0  0  0  0  0  0  0  0
   12.7562   -3.1208   13.8302 H   0  0  0  0  0  0  0  0  0  0  0  0
   15.3045   -2.9147    8.8190 H   0  0  0  0  0  0  0  0  0  0  0  0
   16.4800   -1.2219    7.4136 H   0  0  0  0  0  0  0  0  0  0  0  0
   18.4222    0.0382    8.3396 H   0  0  0  0  0  0  0  0  0  0  0  0
   19.1901   -0.3882   10.6742 H   0  0  0  0  0  0  0  0  0  0  0  0
   18.0204   -2.0812   12.0854 H   0  0  0  0  0  0  0  0  0  0  0  0
  1  2  1  0
  2  3  1  0
  3  4  1  0
  4  5  1  0
  5  6  2  0
  6  7  1  0
  7  8  2  0
  8  9  1  0
  9 10  1  0
 10 11  1  0
 11 12  1  0
 12 13  2  0
 13 14  1  0
 14 15  2  0
 15 16  1  0
 16 17  2  0
 11 18  2  0
 18 19  1  0
 19 20  2  0
 20 21  1  0
 21 22  2  0
 22 23  1  0
 23 24  2  0
 18 25  1  0
 25  5  1  0
 25  9  2  0
 17 12  1  0
 24 19  1  0
  1 26  1  0
  2 27  1  0
  2 28  1  0
  3 29  1  0
  3 30  1  0
  4 31  1  0
  7 32  1  0
 13 33  1  0
 14 34  1  0
 15 35  1  0
 16 36  1  0
 17 37  1  0
 20 38  1  0
 21 39  1  0
 22 40  1  0
 23 41  1  0
 24 42  1  0
M  END
>  <meeko>  (5) 
{"is_sidechain": [false], "free_energy": -7.897, "intermolecular_energy": -10.473, "internal_energy": -1.085}

$$$$
2brb_ligand
     RDKit          3D

 42 45  0  0  0  0  0  0  0  0999 V2000
   15.0470   -9.0700   11.9170 O   0  0  0  0  0  0  0  0  0  0  0  0
   14.0080   -8.4680   12.6890 C   0  0  0  0  0  0  0  0  0  0  0  0
   14.5520   -7.9750   14.0320 C   0  0  0  0  0  0  0  0  0  0  0  0
   15.0700   -6.6170   13.9450 N   0  0  0  0  0  0  0  0  0  0  0  0
   16.2390   -6.4150   13.2190 C   0  0  0  0  0  0  0  0  0  0  0  0
   17.2440   -7.3220   13.3010 N   0  0  0  0  0  0  0  0  0  0  0  0
   18.3530   -7.1470   12.5570 C   0  0  0  0  0  0  0  0  0  0  0  0
   18.6200   -6.1540   11.7060 N   0  0  0  0  0  0  0  0  0  0  0  0
   17.6130   -5.2740   11.6560 C   0  0  0  0  0  0  0  0  0  0  0  0
   17.6410   -4.1820   10.8490 O   0  0  0  0  0  0  0  0  0  0  0  0
   16.4740   -3.4900   11.0270 C   0  0  0  0  0  0  0  0  0  0  0  0
   16.3570   -2.2780   10.2160 C   0  0  0  0  0  0  0  0  0  0  0  0
   15.1940   -1.4950   10.2240 C   0  0  0  0  0  0  0  0  0  0  0  0
   15.0980   -0.3430    9.4360 C   0  0  0  0  0  0  0  0  0  0  0  0
   16.1670    0.0460    8.6320 C   0  0  0  0  0  0  0  0  0  0  0  0
   17.3320   -0.7140    8.6170 C   0  0  0  0  0  0  0  0  0  0  0  0
   17.4270   -1.8650    9.4030 C   0  0  0  0  0  0  0  0  0  0  0  0
   15.6950   -4.1480   11.9700 C   0  0  0  0  0  0  0  0  0  0  0  0
   14.3870   -3.7080   12.4070 C   0  0  0  0  0  0  0  0  0  0  0  0
   13.2750   -3.8930   11.5750 C   0  0  0  0  0  0  0  0  0  0  0  0
   12.0160   -3.4560   11.9840 C   0  0  0  0  0  0  0  0  0  0  0  0
   11.8620   -2.8320   13.2230 C   0  0  0  0  0  0  0  0  0  0  0  0
   12.9670   -2.6450   14.0540 C   0  0  0  0  0  0  0  0  0  0  0  0
   14.2300   -3.0810   13.6470 C   0  0  0  0  0  0  0  0  0  0  0  0
   16.4230   -5.3150   12.3650 C   0  0  0  0  0  0  0  0  0  0  0  0
   15.6710   -8.3600   11.6900 H   0  0  0  0  0  0  0  0  0  0  0  0
   13.5917   -7.6153   12.1325 H   0  0  0  0  0  0  0  0  0  0  0  0
   13.2255   -9.2180   12.8769 H   0  0  0  0  0  0  0  0  0  0  0  0
   13.7405   -7.9987   14.7742 H   0  0  0  0  0  0  0  0  0  0  0  0
   15.3801   -8.6364   14.3267 H   0  0  0  0  0  0  0  0  0  0  0  0
   15.0100   -6.0730   14.7970 H   0  0  0  0  0  0  0  0  0  0  0  0
   19.1330   -7.9153   12.6636 H   0  0  0  0  0  0  0  0  0  0  0  0
   14.3454   -1.7905   10.8585 H   0  0  0  0  0  0  0  0  0  0  0  0
   14.1762    0.2570    9.4513 H   0  0  0  0  0  0  0  0  0  0  0  0
   16.0902    0.9509    8.0112 H   0  0  0  0  0  0  0  0  0  0  0  0
   18.1793   -0.4084    7.9856 H   0  0  0  0  0  0  0  0  0  0  0  0
   18.3536   -2.4575    9.3855 H   0  0  0  0  0  0  0  0  0  0  0  0
   13.3955   -4.3837   10.5979 H   0  0  0  0  0  0  0  0  0  0  0  0
   11.1437   -3.6030   11.3301 H   0  0  0  0  0  0  0  0  0  0  0  0
   10.8682   -2.4872   13.5447 H   0  0  0  0  0  0  0  0  0  0  0  0
   12.8434   -2.1538   15.0305 H   0  0  0  0  0  0  0  0  0  0  0  0
   15.1011   -2.9312   14.3018 H   0  0  0  0  0  0  0  0  0  0  0  0
  1  2  1  0
  2  3  1  0
  3  4  1  0
  4  5  1  0
  5  6  2  0
  6  7  1  0
  7  8  2  0
  8  9  1  0
  9 10  1  0
 10 11  1  0
 11 12  1  0
 12 13  2  0
 13 14  1  0
 14 15  2  0
 15 16  1  0
 16 17  2  0
 11 18  2  0
 18 19  1  0
 19 20  2  0
 20 21  1  0
 21 22  2  0
 22 23  1  0
 23 24  2  0
 18 25  1  0
 25  5  1  0
 25  9  2  0
 17 12  1  0
 24 19  1  0
  1 26  1  0
  2 27  1  0
  2 28  1  0
  3 29  1  0
  3 30  1  0
  4 31  1  0
  7 32  1  0
 13 33  1  0
 14 34  1  0
 15 35  1  0
 16 36  1  0
 17 37  1  0
 20 38  1  0
 21 39  1  0
 22 40  1  0
 23 41  1  0
 24 42  1  0
M  END
>  <meeko>  (6) 
{"is_sidechain": [false], "free_energy": -7.778, "intermolecular_energy": -10.319, "internal_energy": -1.083}

$$$$
2brb_ligand
     RDKit          3D

 42 45  0  0  0  0  0  0  0  0999 V2000
   17.4890   -9.7940   12.9620 O   0  0  0  0  0  0  0  0  0  0  0  0
   18.6560   -8.9730   12.9860 C   0  0  0  0  0  0  0  0  0  0  0  0
   18.4610   -7.7890   13.9370 C   0  0  0  0  0  0  0  0  0  0  0  0
   17.6880   -6.7190   13.3240 N   0  0  0  0  0  0  0  0  0  0  0  0
   16.3380   -6.6300   13.6450 C   0  0  0  0  0  0  0  0  0  0  0  0
   15.7680   -7.5890   14.4160 N   0  0  0  0  0  0  0  0  0  0  0  0
   14.4730   -7.4710   14.7650 C   0  0  0  0  0  0  0  0  0  0  0  0
   13.6220   -6.4940   14.4420 N   0  0  0  0  0  0  0  0  0  0  0  0
   14.2140   -5.5710   13.6740 C   0  0  0  0  0  0  0  0  0  0  0  0
   13.5590   -4.4690   13.2270 O   0  0  0  0  0  0  0  0  0  0  0  0
   14.4310   -3.7300   12.4760 C   0  0  0  0  0  0  0  0  0  0  0  0
   13.8650   -2.5000   11.9220 C   0  0  0  0  0  0  0  0  0  0  0  0
   14.0220   -2.1580   10.5710 C   0  0  0  0  0  0  0  0  0  0  0  0
   13.4800   -0.9740   10.0620 C   0  0  0  0  0  0  0  0  0  0  0  0
   12.7660   -0.1160   10.8940 C   0  0  0  0  0  0  0  0  0  0  0  0
   12.5910   -0.4420   12.2360 C   0  0  0  0  0  0  0  0  0  0  0  0
   13.1350   -1.6240   12.7440 C   0  0  0  0  0  0  0  0  0  0  0  0
   15.6590   -4.3780   12.4360 C   0  0  0  0  0  0  0  0  0  0  0  0
   16.8270   -3.8840   11.7380 C   0  0  0  0  0  0  0  0  0  0  0  0
   16.9190   -4.0280   10.3470 C   0  0  0  0  0  0  0  0  0  0  0  0
   18.0510   -3.5690    9.6710 C   0  0  0  0  0  0  0  0  0  0  0  0
   19.0910   -2.9680   10.3800 C   0  0  0  0  0  0  0  0  0  0  0  0
   19.0020   -2.8240   11.7650 C   0  0  0  0  0  0  0  0  0  0  0  0
   17.8720   -3.2830   12.4450 C   0  0  0  0  0  0  0  0  0  0  0  0
   15.5260   -5.5620   13.2280 C   0  0  0  0  0  0  0  0  0  0  0  0
   17.5410  -10.3730   13.7420 H   0  0  0  0  0  0  0  0  0  0  0  0
   19.5132   -9.5727   13.3260 H   0  0  0  0  0  0  0  0  0  0  0  0
   18.8401   -8.5877   11.9723 H   0  0  0  0  0  0  0  0  0  0  0  0
   17.9324   -8.1389   14.8360 H   0  0  0  0  0  0  0  0  0  0  0  0
   19.4540   -7.3890   14.1897 H   0  0  0  0  0  0  0  0  0  0  0  0
   17.8980   -6.5330   12.3510 H   0  0  0  0  0  0  0  0  0  0  0  0
   14.0665   -8.2777   15.3927 H   0  0  0  0  0  0  0  0  0  0  0  0
   14.5793   -2.8307    9.9025 H   0  0  0  0  0  0  0  0  0  0  0  0
   13.6182   -0.7196    9.0008 H   0  0  0  0  0  0  0  0  0  0  0  0
   12.3417    0.8161   10.4924 H   0  0  0  0  0  0  0  0  0  0  0  0
   12.0244    0.2311   12.8963 H   0  0  0  0  0  0  0  0  0  0  0  0
   12.9897   -1.8736   13.8054 H   0  0  0  0  0  0  0  0  0  0  0  0
   16.0993   -4.5027    9.7878 H   0  0  0  0  0  0  0  0  0  0  0  0
   18.1227   -3.6813    8.5791 H   0  0  0  0  0  0  0  0  0  0  0  0
   19.9827   -2.6070    9.8465 H   0  0  0  0  0  0  0  0  0  0  0  0
   19.8228   -2.3484   12.3218 H   0  0  0  0  0  0  0  0  0  0  0  0
   17.8044   -3.1715   13.5372 H   0  0  0  0  0  0  0  0  0  0  0  0
  1  2  1  0
  2  3  1  0
  3  4  1  0
  4  5  1  0
  5  6  2  0
  6  7  1  0
  7  8  2  0
  8  9  1  0
  9 10  1  0
 10 11  1  0
 11 12  1  0
 12 13  2  0
 13 14  1  0
 14 15  2  0
 15 16  1  0
 16 17  2  0
 11 18  2  0
 18 19  1  0
 19 20  2  0
 20 21  1  0
 21 22  2  0
 22 23  1  0
 23 24  2  0
 18 25  1  0
 25  5  1  0
 25  9  2  0
 17 12  1  0
 24 19  1  0
  1 26  1  0
  2 27  1  0
  2 28  1  0
  3 29  1  0
  3 30  1  0
  4 31  1  0
  7 32  1  0
 13 33  1  0
 14 34  1  0
 15 35  1  0
 16 36  1  0
 17 37  1  0
 20 38  1  0
 21 39  1  0
 22 40  1  0
 23 41  1  0
 24 42  1  0
M  END
>  <meeko>  (7) 
{"is_sidechain": [false], "free_energy": -7.741, "intermolecular_energy": -10.025, "internal_energy": -1.328}

$$$$
2brb_ligand
     RDKit          3D

 42 45  0  0  0  0  0  0  0  0999 V2000
   22.0200   -2.9780   10.0070 O   0  0  0  0  0  0  0  0  0  0  0  0
   21.6920   -3.8850   11.0600 C   0  0  0  0  0  0  0  0  0  0  0  0
   20.2400   -3.6910   11.5040 C   0  0  0  0  0  0  0  0  0  0  0  0
   19.2990   -3.9610   10.4270 N   0  0  0  0  0  0  0  0  0  0  0  0
   18.5870   -2.8870    9.9040 C   0  0  0  0  0  0  0  0  0  0  0  0
   19.1620   -2.0970    8.9630 N   0  0  0  0  0  0  0  0  0  0  0  0
   18.4500   -1.0900    8.4230 C   0  0  0  0  0  0  0  0  0  0  0  0
   17.1920   -0.7370    8.6970 N   0  0  0  0  0  0  0  0  0  0  0  0
   16.6590   -1.5300    9.6330 C   0  0  0  0  0  0  0  0  0  0  0  0
   15.3820   -1.3810   10.0720 O   0  0  0  0  0  0  0  0  0  0  0  0
   15.1430   -2.3370   11.0200 C   0  0  0  0  0  0  0  0  0  0  0  0
   13.7950   -2.3040   11.5900 C   0  0  0  0  0  0  0  0  0  0  0  0
   13.2740   -1.1450   12.1840 C   0  0  0  0  0  0  0  0  0  0  0  0
   11.9870   -1.1350   12.7290 C   0  0  0  0  0  0  0  0  0  0  0  0
   11.1980   -2.2820   12.6850 C   0  0  0  0  0  0  0  0  0  0  0  0
   11.6940   -3.4380   12.0920 C   0  0  0  0  0  0  0  0  0  0  0  0
   12.9810   -3.4480   11.5490 C   0  0  0  0  0  0  0  0  0  0  0  0
   16.2890   -3.1020   11.1950 C   0  0  0  0  0  0  0  0  0  0  0  0
   16.4040   -4.2130   12.1160 C   0  0  0  0  0  0  0  0  0  0  0  0
   16.5950   -3.9680   13.4820 C   0  0  0  0  0  0  0  0  0  0  0  0
   16.7230   -5.0360   14.3710 C   0  0  0  0  0  0  0  0  0  0  0  0
   16.6620   -6.3470   13.9000 C   0  0  0  0  0  0  0  0  0  0  0  0
   16.4730   -6.5940   12.5400 C   0  0  0  0  0  0  0  0  0  0  0  0
   16.3450   -5.5280   11.6480 C   0  0  0  0  0  0  0  0  0  0  0  0
   17.2670   -2.5920   10.2830 C   0  0  0  0  0  0  0  0  0  0  0  0
   22.9810   -3.0430    9.8730 H   0  0  0  0  0  0  0  0  0  0  0  0
   21.8264   -4.9169   10.7035 H   0  0  0  0  0  0  0  0  0  0  0  0
   22.3543   -3.6894   11.9162 H   0  0  0  0  0  0  0  0  0  0  0  0
   20.0297   -4.3754   12.3391 H   0  0  0  0  0  0  0  0  0  0  0  0
   20.1155   -2.6413   11.8083 H   0  0  0  0  0  0  0  0  0  0  0  0
   18.7570   -4.8110   10.5260 H   0  0  0  0  0  0  0  0  0  0  0  0
   18.9675   -0.4848    7.6641 H   0  0  0  0  0  0  0  0  0  0  0  0
   13.8864   -0.2320   12.2214 H   0  0  0  0  0  0  0  0  0  0  0  0
   11.5959   -0.2182   13.1943 H   0  0  0  0  0  0  0  0  0  0  0  0
   10.1867   -2.2735   13.1176 H   0  0  0  0  0  0  0  0  0  0  0  0
   11.0727   -4.3448   12.0505 H   0  0  0  0  0  0  0  0  0  0  0  0
   13.3635   -4.3673   11.0814 H   0  0  0  0  0  0  0  0  0  0  0  0
   16.6441   -2.9339   13.8538 H   0  0  0  0  0  0  0  0  0  0  0  0
   16.8721   -4.8436   15.4437 H   0  0  0  0  0  0  0  0  0  0  0  0
   16.7631   -7.1879   14.6019 H   0  0  0  0  0  0  0  0  0  0  0  0
   16.4248   -7.6290   12.1706 H   0  0  0  0  0  0  0  0  0  0  0  0
   16.1975   -5.7235   10.5756 H   0  0  0  0  0  0  0  0  0  0  0  0
  1  2  1  0
  2  3  1  0
  3  4  1  0
  4  5  1  0
  5  6  2  0
  6  7  1  0
  7  8  2  0
  8  9  1  0
  9 10  1  0
 10 11  1  0
 11 12  1  0
 12 13  2  0
 13 14  1  0
 14 15  2  0
 15 16  1  0
 16 17  2  0
 11 18  2  0
 18 19  1  0
 19 20  2  0
 20 21  1  0
 21 22  2  0
 22 23  1  0
 23 24  2  0
 18 25  1  0
 25  5  1  0
 25  9  2  0
 17 12  1  0
 24 19  1  0
  1 26  1  0
  2 27  1  0
  2 28  1  0
  3 29  1  0
  3 30  1  0
  4 31  1  0
  7 32  1  0
 13 33  1  0
 14 34  1  0
 15 35  1  0
 16 36  1  0
 17 37  1  0
 20 38  1  0
 21 39  1  0
 22 40  1  0
 23 41  1  0
 24 42  1  0
M  END
>  <meeko>  (8) 
{"is_sidechain": [false], "free_energy": -7.672, "intermolecular_energy": -9.692, "internal_energy": -1.569}

$$$$
2brb_ligand
     RDKit          3D

 42 45  0  0  0  0  0  0  0  0999 V2000
   15.4810    0.6710    8.9020 O   0  0  0  0  0  0  0  0  0  0  0  0
   15.2740   -0.6990    9.2440 C   0  0  0  0  0  0  0  0  0  0  0  0
   13.9710   -0.8660   10.0300 C   0  0  0  0  0  0  0  0  0  0  0  0
   14.1980   -0.8730   11.4680 N   0  0  0  0  0  0  0  0  0  0  0  0
   13.2190   -1.4430   12.2750 C   0  0  0  0  0  0  0  0  0  0  0  0
   12.0590   -0.7760   12.4950 N   0  0  0  0  0  0  0  0  0  0  0  0
   11.0960   -1.3540   13.2370 C   0  0  0  0  0  0  0  0  0  0  0  0
   11.1200   -2.5540   13.8200 N   0  0  0  0  0  0  0  0  0  0  0  0
   12.2800   -3.1810   13.5910 C   0  0  0  0  0  0  0  0  0  0  0  0
   12.5410   -4.4260   14.0680 O   0  0  0  0  0  0  0  0  0  0  0  0
   13.7990   -4.7820   13.6650 C   0  0  0  0  0  0  0  0  0  0  0  0
   14.2240   -6.1110   14.1050 C   0  0  0  0  0  0  0  0  0  0  0  0
   14.7520   -6.3290   15.3860 C   0  0  0  0  0  0  0  0  0  0  0  0
   15.1600   -7.6060   15.7870 C   0  0  0  0  0  0  0  0  0  0  0  0
   15.0420   -8.6840   14.9140 C   0  0  0  0  0  0  0  0  0  0  0  0
   14.5130   -8.4890   13.6420 C   0  0  0  0  0  0  0  0  0  0  0  0
   14.1070   -7.2130   13.2420 C   0  0  0  0  0  0  0  0  0  0  0  0
   14.3510   -3.7430   12.9270 C   0  0  0  0  0  0  0  0  0  0  0  0
   15.6710   -3.7680   12.3320 C   0  0  0  0  0  0  0  0  0  0  0  0
   16.7980   -3.5180   13.1260 C   0  0  0  0  0  0  0  0  0  0  0  0
   18.0700   -3.5250   12.5540 C   0  0  0  0  0  0  0  0  0  0  0  0
   18.2210   -3.7780   11.1900 C   0  0  0  0  0  0  0  0  0  0  0  0
   17.1000   -4.0260   10.3970 C   0  0  0  0  0  0  0  0  0  0  0  0
   15.8260   -4.0200   10.9660 C   0  0  0  0  0  0  0  0  0  0  0  0
   13.3610   -2.7120   12.8620 C   0  0  0  0  0  0  0  0  0  0  0  0
   14.9220    1.1950    9.5020 H   0  0  0  0  0  0  0  0  0  0  0  0
   15.2200   -1.2976    8.3227 H   0  0  0  0  0  0  0  0  0  0  0  0
   16.1123   -1.0394    9.8697 H   0  0  0  0  0  0  0  0  0  0  0  0
   13.2969   -0.0331    9.7810 H   0  0  0  0  0  0  0  0  0  0  0  0
   13.5281   -1.8336    9.7515 H   0  0  0  0  0  0  0  0  0  0  0  0
   14.6110   -0.0300   11.8470 H   0  0  0  0  0  0  0  0  0  0  0  0
   10.1777   -0.7656   13.3801 H   0  0  0  0  0  0  0  0  0  0  0  0
   14.8466   -5.4848   16.0848 H   0  0  0  0  0  0  0  0  0  0  0  0
   15.5749   -7.7584   16.7943 H   0  0  0  0  0  0  0  0  0  0  0  0
   15.3660   -9.6869   15.2289 H   0  0  0  0  0  0  0  0  0  0  0  0
   14.4143   -9.3393   12.9511 H   0  0  0  0  0  0  0  0  0  0  0  0
   13.6889   -7.0693   12.2347 H   0  0  0  0  0  0  0  0  0  0  0  0
   16.6796   -3.3161   14.2008 H   0  0  0  0  0  0  0  0  0  0  0  0
   18.9546   -3.3310   13.1784 H   0  0  0  0  0  0  0  0  0  0  0  0
   19.2246   -3.7819   10.7396 H   0  0  0  0  0  0  0  0  0  0  0  0
   17.2208   -4.2264    9.3222 H   0  0  0  0  0  0  0  0  0  0  0  0
   14.9431   -4.2137   10.3391 H   0  0  0  0  0  0  0  0  0  0  0  0
  1  2  1  0
  2  3  1  0
  3  4  1  0
  4  5  1  0
  5  6  2  0
  6  7  1  0
  7  8  2  0
  8  9  1  0
  9 10  1  0
 10 11  1  0
 11 12  1  0
 12 13  2  0
 13 14  1  0
 14 15  2  0
 15 16  1  0
 16 17  2  0
 11 18  2  0
 18 19  1  0
 19 20  2  0
 20 21  1  0
 21 22  2  0
 22 23  1  0
 23 24  2  0
 18 25  1  0
 25  5  1  0
 25  9  2  0
 17 12  1  0
 24 19  1  0
  1 26  1  0
  2 27  1  0
  2 28  1  0
  3 29  1  0
  3 30  1  0
  4 31  1  0
  7 32  1  0
 13 33  1  0
 14 34  1  0
 15 35  1  0
 16 36  1  0
 17 37  1  0
 20 38  1  0
 21 39  1  0
 22 40  1  0
 23 41  1  0
 24 42  1  0
M  END
>  <meeko>  (9) 
{"is_sidechain": [false], "free_energy": -7.659, "intermolecular_energy": -9.818, "internal_energy": -1.426}

$$$$
