4x6p_ligand
     RDKit          3D

 64 69  0  0  0  0  0  0  0  0999 V2000
    4.6890   14.7860  -36.3550 N   0  0  0  0  0  0  0  0  0  0  0  0
    5.4920   14.7300  -37.4650 C   0  0  0  0  0  0  0  0  0  0  0  0
    5.3810   13.7760  -38.4910 N   0  0  0  0  0  0  0  0  0  0  0  0
    6.4470   14.0730  -39.5110 N   0  0  0  0  0  0  0  0  0  0  0  0
    7.1540   15.1940  -39.0540 C   0  0  0  0  0  0  0  0  0  0  0  0
    8.2230   15.8730  -39.6110 C   0  0  0  0  0  0  0  0  0  0  0  0
    8.7390   16.9880  -38.9190 C   0  0  0  0  0  0  0  0  0  0  0  0
    9.8620   17.6950  -39.5240 C   0  0  0  0  0  0  0  0  0  0  0  0
   10.4670   17.4260  -40.7300 C   0  0  0  0  0  0  0  0  0  0  0  0
   11.4710   18.3500  -40.8470 N   0  0  0  0  0  0  0  0  0  0  0  0
   11.4580   19.1300  -39.7160 C   0  0  0  0  0  0  0  0  0  0  0  0
   12.4410   20.2560  -39.5400 C   0  0  2  0  0  0  0  0  0  0  0  0
   12.2820   21.3520  -40.6090 C   0  0  0  0  0  0  0  0  0  0  0  0
   13.5060   21.5070  -41.4830 C   0  0  0  0  0  0  0  0  0  0  0  0
   13.7180   20.6530  -42.5730 C   0  0  0  0  0  0  0  0  0  0  0  0
   14.8380   20.8130  -43.3910 C   0  0  0  0  0  0  0  0  0  0  0  0
   15.7540   21.8290  -43.1270 C   0  0  0  0  0  0  0  0  0  0  0  0
   15.5520   22.6860  -42.0480 C   0  0  0  0  0  0  0  0  0  0  0  0
   14.4320   22.5280  -41.2300 C   0  0  0  0  0  0  0  0  0  0  0  0
   13.7730   19.6640  -39.5900 N   0  0  0  0  0  0  0  0  0  0  0  0
   14.1430   18.7060  -38.6820 C   0  0  0  0  0  0  0  0  0  0  0  0
   13.4480   18.3510  -37.7390 O   0  0  0  0  0  0  0  0  0  0  0  0
   15.4710   18.1120  -38.9650 C   0  0  0  0  0  0  0  0  0  0  0  0
   16.4910   18.9130  -39.3080 C   0  0  0  0  0  0  0  0  0  0  0  0
   17.8210   18.3730  -39.6000 C   0  0  0  0  0  0  0  0  0  0  0  0
   18.7960   18.6360  -38.6180 C   0  0  0  0  0  0  0  0  0  0  0  0
   20.0780   18.0990  -38.7190 C   0  0  0  0  0  0  0  0  0  0  0  0
   21.2400   18.4300  -37.4960 Cl  0  0  0  0  0  0  0  0  0  0  0  0
   20.4130   17.2860  -39.7910 C   0  0  0  0  0  0  0  0  0  0  0  0
   19.4610   17.0180  -40.7780 C   0  0  0  0  0  0  0  0  0  0  0  0
   18.1620   17.5670  -40.7070 C   0  0  0  0  0  0  0  0  0  0  0  0
   17.2690   17.2690  -41.7760 N   0  0  0  0  0  0  0  0  0  0  0  0
   17.1390   17.8130  -43.0310 C   0  0  0  0  0  0  0  0  0  0  0  0
   16.1390   17.2390  -43.6600 N   0  0  0  0  0  0  0  0  0  0  0  0
   15.6560   16.2920  -42.8010 N   0  0  0  0  0  0  0  0  0  0  0  0
   16.3430   16.2840  -41.6690 N   0  0  0  0  0  0  0  0  0  0  0  0
   10.4730   18.7690  -38.9130 N   0  0  0  0  0  0  0  0  0  0  0  0
    8.1850   17.4080  -37.6800 C   0  0  0  0  0  0  0  0  0  0  0  0
    7.1010   16.7670  -37.0560 C   0  0  0  0  0  0  0  0  0  0  0  0
    6.5920   15.6570  -37.7570 C   0  0  0  0  0  0  0  0  0  0  0  0
    4.5020   14.0290  -35.6990 H   0  0  0  0  0  0  0  0  0  0  0  0
    4.1860   15.6290  -36.0790 H   0  0  0  0  0  0  0  0  0  0  0  0
    4.7060   13.0160  -38.5490 H   0  0  0  0  0  0  0  0  0  0  0  0
    6.6050   13.5440  -40.3680 H   0  0  0  0  0  0  0  0  0  0  0  0
    8.6589   15.5515  -40.5684 H   0  0  0  0  0  0  0  0  0  0  0  0
   10.2008   16.6363  -41.4480 H   0  0  0  0  0  0  0  0  0  0  0  0
   12.0950   18.4810  -41.6350 H   0  0  0  0  0  0  0  0  0  0  0  0
   12.2626   20.7588  -38.5780 H   0  0  0  0  0  0  0  0  0  0  0  0
   11.4246   21.0958  -41.2488 H   0  0  0  0  0  0  0  0  0  0  0  0
   12.1309   22.3058  -40.0823 H   0  0  0  0  0  0  0  0  0  0  0  0
   12.9966   19.8503  -42.7860 H   0  0  0  0  0  0  0  0  0  0  0  0
   14.9972   20.1369  -44.2439 H   0  0  0  0  0  0  0  0  0  0  0  0
   16.6370   21.9543  -43.7709 H   0  0  0  0  0  0  0  0  0  0  0  0
   16.2756   23.4880  -41.8402 H   0  0  0  0  0  0  0  0  0  0  0  0
   14.2752   23.2096  -40.3810 H   0  0  0  0  0  0  0  0  0  0  0  0
   14.2720   19.7360  -40.4670 H   0  0  0  0  0  0  0  0  0  0  0  0
   15.6189   17.0243  -38.8944 H   0  0  0  0  0  0  0  0  0  0  0  0
   16.3251   19.9986  -39.3713 H   0  0  0  0  0  0  0  0  0  0  0  0
   18.5418   19.2744  -37.7591 H   0  0  0  0  0  0  0  0  0  0  0  0
   21.4222   16.8546  -39.8640 H   0  0  0  0  0  0  0  0  0  0  0  0
   19.7280   16.3684  -41.6246 H   0  0  0  0  0  0  0  0  0  0  0  0
   17.7756   18.6083  -43.4459 H   0  0  0  0  0  0  0  0  0  0  0  0
    8.6287   18.2826  -37.1819 H   0  0  0  0  0  0  0  0  0  0  0  0
    6.6834   17.1056  -36.0963 H   0  0  0  0  0  0  0  0  0  0  0  0
  1  2  1  0
  2  3  2  0
  3  4  1  0
  4  5  1  0
  5  6  2  0
  6  7  1  0
  7  8  1  0
  8  9  2  0
  9 10  1  0
 10 11  1  0
 11 12  1  0
 12 13  1  0
 13 14  1  0
 14 15  2  0
 15 16  1  0
 16 17  2  0
 17 18  1  0
 18 19  2  0
 12 20  1  0
 20 21  1  0
 21 22  2  0
 21 23  1  0
 23 24  2  0
 24 25  1  0
 25 26  2  0
 26 27  1  0
 27 28  1  0
 27 29  2  0
 29 30  1  0
 30 31  2  0
 31 32  1  0
 32 33  1  0
 33 34  2  0
 34 35  1  0
 35 36  2  0
 11 37  2  0
  7 38  2  0
 38 39  1  0
 39 40  2  0
 40  2  1  0
 40  5  1  0
 37  8  1  0
 19 14  1  0
 31 25  1  0
 36 32  1  0
  1 41  1  0
  1 42  1  0
  3 43  1  0
  4 44  1  0
  6 45  1  0
  9 46  1  0
 10 47  1  0
 12 48  1  1
 13 49  1  0
 13 50  1  0
 15 51  1  0
 16 52  1  0
 17 53  1  0
 18 54  1  0
 19 55  1  0
 20 56  1  0
 23 57  1  0
 24 58  1  0
 26 59  1  0
 29 60  1  0
 30 61  1  0
 33 62  1  0
 38 63  1  0
 39 64  1  0
M  CHG  1   3   1
M  END
>  <meeko>  (1) 
{"is_sidechain": [false], "free_energy": -10.569, "intermolecular_energy": -15.821, "internal_energy": -1.186}

$$$$
4x6p_ligand
     RDKit          3D

 64 69  0  0  0  0  0  0  0  0999 V2000
   18.1940   17.0190  -40.8280 N   0  0  0  0  0  0  0  0  0  0  0  0
   17.1910   17.7560  -40.2540 C   0  0  0  0  0  0  0  0  0  0  0  0
   16.6200   17.4980  -38.9960 N   0  0  0  0  0  0  0  0  0  0  0  0
   15.5610   18.5370  -38.7490 N   0  0  0  0  0  0  0  0  0  0  0  0
   15.5390   19.3780  -39.8710 C   0  0  0  0  0  0  0  0  0  0  0  0
   14.7570   20.4840  -40.1530 C   0  0  0  0  0  0  0  0  0  0  0  0
   14.9590   21.1490  -41.3800 C   0  0  0  0  0  0  0  0  0  0  0  0
   14.1310   22.3170  -41.6580 C   0  0  0  0  0  0  0  0  0  0  0  0
   14.5530   23.6070  -41.8830 C   0  0  0  0  0  0  0  0  0  0  0  0
   13.4100   24.3340  -42.0810 N   0  0  0  0  0  0  0  0  0  0  0  0
   12.3410   23.4810  -41.9530 C   0  0  0  0  0  0  0  0  0  0  0  0
   10.9300   23.9750  -42.1260 C   0  0  2  0  0  0  0  0  0  0  0  0
   10.7550   25.4350  -41.6710 C   0  0  0  0  0  0  0  0  0  0  0  0
   10.9000   26.4270  -42.8020 C   0  0  0  0  0  0  0  0  0  0  0  0
   10.5230   26.0840  -44.1070 C   0  0  0  0  0  0  0  0  0  0  0  0
   10.6380   27.0100  -45.1440 C   0  0  0  0  0  0  0  0  0  0  0  0
   11.1290   28.2890  -44.8860 C   0  0  0  0  0  0  0  0  0  0  0  0
   11.5040   28.6420  -43.5920 C   0  0  0  0  0  0  0  0  0  0  0  0
   11.3880   27.7180  -42.5530 C   0  0  0  0  0  0  0  0  0  0  0  0
   10.0740   23.0790  -41.3560 N   0  0  0  0  0  0  0  0  0  0  0  0
    8.8100   22.7790  -41.7930 C   0  0  0  0  0  0  0  0  0  0  0  0
    8.2850   23.2890  -42.7750 O   0  0  0  0  0  0  0  0  0  0  0  0
    8.1350   21.7480  -40.9710 C   0  0  0  0  0  0  0  0  0  0  0  0
    8.8450   21.0630  -40.0620 C   0  0  0  0  0  0  0  0  0  0  0  0
    8.2230   20.0310  -39.2270 C   0  0  0  0  0  0  0  0  0  0  0  0
    6.8280   20.1550  -39.0730 C   0  0  0  0  0  0  0  0  0  0  0  0
    6.0940   19.1890  -38.3880 C   0  0  0  0  0  0  0  0  0  0  0  0
    4.3910   19.3650  -38.2290 Cl  0  0  0  0  0  0  0  0  0  0  0  0
    6.7290   18.0800  -37.8490 C   0  0  0  0  0  0  0  0  0  0  0  0
    8.1130   17.9420  -37.9870 C   0  0  0  0  0  0  0  0  0  0  0  0
    8.8800   18.9180  -38.6610 C   0  0  0  0  0  0  0  0  0  0  0  0
   10.2880   18.7130  -38.7210 N   0  0  0  0  0  0  0  0  0  0  0  0
   11.1010   18.2860  -39.7420 C   0  0  0  0  0  0  0  0  0  0  0  0
   12.3420   18.2090  -39.3150 N   0  0  0  0  0  0  0  0  0  0  0  0
   12.3130   18.6300  -38.0160 N   0  0  0  0  0  0  0  0  0  0  0  0
   11.0840   18.9590  -37.6510 N   0  0  0  0  0  0  0  0  0  0  0  0
   12.7560   22.2470  -41.7240 N   0  0  0  0  0  0  0  0  0  0  0  0
   15.9350   20.7000  -42.3110 C   0  0  0  0  0  0  0  0  0  0  0  0
   16.7620   19.5860  -42.0920 C   0  0  0  0  0  0  0  0  0  0  0  0
   16.5550   18.9310  -40.8630 C   0  0  0  0  0  0  0  0  0  0  0  0
   18.4400   16.9880  -41.8160 H   0  0  0  0  0  0  0  0  0  0  0  0
   18.8080   16.4080  -40.2890 H   0  0  0  0  0  0  0  0  0  0  0  0
   16.8690   16.7460  -38.3550 H   0  0  0  0  0  0  0  0  0  0  0  0
   14.9800   18.6000  -37.9140 H   0  0  0  0  0  0  0  0  0  0  0  0
   13.9977   20.8353  -39.4389 H   0  0  0  0  0  0  0  0  0  0  0  0
   15.5891   23.9760  -41.9002 H   0  0  0  0  0  0  0  0  0  0  0  0
   13.3430   25.3170  -42.3220 H   0  0  0  0  0  0  0  0  0  0  0  0
   10.6605   23.9680  -43.1924 H   0  0  0  0  0  0  0  0  0  0  0  0
    9.7527   25.5477  -41.2321 H   0  0  0  0  0  0  0  0  0  0  0  0
   11.5492   25.6497  -40.9409 H   0  0  0  0  0  0  0  0  0  0  0  0
   10.1333   25.0767  -44.3155 H   0  0  0  0  0  0  0  0  0  0  0  0
   10.3411   26.7309  -46.1657 H   0  0  0  0  0  0  0  0  0  0  0  0
   11.2202   29.0189  -45.7039 H   0  0  0  0  0  0  0  0  0  0  0  0
   11.8923   29.6509  -43.3888 H   0  0  0  0  0  0  0  0  0  0  0  0
   11.6812   28.0039  -41.5321 H   0  0  0  0  0  0  0  0  0  0  0  0
   10.5320   22.4610  -40.7010 H   0  0  0  0  0  0  0  0  0  0  0  0
    7.0620   21.5460  -41.1047 H   0  0  0  0  0  0  0  0  0  0  0  0
    9.9165   21.2802  -39.9406 H   0  0  0  0  0  0  0  0  0  0  0  0
    6.3109   21.0271  -39.4998 H   0  0  0  0  0  0  0  0  0  0  0  0
    6.1469   17.3137  -37.3161 H   0  0  0  0  0  0  0  0  0  0  0  0
    8.6133   17.0585  -37.5636 H   0  0  0  0  0  0  0  0  0  0  0  0
   10.7652   18.0452  -40.7614 H   0  0  0  0  0  0  0  0  0  0  0  0
   16.0487   21.2550  -43.2539 H   0  0  0  0  0  0  0  0  0  0  0  0
   17.5125   19.2515  -42.8233 H   0  0  0  0  0  0  0  0  0  0  0  0
  1  2  1  0
  2  3  2  0
  3  4  1  0
  4  5  1  0
  5  6  2  0
  6  7  1  0
  7  8  1  0
  8  9  2  0
  9 10  1  0
 10 11  1  0
 11 12  1  0
 12 13  1  0
 13 14  1  0
 14 15  2  0
 15 16  1  0
 16 17  2  0
 17 18  1  0
 18 19  2  0
 12 20  1  0
 20 21  1  0
 21 22  2  0
 21 23  1  0
 23 24  2  0
 24 25  1  0
 25 26  2  0
 26 27  1  0
 27 28  1  0
 27 29  2  0
 29 30  1  0
 30 31  2  0
 31 32  1  0
 32 33  1  0
 33 34  2  0
 34 35  1  0
 35 36  2  0
 11 37  2  0
  7 38  2  0
 38 39  1  0
 39 40  2  0
 40  2  1  0
 40  5  1  0
 37  8  1  0
 19 14  1  0
 31 25  1  0
 36 32  1  0
  1 41  1  0
  1 42  1  0
  3 43  1  0
  4 44  1  0
  6 45  1  0
  9 46  1  0
 10 47  1  0
 12 48  1  6
 13 49  1  0
 13 50  1  0
 15 51  1  0
 16 52  1  0
 17 53  1  0
 18 54  1  0
 19 55  1  0
 20 56  1  0
 23 57  1  0
 24 58  1  0
 26 59  1  0
 29 60  1  0
 30 61  1  0
 33 62  1  0
 38 63  1  0
 39 64  1  0
M  CHG  1   3   1
M  END
>  <meeko>  (2) 
{"is_sidechain": [false], "free_energy": -10.304, "intermolecular_energy": -14.514, "internal_energy": -2.095}

$$$$
4x6p_ligand
     RDKit          3D

 64 69  0  0  0  0  0  0  0  0999 V2000
   20.9980   18.0410  -38.0670 N   0  0  0  0  0  0  0  0  0  0  0  0
   20.1740   17.5480  -39.0460 C   0  0  0  0  0  0  0  0  0  0  0  0
   20.5440   16.5840  -39.9990 N   0  0  0  0  0  0  0  0  0  0  0  0
   19.3510   16.3280  -40.8800 N   0  0  0  0  0  0  0  0  0  0  0  0
   18.3130   17.1500  -40.4180 C   0  0  0  0  0  0  0  0  0  0  0  0
   17.0150   17.3000  -40.8700 C   0  0  0  0  0  0  0  0  0  0  0  0
   16.1760   18.2130  -40.1990 C   0  0  0  0  0  0  0  0  0  0  0  0
   14.8080   18.3550  -40.6850 C   0  0  0  0  0  0  0  0  0  0  0  0
   14.3910   18.4400  -41.9940 C   0  0  0  0  0  0  0  0  0  0  0  0
   13.0300   18.5740  -41.9330 N   0  0  0  0  0  0  0  0  0  0  0  0
   12.6670   18.5860  -40.6080 C   0  0  0  0  0  0  0  0  0  0  0  0
   11.2240   18.7110  -40.2010 C   0  0  2  0  0  0  0  0  0  0  0  0
   10.3660   17.5330  -40.6960 C   0  0  0  0  0  0  0  0  0  0  0  0
    9.4430   16.9850  -39.6320 C   0  0  0  0  0  0  0  0  0  0  0  0
    9.0340   17.7880  -38.5590 C   0  0  0  0  0  0  0  0  0  0  0  0
    8.1650   17.2860  -37.5900 C   0  0  0  0  0  0  0  0  0  0  0  0
    7.6930   15.9780  -37.6860 C   0  0  0  0  0  0  0  0  0  0  0  0
    8.0900   15.1720  -38.7500 C   0  0  0  0  0  0  0  0  0  0  0  0
    8.9590   15.6730  -39.7210 C   0  0  0  0  0  0  0  0  0  0  0  0
   10.7410   19.9750  -40.7440 N   0  0  0  0  0  0  0  0  0  0  0  0
   10.7790   21.1180  -39.9880 C   0  0  0  0  0  0  0  0  0  0  0  0
   11.1210   21.1500  -38.8120 O   0  0  0  0  0  0  0  0  0  0  0  0
   10.3870   22.3330  -40.7400 C   0  0  0  0  0  0  0  0  0  0  0  0
   11.1500   22.7470  -41.7630 C   0  0  0  0  0  0  0  0  0  0  0  0
   10.8050   23.9450  -42.5350 C   0  0  0  0  0  0  0  0  0  0  0  0
   11.0170   25.1640  -41.8620 C   0  0  0  0  0  0  0  0  0  0  0  0
   10.8250   26.3830  -42.5100 C   0  0  0  0  0  0  0  0  0  0  0  0
   11.1050   27.8530  -41.6640 Cl  0  0  0  0  0  0  0  0  0  0  0  0
   10.4270   26.4130  -43.8390 C   0  0  0  0  0  0  0  0  0  0  0  0
   10.2070   25.2140  -44.5210 C   0  0  0  0  0  0  0  0  0  0  0  0
   10.3760   23.9670  -43.8790 C   0  0  0  0  0  0  0  0  0  0  0  0
   10.0940   22.7980  -44.6420 N   0  0  0  0  0  0  0  0  0  0  0  0
    8.9950   21.9760  -44.6730 C   0  0  0  0  0  0  0  0  0  0  0  0
    9.2060   20.9870  -45.5110 N   0  0  0  0  0  0  0  0  0  0  0  0
   10.4440   21.2110  -46.0440 N   0  0  0  0  0  0  0  0  0  0  0  0
   10.9830   22.3130  -45.5450 N   0  0  0  0  0  0  0  0  0  0  0  0
   13.7260   18.4260  -39.8350 N   0  0  0  0  0  0  0  0  0  0  0  0
   16.6440   18.9670  -39.0890 C   0  0  0  0  0  0  0  0  0  0  0  0
   17.9490   18.8660  -38.5770 C   0  0  0  0  0  0  0  0  0  0  0  0
   18.7770   17.9500  -39.2520 C   0  0  0  0  0  0  0  0  0  0  0  0
   21.2210   17.5980  -37.1770 H   0  0  0  0  0  0  0  0  0  0  0  0
   21.4780   18.9370  -38.1490 H   0  0  0  0  0  0  0  0  0  0  0  0
   21.4520   16.1320  -40.0900 H   0  0  0  0  0  0  0  0  0  0  0  0
   19.3250   15.6720  -41.6600 H   0  0  0  0  0  0  0  0  0  0  0  0
   16.6466   16.7222  -41.7305 H   0  0  0  0  0  0  0  0  0  0  0  0
   15.0181   18.4072  -42.8972 H   0  0  0  0  0  0  0  0  0  0  0  0
   12.3820   18.6160  -42.7130 H   0  0  0  0  0  0  0  0  0  0  0  0
   11.1440   18.6900  -39.1041 H   0  0  0  0  0  0  0  0  0  0  0  0
    9.7569   17.8759  -41.5454 H   0  0  0  0  0  0  0  0  0  0  0  0
   11.0535   16.7237  -40.9831 H   0  0  0  0  0  0  0  0  0  0  0  0
    9.4009   18.8220  -38.4801 H   0  0  0  0  0  0  0  0  0  0  0  0
    7.8520   17.9229  -36.7495 H   0  0  0  0  0  0  0  0  0  0  0  0
    7.0075   15.5827  -36.9219 H   0  0  0  0  0  0  0  0  0  0  0  0
    7.7184   14.1394  -38.8254 H   0  0  0  0  0  0  0  0  0  0  0  0
    9.2659   15.0334  -40.5617 H   0  0  0  0  0  0  0  0  0  0  0  0
   10.6880   20.0490  -41.7520 H   0  0  0  0  0  0  0  0  0  0  0  0
    9.4798   22.8898  -40.4624 H   0  0  0  0  0  0  0  0  0  0  0  0
   12.0523   22.1764  -42.0279 H   0  0  0  0  0  0  0  0  0  0  0  0
   11.3386   25.1538  -40.8101 H   0  0  0  0  0  0  0  0  0  0  0  0
   10.2856   27.3755  -44.3525 H   0  0  0  0  0  0  0  0  0  0  0  0
    9.8969   25.2412  -45.5760 H   0  0  0  0  0  0  0  0  0  0  0  0
    8.0770   22.1233  -44.0852 H   0  0  0  0  0  0  0  0  0  0  0  0
   15.9475   19.6672  -38.6046 H   0  0  0  0  0  0  0  0  0  0  0  0
   18.2959   19.4566  -37.7163 H   0  0  0  0  0  0  0  0  0  0  0  0
  1  2  1  0
  2  3  2  0
  3  4  1  0
  4  5  1  0
  5  6  2  0
  6  7  1  0
  7  8  1  0
  8  9  2  0
  9 10  1  0
 10 11  1  0
 11 12  1  0
 12 13  1  0
 13 14  1  0
 14 15  2  0
 15 16  1  0
 16 17  2  0
 17 18  1  0
 18 19  2  0
 12 20  1  0
 20 21  1  0
 21 22  2  0
 21 23  1  0
 23 24  2  0
 24 25  1  0
 25 26  2  0
 26 27  1  0
 27 28  1  0
 27 29  2  0
 29 30  1  0
 30 31  2  0
 31 32  1  0
 32 33  1  0
 33 34  2  0
 34 35  1  0
 35 36  2  0
 11 37  2  0
  7 38  2  0
 38 39  1  0
 39 40  2  0
 40  2  1  0
 40  5  1  0
 37  8  1  0
 19 14  1  0
 31 25  1  0
 36 32  1  0
  1 41  1  0
  1 42  1  0
  3 43  1  0
  4 44  1  0
  6 45  1  0
  9 46  1  0
 10 47  1  0
 12 48  1  1
 13 49  1  0
 13 50  1  0
 15 51  1  0
 16 52  1  0
 17 53  1  0
 18 54  1  0
 19 55  1  0
 20 56  1  0
 23 57  1  0
 24 58  1  0
 26 59  1  0
 29 60  1  0
 30 61  1  0
 33 62  1  0
 38 63  1  0
 39 64  1  0
M  CHG  1   3   1
M  END
>  <meeko>  (3) 
{"is_sidechain": [false], "free_energy": -10.245, "intermolecular_energy": -14.964, "internal_energy": -1.557}

$$$$
4x6p_ligand
     RDKit          3D

 64 69  0  0  0  0  0  0  0  0999 V2000
   11.9320   28.4230  -43.0730 N   0  0  0  0  0  0  0  0  0  0  0  0
   11.6860   27.1980  -42.5060 C   0  0  0  0  0  0  0  0  0  0  0  0
   10.4940   26.8380  -41.8540 N   0  0  0  0  0  0  0  0  0  0  0  0
   10.6400   25.4160  -41.3830 N   0  0  0  0  0  0  0  0  0  0  0  0
   11.9150   24.9820  -41.7700 C   0  0  0  0  0  0  0  0  0  0  0  0
   12.5470   23.7650  -41.5870 C   0  0  0  0  0  0  0  0  0  0  0  0
   13.8520   23.6070  -42.0960 C   0  0  0  0  0  0  0  0  0  0  0  0
   14.5000   22.3160  -41.8990 C   0  0  0  0  0  0  0  0  0  0  0  0
   15.6420   21.8520  -42.5110 C   0  0  0  0  0  0  0  0  0  0  0  0
   15.8380   20.5930  -42.0090 N   0  0  0  0  0  0  0  0  0  0  0  0
   14.8130   20.3250  -41.1330 C   0  0  0  0  0  0  0  0  0  0  0  0
   14.7440   19.0140  -40.3980 C   0  0  2  0  0  0  0  0  0  0  0  0
   15.5200   17.8940  -41.1140 C   0  0  0  0  0  0  0  0  0  0  0  0
   16.9070   17.6820  -40.5510 C   0  0  0  0  0  0  0  0  0  0  0  0
   17.9030   17.0660  -41.3200 C   0  0  0  0  0  0  0  0  0  0  0  0
   19.1880   16.8920  -40.8050 C   0  0  0  0  0  0  0  0  0  0  0  0
   19.4900   17.3340  -39.5180 C   0  0  0  0  0  0  0  0  0  0  0  0
   18.5080   17.9500  -38.7460 C   0  0  0  0  0  0  0  0  0  0  0  0
   17.2220   18.1270  -39.2600 C   0  0  0  0  0  0  0  0  0  0  0  0
   13.3310   18.6760  -40.2730 N   0  0  0  0  0  0  0  0  0  0  0  0
   12.7580   18.5270  -39.0370 C   0  0  0  0  0  0  0  0  0  0  0  0
   13.3810   18.5730  -37.9830 O   0  0  0  0  0  0  0  0  0  0  0  0
   11.2910   18.3280  -39.0910 C   0  0  0  0  0  0  0  0  0  0  0  0
   10.4950   19.0910  -38.3270 C   0  0  0  0  0  0  0  0  0  0  0  0
    9.0380   18.9290  -38.3430 C   0  0  0  0  0  0  0  0  0  0  0  0
    8.5760   17.6800  -37.8850 C   0  0  0  0  0  0  0  0  0  0  0  0
    7.2130   17.4240  -37.7530 C   0  0  0  0  0  0  0  0  0  0  0  0
    6.6830   15.8930  -37.1790 Cl  0  0  0  0  0  0  0  0  0  0  0  0
    6.2840   18.4060  -38.0670 C   0  0  0  0  0  0  0  0  0  0  0  0
    6.7230   19.6500  -38.5280 C   0  0  0  0  0  0  0  0  0  0  0  0
    8.1000   19.9240  -38.6880 C   0  0  0  0  0  0  0  0  0  0  0  0
    8.4530   21.2060  -39.1980 N   0  0  0  0  0  0  0  0  0  0  0  0
    8.5490   22.4320  -38.5880 C   0  0  0  0  0  0  0  0  0  0  0  0
    8.8720   23.3440  -39.4770 N   0  0  0  0  0  0  0  0  0  0  0  0
    9.0170   22.6740  -40.6590 N   0  0  0  0  0  0  0  0  0  0  0  0
    8.7900   21.3790  -40.5010 N   0  0  0  0  0  0  0  0  0  0  0  0
   14.0060   21.3670  -41.0300 N   0  0  0  0  0  0  0  0  0  0  0  0
   14.5120   24.6650  -42.7770 C   0  0  0  0  0  0  0  0  0  0  0  0
   13.9330   25.9270  -42.9990 C   0  0  0  0  0  0  0  0  0  0  0  0
   12.6280   26.0720  -42.4900 C   0  0  0  0  0  0  0  0  0  0  0  0
   12.5240   29.1610  -42.6960 H   0  0  0  0  0  0  0  0  0  0  0  0
   11.5220   28.7120  -43.9600 H   0  0  0  0  0  0  0  0  0  0  0  0
    9.6710   27.4220  -41.7190 H   0  0  0  0  0  0  0  0  0  0  0  0
    9.9290   24.8880  -40.8780 H   0  0  0  0  0  0  0  0  0  0  0  0
   12.0442   22.9420  -41.0580 H   0  0  0  0  0  0  0  0  0  0  0  0
   16.2653   22.3804  -43.2474 H   0  0  0  0  0  0  0  0  0  0  0  0
   16.6140   19.9700  -42.2010 H   0  0  0  0  0  0  0  0  0  0  0  0
   15.2202   19.1141  -39.4115 H   0  0  0  0  0  0  0  0  0  0  0  0
   14.9540   16.9561  -41.0136 H   0  0  0  0  0  0  0  0  0  0  0  0
   15.6347   18.1943  -42.1660 H   0  0  0  0  0  0  0  0  0  0  0  0
   17.6703   16.7171  -42.3369 H   0  0  0  0  0  0  0  0  0  0  0  0
   19.9634   16.4056  -41.4151 H   0  0  0  0  0  0  0  0  0  0  0  0
   20.5032   17.1964  -39.1124 H   0  0  0  0  0  0  0  0  0  0  0  0
   18.7460   18.2976  -37.7298 H   0  0  0  0  0  0  0  0  0  0  0  0
   16.4515   18.6187  -38.6480 H   0  0  0  0  0  0  0  0  0  0  0  0
   12.7430   18.8690  -41.0730 H   0  0  0  0  0  0  0  0  0  0  0  0
   10.8585   17.5619  -39.7513 H   0  0  0  0  0  0  0  0  0  0  0  0
   10.9449   19.8541  -37.6749 H   0  0  0  0  0  0  0  0  0  0  0  0
    9.3022   16.8949  -37.6277 H   0  0  0  0  0  0  0  0  0  0  0  0
    5.2082   18.2063  -37.9537 H   0  0  0  0  0  0  0  0  0  0  0  0
    5.9847   20.4286  -38.7703 H   0  0  0  0  0  0  0  0  0  0  0  0
    8.3810   22.6220  -37.5176 H   0  0  0  0  0  0  0  0  0  0  0  0
   15.5311   24.4872  -43.1508 H   0  0  0  0  0  0  0  0  0  0  0  0
   14.4575   26.7363  -43.5280 H   0  0  0  0  0  0  0  0  0  0  0  0
  1  2  1  0
  2  3  2  0
  3  4  1  0
  4  5  1  0
  5  6  2  0
  6  7  1  0
  7  8  1  0
  8  9  2  0
  9 10  1  0
 10 11  1  0
 11 12  1  0
 12 13  1  0
 13 14  1  0
 14 15  2  0
 15 16  1  0
 16 17  2  0
 17 18  1  0
 18 19  2  0
 12 20  1  0
 20 21  1  0
 21 22  2  0
 21 23  1  0
 23 24  2  0
 24 25  1  0
 25 26  2  0
 26 27  1  0
 27 28  1  0
 27 29  2  0
 29 30  1  0
 30 31  2  0
 31 32  1  0
 32 33  1  0
 33 34  2  0
 34 35  1  0
 35 36  2  0
 11 37  2  0
  7 38  2  0
 38 39  1  0
 39 40  2  0
 40  2  1  0
 40  5  1  0
 37  8  1  0
 19 14  1  0
 31 25  1  0
 36 32  1  0
  1 41  1  0
  1 42  1  0
  3 43  1  0
  4 44  1  0
  6 45  1  0
  9 46  1  0
 10 47  1  0
 12 48  1  1
 13 49  1  0
 13 50  1  0
 15 51  1  0
 16 52  1  0
 17 53  1  0
 18 54  1  0
 19 55  1  0
 20 56  1  0
 23 57  1  0
 24 58  1  0
 26 59  1  0
 29 60  1  0
 30 61  1  0
 33 62  1  0
 38 63  1  0
 39 64  1  0
M  CHG  1   3   1
M  END
>  <meeko>  (4) 
{"is_sidechain": [false], "free_energy": -9.87, "intermolecular_energy": -13.78, "internal_energy": -2.181}

$$$$
4x6p_ligand
     RDKit          3D

 64 69  0  0  0  0  0  0  0  0999 V2000
    5.3450   16.6370  -37.3020 N   0  0  0  0  0  0  0  0  0  0  0  0
    6.5540   17.2760  -37.4140 C   0  0  0  0  0  0  0  0  0  0  0  0
    7.7740   16.7840  -36.9200 N   0  0  0  0  0  0  0  0  0  0  0  0
    8.8430   17.7880  -37.2540 N   0  0  0  0  0  0  0  0  0  0  0  0
    8.2200   18.8430  -37.9350 C   0  0  0  0  0  0  0  0  0  0  0  0
    8.7440   20.0110  -38.4610 C   0  0  0  0  0  0  0  0  0  0  0  0
    7.8660   20.9040  -39.1080 C   0  0  0  0  0  0  0  0  0  0  0  0
    8.4370   22.1270  -39.6610 C   0  0  0  0  0  0  0  0  0  0  0  0
    7.9680   23.4120  -39.5090 C   0  0  0  0  0  0  0  0  0  0  0  0
    8.8310   24.2010  -40.2220 N   0  0  0  0  0  0  0  0  0  0  0  0
    9.7740   23.3820  -40.7940 C   0  0  0  0  0  0  0  0  0  0  0  0
   10.8820   23.9490  -41.6400 C   0  0  2  0  0  0  0  0  0  0  0  0
   10.3770   24.4910  -42.9890 C   0  0  0  0  0  0  0  0  0  0  0  0
   10.7440   25.9400  -43.2190 C   0  0  0  0  0  0  0  0  0  0  0  0
   10.7360   26.4830  -44.5100 C   0  0  0  0  0  0  0  0  0  0  0  0
   11.0530   27.8260  -44.7160 C   0  0  0  0  0  0  0  0  0  0  0  0
   11.3800   28.6390  -43.6320 C   0  0  0  0  0  0  0  0  0  0  0  0
   11.3890   28.1110  -42.3430 C   0  0  0  0  0  0  0  0  0  0  0  0
   11.0700   26.7680  -42.1360 C   0  0  0  0  0  0  0  0  0  0  0  0
   11.8520   22.8780  -41.8360 N   0  0  0  0  0  0  0  0  0  0  0  0
   13.1970   23.1420  -41.8050 C   0  0  0  0  0  0  0  0  0  0  0  0
   13.6720   24.2670  -41.7060 O   0  0  0  0  0  0  0  0  0  0  0  0
   14.0360   21.9240  -41.8770 C   0  0  0  0  0  0  0  0  0  0  0  0
   13.4550   20.7380  -42.1160 C   0  0  0  0  0  0  0  0  0  0  0  0
   14.2420   19.5050  -42.1930 C   0  0  0  0  0  0  0  0  0  0  0  0
   14.9640   19.3370  -43.3910 C   0  0  0  0  0  0  0  0  0  0  0  0
   15.8310   18.2590  -43.5610 C   0  0  0  0  0  0  0  0  0  0  0  0
   16.7070   18.0910  -45.0310 Cl  0  0  0  0  0  0  0  0  0  0  0  0
   16.0020   17.3330  -42.5430 C   0  0  0  0  0  0  0  0  0  0  0  0
   15.2910   17.4790  -41.3490 C   0  0  0  0  0  0  0  0  0  0  0  0
   14.3920   18.5530  -41.1620 C   0  0  0  0  0  0  0  0  0  0  0  0
   13.6830   18.6020  -39.9280 N   0  0  0  0  0  0  0  0  0  0  0  0
   12.3990   18.9880  -39.6310 C   0  0  0  0  0  0  0  0  0  0  0  0
   12.2000   18.9020  -38.3360 N   0  0  0  0  0  0  0  0  0  0  0  0
   13.3660   18.4180  -37.8130 N   0  0  0  0  0  0  0  0  0  0  0  0
   14.2630   18.2110  -38.7650 N   0  0  0  0  0  0  0  0  0  0  0  0
    9.5710   22.1240  -40.4450 N   0  0  0  0  0  0  0  0  0  0  0  0
    6.4780   20.6250  -39.2190 C   0  0  0  0  0  0  0  0  0  0  0  0
    5.8770   19.4610  -38.7090 C   0  0  0  0  0  0  0  0  0  0  0  0
    6.7620   18.5740  -38.0680 C   0  0  0  0  0  0  0  0  0  0  0  0
    4.6110   16.8360  -36.6240 H   0  0  0  0  0  0  0  0  0  0  0  0
    5.0670   15.8720  -37.9150 H   0  0  0  0  0  0  0  0  0  0  0  0
    7.9230   15.9080  -36.4240 H   0  0  0  0  0  0  0  0  0  0  0  0
    9.8310   17.6970  -37.0200 H   0  0  0  0  0  0  0  0  0  0  0  0
    9.8173   20.2365  -38.3764 H   0  0  0  0  0  0  0  0  0  0  0  0
    7.0867   23.7365  -38.9362 H   0  0  0  0  0  0  0  0  0  0  0  0
    8.8200   25.2120  -40.2930 H   0  0  0  0  0  0  0  0  0  0  0  0
   11.3356   24.8116  -41.1300 H   0  0  0  0  0  0  0  0  0  0  0  0
   10.8158   23.8860  -43.7961 H   0  0  0  0  0  0  0  0  0  0  0  0
    9.2789   24.4276  -42.9785 H   0  0  0  0  0  0  0  0  0  0  0  0
   10.4777   25.8455  -45.3684 H   0  0  0  0  0  0  0  0  0  0  0  0
   11.0449   28.2432  -45.7338 H   0  0  0  0  0  0  0  0  0  0  0  0
   11.6310   29.6976  -43.7945 H   0  0  0  0  0  0  0  0  0  0  0  0
   11.6476   28.7527  -41.4878 H   0  0  0  0  0  0  0  0  0  0  0  0
   11.0745   26.3565  -41.1159 H   0  0  0  0  0  0  0  0  0  0  0  0
   11.5280   21.9340  -41.6740 H   0  0  0  0  0  0  0  0  0  0  0  0
   15.1249   21.9906  -41.7360 H   0  0  0  0  0  0  0  0  0  0  0  0
   12.3651   20.6909  -42.2570 H   0  0  0  0  0  0  0  0  0  0  0  0
   14.8417   20.0674  -44.2043 H   0  0  0  0  0  0  0  0  0  0  0  0
   16.6938   16.4879  -42.6748 H   0  0  0  0  0  0  0  0  0  0  0  0
   15.4335   16.7459  -40.5414 H   0  0  0  0  0  0  0  0  0  0  0  0
   11.6508   19.3190  -40.3663 H   0  0  0  0  0  0  0  0  0  0  0  0
    5.8389   21.3591  -39.7315 H   0  0  0  0  0  0  0  0  0  0  0  0
    4.7998   19.2593  -38.8035 H   0  0  0  0  0  0  0  0  0  0  0  0
  1  2  1  0
  2  3  2  0
  3  4  1  0
  4  5  1  0
  5  6  2  0
  6  7  1  0
  7  8  1  0
  8  9  2  0
  9 10  1  0
 10 11  1  0
 11 12  1  0
 12 13  1  0
 13 14  1  0
 14 15  2  0
 15 16  1  0
 16 17  2  0
 17 18  1  0
 18 19  2  0
 12 20  1  0
 20 21  1  0
 21 22  2  0
 21 23  1  0
 23 24  2  0
 24 25  1  0
 25 26  2  0
 26 27  1  0
 27 28  1  0
 27 29  2  0
 29 30  1  0
 30 31  2  0
 31 32  1  0
 32 33  1  0
 33 34  2  0
 34 35  1  0
 35 36  2  0
 11 37  2  0
  7 38  2  0
 38 39  1  0
 39 40  2  0
 40  2  1  0
 40  5  1  0
 37  8  1  0
 19 14  1  0
 31 25  1  0
 36 32  1  0
  1 41  1  0
  1 42  1  0
  3 43  1  0
  4 44  1  0
  6 45  1  0
  9 46  1  0
 10 47  1  0
 12 48  1  1
 13 49  1  0
 13 50  1  0
 15 51  1  0
 16 52  1  0
 17 53  1  0
 18 54  1  0
 19 55  1  0
 20 56  1  0
 23 57  1  0
 24 58  1  0
 26 59  1  0
 29 60  1  0
 30 61  1  0
 33 62  1  0
 38 63  1  0
 39 64  1  0
M  CHG  1   3   1
M  END
>  <meeko>  (5) 
{"is_sidechain": [false], "free_energy": -9.865, "intermolecular_energy": -14.224, "internal_energy": -1.728}

$$$$
4x6p_ligand
     RDKit          3D

 64 69  0  0  0  0  0  0  0  0999 V2000
   20.8300   16.8550  -39.1630 N   0  0  0  0  0  0  0  0  0  0  0  0
   19.7930   17.0390  -40.0410 C   0  0  0  0  0  0  0  0  0  0  0  0
   19.7710   16.5770  -41.3690 N   0  0  0  0  0  0  0  0  0  0  0  0
   18.4580   16.9900  -41.9770 N   0  0  0  0  0  0  0  0  0  0  0  0
   17.7470   17.6850  -40.9890 C   0  0  0  0  0  0  0  0  0  0  0  0
   16.4940   18.2720  -41.0260 C   0  0  0  0  0  0  0  0  0  0  0  0
   16.0220   18.9100  -39.8610 C   0  0  0  0  0  0  0  0  0  0  0  0
   14.6980   19.5180  -39.9160 C   0  0  0  0  0  0  0  0  0  0  0  0
   14.3890   20.8570  -39.8370 C   0  0  0  0  0  0  0  0  0  0  0  0
   13.0240   20.9210  -39.9230 N   0  0  0  0  0  0  0  0  0  0  0  0
   12.5490   19.6360  -40.0310 C   0  0  0  0  0  0  0  0  0  0  0  0
   11.0740   19.3630  -40.1560 C   0  0  2  0  0  0  0  0  0  0  0  0
   10.7680   17.8770  -40.4120 C   0  0  0  0  0  0  0  0  0  0  0  0
    9.6480   17.3460  -39.5460 C   0  0  0  0  0  0  0  0  0  0  0  0
    9.2200   16.0180  -39.6670 C   0  0  0  0  0  0  0  0  0  0  0  0
    8.2010   15.5250  -38.8510 C   0  0  0  0  0  0  0  0  0  0  0  0
    7.6030   16.3550  -37.9040 C   0  0  0  0  0  0  0  0  0  0  0  0
    8.0240   17.6760  -37.7720 C   0  0  0  0  0  0  0  0  0  0  0  0
    9.0430   18.1700  -38.5870 C   0  0  0  0  0  0  0  0  0  0  0  0
   10.5830   20.1950  -41.2480 N   0  0  0  0  0  0  0  0  0  0  0  0
   10.1470   21.4730  -41.0080 C   0  0  0  0  0  0  0  0  0  0  0  0
   10.0510   21.9650  -39.8910 O   0  0  0  0  0  0  0  0  0  0  0  0
    9.8200   22.2230  -42.2440 C   0  0  0  0  0  0  0  0  0  0  0  0
   10.5160   23.3300  -42.5440 C   0  0  0  0  0  0  0  0  0  0  0  0
   10.2280   24.1070  -43.7520 C   0  0  0  0  0  0  0  0  0  0  0  0
    9.0900   23.6890  -44.4690 C   0  0  0  0  0  0  0  0  0  0  0  0
    8.6440   24.3970  -45.5830 C   0  0  0  0  0  0  0  0  0  0  0  0
    7.2430   23.8670  -46.4270 Cl  0  0  0  0  0  0  0  0  0  0  0  0
    9.3140   25.5380  -46.0000 C   0  0  0  0  0  0  0  0  0  0  0  0
   10.4480   25.9660  -45.3060 C   0  0  0  0  0  0  0  0  0  0  0  0
   10.9300   25.2520  -44.1860 C   0  0  0  0  0  0  0  0  0  0  0  0
   12.1130   25.7410  -43.5620 N   0  0  0  0  0  0  0  0  0  0  0  0
   12.3200   26.7900  -42.7000 C   0  0  0  0  0  0  0  0  0  0  0  0
   13.5990   26.8860  -42.4190 N   0  0  0  0  0  0  0  0  0  0  0  0
   14.2030   25.8580  -43.0860 N   0  0  0  0  0  0  0  0  0  0  0  0
   13.3160   25.1450  -43.7620 N   0  0  0  0  0  0  0  0  0  0  0  0
   13.5480   18.7720  -40.0570 N   0  0  0  0  0  0  0  0  0  0  0  0
   16.8060   18.9590  -38.6760 C   0  0  0  0  0  0  0  0  0  0  0  0
   18.0840   18.3860  -38.5670 C   0  0  0  0  0  0  0  0  0  0  0  0
   18.5450   17.7480  -39.7350 C   0  0  0  0  0  0  0  0  0  0  0  0
   21.6930   16.3440  -39.3370 H   0  0  0  0  0  0  0  0  0  0  0  0
   20.8220   17.2300  -38.2140 H   0  0  0  0  0  0  0  0  0  0  0  0
   20.5030   16.0550  -41.8460 H   0  0  0  0  0  0  0  0  0  0  0  0
   18.1630   16.7900  -42.9320 H   0  0  0  0  0  0  0  0  0  0  0  0
   15.8829   18.2414  -41.9401 H   0  0  0  0  0  0  0  0  0  0  0  0
   15.0901   21.6975  -39.7279 H   0  0  0  0  0  0  0  0  0  0  0  0
   12.4490   21.7560  -39.9480 H   0  0  0  0  0  0  0  0  0  0  0  0
   10.5688   19.6061  -39.2096 H   0  0  0  0  0  0  0  0  0  0  0  0
   10.4830   17.7547  -41.4674 H   0  0  0  0  0  0  0  0  0  0  0  0
   11.6750   17.3069  -40.1625 H   0  0  0  0  0  0  0  0  0  0  0  0
    9.6907   15.3585  -40.4110 H   0  0  0  0  0  0  0  0  0  0  0  0
    7.8696   14.4813  -38.9550 H   0  0  0  0  0  0  0  0  0  0  0  0
    6.7991   15.9668  -37.2614 H   0  0  0  0  0  0  0  0  0  0  0  0
    7.5525   18.3307  -37.0243 H   0  0  0  0  0  0  0  0  0  0  0  0
    9.3738   19.2132  -38.4762 H   0  0  0  0  0  0  0  0  0  0  0  0
   10.8680   19.9350  -42.1830 H   0  0  0  0  0  0  0  0  0  0  0  0
    9.0151   21.8755  -42.9083 H   0  0  0  0  0  0  0  0  0  0  0  0
   11.3192   23.6609  -41.8692 H   0  0  0  0  0  0  0  0  0  0  0  0
    8.5452   22.7901  -44.1446 H   0  0  0  0  0  0  0  0  0  0  0  0
    8.9540   26.1027  -46.8727 H   0  0  0  0  0  0  0  0  0  0  0  0
   10.9743   26.8735  -45.6367 H   0  0  0  0  0  0  0  0  0  0  0  0
   11.5335   27.4498  -42.3049 H   0  0  0  0  0  0  0  0  0  0  0  0
   16.3895   19.4732  -37.7973 H   0  0  0  0  0  0  0  0  0  0  0  0
   18.6779   18.4320  -37.6423 H   0  0  0  0  0  0  0  0  0  0  0  0
  1  2  1  0
  2  3  2  0
  3  4  1  0
  4  5  1  0
  5  6  2  0
  6  7  1  0
  7  8  1  0
  8  9  2  0
  9 10  1  0
 10 11  1  0
 11 12  1  0
 12 13  1  0
 13 14  1  0
 14 15  2  0
 15 16  1  0
 16 17  2  0
 17 18  1  0
 18 19  2  0
 12 20  1  0
 20 21  1  0
 21 22  2  0
 21 23  1  0
 23 24  2  0
 24 25  1  0
 25 26  2  0
 26 27  1  0
 27 28  1  0
 27 29  2  0
 29 30  1  0
 30 31  2  0
 31 32  1  0
 32 33  1  0
 33 34  2  0
 34 35  1  0
 35 36  2  0
 11 37  2  0
  7 38  2  0
 38 39  1  0
 39 40  2  0
 40  2  1  0
 40  5  1  0
 37  8  1  0
 19 14  1  0
 31 25  1  0
 36 32  1  0
  1 41  1  0
  1 42  1  0
  3 43  1  0
  4 44  1  0
  6 45  1  0
  9 46  1  0
 10 47  1  0
 12 48  1  1
 13 49  1  0
 13 50  1  0
 15 51  1  0
 16 52  1  0
 17 53  1  0
 18 54  1  0
 19 55  1  0
 20 56  1  0
 23 57  1  0
 24 58  1  0
 26 59  1  0
 29 60  1  0
 30 61  1  0
 33 62  1  0
 38 63  1  0
 39 64  1  0
M  CHG  1   3   1
M  END
>  <meeko>  (6) 
{"is_sidechain": [false], "free_energy": -9.828, "intermolecular_energy": -14.551, "internal_energy": -1.347}

$$$$
4x6p_ligand
     RDKit          3D

 64 69  0  0  0  0  0  0  0  0999 V2000
   18.6160   16.5640  -40.3700 N   0  0  0  0  0  0  0  0  0  0  0  0
   18.0800   17.3470  -41.3600 C   0  0  0  0  0  0  0  0  0  0  0  0
   18.3210   17.1830  -42.7350 N   0  0  0  0  0  0  0  0  0  0  0  0
   17.5450   18.2450  -43.4670 N   0  0  0  0  0  0  0  0  0  0  0  0
   16.8710   19.0030  -42.5000 C   0  0  0  0  0  0  0  0  0  0  0  0
   16.0260   20.0900  -42.6360 C   0  0  0  0  0  0  0  0  0  0  0  0
   15.4780   20.6600  -41.4680 C   0  0  0  0  0  0  0  0  0  0  0  0
   14.5850   21.8010  -41.6300 C   0  0  0  0  0  0  0  0  0  0  0  0
   14.8850   23.1310  -41.4420 C   0  0  0  0  0  0  0  0  0  0  0  0
   13.7230   23.8060  -41.7020 N   0  0  0  0  0  0  0  0  0  0  0  0
   12.7590   22.8790  -42.0180 C   0  0  0  0  0  0  0  0  0  0  0  0
   11.3590   23.3040  -42.3700 C   0  0  2  0  0  0  0  0  0  0  0  0
   10.9580   24.6290  -41.6970 C   0  0  0  0  0  0  0  0  0  0  0  0
   10.9910   25.8070  -42.6440 C   0  0  0  0  0  0  0  0  0  0  0  0
   10.5390   25.6750  -43.9640 C   0  0  0  0  0  0  0  0  0  0  0  0
   10.5500   26.7710  -44.8280 C   0  0  0  0  0  0  0  0  0  0  0  0
   11.0110   28.0080  -44.3810 C   0  0  0  0  0  0  0  0  0  0  0  0
   11.4600   28.1510  -43.0700 C   0  0  0  0  0  0  0  0  0  0  0  0
   11.4470   27.0570  -42.2040 C   0  0  0  0  0  0  0  0  0  0  0  0
   10.4750   22.2200  -41.9620 N   0  0  0  0  0  0  0  0  0  0  0  0
    9.6380   21.6240  -42.8700 C   0  0  0  0  0  0  0  0  0  0  0  0
    9.5050   22.0000  -44.0280 O   0  0  0  0  0  0  0  0  0  0  0  0
    8.9180   20.4510  -42.3220 C   0  0  0  0  0  0  0  0  0  0  0  0
    9.6130   19.4770  -41.7160 C   0  0  0  0  0  0  0  0  0  0  0  0
    8.9460   18.2950  -41.1610 C   0  0  0  0  0  0  0  0  0  0  0  0
    7.9930   17.7000  -42.0100 C   0  0  0  0  0  0  0  0  0  0  0  0
    7.3540   16.5140  -41.6520 C   0  0  0  0  0  0  0  0  0  0  0  0
    6.2050   15.8070  -42.7180 Cl  0  0  0  0  0  0  0  0  0  0  0  0
    7.6550   15.8950  -40.4480 C   0  0  0  0  0  0  0  0  0  0  0  0
    8.5940   16.4730  -39.5890 C   0  0  0  0  0  0  0  0  0  0  0  0
    9.2390   17.6850  -39.9240 C   0  0  0  0  0  0  0  0  0  0  0  0
   10.1540   18.2190  -38.9720 N   0  0  0  0  0  0  0  0  0  0  0  0
    9.9560   18.7800  -37.7350 C   0  0  0  0  0  0  0  0  0  0  0  0
   11.1060   19.1720  -37.2370 N   0  0  0  0  0  0  0  0  0  0  0  0
   12.0490   18.8180  -38.1600 N   0  0  0  0  0  0  0  0  0  0  0  0
   11.4920   18.2220  -39.2020 N   0  0  0  0  0  0  0  0  0  0  0  0
   13.2670   21.6590  -42.0090 N   0  0  0  0  0  0  0  0  0  0  0  0
   15.7840   20.1420  -40.1810 C   0  0  0  0  0  0  0  0  0  0  0  0
   16.6330   19.0430  -39.9670 C   0  0  0  0  0  0  0  0  0  0  0  0
   17.1720   18.4790  -41.1400 C   0  0  0  0  0  0  0  0  0  0  0  0
   18.1680   15.7750  -39.9080 H   0  0  0  0  0  0  0  0  0  0  0  0
   19.5520   16.7140  -39.9940 H   0  0  0  0  0  0  0  0  0  0  0  0
   18.9110   16.4780  -43.1720 H   0  0  0  0  0  0  0  0  0  0  0  0
   17.5280   18.3690  -44.4790 H   0  0  0  0  0  0  0  0  0  0  0  0
   15.7878   20.4990  -43.6290 H   0  0  0  0  0  0  0  0  0  0  0  0
   15.8534   23.5605  -41.1456 H   0  0  0  0  0  0  0  0  0  0  0  0
   13.5850   24.8110  -41.7090 H   0  0  0  0  0  0  0  0  0  0  0  0
   11.2872   23.4923  -43.4514 H   0  0  0  0  0  0  0  0  0  0  0  0
    9.9368   24.5260  -41.3013 H   0  0  0  0  0  0  0  0  0  0  0  0
   11.6896   24.8274  -40.8999 H   0  0  0  0  0  0  0  0  0  0  0  0
   10.1731   24.7011  -44.3214 H   0  0  0  0  0  0  0  0  0  0  0  0
   10.1945   26.6584  -45.8628 H   0  0  0  0  0  0  0  0  0  0  0  0
   11.0203   28.8710  -45.0630 H   0  0  0  0  0  0  0  0  0  0  0  0
   11.8250   29.1269  -42.7173 H   0  0  0  0  0  0  0  0  0  0  0  0
   11.7973   27.1766  -41.1681 H   0  0  0  0  0  0  0  0  0  0  0  0
   10.7200   21.7250  -41.1140 H   0  0  0  0  0  0  0  0  0  0  0  0
    7.8240   20.3795  -42.4112 H   0  0  0  0  0  0  0  0  0  0  0  0
   10.7062   19.5668  -41.6336 H   0  0  0  0  0  0  0  0  0  0  0  0
    7.7492   18.1783  -42.9701 H   0  0  0  0  0  0  0  0  0  0  0  0
    7.1574   14.9541  -40.1705 H   0  0  0  0  0  0  0  0  0  0  0  0
    8.8347   15.9767  -38.6373 H   0  0  0  0  0  0  0  0  0  0  0  0
    8.9812   18.8853  -37.2362 H   0  0  0  0  0  0  0  0  0  0  0  0
   15.3315   20.6279  -39.3040 H   0  0  0  0  0  0  0  0  0  0  0  0
   16.8588   18.6539  -38.9632 H   0  0  0  0  0  0  0  0  0  0  0  0
  1  2  1  0
  2  3  2  0
  3  4  1  0
  4  5  1  0
  5  6  2  0
  6  7  1  0
  7  8  1  0
  8  9  2  0
  9 10  1  0
 10 11  1  0
 11 12  1  0
 12 13  1  0
 13 14  1  0
 14 15  2  0
 15 16  1  0
 16 17  2  0
 17 18  1  0
 18 19  2  0
 12 20  1  0
 20 21  1  0
 21 22  2  0
 21 23  1  0
 23 24  2  0
 24 25  1  0
 25 26  2  0
 26 27  1  0
 27 28  1  0
 27 29  2  0
 29 30  1  0
 30 31  2  0
 31 32  1  0
 32 33  1  0
 33 34  2  0
 34 35  1  0
 35 36  2  0
 11 37  2  0
  7 38  2  0
 38 39  1  0
 39 40  2  0
 40  2  1  0
 40  5  1  0
 37  8  1  0
 19 14  1  0
 31 25  1  0
 36 32  1  0
  1 41  1  0
  1 42  1  0
  3 43  1  0
  4 44  1  0
  6 45  1  0
  9 46  1  0
 10 47  1  0
 12 48  1  6
 13 49  1  0
 13 50  1  0
 15 51  1  0
 16 52  1  0
 17 53  1  0
 18 54  1  0
 19 55  1  0
 20 56  1  0
 23 57  1  0
 24 58  1  0
 26 59  1  0
 29 60  1  0
 30 61  1  0
 33 62  1  0
 38 63  1  0
 39 64  1  0
M  CHG  1   3   1
M  END
>  <meeko>  (7) 
{"is_sidechain": [false], "free_energy": -9.809, "intermolecular_energy": -14.203, "internal_energy": -1.666}

$$$$
4x6p_ligand
     RDKit          3D

 64 69  0  0  0  0  0  0  0  0999 V2000
    6.3060   13.4190  -38.9610 N   0  0  0  0  0  0  0  0  0  0  0  0
    6.4280   14.6740  -38.4200 C   0  0  0  0  0  0  0  0  0  0  0  0
    5.5670   15.2200  -37.4530 N   0  0  0  0  0  0  0  0  0  0  0  0
    6.0550   16.6080  -37.1360 N   0  0  0  0  0  0  0  0  0  0  0  0
    7.1890   16.8380  -37.9280 C   0  0  0  0  0  0  0  0  0  0  0  0
    8.0130   17.9450  -38.0220 C   0  0  0  0  0  0  0  0  0  0  0  0
    9.1020   17.8920  -38.9160 C   0  0  0  0  0  0  0  0  0  0  0  0
    9.9630   19.0670  -38.9980 C   0  0  0  0  0  0  0  0  0  0  0  0
   10.4500   19.8200  -37.9540 C   0  0  0  0  0  0  0  0  0  0  0  0
   11.1920   20.8120  -38.5380 N   0  0  0  0  0  0  0  0  0  0  0  0
   11.1200   20.6460  -39.9000 C   0  0  0  0  0  0  0  0  0  0  0  0
   11.8450   21.5760  -40.8340 C   0  0  2  0  0  0  0  0  0  0  0  0
   11.0650   21.8320  -42.1360 C   0  0  0  0  0  0  0  0  0  0  0  0
   10.8830   23.3020  -42.4380 C   0  0  0  0  0  0  0  0  0  0  0  0
   10.8800   24.2480  -41.4040 C   0  0  0  0  0  0  0  0  0  0  0  0
   10.7330   25.6060  -41.6880 C   0  0  0  0  0  0  0  0  0  0  0  0
   10.5920   26.0310  -43.0080 C   0  0  0  0  0  0  0  0  0  0  0  0
   10.5960   25.1000  -44.0440 C   0  0  0  0  0  0  0  0  0  0  0  0
   10.7440   23.7410  -43.7620 C   0  0  0  0  0  0  0  0  0  0  0  0
   13.1420   20.9700  -41.1090 N   0  0  0  0  0  0  0  0  0  0  0  0
   14.2710   21.7430  -41.1820 C   0  0  0  0  0  0  0  0  0  0  0  0
   14.2690   22.9660  -41.1150 O   0  0  0  0  0  0  0  0  0  0  0  0
   15.5160   20.9520  -41.3250 C   0  0  0  0  0  0  0  0  0  0  0  0
   15.5300   19.6710  -40.9270 C   0  0  0  0  0  0  0  0  0  0  0  0
   16.7380   18.8490  -41.0450 C   0  0  0  0  0  0  0  0  0  0  0  0
   17.5350   18.7970  -39.8850 C   0  0  0  0  0  0  0  0  0  0  0  0
   18.6590   17.9770  -39.8230 C   0  0  0  0  0  0  0  0  0  0  0  0
   19.6030   17.9270  -38.3860 Cl  0  0  0  0  0  0  0  0  0  0  0  0
   19.0090   17.1870  -40.9090 C   0  0  0  0  0  0  0  0  0  0  0  0
   18.2340   17.2290  -42.0710 C   0  0  0  0  0  0  0  0  0  0  0  0
   17.1010   18.0680  -42.1630 C   0  0  0  0  0  0  0  0  0  0  0  0
   16.3920   18.0730  -43.3980 N   0  0  0  0  0  0  0  0  0  0  0  0
   15.4910   17.1860  -43.9320 C   0  0  0  0  0  0  0  0  0  0  0  0
   15.1290   17.5900  -45.1290 N   0  0  0  0  0  0  0  0  0  0  0  0
   15.7860   18.7700  -45.3350 N   0  0  0  0  0  0  0  0  0  0  0  0
   16.5340   19.0860  -44.2900 N   0  0  0  0  0  0  0  0  0  0  0  0
   10.4030   19.5770  -40.2000 N   0  0  0  0  0  0  0  0  0  0  0  0
    9.3530   16.7390  -39.7060 C   0  0  0  0  0  0  0  0  0  0  0  0
    8.5590   15.5800  -39.6640 C   0  0  0  0  0  0  0  0  0  0  0  0
    7.4760   15.6420  -38.7660 C   0  0  0  0  0  0  0  0  0  0  0  0
    6.1610   12.5480  -38.4540 H   0  0  0  0  0  0  0  0  0  0  0  0
    6.3560   13.2440  -39.9640 H   0  0  0  0  0  0  0  0  0  0  0  0
    4.7560   14.7700  -37.0320 H   0  0  0  0  0  0  0  0  0  0  0  0
    5.6250   17.2450  -36.4660 H   0  0  0  0  0  0  0  0  0  0  0  0
    7.8237   18.8429  -37.4154 H   0  0  0  0  0  0  0  0  0  0  0  0
   10.2796   19.6593  -36.8792 H   0  0  0  0  0  0  0  0  0  0  0  0
   11.7400   21.5250  -38.0690 H   0  0  0  0  0  0  0  0  0  0  0  0
   11.9577   22.5637  -40.3631 H   0  0  0  0  0  0  0  0  0  0  0  0
   11.6131   21.3684  -42.9695 H   0  0  0  0  0  0  0  0  0  0  0  0
   10.0629   21.3962  -42.0096 H   0  0  0  0  0  0  0  0  0  0  0  0
   10.9944   23.9175  -40.3611 H   0  0  0  0  0  0  0  0  0  0  0  0
   10.7284   26.3415  -40.8700 H   0  0  0  0  0  0  0  0  0  0  0  0
   10.4775   27.1019  -43.2316 H   0  0  0  0  0  0  0  0  0  0  0  0
   10.4824   25.4360  -45.0852 H   0  0  0  0  0  0  0  0  0  0  0  0
   10.7516   23.0099  -44.5839 H   0  0  0  0  0  0  0  0  0  0  0  0
   13.2300   19.9790  -40.9280 H   0  0  0  0  0  0  0  0  0  0  0  0
   16.4195   21.4106  -41.7532 H   0  0  0  0  0  0  0  0  0  0  0  0
   14.6164   19.2284  -40.5035 H   0  0  0  0  0  0  0  0  0  0  0  0
   17.2656   19.4134  -39.0147 H   0  0  0  0  0  0  0  0  0  0  0  0
   19.8910   16.5319  -40.8554 H   0  0  0  0  0  0  0  0  0  0  0  0
   18.5107   16.5982  -42.9286 H   0  0  0  0  0  0  0  0  0  0  0  0
   15.1272   16.2753  -43.4338 H   0  0  0  0  0  0  0  0  0  0  0  0
   10.2159   16.7537  -40.3880 H   0  0  0  0  0  0  0  0  0  0  0  0
    8.7670   14.6950  -40.2833 H   0  0  0  0  0  0  0  0  0  0  0  0
  1  2  1  0
  2  3  2  0
  3  4  1  0
  4  5  1  0
  5  6  2  0
  6  7  1  0
  7  8  1  0
  8  9  2  0
  9 10  1  0
 10 11  1  0
 11 12  1  0
 12 13  1  0
 13 14  1  0
 14 15  2  0
 15 16  1  0
 16 17  2  0
 17 18  1  0
 18 19  2  0
 12 20  1  0
 20 21  1  0
 21 22  2  0
 21 23  1  0
 23 24  2  0
 24 25  1  0
 25 26  2  0
 26 27  1  0
 27 28  1  0
 27 29  2  0
 29 30  1  0
 30 31  2  0
 31 32  1  0
 32 33  1  0
 33 34  2  0
 34 35  1  0
 35 36  2  0
 11 37  2  0
  7 38  2  0
 38 39  1  0
 39 40  2  0
 40  2  1  0
 40  5  1  0
 37  8  1  0
 19 14  1  0
 31 25  1  0
 36 32  1  0
  1 41  1  0
  1 42  1  0
  3 43  1  0
  4 44  1  0
  6 45  1  0
  9 46  1  0
 10 47  1  0
 12 48  1  1
 13 49  1  0
 13 50  1  0
 15 51  1  0
 16 52  1  0
 17 53  1  0
 18 54  1  0
 19 55  1  0
 20 56  1  0
 23 57  1  0
 24 58  1  0
 26 59  1  0
 29 60  1  0
 30 61  1  0
 33 62  1  0
 38 63  1  0
 39 64  1  0
M  CHG  1   3   1
M  END
>  <meeko>  (8) 
{"is_sidechain": [false], "free_energy": -9.583, "intermolecular_energy": -13.934, "internal_energy": -1.596}

$$$$
4x6p_ligand
     RDKit          3D

 64 69  0  0  0  0  0  0  0  0999 V2000
   19.3640   21.8460  -48.9630 N   0  0  0  0  0  0  0  0  0  0  0  0
   18.4210   21.0910  -48.3140 C   0  0  0  0  0  0  0  0  0  0  0  0
   17.6880   20.0430  -48.8950 N   0  0  0  0  0  0  0  0  0  0  0  0
   16.7680   19.4860  -47.8430 N   0  0  0  0  0  0  0  0  0  0  0  0
   16.9860   20.2250  -46.6720 C   0  0  0  0  0  0  0  0  0  0  0  0
   16.4050   20.1230  -45.4200 C   0  0  0  0  0  0  0  0  0  0  0  0
   16.8300   21.0120  -44.4130 C   0  0  0  0  0  0  0  0  0  0  0  0
   16.2110   20.8860  -43.0980 C   0  0  0  0  0  0  0  0  0  0  0  0
   15.6800   21.8930  -42.3240 C   0  0  0  0  0  0  0  0  0  0  0  0
   15.2360   21.2790  -41.1840 N   0  0  0  0  0  0  0  0  0  0  0  0
   15.5230   19.9390  -41.2880 C   0  0  0  0  0  0  0  0  0  0  0  0
   15.1490   18.9790  -40.1920 C   0  0  2  0  0  0  0  0  0  0  0  0
   15.8950   17.6370  -40.3020 C   0  0  0  0  0  0  0  0  0  0  0  0
   17.3350   17.7220  -39.8480 C   0  0  0  0  0  0  0  0  0  0  0  0
   18.3340   16.9900  -40.5020 C   0  0  0  0  0  0  0  0  0  0  0  0
   19.6650   17.0880  -40.0950 C   0  0  0  0  0  0  0  0  0  0  0  0
   20.0090   17.9200  -39.0310 C   0  0  0  0  0  0  0  0  0  0  0  0
   19.0240   18.6550  -38.3750 C   0  0  0  0  0  0  0  0  0  0  0  0
   17.6930   18.5590  -38.7820 C   0  0  0  0  0  0  0  0  0  0  0  0
   13.7060   18.7850  -40.2770 N   0  0  0  0  0  0  0  0  0  0  0  0
   12.9520   18.6590  -39.1390 C   0  0  0  0  0  0  0  0  0  0  0  0
   13.4210   18.6090  -38.0090 O   0  0  0  0  0  0  0  0  0  0  0  0
   11.4950   18.6140  -39.4030 C   0  0  0  0  0  0  0  0  0  0  0  0
   10.6380   18.6890  -38.3740 C   0  0  0  0  0  0  0  0  0  0  0  0
    9.1880   18.6460  -38.5830 C   0  0  0  0  0  0  0  0  0  0  0  0
    8.6070   17.3700  -38.4420 C   0  0  0  0  0  0  0  0  0  0  0  0
    7.2260   17.1990  -38.5170 C   0  0  0  0  0  0  0  0  0  0  0  0
    6.5490   15.6300  -38.3270 Cl  0  0  0  0  0  0  0  0  0  0  0  0
    6.3970   18.2910  -38.7270 C   0  0  0  0  0  0  0  0  0  0  0  0
    6.9550   19.5630  -38.8750 C   0  0  0  0  0  0  0  0  0  0  0  0
    8.3530   19.7580  -38.8220 C   0  0  0  0  0  0  0  0  0  0  0  0
    8.8340   21.0840  -39.0200 N   0  0  0  0  0  0  0  0  0  0  0  0
    9.3380   21.7120  -40.1320 C   0  0  0  0  0  0  0  0  0  0  0  0
    9.6960   22.9370  -39.8230 N   0  0  0  0  0  0  0  0  0  0  0  0
    9.3780   23.0950  -38.5040 N   0  0  0  0  0  0  0  0  0  0  0  0
    8.8360   21.9920  -38.0120 N   0  0  0  0  0  0  0  0  0  0  0  0
   16.0890   19.6750  -42.4530 N   0  0  0  0  0  0  0  0  0  0  0  0
   17.8250   21.9950  -44.6660 C   0  0  0  0  0  0  0  0  0  0  0  0
   18.4570   22.1570  -45.9110 C   0  0  0  0  0  0  0  0  0  0  0  0
   18.0280   21.2610  -46.9090 C   0  0  0  0  0  0  0  0  0  0  0  0
   19.3370   22.8510  -49.1230 H   0  0  0  0  0  0  0  0  0  0  0  0
   20.2130   21.4440  -49.3620 H   0  0  0  0  0  0  0  0  0  0  0  0
   17.7570   19.7080  -49.8540 H   0  0  0  0  0  0  0  0  0  0  0  0
   16.1160   18.7140  -47.9790 H   0  0  0  0  0  0  0  0  0  0  0  0
   15.6317   19.3676  -45.2165 H   0  0  0  0  0  0  0  0  0  0  0  0
   15.6243   22.9638  -42.5695 H   0  0  0  0  0  0  0  0  0  0  0  0
   14.7430   21.7080  -40.4080 H   0  0  0  0  0  0  0  0  0  0  0  0
   15.4401   19.3957  -39.2165 H   0  0  0  0  0  0  0  0  0  0  0  0
   15.3744   16.8946  -39.6792 H   0  0  0  0  0  0  0  0  0  0  0  0
   15.9014   17.3504  -41.3640 H   0  0  0  0  0  0  0  0  0  0  0  0
   18.0673   16.3329  -41.3429 H   0  0  0  0  0  0  0  0  0  0  0  0
   20.4429   16.5086  -40.6139 H   0  0  0  0  0  0  0  0  0  0  0  0
   21.0581   17.9963  -38.7093 H   0  0  0  0  0  0  0  0  0  0  0  0
   19.2959   19.3116  -37.5354 H   0  0  0  0  0  0  0  0  0  0  0  0
   16.9194   19.1440  -38.2630 H   0  0  0  0  0  0  0  0  0  0  0  0
   13.2590   19.0610  -41.1410 H   0  0  0  0  0  0  0  0  0  0  0  0
   11.1197   18.5200  -40.4327 H   0  0  0  0  0  0  0  0  0  0  0  0
   11.0318   18.7848  -37.3514 H   0  0  0  0  0  0  0  0  0  0  0  0
    9.2529   16.4963  -38.2703 H   0  0  0  0  0  0  0  0  0  0  0  0
    5.3064   18.1561  -38.7767 H   0  0  0  0  0  0  0  0  0  0  0  0
    6.2943   20.4277  -39.0356 H   0  0  0  0  0  0  0  0  0  0  0  0
    9.4282   21.2581  -41.1299 H   0  0  0  0  0  0  0  0  0  0  0  0
   18.1160   22.6648  -43.8434 H   0  0  0  0  0  0  0  0  0  0  0  0
   19.2257   22.9229  -46.0914 H   0  0  0  0  0  0  0  0  0  0  0  0
  1  2  1  0
  2  3  2  0
  3  4  1  0
  4  5  1  0
  5  6  2  0
  6  7  1  0
  7  8  1  0
  8  9  2  0
  9 10  1  0
 10 11  1  0
 11 12  1  0
 12 13  1  0
 13 14  1  0
 14 15  2  0
 15 16  1  0
 16 17  2  0
 17 18  1  0
 18 19  2  0
 12 20  1  0
 20 21  1  0
 21 22  2  0
 21 23  1  0
 23 24  2  0
 24 25  1  0
 25 26  2  0
 26 27  1  0
 27 28  1  0
 27 29  2  0
 29 30  1  0
 30 31  2  0
 31 32  1  0
 32 33  1  0
 33 34  2  0
 34 35  1  0
 35 36  2  0
 11 37  2  0
  7 38  2  0
 38 39  1  0
 39 40  2  0
 40  2  1  0
 40  5  1  0
 37  8  1  0
 19 14  1  0
 31 25  1  0
 36 32  1  0
  1 41  1  0
  1 42  1  0
  3 43  1  0
  4 44  1  0
  6 45  1  0
  9 46  1  0
 10 47  1  0
 12 48  1  1
 13 49  1  0
 13 50  1  0
 15 51  1  0
 16 52  1  0
 17 53  1  0
 18 54  1  0
 19 55  1  0
 20 56  1  0
 23 57  1  0
 24 58  1  0
 26 59  1  0
 29 60  1  0
 30 61  1  0
 33 62  1  0
 38 63  1  0
 39 64  1  0
M  CHG  1   3   1
M  END
>  <meeko>  (9) 
{"is_sidechain": [false], "free_energy": -9.418, "intermolecular_energy": -13.852, "internal_energy": -1.433}

$$$$
