3jya_ligand
     RDKit          3D

 20 22  0  0  0  0  0  0  0  0999 V2000
    3.2170   82.6820   -1.8350 O   0  0  0  0  0  0  0  0  0  0  0  0
    3.9760   82.7020   -0.8710 C   0  0  0  0  0  0  0  0  0  0  0  0
    3.5450   83.1480    0.3570 N   0  0  0  0  0  0  0  0  0  0  0  0
    4.3620   83.1870    1.4590 C   0  0  0  0  0  0  0  0  0  0  0  0
    5.6030   82.8260    1.5000 N   0  0  0  0  0  0  0  0  0  0  0  0
    6.1230   82.3560    0.2780 C   0  0  0  0  0  0  0  0  0  0  0  0
    5.3510   82.2980   -0.8480 C   0  0  0  0  0  0  0  0  0  0  0  0
    6.1890   81.7030   -2.1790 S   0  0  0  0  0  0  0  0  0  0  0  0
    7.6500   81.5030   -1.2600 C   0  0  0  0  0  0  0  0  0  0  0  0
    8.8960   81.0120   -1.7210 C   0  0  0  0  0  0  0  0  0  0  0  0
    9.1320   80.5190   -3.3590 Cl  0  0  0  0  0  0  0  0  0  0  0  0
    9.9760   80.9150   -0.8400 C   0  0  0  0  0  0  0  0  0  0  0  0
    9.8350   81.2970    0.4830 C   0  0  0  0  0  0  0  0  0  0  0  0
    8.6060   81.7820    0.9330 C   0  0  0  0  0  0  0  0  0  0  0  0
    8.4400   82.2530    2.5720 Cl  0  0  0  0  0  0  0  0  0  0  0  0
    7.4730   81.9020    0.0850 C   0  0  0  0  0  0  0  0  0  0  0  0
    2.5840   83.4490    0.4090 H   0  0  0  0  0  0  0  0  0  0  0  0
    3.9200   83.5601    2.3946 H   0  0  0  0  0  0  0  0  0  0  0  0
   10.9430   80.5332   -1.1994 H   0  0  0  0  0  0  0  0  0  0  0  0
   10.6862   81.2188    1.1754 H   0  0  0  0  0  0  0  0  0  0  0  0
  1  2  2  0
  2  3  1  0
  3  4  1  0
  4  5  2  0
  5  6  1  0
  6  7  2  0
  7  8  1  0
  8  9  1  0
  9 10  2  0
 10 11  1  0
 10 12  1  0
 12 13  2  0
 13 14  1  0
 14 15  1  0
 14 16  2  0
  7  2  1  0
 16  9  1  0
 16  6  1  0
  3 17  1  0
  4 18  1  0
 12 19  1  0
 13 20  1  0
M  END
>  <meeko>  (1) 
{"is_sidechain": [false], "free_energy": -8.357, "intermolecular_energy": -8.357, "internal_energy": 0.0}

$$$$
3jya_ligand
     RDKit          3D

 20 22  0  0  0  0  0  0  0  0999 V2000
    2.6470   83.2850    0.1100 O   0  0  0  0  0  0  0  0  0  0  0  0
    3.5660   82.8450   -0.5730 C   0  0  0  0  0  0  0  0  0  0  0  0
    3.3790   82.5530   -1.9040 N   0  0  0  0  0  0  0  0  0  0  0  0
    4.3800   82.0600   -2.7020 C   0  0  0  0  0  0  0  0  0  0  0  0
    5.5940   81.8080   -2.3340 N   0  0  0  0  0  0  0  0  0  0  0  0
    5.8680   82.0800   -0.9790 C   0  0  0  0  0  0  0  0  0  0  0  0
    4.9060   82.5720   -0.1430 C   0  0  0  0  0  0  0  0  0  0  0  0
    5.4690   82.8170    1.4220 S   0  0  0  0  0  0  0  0  0  0  0  0
    7.0620   82.2550    1.0130 C   0  0  0  0  0  0  0  0  0  0  0  0
    8.1850   82.1550    1.8700 C   0  0  0  0  0  0  0  0  0  0  0  0
    8.1060   82.6090    3.5340 Cl  0  0  0  0  0  0  0  0  0  0  0  0
    9.4010   81.6780    1.3730 C   0  0  0  0  0  0  0  0  0  0  0  0
    9.5130   81.3020    0.0450 C   0  0  0  0  0  0  0  0  0  0  0  0
    8.4040   81.4010   -0.7960 C   0  0  0  0  0  0  0  0  0  0  0  0
    8.5520   80.9340   -2.4370 Cl  0  0  0  0  0  0  0  0  0  0  0  0
    7.1430   81.8790   -0.3470 C   0  0  0  0  0  0  0  0  0  0  0  0
    2.4540   82.7230   -2.2710 H   0  0  0  0  0  0  0  0  0  0  0  0
    4.1263   81.8603   -3.7536 H   0  0  0  0  0  0  0  0  0  0  0  0
   10.2727   81.6009    2.0395 H   0  0  0  0  0  0  0  0  0  0  0  0
   10.4710   80.9273   -0.3448 H   0  0  0  0  0  0  0  0  0  0  0  0
  1  2  2  0
  2  3  1  0
  3  4  1  0
  4  5  2  0
  5  6  1  0
  6  7  2  0
  7  8  1  0
  8  9  1  0
  9 10  2  0
 10 11  1  0
 10 12  1  0
 12 13  2  0
 13 14  1  0
 14 15  1  0
 14 16  2  0
  7  2  1  0
 16  9  1  0
 16  6  1  0
  3 17  1  0
  4 18  1  0
 12 19  1  0
 13 20  1  0
M  END
>  <meeko>  (2) 
{"is_sidechain": [false], "free_energy": -8.085, "intermolecular_energy": -8.085, "internal_energy": 0.0}

$$$$
3jya_ligand
     RDKit          3D

 20 22  0  0  0  0  0  0  0  0999 V2000
    5.9130   83.0130    4.2980 O   0  0  0  0  0  0  0  0  0  0  0  0
    5.4240   82.9050    3.1770 C   0  0  0  0  0  0  0  0  0  0  0  0
    4.0870   83.1450    2.9650 N   0  0  0  0  0  0  0  0  0  0  0  0
    3.5020   83.0350    1.7280 C   0  0  0  0  0  0  0  0  0  0  0  0
    4.0990   82.7060    0.6290 N   0  0  0  0  0  0  0  0  0  0  0  0
    5.4770   82.4440    0.7620 C   0  0  0  0  0  0  0  0  0  0  0  0
    6.1060   82.5380    1.9710 C   0  0  0  0  0  0  0  0  0  0  0  0
    7.7460   82.1790    1.8790 S   0  0  0  0  0  0  0  0  0  0  0  0
    7.6570   81.8790    0.1700 C   0  0  0  0  0  0  0  0  0  0  0  0
    8.7140   81.4970   -0.6930 C   0  0  0  0  0  0  0  0  0  0  0  0
   10.3260   81.2700   -0.1160 Cl  0  0  0  0  0  0  0  0  0  0  0  0
    8.4660   81.2950   -2.0530 C   0  0  0  0  0  0  0  0  0  0  0  0
    7.1900   81.4660   -2.5630 C   0  0  0  0  0  0  0  0  0  0  0  0
    6.1510   81.8410   -1.7090 C   0  0  0  0  0  0  0  0  0  0  0  0
    4.5750   82.0500   -2.3480 Cl  0  0  0  0  0  0  0  0  0  0  0  0
    6.3440   82.0610   -0.3190 C   0  0  0  0  0  0  0  0  0  0  0  0
    3.5480   83.4080    3.7760 H   0  0  0  0  0  0  0  0  0  0  0  0
    2.4243   83.2466    1.6657 H   0  0  0  0  0  0  0  0  0  0  0  0
    9.2878   80.9989   -2.7215 H   0  0  0  0  0  0  0  0  0  0  0  0
    6.9962   81.3074   -3.6341 H   0  0  0  0  0  0  0  0  0  0  0  0
  1  2  2  0
  2  3  1  0
  3  4  1  0
  4  5  2  0
  5  6  1  0
  6  7  2  0
  7  8  1  0
  8  9  1  0
  9 10  2  0
 10 11  1  0
 10 12  1  0
 12 13  2  0
 13 14  1  0
 14 15  1  0
 14 16  2  0
  7  2  1  0
 16  9  1  0
 16  6  1  0
  3 17  1  0
  4 18  1  0
 12 19  1  0
 13 20  1  0
M  END
>  <meeko>  (3) 
{"is_sidechain": [false], "free_energy": -7.95, "intermolecular_energy": -7.95, "internal_energy": 0.0}

$$$$
3jya_ligand
     RDKit          3D

 20 22  0  0  0  0  0  0  0  0999 V2000
    4.6190   83.4390    3.9030 O   0  0  0  0  0  0  0  0  0  0  0  0
    5.7100   83.1020    3.4520 C   0  0  0  0  0  0  0  0  0  0  0  0
    6.8220   83.0520    4.2600 N   0  0  0  0  0  0  0  0  0  0  0  0
    8.0580   82.6810    3.7940 C   0  0  0  0  0  0  0  0  0  0  0  0
    8.3440   82.3370    2.5800 N   0  0  0  0  0  0  0  0  0  0  0  0
    7.2550   82.3620    1.6880 C   0  0  0  0  0  0  0  0  0  0  0  0
    6.0040   82.7250    2.1010 C   0  0  0  0  0  0  0  0  0  0  0  0
    4.8710   82.6770    0.8600 S   0  0  0  0  0  0  0  0  0  0  0  0
    6.0570   82.1550   -0.2980 C   0  0  0  0  0  0  0  0  0  0  0  0
    5.8530   81.8790   -1.6730 C   0  0  0  0  0  0  0  0  0  0  0  0
    4.3020   82.0360   -2.4150 Cl  0  0  0  0  0  0  0  0  0  0  0  0
    6.9260   81.4650   -2.4670 C   0  0  0  0  0  0  0  0  0  0  0  0
    8.1880   81.3240   -1.9170 C   0  0  0  0  0  0  0  0  0  0  0  0
    8.3850   81.5980   -0.5620 C   0  0  0  0  0  0  0  0  0  0  0  0
    9.9500   81.4200    0.1100 Cl  0  0  0  0  0  0  0  0  0  0  0  0
    7.3330   82.0210    0.2940 C   0  0  0  0  0  0  0  0  0  0  0  0
    6.6820   83.3070    5.2260 H   0  0  0  0  0  0  0  0  0  0  0  0
    8.8835   82.6755    4.5210 H   0  0  0  0  0  0  0  0  0  0  0  0
    6.7667   81.2502   -3.5340 H   0  0  0  0  0  0  0  0  0  0  0  0
    9.0312   80.9979   -2.5437 H   0  0  0  0  0  0  0  0  0  0  0  0
  1  2  2  0
  2  3  1  0
  3  4  1  0
  4  5  2  0
  5  6  1  0
  6  7  2  0
  7  8  1  0
  8  9  1  0
  9 10  2  0
 10 11  1  0
 10 12  1  0
 12 13  2  0
 13 14  1  0
 14 15  1  0
 14 16  2  0
  7  2  1  0
 16  9  1  0
 16  6  1  0
  3 17  1  0
  4 18  1  0
 12 19  1  0
 13 20  1  0
M  END
>  <meeko>  (4) 
{"is_sidechain": [false], "free_energy": -7.924, "intermolecular_energy": -7.924, "internal_energy": 0.0}

$$$$
3jya_ligand
     RDKit          3D

 20 22  0  0  0  0  0  0  0  0999 V2000
    9.1990   80.8190   -2.8440 O   0  0  0  0  0  0  0  0  0  0  0  0
    9.0210   81.1100   -1.6650 C   0  0  0  0  0  0  0  0  0  0  0  0
   10.0450   81.0140   -0.7530 N   0  0  0  0  0  0  0  0  0  0  0  0
    9.8880   81.3300    0.5730 C   0  0  0  0  0  0  0  0  0  0  0  0
    8.7990   81.7470    1.1330 N   0  0  0  0  0  0  0  0  0  0  0  0
    7.6990   81.8740    0.2630 C   0  0  0  0  0  0  0  0  0  0  0  0
    7.8030   81.5710   -1.0660 C   0  0  0  0  0  0  0  0  0  0  0  0
    6.3610   81.8010   -1.8990 S   0  0  0  0  0  0  0  0  0  0  0  0
    5.5330   82.3250   -0.4640 C   0  0  0  0  0  0  0  0  0  0  0  0
    4.1790   82.7240   -0.3500 C   0  0  0  0  0  0  0  0  0  0  0  0
    3.1150   82.7400   -1.7110 Cl  0  0  0  0  0  0  0  0  0  0  0  0
    3.6700   83.1200    0.8890 C   0  0  0  0  0  0  0  0  0  0  0  0
    4.4850   83.1240    2.0090 C   0  0  0  0  0  0  0  0  0  0  0  0
    5.8190   82.7300    1.8920 C   0  0  0  0  0  0  0  0  0  0  0  0
    6.8190   82.7380    3.2830 Cl  0  0  0  0  0  0  0  0  0  0  0  0
    6.3900   82.3180    0.6590 C   0  0  0  0  0  0  0  0  0  0  0  0
   10.9320   80.6930   -1.1120 H   0  0  0  0  0  0  0  0  0  0  0  0
   10.7704   81.2183    1.2202 H   0  0  0  0  0  0  0  0  0  0  0  0
    2.6181   83.4298    0.9756 H   0  0  0  0  0  0  0  0  0  0  0  0
    4.0835   83.4357    2.9845 H   0  0  0  0  0  0  0  0  0  0  0  0
  1  2  2  0
  2  3  1  0
  3  4  1  0
  4  5  2  0
  5  6  1  0
  6  7  2  0
  7  8  1  0
  8  9  1  0
  9 10  2  0
 10 11  1  0
 10 12  1  0
 12 13  2  0
 13 14  1  0
 14 15  1  0
 14 16  2  0
  7  2  1  0
 16  9  1  0
 16  6  1  0
  3 17  1  0
  4 18  1  0
 12 19  1  0
 13 20  1  0
M  END
>  <meeko>  (5) 
{"is_sidechain": [false], "free_energy": -7.789, "intermolecular_energy": -7.789, "internal_energy": 0.0}

$$$$
3jya_ligand
     RDKit          3D

 20 22  0  0  0  0  0  0  0  0999 V2000
   10.8080   80.9060   -0.4600 O   0  0  0  0  0  0  0  0  0  0  0  0
    9.7290   81.0430   -1.0290 C   0  0  0  0  0  0  0  0  0  0  0  0
    9.5890   80.7280   -2.3610 N   0  0  0  0  0  0  0  0  0  0  0  0
    8.4010   80.8670   -3.0330 C   0  0  0  0  0  0  0  0  0  0  0  0
    7.2880   81.2950   -2.5330 N   0  0  0  0  0  0  0  0  0  0  0  0
    7.3480   81.6400   -1.1690 C   0  0  0  0  0  0  0  0  0  0  0  0
    8.5070   81.5210   -0.4540 C   0  0  0  0  0  0  0  0  0  0  0  0
    8.3310   81.9910    1.1500 S   0  0  0  0  0  0  0  0  0  0  0  0
    6.6520   82.3790    0.9270 C   0  0  0  0  0  0  0  0  0  0  0  0
    5.7480   82.8770    1.8970 C   0  0  0  0  0  0  0  0  0  0  0  0
    6.2340   83.1780    3.5270 Cl  0  0  0  0  0  0  0  0  0  0  0  0
    4.4210   83.1380    1.5460 C   0  0  0  0  0  0  0  0  0  0  0  0
    3.9850   82.9110    0.2510 C   0  0  0  0  0  0  0  0  0  0  0  0
    4.8790   82.4220   -0.7020 C   0  0  0  0  0  0  0  0  0  0  0  0
    4.3300   82.1450   -2.3010 Cl  0  0  0  0  0  0  0  0  0  0  0  0
    6.2380   82.1380   -0.4020 C   0  0  0  0  0  0  0  0  0  0  0  0
   10.4160   80.3850   -2.8260 H   0  0  0  0  0  0  0  0  0  0  0  0
    8.3947   80.5882   -4.0971 H   0  0  0  0  0  0  0  0  0  0  0  0
    3.7203   83.5250    2.3005 H   0  0  0  0  0  0  0  0  0  0  0  0
    2.9398   83.1151   -0.0245 H   0  0  0  0  0  0  0  0  0  0  0  0
  1  2  2  0
  2  3  1  0
  3  4  1  0
  4  5  2  0
  5  6  1  0
  6  7  2  0
  7  8  1  0
  8  9  1  0
  9 10  2  0
 10 11  1  0
 10 12  1  0
 12 13  2  0
 13 14  1  0
 14 15  1  0
 14 16  2  0
  7  2  1  0
 16  9  1  0
 16  6  1  0
  3 17  1  0
  4 18  1  0
 12 19  1  0
 13 20  1  0
M  END
>  <meeko>  (6) 
{"is_sidechain": [false], "free_energy": -7.581, "intermolecular_energy": -7.581, "internal_energy": 0.0}

$$$$
3jya_ligand
     RDKit          3D

 20 22  0  0  0  0  0  0  0  0999 V2000
    9.2040   81.6550    2.5330 O   0  0  0  0  0  0  0  0  0  0  0  0
    8.7050   81.6670    1.4120 C   0  0  0  0  0  0  0  0  0  0  0  0
    9.4570   81.3620    0.3020 N   0  0  0  0  0  0  0  0  0  0  0  0
    8.9370   81.3640   -0.9680 C   0  0  0  0  0  0  0  0  0  0  0  0
    7.7160   81.6410   -1.2910 N   0  0  0  0  0  0  0  0  0  0  0  0
    6.8770   81.9640   -0.2060 C   0  0  0  0  0  0  0  0  0  0  0  0
    7.3460   81.9780    1.0770 C   0  0  0  0  0  0  0  0  0  0  0  0
    6.1620   82.3920    2.1960 S   0  0  0  0  0  0  0  0  0  0  0  0
    4.9550   82.5710    0.9600 C   0  0  0  0  0  0  0  0  0  0  0  0
    3.5960   82.9340    1.1300 C   0  0  0  0  0  0  0  0  0  0  0  0
    2.9290   83.2630    2.6890 Cl  0  0  0  0  0  0  0  0  0  0  0  0
    2.7560   83.0330    0.0180 C   0  0  0  0  0  0  0  0  0  0  0  0
    3.2460   82.7780   -1.2510 C   0  0  0  0  0  0  0  0  0  0  0  0
    4.5850   82.4220   -1.4150 C   0  0  0  0  0  0  0  0  0  0  0  0
    5.1830   82.1090   -2.9900 Cl  0  0  0  0  0  0  0  0  0  0  0  0
    5.4860   82.3060   -0.3230 C   0  0  0  0  0  0  0  0  0  0  0  0
   10.4260   81.1340    0.4690 H   0  0  0  0  0  0  0  0  0  0  0  0
    9.6232   81.1058   -1.7880 H   0  0  0  0  0  0  0  0  0  0  0  0
    1.7011   83.3147    0.1516 H   0  0  0  0  0  0  0  0  0  0  0  0
    2.5833   82.8556   -2.1256 H   0  0  0  0  0  0  0  0  0  0  0  0
  1  2  2  0
  2  3  1  0
  3  4  1  0
  4  5  2  0
  5  6  1  0
  6  7  2  0
  7  8  1  0
  8  9  1  0
  9 10  2  0
 10 11  1  0
 10 12  1  0
 12 13  2  0
 13 14  1  0
 14 15  1  0
 14 16  2  0
  7  2  1  0
 16  9  1  0
 16  6  1  0
  3 17  1  0
  4 18  1  0
 12 19  1  0
 13 20  1  0
M  END
>  <meeko>  (7) 
{"is_sidechain": [false], "free_energy": -7.4, "intermolecular_energy": -7.4, "internal_energy": 0.0}

$$$$
3jya_ligand
     RDKit          3D

 20 22  0  0  0  0  0  0  0  0999 V2000
    9.5770   81.3850    1.5920 O   0  0  0  0  0  0  0  0  0  0  0  0
    8.5080   81.7400    2.0790 C   0  0  0  0  0  0  0  0  0  0  0  0
    8.3840   81.9430    3.4340 N   0  0  0  0  0  0  0  0  0  0  0  0
    7.2070   82.3390    4.0180 C   0  0  0  0  0  0  0  0  0  0  0  0
    6.0920   82.5700    3.4050 N   0  0  0  0  0  0  0  0  0  0  0  0
    6.1360   82.3840    2.0090 C   0  0  0  0  0  0  0  0  0  0  0  0
    7.2830   81.9900    1.3790 C   0  0  0  0  0  0  0  0  0  0  0  0
    7.0900   81.8370   -0.2840 S   0  0  0  0  0  0  0  0  0  0  0  0
    5.4190   82.3060   -0.2050 C   0  0  0  0  0  0  0  0  0  0  0  0
    4.5060   82.4230   -1.2820 C   0  0  0  0  0  0  0  0  0  0  0  0
    4.9720   82.0920   -2.9120 Cl  0  0  0  0  0  0  0  0  0  0  0  0
    3.1880   82.8150   -1.0400 C   0  0  0  0  0  0  0  0  0  0  0  0
    2.7670   83.0920    0.2500 C   0  0  0  0  0  0  0  0  0  0  0  0
    3.6690   82.9750    1.3090 C   0  0  0  0  0  0  0  0  0  0  0  0
    3.1410   83.3180    2.9020 Cl  0  0  0  0  0  0  0  0  0  0  0  0
    5.0210   82.5800    1.1230 C   0  0  0  0  0  0  0  0  0  0  0  0
    9.2130   81.7830    3.9860 H   0  0  0  0  0  0  0  0  0  0  0  0
    7.2125   82.4724    5.1099 H   0  0  0  0  0  0  0  0  0  0  0  0
    2.4808   82.9042   -1.8778 H   0  0  0  0  0  0  0  0  0  0  0  0
    1.7287   83.4022    0.4389 H   0  0  0  0  0  0  0  0  0  0  0  0
  1  2  2  0
  2  3  1  0
  3  4  1  0
  4  5  2  0
  5  6  1  0
  6  7  2  0
  7  8  1  0
  8  9  1  0
  9 10  2  0
 10 11  1  0
 10 12  1  0
 12 13  2  0
 13 14  1  0
 14 15  1  0
 14 16  2  0
  7  2  1  0
 16  9  1  0
 16  6  1  0
  3 17  1  0
  4 18  1  0
 12 19  1  0
 13 20  1  0
M  END
>  <meeko>  (8) 
{"is_sidechain": [false], "free_energy": -7.253, "intermolecular_energy": -7.253, "internal_energy": 0.0}

$$$$
3jya_ligand
     RDKit          3D

 20 22  0  0  0  0  0  0  0  0999 V2000
    2.8500   82.7590   -1.6630 O   0  0  0  0  0  0  0  0  0  0  0  0
    4.0370   82.4500   -1.6710 C   0  0  0  0  0  0  0  0  0  0  0  0
    4.6590   82.0680   -2.8370 N   0  0  0  0  0  0  0  0  0  0  0  0
    5.9840   81.7150   -2.8880 C   0  0  0  0  0  0  0  0  0  0  0  0
    6.8050   81.6920   -1.8890 N   0  0  0  0  0  0  0  0  0  0  0  0
    6.2440   82.0710   -0.6540 C   0  0  0  0  0  0  0  0  0  0  0  0
    4.9300   82.4310   -0.5500 C   0  0  0  0  0  0  0  0  0  0  0  0
    4.4920   82.8420    1.0200 S   0  0  0  0  0  0  0  0  0  0  0  0
    6.0940   82.5410    1.6220 C   0  0  0  0  0  0  0  0  0  0  0  0
    6.5520   82.6750    2.9560 C   0  0  0  0  0  0  0  0  0  0  0  0
    5.5070   83.1880    4.2310 Cl  0  0  0  0  0  0  0  0  0  0  0  0
    7.8830   82.3890    3.2690 C   0  0  0  0  0  0  0  0  0  0  0  0
    8.7590   81.9750    2.2800 C   0  0  0  0  0  0  0  0  0  0  0  0
    8.3040   81.8440    0.9670 C   0  0  0  0  0  0  0  0  0  0  0  0
    9.3950   81.3300   -0.2510 Cl  0  0  0  0  0  0  0  0  0  0  0  0
    6.9630   82.1200    0.5900 C   0  0  0  0  0  0  0  0  0  0  0  0
    4.0830   82.0600   -3.6660 H   0  0  0  0  0  0  0  0  0  0  0  0
    6.3853   81.4245   -3.8701 H   0  0  0  0  0  0  0  0  0  0  0  0
    8.2366   82.4931    4.3054 H   0  0  0  0  0  0  0  0  0  0  0  0
    9.8071   81.7507    2.5275 H   0  0  0  0  0  0  0  0  0  0  0  0
  1  2  2  0
  2  3  1  0
  3  4  1  0
  4  5  2  0
  5  6  1  0
  6  7  2  0
  7  8  1  0
  8  9  1  0
  9 10  2  0
 10 11  1  0
 10 12  1  0
 12 13  2  0
 13 14  1  0
 14 15  1  0
 14 16  2  0
  7  2  1  0
 16  9  1  0
 16  6  1  0
  3 17  1  0
  4 18  1  0
 12 19  1  0
 13 20  1  0
M  END
>  <meeko>  (9) 
{"is_sidechain": [false], "free_energy": -7.238, "intermolecular_energy": -7.238, "internal_energy": 0.0}

$$$$
