4mme_ligand
     RDKit          3D

 31 34  0  0  0  0  0  0  0  0999 V2000
  104.4690   23.3610   34.6650 O   0  0  0  0  0  0  0  0  0  0  0  0
  103.3930   22.7960   35.4130 C   0  0  2  0  0  0  0  0  0  0  0  0
  102.4750   21.9350   34.5540 C   0  0  0  0  0  0  0  0  0  0  0  0
  102.5930   21.9240   33.1510 C   0  0  0  0  0  0  0  0  0  0  0  0
  101.7500   21.1360   32.3620 C   0  0  0  0  0  0  0  0  0  0  0  0
  100.7760   20.3450   32.9630 C   0  0  0  0  0  0  0  0  0  0  0  0
   99.7400   19.3750   31.9910 Cl  0  0  0  0  0  0  0  0  0  0  0  0
  100.6370   20.3340   34.3470 C   0  0  0  0  0  0  0  0  0  0  0  0
  101.4800   21.1220   35.1380 C   0  0  0  0  0  0  0  0  0  0  0  0
  102.6780   23.9070   36.1950 C   0  0  0  0  0  0  0  0  0  0  0  0
  101.9370   24.9780   35.7210 C   0  0  0  0  0  0  0  0  0  0  0  0
  101.3920   25.8610   36.6600 C   0  0  0  0  0  0  0  0  0  0  0  0
  101.5930   25.6690   38.0410 C   0  0  0  0  0  0  0  0  0  0  0  0
  102.3450   24.5920   38.5180 C   0  0  0  0  0  0  0  0  0  0  0  0
  102.8760   23.7290   37.5840 C   0  0  0  0  0  0  0  0  0  0  0  0
  103.6850   22.5590   37.7490 C   0  0  0  0  0  0  0  0  0  0  0  0
  104.2280   21.8680   38.7150 N   0  0  0  0  0  0  0  0  0  0  0  0
  104.9120   20.8560   38.0560 C   0  0  0  0  0  0  0  0  0  0  0  0
  104.7730   20.9500   36.6800 C   0  0  0  0  0  0  0  0  0  0  0  0
  103.9780   22.0270   36.5190 N   0  0  0  0  0  0  0  0  0  0  0  0
  105.2860   23.1280   35.1390 H   0  0  0  0  0  0  0  0  0  0  0  0
  103.3612   22.5457   32.6678 H   0  0  0  0  0  0  0  0  0  0  0  0
  101.8566   21.1413   31.2672 H   0  0  0  0  0  0  0  0  0  0  0  0
   99.8659   19.7071   34.8185 H   0  0  0  0  0  0  0  0  0  0  0  0
  101.3656   21.1077   36.2319 H   0  0  0  0  0  0  0  0  0  0  0  0
  101.7824   25.1290   34.6424 H   0  0  0  0  0  0  0  0  0  0  0  0
  100.7969   26.7190   36.3140 H   0  0  0  0  0  0  0  0  0  0  0  0
  101.1507   26.3786   38.7558 H   0  0  0  0  0  0  0  0  0  0  0  0
  102.5065   24.4393   39.5953 H   0  0  0  0  0  0  0  0  0  0  0  0
  105.4944   20.0735   38.5644 H   0  0  0  0  0  0  0  0  0  0  0  0
  105.2073   20.3013   35.9050 H   0  0  0  0  0  0  0  0  0  0  0  0
  2  1  1  6
  2  3  1  0
  3  4  2  0
  4  5  1  0
  5  6  2  0
  6  7  1  0
  6  8  1  0
  8  9  2  0
  2 10  1  0
 10 11  2  0
 11 12  1  0
 12 13  2  0
 13 14  1  0
 14 15  2  0
 15 16  1  0
 16 17  2  0
 17 18  1  0
 18 19  2  0
 19 20  1  0
 20  2  1  0
  9  3  1  0
 15 10  1  0
 20 16  1  0
  1 21  1  0
  4 22  1  0
  5 23  1  0
  8 24  1  0
  9 25  1  0
 11 26  1  0
 12 27  1  0
 13 28  1  0
 14 29  1  0
 18 30  1  0
 19 31  1  0
M  END
>  <meeko>  (1) 
{"is_sidechain": [false], "free_energy": -9.164, "intermolecular_energy": -9.968, "internal_energy": -0.593}

$$$$
4mme_ligand
     RDKit          3D

 31 34  0  0  0  0  0  0  0  0999 V2000
  104.2810   23.5390   34.7390 O   0  0  0  0  0  0  0  0  0  0  0  0
  103.2510   22.8650   35.4610 C   0  0  2  0  0  0  0  0  0  0  0  0
  102.3760   22.0030   34.5600 C   0  0  0  0  0  0  0  0  0  0  0  0
  101.4070   21.1370   35.1020 C   0  0  0  0  0  0  0  0  0  0  0  0
  100.6040   20.3440   34.2770 C   0  0  0  0  0  0  0  0  0  0  0  0
  100.7570   20.4040   32.8960 C   0  0  0  0  0  0  0  0  0  0  0  0
   99.7690   19.4280   31.8810 Cl  0  0  0  0  0  0  0  0  0  0  0  0
  101.7050   21.2510   32.3310 C   0  0  0  0  0  0  0  0  0  0  0  0
  102.5080   22.0450   33.1560 C   0  0  0  0  0  0  0  0  0  0  0  0
  102.4810   23.8800   36.3170 C   0  0  0  0  0  0  0  0  0  0  0  0
  101.6700   24.9300   35.9180 C   0  0  0  0  0  0  0  0  0  0  0  0
  101.0840   25.7190   36.9140 C   0  0  0  0  0  0  0  0  0  0  0  0
  101.3150   25.4560   38.2780 C   0  0  0  0  0  0  0  0  0  0  0  0
  102.1370   24.4000   38.6810 C   0  0  0  0  0  0  0  0  0  0  0  0
  102.7070   23.6300   37.6910 C   0  0  0  0  0  0  0  0  0  0  0  0
  103.5890   22.5040   37.7750 C   0  0  0  0  0  0  0  0  0  0  0  0
  104.1860   21.7910   38.6910 N   0  0  0  0  0  0  0  0  0  0  0  0
  104.9200   20.8640   37.9650 C   0  0  0  0  0  0  0  0  0  0  0  0
  104.7570   21.0330   36.5990 C   0  0  0  0  0  0  0  0  0  0  0  0
  103.8960   22.0670   36.5120 N   0  0  0  0  0  0  0  0  0  0  0  0
  103.9970   23.5580   33.8090 H   0  0  0  0  0  0  0  0  0  0  0  0
  101.2797   21.0835   36.1933 H   0  0  0  0  0  0  0  0  0  0  0  0
   99.8524   19.6737   34.7194 H   0  0  0  0  0  0  0  0  0  0  0  0
  101.8227   21.2961   31.2382 H   0  0  0  0  0  0  0  0  0  0  0  0
  103.2549   22.7133   32.7027 H   0  0  0  0  0  0  0  0  0  0  0  0
  101.4924   25.1368   34.8523 H   0  0  0  0  0  0  0  0  0  0  0  0
  100.4327   26.5578   36.6270 H   0  0  0  0  0  0  0  0  0  0  0  0
  100.8404   26.0926   39.0393 H   0  0  0  0  0  0  0  0  0  0  0  0
  102.3213   24.1921   39.7453 H   0  0  0  0  0  0  0  0  0  0  0  0
  105.5547   20.0886   38.4188 H   0  0  0  0  0  0  0  0  0  0  0  0
  105.2194   20.4605   35.7814 H   0  0  0  0  0  0  0  0  0  0  0  0
  2  1  1  6
  2  3  1  0
  3  4  2  0
  4  5  1  0
  5  6  2  0
  6  7  1  0
  6  8  1  0
  8  9  2  0
  2 10  1  0
 10 11  2  0
 11 12  1  0
 12 13  2  0
 13 14  1  0
 14 15  2  0
 15 16  1  0
 16 17  2  0
 17 18  1  0
 18 19  2  0
 19 20  1  0
 20  2  1  0
  9  3  1  0
 15 10  1  0
 20 16  1  0
  1 21  1  0
  4 22  1  0
  5 23  1  0
  8 24  1  0
  9 25  1  0
 11 26  1  0
 12 27  1  0
 13 28  1  0
 14 29  1  0
 18 30  1  0
 19 31  1  0
M  END
>  <meeko>  (2) 
{"is_sidechain": [false], "free_energy": -9.005, "intermolecular_energy": -9.783, "internal_energy": -0.606}

$$$$
