3ozs_ligand
     RDKit          3D

 50 52  0  0  0  0  0  0  0  0999 V2000
  -22.2250   28.3100    7.4310 O   0  0  0  0  0  0  0  0  0  0  0  0
  -22.7460   29.2950    6.9170 C   0  0  0  0  0  0  0  0  0  0  0  0
  -22.2100   30.5570    7.0070 N   0  0  0  0  0  0  0  0  0  0  0  0
  -20.9020   30.7760    7.5590 C   0  0  0  0  0  0  0  0  0  0  0  0
  -21.0160   30.6510    9.0440 C   0  0  0  0  0  0  0  0  0  0  0  0
  -20.0360   30.2020    9.8460 C   0  0  0  0  0  0  0  0  0  0  0  0
  -20.1570   30.0800   11.3360 C   0  0  1  0  0  0  0  0  0  0  0  0
  -19.0990   29.2190   11.7980 O   0  0  0  0  0  0  0  0  0  0  0  0
  -18.6610   29.7050   13.0830 C   0  0  1  0  0  0  0  0  0  0  0  0
  -17.2370   30.0030   13.0320 N   0  0  0  0  0  0  0  0  0  0  0  0
  -16.6410   31.1120   12.5050 C   0  0  0  0  0  0  0  0  0  0  0  0
  -15.3400   31.0880   12.6800 N   0  0  0  0  0  0  0  0  0  0  0  0
  -15.0580   29.8900   13.3210 C   0  0  0  0  0  0  0  0  0  0  0  0
  -13.6570   29.4790   13.6810 C   0  0  0  0  0  0  0  0  0  0  0  0
  -13.4080   28.1750   13.3940 F   0  0  0  0  0  0  0  0  0  0  0  0
  -13.3820   29.6630   14.9980 F   0  0  0  0  0  0  0  0  0  0  0  0
  -12.7310   30.2050   12.9900 F   0  0  0  0  0  0  0  0  0  0  0  0
  -16.2440   29.2060   13.5410 C   0  0  0  0  0  0  0  0  0  0  0  0
  -19.5110   30.9300   13.4410 C   0  0  2  0  0  0  0  0  0  0  0  0
  -20.6770   30.5600   14.2050 O   0  0  0  0  0  0  0  0  0  0  0  0
  -19.9710   31.4090   12.0740 C   0  0  2  0  0  0  0  0  0  0  0  0
  -21.1630   32.1820   12.1680 O   0  0  0  0  0  0  0  0  0  0  0  0
  -24.0230   29.1480    6.1530 C   0  0  0  0  0  0  0  0  0  0  0  0
  -24.6900   30.3280    5.7780 C   0  0  0  0  0  0  0  0  0  0  0  0
  -25.8930   30.2620    5.0590 C   0  0  0  0  0  0  0  0  0  0  0  0
  -26.5790   31.5010    4.6700 N   0  0  0  0  0  0  0  0  0  0  0  0
  -27.4360   31.9540    5.4390 O   0  0  0  0  0  0  0  0  0  0  0  0
  -26.2550   32.0180    3.5920 O   0  0  0  0  0  0  0  0  0  0  0  0
  -26.4540   29.0280    4.7030 C   0  0  0  0  0  0  0  0  0  0  0  0
  -25.7910   27.8680    5.0800 C   0  0  0  0  0  0  0  0  0  0  0  0
  -26.2830   26.6270    4.7710 O   0  0  0  0  0  0  0  0  0  0  0  0
  -24.5910   27.9190    5.7970 C   0  0  0  0  0  0  0  0  0  0  0  0
  -24.0100   26.7220    6.1370 O   0  0  0  0  0  0  0  0  0  0  0  0
  -22.6160   31.2760    6.4110 H   0  0  0  0  0  0  0  0  0  0  0  0
  -20.1996   30.0234    7.1713 H   0  0  0  0  0  0  0  0  0  0  0  0
  -20.5252   31.7714    7.2812 H   0  0  0  0  0  0  0  0  0  0  0  0
  -21.9666   30.9466    9.5120 H   0  0  0  0  0  0  0  0  0  0  0  0
  -19.0847   29.9051    9.3804 H   0  0  0  0  0  0  0  0  0  0  0  0
  -21.1687   29.7006   11.5420 H   0  0  0  0  0  0  0  0  0  0  0  0
  -18.7974   28.9482   13.8695 H   0  0  0  0  0  0  0  0  0  0  0  0
  -17.1826   31.9238   11.9975 H   0  0  0  0  0  0  0  0  0  0  0  0
  -16.3637   28.2253   14.0246 H   0  0  0  0  0  0  0  0  0  0  0  0
  -18.9569   31.6666   14.0413 H   0  0  0  0  0  0  0  0  0  0  0  0
  -20.5750   30.9300   15.1010 H   0  0  0  0  0  0  0  0  0  0  0  0
  -19.2747   32.0884   11.5606 H   0  0  0  0  0  0  0  0  0  0  0  0
  -21.9000   31.5400   12.1170 H   0  0  0  0  0  0  0  0  0  0  0  0
  -24.2669   31.3064    6.0494 H   0  0  0  0  0  0  0  0  0  0  0  0
  -27.3969   28.9798    4.1385 H   0  0  0  0  0  0  0  0  0  0  0  0
  -27.0780   26.4550    5.3060 H   0  0  0  0  0  0  0  0  0  0  0  0
  -23.6090   26.3840    5.3080 H   0  0  0  0  0  0  0  0  0  0  0  0
  1  2  2  0
  2  3  1  0
  3  4  1  0
  4  5  1  0
  5  6  2  0
  6  7  1  0
  7  8  1  0
  8  9  1  0
  9 10  1  0
 10 11  1  0
 11 12  2  0
 12 13  1  0
 13 14  1  0
 14 15  1  0
 14 16  1  0
 14 17  1  0
 13 18  2  0
  9 19  1  0
 19 20  1  0
 19 21  1  0
 21 22  1  0
  2 23  1  0
 23 24  2  0
 24 25  1  0
 25 26  1  0
 26 27  2  0
 26 28  1  0
 25 29  2  0
 29 30  1  0
 30 31  1  0
 30 32  2  0
 32 33  1  0
 21  7  1  0
 32 23  1  0
 18 10  1  0
  3 34  1  0
  4 35  1  0
  4 36  1  0
  5 37  1  0
  6 38  1  0
  7 39  1  6
  9 40  1  1
 11 41  1  0
 18 42  1  0
 19 43  1  1
 20 44  1  0
 21 45  1  6
 22 46  1  0
 24 47  1  0
 29 48  1  0
 31 49  1  0
 33 50  1  0
M  CHG  2  26   1  28  -1
M  END
>  <meeko>  (1) 
{"is_sidechain": [false], "free_energy": -9.198, "intermolecular_energy": -14.038, "internal_energy": -0.701}

$$$$
3ozs_ligand
     RDKit          3D

 50 52  0  0  0  0  0  0  0  0999 V2000
  -22.8760   30.4900    6.7230 O   0  0  0  0  0  0  0  0  0  0  0  0
  -21.7230   30.8790    6.5690 C   0  0  0  0  0  0  0  0  0  0  0  0
  -20.6890   30.4940    7.3870 N   0  0  0  0  0  0  0  0  0  0  0  0
  -20.8600   29.4620    8.3730 C   0  0  0  0  0  0  0  0  0  0  0  0
  -20.6780   30.0920    9.7170 C   0  0  0  0  0  0  0  0  0  0  0  0
  -20.2390   29.4400   10.8070 C   0  0  0  0  0  0  0  0  0  0  0  0
  -20.0590   30.0790   12.1520 C   0  0  1  0  0  0  0  0  0  0  0  0
  -19.0000   29.3820   12.8350 O   0  0  0  0  0  0  0  0  0  0  0  0
  -18.2670   30.3460   13.6190 C   0  0  1  0  0  0  0  0  0  0  0  0
  -16.8660   30.3320   13.2250 N   0  0  0  0  0  0  0  0  0  0  0  0
  -16.2610   31.1170   12.2870 C   0  0  0  0  0  0  0  0  0  0  0  0
  -14.9700   30.8850   12.2260 N   0  0  0  0  0  0  0  0  0  0  0  0
  -14.7150   29.8730   13.1410 C   0  0  0  0  0  0  0  0  0  0  0  0
  -13.3380   29.3070   13.3520 C   0  0  0  0  0  0  0  0  0  0  0  0
  -12.9780   29.2970   14.6620 F   0  0  0  0  0  0  0  0  0  0  0  0
  -12.3820   29.9940   12.6750 F   0  0  0  0  0  0  0  0  0  0  0  0
  -13.2580   28.0140   12.9240 F   0  0  0  0  0  0  0  0  0  0  0  0
  -15.9010   29.5220   13.7680 C   0  0  0  0  0  0  0  0  0  0  0  0
  -18.9260   31.7160   13.4190 C   0  0  2  0  0  0  0  0  0  0  0  0
  -19.9340   31.9700   14.4190 O   0  0  0  0  0  0  0  0  0  0  0  0
  -19.6200   31.5440   12.0780 C   0  0  2  0  0  0  0  0  0  0  0  0
  -20.7020   32.4580   11.9310 O   0  0  0  0  0  0  0  0  0  0  0  0
  -21.3960   31.8160    5.4500 C   0  0  0  0  0  0  0  0  0  0  0  0
  -20.0860   32.3260    5.3990 C   0  0  0  0  0  0  0  0  0  0  0  0
  -19.7120   33.2100    4.3750 C   0  0  0  0  0  0  0  0  0  0  0  0
  -18.3400   33.7330    4.3280 N   0  0  0  0  0  0  0  0  0  0  0  0
  -17.9920   34.5240    5.2140 O   0  0  0  0  0  0  0  0  0  0  0  0
  -17.6140   33.3480    3.4010 O   0  0  0  0  0  0  0  0  0  0  0  0
  -20.6290   33.6030    3.3900 C   0  0  0  0  0  0  0  0  0  0  0  0
  -21.9210   33.0970    3.4500 C   0  0  0  0  0  0  0  0  0  0  0  0
  -22.8700   33.4410    2.5250 O   0  0  0  0  0  0  0  0  0  0  0  0
  -22.3070   32.2150    4.4650 C   0  0  0  0  0  0  0  0  0  0  0  0
  -23.6070   31.7740    4.4540 O   0  0  0  0  0  0  0  0  0  0  0  0
  -19.7460   30.7280    7.0840 H   0  0  0  0  0  0  0  0  0  0  0  0
  -21.8685   29.0300    8.2939 H   0  0  0  0  0  0  0  0  0  0  0  0
  -20.1286   28.6546    8.2206 H   0  0  0  0  0  0  0  0  0  0  0  0
  -20.9195   31.1602    9.8203 H   0  0  0  0  0  0  0  0  0  0  0  0
  -19.9967   28.3717   10.7066 H   0  0  0  0  0  0  0  0  0  0  0  0
  -21.0332   30.0285   12.6604 H   0  0  0  0  0  0  0  0  0  0  0  0
  -18.2951   30.1013   14.6911 H   0  0  0  0  0  0  0  0  0  0  0  0
  -16.7884   31.8517   11.6608 H   0  0  0  0  0  0  0  0  0  0  0  0
  -16.0396   28.7524   14.5416 H   0  0  0  0  0  0  0  0  0  0  0  0
  -18.2032   32.5432   13.4775 H   0  0  0  0  0  0  0  0  0  0  0  0
  -19.5400   31.7870   15.2920 H   0  0  0  0  0  0  0  0  0  0  0  0
  -18.9937   31.7582   11.1994 H   0  0  0  0  0  0  0  0  0  0  0  0
  -20.3840   33.3050   12.3060 H   0  0  0  0  0  0  0  0  0  0  0  0
  -19.3526   32.0311    6.1639 H   0  0  0  0  0  0  0  0  0  0  0  0
  -20.3322   34.2957    2.5887 H   0  0  0  0  0  0  0  0  0  0  0  0
  -23.6980   32.9670    2.7250 H   0  0  0  0  0  0  0  0  0  0  0  0
  -23.8150   31.6040    3.5100 H   0  0  0  0  0  0  0  0  0  0  0  0
  1  2  2  0
  2  3  1  0
  3  4  1  0
  4  5  1  0
  5  6  2  0
  6  7  1  0
  7  8  1  0
  8  9  1  0
  9 10  1  0
 10 11  1  0
 11 12  2  0
 12 13  1  0
 13 14  1  0
 14 15  1  0
 14 16  1  0
 14 17  1  0
 13 18  2  0
  9 19  1  0
 19 20  1  0
 19 21  1  0
 21 22  1  0
  2 23  1  0
 23 24  2  0
 24 25  1  0
 25 26  1  0
 26 27  2  0
 26 28  1  0
 25 29  2  0
 29 30  1  0
 30 31  1  0
 30 32  2  0
 32 33  1  0
 21  7  1  0
 32 23  1  0
 18 10  1  0
  3 34  1  0
  4 35  1  0
  4 36  1  0
  5 37  1  0
  6 38  1  0
  7 39  1  1
  9 40  1  1
 11 41  1  0
 18 42  1  0
 19 43  1  6
 20 44  1  0
 21 45  1  6
 22 46  1  0
 24 47  1  0
 29 48  1  0
 31 49  1  0
 33 50  1  0
M  CHG  2  26   1  28  -1
M  END
>  <meeko>  (2) 
{"is_sidechain": [false], "free_energy": -8.655, "intermolecular_energy": -13.113, "internal_energy": -0.796}

$$$$
3ozs_ligand
     RDKit          3D

 50 52  0  0  0  0  0  0  0  0999 V2000
  -21.4950   29.8060    7.2890 O   0  0  0  0  0  0  0  0  0  0  0  0
  -22.5810   30.2660    6.9500 C   0  0  0  0  0  0  0  0  0  0  0  0
  -22.9040   31.5940    7.0820 N   0  0  0  0  0  0  0  0  0  0  0  0
  -21.9190   32.5690    7.4630 C   0  0  0  0  0  0  0  0  0  0  0  0
  -22.1690   32.9230    8.8940 C   0  0  0  0  0  0  0  0  0  0  0  0
  -22.8450   34.0110    9.3000 C   0  0  0  0  0  0  0  0  0  0  0  0
  -23.0920   34.3590   10.7370 C   0  0  1  0  0  0  0  0  0  0  0  0
  -22.8850   33.1710   11.5240 O   0  0  0  0  0  0  0  0  0  0  0  0
  -22.3020   33.5660   12.7820 C   0  0  1  0  0  0  0  0  0  0  0  0
  -21.0310   32.8800   12.9680 N   0  0  0  0  0  0  0  0  0  0  0  0
  -20.1300   33.0650   13.9760 C   0  0  0  0  0  0  0  0  0  0  0  0
  -19.1170   32.2360   13.8720 N   0  0  0  0  0  0  0  0  0  0  0  0
  -19.3400   31.4930   12.7210 C   0  0  0  0  0  0  0  0  0  0  0  0
  -18.3800   30.4390   12.2440 C   0  0  0  0  0  0  0  0  0  0  0  0
  -19.0150   29.3430   11.7540 F   0  0  0  0  0  0  0  0  0  0  0  0
  -17.5410   30.0150   13.2250 F   0  0  0  0  0  0  0  0  0  0  0  0
  -17.5890   30.9040   11.2350 F   0  0  0  0  0  0  0  0  0  0  0  0
  -20.5380   31.8950   12.1500 C   0  0  0  0  0  0  0  0  0  0  0  0
  -22.1550   35.0930   12.7760 C   0  0  2  0  0  0  0  0  0  0  0  0
  -23.3140   35.7380   13.3410 O   0  0  0  0  0  0  0  0  0  0  0  0
  -22.1180   35.4040   11.2890 C   0  0  2  0  0  0  0  0  0  0  0  0
  -22.5110   36.7470   11.0280 O   0  0  0  0  0  0  0  0  0  0  0  0
  -23.6200   29.3650    6.3620 C   0  0  0  0  0  0  0  0  0  0  0  0
  -24.6290   29.9640    5.5880 C   0  0  0  0  0  0  0  0  0  0  0  0
  -25.6350   29.1770    5.0060 C   0  0  0  0  0  0  0  0  0  0  0  0
  -26.6820   29.8120    4.1960 N   0  0  0  0  0  0  0  0  0  0  0  0
  -27.1080   30.9150    4.5610 O   0  0  0  0  0  0  0  0  0  0  0  0
  -27.0740   29.2030    3.1910 O   0  0  0  0  0  0  0  0  0  0  0  0
  -25.6580   27.7870    5.1870 C   0  0  0  0  0  0  0  0  0  0  0  0
  -24.6600   27.2040    5.9560 C   0  0  0  0  0  0  0  0  0  0  0  0
  -24.6220   25.8530    6.1790 O   0  0  0  0  0  0  0  0  0  0  0  0
  -23.6510   27.9770    6.5410 C   0  0  0  0  0  0  0  0  0  0  0  0
  -22.7110   27.3180    7.2950 O   0  0  0  0  0  0  0  0  0  0  0  0
  -23.7540   31.9120    6.6200 H   0  0  0  0  0  0  0  0  0  0  0  0
  -20.9094   32.1468    7.3512 H   0  0  0  0  0  0  0  0  0  0  0  0
  -21.9896   33.4619    6.8244 H   0  0  0  0  0  0  0  0  0  0  0  0
  -21.7729   32.2473    9.6664 H   0  0  0  0  0  0  0  0  0  0  0  0
  -23.2419   34.6886    8.5298 H   0  0  0  0  0  0  0  0  0  0  0  0
  -24.1131   34.7642   10.7928 H   0  0  0  0  0  0  0  0  0  0  0  0
  -22.9416   33.2822   13.6308 H   0  0  0  0  0  0  0  0  0  0  0  0
  -20.2385   33.8137   14.7745 H   0  0  0  0  0  0  0  0  0  0  0  0
  -20.9983   31.5045   11.2304 H   0  0  0  0  0  0  0  0  0  0  0  0
  -21.2846   35.4344   13.3554 H   0  0  0  0  0  0  0  0  0  0  0  0
  -23.4170   35.4180   14.2560 H   0  0  0  0  0  0  0  0  0  0  0  0
  -21.1218   35.3439   10.8265 H   0  0  0  0  0  0  0  0  0  0  0  0
  -22.1130   37.2820   11.7450 H   0  0  0  0  0  0  0  0  0  0  0  0
  -24.6302   31.0537    5.4378 H   0  0  0  0  0  0  0  0  0  0  0  0
  -26.4482   27.1728    4.7305 H   0  0  0  0  0  0  0  0  0  0  0  0
  -24.1190   25.6770    6.9940 H   0  0  0  0  0  0  0  0  0  0  0  0
  -23.1970   26.9780    8.0760 H   0  0  0  0  0  0  0  0  0  0  0  0
  1  2  2  0
  2  3  1  0
  3  4  1  0
  4  5  1  0
  5  6  2  0
  6  7  1  0
  7  8  1  0
  8  9  1  0
  9 10  1  0
 10 11  1  0
 11 12  2  0
 12 13  1  0
 13 14  1  0
 14 15  1  0
 14 16  1  0
 14 17  1  0
 13 18  2  0
  9 19  1  0
 19 20  1  0
 19 21  1  0
 21 22  1  0
  2 23  1  0
 23 24  2  0
 24 25  1  0
 25 26  1  0
 26 27  2  0
 26 28  1  0
 25 29  2  0
 29 30  1  0
 30 31  1  0
 30 32  2  0
 32 33  1  0
 21  7  1  0
 32 23  1  0
 18 10  1  0
  3 34  1  0
  4 35  1  0
  4 36  1  0
  5 37  1  0
  6 38  1  0
  7 39  1  6
  9 40  1  1
 11 41  1  0
 18 42  1  0
 19 43  1  1
 20 44  1  0
 21 45  1  6
 22 46  1  0
 24 47  1  0
 29 48  1  0
 31 49  1  0
 33 50  1  0
M  CHG  2  26   1  28  -1
M  END
>  <meeko>  (3) 
{"is_sidechain": [false], "free_energy": -8.506, "intermolecular_energy": -12.293, "internal_energy": -1.389}

$$$$
3ozs_ligand
     RDKit          3D

 50 52  0  0  0  0  0  0  0  0999 V2000
  -19.6060   29.2100   13.0220 O   0  0  0  0  0  0  0  0  0  0  0  0
  -19.5280   29.8710   11.9920 C   0  0  0  0  0  0  0  0  0  0  0  0
  -18.7480   30.9960   11.8820 N   0  0  0  0  0  0  0  0  0  0  0  0
  -17.8280   31.3720   12.9200 C   0  0  0  0  0  0  0  0  0  0  0  0
  -16.5000   30.7760   12.5780 C   0  0  0  0  0  0  0  0  0  0  0  0
  -15.5400   30.4980   13.4750 C   0  0  0  0  0  0  0  0  0  0  0  0
  -14.2090   29.8990   13.1250 C   0  0  1  0  0  0  0  0  0  0  0  0
  -13.7690   30.4910   11.8890 O   0  0  0  0  0  0  0  0  0  0  0  0
  -12.3350   30.6300   11.9490 C   0  0  1  0  0  0  0  0  0  0  0  0
  -11.9720   32.0270   11.7550 N   0  0  0  0  0  0  0  0  0  0  0  0
  -11.2780   32.8290   12.6130 C   0  0  0  0  0  0  0  0  0  0  0  0
  -11.0720   34.0190   12.0980 N   0  0  0  0  0  0  0  0  0  0  0  0
  -11.6910   34.0160   10.8560 C   0  0  0  0  0  0  0  0  0  0  0  0
  -11.6950   35.2200    9.9560 C   0  0  0  0  0  0  0  0  0  0  0  0
  -12.6850   35.1690    9.0270 F   0  0  0  0  0  0  0  0  0  0  0  0
  -10.5220   35.3760    9.2880 F   0  0  0  0  0  0  0  0  0  0  0  0
  -11.8920   36.3710   10.6610 F   0  0  0  0  0  0  0  0  0  0  0  0
  -12.2580   32.7700   10.6380 C   0  0  0  0  0  0  0  0  0  0  0  0
  -11.8620   30.0770   13.2990 C   0  0  2  0  0  0  0  0  0  0  0  0
  -11.5190   28.6790   13.2070 O   0  0  0  0  0  0  0  0  0  0  0  0
  -13.1140   30.2040   14.1510 C   0  0  2  0  0  0  0  0  0  0  0  0
  -13.0900   29.2960   15.2480 O   0  0  0  0  0  0  0  0  0  0  0  0
  -20.3050   29.4580   10.7820 C   0  0  0  0  0  0  0  0  0  0  0  0
  -20.3630   30.3680    9.7120 C   0  0  0  0  0  0  0  0  0  0  0  0
  -21.0750   30.0450    8.5460 C   0  0  0  0  0  0  0  0  0  0  0  0
  -21.1260   31.0010    7.4330 N   0  0  0  0  0  0  0  0  0  0  0  0
  -21.9510   31.9210    7.4970 O   0  0  0  0  0  0  0  0  0  0  0  0
  -20.3360   30.8260    6.4950 O   0  0  0  0  0  0  0  0  0  0  0  0
  -21.7420   28.8170    8.4260 C   0  0  0  0  0  0  0  0  0  0  0  0
  -21.6830   27.9260    9.4890 C   0  0  0  0  0  0  0  0  0  0  0  0
  -22.3130   26.7110    9.4430 O   0  0  0  0  0  0  0  0  0  0  0  0
  -20.9760   28.2360   10.6560 C   0  0  0  0  0  0  0  0  0  0  0  0
  -20.9800   27.3000   11.6610 O   0  0  0  0  0  0  0  0  0  0  0  0
  -18.6130   31.3770   10.9480 H   0  0  0  0  0  0  0  0  0  0  0  0
  -17.7463   32.4678   12.9712 H   0  0  0  0  0  0  0  0  0  0  0  0
  -18.1764   31.0087   13.8981 H   0  0  0  0  0  0  0  0  0  0  0  0
  -16.2957   30.5501   11.5210 H   0  0  0  0  0  0  0  0  0  0  0  0
  -15.7418   30.7234   14.5326 H   0  0  0  0  0  0  0  0  0  0  0  0
  -14.3536   28.8096   13.0770 H   0  0  0  0  0  0  0  0  0  0  0  0
  -11.8396   30.0604   11.1489 H   0  0  0  0  0  0  0  0  0  0  0  0
  -10.9343   32.5179   13.6105 H   0  0  0  0  0  0  0  0  0  0  0  0
  -12.8216   32.4440    9.7513 H   0  0  0  0  0  0  0  0  0  0  0  0
  -10.9722   30.5993   13.6804 H   0  0  0  0  0  0  0  0  0  0  0  0
  -12.3080   28.1630   13.4550 H   0  0  0  0  0  0  0  0  0  0  0  0
  -13.2473   31.1805   14.6396 H   0  0  0  0  0  0  0  0  0  0  0  0
  -13.3760   28.4340   14.8840 H   0  0  0  0  0  0  0  0  0  0  0  0
  -19.8484   31.3372    9.7887 H   0  0  0  0  0  0  0  0  0  0  0  0
  -22.2987   28.5658    7.5112 H   0  0  0  0  0  0  0  0  0  0  0  0
  -22.7220   26.5300   10.3090 H   0  0  0  0  0  0  0  0  0  0  0  0
  -21.3700   26.4930   11.2620 H   0  0  0  0  0  0  0  0  0  0  0  0
  1  2  2  0
  2  3  1  0
  3  4  1  0
  4  5  1  0
  5  6  2  0
  6  7  1  0
  7  8  1  0
  8  9  1  0
  9 10  1  0
 10 11  1  0
 11 12  2  0
 12 13  1  0
 13 14  1  0
 14 15  1  0
 14 16  1  0
 14 17  1  0
 13 18  2  0
  9 19  1  0
 19 20  1  0
 19 21  1  0
 21 22  1  0
  2 23  1  0
 23 24  2  0
 24 25  1  0
 25 26  1  0
 26 27  2  0
 26 28  1  0
 25 29  2  0
 29 30  1  0
 30 31  1  0
 30 32  2  0
 32 33  1  0
 21  7  1  0
 32 23  1  0
 18 10  1  0
  3 34  1  0
  4 35  1  0
  4 36  1  0
  5 37  1  0
  6 38  1  0
  7 39  1  6
  9 40  1  6
 11 41  1  0
 18 42  1  0
 19 43  1  1
 20 44  1  0
 21 45  1  1
 22 46  1  0
 24 47  1  0
 29 48  1  0
 31 49  1  0
 33 50  1  0
M  CHG  2  26   1  28  -1
M  END
>  <meeko>  (4) 
{"is_sidechain": [false], "free_energy": -8.396, "intermolecular_energy": -12.462, "internal_energy": -1.052}

$$$$
3ozs_ligand
     RDKit          3D

 50 52  0  0  0  0  0  0  0  0999 V2000
  -17.0860   30.8500   11.2080 O   0  0  0  0  0  0  0  0  0  0  0  0
  -16.7130   30.8470   12.3770 C   0  0  0  0  0  0  0  0  0  0  0  0
  -17.5810   30.9190   13.4390 N   0  0  0  0  0  0  0  0  0  0  0  0
  -19.0030   30.8200   13.2510 C   0  0  0  0  0  0  0  0  0  0  0  0
  -19.5290   32.2090   13.0820 C   0  0  0  0  0  0  0  0  0  0  0  0
  -20.7870   32.5840   13.3700 C   0  0  0  0  0  0  0  0  0  0  0  0
  -21.3090   33.9790   13.1990 C   0  0  1  0  0  0  0  0  0  0  0  0
  -22.7380   33.9420   13.3660 O   0  0  0  0  0  0  0  0  0  0  0  0
  -23.1410   35.1630   14.0190 C   0  0  1  0  0  0  0  0  0  0  0  0
  -23.8460   34.8470   15.2540 N   0  0  0  0  0  0  0  0  0  0  0  0
  -24.3360   33.6340   15.6400 C   0  0  0  0  0  0  0  0  0  0  0  0
  -24.8630   33.6890   16.8410 N   0  0  0  0  0  0  0  0  0  0  0  0
  -24.7490   35.0090   17.2540 C   0  0  0  0  0  0  0  0  0  0  0  0
  -25.2620   35.4830   18.5850 C   0  0  0  0  0  0  0  0  0  0  0  0
  -24.2720   35.9710   19.3780 F   0  0  0  0  0  0  0  0  0  0  0  0
  -25.8900   34.5020   19.2830 F   0  0  0  0  0  0  0  0  0  0  0  0
  -26.1670   36.4930   18.4410 F   0  0  0  0  0  0  0  0  0  0  0  0
  -24.1140   35.7380   16.2610 C   0  0  0  0  0  0  0  0  0  0  0  0
  -21.8850   36.0100   14.2550 C   0  0  2  0  0  0  0  0  0  0  0  0
  -21.6440   36.9150   13.1580 O   0  0  0  0  0  0  0  0  0  0  0  0
  -20.7870   34.9600   14.2530 C   0  0  2  0  0  0  0  0  0  0  0  0
  -19.5230   35.5290   13.9290 O   0  0  0  0  0  0  0  0  0  0  0  0
  -15.2540   30.7620   12.6920 C   0  0  0  0  0  0  0  0  0  0  0  0
  -14.3660   31.4140   11.8170 C   0  0  0  0  0  0  0  0  0  0  0  0
  -12.9830   31.3740   12.0540 C   0  0  0  0  0  0  0  0  0  0  0  0
  -12.0660   32.0620   11.1360 N   0  0  0  0  0  0  0  0  0  0  0  0
  -12.0200   33.2970   11.1810 O   0  0  0  0  0  0  0  0  0  0  0  0
  -11.3910   31.3590   10.3710 O   0  0  0  0  0  0  0  0  0  0  0  0
  -12.4600   30.6870   13.1580 C   0  0  0  0  0  0  0  0  0  0  0  0
  -13.3430   30.0430   14.0140 C   0  0  0  0  0  0  0  0  0  0  0  0
  -12.9030   29.3490   15.1100 O   0  0  0  0  0  0  0  0  0  0  0  0
  -14.7240   30.0750   13.7900 C   0  0  0  0  0  0  0  0  0  0  0  0
  -15.5220   29.4020   14.6830 O   0  0  0  0  0  0  0  0  0  0  0  0
  -17.1970   30.7380   14.3640 H   0  0  0  0  0  0  0  0  0  0  0  0
  -19.2230   30.2228   12.3538 H   0  0  0  0  0  0  0  0  0  0  0  0
  -19.4756   30.3278   14.1138 H   0  0  0  0  0  0  0  0  0  0  0  0
  -18.8405   32.9752   12.6962 H   0  0  0  0  0  0  0  0  0  0  0  0
  -21.4772   31.8192   13.7555 H   0  0  0  0  0  0  0  0  0  0  0  0
  -20.9804   34.3203   12.2062 H   0  0  0  0  0  0  0  0  0  0  0  0
  -23.8383   35.7428   13.3964 H   0  0  0  0  0  0  0  0  0  0  0  0
  -24.2948   32.7244   15.0228 H   0  0  0  0  0  0  0  0  0  0  0  0
  -23.8742   36.8114   16.2774 H   0  0  0  0  0  0  0  0  0  0  0  0
  -21.9552   36.6228   15.1658 H   0  0  0  0  0  0  0  0  0  0  0  0
  -22.3780   37.5550   13.1330 H   0  0  0  0  0  0  0  0  0  0  0  0
  -20.6002   34.4811   15.2255 H   0  0  0  0  0  0  0  0  0  0  0  0
  -19.3780   35.3280   12.9820 H   0  0  0  0  0  0  0  0  0  0  0  0
  -14.7569   31.9571   10.9439 H   0  0  0  0  0  0  0  0  0  0  0  0
  -11.3758   30.6588   13.3418 H   0  0  0  0  0  0  0  0  0  0  0  0
  -12.6570   28.4460   14.8390 H   0  0  0  0  0  0  0  0  0  0  0  0
  -16.3550   29.2180   14.1980 H   0  0  0  0  0  0  0  0  0  0  0  0
  1  2  2  0
  2  3  1  0
  3  4  1  0
  4  5  1  0
  5  6  2  0
  6  7  1  0
  7  8  1  0
  8  9  1  0
  9 10  1  0
 10 11  1  0
 11 12  2  0
 12 13  1  0
 13 14  1  0
 14 15  1  0
 14 16  1  0
 14 17  1  0
 13 18  2  0
  9 19  1  0
 19 20  1  0
 19 21  1  0
 21 22  1  0
  2 23  1  0
 23 24  2  0
 24 25  1  0
 25 26  1  0
 26 27  2  0
 26 28  1  0
 25 29  2  0
 29 30  1  0
 30 31  1  0
 30 32  2  0
 32 33  1  0
 21  7  1  0
 32 23  1  0
 18 10  1  0
  3 34  1  0
  4 35  1  0
  4 36  1  0
  5 37  1  0
  6 38  1  0
  7 39  1  6
  9 40  1  6
 11 41  1  0
 18 42  1  0
 19 43  1  1
 20 44  1  0
 21 45  1  1
 22 46  1  0
 24 47  1  0
 29 48  1  0
 31 49  1  0
 33 50  1  0
M  CHG  2  26   1  28  -1
M  END
>  <meeko>  (5) 
{"is_sidechain": [false], "free_energy": -8.302, "intermolecular_energy": -12.335, "internal_energy": -1.036}

$$$$
3ozs_ligand
     RDKit          3D

 50 52  0  0  0  0  0  0  0  0999 V2000
  -21.9330   32.0070    5.3260 O   0  0  0  0  0  0  0  0  0  0  0  0
  -22.4420   31.1180    6.0010 C   0  0  0  0  0  0  0  0  0  0  0  0
  -21.8350   30.5830    7.1120 N   0  0  0  0  0  0  0  0  0  0  0  0
  -20.6390   31.1600    7.6610 C   0  0  0  0  0  0  0  0  0  0  0  0
  -20.7230   31.0320    9.1480 C   0  0  0  0  0  0  0  0  0  0  0  0
  -20.2110   30.0090    9.8520 C   0  0  0  0  0  0  0  0  0  0  0  0
  -20.2980   29.8860   11.3440 C   0  0  1  0  0  0  0  0  0  0  0  0
  -19.1870   29.0870   11.7900 O   0  0  0  0  0  0  0  0  0  0  0  0
  -18.7520   29.6010   13.0650 C   0  0  1  0  0  0  0  0  0  0  0  0
  -17.3480   29.9770   12.9870 N   0  0  0  0  0  0  0  0  0  0  0  0
  -16.8190   31.0870   12.3960 C   0  0  0  0  0  0  0  0  0  0  0  0
  -15.5180   31.1470   12.5620 N   0  0  0  0  0  0  0  0  0  0  0  0
  -15.1650   30.0030   13.2650 C   0  0  0  0  0  0  0  0  0  0  0  0
  -13.7410   29.6940   13.6360 C   0  0  0  0  0  0  0  0  0  0  0  0
  -13.3190   28.5070   13.1290 F   0  0  0  0  0  0  0  0  0  0  0  0
  -13.5500   29.6490   14.9800 F   0  0  0  0  0  0  0  0  0  0  0  0
  -12.8830   30.6400   13.1570 F   0  0  0  0  0  0  0  0  0  0  0  0
  -16.3090   29.2660   13.5310 C   0  0  0  0  0  0  0  0  0  0  0  0
  -19.6610   30.7790   13.4340 C   0  0  2  0  0  0  0  0  0  0  0  0
  -20.7920   30.3500   14.2200 O   0  0  0  0  0  0  0  0  0  0  0  0
  -20.1720   31.2260   12.0740 C   0  0  2  0  0  0  0  0  0  0  0  0
  -21.4020   31.9340   12.1880 O   0  0  0  0  0  0  0  0  0  0  0  0
  -23.7820   30.5710    5.6240 C   0  0  0  0  0  0  0  0  0  0  0  0
  -23.9290   29.1730    5.6230 C   0  0  0  0  0  0  0  0  0  0  0  0
  -25.1600   28.5920    5.2790 C   0  0  0  0  0  0  0  0  0  0  0  0
  -25.3050   27.1310    5.2850 N   0  0  0  0  0  0  0  0  0  0  0  0
  -24.6940   26.4920    6.1510 O   0  0  0  0  0  0  0  0  0  0  0  0
  -26.0340   26.6260    4.4190 O   0  0  0  0  0  0  0  0  0  0  0  0
  -26.2600   29.3880    4.9290 C   0  0  0  0  0  0  0  0  0  0  0  0
  -26.1040   30.7670    4.9290 C   0  0  0  0  0  0  0  0  0  0  0  0
  -27.1340   31.6060    4.5940 O   0  0  0  0  0  0  0  0  0  0  0  0
  -24.8830   31.3590    5.2700 C   0  0  0  0  0  0  0  0  0  0  0  0
  -24.8160   32.7300    5.2330 O   0  0  0  0  0  0  0  0  0  0  0  0
  -22.4010   29.9780    7.7020 H   0  0  0  0  0  0  0  0  0  0  0  0
  -19.7557   30.6218    7.2866 H   0  0  0  0  0  0  0  0  0  0  0  0
  -20.5465   32.2158    7.3666 H   0  0  0  0  0  0  0  0  0  0  0  0
  -21.2389   31.8293    9.7031 H   0  0  0  0  0  0  0  0  0  0  0  0
  -19.6949   29.2105    9.2988 H   0  0  0  0  0  0  0  0  0  0  0  0
  -21.2833   29.4517   11.5690 H   0  0  0  0  0  0  0  0  0  0  0  0
  -18.8313   28.8406   13.8559 H   0  0  0  0  0  0  0  0  0  0  0  0
  -17.4085   31.8375   11.8490 H   0  0  0  0  0  0  0  0  0  0  0  0
  -16.3706   28.3080   14.0680 H   0  0  0  0  0  0  0  0  0  0  0  0
  -19.1364   31.5468   14.0216 H   0  0  0  0  0  0  0  0  0  0  0  0
  -21.2770   31.1460   14.5040 H   0  0  0  0  0  0  0  0  0  0  0  0
  -19.5238   31.9400   11.5448 H   0  0  0  0  0  0  0  0  0  0  0  0
  -21.1750   32.7960   12.5920 H   0  0  0  0  0  0  0  0  0  0  0  0
  -23.0767   28.5320    5.8927 H   0  0  0  0  0  0  0  0  0  0  0  0
  -27.2236   28.9303    4.6608 H   0  0  0  0  0  0  0  0  0  0  0  0
  -27.8770   31.0790    4.2500 H   0  0  0  0  0  0  0  0  0  0  0  0
  -25.3850   32.9970    4.4800 H   0  0  0  0  0  0  0  0  0  0  0  0
  1  2  2  0
  2  3  1  0
  3  4  1  0
  4  5  1  0
  5  6  2  0
  6  7  1  0
  7  8  1  0
  8  9  1  0
  9 10  1  0
 10 11  1  0
 11 12  2  0
 12 13  1  0
 13 14  1  0
 14 15  1  0
 14 16  1  0
 14 17  1  0
 13 18  2  0
  9 19  1  0
 19 20  1  0
 19 21  1  0
 21 22  1  0
  2 23  1  0
 23 24  2  0
 24 25  1  0
 25 26  1  0
 26 27  2  0
 26 28  1  0
 25 29  2  0
 29 30  1  0
 30 31  1  0
 30 32  2  0
 32 33  1  0
 21  7  1  0
 32 23  1  0
 18 10  1  0
  3 34  1  0
  4 35  1  0
  4 36  1  0
  5 37  1  0
  6 38  1  0
  7 39  1  6
  9 40  1  1
 11 41  1  0
 18 42  1  0
 19 43  1  1
 20 44  1  0
 21 45  1  6
 22 46  1  0
 24 47  1  0
 29 48  1  0
 31 49  1  0
 33 50  1  0
M  CHG  2  26   1  28  -1
M  END
>  <meeko>  (6) 
{"is_sidechain": [false], "free_energy": -8.288, "intermolecular_energy": -12.561, "internal_energy": -0.789}

$$$$
3ozs_ligand
     RDKit          3D

 50 52  0  0  0  0  0  0  0  0999 V2000
  -16.7600   30.8390   11.1360 O   0  0  0  0  0  0  0  0  0  0  0  0
  -16.4500   30.7150   12.3160 C   0  0  0  0  0  0  0  0  0  0  0  0
  -17.3750   30.5720   13.3220 N   0  0  0  0  0  0  0  0  0  0  0  0
  -18.7700   30.3780   13.0320 C   0  0  0  0  0  0  0  0  0  0  0  0
  -19.4300   31.7180   13.0930 C   0  0  0  0  0  0  0  0  0  0  0  0
  -20.7590   31.9110   13.0390 C   0  0  0  0  0  0  0  0  0  0  0  0
  -21.4160   33.2590   13.1020 C   0  0  1  0  0  0  0  0  0  0  0  0
  -21.1250   33.9510   11.8730 O   0  0  0  0  0  0  0  0  0  0  0  0
  -22.2790   34.7430   11.5260 C   0  0  1  0  0  0  0  0  0  0  0  0
  -22.7510   34.3630   10.2020 N   0  0  0  0  0  0  0  0  0  0  0  0
  -23.7450   34.9520    9.4760 C   0  0  0  0  0  0  0  0  0  0  0  0
  -23.8720   34.3940    8.2940 N   0  0  0  0  0  0  0  0  0  0  0  0
  -22.9440   33.3630    8.2510 C   0  0  0  0  0  0  0  0  0  0  0  0
  -22.7950   32.4640    7.0550 C   0  0  0  0  0  0  0  0  0  0  0  0
  -23.9890   32.1520    6.4880 F   0  0  0  0  0  0  0  0  0  0  0  0
  -22.1730   31.2950    7.3550 F   0  0  0  0  0  0  0  0  0  0  0  0
  -22.0510   33.0550    6.0760 F   0  0  0  0  0  0  0  0  0  0  0  0
  -22.2410   33.3390    9.4450 C   0  0  0  0  0  0  0  0  0  0  0  0
  -23.3390   34.5370   12.6140 C   0  0  2  0  0  0  0  0  0  0  0  0
  -23.2260   35.5270   13.6570 O   0  0  0  0  0  0  0  0  0  0  0  0
  -22.9420   33.1890   13.1950 C   0  0  2  0  0  0  0  0  0  0  0  0
  -23.4280   33.0320   14.5240 O   0  0  0  0  0  0  0  0  0  0  0  0
  -15.0070   30.7140   12.7110 C   0  0  0  0  0  0  0  0  0  0  0  0
  -14.1120   31.4130   11.8820 C   0  0  0  0  0  0  0  0  0  0  0  0
  -12.7440   31.4530   12.1940 C   0  0  0  0  0  0  0  0  0  0  0  0
  -11.8180   32.1890   11.3230 N   0  0  0  0  0  0  0  0  0  0  0  0
  -11.6470   33.3940   11.5470 O   0  0  0  0  0  0  0  0  0  0  0  0
  -11.2620   31.5550   10.4160 O   0  0  0  0  0  0  0  0  0  0  0  0
  -12.2440   30.8000   13.3290 C   0  0  0  0  0  0  0  0  0  0  0  0
  -13.1340   30.1100   14.1400 C   0  0  0  0  0  0  0  0  0  0  0  0
  -12.7160   29.4460   15.2630 O   0  0  0  0  0  0  0  0  0  0  0  0
  -14.5000   30.0620   13.8410 C   0  0  0  0  0  0  0  0  0  0  0  0
  -15.3060   29.3470   14.6930 O   0  0  0  0  0  0  0  0  0  0  0  0
  -17.0260   30.3060   14.2390 H   0  0  0  0  0  0  0  0  0  0  0  0
  -18.8886   29.9459   12.0274 H   0  0  0  0  0  0  0  0  0  0  0  0
  -19.2251   29.6876   13.7574 H   0  0  0  0  0  0  0  0  0  0  0  0
  -18.7855   32.6043   13.1884 H   0  0  0  0  0  0  0  0  0  0  0  0
  -21.4053   31.0261   12.9427 H   0  0  0  0  0  0  0  0  0  0  0  0
  -21.0304   33.7590   14.0027 H   0  0  0  0  0  0  0  0  0  0  0  0
  -22.0347   35.8145   11.4794 H   0  0  0  0  0  0  0  0  0  0  0  0
  -24.3621   35.7887    9.8355 H   0  0  0  0  0  0  0  0  0  0  0  0
  -21.4385   32.6418    9.7278 H   0  0  0  0  0  0  0  0  0  0  0  0
  -24.3642   34.6024   12.2208 H   0  0  0  0  0  0  0  0  0  0  0  0
  -24.1280   35.7750   13.9310 H   0  0  0  0  0  0  0  0  0  0  0  0
  -23.3613   32.3158   12.6738 H   0  0  0  0  0  0  0  0  0  0  0  0
  -24.3820   33.2480   14.4840 H   0  0  0  0  0  0  0  0  0  0  0  0
  -14.4851   31.9303   10.9858 H   0  0  0  0  0  0  0  0  0  0  0  0
  -11.1715   30.8337   13.5712 H   0  0  0  0  0  0  0  0  0  0  0  0
  -12.8260   30.0260   16.0380 H   0  0  0  0  0  0  0  0  0  0  0  0
  -15.4290   28.4750   14.2610 H   0  0  0  0  0  0  0  0  0  0  0  0
  1  2  2  0
  2  3  1  0
  3  4  1  0
  4  5  1  0
  5  6  2  0
  6  7  1  0
  7  8  1  0
  8  9  1  0
  9 10  1  0
 10 11  1  0
 11 12  2  0
 12 13  1  0
 13 14  1  0
 14 15  1  0
 14 16  1  0
 14 17  1  0
 13 18  2  0
  9 19  1  0
 19 20  1  0
 19 21  1  0
 21 22  1  0
  2 23  1  0
 23 24  2  0
 24 25  1  0
 25 26  1  0
 26 27  2  0
 26 28  1  0
 25 29  2  0
 29 30  1  0
 30 31  1  0
 30 32  2  0
 32 33  1  0
 21  7  1  0
 32 23  1  0
 18 10  1  0
  3 34  1  0
  4 35  1  0
  4 36  1  0
  5 37  1  0
  6 38  1  0
  7 39  1  1
  9 40  1  6
 11 41  1  0
 18 42  1  0
 19 43  1  6
 20 44  1  0
 21 45  1  6
 22 46  1  0
 24 47  1  0
 29 48  1  0
 31 49  1  0
 33 50  1  0
M  CHG  2  26   1  28  -1
M  END
>  <meeko>  (7) 
{"is_sidechain": [false], "free_energy": -8.241, "intermolecular_energy": -12.234, "internal_energy": -1.044}

$$$$
3ozs_ligand
     RDKit          3D

 50 52  0  0  0  0  0  0  0  0999 V2000
  -22.7280   32.6740    5.6470 O   0  0  0  0  0  0  0  0  0  0  0  0
  -22.9020   31.8980    6.5810 C   0  0  0  0  0  0  0  0  0  0  0  0
  -22.6130   32.2200    7.8850 N   0  0  0  0  0  0  0  0  0  0  0  0
  -22.2540   33.5600    8.2620 C   0  0  0  0  0  0  0  0  0  0  0  0
  -22.1830   33.6010    9.7550 C   0  0  0  0  0  0  0  0  0  0  0  0
  -23.2070   33.9440   10.5540 C   0  0  0  0  0  0  0  0  0  0  0  0
  -23.1290   33.9820   12.0520 C   0  0  1  0  0  0  0  0  0  0  0  0
  -23.0140   32.6280   12.5240 O   0  0  0  0  0  0  0  0  0  0  0  0
  -22.1560   32.6330   13.6830 C   0  0  1  0  0  0  0  0  0  0  0  0
  -21.0230   31.7460   13.4570 N   0  0  0  0  0  0  0  0  0  0  0  0
  -20.9940   30.3890   13.5930 C   0  0  0  0  0  0  0  0  0  0  0  0
  -19.8260   29.8960   13.2500 N   0  0  0  0  0  0  0  0  0  0  0  0
  -19.0340   30.9830   12.9050 C   0  0  0  0  0  0  0  0  0  0  0  0
  -17.6030   30.8300   12.4710 C   0  0  0  0  0  0  0  0  0  0  0  0
  -17.4700   30.8200   11.1190 F   0  0  0  0  0  0  0  0  0  0  0  0
  -17.0340   29.6900   12.9410 F   0  0  0  0  0  0  0  0  0  0  0  0
  -16.8310   31.8600   12.9220 F   0  0  0  0  0  0  0  0  0  0  0  0
  -19.7800   32.1440   13.0360 C   0  0  0  0  0  0  0  0  0  0  0  0
  -21.7290   34.0820   13.9490 C   0  0  2  0  0  0  0  0  0  0  0  0
  -22.6300   34.7390   14.8640 O   0  0  0  0  0  0  0  0  0  0  0  0
  -21.8950   34.7190   12.5800 C   0  0  2  0  0  0  0  0  0  0  0  0
  -22.0700   36.1290   12.6800 O   0  0  0  0  0  0  0  0  0  0  0  0
  -23.4520   30.5320    6.3210 C   0  0  0  0  0  0  0  0  0  0  0  0
  -24.6140   30.4440    5.5340 C   0  0  0  0  0  0  0  0  0  0  0  0
  -25.1840   29.1930    5.2510 C   0  0  0  0  0  0  0  0  0  0  0  0
  -26.3940   29.1120    4.4240 N   0  0  0  0  0  0  0  0  0  0  0  0
  -27.0140   30.1600    4.2010 O   0  0  0  0  0  0  0  0  0  0  0  0
  -26.7200   27.9960    3.9970 O   0  0  0  0  0  0  0  0  0  0  0  0
  -24.6120   28.0120    5.7460 C   0  0  0  0  0  0  0  0  0  0  0  0
  -23.4680   28.1080    6.5260 C   0  0  0  0  0  0  0  0  0  0  0  0
  -22.8590   26.9980    7.0470 O   0  0  0  0  0  0  0  0  0  0  0  0
  -22.8900   29.3490    6.8150 C   0  0  0  0  0  0  0  0  0  0  0  0
  -21.7650   29.3510    7.6030 O   0  0  0  0  0  0  0  0  0  0  0  0
  -22.9470   31.5830    8.6050 H   0  0  0  0  0  0  0  0  0  0  0  0
  -21.2762   33.8224    7.8318 H   0  0  0  0  0  0  0  0  0  0  0  0
  -22.9966   34.2805    7.8887 H   0  0  0  0  0  0  0  0  0  0  0  0
  -21.2284   33.3323   10.2309 H   0  0  0  0  0  0  0  0  0  0  0  0
  -24.1625   34.2139   10.0805 H   0  0  0  0  0  0  0  0  0  0  0  0
  -24.0299   34.5063   12.4035 H   0  0  0  0  0  0  0  0  0  0  0  0
  -22.6793   32.2561   14.5741 H   0  0  0  0  0  0  0  0  0  0  0  0
  -21.8422   29.7838   13.9456 H   0  0  0  0  0  0  0  0  0  0  0  0
  -19.4439   33.1733   12.8421 H   0  0  0  0  0  0  0  0  0  0  0  0
  -20.7223   34.1515   14.3869 H   0  0  0  0  0  0  0  0  0  0  0  0
  -23.5060   34.3230   14.7690 H   0  0  0  0  0  0  0  0  0  0  0  0
  -21.0244   34.6242   11.9143 H   0  0  0  0  0  0  0  0  0  0  0  0
  -21.2020   36.5190   12.4500 H   0  0  0  0  0  0  0  0  0  0  0  0
  -25.0782   31.3595    5.1385 H   0  0  0  0  0  0  0  0  0  0  0  0
  -25.0595   27.0326    5.5213 H   0  0  0  0  0  0  0  0  0  0  0  0
  -22.4120   26.5120    6.3300 H   0  0  0  0  0  0  0  0  0  0  0  0
  -21.0280   29.5910    7.0020 H   0  0  0  0  0  0  0  0  0  0  0  0
  1  2  2  0
  2  3  1  0
  3  4  1  0
  4  5  1  0
  5  6  2  0
  6  7  1  0
  7  8  1  0
  8  9  1  0
  9 10  1  0
 10 11  1  0
 11 12  2  0
 12 13  1  0
 13 14  1  0
 14 15  1  0
 14 16  1  0
 14 17  1  0
 13 18  2  0
  9 19  1  0
 19 20  1  0
 19 21  1  0
 21 22  1  0
  2 23  1  0
 23 24  2  0
 24 25  1  0
 25 26  1  0
 26 27  2  0
 26 28  1  0
 25 29  2  0
 29 30  1  0
 30 31  1  0
 30 32  2  0
 32 33  1  0
 21  7  1  0
 32 23  1  0
 18 10  1  0
  3 34  1  0
  4 35  1  0
  4 36  1  0
  5 37  1  0
  6 38  1  0
  7 39  1  1
  9 40  1  1
 11 41  1  0
 18 42  1  0
 19 43  1  1
 20 44  1  0
 21 45  1  6
 22 46  1  0
 24 47  1  0
 29 48  1  0
 31 49  1  0
 33 50  1  0
M  CHG  2  26   1  28  -1
M  END
>  <meeko>  (8) 
{"is_sidechain": [false], "free_energy": -8.192, "intermolecular_energy": -12.019, "internal_energy": -1.184}

$$$$
