3gc5_ligand
     RDKit          3D

 38 40  0  0  0  0  0  0  0  0999 V2000
   18.1870   17.8850   14.8060 C   0  0  0  0  0  0  0  0  0  0  0  0
   18.9350   17.2170   15.8680 N   0  0  0  0  0  0  0  0  0  0  0  0
   18.4690   17.1390   17.1190 C   0  0  0  0  0  0  0  0  0  0  0  0
   17.2520   16.7180   17.4720 N   0  0  0  0  0  0  0  0  0  0  0  0
   17.1080   16.7280   18.8520 C   0  0  0  0  0  0  0  0  0  0  0  0
   16.0370   16.3590   19.6980 C   0  0  0  0  0  0  0  0  0  0  0  0
   14.7200   15.9150   19.1040 C   0  0  0  0  0  0  0  0  0  0  0  0
   14.8070   14.5750   18.3470 C   0  0  0  0  0  0  0  0  0  0  0  0
   14.3790   13.4340   19.2020 N   0  0  0  0  0  0  0  0  0  0  0  0
   16.3300   16.4530   21.1010 C   0  0  0  0  0  0  0  0  0  0  0  0
   15.3590   16.0300   22.0710 N   0  0  0  0  0  0  0  0  0  0  0  0
   15.6360   16.0940   23.4090 C   0  0  0  0  0  0  0  0  0  0  0  0
   14.7330   15.6660   24.2970 N   0  0  0  0  0  0  0  0  0  0  0  0
   16.7960   16.5790   23.8240 N   0  0  0  0  0  0  0  0  0  0  0  0
   17.8290   17.0280   22.9960 C   0  0  0  0  0  0  0  0  0  0  0  0
   18.8590   17.4610   23.4660 O   0  0  0  0  0  0  0  0  0  0  0  0
   17.5860   16.9400   21.5520 C   0  0  0  0  0  0  0  0  0  0  0  0
   18.6170   17.3340   20.6830 C   0  0  0  0  0  0  0  0  0  0  0  0
   18.3350   17.1970   19.3360 C   0  0  0  0  0  0  0  0  0  0  0  0
   19.1070   17.4540   18.2330 N   0  0  0  0  0  0  0  0  0  0  0  0
   17.4368   18.5549   15.2515 H   0  0  0  0  0  0  0  0  0  0  0  0
   18.8787   18.4715   14.1834 H   0  0  0  0  0  0  0  0  0  0  0  0
   17.6822   17.1317   14.1834 H   0  0  0  0  0  0  0  0  0  0  0  0
   19.8380   16.8190   15.6430 H   0  0  0  0  0  0  0  0  0  0  0  0
   16.5970   16.3750   16.7830 H   0  0  0  0  0  0  0  0  0  0  0  0
   13.9891   15.8075   19.9190 H   0  0  0  0  0  0  0  0  0  0  0  0
   14.4205   16.6805   18.3730 H   0  0  0  0  0  0  0  0  0  0  0  0
   14.1555   14.6220   17.4620 H   0  0  0  0  0  0  0  0  0  0  0  0
   15.8550   14.4121   18.0550 H   0  0  0  0  0  0  0  0  0  0  0  0
   14.4770   12.5100   18.7550 H   0  0  0  0  0  0  0  0  0  0  0  0
   13.3740   13.5100   19.4390 H   0  0  0  0  0  0  0  0  0  0  0  0
   14.8630   13.3760   20.1120 H   0  0  0  0  0  0  0  0  0  0  0  0
   14.4730   15.6120   21.8220 H   0  0  0  0  0  0  0  0  0  0  0  0
   14.4100   14.7090   24.3670 H   0  0  0  0  0  0  0  0  0  0  0  0
   14.3310   16.3000   24.9860 H   0  0  0  0  0  0  0  0  0  0  0  0
   16.9990   16.6390   24.8170 H   0  0  0  0  0  0  0  0  0  0  0  0
   19.5790   17.7233   21.0475 H   0  0  0  0  0  0  0  0  0  0  0  0
   20.0600   17.8070   18.2530 H   0  0  0  0  0  0  0  0  0  0  0  0
  1  2  1  0
  2  3  1  0
  3  4  1  0
  4  5  1  0
  5  6  2  0
  6  7  1  0
  7  8  1  0
  8  9  1  0
  6 10  1  0
 10 11  1  0
 11 12  2  0
 12 13  1  0
 12 14  1  0
 14 15  1  0
 15 16  2  0
 15 17  1  0
 17 18  1  0
 18 19  2  0
 19 20  1  0
 20  3  2  0
 19  5  1  0
 17 10  2  0
  1 21  1  0
  1 22  1  0
  1 23  1  0
  2 24  1  0
  4 25  1  0
  7 26  1  0
  7 27  1  0
  8 28  1  0
  8 29  1  0
  9 30  1  0
  9 31  1  0
  9 32  1  0
 11 33  1  0
 13 34  1  0
 13 35  1  0
 14 36  1  0
 18 37  1  0
 20 38  1  0
M  CHG  3   9   1  11   1  20   1
M  END
>  <meeko>  (1) 
{"is_sidechain": [false], "free_energy": -9.283, "intermolecular_energy": -11.454, "internal_energy": -0.145}

$$$$
3gc5_ligand
     RDKit          3D

 38 40  0  0  0  0  0  0  0  0999 V2000
   18.0180   16.9060   22.9610 C   0  0  0  0  0  0  0  0  0  0  0  0
   18.8780   16.8770   21.7810 N   0  0  0  0  0  0  0  0  0  0  0  0
   18.3780   16.8880   20.5410 C   0  0  0  0  0  0  0  0  0  0  0  0
   17.1570   16.4760   20.1890 N   0  0  0  0  0  0  0  0  0  0  0  0
   16.9480   16.6570   18.8300 C   0  0  0  0  0  0  0  0  0  0  0  0
   15.8330   16.4040   17.9980 C   0  0  0  0  0  0  0  0  0  0  0  0
   14.5950   15.7520   18.5690 C   0  0  0  0  0  0  0  0  0  0  0  0
   14.7600   14.2430   18.8350 C   0  0  0  0  0  0  0  0  0  0  0  0
   13.4480   13.5400   18.8380 N   0  0  0  0  0  0  0  0  0  0  0  0
   16.0060   16.8130   16.6320 C   0  0  0  0  0  0  0  0  0  0  0  0
   14.9220   16.6890   15.6990 N   0  0  0  0  0  0  0  0  0  0  0  0
   15.0690   17.0960   14.4020 C   0  0  0  0  0  0  0  0  0  0  0  0
   14.0400   17.0030   13.5540 N   0  0  0  0  0  0  0  0  0  0  0  0
   16.2290   17.5810   13.9860 N   0  0  0  0  0  0  0  0  0  0  0  0
   17.3660   17.7540   14.7800 C   0  0  0  0  0  0  0  0  0  0  0  0
   18.3900   18.2040   14.3110 O   0  0  0  0  0  0  0  0  0  0  0  0
   17.2380   17.3650   16.1890 C   0  0  0  0  0  0  0  0  0  0  0  0
   18.3400   17.5690   17.0350 C   0  0  0  0  0  0  0  0  0  0  0  0
   18.1430   17.2110   18.3550 C   0  0  0  0  0  0  0  0  0  0  0  0
   18.9780   17.3000   19.4380 N   0  0  0  0  0  0  0  0  0  0  0  0
   18.6396   16.8850   23.8683 H   0  0  0  0  0  0  0  0  0  0  0  0
   17.4136   17.8250   22.9517 H   0  0  0  0  0  0  0  0  0  0  0  0
   17.3531   16.0298   22.9517 H   0  0  0  0  0  0  0  0  0  0  0  0
   19.8800   16.8340   21.9170 H   0  0  0  0  0  0  0  0  0  0  0  0
   16.4930   16.1610   20.8830 H   0  0  0  0  0  0  0  0  0  0  0  0
   14.3476   16.2477   19.5193 H   0  0  0  0  0  0  0  0  0  0  0  0
   13.7972   15.8624   17.8198 H   0  0  0  0  0  0  0  0  0  0  0  0
   15.3954   13.8094   18.0487 H   0  0  0  0  0  0  0  0  0  0  0  0
   15.2200   14.1169   19.8262 H   0  0  0  0  0  0  0  0  0  0  0  0
   13.4190   12.6990   19.4350 H   0  0  0  0  0  0  0  0  0  0  0  0
   13.2110   13.2010   17.8900 H   0  0  0  0  0  0  0  0  0  0  0  0
   12.6480   14.1290   19.1180 H   0  0  0  0  0  0  0  0  0  0  0  0
   14.0000   16.3680   15.9600 H   0  0  0  0  0  0  0  0  0  0  0  0
   14.1230   16.7230   12.5840 H   0  0  0  0  0  0  0  0  0  0  0  0
   13.0870   17.1930   13.8600 H   0  0  0  0  0  0  0  0  0  0  0  0
   16.3450   17.8710   13.0200 H   0  0  0  0  0  0  0  0  0  0  0  0
   19.2921   17.9841   16.6728 H   0  0  0  0  0  0  0  0  0  0  0  0
   19.9270   17.6650   19.4190 H   0  0  0  0  0  0  0  0  0  0  0  0
  1  2  1  0
  2  3  1  0
  3  4  1  0
  4  5  1  0
  5  6  2  0
  6  7  1  0
  7  8  1  0
  8  9  1  0
  6 10  1  0
 10 11  1  0
 11 12  2  0
 12 13  1  0
 12 14  1  0
 14 15  1  0
 15 16  2  0
 15 17  1  0
 17 18  1  0
 18 19  2  0
 19 20  1  0
 20  3  2  0
 19  5  1  0
 17 10  2  0
  1 21  1  0
  1 22  1  0
  1 23  1  0
  2 24  1  0
  4 25  1  0
  7 26  1  0
  7 27  1  0
  8 28  1  0
  8 29  1  0
  9 30  1  0
  9 31  1  0
  9 32  1  0
 11 33  1  0
 13 34  1  0
 13 35  1  0
 14 36  1  0
 18 37  1  0
 20 38  1  0
M  CHG  3   9   1  11   1  20   1
M  END
>  <meeko>  (2) 
{"is_sidechain": [false], "free_energy": -7.695, "intermolecular_energy": -9.444, "internal_energy": -0.195}

$$$$
3gc5_ligand
     RDKit          3D

 38 40  0  0  0  0  0  0  0  0999 V2000
   20.0340   17.7400   12.5590 C   0  0  0  0  0  0  0  0  0  0  0  0
   19.2250   18.6510   13.3660 N   0  0  0  0  0  0  0  0  0  0  0  0
   18.3170   18.2040   14.2400 C   0  0  0  0  0  0  0  0  0  0  0  0
   17.0390   17.9320   13.9650 N   0  0  0  0  0  0  0  0  0  0  0  0
   16.3840   17.4530   15.0910 C   0  0  0  0  0  0  0  0  0  0  0  0
   15.0560   17.0140   15.3030 C   0  0  0  0  0  0  0  0  0  0  0  0
   14.0440   17.0950   14.1830 C   0  0  0  0  0  0  0  0  0  0  0  0
   13.1770   18.3680   14.2260 C   0  0  0  0  0  0  0  0  0  0  0  0
   11.7630   18.0560   14.5700 N   0  0  0  0  0  0  0  0  0  0  0  0
   14.8000   16.5160   16.6250 C   0  0  0  0  0  0  0  0  0  0  0  0
   13.5160   15.9620   16.9520 N   0  0  0  0  0  0  0  0  0  0  0  0
   13.2680   15.4650   18.2010 C   0  0  0  0  0  0  0  0  0  0  0  0
   12.0770   14.9240   18.4790 N   0  0  0  0  0  0  0  0  0  0  0  0
   14.2050   15.5190   19.1350 N   0  0  0  0  0  0  0  0  0  0  0  0
   15.4940   16.0310   18.9590 C   0  0  0  0  0  0  0  0  0  0  0  0
   16.2880   16.0440   19.8760 O   0  0  0  0  0  0  0  0  0  0  0  0
   15.8130   16.5400   17.6210 C   0  0  0  0  0  0  0  0  0  0  0  0
   17.1130   17.0180   17.3870 C   0  0  0  0  0  0  0  0  0  0  0  0
   17.3560   17.4540   16.0980 C   0  0  0  0  0  0  0  0  0  0  0  0
   18.4990   17.9460   15.5230 N   0  0  0  0  0  0  0  0  0  0  0  0
   20.6173   17.0832   13.2211 H   0  0  0  0  0  0  0  0  0  0  0  0
   19.3753   17.1292   11.9242 H   0  0  0  0  0  0  0  0  0  0  0  0
   20.7184   18.3219   11.9242 H   0  0  0  0  0  0  0  0  0  0  0  0
   19.3540   19.6470   13.2410 H   0  0  0  0  0  0  0  0  0  0  0  0
   16.6790   18.0080   13.0240 H   0  0  0  0  0  0  0  0  0  0  0  0
   14.5835   17.0739   13.2246 H   0  0  0  0  0  0  0  0  0  0  0  0
   13.3645   16.2378   14.2995 H   0  0  0  0  0  0  0  0  0  0  0  0
   13.5859   19.0531   14.9833 H   0  0  0  0  0  0  0  0  0  0  0  0
   13.1945   18.8303   13.2280 H   0  0  0  0  0  0  0  0  0  0  0  0
   11.0980   18.1900   13.7920 H   0  0  0  0  0  0  0  0  0  0  0  0
   11.4210   18.6800   15.3210 H   0  0  0  0  0  0  0  0  0  0  0  0
   11.6100   17.1000   14.9280 H   0  0  0  0  0  0  0  0  0  0  0  0
   12.7720   15.8530   16.2760 H   0  0  0  0  0  0  0  0  0  0  0  0
   11.2770   15.4470   18.8120 H   0  0  0  0  0  0  0  0  0  0  0  0
   11.9060   13.9300   18.3400 H   0  0  0  0  0  0  0  0  0  0  0  0
   14.0200   15.1630   20.0670 H   0  0  0  0  0  0  0  0  0  0  0  0
   17.8822   17.0435   18.1729 H   0  0  0  0  0  0  0  0  0  0  0  0
   19.3890   18.0700   16.0000 H   0  0  0  0  0  0  0  0  0  0  0  0
  1  2  1  0
  2  3  1  0
  3  4  1  0
  4  5  1  0
  5  6  2  0
  6  7  1  0
  7  8  1  0
  8  9  1  0
  6 10  1  0
 10 11  1  0
 11 12  2  0
 12 13  1  0
 12 14  1  0
 14 15  1  0
 15 16  2  0
 15 17  1  0
 17 18  1  0
 18 19  2  0
 19 20  1  0
 20  3  2  0
 19  5  1  0
 17 10  2  0
  1 21  1  0
  1 22  1  0
  1 23  1  0
  2 24  1  0
  4 25  1  0
  7 26  1  0
  7 27  1  0
  8 28  1  0
  8 29  1  0
  9 30  1  0
  9 31  1  0
  9 32  1  0
 11 33  1  0
 13 34  1  0
 13 35  1  0
 14 36  1  0
 18 37  1  0
 20 38  1  0
M  CHG  3   9   1  11   1  20   1
M  END
>  <meeko>  (3) 
{"is_sidechain": [false], "free_energy": -7.681, "intermolecular_energy": -9.359, "internal_energy": -0.263}

$$$$
3gc5_ligand
     RDKit          3D

 38 40  0  0  0  0  0  0  0  0999 V2000
   19.1960   18.2170   12.6630 C   0  0  0  0  0  0  0  0  0  0  0  0
   18.0280   17.5330   13.2140 N   0  0  0  0  0  0  0  0  0  0  0  0
   17.8300   17.4220   14.5310 C   0  0  0  0  0  0  0  0  0  0  0  0
   16.6760   17.1020   15.1220 N   0  0  0  0  0  0  0  0  0  0  0  0
   16.8270   17.0380   16.4990 C   0  0  0  0  0  0  0  0  0  0  0  0
   15.9240   16.7240   17.5410 C   0  0  0  0  0  0  0  0  0  0  0  0
   14.4720   16.4500   17.2270 C   0  0  0  0  0  0  0  0  0  0  0  0
   13.9670   15.1000   17.7750 C   0  0  0  0  0  0  0  0  0  0  0  0
   12.6550   15.2440   18.4620 N   0  0  0  0  0  0  0  0  0  0  0  0
   16.5150   16.6990   18.8500 C   0  0  0  0  0  0  0  0  0  0  0  0
   15.7290   16.3140   19.9890 N   0  0  0  0  0  0  0  0  0  0  0  0
   16.2860   16.2650   21.2370 C   0  0  0  0  0  0  0  0  0  0  0  0
   15.5480   15.8740   22.2810 N   0  0  0  0  0  0  0  0  0  0  0  0
   17.5530   16.6060   21.4110 N   0  0  0  0  0  0  0  0  0  0  0  0
   18.4320   17.0030   20.3990 C   0  0  0  0  0  0  0  0  0  0  0  0
   19.5790   17.3020   20.6530 O   0  0  0  0  0  0  0  0  0  0  0  0
   17.8830   17.0310   19.0380 C   0  0  0  0  0  0  0  0  0  0  0  0
   18.7440   17.3760   17.9840 C   0  0  0  0  0  0  0  0  0  0  0  0
   18.1720   17.3530   16.7260 C   0  0  0  0  0  0  0  0  0  0  0  0
   18.7180   17.6010   15.4930 N   0  0  0  0  0  0  0  0  0  0  0  0
   19.8265   18.5862   13.4853 H   0  0  0  0  0  0  0  0  0  0  0  0
   19.7742   17.5148   12.0445 H   0  0  0  0  0  0  0  0  0  0  0  0
   18.8665   19.0648   12.0445 H   0  0  0  0  0  0  0  0  0  0  0  0
   17.3640   17.1220   12.5700 H   0  0  0  0  0  0  0  0  0  0  0  0
   15.8570   16.8690   14.5760 H   0  0  0  0  0  0  0  0  0  0  0  0
   13.8632   17.2537   17.6669 H   0  0  0  0  0  0  0  0  0  0  0  0
   14.3807   16.4084   16.1316 H   0  0  0  0  0  0  0  0  0  0  0  0
   13.8564   14.3941   16.9386 H   0  0  0  0  0  0  0  0  0  0  0  0
   14.6999   14.7300   18.5071 H   0  0  0  0  0  0  0  0  0  0  0  0
   12.0090   14.4530   18.3140 H   0  0  0  0  0  0  0  0  0  0  0  0
   12.1440   16.0730   18.1110 H   0  0  0  0  0  0  0  0  0  0  0  0
   12.7200   15.3860   19.4830 H   0  0  0  0  0  0  0  0  0  0  0  0
   14.7690   16.0020   19.9200 H   0  0  0  0  0  0  0  0  0  0  0  0
   15.0270   16.5030   22.8800 H   0  0  0  0  0  0  0  0  0  0  0  0
   15.4520   14.8870   22.5170 H   0  0  0  0  0  0  0  0  0  0  0  0
   17.9660   16.5840   22.3380 H   0  0  0  0  0  0  0  0  0  0  0  0
   19.7979   17.6452   18.1477 H   0  0  0  0  0  0  0  0  0  0  0  0
   19.6870   17.8570   15.3210 H   0  0  0  0  0  0  0  0  0  0  0  0
  1  2  1  0
  2  3  1  0
  3  4  1  0
  4  5  1  0
  5  6  2  0
  6  7  1  0
  7  8  1  0
  8  9  1  0
  6 10  1  0
 10 11  1  0
 11 12  2  0
 12 13  1  0
 12 14  1  0
 14 15  1  0
 15 16  2  0
 15 17  1  0
 17 18  1  0
 18 19  2  0
 19 20  1  0
 20  3  2  0
 19  5  1  0
 17 10  2  0
  1 21  1  0
  1 22  1  0
  1 23  1  0
  2 24  1  0
  4 25  1  0
  7 26  1  0
  7 27  1  0
  8 28  1  0
  8 29  1  0
  9 30  1  0
  9 31  1  0
  9 32  1  0
 11 33  1  0
 13 34  1  0
 13 35  1  0
 14 36  1  0
 18 37  1  0
 20 38  1  0
M  CHG  3   9   1  11   1  20   1
M  END
>  <meeko>  (4) 
{"is_sidechain": [false], "free_energy": -7.602, "intermolecular_energy": -9.624, "internal_energy": 0.1}

$$$$
3gc5_ligand
     RDKit          3D

 38 40  0  0  0  0  0  0  0  0999 V2000
   10.3090   16.9880   14.3910 C   0  0  0  0  0  0  0  0  0  0  0  0
   11.2520   15.9350   14.7600 N   0  0  0  0  0  0  0  0  0  0  0  0
   12.4490   16.2120   15.2900 C   0  0  0  0  0  0  0  0  0  0  0  0
   12.8660   15.8490   16.5050 N   0  0  0  0  0  0  0  0  0  0  0  0
   14.1710   16.2670   16.7230 C   0  0  0  0  0  0  0  0  0  0  0  0
   15.0480   16.1100   17.8210 C   0  0  0  0  0  0  0  0  0  0  0  0
   14.5670   15.4310   19.0830 C   0  0  0  0  0  0  0  0  0  0  0  0
   15.0100   13.9590   19.1980 C   0  0  0  0  0  0  0  0  0  0  0  0
   13.8420   13.0360   19.2250 N   0  0  0  0  0  0  0  0  0  0  0  0
   16.3660   16.6400   17.6090 C   0  0  0  0  0  0  0  0  0  0  0  0
   17.3800   16.4750   18.6120 N   0  0  0  0  0  0  0  0  0  0  0  0
   18.6440   16.9560   18.4120 C   0  0  0  0  0  0  0  0  0  0  0  0
   19.5850   16.7660   19.3420 N   0  0  0  0  0  0  0  0  0  0  0  0
   18.9350   17.6110   17.2980 N   0  0  0  0  0  0  0  0  0  0  0  0
   18.0510   17.8470   16.2420 C   0  0  0  0  0  0  0  0  0  0  0  0
   18.4060   18.4620   15.2590 O   0  0  0  0  0  0  0  0  0  0  0  0
   16.6930   17.3130   16.4020 C   0  0  0  0  0  0  0  0  0  0  0  0
   15.7860   17.4850   15.3440 C   0  0  0  0  0  0  0  0  0  0  0  0
   14.5360   16.9310   15.5460 C   0  0  0  0  0  0  0  0  0  0  0  0
   13.4370   16.8850   14.7270 N   0  0  0  0  0  0  0  0  0  0  0  0
    9.8976   17.4474   15.3018 H   0  0  0  0  0  0  0  0  0  0  0  0
   10.8288   17.7539   13.7967 H   0  0  0  0  0  0  0  0  0  0  0  0
    9.4906   16.5555   13.7967 H   0  0  0  0  0  0  0  0  0  0  0  0
   10.9880   14.9720   14.5920 H   0  0  0  0  0  0  0  0  0  0  0  0
   12.2900   15.2750   17.1050 H   0  0  0  0  0  0  0  0  0  0  0  0
   14.9643   15.9825   19.9479 H   0  0  0  0  0  0  0  0  0  0  0  0
   13.4674   15.4360   19.0534 H   0  0  0  0  0  0  0  0  0  0  0  0
   15.6433   13.7082   18.3343 H   0  0  0  0  0  0  0  0  0  0  0  0
   15.5652   13.8392   20.1400 H   0  0  0  0  0  0  0  0  0  0  0  0
   13.4870   12.7750   18.2930 H   0  0  0  0  0  0  0  0  0  0  0  0
   13.0360   13.4770   19.7030 H   0  0  0  0  0  0  0  0  0  0  0  0
   14.0050   12.1550   19.7380 H   0  0  0  0  0  0  0  0  0  0  0  0
   17.2360   15.9510   19.4640 H   0  0  0  0  0  0  0  0  0  0  0  0
   19.8970   17.4780   19.9920 H   0  0  0  0  0  0  0  0  0  0  0  0
   20.0300   15.8580   19.4620 H   0  0  0  0  0  0  0  0  0  0  0  0
   19.8700   17.9810   17.1510 H   0  0  0  0  0  0  0  0  0  0  0  0
   16.0511   18.0218   14.4212 H   0  0  0  0  0  0  0  0  0  0  0  0
   13.3850   17.2830   13.7930 H   0  0  0  0  0  0  0  0  0  0  0  0
  1  2  1  0
  2  3  1  0
  3  4  1  0
  4  5  1  0
  5  6  2  0
  6  7  1  0
  7  8  1  0
  8  9  1  0
  6 10  1  0
 10 11  1  0
 11 12  2  0
 12 13  1  0
 12 14  1  0
 14 15  1  0
 15 16  2  0
 15 17  1  0
 17 18  1  0
 18 19  2  0
 19 20  1  0
 20  3  2  0
 19  5  1  0
 17 10  2  0
  1 21  1  0
  1 22  1  0
  1 23  1  0
  2 24  1  0
  4 25  1  0
  7 26  1  0
  7 27  1  0
  8 28  1  0
  8 29  1  0
  9 30  1  0
  9 31  1  0
  9 32  1  0
 11 33  1  0
 13 34  1  0
 13 35  1  0
 14 36  1  0
 18 37  1  0
 20 38  1  0
M  CHG  3   9   1  11   1  20   1
M  END
>  <meeko>  (5) 
{"is_sidechain": [false], "free_energy": -7.33, "intermolecular_energy": -8.985, "internal_energy": -0.204}

$$$$
3gc5_ligand
     RDKit          3D

 38 40  0  0  0  0  0  0  0  0999 V2000
   19.5540   16.7090   20.5520 C   0  0  0  0  0  0  0  0  0  0  0  0
   19.1660   17.0140   19.1770 N   0  0  0  0  0  0  0  0  0  0  0  0
   17.9370   16.7570   18.7150 C   0  0  0  0  0  0  0  0  0  0  0  0
   17.4360   17.1850   17.5540 N   0  0  0  0  0  0  0  0  0  0  0  0
   16.1470   16.7080   17.3680 C   0  0  0  0  0  0  0  0  0  0  0  0
   15.2210   16.8590   16.3100 C   0  0  0  0  0  0  0  0  0  0  0  0
   15.5580   17.7380   15.1280 C   0  0  0  0  0  0  0  0  0  0  0  0
   16.2710   16.9880   13.9860 C   0  0  0  0  0  0  0  0  0  0  0  0
   17.7260   17.2970   13.9510 N   0  0  0  0  0  0  0  0  0  0  0  0
   13.9980   16.1250   16.4820 C   0  0  0  0  0  0  0  0  0  0  0  0
   13.0050   16.1240   15.4450 N   0  0  0  0  0  0  0  0  0  0  0  0
   11.8470   15.4120   15.5880 C   0  0  0  0  0  0  0  0  0  0  0  0
   10.9470   15.3960   14.5990 N   0  0  0  0  0  0  0  0  0  0  0  0
   11.6170   14.7380   16.7050 N   0  0  0  0  0  0  0  0  0  0  0  0
   12.4890   14.6530   17.7940 C   0  0  0  0  0  0  0  0  0  0  0  0
   12.1910   14.0140   18.7810 O   0  0  0  0  0  0  0  0  0  0  0  0
   13.7600   15.3740   17.6640 C   0  0  0  0  0  0  0  0  0  0  0  0
   14.6880   15.2740   18.7140 C   0  0  0  0  0  0  0  0  0  0  0  0
   15.8760   15.9510   18.5140 C   0  0  0  0  0  0  0  0  0  0  0  0
   16.9940   16.0440   19.3040 N   0  0  0  0  0  0  0  0  0  0  0  0
   18.8840   17.2357   21.2475 H   0  0  0  0  0  0  0  0  0  0  0  0
   19.4800   15.6247   20.7219 H   0  0  0  0  0  0  0  0  0  0  0  0
   20.5901   17.0369   20.7219 H   0  0  0  0  0  0  0  0  0  0  0  0
   19.8600   17.4170   18.5600 H   0  0  0  0  0  0  0  0  0  0  0  0
   18.0010   17.7140   16.9040 H   0  0  0  0  0  0  0  0  0  0  0  0
   14.6237   18.1646   14.7341 H   0  0  0  0  0  0  0  0  0  0  0  0
   16.2515   18.5121   15.4885 H   0  0  0  0  0  0  0  0  0  0  0  0
   16.1395   15.9058   14.1331 H   0  0  0  0  0  0  0  0  0  0  0  0
   15.8279   17.3121   13.0328 H   0  0  0  0  0  0  0  0  0  0  0  0
   18.0300   17.9850   14.6580 H   0  0  0  0  0  0  0  0  0  0  0  0
   17.9920   17.7160   13.0430 H   0  0  0  0  0  0  0  0  0  0  0  0
   18.3410   16.4750   14.0550 H   0  0  0  0  0  0  0  0  0  0  0  0
   13.1360   16.5820   14.5530 H   0  0  0  0  0  0  0  0  0  0  0  0
   10.1020   14.8390   14.6060 H   0  0  0  0  0  0  0  0  0  0  0  0
   11.0620   15.9830   13.7750 H   0  0  0  0  0  0  0  0  0  0  0  0
   10.7520   14.2190   16.8200 H   0  0  0  0  0  0  0  0  0  0  0  0
   14.4838   14.6986   19.6290 H   0  0  0  0  0  0  0  0  0  0  0  0
   17.1100   15.5980   20.2100 H   0  0  0  0  0  0  0  0  0  0  0  0
  1  2  1  0
  2  3  1  0
  3  4  1  0
  4  5  1  0
  5  6  2  0
  6  7  1  0
  7  8  1  0
  8  9  1  0
  6 10  1  0
 10 11  1  0
 11 12  2  0
 12 13  1  0
 12 14  1  0
 14 15  1  0
 15 16  2  0
 15 17  1  0
 17 18  1  0
 18 19  2  0
 19 20  1  0
 20  3  2  0
 19  5  1  0
 17 10  2  0
  1 21  1  0
  1 22  1  0
  1 23  1  0
  2 24  1  0
  4 25  1  0
  7 26  1  0
  7 27  1  0
  8 28  1  0
  8 29  1  0
  9 30  1  0
  9 31  1  0
  9 32  1  0
 11 33  1  0
 13 34  1  0
 13 35  1  0
 14 36  1  0
 18 37  1  0
 20 38  1  0
M  CHG  3   9   1  11   1  20   1
M  END
>  <meeko>  (6) 
{"is_sidechain": [false], "free_energy": -7.3, "intermolecular_energy": -8.868, "internal_energy": -0.284}

$$$$
3gc5_ligand
     RDKit          3D

 38 40  0  0  0  0  0  0  0  0999 V2000
   12.4870   14.3560   18.2120 C   0  0  0  0  0  0  0  0  0  0  0  0
   13.1800   15.6230   18.4340 N   0  0  0  0  0  0  0  0  0  0  0  0
   14.0420   16.1230   17.5420 C   0  0  0  0  0  0  0  0  0  0  0  0
   15.3320   16.3850   17.7660 N   0  0  0  0  0  0  0  0  0  0  0  0
   15.9450   16.8620   16.6160 C   0  0  0  0  0  0  0  0  0  0  0  0
   17.2760   17.2510   16.3410 C   0  0  0  0  0  0  0  0  0  0  0  0
   18.3080   17.2530   17.4450 C   0  0  0  0  0  0  0  0  0  0  0  0
   17.7490   16.8140   18.8120 C   0  0  0  0  0  0  0  0  0  0  0  0
   18.8400   16.5420   19.7880 N   0  0  0  0  0  0  0  0  0  0  0  0
   17.5150   17.6210   14.9740 C   0  0  0  0  0  0  0  0  0  0  0  0
   18.8420   17.9580   14.5390 N   0  0  0  0  0  0  0  0  0  0  0  0
   19.0850   18.2910   13.2360 C   0  0  0  0  0  0  0  0  0  0  0  0
   20.3320   18.5710   12.8410 N   0  0  0  0  0  0  0  0  0  0  0  0
   18.0880   18.3370   12.3660 N   0  0  0  0  0  0  0  0  0  0  0  0
   16.7530   18.0380   12.6480 C   0  0  0  0  0  0  0  0  0  0  0  0
   15.9030   18.1110   11.7860 O   0  0  0  0  0  0  0  0  0  0  0  0
   16.4560   17.6390   14.0290 C   0  0  0  0  0  0  0  0  0  0  0  0
   15.1350   17.2820   14.3440 C   0  0  0  0  0  0  0  0  0  0  0  0
   14.9300   16.8860   15.6530 C   0  0  0  0  0  0  0  0  0  0  0  0
   13.7940   16.4510   16.2860 N   0  0  0  0  0  0  0  0  0  0  0  0
   12.2375   13.8998   19.1813 H   0  0  0  0  0  0  0  0  0  0  0  0
   11.5629   14.5382   17.6438 H   0  0  0  0  0  0  0  0  0  0  0  0
   13.1389   13.6762   17.6438 H   0  0  0  0  0  0  0  0  0  0  0  0
   13.0080   16.1200   19.2990 H   0  0  0  0  0  0  0  0  0  0  0  0
   15.7630   16.1640   18.6530 H   0  0  0  0  0  0  0  0  0  0  0  0
   19.1194   16.5655   17.1639 H   0  0  0  0  0  0  0  0  0  0  0  0
   18.6585   18.2896   17.5574 H   0  0  0  0  0  0  0  0  0  0  0  0
   17.1064   17.6139   19.2085 H   0  0  0  0  0  0  0  0  0  0  0  0
   17.1767   15.8857   18.6679 H   0  0  0  0  0  0  0  0  0  0  0  0
   18.5510   16.6100   20.7760 H   0  0  0  0  0  0  0  0  0  0  0  0
   19.6050   17.2320   19.6860 H   0  0  0  0  0  0  0  0  0  0  0  0
   19.2950   15.6220   19.6760 H   0  0  0  0  0  0  0  0  0  0  0  0
   19.6520   17.9030   15.1410 H   0  0  0  0  0  0  0  0  0  0  0  0
   21.1560   18.0780   13.1610 H   0  0  0  0  0  0  0  0  0  0  0  0
   20.5150   19.3040   12.1570 H   0  0  0  0  0  0  0  0  0  0  0  0
   18.2640   18.5960   11.4000 H   0  0  0  0  0  0  0  0  0  0  0  0
   14.3223   17.3149   13.6034 H   0  0  0  0  0  0  0  0  0  0  0  0
   12.8800   16.3550   15.8510 H   0  0  0  0  0  0  0  0  0  0  0  0
  1  2  1  0
  2  3  1  0
  3  4  1  0
  4  5  1  0
  5  6  2  0
  6  7  1  0
  7  8  1  0
  8  9  1  0
  6 10  1  0
 10 11  1  0
 11 12  2  0
 12 13  1  0
 12 14  1  0
 14 15  1  0
 15 16  2  0
 15 17  1  0
 17 18  1  0
 18 19  2  0
 19 20  1  0
 20  3  2  0
 19  5  1  0
 17 10  2  0
  1 21  1  0
  1 22  1  0
  1 23  1  0
  2 24  1  0
  4 25  1  0
  7 26  1  0
  7 27  1  0
  8 28  1  0
  8 29  1  0
  9 30  1  0
  9 31  1  0
  9 32  1  0
 11 33  1  0
 13 34  1  0
 13 35  1  0
 14 36  1  0
 18 37  1  0
 20 38  1  0
M  CHG  3   9   1  11   1  20   1
M  END
>  <meeko>  (7) 
{"is_sidechain": [false], "free_energy": -6.376, "intermolecular_energy": -8.691, "internal_energy": 0.679}

$$$$
