2w4x_ligand
     RDKit          3D

 33 33  0  0  0  0  0  0  0  0999 V2000
  -12.2770  -15.5340   10.7620 C   0  0  0  0  0  0  0  0  0  0  0  0
  -11.0040  -15.3480   10.0920 N   0  0  0  0  0  0  0  0  0  0  0  0
  -10.7810  -16.0080    8.7680 N   0  0  0  0  0  0  0  0  0  0  0  0
  -10.7110  -15.2070    7.8300 O   0  0  0  0  0  0  0  0  0  0  0  0
  -10.0420  -14.4940   10.6200 C   0  0  0  0  0  0  0  0  0  0  0  0
   -9.3810  -14.7590   11.6270 O   0  0  0  0  0  0  0  0  0  0  0  0
   -9.8780  -13.2950    9.9630 N   0  0  0  0  0  0  0  0  0  0  0  0
   -8.7920  -12.3630   10.3140 C   0  0  2  0  0  0  0  0  0  0  0  0
   -9.2110  -10.8770   10.2340 C   0  0  1  0  0  0  0  0  0  0  0  0
   -9.6410  -10.4270   11.5290 O   0  0  0  0  0  0  0  0  0  0  0  0
   -8.0680   -9.9720    9.7510 C   0  0  2  0  0  0  0  0  0  0  0  0
   -8.0870   -9.9440    8.3130 O   0  0  0  0  0  0  0  0  0  0  0  0
   -6.6940  -10.4780   10.2290 C   0  0  1  0  0  0  0  0  0  0  0  0
   -6.5160  -10.3150   11.7490 C   0  0  0  0  0  0  0  0  0  0  0  0
   -7.0670   -9.0650   12.1670 O   0  0  0  0  0  0  0  0  0  0  0  0
   -6.4260  -11.8480    9.8610 O   0  0  0  0  0  0  0  0  0  0  0  0
   -7.5490  -12.6020    9.4370 C   0  0  1  0  0  0  0  0  0  0  0  0
   -7.1870  -13.9780    9.5450 O   0  0  0  0  0  0  0  0  0  0  0  0
  -12.1248  -15.5118   11.8512 H   0  0  0  0  0  0  0  0  0  0  0  0
  -12.9656  -14.7269   10.4715 H   0  0  0  0  0  0  0  0  0  0  0  0
  -12.7059  -16.5044   10.4715 H   0  0  0  0  0  0  0  0  0  0  0  0
  -10.0490  -13.3350    8.9620 H   0  0  0  0  0  0  0  0  0  0  0  0
   -8.5464  -12.5751   11.3650 H   0  0  0  0  0  0  0  0  0  0  0  0
  -10.0304  -10.8098    9.5032 H   0  0  0  0  0  0  0  0  0  0  0  0
  -10.6260  -10.4400   11.4970 H   0  0  0  0  0  0  0  0  0  0  0  0
   -8.2187   -8.9664   10.1707 H   0  0  0  0  0  0  0  0  0  0  0  0
   -9.0210   -9.9480    8.0320 H   0  0  0  0  0  0  0  0  0  0  0  0
   -5.9639   -9.8421    9.7070 H   0  0  0  0  0  0  0  0  0  0  0  0
   -7.0343  -11.1349   12.2678 H   0  0  0  0  0  0  0  0  0  0  0  0
   -5.4442  -10.3412   11.9951 H   0  0  0  0  0  0  0  0  0  0  0  0
   -6.8070   -8.9350   13.0940 H   0  0  0  0  0  0  0  0  0  0  0  0
   -7.8083  -12.3009    8.4113 H   0  0  0  0  0  0  0  0  0  0  0  0
   -7.8540  -14.4310    8.9990 H   0  0  0  0  0  0  0  0  0  0  0  0
  1  2  1  0
  2  3  1  0
  3  4  2  0
  2  5  1  0
  5  6  2  0
  5  7  1  0
  7  8  1  0
  8  9  1  0
  9 10  1  0
  9 11  1  0
 11 12  1  0
 11 13  1  0
 13 14  1  0
 14 15  1  0
 13 16  1  0
 16 17  1  0
 17 18  1  0
 17  8  1  0
  1 19  1  0
  1 20  1  0
  1 21  1  0
  7 22  1  0
  8 23  1  1
  9 24  1  6
 10 25  1  0
 11 26  1  1
 12 27  1  0
 13 28  1  6
 14 29  1  0
 14 30  1  0
 15 31  1  0
 17 32  1  6
 18 33  1  0
M  END
>  <meeko>  (1) 
{"is_sidechain": [false], "free_energy": -6.209, "intermolecular_energy": -8.387, "internal_energy": -0.767}

$$$$
2w4x_ligand
     RDKit          3D

 33 33  0  0  0  0  0  0  0  0999 V2000
  -11.3360  -11.9230    5.2660 C   0  0  0  0  0  0  0  0  0  0  0  0
  -10.4390  -12.3550    6.3220 N   0  0  0  0  0  0  0  0  0  0  0  0
   -9.9780  -13.7790    6.3410 N   0  0  0  0  0  0  0  0  0  0  0  0
  -10.7500  -14.5320    6.9430 O   0  0  0  0  0  0  0  0  0  0  0  0
   -9.9360  -11.4440    7.2430 C   0  0  0  0  0  0  0  0  0  0  0  0
  -10.1820  -10.2350    7.2030 O   0  0  0  0  0  0  0  0  0  0  0  0
   -9.1080  -11.9630    8.2130 N   0  0  0  0  0  0  0  0  0  0  0  0
   -8.6310  -11.1450    9.3410 C   0  0  2  0  0  0  0  0  0  0  0  0
   -7.3210  -10.3830    9.0340 C   0  0  1  0  0  0  0  0  0  0  0  0
   -7.6310   -9.0600    8.5680 O   0  0  0  0  0  0  0  0  0  0  0  0
   -6.4070  -10.2730   10.2640 C   0  0  2  0  0  0  0  0  0  0  0  0
   -5.5820  -11.4490   10.3240 O   0  0  0  0  0  0  0  0  0  0  0  0
   -7.2140  -10.1520   11.5700 C   0  0  1  0  0  0  0  0  0  0  0  0
   -7.9410   -8.7990   11.6760 C   0  0  0  0  0  0  0  0  0  0  0  0
   -9.3240   -9.0170   11.9630 O   0  0  0  0  0  0  0  0  0  0  0  0
   -8.1650  -11.2210   11.7590 O   0  0  0  0  0  0  0  0  0  0  0  0
   -8.4510  -12.0000   10.6100 C   0  0  1  0  0  0  0  0  0  0  0  0
   -9.6800  -12.6770   10.8670 O   0  0  0  0  0  0  0  0  0  0  0  0
  -12.2425  -11.4864    5.7107 H   0  0  0  0  0  0  0  0  0  0  0  0
  -10.8330  -11.1684    4.6435 H   0  0  0  0  0  0  0  0  0  0  0  0
  -11.6124  -12.7868    4.6435 H   0  0  0  0  0  0  0  0  0  0  0  0
   -9.3250  -12.9170    8.4860 H   0  0  0  0  0  0  0  0  0  0  0  0
   -9.4129  -10.3907    9.5130 H   0  0  0  0  0  0  0  0  0  0  0  0
   -6.7854  -10.9549    8.2619 H   0  0  0  0  0  0  0  0  0  0  0  0
   -7.3240   -8.4530    9.2810 H   0  0  0  0  0  0  0  0  0  0  0  0
   -5.7959   -9.3639   10.1640 H   0  0  0  0  0  0  0  0  0  0  0  0
   -5.8730  -12.0480    9.6110 H   0  0  0  0  0  0  0  0  0  0  0  0
   -6.4638  -10.2256   12.3711 H   0  0  0  0  0  0  0  0  0  0  0  0
   -7.4894   -8.2034   12.4831 H   0  0  0  0  0  0  0  0  0  0  0  0
   -7.8474   -8.2592   10.7221 H   0  0  0  0  0  0  0  0  0  0  0  0
   -9.5110   -8.5770   12.8090 H   0  0  0  0  0  0  0  0  0  0  0  0
   -7.6084  -12.6835   10.4286 H   0  0  0  0  0  0  0  0  0  0  0  0
   -9.8610  -12.4720   11.8010 H   0  0  0  0  0  0  0  0  0  0  0  0
  1  2  1  0
  2  3  1  0
  3  4  2  0
  2  5  1  0
  5  6  2  0
  5  7  1  0
  7  8  1  0
  8  9  1  0
  9 10  1  0
  9 11  1  0
 11 12  1  0
 11 13  1  0
 13 14  1  0
 14 15  1  0
 13 16  1  0
 16 17  1  0
 17 18  1  0
 17  8  1  0
  1 19  1  0
  1 20  1  0
  1 21  1  0
  7 22  1  0
  8 23  1  1
  9 24  1  6
 10 25  1  0
 11 26  1  6
 12 27  1  0
 13 28  1  1
 14 29  1  0
 14 30  1  0
 15 31  1  0
 17 32  1  6
 18 33  1  0
M  END
>  <meeko>  (2) 
{"is_sidechain": [false], "free_energy": -5.943, "intermolecular_energy": -8.058, "internal_energy": -0.735}

$$$$
2w4x_ligand
     RDKit          3D

 33 33  0  0  0  0  0  0  0  0999 V2000
   -6.7950   -7.9960   10.7580 C   0  0  0  0  0  0  0  0  0  0  0  0
   -7.9210   -8.9020   10.8760 N   0  0  0  0  0  0  0  0  0  0  0  0
   -8.9810   -8.6090   11.8910 N   0  0  0  0  0  0  0  0  0  0  0  0
   -9.3060   -9.6000   12.5540 O   0  0  0  0  0  0  0  0  0  0  0  0
   -8.0670   -9.9700    9.9980 C   0  0  0  0  0  0  0  0  0  0  0  0
   -7.1410  -10.4180    9.3170 O   0  0  0  0  0  0  0  0  0  0  0  0
   -9.3340  -10.5020    9.9030 N   0  0  0  0  0  0  0  0  0  0  0  0
   -9.6010  -11.7300    9.1350 C   0  0  2  0  0  0  0  0  0  0  0  0
   -8.7600  -12.9400    9.6040 C   0  0  1  0  0  0  0  0  0  0  0  0
   -9.5090  -13.7070   10.5590 O   0  0  0  0  0  0  0  0  0  0  0  0
   -8.3570  -13.8580    8.4400 C   0  0  2  0  0  0  0  0  0  0  0  0
   -7.1320  -13.3620    7.8730 O   0  0  0  0  0  0  0  0  0  0  0  0
   -9.4390  -13.9060    7.3450 C   0  0  1  0  0  0  0  0  0  0  0  0
  -10.7060  -14.6410    7.8170 C   0  0  0  0  0  0  0  0  0  0  0  0
  -10.3480  -15.9080    8.3740 O   0  0  0  0  0  0  0  0  0  0  0  0
   -9.8040  -12.6030    6.8410 O   0  0  0  0  0  0  0  0  0  0  0  0
   -9.3880  -11.5000    7.6270 C   0  0  1  0  0  0  0  0  0  0  0  0
  -10.1870  -10.3860    7.2310 O   0  0  0  0  0  0  0  0  0  0  0  0
   -6.4445   -7.7140   11.7618 H   0  0  0  0  0  0  0  0  0  0  0  0
   -5.9801   -8.4931   10.2113 H   0  0  0  0  0  0  0  0  0  0  0  0
   -7.1062   -7.0936   10.2113 H   0  0  0  0  0  0  0  0  0  0  0  0
   -9.8780  -10.4500   10.7590 H   0  0  0  0  0  0  0  0  0  0  0  0
  -10.6566  -11.9753    9.3237 H   0  0  0  0  0  0  0  0  0  0  0  0
   -7.8408  -12.5402   10.0570 H   0  0  0  0  0  0  0  0  0  0  0  0
   -9.9180  -14.4410   10.0430 H   0  0  0  0  0  0  0  0  0  0  0  0
   -8.2304  -14.8790    8.8294 H   0  0  0  0  0  0  0  0  0  0  0  0
   -6.8770  -12.5670    8.3750 H   0  0  0  0  0  0  0  0  0  0  0  0
   -8.9780  -14.4687    6.5198 H   0  0  0  0  0  0  0  0  0  0  0  0
  -11.2162  -14.0365    8.5813 H   0  0  0  0  0  0  0  0  0  0  0  0
  -11.3780  -14.7963    6.9601 H   0  0  0  0  0  0  0  0  0  0  0  0
   -9.5880  -16.2370    7.8650 H   0  0  0  0  0  0  0  0  0  0  0  0
   -8.3114  -11.3403    7.4676 H   0  0  0  0  0  0  0  0  0  0  0  0
  -10.7030  -10.7320    6.4820 H   0  0  0  0  0  0  0  0  0  0  0  0
  1  2  1  0
  2  3  1  0
  3  4  2  0
  2  5  1  0
  5  6  2  0
  5  7  1  0
  7  8  1  0
  8  9  1  0
  9 10  1  0
  9 11  1  0
 11 12  1  0
 11 13  1  0
 13 14  1  0
 14 15  1  0
 13 16  1  0
 16 17  1  0
 17 18  1  0
 17  8  1  0
  1 19  1  0
  1 20  1  0
  1 21  1  0
  7 22  1  0
  8 23  1  6
  9 24  1  1
 10 25  1  0
 11 26  1  1
 12 27  1  0
 13 28  1  6
 14 29  1  0
 14 30  1  0
 15 31  1  0
 17 32  1  1
 18 33  1  0
M  END
>  <meeko>  (3) 
{"is_sidechain": [false], "free_energy": -5.922, "intermolecular_energy": -8.438, "internal_energy": -0.327}

$$$$
2w4x_ligand
     RDKit          3D

 33 33  0  0  0  0  0  0  0  0999 V2000
   -4.5560  -16.0080    8.2610 C   0  0  0  0  0  0  0  0  0  0  0  0
   -5.4160  -14.9020    7.8830 N   0  0  0  0  0  0  0  0  0  0  0  0
   -5.9650  -14.8570    6.4920 N   0  0  0  0  0  0  0  0  0  0  0  0
   -5.0860  -14.8240    5.6230 O   0  0  0  0  0  0  0  0  0  0  0  0
   -5.8040  -13.9530    8.8210 C   0  0  0  0  0  0  0  0  0  0  0  0
   -5.2110  -13.7740    9.8890 O   0  0  0  0  0  0  0  0  0  0  0  0
   -6.9270  -13.2210    8.5060 N   0  0  0  0  0  0  0  0  0  0  0  0
   -7.3610  -12.0790    9.3300 C   0  0  2  0  0  0  0  0  0  0  0  0
   -8.8630  -12.1250    9.6970 C   0  0  1  0  0  0  0  0  0  0  0  0
   -9.0260  -12.7540   10.9780 O   0  0  0  0  0  0  0  0  0  0  0  0
   -9.4950  -10.7270    9.7480 C   0  0  2  0  0  0  0  0  0  0  0  0
   -9.9400  -10.3810    8.4250 O   0  0  0  0  0  0  0  0  0  0  0  0
   -8.4980   -9.6630   10.2420 C   0  0  1  0  0  0  0  0  0  0  0  0
   -8.1580   -9.8390   11.7330 C   0  0  0  0  0  0  0  0  0  0  0  0
   -9.3370  -10.1990   12.4560 O   0  0  0  0  0  0  0  0  0  0  0  0
   -7.2760   -9.6220    9.4760 O   0  0  0  0  0  0  0  0  0  0  0  0
   -7.0350  -10.7410    8.6400 C   0  0  1  0  0  0  0  0  0  0  0  0
   -5.6430  -10.7310    8.3280 O   0  0  0  0  0  0  0  0  0  0  0  0
   -4.5045  -16.0742    9.3578 H   0  0  0  0  0  0  0  0  0  0  0  0
   -4.9648  -16.9454    7.8559 H   0  0  0  0  0  0  0  0  0  0  0  0
   -3.5468  -15.8428    7.8559 H   0  0  0  0  0  0  0  0  0  0  0  0
   -7.0600  -13.0590    7.5130 H   0  0  0  0  0  0  0  0  0  0  0  0
   -6.7939  -12.1570   10.2693 H   0  0  0  0  0  0  0  0  0  0  0  0
   -9.3731  -12.7000    8.9101 H   0  0  0  0  0  0  0  0  0  0  0  0
   -9.2970  -13.6820   10.7820 H   0  0  0  0  0  0  0  0  0  0  0  0
  -10.3357  -10.7506   10.4569 H   0  0  0  0  0  0  0  0  0  0  0  0
   -9.2890   -9.7590    8.0500 H   0  0  0  0  0  0  0  0  0  0  0  0
   -9.0167   -8.7038   10.0978 H   0  0  0  0  0  0  0  0  0  0  0  0
   -7.4038  -10.6319   11.8451 H   0  0  0  0  0  0  0  0  0  0  0  0
   -7.7611   -8.8933   12.1305 H   0  0  0  0  0  0  0  0  0  0  0  0
   -9.1350  -11.0180   12.9390 H   0  0  0  0  0  0  0  0  0  0  0  0
   -7.6792  -10.6627    7.7518 H   0  0  0  0  0  0  0  0  0  0  0  0
   -5.2580  -10.1690    9.0240 H   0  0  0  0  0  0  0  0  0  0  0  0
  1  2  1  0
  2  3  1  0
  3  4  2  0
  2  5  1  0
  5  6  2  0
  5  7  1  0
  7  8  1  0
  8  9  1  0
  9 10  1  0
  9 11  1  0
 11 12  1  0
 11 13  1  0
 13 14  1  0
 14 15  1  0
 13 16  1  0
 16 17  1  0
 17 18  1  0
 17  8  1  0
  1 19  1  0
  1 20  1  0
  1 21  1  0
  7 22  1  0
  8 23  1  1
  9 24  1  6
 10 25  1  0
 11 26  1  1
 12 27  1  0
 13 28  1  1
 14 29  1  0
 14 30  1  0
 15 31  1  0
 17 32  1  6
 18 33  1  0
M  END
>  <meeko>  (4) 
{"is_sidechain": [false], "free_energy": -5.776, "intermolecular_energy": -8.037, "internal_energy": -0.532}

$$$$
2w4x_ligand
     RDKit          3D

 33 33  0  0  0  0  0  0  0  0999 V2000
  -11.1510  -15.3250    9.6950 C   0  0  0  0  0  0  0  0  0  0  0  0
  -10.1540  -14.5630    8.9650 N   0  0  0  0  0  0  0  0  0  0  0  0
  -10.3140  -14.3950    7.4870 N   0  0  0  0  0  0  0  0  0  0  0  0
   -9.3640  -13.8070    6.9590 O   0  0  0  0  0  0  0  0  0  0  0  0
   -9.1220  -13.9190    9.6370 C   0  0  0  0  0  0  0  0  0  0  0  0
   -8.1690  -14.5140   10.1450 O   0  0  0  0  0  0  0  0  0  0  0  0
   -9.2320  -12.5490    9.7340 N   0  0  0  0  0  0  0  0  0  0  0  0
   -8.1400  -11.7230   10.2780 C   0  0  2  0  0  0  0  0  0  0  0  0
   -8.6390  -10.5390   11.1380 C   0  0  1  0  0  0  0  0  0  0  0  0
   -8.6630  -10.9250   12.5220 O   0  0  0  0  0  0  0  0  0  0  0  0
   -7.7530   -9.2930   10.9880 C   0  0  2  0  0  0  0  0  0  0  0  0
   -8.2240   -8.5340    9.8610 O   0  0  0  0  0  0  0  0  0  0  0  0
   -6.2750   -9.6630   10.7680 C   0  0  1  0  0  0  0  0  0  0  0  0
   -5.6380  -10.2720   12.0290 C   0  0  0  0  0  0  0  0  0  0  0  0
   -4.8890   -9.2710   12.7210 O   0  0  0  0  0  0  0  0  0  0  0  0
   -6.0660  -10.5520    9.6500 O   0  0  0  0  0  0  0  0  0  0  0  0
   -7.2250  -11.2010    9.1550 C   0  0  1  0  0  0  0  0  0  0  0  0
   -6.7760  -12.3210    8.3920 O   0  0  0  0  0  0  0  0  0  0  0  0
  -10.9885  -15.2008   10.7758 H   0  0  0  0  0  0  0  0  0  0  0  0
  -12.1554  -14.9622    9.4312 H   0  0  0  0  0  0  0  0  0  0  0  0
  -11.0646  -16.3894    9.4312 H   0  0  0  0  0  0  0  0  0  0  0  0
   -9.7020  -12.1070    8.9490 H   0  0  0  0  0  0  0  0  0  0  0  0
   -7.5663  -12.3877   10.9405 H   0  0  0  0  0  0  0  0  0  0  0  0
   -9.6488  -10.2835   10.7843 H   0  0  0  0  0  0  0  0  0  0  0  0
   -9.4010  -10.4090   12.9240 H   0  0  0  0  0  0  0  0  0  0  0  0
   -7.8156   -8.7065   11.9165 H   0  0  0  0  0  0  0  0  0  0  0  0
   -8.4070   -9.1620    9.1390 H   0  0  0  0  0  0  0  0  0  0  0  0
   -5.7788   -8.7092   10.5354 H   0  0  0  0  0  0  0  0  0  0  0  0
   -6.4292  -10.6580   12.6885 H   0  0  0  0  0  0  0  0  0  0  0  0
   -4.9668  -11.0934   11.7379 H   0  0  0  0  0  0  0  0  0  0  0  0
   -5.5270   -8.7310   13.2160 H   0  0  0  0  0  0  0  0  0  0  0  0
   -7.8084  -10.4789    8.5648 H   0  0  0  0  0  0  0  0  0  0  0  0
   -6.1530  -12.7690    8.9920 H   0  0  0  0  0  0  0  0  0  0  0  0
  1  2  1  0
  2  3  1  0
  3  4  2  0
  2  5  1  0
  5  6  2  0
  5  7  1  0
  7  8  1  0
  8  9  1  0
  9 10  1  0
  9 11  1  0
 11 12  1  0
 11 13  1  0
 13 14  1  0
 14 15  1  0
 13 16  1  0
 16 17  1  0
 17 18  1  0
 17  8  1  0
  1 19  1  0
  1 20  1  0
  1 21  1  0
  7 22  1  0
  8 23  1  1
  9 24  1  6
 10 25  1  0
 11 26  1  1
 12 27  1  0
 13 28  1  6
 14 29  1  0
 14 30  1  0
 15 31  1  0
 17 32  1  6
 18 33  1  0
M  END
>  <meeko>  (5) 
{"is_sidechain": [false], "free_energy": -5.736, "intermolecular_energy": -7.825, "internal_energy": -0.69}

$$$$
2w4x_ligand
     RDKit          3D

 33 33  0  0  0  0  0  0  0  0999 V2000
  -10.6990  -12.7360    6.0650 C   0  0  0  0  0  0  0  0  0  0  0  0
   -9.6880  -12.7180    7.1050 N   0  0  0  0  0  0  0  0  0  0  0  0
   -8.9960  -13.9960    7.4620 N   0  0  0  0  0  0  0  0  0  0  0  0
   -7.7680  -13.9330    7.3410 O   0  0  0  0  0  0  0  0  0  0  0  0
   -9.2970  -11.5210    7.6940 C   0  0  0  0  0  0  0  0  0  0  0  0
   -9.6470  -10.4140    7.2760 O   0  0  0  0  0  0  0  0  0  0  0  0
   -8.4570  -11.6310    8.7800 N   0  0  0  0  0  0  0  0  0  0  0  0
   -8.0890  -10.4600    9.5950 C   0  0  2  0  0  0  0  0  0  0  0  0
   -6.6580  -10.5440   10.1750 C   0  0  1  0  0  0  0  0  0  0  0  0
   -5.7420   -9.8710    9.2970 O   0  0  0  0  0  0  0  0  0  0  0  0
   -6.5560   -9.9140   11.5720 C   0  0  2  0  0  0  0  0  0  0  0  0
   -6.8940  -10.9150   12.5480 O   0  0  0  0  0  0  0  0  0  0  0  0
   -7.5040   -8.7110   11.7300 C   0  0  1  0  0  0  0  0  0  0  0  0
   -7.0580   -7.5080   10.8800 C   0  0  0  0  0  0  0  0  0  0  0  0
   -5.6370   -7.3700   10.9490 O   0  0  0  0  0  0  0  0  0  0  0  0
   -8.8810   -9.0220   11.4300 O   0  0  0  0  0  0  0  0  0  0  0  0
   -9.1010  -10.2370   10.7340 C   0  0  1  0  0  0  0  0  0  0  0  0
  -10.4040  -10.1540   10.1600 O   0  0  0  0  0  0  0  0  0  0  0  0
  -11.6980  -12.7538    6.5251 H   0  0  0  0  0  0  0  0  0  0  0  0
  -10.5988  -11.8359    5.4406 H   0  0  0  0  0  0  0  0  0  0  0  0
  -10.5668  -13.6319    5.4406 H   0  0  0  0  0  0  0  0  0  0  0  0
   -8.5970  -12.4680    9.3390 H   0  0  0  0  0  0  0  0  0  0  0  0
   -8.1115   -9.6001    8.9093 H   0  0  0  0  0  0  0  0  0  0  0  0
   -6.4050  -11.6109   10.2628 H   0  0  0  0  0  0  0  0  0  0  0  0
   -6.3020   -9.2980    8.7230 H   0  0  0  0  0  0  0  0  0  0  0  0
   -5.5280   -9.5499   11.7159 H   0  0  0  0  0  0  0  0  0  0  0  0
   -7.8530  -11.0780   12.4800 H   0  0  0  0  0  0  0  0  0  0  0  0
   -7.4439   -8.4453   12.7957 H   0  0  0  0  0  0  0  0  0  0  0  0
   -7.3596   -7.6673    9.8342 H   0  0  0  0  0  0  0  0  0  0  0  0
   -7.5321   -6.5935   11.2659 H   0  0  0  0  0  0  0  0  0  0  0  0
   -5.2580   -8.2500   10.7850 H   0  0  0  0  0  0  0  0  0  0  0  0
   -8.9912  -11.0730   11.4404 H   0  0  0  0  0  0  0  0  0  0  0  0
  -10.4610   -9.2300    9.8590 H   0  0  0  0  0  0  0  0  0  0  0  0
  1  2  1  0
  2  3  1  0
  3  4  2  0
  2  5  1  0
  5  6  2  0
  5  7  1  0
  7  8  1  0
  8  9  1  0
  9 10  1  0
  9 11  1  0
 11 12  1  0
 11 13  1  0
 13 14  1  0
 14 15  1  0
 13 16  1  0
 16 17  1  0
 17 18  1  0
 17  8  1  0
  1 19  1  0
  1 20  1  0
  1 21  1  0
  7 22  1  0
  8 23  1  6
  9 24  1  1
 10 25  1  0
 11 26  1  1
 12 27  1  0
 13 28  1  1
 14 29  1  0
 14 30  1  0
 15 31  1  0
 17 32  1  1
 18 33  1  0
M  END
>  <meeko>  (6) 
{"is_sidechain": [false], "free_energy": -5.665, "intermolecular_energy": -7.735, "internal_energy": -0.684}

$$$$
2w4x_ligand
     RDKit          3D

 33 33  0  0  0  0  0  0  0  0999 V2000
   -9.4280  -13.5860    7.4210 C   0  0  0  0  0  0  0  0  0  0  0  0
   -9.0840  -12.2440    7.8540 N   0  0  0  0  0  0  0  0  0  0  0  0
   -9.7570  -11.0790    7.1980 N   0  0  0  0  0  0  0  0  0  0  0  0
  -10.0560  -10.1810    7.9910 O   0  0  0  0  0  0  0  0  0  0  0  0
   -8.2210  -12.0440    8.9240 C   0  0  0  0  0  0  0  0  0  0  0  0
   -8.2090  -12.7600    9.9280 O   0  0  0  0  0  0  0  0  0  0  0  0
   -7.3740  -10.9620    8.8190 N   0  0  0  0  0  0  0  0  0  0  0  0
   -6.3030  -10.7210    9.8010 C   0  0  2  0  0  0  0  0  0  0  0  0
   -6.7250   -9.7690   10.9450 C   0  0  1  0  0  0  0  0  0  0  0  0
   -7.1960  -10.5380   12.0630 O   0  0  0  0  0  0  0  0  0  0  0  0
   -5.5710   -8.8710   11.4140 C   0  0  2  0  0  0  0  0  0  0  0  0
   -5.5470   -7.6940   10.5880 O   0  0  0  0  0  0  0  0  0  0  0  0
   -4.2110   -9.5860   11.3170 C   0  0  1  0  0  0  0  0  0  0  0  0
   -4.0800  -10.7200   12.3490 C   0  0  0  0  0  0  0  0  0  0  0  0
   -4.4860  -10.2500   13.6350 O   0  0  0  0  0  0  0  0  0  0  0  0
   -3.9270  -10.1040   10.0000 O   0  0  0  0  0  0  0  0  0  0  0  0
   -5.0330  -10.1810    9.1170 C   0  0  1  0  0  0  0  0  0  0  0  0
   -4.6700  -11.0890    8.0780 O   0  0  0  0  0  0  0  0  0  0  0  0
   -9.5917  -14.2247    8.3015 H   0  0  0  0  0  0  0  0  0  0  0  0
  -10.3465  -13.5522    6.8167 H   0  0  0  0  0  0  0  0  0  0  0  0
   -8.6065  -13.9982    6.8167 H   0  0  0  0  0  0  0  0  0  0  0  0
   -7.0910  -10.7380    7.8700 H   0  0  0  0  0  0  0  0  0  0  0  0
   -6.0890  -11.7002   10.2541 H   0  0  0  0  0  0  0  0  0  0  0  0
   -7.5220   -9.1212   10.5510 H   0  0  0  0  0  0  0  0  0  0  0  0
   -8.1010  -10.8370   11.8130 H   0  0  0  0  0  0  0  0  0  0  0  0
   -5.7374   -8.6125   12.4702 H   0  0  0  0  0  0  0  0  0  0  0  0
   -5.4580   -7.9860    9.6620 H   0  0  0  0  0  0  0  0  0  0  0  0
   -3.4677   -8.8058   11.5379 H   0  0  0  0  0  0  0  0  0  0  0  0
   -4.7198  -11.5630   12.0491 H   0  0  0  0  0  0  0  0  0  0  0  0
   -3.0318  -11.0502   12.3962 H   0  0  0  0  0  0  0  0  0  0  0  0
   -3.7290   -9.7740   14.0160 H   0  0  0  0  0  0  0  0  0  0  0  0
   -5.2610   -9.1696    8.7495 H   0  0  0  0  0  0  0  0  0  0  0  0
   -5.3500  -11.7830    8.1350 H   0  0  0  0  0  0  0  0  0  0  0  0
  1  2  1  0
  2  3  1  0
  3  4  2  0
  2  5  1  0
  5  6  2  0
  5  7  1  0
  7  8  1  0
  8  9  1  0
  9 10  1  0
  9 11  1  0
 11 12  1  0
 11 13  1  0
 13 14  1  0
 14 15  1  0
 13 16  1  0
 16 17  1  0
 17 18  1  0
 17  8  1  0
  1 19  1  0
  1 20  1  0
  1 21  1  0
  7 22  1  0
  8 23  1  1
  9 24  1  6
 10 25  1  0
 11 26  1  1
 12 27  1  0
 13 28  1  1
 14 29  1  0
 14 30  1  0
 15 31  1  0
 17 32  1  6
 18 33  1  0
M  END
>  <meeko>  (7) 
{"is_sidechain": [false], "free_energy": -5.504, "intermolecular_energy": -7.254, "internal_energy": -0.947}

$$$$
2w4x_ligand
     RDKit          3D

 33 33  0  0  0  0  0  0  0  0999 V2000
   -4.7730   -8.9230   11.9490 C   0  0  0  0  0  0  0  0  0  0  0  0
   -6.1790   -8.8250   11.6070 N   0  0  0  0  0  0  0  0  0  0  0  0
   -6.8670   -7.5040   11.7520 N   0  0  0  0  0  0  0  0  0  0  0  0
   -8.0730   -7.5520   11.4850 O   0  0  0  0  0  0  0  0  0  0  0  0
   -6.8550   -9.9110   11.0630 C   0  0  0  0  0  0  0  0  0  0  0  0
   -7.3420  -10.8170   11.7450 O   0  0  0  0  0  0  0  0  0  0  0  0
   -6.9330   -9.9430    9.6890 N   0  0  0  0  0  0  0  0  0  0  0  0
   -7.7490  -10.9470    8.9840 C   0  0  2  0  0  0  0  0  0  0  0  0
   -9.1770  -11.0880    9.5600 C   0  0  1  0  0  0  0  0  0  0  0  0
  -10.0790  -10.2450    8.8250 O   0  0  0  0  0  0  0  0  0  0  0  0
   -9.6920  -12.5340    9.5000 C   0  0  2  0  0  0  0  0  0  0  0  0
   -9.2610  -13.2190   10.6890 O   0  0  0  0  0  0  0  0  0  0  0  0
   -9.1610  -13.2810    8.2630 C   0  0  1  0  0  0  0  0  0  0  0  0
   -9.7730  -12.7440    6.9570 C   0  0  0  0  0  0  0  0  0  0  0  0
  -10.1030  -13.8350    6.0950 O   0  0  0  0  0  0  0  0  0  0  0  0
   -7.7220  -13.2670    8.1570 O   0  0  0  0  0  0  0  0  0  0  0  0
   -7.0540  -12.3210    8.9750 C   0  0  1  0  0  0  0  0  0  0  0  0
   -5.7470  -12.1530    8.4280 O   0  0  0  0  0  0  0  0  0  0  0  0
   -4.6615   -8.9308   13.0433 H   0  0  0  0  0  0  0  0  0  0  0  0
   -4.3580   -9.8523   11.5315 H   0  0  0  0  0  0  0  0  0  0  0  0
   -4.2331   -8.0603   11.5315 H   0  0  0  0  0  0  0  0  0  0  0  0
   -6.9700   -9.0300    9.2470 H   0  0  0  0  0  0  0  0  0  0  0  0
   -7.8487  -10.5783    7.9524 H   0  0  0  0  0  0  0  0  0  0  0  0
   -9.1318  -10.7864   10.6169 H   0  0  0  0  0  0  0  0  0  0  0  0
  -10.8740  -10.1480    9.3990 H   0  0  0  0  0  0  0  0  0  0  0  0
  -10.7896  -12.5114    9.4303 H   0  0  0  0  0  0  0  0  0  0  0  0
   -9.8080  -12.8960   11.4290 H   0  0  0  0  0  0  0  0  0  0  0  0
   -9.4760  -14.3247    8.4096 H   0  0  0  0  0  0  0  0  0  0  0  0
  -10.6839  -12.1723    7.1881 H   0  0  0  0  0  0  0  0  0  0  0  0
   -9.0441  -12.0908    6.4549 H   0  0  0  0  0  0  0  0  0  0  0  0
  -10.5660  -14.4950    6.6370 H   0  0  0  0  0  0  0  0  0  0  0  0
   -7.0470  -12.6929   10.0102 H   0  0  0  0  0  0  0  0  0  0  0  0
   -5.3900  -11.3940    8.9220 H   0  0  0  0  0  0  0  0  0  0  0  0
  1  2  1  0
  2  3  1  0
  3  4  2  0
  2  5  1  0
  5  6  2  0
  5  7  1  0
  7  8  1  0
  8  9  1  0
  9 10  1  0
  9 11  1  0
 11 12  1  0
 11 13  1  0
 13 14  1  0
 14 15  1  0
 13 16  1  0
 16 17  1  0
 17 18  1  0
 17  8  1  0
  1 19  1  0
  1 20  1  0
  1 21  1  0
  7 22  1  0
  8 23  1  6
  9 24  1  1
 10 25  1  0
 11 26  1  6
 12 27  1  0
 13 28  1  1
 14 29  1  0
 14 30  1  0
 15 31  1  0
 17 32  1  1
 18 33  1  0
M  END
>  <meeko>  (8) 
{"is_sidechain": [false], "free_energy": -5.281, "intermolecular_energy": -7.739, "internal_energy": -0.161}

$$$$
2w4x_ligand
     RDKit          3D

 33 33  0  0  0  0  0  0  0  0999 V2000
  -10.0670  -14.5060    8.7230 C   0  0  0  0  0  0  0  0  0  0  0  0
   -8.8970  -14.5810    9.5780 N   0  0  0  0  0  0  0  0  0  0  0  0
   -8.5420  -15.8940   10.2040 N   0  0  0  0  0  0  0  0  0  0  0  0
   -8.9570  -16.0080   11.3620 O   0  0  0  0  0  0  0  0  0  0  0  0
   -8.0620  -13.4810    9.7370 C   0  0  0  0  0  0  0  0  0  0  0  0
   -6.8650  -13.4910    9.4400 O   0  0  0  0  0  0  0  0  0  0  0  0
   -8.6450  -12.3580   10.2800 N   0  0  0  0  0  0  0  0  0  0  0  0
   -7.9250  -11.0750   10.3610 C   0  0  2  0  0  0  0  0  0  0  0  0
   -7.9060  -10.4720   11.7850 C   0  0  1  0  0  0  0  0  0  0  0  0
   -6.7030  -10.8720   12.4610 O   0  0  0  0  0  0  0  0  0  0  0  0
   -7.9790   -8.9380   11.7710 C   0  0  2  0  0  0  0  0  0  0  0  0
   -9.3630   -8.5500   11.7410 O   0  0  0  0  0  0  0  0  0  0  0  0
   -7.2580   -8.3400   10.5490 C   0  0  1  0  0  0  0  0  0  0  0  0
   -5.7310   -8.5170   10.6360 C   0  0  0  0  0  0  0  0  0  0  0  0
   -5.2830   -8.1890   11.9520 O   0  0  0  0  0  0  0  0  0  0  0  0
   -7.7280   -8.8650    9.2900 O   0  0  0  0  0  0  0  0  0  0  0  0
   -8.5040  -10.0500    9.3690 C   0  0  1  0  0  0  0  0  0  0  0  0
   -8.4950  -10.6360    8.0680 O   0  0  0  0  0  0  0  0  0  0  0  0
  -10.9725  -14.4480    9.3449 H   0  0  0  0  0  0  0  0  0  0  0  0
  -10.0003  -13.6103    8.0880 H   0  0  0  0  0  0  0  0  0  0  0  0
  -10.1152  -15.4029    8.0880 H   0  0  0  0  0  0  0  0  0  0  0  0
   -9.6270  -12.2400   10.0530 H   0  0  0  0  0  0  0  0  0  0  0  0
   -6.8831  -11.3011   10.0904 H   0  0  0  0  0  0  0  0  0  0  0  0
   -8.7954  -10.8501   12.3105 H   0  0  0  0  0  0  0  0  0  0  0  0
   -6.3590  -11.6430   11.9510 H   0  0  0  0  0  0  0  0  0  0  0  0
   -7.4784   -8.5565   12.6732 H   0  0  0  0  0  0  0  0  0  0  0  0
   -9.7710   -8.9760   10.9650 H   0  0  0  0  0  0  0  0  0  0  0  0
   -7.5025   -7.2679   10.5768 H   0  0  0  0  0  0  0  0  0  0  0  0
   -5.4705   -9.5617   10.4107 H   0  0  0  0  0  0  0  0  0  0  0  0
   -5.2448   -7.8502    9.9087 H   0  0  0  0  0  0  0  0  0  0  0  0
   -6.0680   -8.1710   12.5240 H   0  0  0  0  0  0  0  0  0  0  0  0
   -9.5131   -9.7881    9.7198 H   0  0  0  0  0  0  0  0  0  0  0  0
   -9.2110  -10.1680    7.6030 H   0  0  0  0  0  0  0  0  0  0  0  0
  1  2  1  0
  2  3  1  0
  3  4  2  0
  2  5  1  0
  5  6  2  0
  5  7  1  0
  7  8  1  0
  8  9  1  0
  9 10  1  0
  9 11  1  0
 11 12  1  0
 11 13  1  0
 13 14  1  0
 14 15  1  0
 13 16  1  0
 16 17  1  0
 17 18  1  0
 17  8  1  0
  1 19  1  0
  1 20  1  0
  1 21  1  0
  7 22  1  0
  8 23  1  6
  9 24  1  1
 10 25  1  0
 11 26  1  1
 12 27  1  0
 13 28  1  6
 14 29  1  0
 14 30  1  0
 15 31  1  0
 17 32  1  1
 18 33  1  0
M  END
>  <meeko>  (9) 
{"is_sidechain": [false], "free_energy": -5.275, "intermolecular_energy": -7.295, "internal_energy": -0.597}

$$$$
