4owm_ligand
     RDKit          3D

 16 16  0  0  0  0  0  0  0  0999 V2000
  -16.6000  -35.4510   15.8840 N   0  0  0  0  0  0  0  0  0  0  0  0
  -17.4230  -34.3660   16.2730 C   0  0  0  0  0  0  0  0  0  0  0  0
  -17.4960  -33.2280   15.4520 C   0  0  0  0  0  0  0  0  0  0  0  0
  -16.6780  -33.1170   14.3900 F   0  0  0  0  0  0  0  0  0  0  0  0
  -18.3900  -32.1920   15.7050 C   0  0  0  0  0  0  0  0  0  0  0  0
  -19.2590  -32.2880   16.7860 C   0  0  0  0  0  0  0  0  0  0  0  0
  -19.2200  -33.4200   17.6020 C   0  0  0  0  0  0  0  0  0  0  0  0
  -18.3120  -34.4760   17.3620 C   0  0  0  0  0  0  0  0  0  0  0  0
  -18.2850  -35.6570   18.3170 C   0  0  0  0  0  0  0  0  0  0  0  0
  -18.4490  -35.4100   19.5570 O   0  0  0  0  0  0  0  0  0  0  0  0
  -18.1300  -36.8130   17.8090 O   0  0  0  0  0  0  0  0  0  0  0  0
  -15.7940  -35.1520   15.3520 H   0  0  0  0  0  0  0  0  0  0  0  0
  -16.3410  -35.9790   16.7430 H   0  0  0  0  0  0  0  0  0  0  0  0
  -18.4090  -31.3046   15.0552 H   0  0  0  0  0  0  0  0  0  0  0  0
  -19.9723  -31.4776   16.9968 H   0  0  0  0  0  0  0  0  0  0  0  0
  -19.9133  -33.4918   18.4530 H   0  0  0  0  0  0  0  0  0  0  0  0
  1  2  1  0
  2  3  2  0
  3  4  1  0
  3  5  1  0
  5  6  2  0
  6  7  1  0
  7  8  2  0
  8  9  1  0
  9 10  2  0
  9 11  1  0
  8  2  1  0
  1 12  1  0
  1 13  1  0
  5 14  1  0
  6 15  1  0
  7 16  1  0
M  CHG  1  11  -1
M  END
>  <meeko>  (1) 
{"is_sidechain": [false], "free_energy": -5.455, "intermolecular_energy": -5.933, "internal_energy": -0.226}

$$$$
4owm_ligand
     RDKit          3D

 16 16  0  0  0  0  0  0  0  0999 V2000
  -18.7820  -34.9570   18.0930 N   0  0  0  0  0  0  0  0  0  0  0  0
  -18.3440  -34.0250   17.1200 C   0  0  0  0  0  0  0  0  0  0  0  0
  -17.3730  -34.4150   16.1810 C   0  0  0  0  0  0  0  0  0  0  0  0
  -16.7650  -35.6070   16.3050 F   0  0  0  0  0  0  0  0  0  0  0  0
  -17.0060  -33.5960   15.1170 C   0  0  0  0  0  0  0  0  0  0  0  0
  -17.6310  -32.3640   14.9550 C   0  0  0  0  0  0  0  0  0  0  0  0
  -18.6140  -31.9670   15.8640 C   0  0  0  0  0  0  0  0  0  0  0  0
  -18.9920  -32.7840   16.9530 C   0  0  0  0  0  0  0  0  0  0  0  0
  -20.0330  -32.2720   17.9330 C   0  0  0  0  0  0  0  0  0  0  0  0
  -21.2480  -32.2640   17.5450 O   0  0  0  0  0  0  0  0  0  0  0  0
  -19.6230  -31.9130   19.0820 O   0  0  0  0  0  0  0  0  0  0  0  0
  -18.8110  -35.9020   17.7350 H   0  0  0  0  0  0  0  0  0  0  0  0
  -18.1660  -34.8610   18.9270 H   0  0  0  0  0  0  0  0  0  0  0  0
  -16.2281  -33.9204   14.4101 H   0  0  0  0  0  0  0  0  0  0  0  0
  -17.3531  -31.7074   14.1173 H   0  0  0  0  0  0  0  0  0  0  0  0
  -19.1068  -30.9929   15.7287 H   0  0  0  0  0  0  0  0  0  0  0  0
  1  2  1  0
  2  3  2  0
  3  4  1  0
  3  5  1  0
  5  6  2  0
  6  7  1  0
  7  8  2  0
  8  9  1  0
  9 10  2  0
  9 11  1  0
  8  2  1  0
  1 12  1  0
  1 13  1  0
  5 14  1  0
  6 15  1  0
  7 16  1  0
M  CHG  1  11  -1
M  END
>  <meeko>  (2) 
{"is_sidechain": [false], "free_energy": -5.373, "intermolecular_energy": -5.851, "internal_energy": -0.219}

$$$$
4owm_ligand
     RDKit          3D

 16 16  0  0  0  0  0  0  0  0999 V2000
  -18.3680  -31.3210   15.7170 N   0  0  0  0  0  0  0  0  0  0  0  0
  -18.2520  -32.6800   16.1010 C   0  0  0  0  0  0  0  0  0  0  0  0
  -17.2940  -33.4940   15.4720 C   0  0  0  0  0  0  0  0  0  0  0  0
  -16.6040  -33.0220   14.4190 F   0  0  0  0  0  0  0  0  0  0  0  0
  -17.0350  -34.7930   15.9000 C   0  0  0  0  0  0  0  0  0  0  0  0
  -17.7210  -35.3010   16.9970 C   0  0  0  0  0  0  0  0  0  0  0  0
  -18.6620  -34.5010   17.6510 C   0  0  0  0  0  0  0  0  0  0  0  0
  -18.9410  -33.1840   17.2240 C   0  0  0  0  0  0  0  0  0  0  0  0
  -20.0110  -32.3840   17.9470 C   0  0  0  0  0  0  0  0  0  0  0  0
  -19.6970  -31.8740   19.0730 O   0  0  0  0  0  0  0  0  0  0  0  0
  -21.1350  -32.2570   17.3660 O   0  0  0  0  0  0  0  0  0  0  0  0
  -17.4690  -30.8900   15.5510 H   0  0  0  0  0  0  0  0  0  0  0  0
  -18.9950  -31.2770   14.8870 H   0  0  0  0  0  0  0  0  0  0  0  0
  -16.2934  -35.4125   15.3743 H   0  0  0  0  0  0  0  0  0  0  0  0
  -17.5247  -36.3249   17.3477 H   0  0  0  0  0  0  0  0  0  0  0  0
  -19.1991  -34.9075   18.5206 H   0  0  0  0  0  0  0  0  0  0  0  0
  1  2  1  0
  2  3  2  0
  3  4  1  0
  3  5  1  0
  5  6  2  0
  6  7  1  0
  7  8  2  0
  8  9  1  0
  9 10  2  0
  9 11  1  0
  8  2  1  0
  1 12  1  0
  1 13  1  0
  5 14  1  0
  6 15  1  0
  7 16  1  0
M  CHG  1  11  -1
M  END
>  <meeko>  (3) 
{"is_sidechain": [false], "free_energy": -5.24, "intermolecular_energy": -5.726, "internal_energy": -0.199}

$$$$
4owm_ligand
     RDKit          3D

 16 16  0  0  0  0  0  0  0  0999 V2000
  -16.9340  -33.3650   14.6200 N   0  0  0  0  0  0  0  0  0  0  0  0
  -17.7190  -33.3470   15.7980 C   0  0  0  0  0  0  0  0  0  0  0  0
  -18.3450  -32.1500   16.1900 C   0  0  0  0  0  0  0  0  0  0  0  0
  -18.0760  -31.0090   15.5330 F   0  0  0  0  0  0  0  0  0  0  0  0
  -19.2410  -32.1010   17.2550 C   0  0  0  0  0  0  0  0  0  0  0  0
  -19.5500  -33.2700   17.9420 C   0  0  0  0  0  0  0  0  0  0  0  0
  -18.9570  -34.4730   17.5560 C   0  0  0  0  0  0  0  0  0  0  0  0
  -18.0410  -34.5380   16.4810 C   0  0  0  0  0  0  0  0  0  0  0  0
  -17.3930  -35.8690   16.1430 C   0  0  0  0  0  0  0  0  0  0  0  0
  -16.1280  -35.8780   15.9790 O   0  0  0  0  0  0  0  0  0  0  0  0
  -18.1540  -36.8860   16.0750 O   0  0  0  0  0  0  0  0  0  0  0  0
  -16.8450  -32.4480   14.2020 H   0  0  0  0  0  0  0  0  0  0  0  0
  -16.0140  -33.7910   14.8560 H   0  0  0  0  0  0  0  0  0  0  0  0
  -19.7003  -31.1461   17.5502 H   0  0  0  0  0  0  0  0  0  0  0  0
  -20.2572  -33.2466   18.7842 H   0  0  0  0  0  0  0  0  0  0  0  0
  -19.2087  -35.3941   18.1021 H   0  0  0  0  0  0  0  0  0  0  0  0
  1  2  1  0
  2  3  2  0
  3  4  1  0
  3  5  1  0
  5  6  2  0
  6  7  1  0
  7  8  2  0
  8  9  1  0
  9 10  2  0
  9 11  1  0
  8  2  1  0
  1 12  1  0
  1 13  1  0
  5 14  1  0
  6 15  1  0
  7 16  1  0
M  CHG  1  11  -1
M  END
>  <meeko>  (4) 
{"is_sidechain": [false], "free_energy": -5.225, "intermolecular_energy": -5.644, "internal_energy": -0.265}

$$$$
4owm_ligand
     RDKit          3D

 16 16  0  0  0  0  0  0  0  0999 V2000
  -19.9900  -32.5180   17.6220 N   0  0  0  0  0  0  0  0  0  0  0  0
  -18.9920  -33.2990   16.9900 C   0  0  0  0  0  0  0  0  0  0  0  0
  -18.2830  -32.7630   15.9010 C   0  0  0  0  0  0  0  0  0  0  0  0
  -18.6560  -31.5820   15.3780 F   0  0  0  0  0  0  0  0  0  0  0  0
  -17.1980  -33.4230   15.3300 C   0  0  0  0  0  0  0  0  0  0  0  0
  -16.7800  -34.6380   15.8610 C   0  0  0  0  0  0  0  0  0  0  0  0
  -17.4560  -35.1780   16.9570 C   0  0  0  0  0  0  0  0  0  0  0  0
  -18.5630  -34.5240   17.5430 C   0  0  0  0  0  0  0  0  0  0  0  0
  -19.2850  -35.1890   18.7020 C   0  0  0  0  0  0  0  0  0  0  0  0
  -18.5820  -35.5250   19.7120 O   0  0  0  0  0  0  0  0  0  0  0  0
  -20.5430  -35.3380   18.5950 O   0  0  0  0  0  0  0  0  0  0  0  0
  -20.8240  -33.0510   17.8270 H   0  0  0  0  0  0  0  0  0  0  0  0
  -19.5680  -32.0880   18.4700 H   0  0  0  0  0  0  0  0  0  0  0  0
  -16.6758  -32.9866   14.4658 H   0  0  0  0  0  0  0  0  0  0  0  0
  -15.9234  -35.1698   15.4212 H   0  0  0  0  0  0  0  0  0  0  0  0
  -17.1179  -36.1376   17.3751 H   0  0  0  0  0  0  0  0  0  0  0  0
  1  2  1  0
  2  3  2  0
  3  4  1  0
  3  5  1  0
  5  6  2  0
  6  7  1  0
  7  8  2  0
  8  9  1  0
  9 10  2  0
  9 11  1  0
  8  2  1  0
  1 12  1  0
  1 13  1  0
  5 14  1  0
  6 15  1  0
  7 16  1  0
M  CHG  1  11  -1
M  END
>  <meeko>  (5) 
{"is_sidechain": [false], "free_energy": -5.127, "intermolecular_energy": -5.531, "internal_energy": -0.272}

$$$$
4owm_ligand
     RDKit          3D

 16 16  0  0  0  0  0  0  0  0999 V2000
  -16.7370  -33.6550   15.1570 N   0  0  0  0  0  0  0  0  0  0  0  0
  -17.5850  -34.3370   16.0640 C   0  0  0  0  0  0  0  0  0  0  0  0
  -17.3340  -35.6880   16.3590 C   0  0  0  0  0  0  0  0  0  0  0  0
  -16.3910  -36.3580   15.6730 F   0  0  0  0  0  0  0  0  0  0  0  0
  -18.0410  -36.3720   17.3450 C   0  0  0  0  0  0  0  0  0  0  0  0
  -19.0090  -35.7000   18.0810 C   0  0  0  0  0  0  0  0  0  0  0  0
  -19.2600  -34.3500   17.8200 C   0  0  0  0  0  0  0  0  0  0  0  0
  -18.5550  -33.6450   16.8190 C   0  0  0  0  0  0  0  0  0  0  0  0
  -18.9100  -32.1930   16.5510 C   0  0  0  0  0  0  0  0  0  0  0  0
  -18.8430  -31.7890   15.3430 O   0  0  0  0  0  0  0  0  0  0  0  0
  -19.2760  -31.4900   17.5460 O   0  0  0  0  0  0  0  0  0  0  0  0
  -17.1790  -32.8390   14.7560 H   0  0  0  0  0  0  0  0  0  0  0  0
  -15.8520  -33.4290   15.6570 H   0  0  0  0  0  0  0  0  0  0  0  0
  -17.8348  -37.4349   17.5393 H   0  0  0  0  0  0  0  0  0  0  0  0
  -19.5741  -36.2269   18.8639 H   0  0  0  0  0  0  0  0  0  0  0  0
  -20.0256  -33.8233   18.4087 H   0  0  0  0  0  0  0  0  0  0  0  0
  1  2  1  0
  2  3  2  0
  3  4  1  0
  3  5  1  0
  5  6  2  0
  6  7  1  0
  7  8  2  0
  8  9  1  0
  9 10  2  0
  9 11  1  0
  8  2  1  0
  1 12  1  0
  1 13  1  0
  5 14  1  0
  6 15  1  0
  7 16  1  0
M  CHG  1  11  -1
M  END
>  <meeko>  (6) 
{"is_sidechain": [false], "free_energy": -5.109, "intermolecular_energy": -5.552, "internal_energy": -0.231}

$$$$
4owm_ligand
     RDKit          3D

 16 16  0  0  0  0  0  0  0  0999 V2000
  -19.1340  -34.4310   18.2940 N   0  0  0  0  0  0  0  0  0  0  0  0
  -18.6800  -33.7850   17.1180 C   0  0  0  0  0  0  0  0  0  0  0  0
  -18.9420  -32.4150   16.9400 C   0  0  0  0  0  0  0  0  0  0  0  0
  -19.7420  -31.7690   17.8060 F   0  0  0  0  0  0  0  0  0  0  0  0
  -18.4020  -31.6930   15.8790 C   0  0  0  0  0  0  0  0  0  0  0  0
  -17.5580  -32.3310   14.9770 C   0  0  0  0  0  0  0  0  0  0  0  0
  -17.2660  -33.6860   15.1480 C   0  0  0  0  0  0  0  0  0  0  0  0
  -17.8110  -34.4340   16.2160 C   0  0  0  0  0  0  0  0  0  0  0  0
  -17.4940  -35.9150   16.3170 C   0  0  0  0  0  0  0  0  0  0  0  0
  -16.3280  -36.2890   15.9600 O   0  0  0  0  0  0  0  0  0  0  0  0
  -18.4050  -36.6750   16.7770 O   0  0  0  0  0  0  0  0  0  0  0  0
  -18.6960  -34.0640   19.1280 H   0  0  0  0  0  0  0  0  0  0  0  0
  -20.1720  -34.3560   18.3180 H   0  0  0  0  0  0  0  0  0  0  0  0
  -18.6412  -30.6265   15.7554 H   0  0  0  0  0  0  0  0  0  0  0  0
  -17.1234  -31.7726   14.1348 H   0  0  0  0  0  0  0  0  0  0  0  0
  -16.5945  -34.1838   14.4330 H   0  0  0  0  0  0  0  0  0  0  0  0
  1  2  1  0
  2  3  2  0
  3  4  1  0
  3  5  1  0
  5  6  2  0
  6  7  1  0
  7  8  2  0
  8  9  1  0
  9 10  2  0
  9 11  1  0
  8  2  1  0
  1 12  1  0
  1 13  1  0
  5 14  1  0
  6 15  1  0
  7 16  1  0
M  CHG  1  11  -1
M  END
>  <meeko>  (7) 
{"is_sidechain": [false], "free_energy": -5.059, "intermolecular_energy": -5.503, "internal_energy": -0.226}

$$$$
4owm_ligand
     RDKit          3D

 16 16  0  0  0  0  0  0  0  0999 V2000
  -20.1810  -32.8640   17.8620 N   0  0  0  0  0  0  0  0  0  0  0  0
  -19.0650  -33.5560   17.3320 C   0  0  0  0  0  0  0  0  0  0  0  0
  -18.9560  -34.9440   17.5300 C   0  0  0  0  0  0  0  0  0  0  0  0
  -19.8270  -35.5730   18.3380 F   0  0  0  0  0  0  0  0  0  0  0  0
  -17.9620  -35.7010   16.9180 C   0  0  0  0  0  0  0  0  0  0  0  0
  -17.0580  -35.0790   16.0630 C   0  0  0  0  0  0  0  0  0  0  0  0
  -17.1610  -33.7050   15.8350 C   0  0  0  0  0  0  0  0  0  0  0  0
  -18.1610  -32.9220   16.4550 C   0  0  0  0  0  0  0  0  0  0  0  0
  -18.1870  -31.4250   16.2030 C   0  0  0  0  0  0  0  0  0  0  0  0
  -18.5730  -30.6780   17.1620 O   0  0  0  0  0  0  0  0  0  0  0  0
  -17.7950  -31.0190   15.0630 O   0  0  0  0  0  0  0  0  0  0  0  0
  -19.9660  -32.3910   18.7290 H   0  0  0  0  0  0  0  0  0  0  0  0
  -20.5330  -32.2160   17.1270 H   0  0  0  0  0  0  0  0  0  0  0  0
  -17.8915  -36.7821   17.1086 H   0  0  0  0  0  0  0  0  0  0  0  0
  -16.2681  -35.6649   15.5703 H   0  0  0  0  0  0  0  0  0  0  0  0
  -16.4452  -33.2196   15.1552 H   0  0  0  0  0  0  0  0  0  0  0  0
  1  2  1  0
  2  3  2  0
  3  4  1  0
  3  5  1  0
  5  6  2  0
  6  7  1  0
  7  8  2  0
  8  9  1  0
  9 10  2  0
  9 11  1  0
  8  2  1  0
  1 12  1  0
  1 13  1  0
  5 14  1  0
  6 15  1  0
  7 16  1  0
M  CHG  1  11  -1
M  END
>  <meeko>  (8) 
{"is_sidechain": [false], "free_energy": -4.882, "intermolecular_energy": -5.31, "internal_energy": -0.225}

$$$$
4owm_ligand
     RDKit          3D

 16 16  0  0  0  0  0  0  0  0999 V2000
  -18.2480  -37.1150   17.5230 N   0  0  0  0  0  0  0  0  0  0  0  0
  -18.1020  -35.7460   17.1920 C   0  0  0  0  0  0  0  0  0  0  0  0
  -17.1110  -35.3610   16.2710 C   0  0  0  0  0  0  0  0  0  0  0  0
  -16.2220  -36.2680   15.8290 F   0  0  0  0  0  0  0  0  0  0  0  0
  -17.0100  -34.0560   15.7980 C   0  0  0  0  0  0  0  0  0  0  0  0
  -17.9270  -33.1020   16.2250 C   0  0  0  0  0  0  0  0  0  0  0  0
  -18.9330  -33.4670   17.1220 C   0  0  0  0  0  0  0  0  0  0  0  0
  -19.0440  -34.7860   17.6160 C   0  0  0  0  0  0  0  0  0  0  0  0
  -20.1310  -35.1060   18.6280 C   0  0  0  0  0  0  0  0  0  0  0  0
  -19.7630  -35.6180   19.7370 O   0  0  0  0  0  0  0  0  0  0  0  0
  -21.3270  -34.8160   18.3090 O   0  0  0  0  0  0  0  0  0  0  0  0
  -19.0140  -37.2770   18.1620 H   0  0  0  0  0  0  0  0  0  0  0  0
  -18.3450  -37.6490   16.6350 H   0  0  0  0  0  0  0  0  0  0  0  0
  -16.2118  -33.7817   15.0926 H   0  0  0  0  0  0  0  0  0  0  0  0
  -17.8604  -32.0669   15.8587 H   0  0  0  0  0  0  0  0  0  0  0  0
  -19.6576  -32.7082   17.4524 H   0  0  0  0  0  0  0  0  0  0  0  0
  1  2  1  0
  2  3  2  0
  3  4  1  0
  3  5  1  0
  5  6  2  0
  6  7  1  0
  7  8  2  0
  8  9  1  0
  9 10  2  0
  9 11  1  0
  8  2  1  0
  1 12  1  0
  1 13  1  0
  5 14  1  0
  6 15  1  0
  7 16  1  0
M  CHG  1  11  -1
M  END
>  <meeko>  (9) 
{"is_sidechain": [false], "free_energy": -4.81, "intermolecular_energy": -5.188, "internal_energy": -0.271}

$$$$
