3f3e_ligand
     RDKit          3D

 22 21  0  0  0  0  0  0  0  0999 V2000
   40.4880   35.6980   44.4580 C   0  0  0  0  0  0  0  0  0  0  0  0
   39.7630   36.2610   43.2370 C   0  0  0  0  0  0  0  0  0  0  0  0
   38.2500   36.2140   43.4810 C   0  0  0  0  0  0  0  0  0  0  0  0
   40.0890   35.5260   41.9180 C   0  0  0  0  0  0  0  0  0  0  0  0
   40.5530   34.0720   42.0150 C   0  0  2  0  0  0  0  0  0  0  0  0
   41.6330   33.7880   40.9830 N   0  0  0  0  0  0  0  0  0  0  0  0
   39.4330   33.0000   41.8760 C   0  0  0  0  0  0  0  0  0  0  0  0
   39.1750   32.5720   40.7340 O   0  0  0  0  0  0  0  0  0  0  0  0
   38.9540   32.7510   43.0330 O   0  0  0  0  0  0  0  0  0  0  0  0
   40.0073   36.0713   45.3743 H   0  0  0  0  0  0  0  0  0  0  0  0
   40.4385   34.5993   44.4395 H   0  0  0  0  0  0  0  0  0  0  0  0
   41.5403   36.0180   44.4395 H   0  0  0  0  0  0  0  0  0  0  0  0
   40.1187   37.2946   43.1135 H   0  0  0  0  0  0  0  0  0  0  0  0
   38.0531   36.2079   44.5632 H   0  0  0  0  0  0  0  0  0  0  0  0
   37.7778   37.0979   43.0274 H   0  0  0  0  0  0  0  0  0  0  0  0
   37.8336   35.3025   43.0274 H   0  0  0  0  0  0  0  0  0  0  0  0
   39.1796   35.5409   41.2993 H   0  0  0  0  0  0  0  0  0  0  0  0
   40.9511   36.0677   41.5015 H   0  0  0  0  0  0  0  0  0  0  0  0
   40.9388   33.9791   43.0409 H   0  0  0  0  0  0  0  0  0  0  0  0
   42.4940   34.3220   41.0810 H   0  0  0  0  0  0  0  0  0  0  0  0
   41.1410   34.1330   40.1140 H   0  0  0  0  0  0  0  0  0  0  0  0
   41.7810   32.7900   40.8300 H   0  0  0  0  0  0  0  0  0  0  0  0
  1  2  1  0
  2  3  1  0
  2  4  1  0
  4  5  1  0
  5  6  1  0
  5  7  1  0
  7  8  2  0
  7  9  1  0
  1 10  1  0
  1 11  1  0
  1 12  1  0
  2 13  1  0
  3 14  1  0
  3 15  1  0
  3 16  1  0
  4 17  1  0
  4 18  1  0
  5 19  1  1
  6 20  1  0
  6 21  1  0
  6 22  1  0
M  CHG  2   6   1   9  -1
M  END
>  <meeko>  (1) 
{"is_sidechain": [false], "free_energy": -5.229, "intermolecular_energy": -6.299, "internal_energy": -0.207}

$$$$
3f3e_ligand
     RDKit          3D

 22 21  0  0  0  0  0  0  0  0999 V2000
   40.4590   35.7450   36.4530 C   0  0  0  0  0  0  0  0  0  0  0  0
   41.1810   36.2960   37.6820 C   0  0  0  0  0  0  0  0  0  0  0  0
   42.6950   36.2470   37.4440 C   0  0  0  0  0  0  0  0  0  0  0  0
   40.8460   35.5520   38.9940 C   0  0  0  0  0  0  0  0  0  0  0  0
   40.3730   34.1020   38.8830 C   0  0  2  0  0  0  0  0  0  0  0  0
   39.2670   33.8260   39.8900 N   0  0  0  0  0  0  0  0  0  0  0  0
   41.4800   33.0200   39.0450 C   0  0  0  0  0  0  0  0  0  0  0  0
   41.7130   32.5920   40.1930 O   0  0  0  0  0  0  0  0  0  0  0  0
   41.9790   32.7650   37.8980 O   0  0  0  0  0  0  0  0  0  0  0  0
   39.6227   35.1068   36.7745 H   0  0  0  0  0  0  0  0  0  0  0  0
   40.0724   36.5798   35.8499 H   0  0  0  0  0  0  0  0  0  0  0  0
   41.1622   35.1518   35.8499 H   0  0  0  0  0  0  0  0  0  0  0  0
   40.8284   37.3298   37.8124 H   0  0  0  0  0  0  0  0  0  0  0  0
   43.2179   36.2301   38.4116 H   0  0  0  0  0  0  0  0  0  0  0  0
   42.9475   35.3402   36.8748 H   0  0  0  0  0  0  0  0  0  0  0  0
   43.0056   37.1356   36.8748 H   0  0  0  0  0  0  0  0  0  0  0  0
   41.7534   35.5558   39.6157 H   0  0  0  0  0  0  0  0  0  0  0  0
   39.9862   36.0957   39.4125 H   0  0  0  0  0  0  0  0  0  0  0  0
   40.0110   34.0137   37.8480 H   0  0  0  0  0  0  0  0  0  0  0  0
   39.5620   33.4250   40.7770 H   0  0  0  0  0  0  0  0  0  0  0  0
   38.7340   33.0810   39.3640 H   0  0  0  0  0  0  0  0  0  0  0  0
   38.6160   34.6060   39.9840 H   0  0  0  0  0  0  0  0  0  0  0  0
  1  2  1  0
  2  3  1  0
  2  4  1  0
  4  5  1  0
  5  6  1  0
  5  7  1  0
  7  8  2  0
  7  9  1  0
  1 10  1  0
  1 11  1  0
  1 12  1  0
  2 13  1  0
  3 14  1  0
  3 15  1  0
  3 16  1  0
  4 17  1  0
  4 18  1  0
  5 19  1  6
  6 20  1  0
  6 21  1  0
  6 22  1  0
M  CHG  2   6   1   9  -1
M  END
>  <meeko>  (2) 
{"is_sidechain": [false], "free_energy": -5.219, "intermolecular_energy": -6.285, "internal_energy": -0.208}

$$$$
3f3e_ligand
     RDKit          3D

 22 21  0  0  0  0  0  0  0  0999 V2000
   42.8050   38.3300   36.8560 C   0  0  0  0  0  0  0  0  0  0  0  0
   42.7010   36.8070   36.8940 C   0  0  0  0  0  0  0  0  0  0  0  0
   43.5680   36.2120   35.7780 C   0  0  0  0  0  0  0  0  0  0  0  0
   41.2580   36.2710   36.7600 C   0  0  0  0  0  0  0  0  0  0  0  0
   40.7720   35.2760   37.8140 C   0  0  2  0  0  0  0  0  0  0  0  0
   40.9270   35.8620   39.2090 N   0  0  0  0  0  0  0  0  0  0  0  0
   41.4510   33.8760   37.7800 C   0  0  0  0  0  0  0  0  0  0  0  0
   41.8110   33.3760   38.8640 O   0  0  0  0  0  0  0  0  0  0  0  0
   41.5240   33.4810   36.5680 O   0  0  0  0  0  0  0  0  0  0  0  0
   42.8317   38.7214   37.8836 H   0  0  0  0  0  0  0  0  0  0  0  0
   43.7252   38.6216   36.3285 H   0  0  0  0  0  0  0  0  0  0  0  0
   41.9330   38.7440   36.3285 H   0  0  0  0  0  0  0  0  0  0  0  0
   43.0565   36.4964   37.8875 H   0  0  0  0  0  0  0  0  0  0  0  0
   44.3977   35.6426   36.2223 H   0  0  0  0  0  0  0  0  0  0  0  0
   42.9559   35.5427   35.1555 H   0  0  0  0  0  0  0  0  0  0  0  0
   43.9724   37.0238   35.1555 H   0  0  0  0  0  0  0  0  0  0  0  0
   40.5810   37.1376   36.7885 H   0  0  0  0  0  0  0  0  0  0  0  0
   41.2573   35.7028   35.8181 H   0  0  0  0  0  0  0  0  0  0  0  0
   39.7151   35.1074   37.5598 H   0  0  0  0  0  0  0  0  0  0  0  0
   41.5040   36.6960   39.2800 H   0  0  0  0  0  0  0  0  0  0  0  0
   41.4490   35.0710   39.6740 H   0  0  0  0  0  0  0  0  0  0  0  0
   40.0400   35.9290   39.7090 H   0  0  0  0  0  0  0  0  0  0  0  0
  1  2  1  0
  2  3  1  0
  2  4  1  0
  4  5  1  0
  5  6  1  0
  5  7  1  0
  7  8  2  0
  7  9  1  0
  1 10  1  0
  1 11  1  0
  1 12  1  0
  2 13  1  0
  3 14  1  0
  3 15  1  0
  3 16  1  0
  4 17  1  0
  4 18  1  0
  5 19  1  6
  6 20  1  0
  6 21  1  0
  6 22  1  0
M  CHG  2   6   1   9  -1
M  END
>  <meeko>  (3) 
{"is_sidechain": [false], "free_energy": -5.086, "intermolecular_energy": -6.175, "internal_energy": -0.159}

$$$$
3f3e_ligand
     RDKit          3D

 22 21  0  0  0  0  0  0  0  0999 V2000
   38.1340   38.3830   44.0680 C   0  0  0  0  0  0  0  0  0  0  0  0
   38.2260   36.8590   44.0650 C   0  0  0  0  0  0  0  0  0  0  0  0
   37.3440   36.2970   45.1870 C   0  0  0  0  0  0  0  0  0  0  0  0
   39.6640   36.3150   44.2260 C   0  0  0  0  0  0  0  0  0  0  0  0
   40.1410   35.2690   43.2190 C   0  0  2  0  0  0  0  0  0  0  0  0
   40.0360   35.8090   41.8010 N   0  0  0  0  0  0  0  0  0  0  0  0
   39.4170   33.8930   43.2860 C   0  0  0  0  0  0  0  0  0  0  0  0
   38.9790   33.4120   42.2210 O   0  0  0  0  0  0  0  0  0  0  0  0
   39.3990   33.4940   44.4980 O   0  0  0  0  0  0  0  0  0  0  0  0
   38.1120   38.7470   45.1058 H   0  0  0  0  0  0  0  0  0  0  0  0
   39.0084   38.8041   43.5502 H   0  0  0  0  0  0  0  0  0  0  0  0
   37.2153   38.6959   43.5502 H   0  0  0  0  0  0  0  0  0  0  0  0
   37.8776   36.5284   43.0754 H   0  0  0  0  0  0  0  0  0  0  0  0
   37.7729   36.5703   46.1623 H   0  0  0  0  0  0  0  0  0  0  0  0
   36.3306   36.7163   45.1017 H   0  0  0  0  0  0  0  0  0  0  0  0
   37.2959   35.2014   45.1017 H   0  0  0  0  0  0  0  0  0  0  0  0
   40.3497   37.1725   44.1597 H   0  0  0  0  0  0  0  0  0  0  0  0
   39.6578   35.7901   45.1927 H   0  0  0  0  0  0  0  0  0  0  0  0
   41.1861   35.0772   43.5035 H   0  0  0  0  0  0  0  0  0  0  0  0
   40.2620   36.7940   41.6820 H   0  0  0  0  0  0  0  0  0  0  0  0
   38.9980   35.6980   41.6470 H   0  0  0  0  0  0  0  0  0  0  0  0
   40.4770   35.1980   41.1130 H   0  0  0  0  0  0  0  0  0  0  0  0
  1  2  1  0
  2  3  1  0
  2  4  1  0
  4  5  1  0
  5  6  1  0
  5  7  1  0
  7  8  2  0
  7  9  1  0
  1 10  1  0
  1 11  1  0
  1 12  1  0
  2 13  1  0
  3 14  1  0
  3 15  1  0
  3 16  1  0
  4 17  1  0
  4 18  1  0
  5 19  1  1
  6 20  1  0
  6 21  1  0
  6 22  1  0
M  CHG  2   6   1   9  -1
M  END
>  <meeko>  (4) 
{"is_sidechain": [false], "free_energy": -5.079, "intermolecular_energy": -6.158, "internal_energy": -0.167}

$$$$
3f3e_ligand
     RDKit          3D

 22 21  0  0  0  0  0  0  0  0999 V2000
   40.7420   33.9080   38.1510 C   0  0  0  0  0  0  0  0  0  0  0  0
   40.4700   35.3000   38.7190 C   0  0  0  0  0  0  0  0  0  0  0  0
   41.4860   36.2910   38.1390 C   0  0  0  0  0  0  0  0  0  0  0  0
   40.5160   35.3680   40.2620 C   0  0  0  0  0  0  0  0  0  0  0  0
   39.8830   34.2140   41.0400 C   0  0  2  0  0  0  0  0  0  0  0  0
   38.7450   34.7220   41.9130 N   0  0  0  0  0  0  0  0  0  0  0  0
   40.8590   33.3830   41.9230 C   0  0  0  0  0  0  0  0  0  0  0  0
   41.9040   32.9570   41.3930 O   0  0  0  0  0  0  0  0  0  0  0  0
   40.3700   33.2820   43.0980 O   0  0  0  0  0  0  0  0  0  0  0  0
   40.8812   33.1955   38.9774 H   0  0  0  0  0  0  0  0  0  0  0  0
   39.8888   33.5909   37.5333 H   0  0  0  0  0  0  0  0  0  0  0  0
   41.6518   33.9354   37.5333 H   0  0  0  0  0  0  0  0  0  0  0  0
   39.4424   35.5606   38.4256 H   0  0  0  0  0  0  0  0  0  0  0  0
   42.0098   36.8019   38.9603 H   0  0  0  0  0  0  0  0  0  0  0  0
   42.2157   35.7481   37.5203 H   0  0  0  0  0  0  0  0  0  0  0  0
   40.9614   37.0340   37.5203 H   0  0  0  0  0  0  0  0  0  0  0  0
   41.5741   35.4231   40.5577 H   0  0  0  0  0  0  0  0  0  0  0  0
   39.9077   36.2470   40.5214 H   0  0  0  0  0  0  0  0  0  0  0  0
   39.5210   33.5289   40.2593 H   0  0  0  0  0  0  0  0  0  0  0  0
   37.8070   34.4770   41.6080 H   0  0  0  0  0  0  0  0  0  0  0  0
   38.8660   35.7610   41.7720 H   0  0  0  0  0  0  0  0  0  0  0  0
   38.9110   34.5650   42.9080 H   0  0  0  0  0  0  0  0  0  0  0  0
  1  2  1  0
  2  3  1  0
  2  4  1  0
  4  5  1  0
  5  6  1  0
  5  7  1  0
  7  8  2  0
  7  9  1  0
  1 10  1  0
  1 11  1  0
  1 12  1  0
  2 13  1  0
  3 14  1  0
  3 15  1  0
  3 16  1  0
  4 17  1  0
  4 18  1  0
  5 19  1  6
  6 20  1  0
  6 21  1  0
  6 22  1  0
M  CHG  2   6   1   9  -1
M  END
>  <meeko>  (5) 
{"is_sidechain": [false], "free_energy": -5.037, "intermolecular_energy": -6.149, "internal_energy": -0.126}

$$$$
3f3e_ligand
     RDKit          3D

 22 21  0  0  0  0  0  0  0  0999 V2000
   38.7490   37.0860   43.5060 C   0  0  0  0  0  0  0  0  0  0  0  0
   39.4750   35.7820   43.1800 C   0  0  0  0  0  0  0  0  0  0  0  0
   40.5470   35.5200   44.2450 C   0  0  0  0  0  0  0  0  0  0  0  0
   40.1300   35.7610   41.7810 C   0  0  0  0  0  0  0  0  0  0  0  0
   39.9070   34.5220   40.9140 C   0  0  2  0  0  0  0  0  0  0  0  0
   38.9870   33.5380   41.6200 N   0  0  0  0  0  0  0  0  0  0  0  0
   41.1970   33.7720   40.4700 C   0  0  0  0  0  0  0  0  0  0  0  0
   41.1990   33.2330   39.3450 O   0  0  0  0  0  0  0  0  0  0  0  0
   42.0620   33.8480   41.4060 O   0  0  0  0  0  0  0  0  0  0  0  0
   38.6824   37.2056   44.5974 H   0  0  0  0  0  0  0  0  0  0  0  0
   39.3056   37.9326   43.0776 H   0  0  0  0  0  0  0  0  0  0  0  0
   37.7362   37.0588   43.0776 H   0  0  0  0  0  0  0  0  0  0  0  0
   38.7099   34.9916   43.1773 H   0  0  0  0  0  0  0  0  0  0  0  0
   40.1037   35.6283   45.2459 H   0  0  0  0  0  0  0  0  0  0  0  0
   40.9399   34.4994   44.1265 H   0  0  0  0  0  0  0  0  0  0  0  0
   41.3663   36.2443   44.1265 H   0  0  0  0  0  0  0  0  0  0  0  0
   39.7433   36.6268   41.2235 H   0  0  0  0  0  0  0  0  0  0  0  0
   41.2120   35.7726   41.9788 H   0  0  0  0  0  0  0  0  0  0  0  0
   39.4509   34.9146   39.9932 H   0  0  0  0  0  0  0  0  0  0  0  0
   38.6170   33.8410   42.5170 H   0  0  0  0  0  0  0  0  0  0  0  0
   39.6730   32.7570   41.8040 H   0  0  0  0  0  0  0  0  0  0  0  0
   38.2850   33.1380   40.9960 H   0  0  0  0  0  0  0  0  0  0  0  0
  1  2  1  0
  2  3  1  0
  2  4  1  0
  4  5  1  0
  5  6  1  0
  5  7  1  0
  7  8  2  0
  7  9  1  0
  1 10  1  0
  1 11  1  0
  1 12  1  0
  2 13  1  0
  3 14  1  0
  3 15  1  0
  3 16  1  0
  4 17  1  0
  4 18  1  0
  5 19  1  6
  6 20  1  0
  6 21  1  0
  6 22  1  0
M  CHG  2   6   1   9  -1
M  END
>  <meeko>  (6) 
{"is_sidechain": [false], "free_energy": -5.031, "intermolecular_energy": -6.103, "internal_energy": -0.164}

$$$$
3f3e_ligand
     RDKit          3D

 22 21  0  0  0  0  0  0  0  0999 V2000
   43.6450   38.5610   35.6530 C   0  0  0  0  0  0  0  0  0  0  0  0
   44.3320   37.2130   35.4440 C   0  0  0  0  0  0  0  0  0  0  0  0
   44.9170   37.1580   34.0270 C   0  0  0  0  0  0  0  0  0  0  0  0
   43.4060   35.9950   35.6600 C   0  0  0  0  0  0  0  0  0  0  0  0
   42.9480   35.7000   37.0880 C   0  0  2  0  0  0  0  0  0  0  0  0
   43.0860   34.2170   37.3950 N   0  0  0  0  0  0  0  0  0  0  0  0
   41.5000   36.1520   37.4370 C   0  0  0  0  0  0  0  0  0  0  0  0
   41.2400   36.4050   38.6300 O   0  0  0  0  0  0  0  0  0  0  0  0
   40.8050   36.1710   36.3660 O   0  0  0  0  0  0  0  0  0  0  0  0
   43.5445   38.7582   36.7305 H   0  0  0  0  0  0  0  0  0  0  0  0
   44.2481   39.3557   35.1895 H   0  0  0  0  0  0  0  0  0  0  0  0
   42.6476   38.5400   35.1895 H   0  0  0  0  0  0  0  0  0  0  0  0
   45.1204   37.1440   36.2080 H   0  0  0  0  0  0  0  0  0  0  0  0
   46.0106   37.0552   34.0855 H   0  0  0  0  0  0  0  0  0  0  0  0
   44.4959   36.2955   33.4897 H   0  0  0  0  0  0  0  0  0  0  0  0
   44.6640   38.0839   33.4897 H   0  0  0  0  0  0  0  0  0  0  0  0
   42.5039   36.1552   35.0513 H   0  0  0  0  0  0  0  0  0  0  0  0
   44.0171   35.1253   35.3769 H   0  0  0  0  0  0  0  0  0  0  0  0
   43.6155   36.3080   37.7163 H   0  0  0  0  0  0  0  0  0  0  0  0
   42.2170   33.6890   37.4380 H   0  0  0  0  0  0  0  0  0  0  0  0
   43.4730   34.2750   38.3750 H   0  0  0  0  0  0  0  0  0  0  0  0
   43.8160   33.7660   36.8440 H   0  0  0  0  0  0  0  0  0  0  0  0
  1  2  1  0
  2  3  1  0
  2  4  1  0
  4  5  1  0
  5  6  1  0
  5  7  1  0
  7  8  2  0
  7  9  1  0
  1 10  1  0
  1 11  1  0
  1 12  1  0
  2 13  1  0
  3 14  1  0
  3 15  1  0
  3 16  1  0
  4 17  1  0
  4 18  1  0
  5 19  1  1
  6 20  1  0
  6 21  1  0
  6 22  1  0
M  CHG  2   6   1   9  -1
M  END
>  <meeko>  (7) 
{"is_sidechain": [false], "free_energy": -5.031, "intermolecular_energy": -6.159, "internal_energy": -0.108}

$$$$
3f3e_ligand
     RDKit          3D

 22 21  0  0  0  0  0  0  0  0999 V2000
   42.1560   37.0930   37.4150 C   0  0  0  0  0  0  0  0  0  0  0  0
   41.4560   35.7750   37.7400 C   0  0  0  0  0  0  0  0  0  0  0  0
   40.3800   35.4990   36.6830 C   0  0  0  0  0  0  0  0  0  0  0  0
   40.8130   35.7350   39.1450 C   0  0  0  0  0  0  0  0  0  0  0  0
   40.9880   34.4580   39.9670 C   0  0  2  0  0  0  0  0  0  0  0  0
   41.9620   33.5130   39.2800 N   0  0  0  0  0  0  0  0  0  0  0  0
   39.6780   33.6810   40.2890 C   0  0  0  0  0  0  0  0  0  0  0  0
   39.1620   33.0060   39.3760 O   0  0  0  0  0  0  0  0  0  0  0  0
   39.3530   33.9040   41.5030 O   0  0  0  0  0  0  0  0  0  0  0  0
   42.4276   37.6043   38.3503 H   0  0  0  0  0  0  0  0  0  0  0  0
   43.0655   36.8907   36.8303 H   0  0  0  0  0  0  0  0  0  0  0  0
   41.4791   37.7332   36.8303 H   0  0  0  0  0  0  0  0  0  0  0  0
   42.2352   34.9986   37.7319 H   0  0  0  0  0  0  0  0  0  0  0  0
   39.4302   35.2554   37.1816 H   0  0  0  0  0  0  0  0  0  0  0  0
   40.2458   36.3918   36.0546 H   0  0  0  0  0  0  0  0  0  0  0  0
   40.6921   34.6518   36.0546 H   0  0  0  0  0  0  0  0  0  0  0  0
   41.2432   36.5630   39.7276 H   0  0  0  0  0  0  0  0  0  0  0  0
   39.7309   35.8016   38.9591 H   0  0  0  0  0  0  0  0  0  0  0  0
   41.3778   34.8101   40.9335 H   0  0  0  0  0  0  0  0  0  0  0  0
   42.0400   33.6110   38.2710 H   0  0  0  0  0  0  0  0  0  0  0  0
   41.4820   32.5930   39.4760 H   0  0  0  0  0  0  0  0  0  0  0  0
   42.8600   33.4550   39.7610 H   0  0  0  0  0  0  0  0  0  0  0  0
  1  2  1  0
  2  3  1  0
  2  4  1  0
  4  5  1  0
  5  6  1  0
  5  7  1  0
  7  8  2  0
  7  9  1  0
  1 10  1  0
  1 11  1  0
  1 12  1  0
  2 13  1  0
  3 14  1  0
  3 15  1  0
  3 16  1  0
  4 17  1  0
  4 18  1  0
  5 19  1  1
  6 20  1  0
  6 21  1  0
  6 22  1  0
M  CHG  2   6   1   9  -1
M  END
>  <meeko>  (8) 
{"is_sidechain": [false], "free_energy": -5.013, "intermolecular_energy": -6.099, "internal_energy": -0.147}

$$$$
3f3e_ligand
     RDKit          3D

 22 21  0  0  0  0  0  0  0  0999 V2000
   39.7770   36.1870   42.3540 C   0  0  0  0  0  0  0  0  0  0  0  0
   40.2290   35.0150   41.4840 C   0  0  0  0  0  0  0  0  0  0  0  0
   41.5010   34.4020   42.0810 C   0  0  0  0  0  0  0  0  0  0  0  0
   40.4890   35.3930   40.0080 C   0  0  0  0  0  0  0  0  0  0  0  0
   39.9460   34.4520   38.9320 C   0  0  2  0  0  0  0  0  0  0  0  0
   39.0590   33.3860   39.5550 N   0  0  0  0  0  0  0  0  0  0  0  0
   41.0200   33.7560   38.0460 C   0  0  0  0  0  0  0  0  0  0  0  0
   40.8880   33.8260   36.8080 O   0  0  0  0  0  0  0  0  0  0  0  0
   41.8840   33.2000   38.8040 O   0  0  0  0  0  0  0  0  0  0  0  0
   39.8810   35.9173   43.4153 H   0  0  0  0  0  0  0  0  0  0  0  0
   40.4003   37.0669   42.1365 H   0  0  0  0  0  0  0  0  0  0  0  0
   38.7243   36.4205   42.1365 H   0  0  0  0  0  0  0  0  0  0  0  0
   39.3996   34.2924   41.4794 H   0  0  0  0  0  0  0  0  0  0  0  0
   41.4414   34.4307   43.1790 H   0  0  0  0  0  0  0  0  0  0  0  0
   41.5972   33.3586   41.7462 H   0  0  0  0  0  0  0  0  0  0  0  0
   42.3771   34.9768   41.7462 H   0  0  0  0  0  0  0  0  0  0  0  0
   40.0400   36.3826   39.8373 H   0  0  0  0  0  0  0  0  0  0  0  0
   41.5822   35.3464   39.8952 H   0  0  0  0  0  0  0  0  0  0  0  0
   39.3759   35.1101   38.2598 H   0  0  0  0  0  0  0  0  0  0  0  0
   38.8560   32.5780   38.9710 H   0  0  0  0  0  0  0  0  0  0  0  0
   38.1660   33.9390   39.6570 H   0  0  0  0  0  0  0  0  0  0  0  0
   39.3380   33.1480   40.5070 H   0  0  0  0  0  0  0  0  0  0  0  0
  1  2  1  0
  2  3  1  0
  2  4  1  0
  4  5  1  0
  5  6  1  0
  5  7  1  0
  7  8  2  0
  7  9  1  0
  1 10  1  0
  1 11  1  0
  1 12  1  0
  2 13  1  0
  3 14  1  0
  3 15  1  0
  3 16  1  0
  4 17  1  0
  4 18  1  0
  5 19  1  6
  6 20  1  0
  6 21  1  0
  6 22  1  0
M  CHG  2   6   1   9  -1
M  END
>  <meeko>  (9) 
{"is_sidechain": [false], "free_energy": -4.87, "intermolecular_energy": -5.91, "internal_energy": -0.164}

$$$$
