4dli_ligand
     RDKit          3D

 38 41  0  0  0  0  0  0  0  0999 V2000
   26.0210  -13.6560   -5.6460 N   0  0  0  0  0  0  0  0  0  0  0  0
   25.4760  -13.9630   -6.8900 C   0  0  0  0  0  0  0  0  0  0  0  0
   25.5330  -13.0350   -7.9290 C   0  0  0  0  0  0  0  0  0  0  0  0
   25.1150  -13.3720   -9.2210 C   0  0  0  0  0  0  0  0  0  0  0  0
   24.6750  -14.6790   -9.5230 C   0  0  0  0  0  0  0  0  0  0  0  0
   24.2520  -15.1260  -10.7950 C   0  0  0  0  0  0  0  0  0  0  0  0
   24.2160  -14.2200  -11.8790 N   0  0  0  0  0  0  0  0  0  0  0  0
   25.3240  -14.2270  -12.8440 C   0  0  0  0  0  0  0  0  0  0  0  0
   25.7610  -15.5010  -13.5080 C   0  0  0  0  0  0  0  0  0  0  0  0
   25.0410  -14.4500  -14.3030 C   0  0  0  0  0  0  0  0  0  0  0  0
   23.8250  -16.3880  -10.9970 N   0  0  0  0  0  0  0  0  0  0  0  0
   23.8230  -17.2140   -9.9390 C   0  0  0  0  0  0  0  0  0  0  0  0
   23.3940  -18.6010  -10.1050 C   0  0  0  0  0  0  0  0  0  0  0  0
   23.3680  -19.4730   -9.0010 C   0  0  0  0  0  0  0  0  0  0  0  0
   22.9390  -20.7960   -9.1340 C   0  0  0  0  0  0  0  0  0  0  0  0
   22.5390  -21.2760  -10.3770 C   0  0  0  0  0  0  0  0  0  0  0  0
   22.5760  -20.4410  -11.4890 C   0  0  0  0  0  0  0  0  0  0  0  0
   23.0030  -19.1160  -11.3580 C   0  0  0  0  0  0  0  0  0  0  0  0
   24.2400  -16.8690   -8.7200 N   0  0  0  0  0  0  0  0  0  0  0  0
   24.6580  -15.6200   -8.4730 C   0  0  0  0  0  0  0  0  0  0  0  0
   25.0760  -15.2680   -7.1800 C   0  0  0  0  0  0  0  0  0  0  0  0
   26.8510  -14.1670   -5.3640 H   0  0  0  0  0  0  0  0  0  0  0  0
   25.3510  -13.5850   -4.8810 H   0  0  0  0  0  0  0  0  0  0  0  0
   25.9126  -12.0220   -7.7298 H   0  0  0  0  0  0  0  0  0  0  0  0
   25.1294  -12.6081  -10.0123 H   0  0  0  0  0  0  0  0  0  0  0  0
   23.9530  -13.2870  -11.5650 H   0  0  0  0  0  0  0  0  0  0  0  0
   25.8332  -13.4516  -12.2529 H   0  0  0  0  0  0  0  0  0  0  0  0
   26.8299  -15.6894  -13.6865 H   0  0  0  0  0  0  0  0  0  0  0  0
   25.6044  -16.5723  -13.3139 H   0  0  0  0  0  0  0  0  0  0  0  0
   25.5825  -13.8684  -15.0635 H   0  0  0  0  0  0  0  0  0  0  0  0
   24.1388  -14.4323  -14.9320 H   0  0  0  0  0  0  0  0  0  0  0  0
   23.6912  -19.1065   -8.0155 H   0  0  0  0  0  0  0  0  0  0  0  0
   22.9175  -21.4581   -8.2559 H   0  0  0  0  0  0  0  0  0  0  0  0
   22.1937  -22.3152  -10.4805 H   0  0  0  0  0  0  0  0  0  0  0  0
   22.2687  -20.8239  -12.4734 H   0  0  0  0  0  0  0  0  0  0  0  0
   23.0343  -18.4662  -12.2450 H   0  0  0  0  0  0  0  0  0  0  0  0
   24.2550  -17.5720   -7.9890 H   0  0  0  0  0  0  0  0  0  0  0  0
   25.0884  -16.0296   -6.3864 H   0  0  0  0  0  0  0  0  0  0  0  0
  1  2  1  0
  2  3  2  0
  3  4  1  0
  4  5  2  0
  5  6  1  0
  6  7  1  0
  7  8  1  0
  8  9  1  0
  9 10  1  0
  6 11  2  0
 11 12  1  0
 12 13  1  0
 13 14  2  0
 14 15  1  0
 15 16  2  0
 16 17  1  0
 17 18  2  0
 12 19  2  0
 19 20  1  0
 20 21  2  0
 21  2  1  0
 20  5  1  0
 10  8  1  0
 18 13  1  0
  1 22  1  0
  1 23  1  0
  3 24  1  0
  4 25  1  0
  7 26  1  0
  8 27  1  0
  9 28  1  0
  9 29  1  0
 10 30  1  0
 10 31  1  0
 14 32  1  0
 15 33  1  0
 16 34  1  0
 17 35  1  0
 18 36  1  0
 19 37  1  0
 21 38  1  0
M  CHG  1  19   1
M  END
>  <meeko>  (1) 
{"is_sidechain": [false], "free_energy": -9.883, "intermolecular_energy": -11.905, "internal_energy": -0.476}

$$$$
4dli_ligand
     RDKit          3D

 38 41  0  0  0  0  0  0  0  0999 V2000
   25.3390  -12.2710   -8.1470 N   0  0  0  0  0  0  0  0  0  0  0  0
   24.9920  -13.1120   -9.2010 C   0  0  0  0  0  0  0  0  0  0  0  0
   25.2330  -12.7230  -10.5180 C   0  0  0  0  0  0  0  0  0  0  0  0
   25.0180  -13.6050  -11.5820 C   0  0  0  0  0  0  0  0  0  0  0  0
   24.6020  -14.9340  -11.3490 C   0  0  0  0  0  0  0  0  0  0  0  0
   24.3770  -15.9080  -12.3490 C   0  0  0  0  0  0  0  0  0  0  0  0
   24.5320  -15.5620  -13.7100 N   0  0  0  0  0  0  0  0  0  0  0  0
   25.8900  -15.4110  -14.2500 C   0  0  0  0  0  0  0  0  0  0  0  0
   26.8740  -16.5440  -14.1940 C   0  0  0  0  0  0  0  0  0  0  0  0
   26.2770  -16.1340  -15.5090 C   0  0  0  0  0  0  0  0  0  0  0  0
   23.9590  -17.1520  -12.0440 N   0  0  0  0  0  0  0  0  0  0  0  0
   23.7710  -17.4390  -10.7460 C   0  0  0  0  0  0  0  0  0  0  0  0
   23.3440  -18.7810  -10.3560 C   0  0  0  0  0  0  0  0  0  0  0  0
   23.5020  -19.2180   -9.0270 C   0  0  0  0  0  0  0  0  0  0  0  0
   23.0790  -20.4880   -8.6290 C   0  0  0  0  0  0  0  0  0  0  0  0
   22.4990  -21.3500   -9.5540 C   0  0  0  0  0  0  0  0  0  0  0  0
   22.3510  -20.9510  -10.8790 C   0  0  0  0  0  0  0  0  0  0  0  0
   22.7720  -19.6800  -11.2800 C   0  0  0  0  0  0  0  0  0  0  0  0
   23.9970  -16.5810   -9.7510 N   0  0  0  0  0  0  0  0  0  0  0  0
   24.3990  -15.3280  -10.0110 C   0  0  0  0  0  0  0  0  0  0  0  0
   24.6140  -14.4320   -8.9520 C   0  0  0  0  0  0  0  0  0  0  0  0
   25.6240  -11.3250   -8.3830 H   0  0  0  0  0  0  0  0  0  0  0  0
   25.9540  -12.6800   -7.4450 H   0  0  0  0  0  0  0  0  0  0  0  0
   25.5981  -11.7059  -10.7236 H   0  0  0  0  0  0  0  0  0  0  0  0
   25.1751  -13.2586  -12.6142 H   0  0  0  0  0  0  0  0  0  0  0  0
   23.9030  -14.8040  -13.9670 H   0  0  0  0  0  0  0  0  0  0  0  0
   25.8990  -14.3645  -13.9114 H   0  0  0  0  0  0  0  0  0  0  0  0
   27.9347  -16.3413  -13.9846 H   0  0  0  0  0  0  0  0  0  0  0  0
   26.9430  -17.4869  -13.6316 H   0  0  0  0  0  0  0  0  0  0  0  0
   26.9001  -15.6307  -16.2629 H   0  0  0  0  0  0  0  0  0  0  0  0
   25.7274  -16.6517  -16.3090 H   0  0  0  0  0  0  0  0  0  0  0  0
   23.9668  -18.5474   -8.2893 H   0  0  0  0  0  0  0  0  0  0  0  0
   23.2045  -20.8068   -7.5837 H   0  0  0  0  0  0  0  0  0  0  0  0
   22.1574  -22.3468   -9.2382 H   0  0  0  0  0  0  0  0  0  0  0  0
   21.9018  -21.6372  -11.6121 H   0  0  0  0  0  0  0  0  0  0  0  0
   22.6556  -19.3766  -12.3309 H   0  0  0  0  0  0  0  0  0  0  0  0
   23.8810  -16.8960   -8.7940 H   0  0  0  0  0  0  0  0  0  0  0  0
   24.4831  -14.7741   -7.9148 H   0  0  0  0  0  0  0  0  0  0  0  0
  1  2  1  0
  2  3  2  0
  3  4  1  0
  4  5  2  0
  5  6  1  0
  6  7  1  0
  7  8  1  0
  8  9  1  0
  9 10  1  0
  6 11  2  0
 11 12  1  0
 12 13  1  0
 13 14  2  0
 14 15  1  0
 15 16  2  0
 16 17  1  0
 17 18  2  0
 12 19  2  0
 19 20  1  0
 20 21  2  0
 21  2  1  0
 20  5  1  0
 10  8  1  0
 18 13  1  0
  1 22  1  0
  1 23  1  0
  3 24  1  0
  4 25  1  0
  7 26  1  0
  8 27  1  0
  9 28  1  0
  9 29  1  0
 10 30  1  0
 10 31  1  0
 14 32  1  0
 15 33  1  0
 16 34  1  0
 17 35  1  0
 18 36  1  0
 19 37  1  0
 21 38  1  0
M  CHG  1  19   1
M  END
>  <meeko>  (2) 
{"is_sidechain": [false], "free_energy": -9.788, "intermolecular_energy": -11.807, "internal_energy": -0.46}

$$$$
4dli_ligand
     RDKit          3D

 38 41  0  0  0  0  0  0  0  0999 V2000
   21.7190  -21.7150   -9.8470 N   0  0  0  0  0  0  0  0  0  0  0  0
   22.5520  -20.6940  -10.2970 C   0  0  0  0  0  0  0  0  0  0  0  0
   22.8880  -20.6070  -11.6480 C   0  0  0  0  0  0  0  0  0  0  0  0
   23.6100  -19.5160  -12.1430 C   0  0  0  0  0  0  0  0  0  0  0  0
   23.9740  -18.4440  -11.2990 C   0  0  0  0  0  0  0  0  0  0  0  0
   24.6830  -17.2900  -11.7020 C   0  0  0  0  0  0  0  0  0  0  0  0
   25.1180  -17.1680  -13.0410 N   0  0  0  0  0  0  0  0  0  0  0  0
   26.1380  -16.1620  -13.3640 C   0  0  0  0  0  0  0  0  0  0  0  0
   26.7860  -16.1270  -14.7190 C   0  0  0  0  0  0  0  0  0  0  0  0
   25.8150  -15.0520  -14.3250 C   0  0  0  0  0  0  0  0  0  0  0  0
   25.0110  -16.3180  -10.8270 N   0  0  0  0  0  0  0  0  0  0  0  0
   24.6290  -16.4840   -9.5520 C   0  0  0  0  0  0  0  0  0  0  0  0
   24.9350  -15.4490   -8.5650 C   0  0  0  0  0  0  0  0  0  0  0  0
   25.0940  -15.7880   -7.2080 C   0  0  0  0  0  0  0  0  0  0  0  0
   25.4100  -14.8180   -6.2540 C   0  0  0  0  0  0  0  0  0  0  0  0
   25.5610  -13.4890   -6.6360 C   0  0  0  0  0  0  0  0  0  0  0  0
   25.3870  -13.1240   -7.9670 C   0  0  0  0  0  0  0  0  0  0  0  0
   25.0730  -14.0930   -8.9250 C   0  0  0  0  0  0  0  0  0  0  0  0
   23.9290  -17.5290   -9.1100 N   0  0  0  0  0  0  0  0  0  0  0  0
   23.5960  -18.5250   -9.9430 C   0  0  0  0  0  0  0  0  0  0  0  0
   22.8740  -19.6270   -9.4580 C   0  0  0  0  0  0  0  0  0  0  0  0
   20.7430  -21.4820   -9.6900 H   0  0  0  0  0  0  0  0  0  0  0  0
   22.0930  -22.2800   -9.0860 H   0  0  0  0  0  0  0  0  0  0  0  0
   22.5803  -21.4091  -12.3350 H   0  0  0  0  0  0  0  0  0  0  0  0
   23.8982  -19.4928  -13.2043 H   0  0  0  0  0  0  0  0  0  0  0  0
   24.3260  -17.1680  -13.6820 H   0  0  0  0  0  0  0  0  0  0  0  0
   26.5117  -16.2219  -12.3312 H   0  0  0  0  0  0  0  0  0  0  0  0
   27.8571  -15.8938  -14.8104 H   0  0  0  0  0  0  0  0  0  0  0  0
   26.8672  -16.8310  -15.5603 H   0  0  0  0  0  0  0  0  0  0  0  0
   26.1747  -14.0314  -14.1275 H   0  0  0  0  0  0  0  0  0  0  0  0
   24.8904  -14.6424  -14.7578 H   0  0  0  0  0  0  0  0  0  0  0  0
   24.9672  -16.8345   -6.8936 H   0  0  0  0  0  0  0  0  0  0  0  0
   25.5395  -15.1052   -5.2001 H   0  0  0  0  0  0  0  0  0  0  0  0
   25.8180  -12.7268   -5.8857 H   0  0  0  0  0  0  0  0  0  0  0  0
   25.4966  -12.0712   -8.2664 H   0  0  0  0  0  0  0  0  0  0  0  0
   24.9317  -13.7931   -9.9739 H   0  0  0  0  0  0  0  0  0  0  0  0
   23.6340  -17.5490   -8.1390 H   0  0  0  0  0  0  0  0  0  0  0  0
   22.5586  -19.6494   -8.4044 H   0  0  0  0  0  0  0  0  0  0  0  0
  1  2  1  0
  2  3  2  0
  3  4  1  0
  4  5  2  0
  5  6  1  0
  6  7  1  0
  7  8  1  0
  8  9  1  0
  9 10  1  0
  6 11  2  0
 11 12  1  0
 12 13  1  0
 13 14  2  0
 14 15  1  0
 15 16  2  0
 16 17  1  0
 17 18  2  0
 12 19  2  0
 19 20  1  0
 20 21  2  0
 21  2  1  0
 20  5  1  0
 10  8  1  0
 18 13  1  0
  1 22  1  0
  1 23  1  0
  3 24  1  0
  4 25  1  0
  7 26  1  0
  8 27  1  0
  9 28  1  0
  9 29  1  0
 10 30  1  0
 10 31  1  0
 14 32  1  0
 15 33  1  0
 16 34  1  0
 17 35  1  0
 18 36  1  0
 19 37  1  0
 21 38  1  0
M  CHG  1  19   1
M  END
>  <meeko>  (3) 
{"is_sidechain": [false], "free_energy": -9.631, "intermolecular_energy": -11.57, "internal_energy": -0.507}

$$$$
4dli_ligand
     RDKit          3D

 38 41  0  0  0  0  0  0  0  0999 V2000
   21.4360  -22.2650  -10.5440 N   0  0  0  0  0  0  0  0  0  0  0  0
   22.0600  -21.0480  -10.2840 C   0  0  0  0  0  0  0  0  0  0  0  0
   22.3240  -20.6610   -8.9710 C   0  0  0  0  0  0  0  0  0  0  0  0
   23.0700  -19.5100   -8.6930 C   0  0  0  0  0  0  0  0  0  0  0  0
   23.6230  -18.7370   -9.7360 C   0  0  0  0  0  0  0  0  0  0  0  0
   24.4060  -17.5720   -9.5630 C   0  0  0  0  0  0  0  0  0  0  0  0
   24.6530  -17.0820   -8.2620 N   0  0  0  0  0  0  0  0  0  0  0  0
   25.5550  -15.9340   -8.0980 C   0  0  0  0  0  0  0  0  0  0  0  0
   25.0550  -14.5280   -8.2750 C   0  0  0  0  0  0  0  0  0  0  0  0
   25.4070  -15.0320   -6.9050 C   0  0  0  0  0  0  0  0  0  0  0  0
   24.8820  -16.8770  -10.6150 N   0  0  0  0  0  0  0  0  0  0  0  0
   24.5910  -17.3370  -11.8410 C   0  0  0  0  0  0  0  0  0  0  0  0
   25.1020  -16.6360  -13.0180 C   0  0  0  0  0  0  0  0  0  0  0  0
   26.2980  -17.0570  -13.6300 C   0  0  0  0  0  0  0  0  0  0  0  0
   26.7910  -16.4160  -14.7680 C   0  0  0  0  0  0  0  0  0  0  0  0
   26.1050  -15.3340  -15.3100 C   0  0  0  0  0  0  0  0  0  0  0  0
   24.9330  -14.8840  -14.7110 C   0  0  0  0  0  0  0  0  0  0  0  0
   24.4360  -15.5250  -13.5730 C   0  0  0  0  0  0  0  0  0  0  0  0
   23.8880  -18.4460  -12.0760 N   0  0  0  0  0  0  0  0  0  0  0  0
   23.3830  -19.1590  -11.0590 C   0  0  0  0  0  0  0  0  0  0  0  0
   22.6300  -20.3140  -11.3240 C   0  0  0  0  0  0  0  0  0  0  0  0
   20.8840  -22.6730   -9.7950 H   0  0  0  0  0  0  0  0  0  0  0  0
   22.0170  -22.9660  -11.0020 H   0  0  0  0  0  0  0  0  0  0  0  0
   21.9396  -21.2704   -8.1398 H   0  0  0  0  0  0  0  0  0  0  0  0
   23.2273  -19.2040   -7.6482 H   0  0  0  0  0  0  0  0  0  0  0  0
   24.8420  -17.8450   -7.6140 H   0  0  0  0  0  0  0  0  0  0  0  0
   26.3720  -16.5237   -8.5392 H   0  0  0  0  0  0  0  0  0  0  0  0
   25.6910  -13.7757   -8.7644 H   0  0  0  0  0  0  0  0  0  0  0  0
   24.1640  -14.0711   -8.7303 H   0  0  0  0  0  0  0  0  0  0  0  0
   26.3009  -14.6489   -6.3910 H   0  0  0  0  0  0  0  0  0  0  0  0
   24.8806  -15.0971   -5.9413 H   0  0  0  0  0  0  0  0  0  0  0  0
   26.8535  -17.9056  -13.2042 H   0  0  0  0  0  0  0  0  0  0  0  0
   27.7225  -16.7667  -15.2364 H   0  0  0  0  0  0  0  0  0  0  0  0
   26.4891  -14.8346  -16.2117 H   0  0  0  0  0  0  0  0  0  0  0  0
   24.3964  -14.0219  -15.1339 H   0  0  0  0  0  0  0  0  0  0  0  0
   23.5117  -15.1571  -13.1037 H   0  0  0  0  0  0  0  0  0  0  0  0
   23.7590  -18.7520  -13.0340 H   0  0  0  0  0  0  0  0  0  0  0  0
   22.4880  -20.6438  -12.3637 H   0  0  0  0  0  0  0  0  0  0  0  0
  1  2  1  0
  2  3  2  0
  3  4  1  0
  4  5  2  0
  5  6  1  0
  6  7  1  0
  7  8  1  0
  8  9  1  0
  9 10  1  0
  6 11  2  0
 11 12  1  0
 12 13  1  0
 13 14  2  0
 14 15  1  0
 15 16  2  0
 16 17  1  0
 17 18  2  0
 12 19  2  0
 19 20  1  0
 20 21  2  0
 21  2  1  0
 20  5  1  0
 10  8  1  0
 18 13  1  0
  1 22  1  0
  1 23  1  0
  3 24  1  0
  4 25  1  0
  7 26  1  0
  8 27  1  0
  9 28  1  0
  9 29  1  0
 10 30  1  0
 10 31  1  0
 14 32  1  0
 15 33  1  0
 16 34  1  0
 17 35  1  0
 18 36  1  0
 19 37  1  0
 21 38  1  0
M  CHG  1  19   1
M  END
>  <meeko>  (4) 
{"is_sidechain": [false], "free_energy": -9.418, "intermolecular_energy": -11.437, "internal_energy": -0.384}

$$$$
4dli_ligand
     RDKit          3D

 38 41  0  0  0  0  0  0  0  0999 V2000
   25.7250  -13.5050   -6.2350 N   0  0  0  0  0  0  0  0  0  0  0  0
   25.4850  -14.5820   -7.0840 C   0  0  0  0  0  0  0  0  0  0  0  0
   24.8860  -15.7420   -6.5940 C   0  0  0  0  0  0  0  0  0  0  0  0
   24.5140  -16.7810   -7.4540 C   0  0  0  0  0  0  0  0  0  0  0  0
   24.6850  -16.6620   -8.8500 C   0  0  0  0  0  0  0  0  0  0  0  0
   24.3240  -17.6400   -9.8040 C   0  0  0  0  0  0  0  0  0  0  0  0
   23.7780  -18.8700   -9.3730 N   0  0  0  0  0  0  0  0  0  0  0  0
   22.7640  -19.5250  -10.2100 C   0  0  0  0  0  0  0  0  0  0  0  0
   22.9460  -20.9400  -10.6790 C   0  0  0  0  0  0  0  0  0  0  0  0
   21.9160  -20.6240   -9.6330 C   0  0  0  0  0  0  0  0  0  0  0  0
   24.5400  -17.4580  -11.1220 N   0  0  0  0  0  0  0  0  0  0  0  0
   25.1060  -16.3010  -11.4990 C   0  0  0  0  0  0  0  0  0  0  0  0
   25.3390  -16.0390  -12.9190 C   0  0  0  0  0  0  0  0  0  0  0  0
   26.4760  -16.5670  -13.5600 C   0  0  0  0  0  0  0  0  0  0  0  0
   26.7050  -16.3480  -14.9200 C   0  0  0  0  0  0  0  0  0  0  0  0
   25.8090  -15.5870  -15.6640 C   0  0  0  0  0  0  0  0  0  0  0  0
   24.6890  -15.0360  -15.0490 C   0  0  0  0  0  0  0  0  0  0  0  0
   24.4560  -15.2550  -13.6880 C   0  0  0  0  0  0  0  0  0  0  0  0
   25.4380  -15.3220  -10.6580 N   0  0  0  0  0  0  0  0  0  0  0  0
   25.2550  -15.4690   -9.3380 C   0  0  0  0  0  0  0  0  0  0  0  0
   25.6280  -14.4350   -8.4640 C   0  0  0  0  0  0  0  0  0  0  0  0
   25.2250  -13.4900   -5.3520 H   0  0  0  0  0  0  0  0  0  0  0  0
   25.7210  -12.5880   -6.6800 H   0  0  0  0  0  0  0  0  0  0  0  0
   24.7030  -15.8418   -5.5139 H   0  0  0  0  0  0  0  0  0  0  0  0
   24.0826  -17.7028   -7.0367 H   0  0  0  0  0  0  0  0  0  0  0  0
   23.5320  -18.8330   -8.3860 H   0  0  0  0  0  0  0  0  0  0  0  0
   22.5706  -18.5653  -10.7115 H   0  0  0  0  0  0  0  0  0  0  0  0
   22.6300  -21.2283  -11.6924 H   0  0  0  0  0  0  0  0  0  0  0  0
   23.7976  -21.6330  -10.7472 H   0  0  0  0  0  0  0  0  0  0  0  0
   20.8456  -20.6804   -9.8803 H   0  0  0  0  0  0  0  0  0  0  0  0
   21.7006  -20.9891   -8.6179 H   0  0  0  0  0  0  0  0  0  0  0  0
   27.1962  -17.1622  -12.9795 H   0  0  0  0  0  0  0  0  0  0  0  0
   27.5947  -16.7776  -15.4035 H   0  0  0  0  0  0  0  0  0  0  0  0
   25.9857  -15.4211  -16.7370 H   0  0  0  0  0  0  0  0  0  0  0  0
   23.9853  -14.4267  -15.6351 H   0  0  0  0  0  0  0  0  0  0  0  0
   23.5709  -14.8090  -13.2107 H   0  0  0  0  0  0  0  0  0  0  0  0
   25.8130  -14.4570  -11.0330 H   0  0  0  0  0  0  0  0  0  0  0  0
   26.0374  -13.4990   -8.8719 H   0  0  0  0  0  0  0  0  0  0  0  0
  1  2  1  0
  2  3  2  0
  3  4  1  0
  4  5  2  0
  5  6  1  0
  6  7  1  0
  7  8  1  0
  8  9  1  0
  9 10  1  0
  6 11  2  0
 11 12  1  0
 12 13  1  0
 13 14  2  0
 14 15  1  0
 15 16  2  0
 16 17  1  0
 17 18  2  0
 12 19  2  0
 19 20  1  0
 20 21  2  0
 21  2  1  0
 20  5  1  0
 10  8  1  0
 18 13  1  0
  1 22  1  0
  1 23  1  0
  3 24  1  0
  4 25  1  0
  7 26  1  0
  8 27  1  0
  9 28  1  0
  9 29  1  0
 10 30  1  0
 10 31  1  0
 14 32  1  0
 15 33  1  0
 16 34  1  0
 17 35  1  0
 18 36  1  0
 19 37  1  0
 21 38  1  0
M  CHG  1  19   1
M  END
>  <meeko>  (5) 
{"is_sidechain": [false], "free_energy": -9.098, "intermolecular_energy": -10.935, "internal_energy": -0.501}

$$$$
4dli_ligand
     RDKit          3D

 38 41  0  0  0  0  0  0  0  0999 V2000
   26.8230  -16.0850  -15.7890 N   0  0  0  0  0  0  0  0  0  0  0  0
   26.3040  -15.8590  -14.5180 C   0  0  0  0  0  0  0  0  0  0  0  0
   26.1190  -14.5560  -14.0560 C   0  0  0  0  0  0  0  0  0  0  0  0
   25.4750  -14.3060  -12.8390 C   0  0  0  0  0  0  0  0  0  0  0  0
   24.9450  -15.3630  -12.0690 C   0  0  0  0  0  0  0  0  0  0  0  0
   24.2610  -15.2170  -10.8410 C   0  0  0  0  0  0  0  0  0  0  0  0
   24.1010  -13.9310  -10.2780 N   0  0  0  0  0  0  0  0  0  0  0  0
   25.1830  -13.3820   -9.4500 C   0  0  0  0  0  0  0  0  0  0  0  0
   24.8960  -12.3700   -8.3780 C   0  0  0  0  0  0  0  0  0  0  0  0
   25.2850  -13.7700   -8.0010 C   0  0  0  0  0  0  0  0  0  0  0  0
   23.8020  -16.2830  -10.1540 N   0  0  0  0  0  0  0  0  0  0  0  0
   24.0120  -17.4960  -10.6880 C   0  0  0  0  0  0  0  0  0  0  0  0
   23.5130  -18.6850   -9.9990 C   0  0  0  0  0  0  0  0  0  0  0  0
   22.7130  -19.6180  -10.6840 C   0  0  0  0  0  0  0  0  0  0  0  0
   22.2450  -20.7720  -10.0510 C   0  0  0  0  0  0  0  0  0  0  0  0
   22.5590  -21.0100   -8.7170 C   0  0  0  0  0  0  0  0  0  0  0  0
   23.3300  -20.0930   -8.0110 C   0  0  0  0  0  0  0  0  0  0  0  0
   23.8010  -18.9370   -8.6430 C   0  0  0  0  0  0  0  0  0  0  0  0
   24.6180  -17.7040  -11.8570 N   0  0  0  0  0  0  0  0  0  0  0  0
   25.1030  -16.6740  -12.5640 C   0  0  0  0  0  0  0  0  0  0  0  0
   25.7550  -16.9120  -13.7850 C   0  0  0  0  0  0  0  0  0  0  0  0
   27.7400  -16.5170  -15.8460 H   0  0  0  0  0  0  0  0  0  0  0  0
   26.7380  -15.3060  -16.4410 H   0  0  0  0  0  0  0  0  0  0  0  0
   26.4852  -13.7113  -14.6580 H   0  0  0  0  0  0  0  0  0  0  0  0
   25.3807  -13.2713  -12.4777 H   0  0  0  0  0  0  0  0  0  0  0  0
   23.1760  -13.8280   -9.8640 H   0  0  0  0  0  0  0  0  0  0  0  0
   25.8549  -13.4148  -10.3203 H   0  0  0  0  0  0  0  0  0  0  0  0
   25.5959  -11.5393   -8.2046 H   0  0  0  0  0  0  0  0  0  0  0  0
   24.0505  -11.7076   -8.1407 H   0  0  0  0  0  0  0  0  0  0  0  0
   26.2700  -13.9652   -7.5518 H   0  0  0  0  0  0  0  0  0  0  0  0
   24.8429  -14.5581   -7.3737 H   0  0  0  0  0  0  0  0  0  0  0  0
   22.4514  -19.4355  -11.7367 H   0  0  0  0  0  0  0  0  0  0  0  0
   21.6280  -21.4927  -10.6077 H   0  0  0  0  0  0  0  0  0  0  0  0
   22.1977  -21.9229   -8.2209 H   0  0  0  0  0  0  0  0  0  0  0  0
   23.5701  -20.2769   -6.9534 H   0  0  0  0  0  0  0  0  0  0  0  0
   24.4045  -18.2149   -8.0734 H   0  0  0  0  0  0  0  0  0  0  0  0
   24.6880  -18.6520  -12.2130 H   0  0  0  0  0  0  0  0  0  0  0  0
   25.8338  -17.9402  -14.1679 H   0  0  0  0  0  0  0  0  0  0  0  0
  1  2  1  0
  2  3  2  0
  3  4  1  0
  4  5  2  0
  5  6  1  0
  6  7  1  0
  7  8  1  0
  8  9  1  0
  9 10  1  0
  6 11  2  0
 11 12  1  0
 12 13  1  0
 13 14  2  0
 14 15  1  0
 15 16  2  0
 16 17  1  0
 17 18  2  0
 12 19  2  0
 19 20  1  0
 20 21  2  0
 21  2  1  0
 20  5  1  0
 10  8  1  0
 18 13  1  0
  1 22  1  0
  1 23  1  0
  3 24  1  0
  4 25  1  0
  7 26  1  0
  8 27  1  0
  9 28  1  0
  9 29  1  0
 10 30  1  0
 10 31  1  0
 14 32  1  0
 15 33  1  0
 16 34  1  0
 17 35  1  0
 18 36  1  0
 19 37  1  0
 21 38  1  0
M  CHG  1  19   1
M  END
>  <meeko>  (6) 
{"is_sidechain": [false], "free_energy": -9.096, "intermolecular_energy": -11.121, "internal_energy": -0.312}

$$$$
4dli_ligand
     RDKit          3D

 38 41  0  0  0  0  0  0  0  0999 V2000
   24.1420  -12.3440  -12.2230 N   0  0  0  0  0  0  0  0  0  0  0  0
   24.4690  -13.2500  -11.2180 C   0  0  0  0  0  0  0  0  0  0  0  0
   25.0830  -12.8080  -10.0470 C   0  0  0  0  0  0  0  0  0  0  0  0
   25.2970  -13.6770   -8.9710 C   0  0  0  0  0  0  0  0  0  0  0  0
   24.8480  -15.0140   -9.0200 C   0  0  0  0  0  0  0  0  0  0  0  0
   24.9950  -15.9640   -7.9840 C   0  0  0  0  0  0  0  0  0  0  0  0
   25.6710  -15.6050   -6.7960 N   0  0  0  0  0  0  0  0  0  0  0  0
   24.9080  -14.9710   -5.7120 C   0  0  0  0  0  0  0  0  0  0  0  0
   25.2760  -15.1980   -4.2740 C   0  0  0  0  0  0  0  0  0  0  0  0
   25.5320  -13.8630   -4.9100 C   0  0  0  0  0  0  0  0  0  0  0  0
   24.5550  -17.2310   -8.1170 N   0  0  0  0  0  0  0  0  0  0  0  0
   23.9600  -17.5580   -9.2750 C   0  0  0  0  0  0  0  0  0  0  0  0
   23.4420  -18.9120   -9.4640 C   0  0  0  0  0  0  0  0  0  0  0  0
   23.0490  -19.3480  -10.7430 C   0  0  0  0  0  0  0  0  0  0  0  0
   22.5730  -20.6450  -10.9490 C   0  0  0  0  0  0  0  0  0  0  0  0
   22.4690  -21.5270   -9.8780 C   0  0  0  0  0  0  0  0  0  0  0  0
   22.8290  -21.1130   -8.6000 C   0  0  0  0  0  0  0  0  0  0  0  0
   23.3080  -19.8160   -8.3910 C   0  0  0  0  0  0  0  0  0  0  0  0
   23.7580  -16.7050  -10.2790 N   0  0  0  0  0  0  0  0  0  0  0  0
   24.1940  -15.4400  -10.1940 C   0  0  0  0  0  0  0  0  0  0  0  0
   23.9890  -14.5590  -11.2680 C   0  0  0  0  0  0  0  0  0  0  0  0
   23.2210  -11.9200  -12.1840 H   0  0  0  0  0  0  0  0  0  0  0  0
   24.3760  -12.6380  -13.1700 H   0  0  0  0  0  0  0  0  0  0  0  0
   25.4045  -11.7591   -9.9675 H   0  0  0  0  0  0  0  0  0  0  0  0
   25.8220  -13.3131   -8.0755 H   0  0  0  0  0  0  0  0  0  0  0  0
   26.5510  -15.1370   -7.0050 H   0  0  0  0  0  0  0  0  0  0  0  0
   23.9866  -15.0916   -6.3006 H   0  0  0  0  0  0  0  0  0  0  0  0
   24.4871  -15.3029   -3.5146 H   0  0  0  0  0  0  0  0  0  0  0  0
   25.8921  -15.9337   -3.7362 H   0  0  0  0  0  0  0  0  0  0  0  0
   24.9305  -12.9898   -4.6172 H   0  0  0  0  0  0  0  0  0  0  0  0
   26.4128  -13.2154   -5.0317 H   0  0  0  0  0  0  0  0  0  0  0  0
   23.1178  -18.6557  -11.5950 H   0  0  0  0  0  0  0  0  0  0  0  0
   22.2802  -20.9692  -11.9585 H   0  0  0  0  0  0  0  0  0  0  0  0
   22.1023  -22.5510  -10.0419 H   0  0  0  0  0  0  0  0  0  0  0  0
   22.7367  -21.8073   -7.7518 H   0  0  0  0  0  0  0  0  0  0  0  0
   23.5840  -19.4968   -7.3752 H   0  0  0  0  0  0  0  0  0  0  0  0
   23.2520  -17.0220  -11.0990 H   0  0  0  0  0  0  0  0  0  0  0  0
   23.4439  -14.9048  -12.1587 H   0  0  0  0  0  0  0  0  0  0  0  0
  1  2  1  0
  2  3  2  0
  3  4  1  0
  4  5  2  0
  5  6  1  0
  6  7  1  0
  7  8  1  0
  8  9  1  0
  9 10  1  0
  6 11  2  0
 11 12  1  0
 12 13  1  0
 13 14  2  0
 14 15  1  0
 15 16  2  0
 16 17  1  0
 17 18  2  0
 12 19  2  0
 19 20  1  0
 20 21  2  0
 21  2  1  0
 20  5  1  0
 10  8  1  0
 18 13  1  0
  1 22  1  0
  1 23  1  0
  3 24  1  0
  4 25  1  0
  7 26  1  0
  8 27  1  0
  9 28  1  0
  9 29  1  0
 10 30  1  0
 10 31  1  0
 14 32  1  0
 15 33  1  0
 16 34  1  0
 17 35  1  0
 18 36  1  0
 19 37  1  0
 21 38  1  0
M  CHG  1  19   1
M  END
>  <meeko>  (7) 
{"is_sidechain": [false], "free_energy": -8.733, "intermolecular_energy": -10.459, "internal_energy": -0.537}

$$$$
4dli_ligand
     RDKit          3D

 38 41  0  0  0  0  0  0  0  0999 V2000
   24.4190  -14.8640  -14.5110 N   0  0  0  0  0  0  0  0  0  0  0  0
   24.6270  -15.4070  -13.2460 C   0  0  0  0  0  0  0  0  0  0  0  0
   25.3640  -14.7040  -12.2930 C   0  0  0  0  0  0  0  0  0  0  0  0
   25.4720  -15.1680  -10.9780 C   0  0  0  0  0  0  0  0  0  0  0  0
   24.7920  -16.3330  -10.5620 C   0  0  0  0  0  0  0  0  0  0  0  0
   24.8170  -16.8730   -9.2560 C   0  0  0  0  0  0  0  0  0  0  0  0
   25.6010  -16.2520   -8.2580 N   0  0  0  0  0  0  0  0  0  0  0  0
   25.0570  -15.0810   -7.5570 C   0  0  0  0  0  0  0  0  0  0  0  0
   25.6490  -14.6140   -6.2580 C   0  0  0  0  0  0  0  0  0  0  0  0
   25.8500  -13.8060   -7.5070 C   0  0  0  0  0  0  0  0  0  0  0  0
   24.1550  -18.0040   -8.9440 N   0  0  0  0  0  0  0  0  0  0  0  0
   23.4580  -18.6000   -9.9240 C   0  0  0  0  0  0  0  0  0  0  0  0
   22.7000  -19.8170   -9.6360 C   0  0  0  0  0  0  0  0  0  0  0  0
   22.7370  -20.3870   -8.3500 C   0  0  0  0  0  0  0  0  0  0  0  0
   22.0020  -21.5350   -8.0470 C   0  0  0  0  0  0  0  0  0  0  0  0
   21.2250  -22.1430   -9.0280 C   0  0  0  0  0  0  0  0  0  0  0  0
   21.1880  -21.6120  -10.3140 C   0  0  0  0  0  0  0  0  0  0  0  0
   21.9220  -20.4610  -10.6190 C   0  0  0  0  0  0  0  0  0  0  0  0
   23.3630  -18.1280  -11.1670 N   0  0  0  0  0  0  0  0  0  0  0  0
   24.0180  -17.0140  -11.5230 C   0  0  0  0  0  0  0  0  0  0  0  0
   23.9220  -16.5410  -12.8420 C   0  0  0  0  0  0  0  0  0  0  0  0
   25.2070  -14.8600  -15.1500 H   0  0  0  0  0  0  0  0  0  0  0  0
   23.9210  -13.9750  -14.5280 H   0  0  0  0  0  0  0  0  0  0  0  0
   25.8684  -13.7696  -12.5803 H   0  0  0  0  0  0  0  0  0  0  0  0
   26.0954  -14.6175  -10.2580 H   0  0  0  0  0  0  0  0  0  0  0  0
   26.5620  -16.1300   -8.5730 H   0  0  0  0  0  0  0  0  0  0  0  0
   24.0464  -15.3645   -7.8862 H   0  0  0  0  0  0  0  0  0  0  0  0
   24.9936  -14.2373   -5.4589 H   0  0  0  0  0  0  0  0  0  0  0  0
   26.3150  -15.0573   -5.5030 H   0  0  0  0  0  0  0  0  0  0  0  0
   25.3418  -12.8374   -7.6231 H   0  0  0  0  0  0  0  0  0  0  0  0
   26.7241  -13.4121   -8.0462 H   0  0  0  0  0  0  0  0  0  0  0  0
   23.3558  -19.9200   -7.5696 H   0  0  0  0  0  0  0  0  0  0  0  0
   22.0373  -21.9587   -7.0325 H   0  0  0  0  0  0  0  0  0  0  0  0
   20.6402  -23.0430   -8.7873 H   0  0  0  0  0  0  0  0  0  0  0  0
   20.5807  -22.0982  -11.0917 H   0  0  0  0  0  0  0  0  0  0  0  0
   21.8916  -20.0529  -11.6400 H   0  0  0  0  0  0  0  0  0  0  0  0
   22.7710  -18.6130  -11.8330 H   0  0  0  0  0  0  0  0  0  0  0  0
   23.2838  -17.0707  -13.5646 H   0  0  0  0  0  0  0  0  0  0  0  0
  1  2  1  0
  2  3  2  0
  3  4  1  0
  4  5  2  0
  5  6  1  0
  6  7  1  0
  7  8  1  0
  8  9  1  0
  9 10  1  0
  6 11  2  0
 11 12  1  0
 12 13  1  0
 13 14  2  0
 14 15  1  0
 15 16  2  0
 16 17  1  0
 17 18  2  0
 12 19  2  0
 19 20  1  0
 20 21  2  0
 21  2  1  0
 20  5  1  0
 10  8  1  0
 18 13  1  0
  1 22  1  0
  1 23  1  0
  3 24  1  0
  4 25  1  0
  7 26  1  0
  8 27  1  0
  9 28  1  0
  9 29  1  0
 10 30  1  0
 10 31  1  0
 14 32  1  0
 15 33  1  0
 16 34  1  0
 17 35  1  0
 18 36  1  0
 19 37  1  0
 21 38  1  0
M  CHG  1  19   1
M  END
>  <meeko>  (8) 
{"is_sidechain": [false], "free_energy": -8.369, "intermolecular_energy": -10.047, "internal_energy": -0.51}

$$$$
4dli_ligand
     RDKit          3D

 38 41  0  0  0  0  0  0  0  0999 V2000
   24.5210  -13.5070  -13.9870 N   0  0  0  0  0  0  0  0  0  0  0  0
   24.3750  -14.4800  -13.0020 C   0  0  0  0  0  0  0  0  0  0  0  0
   24.2040  -15.8170  -13.3560 C   0  0  0  0  0  0  0  0  0  0  0  0
   24.1920  -16.8250  -12.3860 C   0  0  0  0  0  0  0  0  0  0  0  0
   24.4050  -16.5220  -11.0240 C   0  0  0  0  0  0  0  0  0  0  0  0
   24.4320  -17.4650   -9.9720 C   0  0  0  0  0  0  0  0  0  0  0  0
   24.1950  -18.8300  -10.2490 N   0  0  0  0  0  0  0  0  0  0  0  0
   22.8850  -19.4030   -9.9110 C   0  0  0  0  0  0  0  0  0  0  0  0
   22.1690  -20.3100  -10.8700 C   0  0  0  0  0  0  0  0  0  0  0  0
   22.7670  -20.8720   -9.6130 C   0  0  0  0  0  0  0  0  0  0  0  0
   24.6220  -17.0920   -8.6910 N   0  0  0  0  0  0  0  0  0  0  0  0
   24.7950  -15.7830   -8.4500 C   0  0  0  0  0  0  0  0  0  0  0  0
   25.0310  -15.3240   -7.0820 C   0  0  0  0  0  0  0  0  0  0  0  0
   25.5850  -14.0520   -6.8460 C   0  0  0  0  0  0  0  0  0  0  0  0
   25.7970  -13.5850   -5.5470 C   0  0  0  0  0  0  0  0  0  0  0  0
   25.4690  -14.3860   -4.4580 C   0  0  0  0  0  0  0  0  0  0  0  0
   24.9410  -15.6560   -4.6630 C   0  0  0  0  0  0  0  0  0  0  0  0
   24.7260  -16.1250   -5.9630 C   0  0  0  0  0  0  0  0  0  0  0  0
   24.8160  -14.8450   -9.3970 N   0  0  0  0  0  0  0  0  0  0  0  0
   24.6160  -15.1710  -10.6820 C   0  0  0  0  0  0  0  0  0  0  0  0
   24.6220  -14.1690  -11.6650 C   0  0  0  0  0  0  0  0  0  0  0  0
   24.9440  -12.6260  -13.7110 H   0  0  0  0  0  0  0  0  0  0  0  0
   23.7050  -13.3580  -14.5790 H   0  0  0  0  0  0  0  0  0  0  0  0
   24.0764  -16.0841  -14.4154 H   0  0  0  0  0  0  0  0  0  0  0  0
   24.0142  -17.8675  -12.6887 H   0  0  0  0  0  0  0  0  0  0  0  0
   24.9820  -19.4040   -9.9500 H   0  0  0  0  0  0  0  0  0  0  0  0
   22.6222  -18.4722   -9.3870 H   0  0  0  0  0  0  0  0  0  0  0  0
   21.0762  -20.2442  -10.9772 H   0  0  0  0  0  0  0  0  0  0  0  0
   22.2610  -20.5353  -11.9427 H   0  0  0  0  0  0  0  0  0  0  0  0
   22.1125  -21.2174   -8.7991 H   0  0  0  0  0  0  0  0  0  0  0  0
   23.4785  -21.6788   -9.3831 H   0  0  0  0  0  0  0  0  0  0  0  0
   25.8559  -13.4140   -7.7002 H   0  0  0  0  0  0  0  0  0  0  0  0
   26.2233  -12.5840   -5.3850 H   0  0  0  0  0  0  0  0  0  0  0  0
   25.6273  -14.0148   -3.4347 H   0  0  0  0  0  0  0  0  0  0  0  0
   24.6920  -16.2928   -3.8013 H   0  0  0  0  0  0  0  0  0  0  0  0
   24.3130  -17.1332   -6.1143 H   0  0  0  0  0  0  0  0  0  0  0  0
   25.0070  -13.8840   -9.1330 H   0  0  0  0  0  0  0  0  0  0  0  0
   24.8238  -13.1266  -11.3776 H   0  0  0  0  0  0  0  0  0  0  0  0
  1  2  1  0
  2  3  2  0
  3  4  1  0
  4  5  2  0
  5  6  1  0
  6  7  1  0
  7  8  1  0
  8  9  1  0
  9 10  1  0
  6 11  2  0
 11 12  1  0
 12 13  1  0
 13 14  2  0
 14 15  1  0
 15 16  2  0
 16 17  1  0
 17 18  2  0
 12 19  2  0
 19 20  1  0
 20 21  2  0
 21  2  1  0
 20  5  1  0
 10  8  1  0
 18 13  1  0
  1 22  1  0
  1 23  1  0
  3 24  1  0
  4 25  1  0
  7 26  1  0
  8 27  1  0
  9 28  1  0
  9 29  1  0
 10 30  1  0
 10 31  1  0
 14 32  1  0
 15 33  1  0
 16 34  1  0
 17 35  1  0
 18 36  1  0
 19 37  1  0
 21 38  1  0
M  CHG  1  19   1
M  END
>  <meeko>  (9) 
{"is_sidechain": [false], "free_energy": -7.793, "intermolecular_energy": -9.266, "internal_energy": -0.598}

$$$$
