1bcu_ligand
     RDKit          3D

 28 30  0  0  0  0  0  0  0  0999 V2000
   11.3620   23.2210   46.8530 N   0  0  0  0  0  0  0  0  0  0  0  0
   10.6770   22.8540   48.0110 C   0  0  0  0  0  0  0  0  0  0  0  0
    9.6780   23.6830   48.5270 C   0  0  0  0  0  0  0  0  0  0  0  0
    8.8900   23.2780   49.6090 C   0  0  0  0  0  0  0  0  0  0  0  0
    9.0600   22.0040   50.1650 C   0  0  0  0  0  0  0  0  0  0  0  0
    8.2920   21.5530   51.2440 C   0  0  0  0  0  0  0  0  0  0  0  0
    8.4850   20.2630   51.7510 C   0  0  0  0  0  0  0  0  0  0  0  0
    7.7580   19.7730   52.8430 C   0  0  0  0  0  0  0  0  0  0  0  0
    7.9890   18.4780   53.3160 C   0  0  0  0  0  0  0  0  0  0  0  0
    8.9060   17.6320   52.6880 C   0  0  0  0  0  0  0  0  0  0  0  0
    9.2180   16.3960   53.2520 N   0  0  0  0  0  0  0  0  0  0  0  0
    9.6690   18.1340   51.6310 C   0  0  0  0  0  0  0  0  0  0  0  0
    9.4550   19.4320   51.1520 C   0  0  0  0  0  0  0  0  0  0  0  0
   10.1750   19.9080   50.1210 N   0  0  0  0  0  0  0  0  0  0  0  0
   10.0280   21.1430   49.6080 C   0  0  0  0  0  0  0  0  0  0  0  0
   10.8170   21.5650   48.5310 C   0  0  0  0  0  0  0  0  0  0  0  0
   12.0210   22.5290   46.5010 H   0  0  0  0  0  0  0  0  0  0  0  0
   10.8110   23.6260   46.1020 H   0  0  0  0  0  0  0  0  0  0  0  0
    9.5083   24.6712   48.0745 H   0  0  0  0  0  0  0  0  0  0  0  0
    8.1349   23.9617   50.0243 H   0  0  0  0  0  0  0  0  0  0  0  0
    7.5358   22.2130   51.6942 H   0  0  0  0  0  0  0  0  0  0  0  0
    7.0035   20.4085   53.3296 H   0  0  0  0  0  0  0  0  0  0  0  0
    7.4389   18.1189   54.1983 H   0  0  0  0  0  0  0  0  0  0  0  0
    8.4200   15.7900   53.4360 H   0  0  0  0  0  0  0  0  0  0  0  0
    9.9870   15.8820   52.8350 H   0  0  0  0  0  0  0  0  0  0  0  0
   10.4446   17.5040   51.1711 H   0  0  0  0  0  0  0  0  0  0  0  0
   10.8740   19.2980   49.7040 H   0  0  0  0  0  0  0  0  0  0  0  0
   11.5529   20.8761   48.0908 H   0  0  0  0  0  0  0  0  0  0  0  0
  1  2  1  0
  2  3  2  0
  3  4  1  0
  4  5  2  0
  5  6  1  0
  6  7  2  0
  7  8  1  0
  8  9  2  0
  9 10  1  0
 10 11  1  0
 10 12  2  0
 12 13  1  0
 13 14  2  0
 14 15  1  0
 15 16  2  0
 16  2  1  0
 15  5  1  0
 13  7  1  0
  1 17  1  0
  1 18  1  0
  3 19  1  0
  4 20  1  0
  6 21  1  0
  8 22  1  0
  9 23  1  0
 11 24  1  0
 11 25  1  0
 12 26  1  0
 14 27  1  0
 16 28  1  0
M  CHG  1  14   1
M  END
>  <meeko>  (1) 
{"is_sidechain": [false], "free_energy": -7.174, "intermolecular_energy": -7.593, "internal_energy": 0.0}

$$$$
1bcu_ligand
     RDKit          3D

 28 30  0  0  0  0  0  0  0  0999 V2000
    9.1690   16.3870   53.3020 N   0  0  0  0  0  0  0  0  0  0  0  0
    8.8630   17.6180   52.7230 C   0  0  0  0  0  0  0  0  0  0  0  0
    7.9340   18.4670   53.3310 C   0  0  0  0  0  0  0  0  0  0  0  0
    7.7060   19.7580   52.8430 C   0  0  0  0  0  0  0  0  0  0  0  0
    8.4480   20.2400   51.7580 C   0  0  0  0  0  0  0  0  0  0  0  0
    8.2600   21.5250   51.2380 C   0  0  0  0  0  0  0  0  0  0  0  0
    9.0410   21.9700   50.1660 C   0  0  0  0  0  0  0  0  0  0  0  0
    8.8770   23.2380   49.5970 C   0  0  0  0  0  0  0  0  0  0  0  0
    9.6800   23.6350   48.5230 C   0  0  0  0  0  0  0  0  0  0  0  0
   10.6890   22.8060   48.0290 C   0  0  0  0  0  0  0  0  0  0  0  0
   11.3890   23.1640   46.8790 N   0  0  0  0  0  0  0  0  0  0  0  0
   10.8230   21.5210   48.5610 C   0  0  0  0  0  0  0  0  0  0  0  0
   10.0200   21.1060   49.6310 C   0  0  0  0  0  0  0  0  0  0  0  0
   10.1630   19.8760   50.1560 N   0  0  0  0  0  0  0  0  0  0  0  0
    9.4290   19.4070   51.1800 C   0  0  0  0  0  0  0  0  0  0  0  0
    9.6390   18.1120   51.6720 C   0  0  0  0  0  0  0  0  0  0  0  0
    9.7780   16.4300   54.1170 H   0  0  0  0  0  0  0  0  0  0  0  0
    8.3970   15.7430   53.4470 H   0  0  0  0  0  0  0  0  0  0  0  0
    7.3724   18.1139   54.2085 H   0  0  0  0  0  0  0  0  0  0  0  0
    6.9424   20.3956   53.3125 H   0  0  0  0  0  0  0  0  0  0  0  0
    7.4966   22.1868   51.6729 H   0  0  0  0  0  0  0  0  0  0  0  0
    8.1149   23.9239   49.9954 H   0  0  0  0  0  0  0  0  0  0  0  0
    9.5136   24.6184   48.0590 H   0  0  0  0  0  0  0  0  0  0  0  0
   11.1470   24.0740   46.4900 H   0  0  0  0  0  0  0  0  0  0  0  0
   12.3930   23.0190   46.8880 H   0  0  0  0  0  0  0  0  0  0  0  0
   11.5654   20.8294   48.1360 H   0  0  0  0  0  0  0  0  0  0  0  0
   10.8690   19.2640   49.7540 H   0  0  0  0  0  0  0  0  0  0  0  0
   10.4212   17.4794   51.2270 H   0  0  0  0  0  0  0  0  0  0  0  0
  1  2  1  0
  2  3  2  0
  3  4  1  0
  4  5  2  0
  5  6  1  0
  6  7  2  0
  7  8  1  0
  8  9  2  0
  9 10  1  0
 10 11  1  0
 10 12  2  0
 12 13  1  0
 13 14  2  0
 14 15  1  0
 15 16  2  0
 16  2  1  0
 15  5  1  0
 13  7  1  0
  1 17  1  0
  1 18  1  0
  3 19  1  0
  4 20  1  0
  6 21  1  0
  8 22  1  0
  9 23  1  0
 11 24  1  0
 11 25  1  0
 12 26  1  0
 14 27  1  0
 16 28  1  0
M  CHG  1  14   1
M  END
>  <meeko>  (2) 
{"is_sidechain": [false], "free_energy": -7.155, "intermolecular_energy": -7.573, "internal_energy": 0.0}

$$$$
1bcu_ligand
     RDKit          3D

 28 30  0  0  0  0  0  0  0  0999 V2000
   10.2430   24.9190   46.9050 N   0  0  0  0  0  0  0  0  0  0  0  0
   10.1590   23.7030   47.5840 C   0  0  0  0  0  0  0  0  0  0  0  0
   11.0490   22.6700   47.2830 C   0  0  0  0  0  0  0  0  0  0  0  0
   11.0690   21.4910   48.0360 C   0  0  0  0  0  0  0  0  0  0  0  0
   10.2230   21.3490   49.1420 C   0  0  0  0  0  0  0  0  0  0  0  0
   10.2110   20.1910   49.9270 C   0  0  0  0  0  0  0  0  0  0  0  0
    9.3620   20.1050   51.0370 C   0  0  0  0  0  0  0  0  0  0  0  0
    9.2980   18.9610   51.8410 C   0  0  0  0  0  0  0  0  0  0  0  0
    8.4300   18.9210   52.9370 C   0  0  0  0  0  0  0  0  0  0  0  0
    7.6510   20.0270   53.2830 C   0  0  0  0  0  0  0  0  0  0  0  0
    6.6990   19.9240   54.2950 N   0  0  0  0  0  0  0  0  0  0  0  0
    7.6750   21.1520   52.4550 C   0  0  0  0  0  0  0  0  0  0  0  0
    8.5330   21.2030   51.3480 C   0  0  0  0  0  0  0  0  0  0  0  0
    8.5710   22.2930   50.5620 N   0  0  0  0  0  0  0  0  0  0  0  0
    9.3650   22.4150   49.4840 C   0  0  0  0  0  0  0  0  0  0  0  0
    9.3480   23.5850   48.7150 C   0  0  0  0  0  0  0  0  0  0  0  0
   10.4830   25.7220   47.4830 H   0  0  0  0  0  0  0  0  0  0  0  0
   10.7580   24.9220   46.0300 H   0  0  0  0  0  0  0  0  0  0  0  0
   11.7460   22.7851   46.4398 H   0  0  0  0  0  0  0  0  0  0  0  0
   11.7510   20.6739   47.7582 H   0  0  0  0  0  0  0  0  0  0  0  0
   10.8692   19.3473   49.6719 H   0  0  0  0  0  0  0  0  0  0  0  0
    9.9315   18.0918   51.6104 H   0  0  0  0  0  0  0  0  0  0  0  0
    8.3598   18.0018   53.5371 H   0  0  0  0  0  0  0  0  0  0  0  0
    6.0250   19.1680   54.1820 H   0  0  0  0  0  0  0  0  0  0  0  0
    7.0360   19.9800   55.2500 H   0  0  0  0  0  0  0  0  0  0  0  0
    7.0152   22.0046   52.6737 H   0  0  0  0  0  0  0  0  0  0  0  0
    7.9620   23.0730   50.7980 H   0  0  0  0  0  0  0  0  0  0  0  0
    8.6905   24.4181   49.0040 H   0  0  0  0  0  0  0  0  0  0  0  0
  1  2  1  0
  2  3  2  0
  3  4  1  0
  4  5  2  0
  5  6  1  0
  6  7  2  0
  7  8  1  0
  8  9  2  0
  9 10  1  0
 10 11  1  0
 10 12  2  0
 12 13  1  0
 13 14  2  0
 14 15  1  0
 15 16  2  0
 16  2  1  0
 15  5  1  0
 13  7  1  0
  1 17  1  0
  1 18  1  0
  3 19  1  0
  4 20  1  0
  6 21  1  0
  8 22  1  0
  9 23  1  0
 11 24  1  0
 11 25  1  0
 12 26  1  0
 14 27  1  0
 16 28  1  0
M  CHG  1  14   1
M  END
>  <meeko>  (3) 
{"is_sidechain": [false], "free_energy": -6.935, "intermolecular_energy": -7.34, "internal_energy": 0.0}

$$$$
1bcu_ligand
     RDKit          3D

 28 30  0  0  0  0  0  0  0  0999 V2000
    6.7230   19.6850   54.2380 N   0  0  0  0  0  0  0  0  0  0  0  0
    7.6770   19.8570   53.2370 C   0  0  0  0  0  0  0  0  0  0  0  0
    8.5150   18.7990   52.8770 C   0  0  0  0  0  0  0  0  0  0  0  0
    9.3900   18.9050   51.7910 C   0  0  0  0  0  0  0  0  0  0  0  0
    9.4040   20.0680   51.0110 C   0  0  0  0  0  0  0  0  0  0  0  0
   10.2570   20.2190   49.9130 C   0  0  0  0  0  0  0  0  0  0  0  0
   10.2190   21.3930   49.1510 C   0  0  0  0  0  0  0  0  0  0  0  0
   11.0660   21.6010   48.0570 C   0  0  0  0  0  0  0  0  0  0  0  0
   10.9940   22.7930   47.3290 C   0  0  0  0  0  0  0  0  0  0  0  0
   10.0500   23.7740   47.6410 C   0  0  0  0  0  0  0  0  0  0  0  0
   10.0790   25.0050   46.9900 N   0  0  0  0  0  0  0  0  0  0  0  0
    9.2360   23.5920   48.7620 C   0  0  0  0  0  0  0  0  0  0  0  0
    9.3050   22.4070   49.5060 C   0  0  0  0  0  0  0  0  0  0  0  0
    8.5080   22.2240   50.5730 N   0  0  0  0  0  0  0  0  0  0  0  0
    8.5170   21.1160   51.3370 C   0  0  0  0  0  0  0  0  0  0  0  0
    7.6540   21.0000   52.4330 C   0  0  0  0  0  0  0  0  0  0  0  0
    5.9050   19.1400   53.9700 H   0  0  0  0  0  0  0  0  0  0  0  0
    7.0630   19.4170   55.1570 H   0  0  0  0  0  0  0  0  0  0  0  0
    8.4862   17.8655   53.4582 H   0  0  0  0  0  0  0  0  0  0  0  0
   10.0683   18.0735   51.5492 H   0  0  0  0  0  0  0  0  0  0  0  0
   10.9586   19.4144   49.6477 H   0  0  0  0  0  0  0  0  0  0  0  0
   11.7904   20.8250   47.7687 H   0  0  0  0  0  0  0  0  0  0  0  0
   11.6929   22.9608   46.4963 H   0  0  0  0  0  0  0  0  0  0  0  0
   10.2120   25.8130   47.5960 H   0  0  0  0  0  0  0  0  0  0  0  0
   10.6520   25.0700   46.1550 H   0  0  0  0  0  0  0  0  0  0  0  0
    8.5357   24.3852   49.0626 H   0  0  0  0  0  0  0  0  0  0  0  0
    7.8580   22.9670   50.8180 H   0  0  0  0  0  0  0  0  0  0  0  0
    6.9521   21.8150   52.6633 H   0  0  0  0  0  0  0  0  0  0  0  0
  1  2  1  0
  2  3  2  0
  3  4  1  0
  4  5  2  0
  5  6  1  0
  6  7  2  0
  7  8  1  0
  8  9  2  0
  9 10  1  0
 10 11  1  0
 10 12  2  0
 12 13  1  0
 13 14  2  0
 14 15  1  0
 15 16  2  0
 16  2  1  0
 15  5  1  0
 13  7  1  0
  1 17  1  0
  1 18  1  0
  3 19  1  0
  4 20  1  0
  6 21  1  0
  8 22  1  0
  9 23  1  0
 11 24  1  0
 11 25  1  0
 12 26  1  0
 14 27  1  0
 16 28  1  0
M  CHG  1  14   1
M  END
>  <meeko>  (4) 
{"is_sidechain": [false], "free_energy": -6.911, "intermolecular_energy": -7.315, "internal_energy": 0.0}

$$$$
1bcu_ligand
     RDKit          3D

 28 30  0  0  0  0  0  0  0  0999 V2000
   11.7370   22.7480   47.2790 N   0  0  0  0  0  0  0  0  0  0  0  0
   10.6940   22.4990   48.1720 C   0  0  0  0  0  0  0  0  0  0  0  0
    9.9200   23.5560   48.6560 C   0  0  0  0  0  0  0  0  0  0  0  0
    8.7900   23.3220   49.4470 C   0  0  0  0  0  0  0  0  0  0  0  0
    8.3890   22.0100   49.7280 C   0  0  0  0  0  0  0  0  0  0  0  0
    7.2650   21.7260   50.5110 C   0  0  0  0  0  0  0  0  0  0  0  0
    6.8910   20.3980   50.7460 C   0  0  0  0  0  0  0  0  0  0  0  0
    5.7880   20.0610   51.5390 C   0  0  0  0  0  0  0  0  0  0  0  0
    5.4570   18.7190   51.7480 C   0  0  0  0  0  0  0  0  0  0  0  0
    6.1810   17.6920   51.1370 C   0  0  0  0  0  0  0  0  0  0  0  0
    5.9180   16.3630   51.4610 N   0  0  0  0  0  0  0  0  0  0  0  0
    7.3110   18.0220   50.3860 C   0  0  0  0  0  0  0  0  0  0  0  0
    7.6600   19.3620   50.1760 C   0  0  0  0  0  0  0  0  0  0  0  0
    8.7370   19.6790   49.4360 N   0  0  0  0  0  0  0  0  0  0  0  0
    9.1360   20.9400   49.1920 C   0  0  0  0  0  0  0  0  0  0  0  0
   10.2700   21.1900   48.4090 C   0  0  0  0  0  0  0  0  0  0  0  0
   11.4490   23.0070   46.3380 H   0  0  0  0  0  0  0  0  0  0  0  0
   12.4960   23.3340   47.6120 H   0  0  0  0  0  0  0  0  0  0  0  0
   10.2037   24.5902   48.4111 H   0  0  0  0  0  0  0  0  0  0  0  0
    8.2157   24.1698   49.8488 H   0  0  0  0  0  0  0  0  0  0  0  0
    6.6744   22.5476   50.9425 H   0  0  0  0  0  0  0  0  0  0  0  0
    5.1801   20.8541   51.9989 H   0  0  0  0  0  0  0  0  0  0  0  0
    4.6116   18.4671   52.4051 H   0  0  0  0  0  0  0  0  0  0  0  0
    5.9810   15.7060   50.6850 H   0  0  0  0  0  0  0  0  0  0  0  0
    6.3660   15.9960   52.2950 H   0  0  0  0  0  0  0  0  0  0  0  0
    7.9323   17.2228   49.9557 H   0  0  0  0  0  0  0  0  0  0  0  0
    9.2840   18.9200   49.0370 H   0  0  0  0  0  0  0  0  0  0  0  0
   10.8312   20.3482   47.9772 H   0  0  0  0  0  0  0  0  0  0  0  0
  1  2  1  0
  2  3  2  0
  3  4  1  0
  4  5  2  0
  5  6  1  0
  6  7  2  0
  7  8  1  0
  8  9  2  0
  9 10  1  0
 10 11  1  0
 10 12  2  0
 12 13  1  0
 13 14  2  0
 14 15  1  0
 15 16  2  0
 16  2  1  0
 15  5  1  0
 13  7  1  0
  1 17  1  0
  1 18  1  0
  3 19  1  0
  4 20  1  0
  6 21  1  0
  8 22  1  0
  9 23  1  0
 11 24  1  0
 11 25  1  0
 12 26  1  0
 14 27  1  0
 16 28  1  0
M  CHG  1  14   1
M  END
>  <meeko>  (5) 
{"is_sidechain": [false], "free_energy": -6.435, "intermolecular_energy": -6.811, "internal_energy": 0.0}

$$$$
1bcu_ligand
     RDKit          3D

 28 30  0  0  0  0  0  0  0  0999 V2000
   10.2500   20.9030   49.7300 N   0  0  0  0  0  0  0  0  0  0  0  0
    9.0170   20.7540   50.3630 C   0  0  0  0  0  0  0  0  0  0  0  0
    8.8760   21.0870   51.7120 C   0  0  0  0  0  0  0  0  0  0  0  0
    7.6240   21.0700   52.3350 C   0  0  0  0  0  0  0  0  0  0  0  0
    6.4760   20.7620   51.5960 C   0  0  0  0  0  0  0  0  0  0  0  0
    5.2020   20.7370   52.1750 C   0  0  0  0  0  0  0  0  0  0  0  0
    4.0810   20.4440   51.3890 C   0  0  0  0  0  0  0  0  0  0  0  0
    2.7890   20.3850   51.9240 C   0  0  0  0  0  0  0  0  0  0  0  0
    1.7000   20.0840   51.0990 C   0  0  0  0  0  0  0  0  0  0  0  0
    1.8670   19.8860   49.7270 C   0  0  0  0  0  0  0  0  0  0  0  0
    0.7940   19.4590   48.9470 N   0  0  0  0  0  0  0  0  0  0  0  0
    3.1590   19.8950   49.1980 C   0  0  0  0  0  0  0  0  0  0  0  0
    4.2600   20.1850   50.0140 C   0  0  0  0  0  0  0  0  0  0  0  0
    5.5030   20.2130   49.5010 N   0  0  0  0  0  0  0  0  0  0  0  0
    6.6070   20.4820   50.2200 C   0  0  0  0  0  0  0  0  0  0  0  0
    7.8680   20.4930   49.6110 C   0  0  0  0  0  0  0  0  0  0  0  0
   10.2050   21.2080   48.7590 H   0  0  0  0  0  0  0  0  0  0  0  0
   10.9730   21.3980   50.2430 H   0  0  0  0  0  0  0  0  0  0  0  0
    9.7656   21.3677   52.2949 H   0  0  0  0  0  0  0  0  0  0  0  0
    7.5414   21.2991   53.4077 H   0  0  0  0  0  0  0  0  0  0  0  0
    5.0814   20.9476   53.2479 H   0  0  0  0  0  0  0  0  0  0  0  0
    2.6295   20.5757   52.9955 H   0  0  0  0  0  0  0  0  0  0  0  0
    0.6951   20.0019   51.5387 H   0  0  0  0  0  0  0  0  0  0  0  0
    0.8600   19.6870   47.9560 H   0  0  0  0  0  0  0  0  0  0  0  0
    0.4730   18.5070   49.0880 H   0  0  0  0  0  0  0  0  0  0  0  0
    3.3136   19.6726   48.1319 H   0  0  0  0  0  0  0  0  0  0  0  0
    5.6150   20.0190   48.5090 H   0  0  0  0  0  0  0  0  0  0  0  0
    7.9550   20.2947   48.5325 H   0  0  0  0  0  0  0  0  0  0  0  0
  1  2  1  0
  2  3  2  0
  3  4  1  0
  4  5  2  0
  5  6  1  0
  6  7  2  0
  7  8  1  0
  8  9  2  0
  9 10  1  0
 10 11  1  0
 10 12  2  0
 12 13  1  0
 13 14  2  0
 14 15  1  0
 15 16  2  0
 16  2  1  0
 15  5  1  0
 13  7  1  0
  1 17  1  0
  1 18  1  0
  3 19  1  0
  4 20  1  0
  6 21  1  0
  8 22  1  0
  9 23  1  0
 11 24  1  0
 11 25  1  0
 12 26  1  0
 14 27  1  0
 16 28  1  0
M  CHG  1  14   1
M  END
>  <meeko>  (6) 
{"is_sidechain": [false], "free_energy": -6.393, "intermolecular_energy": -6.766, "internal_energy": 0.0}

$$$$
1bcu_ligand
     RDKit          3D

 28 30  0  0  0  0  0  0  0  0999 V2000
    0.8040   19.3780   48.8540 N   0  0  0  0  0  0  0  0  0  0  0  0
    1.8580   19.8330   49.6450 C   0  0  0  0  0  0  0  0  0  0  0  0
    1.6630   20.0590   51.0100 C   0  0  0  0  0  0  0  0  0  0  0  0
    2.7320   20.3900   51.8490 C   0  0  0  0  0  0  0  0  0  0  0  0
    4.0330   20.4530   51.3360 C   0  0  0  0  0  0  0  0  0  0  0  0
    5.1350   20.7760   52.1370 C   0  0  0  0  0  0  0  0  0  0  0  0
    6.4200   20.8050   51.5830 C   0  0  0  0  0  0  0  0  0  0  0  0
    7.5510   21.1420   52.3350 C   0  0  0  0  0  0  0  0  0  0  0  0
    8.8130   21.1610   51.7360 C   0  0  0  0  0  0  0  0  0  0  0  0
    8.9840   20.8000   50.3970 C   0  0  0  0  0  0  0  0  0  0  0  0
   10.2260   20.9520   49.7840 N   0  0  0  0  0  0  0  0  0  0  0  0
    7.8530   20.5110   49.6300 C   0  0  0  0  0  0  0  0  0  0  0  0
    6.5800   20.4970   50.2150 C   0  0  0  0  0  0  0  0  0  0  0  0
    5.4940   20.2000   49.4810 N   0  0  0  0  0  0  0  0  0  0  0  0
    4.2420   20.1680   49.9710 C   0  0  0  0  0  0  0  0  0  0  0  0
    3.1600   19.8470   49.1400 C   0  0  0  0  0  0  0  0  0  0  0  0
    0.1120   18.8090   49.3380 H   0  0  0  0  0  0  0  0  0  0  0  0
    0.3640   20.0560   48.2390 H   0  0  0  0  0  0  0  0  0  0  0  0
    0.6507   19.9751   51.4323 H   0  0  0  0  0  0  0  0  0  0  0  0
    2.5502   20.6011   52.9132 H   0  0  0  0  0  0  0  0  0  0  0  0
    4.9907   21.0072   53.2027 H   0  0  0  0  0  0  0  0  0  0  0  0
    7.4461   21.3927   53.4009 H   0  0  0  0  0  0  0  0  0  0  0  0
    9.6878   21.4656   52.3292 H   0  0  0  0  0  0  0  0  0  0  0  0
   10.3060   21.7510   49.1580 H   0  0  0  0  0  0  0  0  0  0  0  0
   11.0450   20.8610   50.3770 H   0  0  0  0  0  0  0  0  0  0  0  0
    7.9627   20.2925   48.5575 H   0  0  0  0  0  0  0  0  0  0  0  0
    5.6270   19.9860   48.4950 H   0  0  0  0  0  0  0  0  0  0  0  0
    3.3377   19.6042   48.0819 H   0  0  0  0  0  0  0  0  0  0  0  0
  1  2  1  0
  2  3  2  0
  3  4  1  0
  4  5  2  0
  5  6  1  0
  6  7  2  0
  7  8  1  0
  8  9  2  0
  9 10  1  0
 10 11  1  0
 10 12  2  0
 12 13  1  0
 13 14  2  0
 14 15  1  0
 15 16  2  0
 16  2  1  0
 15  5  1  0
 13  7  1  0
  1 17  1  0
  1 18  1  0
  3 19  1  0
  4 20  1  0
  6 21  1  0
  8 22  1  0
  9 23  1  0
 11 24  1  0
 11 25  1  0
 12 26  1  0
 14 27  1  0
 16 28  1  0
M  CHG  1  14   1
M  END
>  <meeko>  (7) 
{"is_sidechain": [false], "free_energy": -6.392, "intermolecular_energy": -6.766, "internal_energy": 0.0}

$$$$
1bcu_ligand
     RDKit          3D

 28 30  0  0  0  0  0  0  0  0999 V2000
    3.6010   17.4420   44.3140 N   0  0  0  0  0  0  0  0  0  0  0  0
    3.0260   18.0560   45.4250 C   0  0  0  0  0  0  0  0  0  0  0  0
    1.6360   18.1430   45.5370 C   0  0  0  0  0  0  0  0  0  0  0  0
    1.0330   18.6370   46.6980 C   0  0  0  0  0  0  0  0  0  0  0  0
    1.8200   19.0090   47.7950 C   0  0  0  0  0  0  0  0  0  0  0  0
    1.2620   19.5030   48.9790 C   0  0  0  0  0  0  0  0  0  0  0  0
    2.0890   19.8420   50.0560 C   0  0  0  0  0  0  0  0  0  0  0  0
    1.5830   20.3600   51.2540 C   0  0  0  0  0  0  0  0  0  0  0  0
    2.4500   20.6880   52.3000 C   0  0  0  0  0  0  0  0  0  0  0  0
    3.8250   20.4620   52.1970 C   0  0  0  0  0  0  0  0  0  0  0  0
    4.6850   20.9140   53.1950 N   0  0  0  0  0  0  0  0  0  0  0  0
    4.3400   19.9920   50.9870 C   0  0  0  0  0  0  0  0  0  0  0  0
    3.4840   19.6680   49.9260 C   0  0  0  0  0  0  0  0  0  0  0  0
    3.9780   19.1970   48.7680 N   0  0  0  0  0  0  0  0  0  0  0  0
    3.2200   18.8670   47.7070 C   0  0  0  0  0  0  0  0  0  0  0  0
    3.8110   18.3800   46.5340 C   0  0  0  0  0  0  0  0  0  0  0  0
    3.6610   16.4260   44.3620 H   0  0  0  0  0  0  0  0  0  0  0  0
    3.2850   17.7540   43.4010 H   0  0  0  0  0  0  0  0  0  0  0  0
    1.0048   17.8172   44.6971 H   0  0  0  0  0  0  0  0  0  0  0  0
   -0.0615   18.7336   46.7497 H   0  0  0  0  0  0  0  0  0  0  0  0
    0.1721   19.6251   49.0636 H   0  0  0  0  0  0  0  0  0  0  0  0
    0.4997   20.5094   51.3725 H   0  0  0  0  0  0  0  0  0  0  0  0
    2.0428   21.1318   53.2204 H   0  0  0  0  0  0  0  0  0  0  0  0
    5.3550   20.2260   53.5360 H   0  0  0  0  0  0  0  0  0  0  0  0
    5.1230   21.8180   53.0500 H   0  0  0  0  0  0  0  0  0  0  0  0
    5.4270   19.8751   50.8658 H   0  0  0  0  0  0  0  0  0  0  0  0
    4.9860   19.0830   48.6900 H   0  0  0  0  0  0  0  0  0  0  0  0
    4.9024   18.2517   46.4859 H   0  0  0  0  0  0  0  0  0  0  0  0
  1  2  1  0
  2  3  2  0
  3  4  1  0
  4  5  2  0
  5  6  1  0
  6  7  2  0
  7  8  1  0
  8  9  2  0
  9 10  1  0
 10 11  1  0
 10 12  2  0
 12 13  1  0
 13 14  2  0
 14 15  1  0
 15 16  2  0
 16  2  1  0
 15  5  1  0
 13  7  1  0
  1 17  1  0
  1 18  1  0
  3 19  1  0
  4 20  1  0
  6 21  1  0
  8 22  1  0
  9 23  1  0
 11 24  1  0
 11 25  1  0
 12 26  1  0
 14 27  1  0
 16 28  1  0
M  CHG  1  14   1
M  END
>  <meeko>  (8) 
{"is_sidechain": [false], "free_energy": -6.324, "intermolecular_energy": -6.694, "internal_energy": 0.0}

$$$$
1bcu_ligand
     RDKit          3D

 28 30  0  0  0  0  0  0  0  0999 V2000
    4.7640   20.7550   53.2210 N   0  0  0  0  0  0  0  0  0  0  0  0
    3.8960   20.3630   52.2020 C   0  0  0  0  0  0  0  0  0  0  0  0
    2.5350   20.6650   52.2860 C   0  0  0  0  0  0  0  0  0  0  0  0
    1.6680   20.3990   51.2220 C   0  0  0  0  0  0  0  0  0  0  0  0
    2.1650   19.8650   50.0270 C   0  0  0  0  0  0  0  0  0  0  0  0
    1.3380   19.5860   48.9340 C   0  0  0  0  0  0  0  0  0  0  0  0
    1.8850   19.0730   47.7530 C   0  0  0  0  0  0  0  0  0  0  0  0
    1.0980   18.7570   46.6390 C   0  0  0  0  0  0  0  0  0  0  0  0
    1.6910   18.2430   45.4820 C   0  0  0  0  0  0  0  0  0  0  0  0
    3.0760   18.0780   45.3920 C   0  0  0  0  0  0  0  0  0  0  0  0
    3.6340   17.4430   44.2840 N   0  0  0  0  0  0  0  0  0  0  0  0
    3.8590   18.3450   46.5170 C   0  0  0  0  0  0  0  0  0  0  0  0
    3.2770   18.8520   47.6860 C   0  0  0  0  0  0  0  0  0  0  0  0
    4.0350   19.1270   48.7620 N   0  0  0  0  0  0  0  0  0  0  0  0
    3.5490   19.6140   49.9180 C   0  0  0  0  0  0  0  0  0  0  0  0
    4.4040   19.8760   50.9960 C   0  0  0  0  0  0  0  0  0  0  0  0
    4.3160   21.1560   54.0430 H   0  0  0  0  0  0  0  0  0  0  0  0
    5.4970   20.1000   53.4780 H   0  0  0  0  0  0  0  0  0  0  0  0
    2.1383   21.1201   53.2055 H   0  0  0  0  0  0  0  0  0  0  0  0
    0.5932   20.6097   51.3239 H   0  0  0  0  0  0  0  0  0  0  0  0
    0.2557   19.7703   49.0031 H   0  0  0  0  0  0  0  0  0  0  0  0
    0.0098   18.9136   46.6742 H   0  0  0  0  0  0  0  0  0  0  0  0
    1.0567   17.9636   44.6278 H   0  0  0  0  0  0  0  0  0  0  0  0
    2.9660   16.9970   43.6580 H   0  0  0  0  0  0  0  0  0  0  0  0
    4.3410   17.9570   43.7680 H   0  0  0  0  0  0  0  0  0  0  0  0
    4.9421   18.1556   46.4850 H   0  0  0  0  0  0  0  0  0  0  0  0
    5.0350   18.9570   48.6990 H   0  0  0  0  0  0  0  0  0  0  0  0
    5.4843   19.6967   50.8917 H   0  0  0  0  0  0  0  0  0  0  0  0
  1  2  1  0
  2  3  2  0
  3  4  1  0
  4  5  2  0
  5  6  1  0
  6  7  2  0
  7  8  1  0
  8  9  2  0
  9 10  1  0
 10 11  1  0
 10 12  2  0
 12 13  1  0
 13 14  2  0
 14 15  1  0
 15 16  2  0
 16  2  1  0
 15  5  1  0
 13  7  1  0
  1 17  1  0
  1 18  1  0
  3 19  1  0
  4 20  1  0
  6 21  1  0
  8 22  1  0
  9 23  1  0
 11 24  1  0
 11 25  1  0
 12 26  1  0
 14 27  1  0
 16 28  1  0
M  CHG  1  14   1
M  END
>  <meeko>  (9) 
{"is_sidechain": [false], "free_energy": -6.3, "intermolecular_energy": -6.669, "internal_energy": 0.0}

$$$$
