2vkm_ligand
     RDKit          3D

 90 93  0  0  0  0  0  0  0  0999 V2000
  -10.6930    2.2710   29.4410 C   0  0  0  0  0  0  0  0  0  0  0  0
   -9.5890    2.9690   30.0070 O   0  0  0  0  0  0  0  0  0  0  0  0
   -8.5960    2.2110   30.5610 C   0  0  0  0  0  0  0  0  0  0  0  0
   -7.2350    2.5110   30.5630 C   0  0  0  0  0  0  0  0  0  0  0  0
   -6.3270    1.6360   31.1630 C   0  0  0  0  0  0  0  0  0  0  0  0
   -6.7730    0.4570   31.7630 C   0  0  0  0  0  0  0  0  0  0  0  0
   -8.1380    0.1460   31.7760 C   0  0  0  0  0  0  0  0  0  0  0  0
   -8.6300   -1.1380   32.3740 C   0  0  0  0  0  0  0  0  0  0  0  0
   -7.6310   -2.2170   32.1900 N   0  0  0  0  0  0  0  0  0  0  0  0
   -7.0380   -2.7840   33.4470 C   0  0  0  0  0  0  0  0  0  0  0  0
   -5.5120   -2.7280   33.2860 C   0  0  1  0  0  0  0  0  0  0  0  0
   -4.9460   -2.6040   34.6050 O   0  0  0  0  0  0  0  0  0  0  0  0
   -4.9340   -3.9510   32.5200 C   0  0  2  0  0  0  0  0  0  0  0  0
   -4.8620   -5.2140   33.4140 C   0  0  0  0  0  0  0  0  0  0  0  0
   -3.9270   -6.2730   32.8740 C   0  0  0  0  0  0  0  0  0  0  0  0
   -2.7980   -6.6590   33.6100 C   0  0  0  0  0  0  0  0  0  0  0  0
   -1.9200   -7.6210   33.1080 C   0  0  0  0  0  0  0  0  0  0  0  0
   -2.1660   -8.2120   31.8710 C   0  0  0  0  0  0  0  0  0  0  0  0
   -3.2900   -7.8430   31.1350 C   0  0  0  0  0  0  0  0  0  0  0  0
   -4.1690   -6.8800   31.6330 C   0  0  0  0  0  0  0  0  0  0  0  0
   -3.6050   -3.6250   31.9780 N   0  0  0  0  0  0  0  0  0  0  0  0
   -3.4510   -3.4370   30.6140 C   0  0  0  0  0  0  0  0  0  0  0  0
   -4.4190   -3.3870   29.8610 O   0  0  0  0  0  0  0  0  0  0  0  0
   -2.0620   -3.3170   30.0850 C   0  0  0  0  0  0  0  0  0  0  0  0
   -1.0290   -4.1720   30.4830 C   0  0  0  0  0  0  0  0  0  0  0  0
    0.2650   -4.0140   29.9630 C   0  0  0  0  0  0  0  0  0  0  0  0
    1.3190   -4.9560   30.4310 C   0  0  0  0  0  0  0  0  0  0  0  0
    2.1410   -5.3800   29.6250 O   0  0  0  0  0  0  0  0  0  0  0  0
    1.3230   -5.2710   31.7690 N   0  0  0  0  0  0  0  0  0  0  0  0
    2.3480   -6.1270   32.3520 C   0  0  2  0  0  0  0  0  0  0  0  0
    1.7340   -7.2150   33.2380 C   0  0  0  0  0  0  0  0  0  0  0  0
    3.3520   -5.2670   33.1000 C   0  0  0  0  0  0  0  0  0  0  0  0
    4.7120   -5.2440   32.7480 C   0  0  0  0  0  0  0  0  0  0  0  0
    5.6210   -4.4650   33.4670 C   0  0  0  0  0  0  0  0  0  0  0  0
    5.1860   -3.7070   34.5520 C   0  0  0  0  0  0  0  0  0  0  0  0
    3.8430   -3.7280   34.9190 C   0  0  0  0  0  0  0  0  0  0  0  0
    2.9320   -4.5050   34.2010 C   0  0  0  0  0  0  0  0  0  0  0  0
    0.5340   -2.9730   29.0690 C   0  0  0  0  0  0  0  0  0  0  0  0
   -0.4900   -2.1040   28.6870 C   0  0  0  0  0  0  0  0  0  0  0  0
   -0.1590   -1.0380   27.7780 N   0  0  0  0  0  0  0  0  0  0  0  0
    1.2680   -0.6260   27.7940 C   0  0  0  0  0  0  0  0  0  0  0  0
   -0.7970   -1.1890   26.1870 S   0  0  0  0  0  0  0  0  0  0  0  0
    0.5170   -0.4860   25.2130 C   0  0  0  0  0  0  0  0  0  0  0  0
   -0.8560   -2.6010   25.8710 O   0  0  0  0  0  0  0  0  0  0  0  0
   -1.9720   -0.3520   26.0630 O   0  0  0  0  0  0  0  0  0  0  0  0
   -1.7840   -2.2800   29.1850 C   0  0  0  0  0  0  0  0  0  0  0  0
   -9.0390    1.0310   31.1640 C   0  0  0  0  0  0  0  0  0  0  0  0
  -11.3259    1.8708   30.2468 H   0  0  0  0  0  0  0  0  0  0  0  0
  -11.2831    2.9605   28.8194 H   0  0  0  0  0  0  0  0  0  0  0  0
  -10.3231    1.4422   28.8194 H   0  0  0  0  0  0  0  0  0  0  0  0
   -6.8758    3.4377   30.0916 H   0  0  0  0  0  0  0  0  0  0  0  0
   -5.2538    1.8772   31.1629 H   0  0  0  0  0  0  0  0  0  0  0  0
   -6.0497   -0.2297   32.2270 H   0  0  0  0  0  0  0  0  0  0  0  0
   -8.8087   -0.9906   33.4493 H   0  0  0  0  0  0  0  0  0  0  0  0
   -9.5628   -1.4292   31.8690 H   0  0  0  0  0  0  0  0  0  0  0  0
   -6.8350   -1.8670   31.6290 H   0  0  0  0  0  0  0  0  0  0  0  0
   -8.0350   -2.9690   31.6170 H   0  0  0  0  0  0  0  0  0  0  0  0
   -7.3488   -2.1847   34.3155 H   0  0  0  0  0  0  0  0  0  0  0  0
   -7.3786   -3.8169   33.6115 H   0  0  0  0  0  0  0  0  0  0  0  0
   -5.2424   -1.8608   32.6652 H   0  0  0  0  0  0  0  0  0  0  0  0
   -3.9770   -2.5280   34.4740 H   0  0  0  0  0  0  0  0  0  0  0  0
   -5.6179   -4.1794   31.6893 H   0  0  0  0  0  0  0  0  0  0  0  0
   -4.5125   -4.9156   34.4134 H   0  0  0  0  0  0  0  0  0  0  0  0
   -5.8706   -5.6521   33.4431 H   0  0  0  0  0  0  0  0  0  0  0  0
   -2.6026   -6.2003   34.5905 H   0  0  0  0  0  0  0  0  0  0  0  0
   -1.0331   -7.9126   33.6898 H   0  0  0  0  0  0  0  0  0  0  0  0
   -1.4734   -8.9695   31.4754 H   0  0  0  0  0  0  0  0  0  0  0  0
   -3.4851   -8.3117   30.1592 H   0  0  0  0  0  0  0  0  0  0  0  0
   -5.0566   -6.5955   31.0489 H   0  0  0  0  0  0  0  0  0  0  0  0
   -2.8100   -4.0390   32.4580 H   0  0  0  0  0  0  0  0  0  0  0  0
   -1.2322   -4.9736   31.2084 H   0  0  0  0  0  0  0  0  0  0  0  0
    0.7650   -4.7340   32.4180 H   0  0  0  0  0  0  0  0  0  0  0  0
    2.8791   -6.6580   31.5483 H   0  0  0  0  0  0  0  0  0  0  0  0
    1.8819   -6.9530   34.2961 H   0  0  0  0  0  0  0  0  0  0  0  0
    0.6574   -7.2953   33.0271 H   0  0  0  0  0  0  0  0  0  0  0  0
    2.2218   -8.1781   33.0271 H   0  0  0  0  0  0  0  0  0  0  0  0
    5.0644   -5.8458   31.8973 H   0  0  0  0  0  0  0  0  0  0  0  0
    6.6818   -4.4498   33.1763 H   0  0  0  0  0  0  0  0  0  0  0  0
    5.9022   -3.0930   35.1177 H   0  0  0  0  0  0  0  0  0  0  0  0
    3.4990   -3.1311   35.7765 H   0  0  0  0  0  0  0  0  0  0  0  0
    1.8739   -4.5200   34.5015 H   0  0  0  0  0  0  0  0  0  0  0  0
    1.5494   -2.8391   28.6678 H   0  0  0  0  0  0  0  0  0  0  0  0
    1.6095   -0.5274   28.8350 H   0  0  0  0  0  0  0  0  0  0  0  0
    1.8748   -1.3856   27.2794 H   0  0  0  0  0  0  0  0  0  0  0  0
    1.3765    0.3402   27.2794 H   0  0  0  0  0  0  0  0  0  0  0  0
    1.2879   -0.0736   25.8805 H   0  0  0  0  0  0  0  0  0  0  0  0
    0.9612   -1.2670   24.5783 H   0  0  0  0  0  0  0  0  0  0  0  0
    0.1138    0.3169   24.5783 H   0  0  0  0  0  0  0  0  0  0  0  0
   -2.5889   -1.6003   28.8684 H   0  0  0  0  0  0  0  0  0  0  0  0
  -10.1126    0.7915   31.1589 H   0  0  0  0  0  0  0  0  0  0  0  0
  1  2  1  0
  2  3  1  0
  3  4  2  0
  4  5  1  0
  5  6  2  0
  6  7  1  0
  7  8  1  0
  8  9  1  0
  9 10  1  0
 10 11  1  0
 11 12  1  0
 11 13  1  0
 13 14  1  0
 14 15  1  0
 15 16  2  0
 16 17  1  0
 17 18  2  0
 18 19  1  0
 19 20  2  0
 13 21  1  0
 21 22  1  0
 22 23  2  0
 22 24  1  0
 24 25  2  0
 25 26  1  0
 26 27  1  0
 27 28  2  0
 27 29  1  0
 29 30  1  0
 30 31  1  0
 30 32  1  0
 32 33  2  0
 33 34  1  0
 34 35  2  0
 35 36  1  0
 36 37  2  0
 26 38  2  0
 38 39  1  0
 39 40  1  0
 40 41  1  0
 40 42  1  0
 42 43  1  0
 42 44  2  0
 42 45  2  0
 39 46  2  0
  7 47  2  0
 47  3  1  0
 20 15  1  0
 46 24  1  0
 37 32  1  0
  1 48  1  0
  1 49  1  0
  1 50  1  0
  4 51  1  0
  5 52  1  0
  6 53  1  0
  8 54  1  0
  8 55  1  0
  9 56  1  0
  9 57  1  0
 10 58  1  0
 10 59  1  0
 11 60  1  6
 12 61  1  0
 13 62  1  6
 14 63  1  0
 14 64  1  0
 16 65  1  0
 17 66  1  0
 18 67  1  0
 19 68  1  0
 20 69  1  0
 21 70  1  0
 25 71  1  0
 29 72  1  0
 30 73  1  6
 31 74  1  0
 31 75  1  0
 31 76  1  0
 33 77  1  0
 34 78  1  0
 35 79  1  0
 36 80  1  0
 37 81  1  0
 38 82  1  0
 41 83  1  0
 41 84  1  0
 41 85  1  0
 43 86  1  0
 43 87  1  0
 43 88  1  0
 46 89  1  0
 47 90  1  0
M  CHG  1   9   1
M  END
>  <meeko>  (1) 
{"is_sidechain": [false], "free_energy": -11.953, "intermolecular_energy": -22.783, "internal_energy": -2.716}

$$$$
2vkm_ligand
     RDKit          3D

 90 93  0  0  0  0  0  0  0  0999 V2000
  -10.2750   -1.0600   28.4010 C   0  0  0  0  0  0  0  0  0  0  0  0
  -11.0930   -1.7870   29.3110 O   0  0  0  0  0  0  0  0  0  0  0  0
  -10.6820   -1.8350   30.6130 C   0  0  0  0  0  0  0  0  0  0  0  0
  -11.2080   -2.6490   31.6130 C   0  0  0  0  0  0  0  0  0  0  0  0
  -10.6920   -2.5860   32.9100 C   0  0  0  0  0  0  0  0  0  0  0  0
   -9.6500   -1.7090   33.2140 C   0  0  0  0  0  0  0  0  0  0  0  0
   -9.1050   -0.8910   32.2170 C   0  0  0  0  0  0  0  0  0  0  0  0
   -8.0170    0.0910   32.5350 C   0  0  0  0  0  0  0  0  0  0  0  0
   -6.8570   -0.5960   33.1490 N   0  0  0  0  0  0  0  0  0  0  0  0
   -6.1710   -1.6200   32.2940 C   0  0  0  0  0  0  0  0  0  0  0  0
   -5.5030   -2.6240   33.2450 C   0  0  1  0  0  0  0  0  0  0  0  0
   -6.4840   -2.9970   34.2320 O   0  0  0  0  0  0  0  0  0  0  0  0
   -4.9190   -3.8630   32.5110 C   0  0  2  0  0  0  0  0  0  0  0  0
   -4.8300   -5.1000   33.4390 C   0  0  0  0  0  0  0  0  0  0  0  0
   -3.9070   -6.1750   32.9140 C   0  0  0  0  0  0  0  0  0  0  0  0
   -4.1620   -6.7820   31.6760 C   0  0  0  0  0  0  0  0  0  0  0  0
   -3.3250   -7.7900   31.1950 C   0  0  0  0  0  0  0  0  0  0  0  0
   -2.2220   -8.1960   31.9420 C   0  0  0  0  0  0  0  0  0  0  0  0
   -1.9530   -7.5940   33.1690 C   0  0  0  0  0  0  0  0  0  0  0  0
   -2.7890   -6.5870   33.6540 C   0  0  0  0  0  0  0  0  0  0  0  0
   -3.5950   -3.5410   31.9530 N   0  0  0  0  0  0  0  0  0  0  0  0
   -3.4400   -3.4330   30.5800 C   0  0  0  0  0  0  0  0  0  0  0  0
   -4.4060   -3.4510   29.8230 O   0  0  0  0  0  0  0  0  0  0  0  0
   -2.0520   -3.3140   30.0480 C   0  0  0  0  0  0  0  0  0  0  0  0
   -1.0190   -4.1710   30.4430 C   0  0  0  0  0  0  0  0  0  0  0  0
    0.2740   -4.0140   29.9210 C   0  0  0  0  0  0  0  0  0  0  0  0
    1.3280   -4.9560   30.3870 C   0  0  0  0  0  0  0  0  0  0  0  0
    2.1590   -5.3670   29.5830 O   0  0  0  0  0  0  0  0  0  0  0  0
    1.3230   -5.2860   31.7210 N   0  0  0  0  0  0  0  0  0  0  0  0
    2.3460   -6.1450   32.3020 C   0  0  2  0  0  0  0  0  0  0  0  0
    1.7280   -7.2760   33.1280 C   0  0  0  0  0  0  0  0  0  0  0  0
    3.3110   -5.2950   33.1120 C   0  0  0  0  0  0  0  0  0  0  0  0
    4.6890   -5.2810   32.8410 C   0  0  0  0  0  0  0  0  0  0  0  0
    5.5600   -4.5120   33.6160 C   0  0  0  0  0  0  0  0  0  0  0  0
    5.0670   -3.7540   34.6760 C   0  0  0  0  0  0  0  0  0  0  0  0
    3.7040   -3.7650   34.9620 C   0  0  0  0  0  0  0  0  0  0  0  0
    2.8320   -4.5330   34.1890 C   0  0  0  0  0  0  0  0  0  0  0  0
    0.5420   -2.9730   29.0260 C   0  0  0  0  0  0  0  0  0  0  0  0
   -0.4830   -2.1030   28.6470 C   0  0  0  0  0  0  0  0  0  0  0  0
   -0.1530   -1.0380   27.7360 N   0  0  0  0  0  0  0  0  0  0  0  0
    1.2650   -0.5960   27.7810 C   0  0  0  0  0  0  0  0  0  0  0  0
   -0.7520   -1.2140   26.1320 S   0  0  0  0  0  0  0  0  0  0  0  0
    0.5320   -0.4180   25.1890 C   0  0  0  0  0  0  0  0  0  0  0  0
   -0.7130   -2.6240   25.8030 O   0  0  0  0  0  0  0  0  0  0  0  0
   -1.9750   -0.4540   25.9950 O   0  0  0  0  0  0  0  0  0  0  0  0
   -1.7760   -2.2780   29.1470 C   0  0  0  0  0  0  0  0  0  0  0  0
   -9.6370   -0.9590   30.9200 C   0  0  0  0  0  0  0  0  0  0  0  0
   -9.5686   -0.4322   28.9640 H   0  0  0  0  0  0  0  0  0  0  0  0
   -9.7154   -1.7643   27.7679 H   0  0  0  0  0  0  0  0  0  0  0  0
  -10.9087   -0.4216   27.7679 H   0  0  0  0  0  0  0  0  0  0  0  0
  -12.0303   -3.3421   31.3817 H   0  0  0  0  0  0  0  0  0  0  0  0
  -11.1098   -3.2318   33.6964 H   0  0  0  0  0  0  0  0  0  0  0  0
   -9.2557   -1.6602   34.2398 H   0  0  0  0  0  0  0  0  0  0  0  0
   -7.6943    0.5859   31.6071 H   0  0  0  0  0  0  0  0  0  0  0  0
   -8.4067    0.8335   33.2469 H   0  0  0  0  0  0  0  0  0  0  0  0
   -7.1550   -1.0910   34.0080 H   0  0  0  0  0  0  0  0  0  0  0  0
   -6.1780    0.1020   33.4810 H   0  0  0  0  0  0  0  0  0  0  0  0
   -6.9060   -2.1342   31.6573 H   0  0  0  0  0  0  0  0  0  0  0  0
   -5.4268   -1.1473   31.6362 H   0  0  0  0  0  0  0  0  0  0  0  0
   -4.6327   -2.1507   33.7230 H   0  0  0  0  0  0  0  0  0  0  0  0
   -6.8370   -2.1550   34.5910 H   0  0  0  0  0  0  0  0  0  0  0  0
   -5.6063   -4.1202   31.6916 H   0  0  0  0  0  0  0  0  0  0  0  0
   -4.4615   -4.7730   34.4225 H   0  0  0  0  0  0  0  0  0  0  0  0
   -5.8381   -5.5362   33.4985 H   0  0  0  0  0  0  0  0  0  0  0  0
   -5.0285   -6.4612   31.0792 H   0  0  0  0  0  0  0  0  0  0  0  0
   -3.5367   -8.2641   30.2252 H   0  0  0  0  0  0  0  0  0  0  0  0
   -1.5636   -8.9916   31.5633 H   0  0  0  0  0  0  0  0  0  0  0  0
   -1.0798   -7.9129   33.7570 H   0  0  0  0  0  0  0  0  0  0  0  0
   -2.5697   -6.1136   34.6224 H   0  0  0  0  0  0  0  0  0  0  0  0
   -2.7930   -3.9070   32.4590 H   0  0  0  0  0  0  0  0  0  0  0  0
   -1.2218   -4.9733   31.1677 H   0  0  0  0  0  0  0  0  0  0  0  0
    0.7570   -4.7590   32.3710 H   0  0  0  0  0  0  0  0  0  0  0  0
    2.9100   -6.6361   31.4953 H   0  0  0  0  0  0  0  0  0  0  0  0
    1.8483   -7.0558   34.1990 H   0  0  0  0  0  0  0  0  0  0  0  0
    0.6576   -7.3618   32.8893 H   0  0  0  0  0  0  0  0  0  0  0  0
    2.2340   -8.2231   32.8893 H   0  0  0  0  0  0  0  0  0  0  0  0
    5.0864   -5.8819   32.0097 H   0  0  0  0  0  0  0  0  0  0  0  0
    6.6364   -4.5048   33.3893 H   0  0  0  0  0  0  0  0  0  0  0  0
    5.7531   -3.1479   35.2859 H   0  0  0  0  0  0  0  0  0  0  0  0
    3.3140   -3.1671   35.7989 H   0  0  0  0  0  0  0  0  0  0  0  0
    1.7579   -4.5412   34.4263 H   0  0  0  0  0  0  0  0  0  0  0  0
    1.5564   -2.8399   28.6220 H   0  0  0  0  0  0  0  0  0  0  0  0
    1.5849   -0.4963   28.8287 H   0  0  0  0  0  0  0  0  0  0  0  0
    1.8972   -1.3397   27.2738 H   0  0  0  0  0  0  0  0  0  0  0  0
    1.3626    0.3752   27.2738 H   0  0  0  0  0  0  0  0  0  0  0  0
    1.2631    0.0352   25.8746 H   0  0  0  0  0  0  0  0  0  0  0  0
    1.0362   -1.1621   24.5550 H   0  0  0  0  0  0  0  0  0  0  0  0
    0.0898    0.3646   24.5550 H   0  0  0  0  0  0  0  0  0  0  0  0
   -2.5813   -1.5985   28.8313 H   0  0  0  0  0  0  0  0  0  0  0  0
   -9.2246   -0.3120   30.1318 H   0  0  0  0  0  0  0  0  0  0  0  0
  1  2  1  0
  2  3  1  0
  3  4  2  0
  4  5  1  0
  5  6  2  0
  6  7  1  0
  7  8  1  0
  8  9  1  0
  9 10  1  0
 10 11  1  0
 11 12  1  0
 11 13  1  0
 13 14  1  0
 14 15  1  0
 15 16  2  0
 16 17  1  0
 17 18  2  0
 18 19  1  0
 19 20  2  0
 13 21  1  0
 21 22  1  0
 22 23  2  0
 22 24  1  0
 24 25  2  0
 25 26  1  0
 26 27  1  0
 27 28  2  0
 27 29  1  0
 29 30  1  0
 30 31  1  0
 30 32  1  0
 32 33  2  0
 33 34  1  0
 34 35  2  0
 35 36  1  0
 36 37  2  0
 26 38  2  0
 38 39  1  0
 39 40  1  0
 40 41  1  0
 40 42  1  0
 42 43  1  0
 42 44  2  0
 42 45  2  0
 39 46  2  0
  7 47  2  0
 47  3  1  0
 20 15  1  0
 46 24  1  0
 37 32  1  0
  1 48  1  0
  1 49  1  0
  1 50  1  0
  4 51  1  0
  5 52  1  0
  6 53  1  0
  8 54  1  0
  8 55  1  0
  9 56  1  0
  9 57  1  0
 10 58  1  0
 10 59  1  0
 11 60  1  1
 12 61  1  0
 13 62  1  6
 14 63  1  0
 14 64  1  0
 16 65  1  0
 17 66  1  0
 18 67  1  0
 19 68  1  0
 20 69  1  0
 21 70  1  0
 25 71  1  0
 29 72  1  0
 30 73  1  6
 31 74  1  0
 31 75  1  0
 31 76  1  0
 33 77  1  0
 34 78  1  0
 35 79  1  0
 36 80  1  0
 37 81  1  0
 38 82  1  0
 41 83  1  0
 41 84  1  0
 41 85  1  0
 43 86  1  0
 43 87  1  0
 43 88  1  0
 46 89  1  0
 47 90  1  0
M  CHG  1   9   1
M  END
>  <meeko>  (2) 
{"is_sidechain": [false], "free_energy": -11.747, "intermolecular_energy": -22.32, "internal_energy": -2.787}

$$$$
2vkm_ligand
     RDKit          3D

 90 93  0  0  0  0  0  0  0  0999 V2000
  -10.5390    1.6840   29.5330 C   0  0  0  0  0  0  0  0  0  0  0  0
   -9.8200    2.1760   30.6590 O   0  0  0  0  0  0  0  0  0  0  0  0
   -8.6180    1.5870   30.9330 C   0  0  0  0  0  0  0  0  0  0  0  0
   -7.3670    2.1950   30.8620 C   0  0  0  0  0  0  0  0  0  0  0  0
   -6.2160    1.4640   31.1640 C   0  0  0  0  0  0  0  0  0  0  0  0
   -6.3080    0.1220   31.5360 C   0  0  0  0  0  0  0  0  0  0  0  0
   -7.5590   -0.5010   31.6210 C   0  0  0  0  0  0  0  0  0  0  0  0
   -7.6740   -1.9540   31.9740 C   0  0  0  0  0  0  0  0  0  0  0  0
   -7.4560   -2.1580   33.4250 N   0  0  0  0  0  0  0  0  0  0  0  0
   -6.4960   -3.2490   33.7980 C   0  0  0  0  0  0  0  0  0  0  0  0
   -5.1910   -2.9770   33.0350 C   0  0  1  0  0  0  0  0  0  0  0  0
   -4.2350   -2.4710   33.9870 O   0  0  0  0  0  0  0  0  0  0  0  0
   -4.6530   -4.2260   32.2830 C   0  0  2  0  0  0  0  0  0  0  0  0
   -4.7750   -5.5140   33.1340 C   0  0  0  0  0  0  0  0  0  0  0  0
   -3.8140   -6.6020   32.7110 C   0  0  0  0  0  0  0  0  0  0  0  0
   -2.7800   -7.0040   33.5690 C   0  0  0  0  0  0  0  0  0  0  0  0
   -1.8770   -7.9930   33.1760 C   0  0  0  0  0  0  0  0  0  0  0  0
   -2.0020   -8.5940   31.9250 C   0  0  0  0  0  0  0  0  0  0  0  0
   -3.0300   -8.2090   31.0680 C   0  0  0  0  0  0  0  0  0  0  0  0
   -3.9340   -7.2200   31.4570 C   0  0  0  0  0  0  0  0  0  0  0  0
   -3.2550   -4.0070   31.8750 N   0  0  0  0  0  0  0  0  0  0  0  0
   -2.9680   -3.7030   30.5550 C   0  0  0  0  0  0  0  0  0  0  0  0
   -3.8580   -3.4640   29.7440 O   0  0  0  0  0  0  0  0  0  0  0  0
   -1.5350   -3.6950   30.1430 C   0  0  0  0  0  0  0  0  0  0  0  0
   -0.9880   -2.6850   29.3440 C   0  0  0  0  0  0  0  0  0  0  0  0
    0.3650   -2.7250   28.9740 C   0  0  0  0  0  0  0  0  0  0  0  0
    0.8820   -1.6210   28.1200 C   0  0  0  0  0  0  0  0  0  0  0  0
    1.5420   -0.7250   28.6370 O   0  0  0  0  0  0  0  0  0  0  0  0
    0.6110   -1.6950   26.7740 N   0  0  0  0  0  0  0  0  0  0  0  0
    1.1240   -0.7080   25.8330 C   0  0  2  0  0  0  0  0  0  0  0  0
    0.0200   -0.1860   24.9090 C   0  0  0  0  0  0  0  0  0  0  0  0
    2.2890   -1.3090   25.0650 C   0  0  0  0  0  0  0  0  0  0  0  0
    3.0360   -2.3820   25.5770 C   0  0  0  0  0  0  0  0  0  0  0  0
    4.1200   -2.9010   24.8640 C   0  0  0  0  0  0  0  0  0  0  0  0
    4.4750   -2.3490   23.6350 C   0  0  0  0  0  0  0  0  0  0  0  0
    3.7490   -1.2780   23.1190 C   0  0  0  0  0  0  0  0  0  0  0  0
    2.6650   -0.7590   23.8300 C   0  0  0  0  0  0  0  0  0  0  0  0
    1.1650   -3.7990   29.3770 C   0  0  0  0  0  0  0  0  0  0  0  0
    0.6160   -4.8200   30.1560 C   0  0  0  0  0  0  0  0  0  0  0  0
    1.4770   -5.9120   30.5300 N   0  0  0  0  0  0  0  0  0  0  0  0
    2.5400   -6.2350   29.5430 C   0  0  0  0  0  0  0  0  0  0  0  0
    2.0510   -5.8880   32.1520 S   0  0  0  0  0  0  0  0  0  0  0  0
    3.7690   -6.2950   31.9230 C   0  0  0  0  0  0  0  0  0  0  0  0
    1.9940   -4.5170   32.6160 O   0  0  0  0  0  0  0  0  0  0  0  0
    1.4120   -6.9510   32.8990 O   0  0  0  0  0  0  0  0  0  0  0  0
   -0.7240   -4.7640   30.5460 C   0  0  0  0  0  0  0  0  0  0  0  0
   -8.7080    0.2430   31.3090 C   0  0  0  0  0  0  0  0  0  0  0  0
  -11.4011    1.0941   29.8776 H   0  0  0  0  0  0  0  0  0  0  0  0
  -10.8929    2.5301   28.9257 H   0  0  0  0  0  0  0  0  0  0  0  0
   -9.8785    1.0477   28.9257 H   0  0  0  0  0  0  0  0  0  0  0  0
   -7.2855    3.2518   30.5678 H   0  0  0  0  0  0  0  0  0  0  0  0
   -5.2304    1.9492   31.1083 H   0  0  0  0  0  0  0  0  0  0  0  0
   -5.3950   -0.4479   31.7631 H   0  0  0  0  0  0  0  0  0  0  0  0
   -8.6787   -2.3126   31.7057 H   0  0  0  0  0  0  0  0  0  0  0  0
   -6.9081   -2.5151   31.4185 H   0  0  0  0  0  0  0  0  0  0  0  0
   -8.3520   -2.3940   33.8850 H   0  0  0  0  0  0  0  0  0  0  0  0
   -7.1730   -1.2700   33.8600 H   0  0  0  0  0  0  0  0  0  0  0  0
   -6.3101   -3.2346   34.8821 H   0  0  0  0  0  0  0  0  0  0  0  0
   -6.9041   -4.2372   33.5393 H   0  0  0  0  0  0  0  0  0  0  0  0
   -5.3791   -2.2369   32.2433 H   0  0  0  0  0  0  0  0  0  0  0  0
   -4.5170   -1.5530   34.1870 H   0  0  0  0  0  0  0  0  0  0  0  0
   -5.2743   -4.3690   31.3866 H   0  0  0  0  0  0  0  0  0  0  0  0
   -4.5733   -5.2589   34.1848 H   0  0  0  0  0  0  0  0  0  0  0  0
   -5.7934   -5.9044   32.9911 H   0  0  0  0  0  0  0  0  0  0  0  0
   -2.6799   -6.5361   34.5595 H   0  0  0  0  0  0  0  0  0  0  0  0
   -1.0663   -8.2982   33.8540 H   0  0  0  0  0  0  0  0  0  0  0  0
   -1.2891   -9.3721   31.6146 H   0  0  0  0  0  0  0  0  0  0  0  0
   -3.1295   -8.6859   30.0818 H   0  0  0  0  0  0  0  0  0  0  0  0
   -4.7456   -6.9230   30.7766 H   0  0  0  0  0  0  0  0  0  0  0  0
   -2.5540   -4.5580   32.3630 H   0  0  0  0  0  0  0  0  0  0  0  0
   -1.6230   -1.8538   29.0035 H   0  0  0  0  0  0  0  0  0  0  0  0
    0.2540   -2.5520   26.3760 H   0  0  0  0  0  0  0  0  0  0  0  0
    1.4906    0.1685   26.3873 H   0  0  0  0  0  0  0  0  0  0  0  0
   -0.8101    0.2065   25.5148 H   0  0  0  0  0  0  0  0  0  0  0  0
    0.4224    0.6172   24.2742 H   0  0  0  0  0  0  0  0  0  0  0  0
   -0.3454   -1.0067   24.2742 H   0  0  0  0  0  0  0  0  0  0  0  0
    2.7651   -2.8187   26.5496 H   0  0  0  0  0  0  0  0  0  0  0  0
    4.6933   -3.7458   25.2733 H   0  0  0  0  0  0  0  0  0  0  0  0
    5.3274   -2.7584   23.0730 H   0  0  0  0  0  0  0  0  0  0  0  0
    4.0301   -0.8403   22.1498 H   0  0  0  0  0  0  0  0  0  0  0  0
    2.0999    0.0899   23.4176 H   0  0  0  0  0  0  0  0  0  0  0  0
    2.2237   -3.8395   29.0813 H   0  0  0  0  0  0  0  0  0  0  0  0
    3.4613   -6.5149   30.0748 H   0  0  0  0  0  0  0  0  0  0  0  0
    2.2116   -7.0739   28.9118 H   0  0  0  0  0  0  0  0  0  0  0  0
    2.7339   -5.3552   28.9118 H   0  0  0  0  0  0  0  0  0  0  0  0
    4.2526   -6.4096   32.9043 H   0  0  0  0  0  0  0  0  0  0  0  0
    3.8509   -7.2374   31.3616 H   0  0  0  0  0  0  0  0  0  0  0  0
    4.2650   -5.4895   31.3616 H   0  0  0  0  0  0  0  0  0  0  0  0
   -1.1450   -5.5637   31.1731 H   0  0  0  0  0  0  0  0  0  0  0  0
   -9.6953   -0.2392   31.3612 H   0  0  0  0  0  0  0  0  0  0  0  0
  1  2  1  0
  2  3  1  0
  3  4  2  0
  4  5  1  0
  5  6  2  0
  6  7  1  0
  7  8  1  0
  8  9  1  0
  9 10  1  0
 10 11  1  0
 11 12  1  0
 11 13  1  0
 13 14  1  0
 14 15  1  0
 15 16  2  0
 16 17  1  0
 17 18  2  0
 18 19  1  0
 19 20  2  0
 13 21  1  0
 21 22  1  0
 22 23  2  0
 22 24  1  0
 24 25  2  0
 25 26  1  0
 26 27  1  0
 27 28  2  0
 27 29  1  0
 29 30  1  0
 30 31  1  0
 30 32  1  0
 32 33  2  0
 33 34  1  0
 34 35  2  0
 35 36  1  0
 36 37  2  0
 26 38  2  0
 38 39  1  0
 39 40  1  0
 40 41  1  0
 40 42  1  0
 42 43  1  0
 42 44  2  0
 42 45  2  0
 39 46  2  0
  7 47  2  0
 47  3  1  0
 20 15  1  0
 46 24  1  0
 37 32  1  0
  1 48  1  0
  1 49  1  0
  1 50  1  0
  4 51  1  0
  5 52  1  0
  6 53  1  0
  8 54  1  0
  8 55  1  0
  9 56  1  0
  9 57  1  0
 10 58  1  0
 10 59  1  0
 11 60  1  6
 12 61  1  0
 13 62  1  6
 14 63  1  0
 14 64  1  0
 16 65  1  0
 17 66  1  0
 18 67  1  0
 19 68  1  0
 20 69  1  0
 21 70  1  0
 25 71  1  0
 29 72  1  0
 30 73  1  1
 31 74  1  0
 31 75  1  0
 31 76  1  0
 33 77  1  0
 34 78  1  0
 35 79  1  0
 36 80  1  0
 37 81  1  0
 38 82  1  0
 41 83  1  0
 41 84  1  0
 41 85  1  0
 43 86  1  0
 43 87  1  0
 43 88  1  0
 46 89  1  0
 47 90  1  0
M  CHG  1   9   1
M  END
>  <meeko>  (3) 
{"is_sidechain": [false], "free_energy": -10.553, "intermolecular_energy": -20.317, "internal_energy": -2.515}

$$$$
2vkm_ligand
     RDKit          3D

 90 93  0  0  0  0  0  0  0  0999 V2000
   -1.2670   -9.3260   28.9820 C   0  0  0  0  0  0  0  0  0  0  0  0
   -2.3790   -8.6000   29.4940 O   0  0  0  0  0  0  0  0  0  0  0  0
   -2.3300   -8.2370   30.8100 C   0  0  0  0  0  0  0  0  0  0  0  0
   -1.3390   -8.5870   31.7240 C   0  0  0  0  0  0  0  0  0  0  0  0
   -1.4220   -8.1480   33.0480 C   0  0  0  0  0  0  0  0  0  0  0  0
   -2.4950   -7.3600   33.4660 C   0  0  0  0  0  0  0  0  0  0  0  0
   -3.4950   -6.9930   32.5550 C   0  0  0  0  0  0  0  0  0  0  0  0
   -4.6790   -6.1850   32.9970 C   0  0  0  0  0  0  0  0  0  0  0  0
   -4.3270   -5.3310   34.1550 N   0  0  0  0  0  0  0  0  0  0  0  0
   -4.2630   -3.8550   33.8870 C   0  0  0  0  0  0  0  0  0  0  0  0
   -5.5740   -3.4690   33.1890 C   0  0  1  0  0  0  0  0  0  0  0  0
   -6.5650   -3.2710   34.2160 O   0  0  0  0  0  0  0  0  0  0  0  0
   -5.4320   -2.2210   32.2730 C   0  0  2  0  0  0  0  0  0  0  0  0
   -6.5360   -2.1680   31.1880 C   0  0  0  0  0  0  0  0  0  0  0  0
   -7.2960   -0.8610   31.1740 C   0  0  0  0  0  0  0  0  0  0  0  0
   -8.6450   -0.8320   30.7940 C   0  0  0  0  0  0  0  0  0  0  0  0
   -9.3460    0.3740   30.7590 C   0  0  0  0  0  0  0  0  0  0  0  0
   -8.7080    1.5620   31.1080 C   0  0  0  0  0  0  0  0  0  0  0  0
   -7.3700    1.5450   31.4960 C   0  0  0  0  0  0  0  0  0  0  0  0
   -6.6660    0.3410   31.5310 C   0  0  0  0  0  0  0  0  0  0  0  0
   -4.0970   -2.2000   31.6520 N   0  0  0  0  0  0  0  0  0  0  0  0
   -3.8030   -3.0940   30.6350 C   0  0  0  0  0  0  0  0  0  0  0  0
   -4.6710   -3.8030   30.1330 O   0  0  0  0  0  0  0  0  0  0  0  0
   -2.3860   -3.1810   30.1790 C   0  0  0  0  0  0  0  0  0  0  0  0
   -1.4880   -4.1240   30.6920 C   0  0  0  0  0  0  0  0  0  0  0  0
   -0.1610   -4.1620   30.2370 C   0  0  0  0  0  0  0  0  0  0  0  0
    0.7430   -5.1870   30.8270 C   0  0  0  0  0  0  0  0  0  0  0  0
    0.9730   -6.2140   30.1960 O   0  0  0  0  0  0  0  0  0  0  0  0
    1.3000   -4.8970   32.0500 N   0  0  0  0  0  0  0  0  0  0  0  0
    2.2520   -5.7950   32.6910 C   0  0  2  0  0  0  0  0  0  0  0  0
    1.5400   -6.9030   33.4720 C   0  0  0  0  0  0  0  0  0  0  0  0
    3.1940   -4.9830   33.5630 C   0  0  0  0  0  0  0  0  0  0  0  0
    2.7240   -4.2060   34.6350 C   0  0  0  0  0  0  0  0  0  0  0  0
    3.6070   -3.4480   35.4070 C   0  0  0  0  0  0  0  0  0  0  0  0
    4.9690   -3.4490   35.1130 C   0  0  0  0  0  0  0  0  0  0  0  0
    5.4490   -4.2060   34.0480 C   0  0  0  0  0  0  0  0  0  0  0  0
    4.5680   -4.9660   33.2750 C   0  0  0  0  0  0  0  0  0  0  0  0
    0.2780   -3.2300   29.2920 C   0  0  0  0  0  0  0  0  0  0  0  0
   -0.6100   -2.2740   28.7950 C   0  0  0  0  0  0  0  0  0  0  0  0
   -0.1040   -1.3260   27.8370 N   0  0  0  0  0  0  0  0  0  0  0  0
    1.3760   -1.2140   27.7910 C   0  0  0  0  0  0  0  0  0  0  0  0
   -0.8220   -1.3900   26.2740 S   0  0  0  0  0  0  0  0  0  0  0  0
    0.5350   -0.8740   25.2430 C   0  0  0  0  0  0  0  0  0  0  0  0
   -1.0860   -2.7810   25.9700 O   0  0  0  0  0  0  0  0  0  0  0  0
   -1.8750   -0.4000   26.1920 O   0  0  0  0  0  0  0  0  0  0  0  0
   -1.9380   -2.2550   29.2280 C   0  0  0  0  0  0  0  0  0  0  0  0
   -3.4030   -7.4450   31.2300 C   0  0  0  0  0  0  0  0  0  0  0  0
   -0.6681   -9.7170   29.8178 H   0  0  0  0  0  0  0  0  0  0  0  0
   -1.6277  -10.1631   28.3663 H   0  0  0  0  0  0  0  0  0  0  0  0
   -0.6457   -8.6590   28.3663 H   0  0  0  0  0  0  0  0  0  0  0  0
   -0.4905   -9.2093   31.4034 H   0  0  0  0  0  0  0  0  0  0  0  0
   -0.6360   -8.4256   33.7657 H   0  0  0  0  0  0  0  0  0  0  0  0
   -2.5562   -7.0262   34.5123 H   0  0  0  0  0  0  0  0  0  0  0  0
   -5.0113   -5.5465   32.1652 H   0  0  0  0  0  0  0  0  0  0  0  0
   -5.4844   -6.8720   33.2960 H   0  0  0  0  0  0  0  0  0  0  0  0
   -3.3960   -5.5980   34.5190 H   0  0  0  0  0  0  0  0  0  0  0  0
   -4.9700   -5.5230   34.9340 H   0  0  0  0  0  0  0  0  0  0  0  0
   -4.1620   -3.3032   34.8332 H   0  0  0  0  0  0  0  0  0  0  0  0
   -3.3954   -3.6073   33.2578 H   0  0  0  0  0  0  0  0  0  0  0  0
   -5.8772   -4.2787   32.5089 H   0  0  0  0  0  0  0  0  0  0  0  0
   -6.3200   -3.8790   34.9450 H   0  0  0  0  0  0  0  0  0  0  0  0
   -5.5533   -1.3281   32.9039 H   0  0  0  0  0  0  0  0  0  0  0  0
   -6.0657   -2.3094   30.2037 H   0  0  0  0  0  0  0  0  0  0  0  0
   -7.2593   -2.9639   31.4189 H   0  0  0  0  0  0  0  0  0  0  0  0
   -9.1551   -1.7676   30.5212 H   0  0  0  0  0  0  0  0  0  0  0  0
  -10.4032    0.3865   30.4556 H   0  0  0  0  0  0  0  0  0  0  0  0
   -9.2601    2.5129   31.0773 H   0  0  0  0  0  0  0  0  0  0  0  0
   -6.8676    2.4829   31.7753 H   0  0  0  0  0  0  0  0  0  0  0  0
   -5.6104    0.3339   31.8404 H   0  0  0  0  0  0  0  0  0  0  0  0
   -3.3220   -1.9570   32.2620 H   0  0  0  0  0  0  0  0  0  0  0  0
   -1.8244   -4.8398   31.4565 H   0  0  0  0  0  0  0  0  0  0  0  0
    1.2490   -3.9590   32.4210 H   0  0  0  0  0  0  0  0  0  0  0  0
    2.8478   -6.3060   31.9203 H   0  0  0  0  0  0  0  0  0  0  0  0
    1.6555   -6.7233   34.5511 H   0  0  0  0  0  0  0  0  0  0  0  0
    0.4709   -6.9053   33.2130 H   0  0  0  0  0  0  0  0  0  0  0  0
    1.9821   -7.8764   33.2130 H   0  0  0  0  0  0  0  0  0  0  0  0
    1.6492   -4.1946   34.8687 H   0  0  0  0  0  0  0  0  0  0  0  0
    3.2269   -2.8495   36.2481 H   0  0  0  0  0  0  0  0  0  0  0  0
    5.6642   -2.8523   35.7218 H   0  0  0  0  0  0  0  0  0  0  0  0
    6.5240   -4.2057   33.8147 H   0  0  0  0  0  0  0  0  0  0  0  0
    4.9548   -5.5573   32.4319 H   0  0  0  0  0  0  0  0  0  0  0  0
    1.3203   -3.2498   28.9409 H   0  0  0  0  0  0  0  0  0  0  0  0
    1.7735   -1.1839   28.8162 H   0  0  0  0  0  0  0  0  0  0  0  0
    1.7932   -2.0831   27.2613 H   0  0  0  0  0  0  0  0  0  0  0  0
    1.6577   -0.2920   27.2613 H   0  0  0  0  0  0  0  0  0  0  0  0
    1.3757   -0.5543   25.8763 H   0  0  0  0  0  0  0  0  0  0  0  0
    0.8530   -1.7140   24.6079 H   0  0  0  0  0  0  0  0  0  0  0  0
    0.2146   -0.0350   24.6079 H   0  0  0  0  0  0  0  0  0  0  0  0
   -2.6357   -1.5089   28.8200 H   0  0  0  0  0  0  0  0  0  0  0  0
   -4.1881   -7.1718   30.5096 H   0  0  0  0  0  0  0  0  0  0  0  0
  1  2  1  0
  2  3  1  0
  3  4  2  0
  4  5  1  0
  5  6  2  0
  6  7  1  0
  7  8  1  0
  8  9  1  0
  9 10  1  0
 10 11  1  0
 11 12  1  0
 11 13  1  0
 13 14  1  0
 14 15  1  0
 15 16  2  0
 16 17  1  0
 17 18  2  0
 18 19  1  0
 19 20  2  0
 13 21  1  0
 21 22  1  0
 22 23  2  0
 22 24  1  0
 24 25  2  0
 25 26  1  0
 26 27  1  0
 27 28  2  0
 27 29  1  0
 29 30  1  0
 30 31  1  0
 30 32  1  0
 32 33  2  0
 33 34  1  0
 34 35  2  0
 35 36  1  0
 36 37  2  0
 26 38  2  0
 38 39  1  0
 39 40  1  0
 40 41  1  0
 40 42  1  0
 42 43  1  0
 42 44  2  0
 42 45  2  0
 39 46  2  0
  7 47  2  0
 47  3  1  0
 20 15  1  0
 46 24  1  0
 37 32  1  0
  1 48  1  0
  1 49  1  0
  1 50  1  0
  4 51  1  0
  5 52  1  0
  6 53  1  0
  8 54  1  0
  8 55  1  0
  9 56  1  0
  9 57  1  0
 10 58  1  0
 10 59  1  0
 11 60  1  6
 12 61  1  0
 13 62  1  1
 14 63  1  0
 14 64  1  0
 16 65  1  0
 17 66  1  0
 18 67  1  0
 19 68  1  0
 20 69  1  0
 21 70  1  0
 25 71  1  0
 29 72  1  0
 30 73  1  6
 31 74  1  0
 31 75  1  0
 31 76  1  0
 33 77  1  0
 34 78  1  0
 35 79  1  0
 36 80  1  0
 37 81  1  0
 38 82  1  0
 41 83  1  0
 41 84  1  0
 41 85  1  0
 43 86  1  0
 43 87  1  0
 43 88  1  0
 46 89  1  0
 47 90  1  0
M  CHG  1   9   1
M  END
>  <meeko>  (4) 
{"is_sidechain": [false], "free_energy": -9.807, "intermolecular_energy": -19.309, "internal_energy": -2.101}

$$$$
2vkm_ligand
     RDKit          3D

 90 93  0  0  0  0  0  0  0  0999 V2000
   -4.5680   -4.2530   33.5860 C   0  0  0  0  0  0  0  0  0  0  0  0
   -4.9140   -5.6320   33.6630 O   0  0  0  0  0  0  0  0  0  0  0  0
   -4.1660   -6.5010   32.9200 C   0  0  0  0  0  0  0  0  0  0  0  0
   -4.5020   -7.0180   31.6710 C   0  0  0  0  0  0  0  0  0  0  0  0
   -3.6400   -7.9090   31.0280 C   0  0  0  0  0  0  0  0  0  0  0  0
   -2.4400   -8.2910   31.6290 C   0  0  0  0  0  0  0  0  0  0  0  0
   -2.0850   -7.7740   32.8820 C   0  0  0  0  0  0  0  0  0  0  0  0
   -0.8230   -8.2090   33.5640 C   0  0  0  0  0  0  0  0  0  0  0  0
    0.1720   -7.1100   33.5740 N   0  0  0  0  0  0  0  0  0  0  0  0
    1.5360   -7.4540   33.0500 C   0  0  0  0  0  0  0  0  0  0  0  0
    1.7160   -6.6860   31.7330 C   0  0  1  0  0  0  0  0  0  0  0  0
    0.5900   -7.0030   30.8930 O   0  0  0  0  0  0  0  0  0  0  0  0
    1.8720   -5.1530   31.9390 C   0  0  2  0  0  0  0  0  0  0  0  0
    2.0710   -4.7830   33.4290 C   0  0  0  0  0  0  0  0  0  0  0  0
    3.5190   -4.5590   33.8000 C   0  0  0  0  0  0  0  0  0  0  0  0
    4.5430   -5.0090   32.9550 C   0  0  0  0  0  0  0  0  0  0  0  0
    5.8820   -4.8230   33.3010 C   0  0  0  0  0  0  0  0  0  0  0  0
    6.2110   -4.1800   34.4920 C   0  0  0  0  0  0  0  0  0  0  0  0
    5.2030   -3.7190   35.3360 C   0  0  0  0  0  0  0  0  0  0  0  0
    3.8630   -3.9050   34.9930 C   0  0  0  0  0  0  0  0  0  0  0  0
    0.7050   -4.4480   31.3840 N   0  0  0  0  0  0  0  0  0  0  0  0
    0.6730   -4.1360   30.0340 C   0  0  0  0  0  0  0  0  0  0  0  0
    1.5240   -4.5610   29.2580 O   0  0  0  0  0  0  0  0  0  0  0  0
   -0.4220   -3.2440   29.5560 C   0  0  0  0  0  0  0  0  0  0  0  0
   -1.7150   -3.2890   30.0890 C   0  0  0  0  0  0  0  0  0  0  0  0
   -2.7160   -2.4360   29.6000 C   0  0  0  0  0  0  0  0  0  0  0  0
   -4.0700   -2.5380   30.2080 C   0  0  0  0  0  0  0  0  0  0  0  0
   -4.7060   -3.5800   30.0780 O   0  0  0  0  0  0  0  0  0  0  0  0
   -4.5180   -1.4500   30.9190 N   0  0  0  0  0  0  0  0  0  0  0  0
   -5.7990   -1.4620   31.6140 C   0  0  2  0  0  0  0  0  0  0  0  0
   -6.6810   -2.6220   31.1430 C   0  0  0  0  0  0  0  0  0  0  0  0
   -6.4740   -0.1120   31.4420 C   0  0  0  0  0  0  0  0  0  0  0  0
   -7.8150    0.0940   31.8030 C   0  0  0  0  0  0  0  0  0  0  0  0
   -8.4220    1.3370   31.6120 C   0  0  0  0  0  0  0  0  0  0  0  0
   -7.7000    2.3870   31.0500 C   0  0  0  0  0  0  0  0  0  0  0  0
   -6.3720    2.1950   30.6780 C   0  0  0  0  0  0  0  0  0  0  0  0
   -5.7630    0.9530   30.8690 C   0  0  0  0  0  0  0  0  0  0  0  0
   -2.4300   -1.5590   28.5490 C   0  0  0  0  0  0  0  0  0  0  0  0
   -1.1460   -1.5270   28.0000 C   0  0  0  0  0  0  0  0  0  0  0  0
   -0.9080   -0.6190   26.9090 N   0  0  0  0  0  0  0  0  0  0  0  0
    0.4700   -0.0660   26.8470 C   0  0  0  0  0  0  0  0  0  0  0  0
   -1.4980   -1.1270   25.3730 S   0  0  0  0  0  0  0  0  0  0  0  0
   -0.0040   -1.7070   24.5970 C   0  0  0  0  0  0  0  0  0  0  0  0
   -2.3450   -2.2810   25.5890 O   0  0  0  0  0  0  0  0  0  0  0  0
   -1.9860    0.0260   24.6460 O   0  0  0  0  0  0  0  0  0  0  0  0
   -0.1440   -2.3580   28.5070 C   0  0  0  0  0  0  0  0  0  0  0  0
   -2.9630   -6.8840   33.5200 C   0  0  0  0  0  0  0  0  0  0  0  0
   -4.4652   -3.8435   34.6017 H   0  0  0  0  0  0  0  0  0  0  0  0
   -3.6146   -4.1437   33.0484 H   0  0  0  0  0  0  0  0  0  0  0  0
   -5.3569   -3.7065   33.0484 H   0  0  0  0  0  0  0  0  0  0  0  0
   -5.4470   -6.7243   31.1907 H   0  0  0  0  0  0  0  0  0  0  0  0
   -3.9089   -8.3126   30.0407 H   0  0  0  0  0  0  0  0  0  0  0  0
   -1.7714   -8.9994   31.1181 H   0  0  0  0  0  0  0  0  0  0  0  0
   -1.0533   -8.4972   34.6003 H   0  0  0  0  0  0  0  0  0  0  0  0
   -0.4007   -9.0638   33.0154 H   0  0  0  0  0  0  0  0  0  0  0  0
    0.3120   -6.7710   34.5410 H   0  0  0  0  0  0  0  0  0  0  0  0
   -0.2070   -6.2960   33.0720 H   0  0  0  0  0  0  0  0  0  0  0  0
    2.3067   -7.1497   33.7735 H   0  0  0  0  0  0  0  0  0  0  0  0
    1.6338   -8.5378   32.8896 H   0  0  0  0  0  0  0  0  0  0  0  0
    2.6557   -6.9986   31.2541 H   0  0  0  0  0  0  0  0  0  0  0  0
   -0.1000   -7.3590   31.4930 H   0  0  0  0  0  0  0  0  0  0  0  0
    2.7780   -4.8352   31.4022 H   0  0  0  0  0  0  0  0  0  0  0  0
    1.5101   -3.8601   33.6377 H   0  0  0  0  0  0  0  0  0  0  0  0
    1.7085   -5.6319   34.0272 H   0  0  0  0  0  0  0  0  0  0  0  0
    4.2888   -5.5131   32.0110 H   0  0  0  0  0  0  0  0  0  0  0  0
    6.6778   -5.1842   32.6331 H   0  0  0  0  0  0  0  0  0  0  0  0
    7.2665   -4.0362   34.7661 H   0  0  0  0  0  0  0  0  0  0  0  0
    5.4637   -3.2075   36.2743 H   0  0  0  0  0  0  0  0  0  0  0  0
    3.0714   -3.5366   35.6621 H   0  0  0  0  0  0  0  0  0  0  0  0
    0.2480   -3.7820   32.0000 H   0  0  0  0  0  0  0  0  0  0  0  0
   -1.9483   -3.9980   30.8970 H   0  0  0  0  0  0  0  0  0  0  0  0
   -3.8780   -0.7110   31.1720 H   0  0  0  0  0  0  0  0  0  0  0  0
   -5.6299   -1.6289   32.6880 H   0  0  0  0  0  0  0  0  0  0  0  0
   -7.0852   -3.1536   32.0171 H   0  0  0  0  0  0  0  0  0  0  0  0
   -7.5106   -2.2292   30.5368 H   0  0  0  0  0  0  0  0  0  0  0  0
   -6.0807   -3.3164   30.5368 H   0  0  0  0  0  0  0  0  0  0  0  0
   -8.3937   -0.7326   32.2410 H   0  0  0  0  0  0  0  0  0  0  0  0
   -9.4714    1.4870   31.9057 H   0  0  0  0  0  0  0  0  0  0  0  0
   -8.1780    3.3663   30.9002 H   0  0  0  0  0  0  0  0  0  0  0  0
   -5.8015    3.0234   30.2328 H   0  0  0  0  0  0  0  0  0  0  0  0
   -4.7152    0.8082   30.5671 H   0  0  0  0  0  0  0  0  0  0  0  0
   -3.2144   -0.8958   28.1555 H   0  0  0  0  0  0  0  0  0  0  0  0
    0.8501    0.0866   27.8679 H   0  0  0  0  0  0  0  0  0  0  0  0
    1.1244   -0.7711   26.3136 H   0  0  0  0  0  0  0  0  0  0  0  0
    0.4554    0.8959   26.3136 H   0  0  0  0  0  0  0  0  0  0  0  0
    0.7250   -1.9900   25.3706 H   0  0  0  0  0  0  0  0  0  0  0  0
   -0.2321   -2.5819   23.9705 H   0  0  0  0  0  0  0  0  0  0  0  0
    0.4180   -0.9074   23.9705 H   0  0  0  0  0  0  0  0  0  0  0  0
    0.8690   -2.3164   28.0802 H   0  0  0  0  0  0  0  0  0  0  0  0
   -2.6999   -6.4810   34.5091 H   0  0  0  0  0  0  0  0  0  0  0  0
  1  2  1  0
  2  3  1  0
  3  4  2  0
  4  5  1  0
  5  6  2  0
  6  7  1  0
  7  8  1  0
  8  9  1  0
  9 10  1  0
 10 11  1  0
 11 12  1  0
 11 13  1  0
 13 14  1  0
 14 15  1  0
 15 16  2  0
 16 17  1  0
 17 18  2  0
 18 19  1  0
 19 20  2  0
 13 21  1  0
 21 22  1  0
 22 23  2  0
 22 24  1  0
 24 25  2  0
 25 26  1  0
 26 27  1  0
 27 28  2  0
 27 29  1  0
 29 30  1  0
 30 31  1  0
 30 32  1  0
 32 33  2  0
 33 34  1  0
 34 35  2  0
 35 36  1  0
 36 37  2  0
 26 38  2  0
 38 39  1  0
 39 40  1  0
 40 41  1  0
 40 42  1  0
 42 43  1  0
 42 44  2  0
 42 45  2  0
 39 46  2  0
  7 47  2  0
 47  3  1  0
 20 15  1  0
 46 24  1  0
 37 32  1  0
  1 48  1  0
  1 49  1  0
  1 50  1  0
  4 51  1  0
  5 52  1  0
  6 53  1  0
  8 54  1  0
  8 55  1  0
  9 56  1  0
  9 57  1  0
 10 58  1  0
 10 59  1  0
 11 60  1  6
 12 61  1  0
 13 62  1  6
 14 63  1  0
 14 64  1  0
 16 65  1  0
 17 66  1  0
 18 67  1  0
 19 68  1  0
 20 69  1  0
 21 70  1  0
 25 71  1  0
 29 72  1  0
 30 73  1  1
 31 74  1  0
 31 75  1  0
 31 76  1  0
 33 77  1  0
 34 78  1  0
 35 79  1  0
 36 80  1  0
 37 81  1  0
 38 82  1  0
 41 83  1  0
 41 84  1  0
 41 85  1  0
 43 86  1  0
 43 87  1  0
 43 88  1  0
 46 89  1  0
 47 90  1  0
M  CHG  1   9   1
M  END
>  <meeko>  (5) 
{"is_sidechain": [false], "free_energy": -9.095, "intermolecular_energy": -19.552, "internal_energy": -0.501}

$$$$
