2yge_ligand
     RDKit          3D

 80 81  0  0  0  0  0  0  0  0999 V2000
   18.7860  -33.3150   -1.4940 C   0  0  0  0  0  0  0  0  0  0  0  0
   19.8090  -32.7580   -2.3140 O   0  0  0  0  0  0  0  0  0  0  0  0
   20.0240  -33.4200   -3.5200 C   0  0  0  0  0  0  0  0  0  0  0  0
   21.0290  -34.3100   -3.5980 C   0  0  0  0  0  0  0  0  0  0  0  0
   21.9330  -34.6250   -2.4210 C   0  0  0  0  0  0  0  0  0  0  0  0
   23.2940  -33.8850   -2.4570 C   0  0  2  0  0  0  0  0  0  0  0  0
   23.2210  -32.6510   -3.3570 C   0  0  0  0  0  0  0  0  0  0  0  0
   24.5070  -34.7860   -2.7730 C   0  0  0  0  0  0  0  0  0  0  0  0
   24.5570  -36.2460   -2.2400 C   0  0  2  0  0  0  0  0  0  0  0  0
   25.3570  -36.3320   -1.0640 O   0  0  0  0  0  0  0  0  0  0  0  0
   24.6810  -35.9530    0.1280 C   0  0  0  0  0  0  0  0  0  0  0  0
   25.1190  -37.1770   -3.3880 C   0  0  2  0  0  0  0  0  0  0  0  0
   25.9300  -38.2210   -2.8220 O   0  0  0  0  0  0  0  0  0  0  0  0
   25.8670  -36.4690   -4.5500 C   0  0  1  0  0  0  0  0  0  0  0  0
   27.3890  -36.5690   -4.4420 C   0  0  0  0  0  0  0  0  0  0  0  0
   25.4210  -37.0750   -5.8720 C   0  0  0  0  0  0  0  0  0  0  0  0
   24.9970  -36.4240   -6.9770 C   0  0  0  0  0  0  0  0  0  0  0  0
   25.0120  -34.9260   -7.1310 C   0  0  0  0  0  0  0  0  0  0  0  0
   24.4430  -37.2190   -8.1660 C   0  0  2  0  0  0  0  0  0  0  0  0
   25.0500  -38.5260   -8.1150 O   0  0  0  0  0  0  0  0  0  0  0  0
   24.2140  -39.5780   -8.0840 C   0  0  0  0  0  0  0  0  0  0  0  0
   22.9670  -39.1580   -7.7790 N   0  0  0  0  0  0  0  0  0  0  0  0
   24.4950  -40.7490   -8.2840 O   0  0  0  0  0  0  0  0  0  0  0  0
   24.7190  -36.4890   -9.5290 C   0  0  1  0  0  0  0  0  0  0  0  0
   26.0790  -36.7210   -9.9390 O   0  0  0  0  0  0  0  0  0  0  0  0
   26.5180  -35.8410  -10.9640 C   0  0  0  0  0  0  0  0  0  0  0  0
   23.7950  -36.9820  -10.6180 C   0  0  0  0  0  0  0  0  0  0  0  0
   22.4540  -36.9280  -10.6330 C   0  0  0  0  0  0  0  0  0  0  0  0
   21.6140  -36.3400   -9.6150 C   0  0  0  0  0  0  0  0  0  0  0  0
   20.5000  -36.9050   -9.1140 C   0  0  0  0  0  0  0  0  0  0  0  0
   19.9240  -38.2440   -9.4440 C   0  0  0  0  0  0  0  0  0  0  0  0
   19.8110  -36.1770   -8.0140 C   0  0  0  0  0  0  0  0  0  0  0  0
   18.5880  -36.1420   -7.9670 O   0  0  0  0  0  0  0  0  0  0  0  0
   20.6890  -35.5650   -7.1520 N   0  0  0  0  0  0  0  0  0  0  0  0
   20.4010  -34.7910   -6.0410 C   0  0  0  0  0  0  0  0  0  0  0  0
   19.4140  -33.8960   -5.9460 C   0  0  0  0  0  0  0  0  0  0  0  0
   19.1820  -33.1140   -4.7200 C   0  0  0  0  0  0  0  0  0  0  0  0
   18.3110  -32.2500   -4.7190 O   0  0  0  0  0  0  0  0  0  0  0  0
   21.3190  -35.0060   -4.8810 C   0  0  0  0  0  0  0  0  0  0  0  0
   22.2800  -35.7570   -5.0220 O   0  0  0  0  0  0  0  0  0  0  0  0
   19.0470  -33.1729   -0.4349 H   0  0  0  0  0  0  0  0  0  0  0  0
   17.8310  -32.8123   -1.7069 H   0  0  0  0  0  0  0  0  0  0  0  0
   18.6900  -34.3899   -1.7069 H   0  0  0  0  0  0  0  0  0  0  0  0
   21.4090  -34.3410   -1.4965 H   0  0  0  0  0  0  0  0  0  0  0  0
   22.1543  -35.7015   -2.4683 H   0  0  0  0  0  0  0  0  0  0  0  0
   23.4815  -33.5452   -1.4277 H   0  0  0  0  0  0  0  0  0  0  0  0
   23.1674  -31.7457   -2.7344 H   0  0  0  0  0  0  0  0  0  0  0  0
   24.1181  -32.6067   -3.9920 H   0  0  0  0  0  0  0  0  0  0  0  0
   22.3249  -32.7128   -3.9920 H   0  0  0  0  0  0  0  0  0  0  0  0
   24.5795  -34.8464   -3.8689 H   0  0  0  0  0  0  0  0  0  0  0  0
   25.3311  -34.2945   -2.2351 H   0  0  0  0  0  0  0  0  0  0  0  0
   23.5456  -36.5772   -1.9617 H   0  0  0  0  0  0  0  0  0  0  0  0
   25.2651  -36.2805    1.0007 H   0  0  0  0  0  0  0  0  0  0  0  0
   24.5667  -34.8592    0.1528 H   0  0  0  0  0  0  0  0  0  0  0  0
   23.6882  -36.4261    0.1528 H   0  0  0  0  0  0  0  0  0  0  0  0
   24.2216  -37.5914   -3.8706 H   0  0  0  0  0  0  0  0  0  0  0  0
   25.4560  -38.5920   -2.0580 H   0  0  0  0  0  0  0  0  0  0  0  0
   25.6110  -35.4008   -4.4918 H   0  0  0  0  0  0  0  0  0  0  0  0
   27.6809  -36.5882   -3.3816 H   0  0  0  0  0  0  0  0  0  0  0  0
   27.7316  -37.4916   -4.9334 H   0  0  0  0  0  0  0  0  0  0  0  0
   27.8494  -35.6992   -4.9334 H   0  0  0  0  0  0  0  0  0  0  0  0
   25.4468  -38.1729   -5.9357 H   0  0  0  0  0  0  0  0  0  0  0  0
   25.0167  -34.4552   -6.1368 H   0  0  0  0  0  0  0  0  0  0  0  0
   25.9132  -34.6233   -7.6843 H   0  0  0  0  0  0  0  0  0  0  0  0
   24.1170  -34.6053   -7.6843 H   0  0  0  0  0  0  0  0  0  0  0  0
   23.3485  -37.3066   -8.1006 H   0  0  0  0  0  0  0  0  0  0  0  0
   22.2530  -39.8490   -7.6080 H   0  0  0  0  0  0  0  0  0  0  0  0
   22.8350  -38.2010   -7.4920 H   0  0  0  0  0  0  0  0  0  0  0  0
   24.5412  -35.4147   -9.3735 H   0  0  0  0  0  0  0  0  0  0  0  0
   26.9654  -34.9442  -10.5106 H   0  0  0  0  0  0  0  0  0  0  0  0
   27.2680  -36.3496  -11.5876 H   0  0  0  0  0  0  0  0  0  0  0  0
   25.6606  -35.5477  -11.5876 H   0  0  0  0  0  0  0  0  0  0  0  0
   24.2752  -37.4362  -11.4973 H   0  0  0  0  0  0  0  0  0  0  0  0
   21.9469  -37.3731  -11.5018 H   0  0  0  0  0  0  0  0  0  0  0  0
   21.9072  -35.3563   -9.2196 H   0  0  0  0  0  0  0  0  0  0  0  0
   19.6922  -38.7829   -8.5135 H   0  0  0  0  0  0  0  0  0  0  0  0
   19.0029  -38.1124  -10.0307 H   0  0  0  0  0  0  0  0  0  0  0  0
   20.6530  -38.8222  -10.0307 H   0  0  0  0  0  0  0  0  0  0  0  0
   21.6850  -35.6350   -7.3600 H   0  0  0  0  0  0  0  0  0  0  0  0
   18.7534  -33.7381   -6.8112 H   0  0  0  0  0  0  0  0  0  0  0  0
  1  2  1  0
  2  3  1  0
  3  4  2  0
  4  5  1  0
  5  6  1  0
  6  7  1  0
  6  8  1  0
  8  9  1  0
  9 10  1  0
 10 11  1  0
  9 12  1  0
 12 13  1  0
 12 14  1  0
 14 15  1  0
 14 16  1  0
 16 17  2  0
 17 18  1  0
 17 19  1  0
 19 20  1  0
 20 21  1  0
 21 22  1  0
 21 23  2  0
 19 24  1  0
 24 25  1  0
 25 26  1  0
 24 27  1  0
 27 28  2  0
 28 29  1  0
 29 30  2  0
 30 31  1  0
 30 32  1  0
 32 33  2  0
 32 34  1  0
 34 35  1  0
 35 36  2  0
 36 37  1  0
 37 38  2  0
 35 39  1  0
 39 40  2  0
 37  3  1  0
 39  4  1  0
  1 41  1  0
  1 42  1  0
  1 43  1  0
  5 44  1  0
  5 45  1  0
  6 46  1  1
  7 47  1  0
  7 48  1  0
  7 49  1  0
  8 50  1  0
  8 51  1  0
  9 52  1  1
 11 53  1  0
 11 54  1  0
 11 55  1  0
 12 56  1  6
 13 57  1  0
 14 58  1  6
 15 59  1  0
 15 60  1  0
 15 61  1  0
 16 62  1  0
 18 63  1  0
 18 64  1  0
 18 65  1  0
 19 66  1  1
 22 67  1  0
 22 68  1  0
 24 69  1  1
 26 70  1  0
 26 71  1  0
 26 72  1  0
 27 73  1  0
 28 74  1  0
 29 75  1  0
 31 76  1  0
 31 77  1  0
 31 78  1  0
 34 79  1  0
 36 80  1  0
M  END
>  <meeko>  (1) 
{"is_sidechain": [false], "free_energy": -5.64, "intermolecular_energy": -11.409, "internal_energy": -2.418}

$$$$
2yge_ligand
     RDKit          3D

 80 81  0  0  0  0  0  0  0  0999 V2000
   17.3360  -31.9230   -3.8380 C   0  0  0  0  0  0  0  0  0  0  0  0
   17.8330  -33.2300   -3.5620 O   0  0  0  0  0  0  0  0  0  0  0  0
   18.5270  -33.8300   -4.6090 C   0  0  0  0  0  0  0  0  0  0  0  0
   19.8710  -33.8630   -4.5600 C   0  0  0  0  0  0  0  0  0  0  0  0
   20.6580  -33.2770   -3.4030 C   0  0  0  0  0  0  0  0  0  0  0  0
   21.5830  -34.2970   -2.6910 C   0  0  2  0  0  0  0  0  0  0  0  0
   20.8930  -34.8960   -1.4650 C   0  0  0  0  0  0  0  0  0  0  0  0
   23.0020  -33.7710   -2.3840 C   0  0  0  0  0  0  0  0  0  0  0  0
   24.1380  -34.7620   -2.0030 C   0  0  2  0  0  0  0  0  0  0  0  0
   24.5810  -34.5420   -0.6670 O   0  0  0  0  0  0  0  0  0  0  0  0
   24.5770  -35.7080    0.1460 C   0  0  0  0  0  0  0  0  0  0  0  0
   25.3260  -34.5760   -3.0370 C   0  0  2  0  0  0  0  0  0  0  0  0
   26.3120  -33.6730   -2.5090 O   0  0  0  0  0  0  0  0  0  0  0  0
   24.8970  -34.1470   -4.4670 C   0  0  1  0  0  0  0  0  0  0  0  0
   25.1650  -32.6710   -4.7620 C   0  0  0  0  0  0  0  0  0  0  0  0
   25.6330  -35.0010   -5.4860 C   0  0  0  0  0  0  0  0  0  0  0  0
   25.2410  -36.1830   -6.0110 C   0  0  0  0  0  0  0  0  0  0  0  0
   23.8990  -36.8160   -5.7530 C   0  0  0  0  0  0  0  0  0  0  0  0
   26.1960  -36.9710   -6.9160 C   0  0  2  0  0  0  0  0  0  0  0  0
   27.4900  -36.9490   -6.2790 O   0  0  0  0  0  0  0  0  0  0  0  0
   27.7890  -37.9930   -5.4860 C   0  0  0  0  0  0  0  0  0  0  0  0
   27.8040  -39.1290   -6.2180 N   0  0  0  0  0  0  0  0  0  0  0  0
   28.0100  -37.9680   -4.2870 O   0  0  0  0  0  0  0  0  0  0  0  0
   26.2400  -36.3750   -8.3680 C   0  0  1  0  0  0  0  0  0  0  0  0
   27.6070  -36.2050   -8.7830 O   0  0  0  0  0  0  0  0  0  0  0  0
   27.7980  -36.3710  -10.1810 C   0  0  0  0  0  0  0  0  0  0  0  0
   25.5430  -37.2760   -9.3590 C   0  0  0  0  0  0  0  0  0  0  0  0
   24.2400  -37.2730   -9.6850 C   0  0  0  0  0  0  0  0  0  0  0  0
   23.2380  -36.3640   -9.1790 C   0  0  0  0  0  0  0  0  0  0  0  0
   22.0010  -36.2190   -9.6890 C   0  0  0  0  0  0  0  0  0  0  0  0
   21.3820  -36.9760  -10.8190 C   0  0  0  0  0  0  0  0  0  0  0  0
   21.0850  -35.2850   -8.9810 C   0  0  0  0  0  0  0  0  0  0  0  0
   20.7570  -34.2270   -9.5020 O   0  0  0  0  0  0  0  0  0  0  0  0
   20.7260  -35.7380   -7.7340 N   0  0  0  0  0  0  0  0  0  0  0  0
   19.9130  -35.1210   -6.7980 C   0  0  0  0  0  0  0  0  0  0  0  0
   18.5800  -35.0690   -6.8330 C   0  0  0  0  0  0  0  0  0  0  0  0
   17.7940  -34.3870   -5.7910 C   0  0  0  0  0  0  0  0  0  0  0  0
   16.5770  -34.3040   -5.9190 O   0  0  0  0  0  0  0  0  0  0  0  0
   20.6490  -34.4550   -5.6800 C   0  0  0  0  0  0  0  0  0  0  0  0
   21.8770  -34.4270   -5.7190 O   0  0  0  0  0  0  0  0  0  0  0  0
   17.1368  -31.3991   -2.8915 H   0  0  0  0  0  0  0  0  0  0  0  0
   18.0833  -31.3614   -4.4177 H   0  0  0  0  0  0  0  0  0  0  0  0
   16.4043  -31.9998   -4.4177 H   0  0  0  0  0  0  0  0  0  0  0  0
   21.2801  -32.4556   -3.7882 H   0  0  0  0  0  0  0  0  0  0  0  0
   19.9239  -32.9375   -2.6574 H   0  0  0  0  0  0  0  0  0  0  0  0
   21.7554  -35.1078   -3.4142 H   0  0  0  0  0  0  0  0  0  0  0  0
   21.3555  -34.4945   -0.5513 H   0  0  0  0  0  0  0  0  0  0  0  0
   19.8248  -34.6340   -1.4809 H   0  0  0  0  0  0  0  0  0  0  0  0
   21.0023  -35.9904   -1.4809 H   0  0  0  0  0  0  0  0  0  0  0  0
   23.3404  -33.2311   -3.2807 H   0  0  0  0  0  0  0  0  0  0  0  0
   22.8591  -33.1873   -1.4627 H   0  0  0  0  0  0  0  0  0  0  0  0
   23.7635  -35.7953   -2.0493 H   0  0  0  0  0  0  0  0  0  0  0  0
   24.5780  -35.4156    1.2064 H   0  0  0  0  0  0  0  0  0  0  0  0
   23.6768  -36.3023   -0.0696 H   0  0  0  0  0  0  0  0  0  0  0  0
   25.4731  -36.3084   -0.0696 H   0  0  0  0  0  0  0  0  0  0  0  0
   25.7587  -35.5795   -3.1629 H   0  0  0  0  0  0  0  0  0  0  0  0
   26.3000  -32.8640   -3.0480 H   0  0  0  0  0  0  0  0  0  0  0  0
   23.8090  -34.2950   -4.5334 H   0  0  0  0  0  0  0  0  0  0  0  0
   25.2650  -32.1201   -3.8151 H   0  0  0  0  0  0  0  0  0  0  0  0
   26.0951  -32.5759   -5.3416 H   0  0  0  0  0  0  0  0  0  0  0  0
   24.3277  -32.2550   -5.3416 H   0  0  0  0  0  0  0  0  0  0  0  0
   26.5994  -34.6108   -5.8380 H   0  0  0  0  0  0  0  0  0  0  0  0
   23.7330  -36.8943   -4.6684 H   0  0  0  0  0  0  0  0  0  0  0  0
   23.1088  -36.1957   -6.2011 H   0  0  0  0  0  0  0  0  0  0  0  0
   23.8751  -37.8203   -6.2011 H   0  0  0  0  0  0  0  0  0  0  0  0
   25.8508  -38.0083   -7.0381 H   0  0  0  0  0  0  0  0  0  0  0  0
   27.9030  -40.0110   -5.7400 H   0  0  0  0  0  0  0  0  0  0  0  0
   27.4790  -39.0960   -7.1710 H   0  0  0  0  0  0  0  0  0  0  0  0
   25.7200  -35.4060   -8.3453 H   0  0  0  0  0  0  0  0  0  0  0  0
   28.6176  -37.0833  -10.3571 H   0  0  0  0  0  0  0  0  0  0  0  0
   26.8730  -36.7570  -10.6342 H   0  0  0  0  0  0  0  0  0  0  0  0
   28.0513  -35.4012  -10.6342 H   0  0  0  0  0  0  0  0  0  0  0  0
   26.1729  -38.0180   -9.8714 H   0  0  0  0  0  0  0  0  0  0  0  0
   23.9045  -38.0341  -10.4048 H   0  0  0  0  0  0  0  0  0  0  0  0
   23.5062  -35.7434   -8.3113 H   0  0  0  0  0  0  0  0  0  0  0  0
   20.7337  -37.7688  -10.4176 H   0  0  0  0  0  0  0  0  0  0  0  0
   20.7830  -36.2897  -11.4356 H   0  0  0  0  0  0  0  0  0  0  0  0
   22.1736  -37.4267  -11.4356 H   0  0  0  0  0  0  0  0  0  0  0  0
   21.1320  -36.6170   -7.4120 H   0  0  0  0  0  0  0  0  0  0  0  0
   18.0508  -35.5516   -7.6679 H   0  0  0  0  0  0  0  0  0  0  0  0
  1  2  1  0
  2  3  1  0
  3  4  2  0
  4  5  1  0
  5  6  1  0
  6  7  1  0
  6  8  1  0
  8  9  1  0
  9 10  1  0
 10 11  1  0
  9 12  1  0
 12 13  1  0
 12 14  1  0
 14 15  1  0
 14 16  1  0
 16 17  2  0
 17 18  1  0
 17 19  1  0
 19 20  1  0
 20 21  1  0
 21 22  1  0
 21 23  2  0
 19 24  1  0
 24 25  1  0
 25 26  1  0
 24 27  1  0
 27 28  2  0
 28 29  1  0
 29 30  2  0
 30 31  1  0
 30 32  1  0
 32 33  2  0
 32 34  1  0
 34 35  1  0
 35 36  2  0
 36 37  1  0
 37 38  2  0
 35 39  1  0
 39 40  2  0
 37  3  1  0
 39  4  1  0
  1 41  1  0
  1 42  1  0
  1 43  1  0
  5 44  1  0
  5 45  1  0
  6 46  1  6
  7 47  1  0
  7 48  1  0
  7 49  1  0
  8 50  1  0
  8 51  1  0
  9 52  1  1
 11 53  1  0
 11 54  1  0
 11 55  1  0
 12 56  1  6
 13 57  1  0
 14 58  1  1
 15 59  1  0
 15 60  1  0
 15 61  1  0
 16 62  1  0
 18 63  1  0
 18 64  1  0
 18 65  1  0
 19 66  1  6
 22 67  1  0
 22 68  1  0
 24 69  1  1
 26 70  1  0
 26 71  1  0
 26 72  1  0
 27 73  1  0
 28 74  1  0
 29 75  1  0
 31 76  1  0
 31 77  1  0
 31 78  1  0
 34 79  1  0
 36 80  1  0
M  END
>  <meeko>  (2) 
{"is_sidechain": [false], "free_energy": -5.537, "intermolecular_energy": -11.221, "internal_energy": -2.398}

$$$$
2yge_ligand
     RDKit          3D

 80 81  0  0  0  0  0  0  0  0999 V2000
   19.7580  -38.2160   -9.1360 C   0  0  0  0  0  0  0  0  0  0  0  0
   20.7770  -37.6640   -9.9650 O   0  0  0  0  0  0  0  0  0  0  0  0
   21.9520  -37.3170   -9.3040 C   0  0  0  0  0  0  0  0  0  0  0  0
   22.0290  -36.1110   -8.7130 C   0  0  0  0  0  0  0  0  0  0  0  0
   20.8820  -35.1180   -8.7350 C   0  0  0  0  0  0  0  0  0  0  0  0
   20.2060  -34.9080   -7.3570 C   0  0  2  0  0  0  0  0  0  0  0  0
   18.7350  -35.3230   -7.4010 C   0  0  0  0  0  0  0  0  0  0  0  0
   20.4140  -33.5050   -6.7460 C   0  0  0  0  0  0  0  0  0  0  0  0
   20.6310  -33.3420   -5.2150 C   0  0  2  0  0  0  0  0  0  0  0  0
   19.4790  -32.7790   -4.5940 O   0  0  0  0  0  0  0  0  0  0  0  0
   18.4970  -33.7350   -4.2160 C   0  0  0  0  0  0  0  0  0  0  0  0
   21.9030  -32.4490   -4.9930 C   0  0  2  0  0  0  0  0  0  0  0  0
   22.5380  -32.2430   -6.2660 O   0  0  0  0  0  0  0  0  0  0  0  0
   22.9330  -32.9330   -3.9360 C   0  0  1  0  0  0  0  0  0  0  0  0
   23.2090  -34.4360   -4.0020 C   0  0  0  0  0  0  0  0  0  0  0  0
   24.2390  -32.1770   -4.1300 C   0  0  0  0  0  0  0  0  0  0  0  0
   25.2030  -31.9450   -3.2130 C   0  0  0  0  0  0  0  0  0  0  0  0
   25.2010  -32.5250   -1.8230 C   0  0  0  0  0  0  0  0  0  0  0  0
   26.3820  -31.0290   -3.5600 C   0  0  2  0  0  0  0  0  0  0  0  0
   25.8790  -29.6770   -3.5480 O   0  0  0  0  0  0  0  0  0  0  0  0
   26.2970  -28.8870   -2.5430 C   0  0  0  0  0  0  0  0  0  0  0  0
   26.2730  -27.5960   -2.9400 N   0  0  0  0  0  0  0  0  0  0  0  0
   26.6600  -29.2390   -1.4330 O   0  0  0  0  0  0  0  0  0  0  0  0
   27.0240  -31.4100   -4.9430 C   0  0  1  0  0  0  0  0  0  0  0  0
   27.4880  -30.2220   -5.6080 O   0  0  0  0  0  0  0  0  0  0  0  0
   28.8150  -29.8580   -5.2540 C   0  0  0  0  0  0  0  0  0  0  0  0
   28.1890  -32.3550   -4.7700 C   0  0  0  0  0  0  0  0  0  0  0  0
   28.1950  -33.6840   -4.9610 C   0  0  0  0  0  0  0  0  0  0  0  0
   27.0810  -34.4820   -5.4190 C   0  0  0  0  0  0  0  0  0  0  0  0
   27.0440  -35.8270   -5.4130 C   0  0  0  0  0  0  0  0  0  0  0  0
   28.0840  -36.7700   -4.9000 C   0  0  0  0  0  0  0  0  0  0  0  0
   25.7760  -36.4690   -5.8540 C   0  0  0  0  0  0  0  0  0  0  0  0
   25.1320  -37.1630   -5.0790 O   0  0  0  0  0  0  0  0  0  0  0  0
   25.4840  -36.2130   -7.1720 N   0  0  0  0  0  0  0  0  0  0  0  0
   24.4060  -36.6640   -7.9150 C   0  0  0  0  0  0  0  0  0  0  0  0
   24.3130  -37.8530   -8.5160 C   0  0  0  0  0  0  0  0  0  0  0  0
   23.1250  -38.2480   -9.2900 C   0  0  0  0  0  0  0  0  0  0  0  0
   23.1300  -39.3210   -9.8850 O   0  0  0  0  0  0  0  0  0  0  0  0
   23.2830  -35.6850   -8.0350 C   0  0  0  0  0  0  0  0  0  0  0  0
   23.4280  -34.5620   -7.5610 O   0  0  0  0  0  0  0  0  0  0  0  0
   20.0263  -38.0706   -8.0792 H   0  0  0  0  0  0  0  0  0  0  0  0
   18.8027  -37.7120   -9.3444 H   0  0  0  0  0  0  0  0  0  0  0  0
   19.6583  -39.2915   -9.3444 H   0  0  0  0  0  0  0  0  0  0  0  0
   21.2698  -34.1488   -9.0817 H   0  0  0  0  0  0  0  0  0  0  0  0
   20.1152  -35.5312   -9.4068 H   0  0  0  0  0  0  0  0  0  0  0  0
   20.7285  -35.5782   -6.6586 H   0  0  0  0  0  0  0  0  0  0  0  0
   18.3535  -35.4306   -6.3749 H   0  0  0  0  0  0  0  0  0  0  0  0
   18.1527  -34.5541   -7.9299 H   0  0  0  0  0  0  0  0  0  0  0  0
   18.6405  -36.2829   -7.9299 H   0  0  0  0  0  0  0  0  0  0  0  0
   21.2977  -33.0732   -7.2386 H   0  0  0  0  0  0  0  0  0  0  0  0
   19.4452  -33.0122   -6.9153 H   0  0  0  0  0  0  0  0  0  0  0  0
   20.7889  -34.3256   -4.7486 H   0  0  0  0  0  0  0  0  0  0  0  0
   18.4413  -33.7892   -3.1187 H   0  0  0  0  0  0  0  0  0  0  0  0
   17.5184  -33.4342   -4.6184 H   0  0  0  0  0  0  0  0  0  0  0  0
   18.7714  -34.7213   -4.6184 H   0  0  0  0  0  0  0  0  0  0  0  0
   21.5287  -31.5129   -4.5530 H   0  0  0  0  0  0  0  0  0  0  0  0
   22.4480  -31.3040   -6.5000 H   0  0  0  0  0  0  0  0  0  0  0  0
   22.4964  -32.7306   -2.9468 H   0  0  0  0  0  0  0  0  0  0  0  0
   23.2832  -34.8403   -2.9817 H   0  0  0  0  0  0  0  0  0  0  0  0
   22.3877  -34.9365   -4.5359 H   0  0  0  0  0  0  0  0  0  0  0  0
   24.1545  -34.6121   -4.5359 H   0  0  0  0  0  0  0  0  0  0  0  0
   24.4195  -31.7713   -5.1364 H   0  0  0  0  0  0  0  0  0  0  0  0
   25.2038  -31.7091   -1.0852 H   0  0  0  0  0  0  0  0  0  0  0  0
   24.3007  -33.1417   -1.6843 H   0  0  0  0  0  0  0  0  0  0  0  0
   26.0970  -33.1478   -1.6843 H   0  0  0  0  0  0  0  0  0  0  0  0
   27.1916  -31.1399   -2.8236 H   0  0  0  0  0  0  0  0  0  0  0  0
   26.6670  -26.8960   -2.3310 H   0  0  0  0  0  0  0  0  0  0  0  0
   26.0950  -27.3910   -3.9110 H   0  0  0  0  0  0  0  0  0  0  0  0
   26.2499  -31.9097   -5.5439 H   0  0  0  0  0  0  0  0  0  0  0  0
   28.9083  -29.8324   -4.1583 H   0  0  0  0  0  0  0  0  0  0  0  0
   29.5196  -30.5960   -5.6648 H   0  0  0  0  0  0  0  0  0  0  0  0
   29.0445  -28.8637   -5.6648 H   0  0  0  0  0  0  0  0  0  0  0  0
   29.1402  -31.9036   -4.4515 H   0  0  0  0  0  0  0  0  0  0  0  0
   29.1351  -34.2144   -4.7492 H   0  0  0  0  0  0  0  0  0  0  0  0
   26.1971  -33.9503   -5.8011 H   0  0  0  0  0  0  0  0  0  0  0  0
   28.0754  -36.7622   -3.8001 H   0  0  0  0  0  0  0  0  0  0  0  0
   27.8677  -37.7862   -5.2612 H   0  0  0  0  0  0  0  0  0  0  0  0
   29.0743  -36.4555   -5.2612 H   0  0  0  0  0  0  0  0  0  0  0  0
   26.1540  -35.6620   -7.7100 H   0  0  0  0  0  0  0  0  0  0  0  0
   25.1513  -38.5600   -8.4298 H   0  0  0  0  0  0  0  0  0  0  0  0
  1  2  1  0
  2  3  1  0
  3  4  2  0
  4  5  1  0
  5  6  1  0
  6  7  1  0
  6  8  1  0
  8  9  1  0
  9 10  1  0
 10 11  1  0
  9 12  1  0
 12 13  1  0
 12 14  1  0
 14 15  1  0
 14 16  1  0
 16 17  2  0
 17 18  1  0
 17 19  1  0
 19 20  1  0
 20 21  1  0
 21 22  1  0
 21 23  2  0
 19 24  1  0
 24 25  1  0
 25 26  1  0
 24 27  1  0
 27 28  2  0
 28 29  1  0
 29 30  2  0
 30 31  1  0
 30 32  1  0
 32 33  2  0
 32 34  1  0
 34 35  1  0
 35 36  2  0
 36 37  1  0
 37 38  2  0
 35 39  1  0
 39 40  2  0
 37  3  1  0
 39  4  1  0
  1 41  1  0
  1 42  1  0
  1 43  1  0
  5 44  1  0
  5 45  1  0
  6 46  1  1
  7 47  1  0
  7 48  1  0
  7 49  1  0
  8 50  1  0
  8 51  1  0
  9 52  1  1
 11 53  1  0
 11 54  1  0
 11 55  1  0
 12 56  1  1
 13 57  1  0
 14 58  1  1
 15 59  1  0
 15 60  1  0
 15 61  1  0
 16 62  1  0
 18 63  1  0
 18 64  1  0
 18 65  1  0
 19 66  1  1
 22 67  1  0
 22 68  1  0
 24 69  1  6
 26 70  1  0
 26 71  1  0
 26 72  1  0
 27 73  1  0
 28 74  1  0
 29 75  1  0
 31 76  1  0
 31 77  1  0
 31 78  1  0
 34 79  1  0
 36 80  1  0
M  END
>  <meeko>  (3) 
{"is_sidechain": [false], "free_energy": -5.518, "intermolecular_energy": -10.916, "internal_energy": -2.665}

$$$$
2yge_ligand
     RDKit          3D

 80 81  0  0  0  0  0  0  0  0999 V2000
   19.9250  -38.2720  -10.1170 C   0  0  0  0  0  0  0  0  0  0  0  0
   19.9890  -37.8570   -8.7550 O   0  0  0  0  0  0  0  0  0  0  0  0
   21.1250  -37.1290   -8.4130 C   0  0  0  0  0  0  0  0  0  0  0  0
   20.9930  -35.8220   -8.1250 C   0  0  0  0  0  0  0  0  0  0  0  0
   19.6520  -35.1130   -8.1520 C   0  0  0  0  0  0  0  0  0  0  0  0
   18.9190  -35.1020   -6.7870 C   0  0  2  0  0  0  0  0  0  0  0  0
   17.4110  -35.2720   -6.9760 C   0  0  0  0  0  0  0  0  0  0  0  0
   19.2780  -33.9100   -5.8740 C   0  0  0  0  0  0  0  0  0  0  0  0
   19.2000  -34.0560   -4.3280 C   0  0  2  0  0  0  0  0  0  0  0  0
   18.6130  -32.9020   -3.7350 O   0  0  0  0  0  0  0  0  0  0  0  0
   17.2000  -32.9750   -3.5940 C   0  0  0  0  0  0  0  0  0  0  0  0
   20.6490  -34.2970   -3.7930 C   0  0  2  0  0  0  0  0  0  0  0  0
   20.9860  -35.6890   -3.9240 O   0  0  0  0  0  0  0  0  0  0  0  0
   20.9470  -33.7920   -2.3540 C   0  0  1  0  0  0  0  0  0  0  0  0
   20.4470  -34.7400   -1.2640 C   0  0  0  0  0  0  0  0  0  0  0  0
   22.4470  -33.5970   -2.1960 C   0  0  0  0  0  0  0  0  0  0  0  0
   23.3200  -33.1280   -3.1140 C   0  0  0  0  0  0  0  0  0  0  0  0
   22.9180  -32.5830   -4.4590 C   0  0  0  0  0  0  0  0  0  0  0  0
   24.8240  -33.1460   -2.8160 C   0  0  2  0  0  0  0  0  0  0  0  0
   24.9670  -33.2740   -1.3860 O   0  0  0  0  0  0  0  0  0  0  0  0
   25.3710  -34.4710   -0.9260 C   0  0  0  0  0  0  0  0  0  0  0  0
   25.5300  -34.4120    0.4140 N   0  0  0  0  0  0  0  0  0  0  0  0
   25.5840  -35.4790   -1.5810 O   0  0  0  0  0  0  0  0  0  0  0  0
   25.5400  -31.8620   -3.3690 C   0  0  1  0  0  0  0  0  0  0  0  0
   25.6370  -30.8720   -2.3300 O   0  0  0  0  0  0  0  0  0  0  0  0
   26.4100  -29.7390   -2.6990 C   0  0  0  0  0  0  0  0  0  0  0  0
   26.9290  -32.1750   -3.8710 C   0  0  0  0  0  0  0  0  0  0  0  0
   27.2600  -32.9000   -4.9520 C   0  0  0  0  0  0  0  0  0  0  0  0
   26.3390  -33.4980   -5.8900 C   0  0  0  0  0  0  0  0  0  0  0  0
   26.3370  -33.2740   -7.2170 C   0  0  0  0  0  0  0  0  0  0  0  0
   27.2840  -32.4290   -8.0050 C   0  0  0  0  0  0  0  0  0  0  0  0
   25.3550  -34.0430   -8.0290 C   0  0  0  0  0  0  0  0  0  0  0  0
   25.3100  -33.9000   -9.2430 O   0  0  0  0  0  0  0  0  0  0  0  0
   24.5470  -34.8460   -7.2610 N   0  0  0  0  0  0  0  0  0  0  0  0
   23.5170  -35.6740   -7.6760 C   0  0  0  0  0  0  0  0  0  0  0  0
   23.6290  -36.9710   -7.9750 C   0  0  0  0  0  0  0  0  0  0  0  0
   22.4760  -37.7760   -8.4110 C   0  0  0  0  0  0  0  0  0  0  0  0
   22.6550  -38.9420   -8.7480 O   0  0  0  0  0  0  0  0  0  0  0  0
   22.1890  -34.9990   -7.7990 C   0  0  0  0  0  0  0  0  0  0  0  0
   22.1270  -33.7860   -7.6170 O   0  0  0  0  0  0  0  0  0  0  0  0
   19.7575  -39.3582  -10.1618 H   0  0  0  0  0  0  0  0  0  0  0  0
   19.0964  -37.7521  -10.6202 H   0  0  0  0  0  0  0  0  0  0  0  0
   20.8717  -38.0259  -10.6202 H   0  0  0  0  0  0  0  0  0  0  0  0
   19.8174  -34.0714   -8.4645 H   0  0  0  0  0  0  0  0  0  0  0  0
   19.0118  -35.6683   -8.8533 H   0  0  0  0  0  0  0  0  0  0  0  0
   19.2940  -35.9762   -6.2346 H   0  0  0  0  0  0  0  0  0  0  0  0
   16.9221  -35.3271   -5.9922 H   0  0  0  0  0  0  0  0  0  0  0  0
   17.0125  -34.4131   -7.5359 H   0  0  0  0  0  0  0  0  0  0  0  0
   17.2137  -36.1981   -7.5359 H   0  0  0  0  0  0  0  0  0  0  0  0
   20.3143  -33.6291   -6.1133 H   0  0  0  0  0  0  0  0  0  0  0  0
   18.4876  -33.1779   -6.0962 H   0  0  0  0  0  0  0  0  0  0  0  0
   18.5582  -34.9083   -4.0602 H   0  0  0  0  0  0  0  0  0  0  0  0
   16.9383  -32.9885   -2.5257 H   0  0  0  0  0  0  0  0  0  0  0  0
   16.7379  -32.0995   -4.0736 H   0  0  0  0  0  0  0  0  0  0  0  0
   16.8306  -33.8934   -4.0736 H   0  0  0  0  0  0  0  0  0  0  0  0
   21.2927  -33.6688   -4.4263 H   0  0  0  0  0  0  0  0  0  0  0  0
   20.6760  -35.9940   -4.7940 H   0  0  0  0  0  0  0  0  0  0  0  0
   20.4043  -32.8436   -2.2273 H   0  0  0  0  0  0  0  0  0  0  0  0
   20.6721  -34.3133   -0.2754 H   0  0  0  0  0  0  0  0  0  0  0  0
   19.3602  -34.8754   -1.3661 H   0  0  0  0  0  0  0  0  0  0  0  0
   20.9490  -35.7134   -1.3661 H   0  0  0  0  0  0  0  0  0  0  0  0
   22.8712  -33.8702   -1.2186 H   0  0  0  0  0  0  0  0  0  0  0  0
   22.2703  -31.7049   -4.3201 H   0  0  0  0  0  0  0  0  0  0  0  0
   23.8178  -32.2899   -5.0197 H   0  0  0  0  0  0  0  0  0  0  0  0
   22.3723  -33.3562   -5.0197 H   0  0  0  0  0  0  0  0  0  0  0  0
   25.3105  -33.9918   -3.3239 H   0  0  0  0  0  0  0  0  0  0  0  0
   25.9390  -35.2030    0.8880 H   0  0  0  0  0  0  0  0  0  0  0  0
   25.4710  -33.5150    0.8700 H   0  0  0  0  0  0  0  0  0  0  0  0
   24.9388  -31.4815   -4.2079 H   0  0  0  0  0  0  0  0  0  0  0  0
   26.7614  -29.2239   -1.7928 H   0  0  0  0  0  0  0  0  0  0  0  0
   27.2755  -30.0640   -3.2950 H   0  0  0  0  0  0  0  0  0  0  0  0
   25.7917  -29.0516   -3.2950 H   0  0  0  0  0  0  0  0  0  0  0  0
   27.7640  -31.7628   -3.2854 H   0  0  0  0  0  0  0  0  0  0  0  0
   28.3329  -33.0526   -5.1406 H   0  0  0  0  0  0  0  0  0  0  0  0
   25.5821  -34.1886   -5.4896 H   0  0  0  0  0  0  0  0  0  0  0  0
   27.9246  -31.8574   -7.3173 H   0  0  0  0  0  0  0  0  0  0  0  0
   27.9103  -33.0739   -8.6389 H   0  0  0  0  0  0  0  0  0  0  0  0
   26.7144  -31.7336   -8.6389 H   0  0  0  0  0  0  0  0  0  0  0  0
   24.6660  -34.8120   -6.2490 H   0  0  0  0  0  0  0  0  0  0  0  0
   24.6143  -37.4531   -7.8928 H   0  0  0  0  0  0  0  0  0  0  0  0
  1  2  1  0
  2  3  1  0
  3  4  2  0
  4  5  1  0
  5  6  1  0
  6  7  1  0
  6  8  1  0
  8  9  1  0
  9 10  1  0
 10 11  1  0
  9 12  1  0
 12 13  1  0
 12 14  1  0
 14 15  1  0
 14 16  1  0
 16 17  2  0
 17 18  1  0
 17 19  1  0
 19 20  1  0
 20 21  1  0
 21 22  1  0
 21 23  2  0
 19 24  1  0
 24 25  1  0
 25 26  1  0
 24 27  1  0
 27 28  2  0
 28 29  1  0
 29 30  2  0
 30 31  1  0
 30 32  1  0
 32 33  2  0
 32 34  1  0
 34 35  1  0
 35 36  2  0
 36 37  1  0
 37 38  2  0
 35 39  1  0
 39 40  2  0
 37  3  1  0
 39  4  1  0
  1 41  1  0
  1 42  1  0
  1 43  1  0
  5 44  1  0
  5 45  1  0
  6 46  1  1
  7 47  1  0
  7 48  1  0
  7 49  1  0
  8 50  1  0
  8 51  1  0
  9 52  1  6
 11 53  1  0
 11 54  1  0
 11 55  1  0
 12 56  1  6
 13 57  1  0
 14 58  1  1
 15 59  1  0
 15 60  1  0
 15 61  1  0
 16 62  1  0
 18 63  1  0
 18 64  1  0
 18 65  1  0
 19 66  1  6
 22 67  1  0
 22 68  1  0
 24 69  1  6
 26 70  1  0
 26 71  1  0
 26 72  1  0
 27 73  1  0
 28 74  1  0
 29 75  1  0
 31 76  1  0
 31 77  1  0
 31 78  1  0
 34 79  1  0
 36 80  1  0
M  END
>  <meeko>  (4) 
{"is_sidechain": [false], "free_energy": -5.408, "intermolecular_energy": -11.595, "internal_energy": -1.763}

$$$$
2yge_ligand
     RDKit          3D

 80 81  0  0  0  0  0  0  0  0999 V2000
   17.2800  -32.3730   -4.1580 C   0  0  0  0  0  0  0  0  0  0  0  0
   17.8780  -33.6610   -4.0350 O   0  0  0  0  0  0  0  0  0  0  0  0
   18.5440  -34.1130   -5.1700 C   0  0  0  0  0  0  0  0  0  0  0  0
   19.8710  -33.9170   -5.2620 C   0  0  0  0  0  0  0  0  0  0  0  0
   20.6700  -33.2290   -4.1720 C   0  0  0  0  0  0  0  0  0  0  0  0
   21.3710  -34.2050   -3.1930 C   0  0  2  0  0  0  0  0  0  0  0  0
   20.7430  -34.1270   -1.8010 C   0  0  0  0  0  0  0  0  0  0  0  0
   22.9100  -34.0900   -3.1630 C   0  0  0  0  0  0  0  0  0  0  0  0
   23.7940  -35.3610   -3.3130 C   0  0  2  0  0  0  0  0  0  0  0  0
   24.6640  -35.5110   -2.1960 O   0  0  0  0  0  0  0  0  0  0  0  0
   24.0070  -35.4730   -0.9360 C   0  0  0  0  0  0  0  0  0  0  0  0
   24.6180  -35.2260   -4.6390 C   0  0  2  0  0  0  0  0  0  0  0  0
   24.2000  -34.0400   -5.3370 O   0  0  0  0  0  0  0  0  0  0  0  0
   24.6270  -36.4510   -5.5930 C   0  0  1  0  0  0  0  0  0  0  0  0
   23.2270  -36.9400   -5.9650 C   0  0  0  0  0  0  0  0  0  0  0  0
   25.3820  -36.0890   -6.8630 C   0  0  0  0  0  0  0  0  0  0  0  0
   25.9620  -36.9290   -7.7470 C   0  0  0  0  0  0  0  0  0  0  0  0
   25.8470  -38.4290   -7.6840 C   0  0  0  0  0  0  0  0  0  0  0  0
   26.8120  -36.3640   -8.8920 C   0  0  2  0  0  0  0  0  0  0  0  0
   27.9760  -35.7610   -8.2910 O   0  0  0  0  0  0  0  0  0  0  0  0
   29.1160  -36.4730   -8.3380 C   0  0  0  0  0  0  0  0  0  0  0  0
   29.6540  -36.3870   -9.5740 N   0  0  0  0  0  0  0  0  0  0  0  0
   29.6180  -37.1210   -7.4340 O   0  0  0  0  0  0  0  0  0  0  0  0
   26.0000  -35.3420   -9.7660 C   0  0  1  0  0  0  0  0  0  0  0  0
   26.8760  -34.3050  -10.2420 O   0  0  0  0  0  0  0  0  0  0  0  0
   27.4180  -34.5690  -11.5290 C   0  0  0  0  0  0  0  0  0  0  0  0
   25.3590  -36.0180  -10.9550 C   0  0  0  0  0  0  0  0  0  0  0  0
   24.1120  -36.5080  -11.0380 C   0  0  0  0  0  0  0  0  0  0  0  0
   23.1040  -36.4500  -10.0050 C   0  0  0  0  0  0  0  0  0  0  0  0
   21.8560  -36.9410  -10.1170 C   0  0  0  0  0  0  0  0  0  0  0  0
   21.2630  -37.6810  -11.2720 C   0  0  0  0  0  0  0  0  0  0  0  0
   20.9860  -36.8510   -8.9130 C   0  0  0  0  0  0  0  0  0  0  0  0
   20.5970  -37.8680   -8.3550 O   0  0  0  0  0  0  0  0  0  0  0  0
   20.6780  -35.5550   -8.5770 N   0  0  0  0  0  0  0  0  0  0  0  0
   19.8800  -35.1040   -7.5390 C   0  0  0  0  0  0  0  0  0  0  0  0
   18.5610  -35.2810   -7.4330 C   0  0  0  0  0  0  0  0  0  0  0  0
   17.7910  -34.7630   -6.2900 C   0  0  0  0  0  0  0  0  0  0  0  0
   16.5700  -34.8870   -6.2880 O   0  0  0  0  0  0  0  0  0  0  0  0
   20.6120  -34.3450   -6.4790 C   0  0  0  0  0  0  0  0  0  0  0  0
   21.8050  -34.1070   -6.6440 O   0  0  0  0  0  0  0  0  0  0  0  0
   17.0885  -31.9605   -3.1564 H   0  0  0  0  0  0  0  0  0  0  0  0
   17.9596  -31.7040   -4.7063 H   0  0  0  0  0  0  0  0  0  0  0  0
   16.3304  -32.4605   -4.7063 H   0  0  0  0  0  0  0  0  0  0  0  0
   21.4401  -32.6050   -4.6491 H   0  0  0  0  0  0  0  0  0  0  0  0
   19.9561  -32.6399   -3.5776 H   0  0  0  0  0  0  0  0  0  0  0  0
   21.1918  -35.2145   -3.5915 H   0  0  0  0  0  0  0  0  0  0  0  0
   21.5293  -34.2247   -1.0380 H   0  0  0  0  0  0  0  0  0  0  0  0
   20.2347  -33.1588   -1.6818 H   0  0  0  0  0  0  0  0  0  0  0  0
   20.0132  -34.9414   -1.6818 H   0  0  0  0  0  0  0  0  0  0  0  0
   23.1924  -33.4101   -3.9803 H   0  0  0  0  0  0  0  0  0  0  0  0
   23.1162  -33.7621   -2.1334 H   0  0  0  0  0  0  0  0  0  0  0  0
   23.1561  -36.2563   -3.3520 H   0  0  0  0  0  0  0  0  0  0  0  0
   24.7553  -35.5163   -0.1309 H   0  0  0  0  0  0  0  0  0  0  0  0
   23.4305  -34.5400   -0.8511 H   0  0  0  0  0  0  0  0  0  0  0  0
   23.3268  -36.3333   -0.8511 H   0  0  0  0  0  0  0  0  0  0  0  0
   25.6660  -35.1607   -4.3112 H   0  0  0  0  0  0  0  0  0  0  0  0
   23.8110  -33.4290   -4.6880 H   0  0  0  0  0  0  0  0  0  0  0  0
   25.1211  -37.2728   -5.0540 H   0  0  0  0  0  0  0  0  0  0  0  0
   22.6530  -37.1405   -5.0483 H   0  0  0  0  0  0  0  0  0  0  0  0
   22.7142  -36.1678   -6.5572 H   0  0  0  0  0  0  0  0  0  0  0  0
   23.3065  -37.8636   -6.5572 H   0  0  0  0  0  0  0  0  0  0  0  0
   25.4654  -35.0155   -7.0880 H   0  0  0  0  0  0  0  0  0  0  0  0
   25.8223  -38.7510   -6.6325 H   0  0  0  0  0  0  0  0  0  0  0  0
   24.9218  -38.7473   -8.1867 H   0  0  0  0  0  0  0  0  0  0  0  0
   26.7129  -38.8846   -8.1867 H   0  0  0  0  0  0  0  0  0  0  0  0
   27.1133  -37.1635   -9.5848 H   0  0  0  0  0  0  0  0  0  0  0  0
   30.4530  -36.9610   -9.7950 H   0  0  0  0  0  0  0  0  0  0  0  0
   29.1170  -35.9510  -10.3080 H   0  0  0  0  0  0  0  0  0  0  0  0
   25.2083  -34.9162   -9.1321 H   0  0  0  0  0  0  0  0  0  0  0  0
   28.4022  -35.0484  -11.4211 H   0  0  0  0  0  0  0  0  0  0  0  0
   26.7424  -35.2389  -12.0810 H   0  0  0  0  0  0  0  0  0  0  0  0
   27.5290  -33.6240  -12.0810 H   0  0  0  0  0  0  0  0  0  0  0  0
   25.9844  -36.1203  -11.8541 H   0  0  0  0  0  0  0  0  0  0  0  0
   23.8315  -36.9998  -11.9811 H   0  0  0  0  0  0  0  0  0  0  0  0
   23.3772  -35.9679   -9.0547 H   0  0  0  0  0  0  0  0  0  0  0  0
   20.6163  -38.4881  -10.8973 H   0  0  0  0  0  0  0  0  0  0  0  0
   20.6673  -36.9882  -11.8844 H   0  0  0  0  0  0  0  0  0  0  0  0
   22.0690  -38.1115  -11.8844 H   0  0  0  0  0  0  0  0  0  0  0  0
   21.0300  -34.8110   -9.1800 H   0  0  0  0  0  0  0  0  0  0  0  0
   18.0325  -35.8316   -8.2252 H   0  0  0  0  0  0  0  0  0  0  0  0
  1  2  1  0
  2  3  1  0
  3  4  2  0
  4  5  1  0
  5  6  1  0
  6  7  1  0
  6  8  1  0
  8  9  1  0
  9 10  1  0
 10 11  1  0
  9 12  1  0
 12 13  1  0
 12 14  1  0
 14 15  1  0
 14 16  1  0
 16 17  2  0
 17 18  1  0
 17 19  1  0
 19 20  1  0
 20 21  1  0
 21 22  1  0
 21 23  2  0
 19 24  1  0
 24 25  1  0
 25 26  1  0
 24 27  1  0
 27 28  2  0
 28 29  1  0
 29 30  2  0
 30 31  1  0
 30 32  1  0
 32 33  2  0
 32 34  1  0
 34 35  1  0
 35 36  2  0
 36 37  1  0
 37 38  2  0
 35 39  1  0
 39 40  2  0
 37  3  1  0
 39  4  1  0
  1 41  1  0
  1 42  1  0
  1 43  1  0
  5 44  1  0
  5 45  1  0
  6 46  1  6
  7 47  1  0
  7 48  1  0
  7 49  1  0
  8 50  1  0
  8 51  1  0
  9 52  1  6
 11 53  1  0
 11 54  1  0
 11 55  1  0
 12 56  1  1
 13 57  1  0
 14 58  1  1
 15 59  1  0
 15 60  1  0
 15 61  1  0
 16 62  1  0
 18 63  1  0
 18 64  1  0
 18 65  1  0
 19 66  1  6
 22 67  1  0
 22 68  1  0
 24 69  1  1
 26 70  1  0
 26 71  1  0
 26 72  1  0
 27 73  1  0
 28 74  1  0
 29 75  1  0
 31 76  1  0
 31 77  1  0
 31 78  1  0
 34 79  1  0
 36 80  1  0
M  END
>  <meeko>  (5) 
{"is_sidechain": [false], "free_energy": -5.393, "intermolecular_energy": -10.264, "internal_energy": -3.065}

$$$$
2yge_ligand
     RDKit          3D

 80 81  0  0  0  0  0  0  0  0999 V2000
   17.3400  -31.6200   -3.7130 C   0  0  0  0  0  0  0  0  0  0  0  0
   17.8640  -32.9100   -3.4060 O   0  0  0  0  0  0  0  0  0  0  0  0
   18.5110  -33.5490   -4.4590 C   0  0  0  0  0  0  0  0  0  0  0  0
   19.8550  -33.5440   -4.4910 C   0  0  0  0  0  0  0  0  0  0  0  0
   20.6930  -32.8740   -3.4180 C   0  0  0  0  0  0  0  0  0  0  0  0
   21.7590  -33.8010   -2.7810 C   0  0  2  0  0  0  0  0  0  0  0  0
   21.2760  -34.3440   -1.4360 C   0  0  0  0  0  0  0  0  0  0  0  0
   23.1760  -33.1940   -2.7080 C   0  0  0  0  0  0  0  0  0  0  0  0
   24.3040  -33.9300   -1.9290 C   0  0  2  0  0  0  0  0  0  0  0  0
   25.2860  -33.0090   -1.4640 O   0  0  0  0  0  0  0  0  0  0  0  0
   24.8590  -31.6530   -1.4620 C   0  0  0  0  0  0  0  0  0  0  0  0
   24.9480  -34.9940   -2.8820 C   0  0  2  0  0  0  0  0  0  0  0  0
   25.8210  -35.8620   -2.1400 O   0  0  0  0  0  0  0  0  0  0  0  0
   25.6730  -34.4230   -4.1320 C   0  0  1  0  0  0  0  0  0  0  0  0
   27.1890  -34.6180   -4.0950 C   0  0  0  0  0  0  0  0  0  0  0  0
   25.1150  -35.0900   -5.3790 C   0  0  0  0  0  0  0  0  0  0  0  0
   25.2520  -36.3800   -5.7580 C   0  0  0  0  0  0  0  0  0  0  0  0
   25.9050  -37.4420   -4.9140 C   0  0  0  0  0  0  0  0  0  0  0  0
   24.7410  -36.8300   -7.1320 C   0  0  2  0  0  0  0  0  0  0  0  0
   24.4160  -38.2310   -7.0200 O   0  0  0  0  0  0  0  0  0  0  0  0
   23.1120  -38.5530   -7.0740 C   0  0  0  0  0  0  0  0  0  0  0  0
   22.9420  -39.6230   -7.8820 N   0  0  0  0  0  0  0  0  0  0  0  0
   22.1900  -37.9900   -6.5080 O   0  0  0  0  0  0  0  0  0  0  0  0
   25.7990  -36.5560   -8.2610 C   0  0  1  0  0  0  0  0  0  0  0  0
   27.0120  -37.2760   -7.9770 O   0  0  0  0  0  0  0  0  0  0  0  0
   28.1290  -36.4300   -7.7460 C   0  0  0  0  0  0  0  0  0  0  0  0
   25.2870  -36.9860   -9.6160 C   0  0  0  0  0  0  0  0  0  0  0  0
   24.1010  -36.6870  -10.1700 C   0  0  0  0  0  0  0  0  0  0  0  0
   23.0790  -35.8450   -9.5920 C   0  0  0  0  0  0  0  0  0  0  0  0
   21.7620  -36.1180   -9.5980 C   0  0  0  0  0  0  0  0  0  0  0  0
   21.0810  -37.3350  -10.1350 C   0  0  0  0  0  0  0  0  0  0  0  0
   20.8720  -35.1630   -8.8830 C   0  0  0  0  0  0  0  0  0  0  0  0
   20.5120  -34.1280   -9.4280 O   0  0  0  0  0  0  0  0  0  0  0  0
   20.5750  -35.5710   -7.6050 N   0  0  0  0  0  0  0  0  0  0  0  0
   19.8020  -34.9240   -6.6560 C   0  0  0  0  0  0  0  0  0  0  0  0
   18.4670  -34.9100   -6.6110 C   0  0  0  0  0  0  0  0  0  0  0  0
   17.7260  -34.1910   -5.5620 C   0  0  0  0  0  0  0  0  0  0  0  0
   16.5010  -34.1480   -5.6190 O   0  0  0  0  0  0  0  0  0  0  0  0
   20.5830  -34.1780   -5.6230 C   0  0  0  0  0  0  0  0  0  0  0  0
   21.8050  -34.1190   -5.7380 O   0  0  0  0  0  0  0  0  0  0  0  0
   17.1212  -31.0814   -2.7792 H   0  0  0  0  0  0  0  0  0  0  0  0
   18.0794  -31.0537   -4.2983 H   0  0  0  0  0  0  0  0  0  0  0  0
   16.4151  -31.7297   -4.2983 H   0  0  0  0  0  0  0  0  0  0  0  0
   21.2082  -32.0129   -3.8687 H   0  0  0  0  0  0  0  0  0  0  0  0
   20.0037  -32.5808   -2.6125 H   0  0  0  0  0  0  0  0  0  0  0  0
   21.8734  -34.6507   -3.4701 H   0  0  0  0  0  0  0  0  0  0  0  0
   21.7666  -33.7925   -0.6204 H   0  0  0  0  0  0  0  0  0  0  0  0
   20.1859  -34.2182   -1.3599 H   0  0  0  0  0  0  0  0  0  0  0  0
   21.5280  -35.4120   -1.3599 H   0  0  0  0  0  0  0  0  0  0  0  0
   23.5270  -33.0841   -3.7447 H   0  0  0  0  0  0  0  0  0  0  0  0
   23.0251  -32.2755   -2.1219 H   0  0  0  0  0  0  0  0  0  0  0  0
   23.8796  -34.4279   -1.0447 H   0  0  0  0  0  0  0  0  0  0  0  0
   24.7493  -31.3047   -0.4244 H   0  0  0  0  0  0  0  0  0  0  0  0
   25.6053  -31.0328   -1.9800 H   0  0  0  0  0  0  0  0  0  0  0  0
   23.8920  -31.5723   -1.9800 H   0  0  0  0  0  0  0  0  0  0  0  0
   24.0990  -35.5609   -3.2917 H   0  0  0  0  0  0  0  0  0  0  0  0
   26.7370  -35.5840   -2.3070 H   0  0  0  0  0  0  0  0  0  0  0  0
   25.4896  -33.3384   -4.1418 H   0  0  0  0  0  0  0  0  0  0  0  0
   27.5277  -34.6616   -3.0493 H   0  0  0  0  0  0  0  0  0  0  0  0
   27.4504  -35.5572   -4.6045 H   0  0  0  0  0  0  0  0  0  0  0  0
   27.6796  -33.7756   -4.6045 H   0  0  0  0  0  0  0  0  0  0  0  0
   24.5304  -34.4463   -6.0527 H   0  0  0  0  0  0  0  0  0  0  0  0
   25.7595  -37.2054   -3.8496 H   0  0  0  0  0  0  0  0  0  0  0  0
   25.4512  -38.4187   -5.1378 H   0  0  0  0  0  0  0  0  0  0  0  0
   26.9814  -37.4778   -5.1378 H   0  0  0  0  0  0  0  0  0  0  0  0
   23.8493  -36.2555   -7.4232 H   0  0  0  0  0  0  0  0  0  0  0  0
   22.0040  -39.9110   -8.1110 H   0  0  0  0  0  0  0  0  0  0  0  0
   23.7260  -39.9500   -8.4240 H   0  0  0  0  0  0  0  0  0  0  0  0
   25.9900  -35.4729   -8.2826 H   0  0  0  0  0  0  0  0  0  0  0  0
   28.2829  -36.3134   -6.6631 H   0  0  0  0  0  0  0  0  0  0  0  0
   29.0269  -36.8766   -8.1980 H   0  0  0  0  0  0  0  0  0  0  0  0
   27.9424  -35.4447   -8.1980 H   0  0  0  0  0  0  0  0  0  0  0  0
   25.9616  -37.6145  -10.2159 H   0  0  0  0  0  0  0  0  0  0  0  0
   23.8874  -37.1241  -11.1566 H   0  0  0  0  0  0  0  0  0  0  0  0
   23.4024  -34.9102   -9.1108 H   0  0  0  0  0  0  0  0  0  0  0  0
   20.7319  -37.9588   -9.2989 H   0  0  0  0  0  0  0  0  0  0  0  0
   20.2211  -37.0324  -10.7507 H   0  0  0  0  0  0  0  0  0  0  0  0
   21.7887  -37.9096  -10.7507 H   0  0  0  0  0  0  0  0  0  0  0  0
   21.0030  -36.4350   -7.2690 H   0  0  0  0  0  0  0  0  0  0  0  0
   17.9030  -35.4536   -7.3832 H   0  0  0  0  0  0  0  0  0  0  0  0
  1  2  1  0
  2  3  1  0
  3  4  2  0
  4  5  1  0
  5  6  1  0
  6  7  1  0
  6  8  1  0
  8  9  1  0
  9 10  1  0
 10 11  1  0
  9 12  1  0
 12 13  1  0
 12 14  1  0
 14 15  1  0
 14 16  1  0
 16 17  2  0
 17 18  1  0
 17 19  1  0
 19 20  1  0
 20 21  1  0
 21 22  1  0
 21 23  2  0
 19 24  1  0
 24 25  1  0
 25 26  1  0
 24 27  1  0
 27 28  2  0
 28 29  1  0
 29 30  2  0
 30 31  1  0
 30 32  1  0
 32 33  2  0
 32 34  1  0
 34 35  1  0
 35 36  2  0
 36 37  1  0
 37 38  2  0
 35 39  1  0
 39 40  2  0
 37  3  1  0
 39  4  1  0
  1 41  1  0
  1 42  1  0
  1 43  1  0
  5 44  1  0
  5 45  1  0
  6 46  1  6
  7 47  1  0
  7 48  1  0
  7 49  1  0
  8 50  1  0
  8 51  1  0
  9 52  1  1
 11 53  1  0
 11 54  1  0
 11 55  1  0
 12 56  1  6
 13 57  1  0
 14 58  1  6
 15 59  1  0
 15 60  1  0
 15 61  1  0
 16 62  1  0
 18 63  1  0
 18 64  1  0
 18 65  1  0
 19 66  1  6
 22 67  1  0
 22 68  1  0
 24 69  1  6
 26 70  1  0
 26 71  1  0
 26 72  1  0
 27 73  1  0
 28 74  1  0
 29 75  1  0
 31 76  1  0
 31 77  1  0
 31 78  1  0
 34 79  1  0
 36 80  1  0
M  END
>  <meeko>  (6) 
{"is_sidechain": [false], "free_energy": -5.234, "intermolecular_energy": -11.085, "internal_energy": -1.922}

$$$$
2yge_ligand
     RDKit          3D

 80 81  0  0  0  0  0  0  0  0999 V2000
   24.5770  -37.9250  -11.5670 C   0  0  0  0  0  0  0  0  0  0  0  0
   23.4610  -38.6040  -10.9980 O   0  0  0  0  0  0  0  0  0  0  0  0
   22.7530  -37.8780  -10.0440 C   0  0  0  0  0  0  0  0  0  0  0  0
   23.0020  -38.1060   -8.7420 C   0  0  0  0  0  0  0  0  0  0  0  0
   24.0290  -39.1200   -8.2750 C   0  0  0  0  0  0  0  0  0  0  0  0
   25.4730  -38.5630   -8.1960 C   0  0  2  0  0  0  0  0  0  0  0  0
   26.4620  -39.6630   -7.8080 C   0  0  0  0  0  0  0  0  0  0  0  0
   25.6240  -37.2910   -7.3350 C   0  0  0  0  0  0  0  0  0  0  0  0
   25.8280  -35.9060   -8.0130 C   0  0  2  0  0  0  0  0  0  0  0  0
   27.1920  -35.5020   -7.9470 O   0  0  0  0  0  0  0  0  0  0  0  0
   28.0150  -36.0610   -8.9630 C   0  0  0  0  0  0  0  0  0  0  0  0
   24.9160  -34.8530   -7.3030 C   0  0  2  0  0  0  0  0  0  0  0  0
   24.0490  -34.2250   -8.2620 O   0  0  0  0  0  0  0  0  0  0  0  0
   25.6570  -33.7860   -6.4510 C   0  0  1  0  0  0  0  0  0  0  0  0
   25.6590  -32.3960   -7.0880 C   0  0  0  0  0  0  0  0  0  0  0  0
   25.0080  -33.7060   -5.0780 C   0  0  0  0  0  0  0  0  0  0  0  0
   23.9930  -32.9020   -4.6910 C   0  0  0  0  0  0  0  0  0  0  0  0
   23.2260  -32.0030   -5.6240 C   0  0  0  0  0  0  0  0  0  0  0  0
   23.5750  -32.8580   -3.2160 C   0  0  2  0  0  0  0  0  0  0  0  0
   24.7870  -32.9010   -2.4350 O   0  0  0  0  0  0  0  0  0  0  0  0
   25.2370  -31.7280   -1.9570 C   0  0  0  0  0  0  0  0  0  0  0  0
   26.2870  -31.3090   -2.6970 N   0  0  0  0  0  0  0  0  0  0  0  0
   24.8030  -31.1070   -1.0010 O   0  0  0  0  0  0  0  0  0  0  0  0
   22.5970  -34.0340   -2.8570 C   0  0  1  0  0  0  0  0  0  0  0  0
   23.0230  -34.6670   -1.6370 O   0  0  0  0  0  0  0  0  0  0  0  0
   23.4710  -36.0020   -1.8200 C   0  0  0  0  0  0  0  0  0  0  0  0
   21.1810  -33.5410   -2.6770 C   0  0  0  0  0  0  0  0  0  0  0  0
   20.1460  -33.7130   -3.5160 C   0  0  0  0  0  0  0  0  0  0  0  0
   20.1710  -34.4520   -4.7570 C   0  0  0  0  0  0  0  0  0  0  0  0
   19.1250  -34.5910   -5.5920 C   0  0  0  0  0  0  0  0  0  0  0  0
   17.7620  -33.9910   -5.4610 C   0  0  0  0  0  0  0  0  0  0  0  0
   19.3690  -35.3270   -6.8620 C   0  0  0  0  0  0  0  0  0  0  0  0
   18.4330  -35.6310   -7.5900 O   0  0  0  0  0  0  0  0  0  0  0  0
   20.6960  -35.6240   -7.0550 N   0  0  0  0  0  0  0  0  0  0  0  0
   21.2770  -36.3140   -8.1060 C   0  0  0  0  0  0  0  0  0  0  0  0
   21.0370  -36.1090   -9.4040 C   0  0  0  0  0  0  0  0  0  0  0  0
   21.7020  -36.8940  -10.4570 C   0  0  0  0  0  0  0  0  0  0  0  0
   21.3820  -36.7140  -11.6270 O   0  0  0  0  0  0  0  0  0  0  0  0
   22.2360  -37.3830   -7.6920 C   0  0  0  0  0  0  0  0  0  0  0  0
   22.3660  -37.6250   -6.4950 O   0  0  0  0  0  0  0  0  0  0  0  0
   25.2180  -37.5350  -10.7626 H   0  0  0  0  0  0  0  0  0  0  0  0
   25.1541  -38.6252  -12.1888 H   0  0  0  0  0  0  0  0  0  0  0  0
   24.2204  -37.0906  -12.1888 H   0  0  0  0  0  0  0  0  0  0  0  0
   23.7383  -39.4710   -7.2739 H   0  0  0  0  0  0  0  0  0  0  0  0
   24.0399  -39.9288   -9.0204 H   0  0  0  0  0  0  0  0  0  0  0  0
   25.7231  -38.2230   -9.2118 H   0  0  0  0  0  0  0  0  0  0  0  0
   26.5232  -39.7311   -6.7118 H   0  0  0  0  0  0  0  0  0  0  0  0
   26.1192  -40.6251   -8.2165 H   0  0  0  0  0  0  0  0  0  0  0  0
   27.4550  -39.4241   -8.2165 H   0  0  0  0  0  0  0  0  0  0  0  0
   24.7130  -37.2128   -6.7235 H   0  0  0  0  0  0  0  0  0  0  0  0
   26.5767  -37.4556   -6.8103 H   0  0  0  0  0  0  0  0  0  0  0  0
   25.5520  -35.9817   -9.0751 H   0  0  0  0  0  0  0  0  0  0  0  0
   28.8402  -36.6215   -8.4994 H   0  0  0  0  0  0  0  0  0  0  0  0
   27.4161  -36.7399   -9.5878 H   0  0  0  0  0  0  0  0  0  0  0  0
   28.4254  -35.2540   -9.5878 H   0  0  0  0  0  0  0  0  0  0  0  0
   24.3315  -35.4288   -6.5703 H   0  0  0  0  0  0  0  0  0  0  0  0
   24.2240  -33.2690   -8.2480 H   0  0  0  0  0  0  0  0  0  0  0  0
   26.7070  -34.1058   -6.3786 H   0  0  0  0  0  0  0  0  0  0  0  0
   25.6601  -31.6306   -6.2980 H   0  0  0  0  0  0  0  0  0  0  0  0
   26.5573  -32.2800   -7.7122 H   0  0  0  0  0  0  0  0  0  0  0  0
   24.7610  -32.2774   -7.7122 H   0  0  0  0  0  0  0  0  0  0  0  0
   25.4121  -34.3818   -4.3098 H   0  0  0  0  0  0  0  0  0  0  0  0
   22.6221  -31.2952   -5.0372 H   0  0  0  0  0  0  0  0  0  0  0  0
   23.9310  -31.4456   -6.2582 H   0  0  0  0  0  0  0  0  0  0  0  0
   22.5645  -32.6115   -6.2582 H   0  0  0  0  0  0  0  0  0  0  0  0
   23.0153  -31.9367   -2.9971 H   0  0  0  0  0  0  0  0  0  0  0  0
   26.8020  -30.4990   -2.3890 H   0  0  0  0  0  0  0  0  0  0  0  0
   26.6770  -31.9360   -3.3820 H   0  0  0  0  0  0  0  0  0  0  0  0
   22.6186  -34.7511   -3.6909 H   0  0  0  0  0  0  0  0  0  0  0  0
   23.6292  -36.4734   -0.8388 H   0  0  0  0  0  0  0  0  0  0  0  0
   22.7139  -36.5691   -2.3815 H   0  0  0  0  0  0  0  0  0  0  0  0
   24.4169  -35.9976   -2.3815 H   0  0  0  0  0  0  0  0  0  0  0  0
   20.9737  -32.9777   -1.7552 H   0  0  0  0  0  0  0  0  0  0  0  0
   19.1906  -33.2479   -3.2316 H   0  0  0  0  0  0  0  0  0  0  0  0
   21.1163  -34.9377   -5.0408 H   0  0  0  0  0  0  0  0  0  0  0  0
   17.5109  -33.8805   -4.3958 H   0  0  0  0  0  0  0  0  0  0  0  0
   17.7480  -33.0035   -5.9454 H   0  0  0  0  0  0  0  0  0  0  0  0
   17.0243  -34.6476   -5.9454 H   0  0  0  0  0  0  0  0  0  0  0  0
   21.3560  -35.3560   -6.3240 H   0  0  0  0  0  0  0  0  0  0  0  0
   20.3191  -35.3282   -9.6955 H   0  0  0  0  0  0  0  0  0  0  0  0
  1  2  1  0
  2  3  1  0
  3  4  2  0
  4  5  1  0
  5  6  1  0
  6  7  1  0
  6  8  1  0
  8  9  1  0
  9 10  1  0
 10 11  1  0
  9 12  1  0
 12 13  1  0
 12 14  1  0
 14 15  1  0
 14 16  1  0
 16 17  2  0
 17 18  1  0
 17 19  1  0
 19 20  1  0
 20 21  1  0
 21 22  1  0
 21 23  2  0
 19 24  1  0
 24 25  1  0
 25 26  1  0
 24 27  1  0
 27 28  2  0
 28 29  1  0
 29 30  2  0
 30 31  1  0
 30 32  1  0
 32 33  2  0
 32 34  1  0
 34 35  1  0
 35 36  2  0
 36 37  1  0
 37 38  2  0
 35 39  1  0
 39 40  2  0
 37  3  1  0
 39  4  1  0
  1 41  1  0
  1 42  1  0
  1 43  1  0
  5 44  1  0
  5 45  1  0
  6 46  1  6
  7 47  1  0
  7 48  1  0
  7 49  1  0
  8 50  1  0
  8 51  1  0
  9 52  1  6
 11 53  1  0
 11 54  1  0
 11 55  1  0
 12 56  1  1
 13 57  1  0
 14 58  1  1
 15 59  1  0
 15 60  1  0
 15 61  1  0
 16 62  1  0
 18 63  1  0
 18 64  1  0
 18 65  1  0
 19 66  1  6
 22 67  1  0
 22 68  1  0
 24 69  1  6
 26 70  1  0
 26 71  1  0
 26 72  1  0
 27 73  1  0
 28 74  1  0
 29 75  1  0
 31 76  1  0
 31 77  1  0
 31 78  1  0
 34 79  1  0
 36 80  1  0
M  END
>  <meeko>  (7) 
{"is_sidechain": [false], "free_energy": -5.197, "intermolecular_energy": -10.698, "internal_energy": -2.233}

$$$$
2yge_ligand
     RDKit          3D

 80 81  0  0  0  0  0  0  0  0999 V2000
   27.2280  -40.2270   -8.9090 C   0  0  0  0  0  0  0  0  0  0  0  0
   27.0580  -38.8130   -8.9620 O   0  0  0  0  0  0  0  0  0  0  0  0
   26.4510  -38.2510   -7.8430 C   0  0  0  0  0  0  0  0  0  0  0  0
   25.1980  -37.7750   -7.9570 C   0  0  0  0  0  0  0  0  0  0  0  0
   24.4190  -37.8350   -9.2570 C   0  0  0  0  0  0  0  0  0  0  0  0
   24.5180  -36.5450  -10.1100 C   0  0  2  0  0  0  0  0  0  0  0  0
   25.8080  -35.7840   -9.8030 C   0  0  0  0  0  0  0  0  0  0  0  0
   23.2650  -35.6450  -10.0590 C   0  0  0  0  0  0  0  0  0  0  0  0
   21.8490  -36.2780   -9.9430 C   0  0  2  0  0  0  0  0  0  0  0  0
   21.2220  -36.3610  -11.2190 O   0  0  0  0  0  0  0  0  0  0  0  0
   21.6400  -37.4720  -12.0020 C   0  0  0  0  0  0  0  0  0  0  0  0
   20.9950  -35.4120   -8.9570 C   0  0  2  0  0  0  0  0  0  0  0  0
   21.8520  -34.5530   -8.1860 O   0  0  0  0  0  0  0  0  0  0  0  0
   20.0240  -36.1950   -8.0320 C   0  0  1  0  0  0  0  0  0  0  0  0
   20.4600  -37.6380   -7.7770 C   0  0  0  0  0  0  0  0  0  0  0  0
   19.9070  -35.4660   -6.7020 C   0  0  0  0  0  0  0  0  0  0  0  0
   18.7900  -34.9710   -6.1270 C   0  0  0  0  0  0  0  0  0  0  0  0
   17.4000  -35.1740   -6.6710 C   0  0  0  0  0  0  0  0  0  0  0  0
   18.8970  -34.1320   -4.8480 C   0  0  2  0  0  0  0  0  0  0  0  0
   18.2260  -32.8820   -5.1100 O   0  0  0  0  0  0  0  0  0  0  0  0
   17.4010  -32.4280   -4.1500 C   0  0  0  0  0  0  0  0  0  0  0  0
   17.0260  -31.1620   -4.4350 N   0  0  0  0  0  0  0  0  0  0  0  0
   17.0290  -33.0280   -3.1540 O   0  0  0  0  0  0  0  0  0  0  0  0
   20.3930  -33.9220   -4.4170 C   0  0  1  0  0  0  0  0  0  0  0  0
   20.8260  -32.6000   -4.7860 O   0  0  0  0  0  0  0  0  0  0  0  0
   22.0290  -32.5890   -5.5400 C   0  0  0  0  0  0  0  0  0  0  0  0
   20.5690  -34.0910   -2.9270 C   0  0  0  0  0  0  0  0  0  0  0  0
   21.5270  -34.7880   -2.2940 C   0  0  0  0  0  0  0  0  0  0  0  0
   22.6220  -35.4910   -2.9210 C   0  0  0  0  0  0  0  0  0  0  0  0
   23.6720  -36.0220   -2.2670 C   0  0  0  0  0  0  0  0  0  0  0  0
   23.9110  -36.0540   -0.7920 C   0  0  0  0  0  0  0  0  0  0  0  0
   24.6630  -36.7760   -3.0810 C   0  0  0  0  0  0  0  0  0  0  0  0
   25.5360  -37.4370   -2.5360 O   0  0  0  0  0  0  0  0  0  0  0  0
   24.4840  -36.5970   -4.4320 N   0  0  0  0  0  0  0  0  0  0  0  0
   25.2290  -37.1230   -5.4730 C   0  0  0  0  0  0  0  0  0  0  0  0
   26.4760  -37.5920   -5.3830 C   0  0  0  0  0  0  0  0  0  0  0  0
   27.1950  -38.1340   -6.5480 C   0  0  0  0  0  0  0  0  0  0  0  0
   28.3660  -38.4770   -6.4210 O   0  0  0  0  0  0  0  0  0  0  0  0
   24.5320  -37.1270   -6.7960 C   0  0  0  0  0  0  0  0  0  0  0  0
   23.4260  -36.6000   -6.8790 O   0  0  0  0  0  0  0  0  0  0  0  0
   27.2671  -40.5525   -7.8590 H   0  0  0  0  0  0  0  0  0  0  0  0
   26.3823  -40.7172   -9.4136 H   0  0  0  0  0  0  0  0  0  0  0  0
   28.1658  -40.5027   -9.4136 H   0  0  0  0  0  0  0  0  0  0  0  0
   24.8051  -38.6748   -9.8534 H   0  0  0  0  0  0  0  0  0  0  0  0
   23.3595  -37.9589   -8.9883 H   0  0  0  0  0  0  0  0  0  0  0  0
   24.5606  -36.8769  -11.1579 H   0  0  0  0  0  0  0  0  0  0  0  0
   25.9380  -35.7073   -8.7134 H   0  0  0  0  0  0  0  0  0  0  0  0
   26.6634  -36.3222  -10.2374 H   0  0  0  0  0  0  0  0  0  0  0  0
   25.7507  -34.7750  -10.2374 H   0  0  0  0  0  0  0  0  0  0  0  0
   23.3871  -34.9819   -9.1899 H   0  0  0  0  0  0  0  0  0  0  0  0
   23.2502  -35.1807  -11.0561 H   0  0  0  0  0  0  0  0  0  0  0  0
   21.9347  -37.3038   -9.5553 H   0  0  0  0  0  0  0  0  0  0  0  0
   21.9489  -38.2929  -11.3382 H   0  0  0  0  0  0  0  0  0  0  0  0
   20.8066  -37.8075  -12.6368 H   0  0  0  0  0  0  0  0  0  0  0  0
   22.4879  -37.1750  -12.6368 H   0  0  0  0  0  0  0  0  0  0  0  0
   20.3304  -34.8201   -9.6035 H   0  0  0  0  0  0  0  0  0  0  0  0
   21.3270  -34.1780   -7.4580 H   0  0  0  0  0  0  0  0  0  0  0  0
   19.0547  -36.2410   -8.5500 H   0  0  0  0  0  0  0  0  0  0  0  0
   20.5145  -37.8185   -6.6933 H   0  0  0  0  0  0  0  0  0  0  0  0
   19.7298  -38.3266   -8.2271 H   0  0  0  0  0  0  0  0  0  0  0  0
   21.4493  -37.8071   -8.2271 H   0  0  0  0  0  0  0  0  0  0  0  0
   20.8434  -35.3254   -6.1423 H   0  0  0  0  0  0  0  0  0  0  0  0
   16.6911  -35.2775   -5.8363 H   0  0  0  0  0  0  0  0  0  0  0  0
   17.1172  -34.3076   -7.2870 H   0  0  0  0  0  0  0  0  0  0  0  0
   17.3767  -36.0851   -7.2870 H   0  0  0  0  0  0  0  0  0  0  0  0
   18.4206  -34.6489   -4.0019 H   0  0  0  0  0  0  0  0  0  0  0  0
   16.4970  -30.6490   -3.7480 H   0  0  0  0  0  0  0  0  0  0  0  0
   17.4780  -30.6830   -5.1970 H   0  0  0  0  0  0  0  0  0  0  0  0
   20.9976  -34.6827   -4.9326 H   0  0  0  0  0  0  0  0  0  0  0  0
   22.8904  -32.5811   -4.8560 H   0  0  0  0  0  0  0  0  0  0  0  0
   22.0725  -33.4868   -6.1741 H   0  0  0  0  0  0  0  0  0  0  0  0
   22.0561  -31.6906   -6.1741 H   0  0  0  0  0  0  0  0  0  0  0  0
   19.8294  -33.5865   -2.2879 H   0  0  0  0  0  0  0  0  0  0  0  0
   21.4726  -34.8270   -1.1960 H   0  0  0  0  0  0  0  0  0  0  0  0
   22.5959  -35.6007   -4.0152 H   0  0  0  0  0  0  0  0  0  0  0  0
   22.9552  -35.9260   -0.2628 H   0  0  0  0  0  0  0  0  0  0  0  0
   24.3577  -37.0200   -0.5138 H   0  0  0  0  0  0  0  0  0  0  0  0
   24.5961  -35.2396   -0.5138 H   0  0  0  0  0  0  0  0  0  0  0  0
   23.7430  -35.9630   -4.7340 H   0  0  0  0  0  0  0  0  0  0  0  0
   26.9826  -37.5728   -4.4068 H   0  0  0  0  0  0  0  0  0  0  0  0
  1  2  1  0
  2  3  1  0
  3  4  2  0
  4  5  1  0
  5  6  1  0
  6  7  1  0
  6  8  1  0
  8  9  1  0
  9 10  1  0
 10 11  1  0
  9 12  1  0
 12 13  1  0
 12 14  1  0
 14 15  1  0
 14 16  1  0
 16 17  2  0
 17 18  1  0
 17 19  1  0
 19 20  1  0
 20 21  1  0
 21 22  1  0
 21 23  2  0
 19 24  1  0
 24 25  1  0
 25 26  1  0
 24 27  1  0
 27 28  2  0
 28 29  1  0
 29 30  2  0
 30 31  1  0
 30 32  1  0
 32 33  2  0
 32 34  1  0
 34 35  1  0
 35 36  2  0
 36 37  1  0
 37 38  2  0
 35 39  1  0
 39 40  2  0
 37  3  1  0
 39  4  1  0
  1 41  1  0
  1 42  1  0
  1 43  1  0
  5 44  1  0
  5 45  1  0
  6 46  1  6
  7 47  1  0
  7 48  1  0
  7 49  1  0
  8 50  1  0
  8 51  1  0
  9 52  1  1
 11 53  1  0
 11 54  1  0
 11 55  1  0
 12 56  1  6
 13 57  1  0
 14 58  1  6
 15 59  1  0
 15 60  1  0
 15 61  1  0
 16 62  1  0
 18 63  1  0
 18 64  1  0
 18 65  1  0
 19 66  1  1
 22 67  1  0
 22 68  1  0
 24 69  1  6
 26 70  1  0
 26 71  1  0
 26 72  1  0
 27 73  1  0
 28 74  1  0
 29 75  1  0
 31 76  1  0
 31 77  1  0
 31 78  1  0
 34 79  1  0
 36 80  1  0
M  END
>  <meeko>  (8) 
{"is_sidechain": [false], "free_energy": -5.091, "intermolecular_energy": -10.934, "internal_energy": -1.783}

$$$$
2yge_ligand
     RDKit          3D

 80 81  0  0  0  0  0  0  0  0999 V2000
   21.4290  -36.9270  -11.9730 C   0  0  0  0  0  0  0  0  0  0  0  0
   22.1740  -37.5660  -10.9390 O   0  0  0  0  0  0  0  0  0  0  0  0
   21.8910  -37.1250   -9.6500 C   0  0  0  0  0  0  0  0  0  0  0  0
   22.8050  -36.3750   -9.0080 C   0  0  0  0  0  0  0  0  0  0  0  0
   24.1290  -35.9870   -9.6400 C   0  0  0  0  0  0  0  0  0  0  0  0
   25.2850  -36.9720   -9.3330 C   0  0  2  0  0  0  0  0  0  0  0  0
   24.7420  -38.3270   -8.8760 C   0  0  0  0  0  0  0  0  0  0  0  0
   26.3710  -36.4130   -8.3890 C   0  0  0  0  0  0  0  0  0  0  0  0
   26.9140  -34.9690   -8.5870 C   0  0  2  0  0  0  0  0  0  0  0  0
   28.0610  -34.9670   -9.4310 O   0  0  0  0  0  0  0  0  0  0  0  0
   27.7910  -34.6050  -10.7790 C   0  0  0  0  0  0  0  0  0  0  0  0
   27.2380  -34.3950   -7.1730 C   0  0  2  0  0  0  0  0  0  0  0  0
   28.5340  -33.7720   -7.1930 O   0  0  0  0  0  0  0  0  0  0  0  0
   27.1290  -35.3990   -5.9920 C   0  0  1  0  0  0  0  0  0  0  0  0
   28.4870  -35.8800   -5.4790 C   0  0  0  0  0  0  0  0  0  0  0  0
   26.3680  -34.7440   -4.8500 C   0  0  0  0  0  0  0  0  0  0  0  0
   25.5720  -35.3440   -3.9380 C   0  0  0  0  0  0  0  0  0  0  0  0
   25.3980  -36.8350   -3.8210 C   0  0  0  0  0  0  0  0  0  0  0  0
   24.7660  -34.4910   -2.9500 C   0  0  2  0  0  0  0  0  0  0  0  0
   25.6820  -33.5360   -2.3760 O   0  0  0  0  0  0  0  0  0  0  0  0
   25.1530  -32.3790   -1.9410 C   0  0  0  0  0  0  0  0  0  0  0  0
   24.4360  -31.8070   -2.9330 N   0  0  0  0  0  0  0  0  0  0  0  0
   25.2820  -31.8800   -0.8360 O   0  0  0  0  0  0  0  0  0  0  0  0
   24.0700  -35.3760   -1.8560 C   0  0  1  0  0  0  0  0  0  0  0  0
   24.9970  -35.6550   -0.7920 O   0  0  0  0  0  0  0  0  0  0  0  0
   24.3660  -36.0370    0.4220 C   0  0  0  0  0  0  0  0  0  0  0  0
   22.8590  -34.6860   -1.2730 C   0  0  0  0  0  0  0  0  0  0  0  0
   21.7110  -34.3890   -1.9020 C   0  0  0  0  0  0  0  0  0  0  0  0
   21.3810  -34.7130   -3.2710 C   0  0  0  0  0  0  0  0  0  0  0  0
   20.2200  -34.4050   -3.8780 C   0  0  0  0  0  0  0  0  0  0  0  0
   19.0680  -33.6380   -3.3150 C   0  0  0  0  0  0  0  0  0  0  0  0
   20.0980  -34.7580   -5.3180 C   0  0  0  0  0  0  0  0  0  0  0  0
   19.1910  -34.2910   -5.9940 O   0  0  0  0  0  0  0  0  0  0  0  0
   21.0610  -35.6480   -5.7290 N   0  0  0  0  0  0  0  0  0  0  0  0
   21.2340  -36.2060   -6.9840 C   0  0  0  0  0  0  0  0  0  0  0  0
   20.3440  -36.9600   -7.6340 C   0  0  0  0  0  0  0  0  0  0  0  0
   20.6140  -37.5150   -8.9710 C   0  0  0  0  0  0  0  0  0  0  0  0
   19.7910  -38.2650   -9.4840 O   0  0  0  0  0  0  0  0  0  0  0  0
   22.5600  -35.9210   -7.6130 C   0  0  0  0  0  0  0  0  0  0  0  0
   23.4020  -35.3110   -6.9590 O   0  0  0  0  0  0  0  0  0  0  0  0
   20.6665  -36.2730  -11.5249 H   0  0  0  0  0  0  0  0  0  0  0  0
   22.1076  -36.3258  -12.5959 H   0  0  0  0  0  0  0  0  0  0  0  0
   20.9381  -37.6892  -12.5959 H   0  0  0  0  0  0  0  0  0  0  0  0
   23.9922  -35.9429  -10.7306 H   0  0  0  0  0  0  0  0  0  0  0  0
   24.4150  -35.0157   -9.2101 H   0  0  0  0  0  0  0  0  0  0  0  0
   25.8162  -37.1216  -10.2845 H   0  0  0  0  0  0  0  0  0  0  0  0
   24.7271  -38.3642   -7.7767 H   0  0  0  0  0  0  0  0  0  0  0  0
   23.7205  -38.4615   -9.2613 H   0  0  0  0  0  0  0  0  0  0  0  0
   25.3879  -39.1297   -9.2613 H   0  0  0  0  0  0  0  0  0  0  0  0
   25.9587  -36.4589   -7.3702 H   0  0  0  0  0  0  0  0  0  0  0  0
   27.2452  -37.0418   -8.6136 H   0  0  0  0  0  0  0  0  0  0  0  0
   26.1638  -34.3374   -9.0852 H   0  0  0  0  0  0  0  0  0  0  0  0
   27.1334  -33.7234  -10.7972 H   0  0  0  0  0  0  0  0  0  0  0  0
   28.7353  -34.3688  -11.2914 H   0  0  0  0  0  0  0  0  0  0  0  0
   27.2954  -35.4427  -11.2914 H   0  0  0  0  0  0  0  0  0  0  0  0
   26.4471  -33.6580   -6.9697 H   0  0  0  0  0  0  0  0  0  0  0  0
   29.2060  -34.4730   -7.2310 H   0  0  0  0  0  0  0  0  0  0  0  0
   26.5975  -36.2843   -6.3711 H   0  0  0  0  0  0  0  0  0  0  0  0
   28.4847  -35.8792   -4.3790 H   0  0  0  0  0  0  0  0  0  0  0  0
   28.6767  -36.9000   -5.8445 H   0  0  0  0  0  0  0  0  0  0  0  0
   29.2764  -35.2068   -5.8445 H   0  0  0  0  0  0  0  0  0  0  0  0
   26.4786  -33.6537   -4.7553 H   0  0  0  0  0  0  0  0  0  0  0  0
   25.3650  -37.1180   -2.7586 H   0  0  0  0  0  0  0  0  0  0  0  0
   24.4589  -37.1340   -4.3095 H   0  0  0  0  0  0  0  0  0  0  0  0
   26.2430  -37.3422   -4.3095 H   0  0  0  0  0  0  0  0  0  0  0  0
   23.9467  -33.9681   -3.4650 H   0  0  0  0  0  0  0  0  0  0  0  0
   24.0720  -30.8780   -2.7920 H   0  0  0  0  0  0  0  0  0  0  0  0
   24.4860  -32.2040   -3.8580 H   0  0  0  0  0  0  0  0  0  0  0  0
   23.7468  -36.3094   -2.3401 H   0  0  0  0  0  0  0  0  0  0  0  0
   24.9613  -35.6766    1.2739 H   0  0  0  0  0  0  0  0  0  0  0  0
   23.3589  -35.5968    0.4661 H   0  0  0  0  0  0  0  0  0  0  0  0
   24.2892  -37.1334    0.4661 H   0  0  0  0  0  0  0  0  0  0  0  0
   22.9255  -34.3943   -0.2145 H   0  0  0  0  0  0  0  0  0  0  0  0
   20.9498  -33.8481   -1.3206 H   0  0  0  0  0  0  0  0  0  0  0  0
   22.1360  -35.2523   -3.8618 H   0  0  0  0  0  0  0  0  0  0  0  0
   19.1106  -33.6664   -2.2162 H   0  0  0  0  0  0  0  0  0  0  0  0
   19.1204  -32.5939   -3.6572 H   0  0  0  0  0  0  0  0  0  0  0  0
   18.1249  -34.0891   -3.6572 H   0  0  0  0  0  0  0  0  0  0  0  0
   21.7180  -35.9960   -5.0290 H   0  0  0  0  0  0  0  0  0  0  0  0
   19.3772  -37.1736   -7.1549 H   0  0  0  0  0  0  0  0  0  0  0  0
  1  2  1  0
  2  3  1  0
  3  4  2  0
  4  5  1  0
  5  6  1  0
  6  7  1  0
  6  8  1  0
  8  9  1  0
  9 10  1  0
 10 11  1  0
  9 12  1  0
 12 13  1  0
 12 14  1  0
 14 15  1  0
 14 16  1  0
 16 17  2  0
 17 18  1  0
 17 19  1  0
 19 20  1  0
 20 21  1  0
 21 22  1  0
 21 23  2  0
 19 24  1  0
 24 25  1  0
 25 26  1  0
 24 27  1  0
 27 28  2  0
 28 29  1  0
 29 30  2  0
 30 31  1  0
 30 32  1  0
 32 33  2  0
 32 34  1  0
 34 35  1  0
 35 36  2  0
 36 37  1  0
 37 38  2  0
 35 39  1  0
 39 40  2  0
 37  3  1  0
 39  4  1  0
  1 41  1  0
  1 42  1  0
  1 43  1  0
  5 44  1  0
  5 45  1  0
  6 46  1  6
  7 47  1  0
  7 48  1  0
  7 49  1  0
  8 50  1  0
  8 51  1  0
  9 52  1  6
 11 53  1  0
 11 54  1  0
 11 55  1  0
 12 56  1  1
 13 57  1  0
 14 58  1  6
 15 59  1  0
 15 60  1  0
 15 61  1  0
 16 62  1  0
 18 63  1  0
 18 64  1  0
 18 65  1  0
 19 66  1  6
 22 67  1  0
 22 68  1  0
 24 69  1  6
 26 70  1  0
 26 71  1  0
 26 72  1  0
 27 73  1  0
 28 74  1  0
 29 75  1  0
 31 76  1  0
 31 77  1  0
 31 78  1  0
 34 79  1  0
 36 80  1  0
M  END
>  <meeko>  (9) 
{"is_sidechain": [false], "free_energy": -5.048, "intermolecular_energy": -10.398, "internal_energy": -2.231}

$$$$
