2p4y_ligand
     RDKit          3D

 61 65  0  0  0  0  0  0  0  0999 V2000
   31.7930  -26.7320   33.6060 C   0  0  0  0  0  0  0  0  0  0  0  0
   31.5440  -27.1430   34.9450 O   0  0  0  0  0  0  0  0  0  0  0  0
   32.2130  -26.4690   35.9340 C   0  0  0  0  0  0  0  0  0  0  0  0
   32.0740  -25.0750   35.8740 C   0  0  0  0  0  0  0  0  0  0  0  0
   32.6930  -24.2310   36.8090 C   0  0  0  0  0  0  0  0  0  0  0  0
   33.4720  -24.8180   37.8200 C   0  0  0  0  0  0  0  0  0  0  0  0
   34.2480  -24.3980   38.9300 C   0  0  0  0  0  0  0  0  0  0  0  0
   34.4460  -23.0050   39.3300 C   0  0  0  0  0  0  0  0  0  0  0  0
   34.3590  -22.4650   40.6030 C   0  0  0  0  0  0  0  0  0  0  0  0
   34.0120  -23.1200   41.8970 C   0  0  0  0  0  0  0  0  0  0  0  0
   34.6460  -21.1110   40.4900 N   0  0  0  0  0  0  0  0  0  0  0  0
   34.7020  -20.1650   41.6120 C   0  0  0  0  0  0  0  0  0  0  0  0
   36.0550  -20.0220   42.2680 C   0  0  0  0  0  0  0  0  0  0  0  0
   37.0650  -20.9160   41.8610 C   0  0  0  0  0  0  0  0  0  0  0  0
   38.3260  -20.8980   42.4510 C   0  0  0  0  0  0  0  0  0  0  0  0
   39.3100  -21.7580   42.0530 O   0  0  0  0  0  0  0  0  0  0  0  0
   40.0450  -22.3080   43.1800 C   0  0  2  0  0  0  0  0  0  0  0  0
   41.4090  -22.7340   42.6530 C   0  0  0  0  0  0  0  0  0  0  0  0
   39.2950  -23.5240   43.7920 C   0  0  0  0  0  0  0  0  0  0  0  0
   39.2990  -23.5640   45.0610 O   0  0  0  0  0  0  0  0  0  0  0  0
   38.7820  -24.3490   42.9810 O   0  0  0  0  0  0  0  0  0  0  0  0
   38.6310  -19.9560   43.4230 C   0  0  0  0  0  0  0  0  0  0  0  0
   37.6430  -19.0710   43.8540 C   0  0  0  0  0  0  0  0  0  0  0  0
   36.3580  -19.1150   43.2950 C   0  0  0  0  0  0  0  0  0  0  0  0
   35.1870  -18.0330   43.9590 Cl  0  0  0  0  0  0  0  0  0  0  0  0
   34.9750  -20.8070   39.1760 C   0  0  0  0  0  0  0  0  0  0  0  0
   35.4010  -19.6070   38.5760 C   0  0  0  0  0  0  0  0  0  0  0  0
   35.6370  -19.5730   37.1940 C   0  0  0  0  0  0  0  0  0  0  0  0
   36.0380  -18.3500   36.7300 O   0  0  0  0  0  0  0  0  0  0  0  0
   35.0780  -17.5400   36.0820 C   0  0  0  0  0  0  0  0  0  0  0  0
   35.3050  -16.2460   36.4010 F   0  0  0  0  0  0  0  0  0  0  0  0
   33.8230  -17.8490   36.4770 F   0  0  0  0  0  0  0  0  0  0  0  0
   35.1630  -17.6550   34.7370 F   0  0  0  0  0  0  0  0  0  0  0  0
   35.4580  -20.7230   36.4310 C   0  0  0  0  0  0  0  0  0  0  0  0
   35.0520  -21.9200   37.0340 C   0  0  0  0  0  0  0  0  0  0  0  0
   34.8100  -21.9720   38.4230 C   0  0  0  0  0  0  0  0  0  0  0  0
   34.7640  -25.4350   39.6030 N   0  0  0  0  0  0  0  0  0  0  0  0
   34.3500  -26.5650   38.9140 O   0  0  0  0  0  0  0  0  0  0  0  0
   33.5790  -26.1960   37.8560 C   0  0  0  0  0  0  0  0  0  0  0  0
   32.9780  -27.0630   36.9420 C   0  0  0  0  0  0  0  0  0  0  0  0
   32.3630  -25.7912   33.6112 H   0  0  0  0  0  0  0  0  0  0  0  0
   32.3724  -27.5089   33.0857 H   0  0  0  0  0  0  0  0  0  0  0  0
   30.8361  -26.5781   33.0857 H   0  0  0  0  0  0  0  0  0  0  0  0
   31.4640  -24.6314   35.0733 H   0  0  0  0  0  0  0  0  0  0  0  0
   32.5715  -23.1392   36.7517 H   0  0  0  0  0  0  0  0  0  0  0  0
   34.3480  -22.4858   42.7307 H   0  0  0  0  0  0  0  0  0  0  0  0
   32.9224  -23.2582   41.9574 H   0  0  0  0  0  0  0  0  0  0  0  0
   34.5097  -24.0991   41.9574 H   0  0  0  0  0  0  0  0  0  0  0  0
   34.3992  -19.1758   41.2381 H   0  0  0  0  0  0  0  0  0  0  0  0
   34.0304  -20.5684   42.3841 H   0  0  0  0  0  0  0  0  0  0  0  0
   36.8533  -21.6419   41.0621 H   0  0  0  0  0  0  0  0  0  0  0  0
   40.1466  -21.5580   43.9782 H   0  0  0  0  0  0  0  0  0  0  0  0
   42.0799  -22.9435   43.4992 H   0  0  0  0  0  0  0  0  0  0  0  0
   41.2984  -23.6404   42.0396 H   0  0  0  0  0  0  0  0  0  0  0  0
   41.8339  -21.9258   42.0396 H   0  0  0  0  0  0  0  0  0  0  0  0
   39.6436  -19.9076   43.8501 H   0  0  0  0  0  0  0  0  0  0  0  0
   37.8734  -18.3339   44.6374 H   0  0  0  0  0  0  0  0  0  0  0  0
   35.5476  -18.7035   39.1860 H   0  0  0  0  0  0  0  0  0  0  0  0
   35.6368  -20.6916   35.3461 H   0  0  0  0  0  0  0  0  0  0  0  0
   34.9211  -22.8243   36.4215 H   0  0  0  0  0  0  0  0  0  0  0  0
   33.0997  -28.1541   37.0111 H   0  0  0  0  0  0  0  0  0  0  0  0
  1  2  1  0
  2  3  1  0
  3  4  2  0
  4  5  1  0
  5  6  2  0
  6  7  1  0
  7  8  1  0
  8  9  2  0
  9 10  1  0
  9 11  1  0
 11 12  1  0
 12 13  1  0
 13 14  2  0
 14 15  1  0
 15 16  1  0
 16 17  1  0
 17 18  1  0
 17 19  1  0
 19 20  2  0
 19 21  1  0
 15 22  2  0
 22 23  1  0
 23 24  2  0
 24 25  1  0
 11 26  1  0
 26 27  2  0
 27 28  1  0
 28 29  1  0
 29 30  1  0
 30 31  1  0
 30 32  1  0
 30 33  1  0
 28 34  2  0
 34 35  1  0
 35 36  2  0
  7 37  2  0
 37 38  1  0
 38 39  1  0
 39 40  2  0
 40  3  1  0
 39  6  1  0
 36  8  1  0
 24 13  1  0
 36 26  1  0
  1 41  1  0
  1 42  1  0
  1 43  1  0
  4 44  1  0
  5 45  1  0
 10 46  1  0
 10 47  1  0
 10 48  1  0
 12 49  1  0
 12 50  1  0
 14 51  1  0
 17 52  1  1
 18 53  1  0
 18 54  1  0
 18 55  1  0
 22 56  1  0
 23 57  1  0
 27 58  1  0
 34 59  1  0
 35 60  1  0
 40 61  1  0
M  CHG  1  21  -1
M  END
>  <meeko>  (1) 
{"is_sidechain": [false], "free_energy": -11.182, "intermolecular_energy": -17.065, "internal_energy": -1.842}

$$$$
2p4y_ligand
     RDKit          3D

 61 65  0  0  0  0  0  0  0  0999 V2000
   34.9150  -30.3170   39.7470 C   0  0  0  0  0  0  0  0  0  0  0  0
   34.6710  -29.3250   40.7370 O   0  0  0  0  0  0  0  0  0  0  0  0
   34.4350  -28.0490   40.2920 C   0  0  0  0  0  0  0  0  0  0  0  0
   35.0710  -27.0520   41.0440 C   0  0  0  0  0  0  0  0  0  0  0  0
   34.9370  -25.6920   40.7280 C   0  0  0  0  0  0  0  0  0  0  0  0
   34.1360  -25.3410   39.6280 C   0  0  0  0  0  0  0  0  0  0  0  0
   33.7230  -24.1610   38.9580 C   0  0  0  0  0  0  0  0  0  0  0  0
   34.1090  -22.8040   39.3450 C   0  0  0  0  0  0  0  0  0  0  0  0
   34.0960  -22.2450   40.6120 C   0  0  0  0  0  0  0  0  0  0  0  0
   33.6610  -22.8330   41.9120 C   0  0  0  0  0  0  0  0  0  0  0  0
   34.5650  -20.9430   40.4870 N   0  0  0  0  0  0  0  0  0  0  0  0
   34.7490  -20.0030   41.6000 C   0  0  0  0  0  0  0  0  0  0  0  0
   36.1150  -20.0240   42.2430 C   0  0  0  0  0  0  0  0  0  0  0  0
   37.0360  -20.9770   41.7660 C   0  0  0  0  0  0  0  0  0  0  0  0
   38.3000  -21.1100   42.3360 C   0  0  0  0  0  0  0  0  0  0  0  0
   39.1980  -22.0270   41.8710 O   0  0  0  0  0  0  0  0  0  0  0  0
   40.1290  -22.4540   42.9020 C   0  0  2  0  0  0  0  0  0  0  0  0
   41.4620  -22.7150   42.2140 C   0  0  0  0  0  0  0  0  0  0  0  0
   39.6210  -23.7410   43.6100 C   0  0  0  0  0  0  0  0  0  0  0  0
   39.8220  -24.8150   42.9630 O   0  0  0  0  0  0  0  0  0  0  0  0
   39.0520  -23.5940   44.7300 O   0  0  0  0  0  0  0  0  0  0  0  0
   38.6980  -20.2630   43.3600 C   0  0  0  0  0  0  0  0  0  0  0  0
   37.7980  -19.3220   43.8600 C   0  0  0  0  0  0  0  0  0  0  0  0
   36.5090  -19.2140   43.3200 C   0  0  0  0  0  0  0  0  0  0  0  0
   35.4470  -18.0770   44.0670 Cl  0  0  0  0  0  0  0  0  0  0  0  0
   34.9340  -20.7000   39.1710 C   0  0  0  0  0  0  0  0  0  0  0  0
   35.5210  -19.5760   38.5600 C   0  0  0  0  0  0  0  0  0  0  0  0
   35.7600  -19.5880   37.1790 C   0  0  0  0  0  0  0  0  0  0  0  0
   36.3250  -18.4370   36.7030 O   0  0  0  0  0  0  0  0  0  0  0  0
   35.4640  -17.3680   36.3610 C   0  0  0  0  0  0  0  0  0  0  0  0
   35.7790  -16.9270   35.1230 F   0  0  0  0  0  0  0  0  0  0  0  0
   35.6010  -16.3310   37.2170 F   0  0  0  0  0  0  0  0  0  0  0  0
   34.1710  -17.7640   36.3440 F   0  0  0  0  0  0  0  0  0  0  0  0
   35.4260  -20.7100   36.4270 C   0  0  0  0  0  0  0  0  0  0  0  0
   34.8600  -21.8350   37.0400 C   0  0  0  0  0  0  0  0  0  0  0  0
   34.6120  -21.8390   38.4290 C   0  0  0  0  0  0  0  0  0  0  0  0
   32.9530  -24.4300   37.8960 N   0  0  0  0  0  0  0  0  0  0  0  0
   32.8250  -25.8110   37.8730 O   0  0  0  0  0  0  0  0  0  0  0  0
   33.5320  -26.3510   38.9020 C   0  0  0  0  0  0  0  0  0  0  0  0
   33.6440  -27.7120   39.1900 C   0  0  0  0  0  0  0  0  0  0  0  0
   35.1503  -31.2735   40.2366 H   0  0  0  0  0  0  0  0  0  0  0  0
   34.0195  -30.4368   39.1195 H   0  0  0  0  0  0  0  0  0  0  0  0
   35.7638  -30.0077   39.1195 H   0  0  0  0  0  0  0  0  0  0  0  0
   35.6913  -27.3435   41.9043 H   0  0  0  0  0  0  0  0  0  0  0  0
   35.4454  -24.9208   41.3253 H   0  0  0  0  0  0  0  0  0  0  0  0
   34.0916  -22.2509   42.7401 H   0  0  0  0  0  0  0  0  0  0  0  0
   32.5633  -22.8067   41.9773 H   0  0  0  0  0  0  0  0  0  0  0  0
   34.0073  -23.8750   41.9773 H   0  0  0  0  0  0  0  0  0  0  0  0
   34.5678  -18.9867   41.2200 H   0  0  0  0  0  0  0  0  0  0  0  0
   34.0401  -20.3142   42.3814 H   0  0  0  0  0  0  0  0  0  0  0  0
   36.7515  -21.6290   40.9269 H   0  0  0  0  0  0  0  0  0  0  0  0
   40.2300  -21.6795   43.6766 H   0  0  0  0  0  0  0  0  0  0  0  0
   42.2429  -22.8679   42.9735 H   0  0  0  0  0  0  0  0  0  0  0  0
   41.3805  -23.6142   41.5857 H   0  0  0  0  0  0  0  0  0  0  0  0
   41.7256  -21.8514   41.5857 H   0  0  0  0  0  0  0  0  0  0  0  0
   39.7147  -20.3329   43.7741 H   0  0  0  0  0  0  0  0  0  0  0  0
   38.1020  -18.6598   44.6841 H   0  0  0  0  0  0  0  0  0  0  0  0
   35.7900  -18.6952   39.1616 H   0  0  0  0  0  0  0  0  0  0  0  0
   35.6080  -20.7135   35.3422 H   0  0  0  0  0  0  0  0  0  0  0  0
   34.6078  -22.7191   36.4360 H   0  0  0  0  0  0  0  0  0  0  0  0
   33.1377  -28.4772   38.5832 H   0  0  0  0  0  0  0  0  0  0  0  0
  1  2  1  0
  2  3  1  0
  3  4  2  0
  4  5  1  0
  5  6  2  0
  6  7  1  0
  7  8  1  0
  8  9  2  0
  9 10  1  0
  9 11  1  0
 11 12  1  0
 12 13  1  0
 13 14  2  0
 14 15  1  0
 15 16  1  0
 16 17  1  0
 17 18  1  0
 17 19  1  0
 19 20  2  0
 19 21  1  0
 15 22  2  0
 22 23  1  0
 23 24  2  0
 24 25  1  0
 11 26  1  0
 26 27  2  0
 27 28  1  0
 28 29  1  0
 29 30  1  0
 30 31  1  0
 30 32  1  0
 30 33  1  0
 28 34  2  0
 34 35  1  0
 35 36  2  0
  7 37  2  0
 37 38  1  0
 38 39  1  0
 39 40  2  0
 40  3  1  0
 39  6  1  0
 36  8  1  0
 24 13  1  0
 36 26  1  0
  1 41  1  0
  1 42  1  0
  1 43  1  0
  4 44  1  0
  5 45  1  0
 10 46  1  0
 10 47  1  0
 10 48  1  0
 12 49  1  0
 12 50  1  0
 14 51  1  0
 17 52  1  1
 18 53  1  0
 18 54  1  0
 18 55  1  0
 22 56  1  0
 23 57  1  0
 27 58  1  0
 34 59  1  0
 35 60  1  0
 40 61  1  0
M  CHG  1  21  -1
M  END
>  <meeko>  (2) 
{"is_sidechain": [false], "free_energy": -10.536, "intermolecular_energy": -16.076, "internal_energy": -1.846}

$$$$
2p4y_ligand
     RDKit          3D

 61 65  0  0  0  0  0  0  0  0999 V2000
   44.4530  -24.6810   40.2630 C   0  0  0  0  0  0  0  0  0  0  0  0
   44.2610  -23.8410   41.3960 O   0  0  0  0  0  0  0  0  0  0  0  0
   42.9870  -23.7550   41.8940 C   0  0  0  0  0  0  0  0  0  0  0  0
   42.0330  -23.3250   40.9610 C   0  0  0  0  0  0  0  0  0  0  0  0
   40.6800  -23.1810   41.3030 C   0  0  0  0  0  0  0  0  0  0  0  0
   40.2930  -23.4740   42.6210 C   0  0  0  0  0  0  0  0  0  0  0  0
   39.1040  -23.4780   43.3950 C   0  0  0  0  0  0  0  0  0  0  0  0
   37.7830  -23.1000   42.8940 C   0  0  0  0  0  0  0  0  0  0  0  0
   36.7770  -23.9350   42.4360 C   0  0  0  0  0  0  0  0  0  0  0  0
   36.7600  -25.4190   42.2870 C   0  0  0  0  0  0  0  0  0  0  0  0
   35.7040  -23.1250   42.0860 N   0  0  0  0  0  0  0  0  0  0  0  0
   34.4100  -23.6080   41.5850 C   0  0  0  0  0  0  0  0  0  0  0  0
   34.2820  -23.6690   40.0820 C   0  0  0  0  0  0  0  0  0  0  0  0
   34.0530  -22.4540   39.4060 C   0  0  0  0  0  0  0  0  0  0  0  0
   33.8640  -22.4190   38.0270 C   0  0  0  0  0  0  0  0  0  0  0  0
   33.6500  -21.2420   37.3670 O   0  0  0  0  0  0  0  0  0  0  0  0
   34.4140  -20.1470   37.9390 C   0  0  2  0  0  0  0  0  0  0  0  0
   34.0270  -18.8890   37.1720 C   0  0  0  0  0  0  0  0  0  0  0  0
   35.9410  -20.4110   37.8150 C   0  0  0  0  0  0  0  0  0  0  0  0
   36.3220  -20.7770   36.6610 O   0  0  0  0  0  0  0  0  0  0  0  0
   36.6370  -20.2570   38.8600 O   0  0  0  0  0  0  0  0  0  0  0  0
   33.9510  -23.5840   37.2780 C   0  0  0  0  0  0  0  0  0  0  0  0
   34.1610  -24.8010   37.9260 C   0  0  0  0  0  0  0  0  0  0  0  0
   34.3080  -24.8470   39.3200 C   0  0  0  0  0  0  0  0  0  0  0  0
   34.4780  -26.4120   40.0300 Cl  0  0  0  0  0  0  0  0  0  0  0  0
   35.9990  -21.8000   42.3800 C   0  0  0  0  0  0  0  0  0  0  0  0
   35.2260  -20.6280   42.2760 C   0  0  0  0  0  0  0  0  0  0  0  0
   35.7960  -19.3940   42.6170 C   0  0  0  0  0  0  0  0  0  0  0  0
   34.9490  -18.3310   42.4660 O   0  0  0  0  0  0  0  0  0  0  0  0
   34.9080  -17.3640   43.4960 C   0  0  0  0  0  0  0  0  0  0  0  0
   33.6780  -16.8030   43.5270 F   0  0  0  0  0  0  0  0  0  0  0  0
   35.8070  -16.3770   43.2830 F   0  0  0  0  0  0  0  0  0  0  0  0
   35.1380  -17.9220   44.7060 F   0  0  0  0  0  0  0  0  0  0  0  0
   37.1130  -19.3380   43.0620 C   0  0  0  0  0  0  0  0  0  0  0  0
   37.8740  -20.5070   43.1830 C   0  0  0  0  0  0  0  0  0  0  0  0
   37.3160  -21.7580   42.8430 C   0  0  0  0  0  0  0  0  0  0  0  0
   39.3210  -23.9020   44.6470 N   0  0  0  0  0  0  0  0  0  0  0  0
   40.6820  -24.1570   44.7190 O   0  0  0  0  0  0  0  0  0  0  0  0
   41.2580  -23.9050   43.5130 C   0  0  0  0  0  0  0  0  0  0  0  0
   42.6100  -24.0590   43.2060 C   0  0  0  0  0  0  0  0  0  0  0  0
   44.6864  -25.7021   40.5989 H   0  0  0  0  0  0  0  0  0  0  0  0
   43.5349  -24.6951   39.6572 H   0  0  0  0  0  0  0  0  0  0  0  0
   45.2861  -24.2949   39.6572 H   0  0  0  0  0  0  0  0  0  0  0  0
   42.3536  -23.0946   39.9343 H   0  0  0  0  0  0  0  0  0  0  0  0
   39.9419  -22.8475   40.5587 H   0  0  0  0  0  0  0  0  0  0  0  0
   36.7546  -25.8874   43.2823 H   0  0  0  0  0  0  0  0  0  0  0  0
   35.8583  -25.7217   41.7344 H   0  0  0  0  0  0  0  0  0  0  0  0
   37.6545  -25.7423   41.7344 H   0  0  0  0  0  0  0  0  0  0  0  0
   34.2491  -24.6215   41.9812 H   0  0  0  0  0  0  0  0  0  0  0  0
   33.6607  -22.8778   41.9246 H   0  0  0  0  0  0  0  0  0  0  0  0
   34.0230  -21.5153   39.9787 H   0  0  0  0  0  0  0  0  0  0  0  0
   34.1921  -20.0396   39.0110 H   0  0  0  0  0  0  0  0  0  0  0  0
   33.7803  -18.0871   37.8834 H   0  0  0  0  0  0  0  0  0  0  0  0
   34.8691  -18.5717   36.5394 H   0  0  0  0  0  0  0  0  0  0  0  0
   33.1522  -19.0998   36.5394 H   0  0  0  0  0  0  0  0  0  0  0  0
   33.8552  -23.5479   36.1828 H   0  0  0  0  0  0  0  0  0  0  0  0
   34.2117  -25.7306   37.3401 H   0  0  0  0  0  0  0  0  0  0  0  0
   34.1832  -20.6804   41.9299 H   0  0  0  0  0  0  0  0  0  0  0  0
   37.5602  -18.3670   43.3210 H   0  0  0  0  0  0  0  0  0  0  0  0
   38.9113  -20.4502   43.5446 H   0  0  0  0  0  0  0  0  0  0  0  0
   43.3397  -24.4008   43.9548 H   0  0  0  0  0  0  0  0  0  0  0  0
  1  2  1  0
  2  3  1  0
  3  4  2  0
  4  5  1  0
  5  6  2  0
  6  7  1  0
  7  8  1  0
  8  9  2  0
  9 10  1  0
  9 11  1  0
 11 12  1  0
 12 13  1  0
 13 14  2  0
 14 15  1  0
 15 16  1  0
 16 17  1  0
 17 18  1  0
 17 19  1  0
 19 20  2  0
 19 21  1  0
 15 22  2  0
 22 23  1  0
 23 24  2  0
 24 25  1  0
 11 26  1  0
 26 27  2  0
 27 28  1  0
 28 29  1  0
 29 30  1  0
 30 31  1  0
 30 32  1  0
 30 33  1  0
 28 34  2  0
 34 35  1  0
 35 36  2  0
  7 37  2  0
 37 38  1  0
 38 39  1  0
 39 40  2  0
 40  3  1  0
 39  6  1  0
 36  8  1  0
 24 13  1  0
 36 26  1  0
  1 41  1  0
  1 42  1  0
  1 43  1  0
  4 44  1  0
  5 45  1  0
 10 46  1  0
 10 47  1  0
 10 48  1  0
 12 49  1  0
 12 50  1  0
 14 51  1  0
 17 52  1  1
 18 53  1  0
 18 54  1  0
 18 55  1  0
 22 56  1  0
 23 57  1  0
 27 58  1  0
 34 59  1  0
 35 60  1  0
 40 61  1  0
M  CHG  1  21  -1
M  END
>  <meeko>  (3) 
{"is_sidechain": [false], "free_energy": -9.867, "intermolecular_energy": -14.735, "internal_energy": -2.167}

$$$$
2p4y_ligand
     RDKit          3D

 61 65  0  0  0  0  0  0  0  0999 V2000
   28.6060  -28.6870   37.4930 C   0  0  0  0  0  0  0  0  0  0  0  0
   29.8040  -28.8180   36.7350 O   0  0  0  0  0  0  0  0  0  0  0  0
   30.8220  -27.9480   37.0310 C   0  0  0  0  0  0  0  0  0  0  0  0
   30.5490  -27.0890   38.1050 C   0  0  0  0  0  0  0  0  0  0  0  0
   31.4810  -26.1360   38.5420 C   0  0  0  0  0  0  0  0  0  0  0  0
   32.7110  -26.0510   37.8680 C   0  0  0  0  0  0  0  0  0  0  0  0
   33.9030  -25.2880   37.9420 C   0  0  0  0  0  0  0  0  0  0  0  0
   34.1510  -24.2210   38.9120 C   0  0  0  0  0  0  0  0  0  0  0  0
   34.4610  -24.3490   40.2560 C   0  0  0  0  0  0  0  0  0  0  0  0
   34.5910  -25.5760   41.0940 C   0  0  0  0  0  0  0  0  0  0  0  0
   34.6260  -23.0650   40.7590 N   0  0  0  0  0  0  0  0  0  0  0  0
   35.0000  -22.7430   42.1420 C   0  0  0  0  0  0  0  0  0  0  0  0
   36.4680  -22.4700   42.3660 C   0  0  0  0  0  0  0  0  0  0  0  0
   37.3220  -23.5860   42.4670 C   0  0  0  0  0  0  0  0  0  0  0  0
   38.6810  -23.4340   42.7300 C   0  0  0  0  0  0  0  0  0  0  0  0
   39.5140  -24.5130   42.8200 O   0  0  0  0  0  0  0  0  0  0  0  0
   40.8390  -24.1440   43.2890 C   0  0  2  0  0  0  0  0  0  0  0  0
   41.8410  -24.8480   42.3830 C   0  0  0  0  0  0  0  0  0  0  0  0
   41.0460  -24.5780   44.7670 C   0  0  0  0  0  0  0  0  0  0  0  0
   41.1040  -25.8340   44.9470 O   0  0  0  0  0  0  0  0  0  0  0  0
   41.1150  -23.6580   45.6320 O   0  0  0  0  0  0  0  0  0  0  0  0
   39.2350  -22.1670   42.8480 C   0  0  0  0  0  0  0  0  0  0  0  0
   38.4070  -21.0480   42.7680 C   0  0  0  0  0  0  0  0  0  0  0  0
   37.0300  -21.1970   42.5480 C   0  0  0  0  0  0  0  0  0  0  0  0
   36.0830  -19.7530   42.5510 Cl  0  0  0  0  0  0  0  0  0  0  0  0
   34.4890  -22.1370   39.7350 C   0  0  0  0  0  0  0  0  0  0  0  0
   34.6330  -20.7370   39.7220 C   0  0  0  0  0  0  0  0  0  0  0  0
   34.3990  -20.0310   38.5330 C   0  0  0  0  0  0  0  0  0  0  0  0
   34.5630  -18.6780   38.6500 O   0  0  0  0  0  0  0  0  0  0  0  0
   35.1930  -17.9920   37.5860 C   0  0  0  0  0  0  0  0  0  0  0  0
   35.5980  -16.7780   38.0220 F   0  0  0  0  0  0  0  0  0  0  0  0
   34.3450  -17.7990   36.5520 F   0  0  0  0  0  0  0  0  0  0  0  0
   36.2850  -18.6590   37.1480 F   0  0  0  0  0  0  0  0  0  0  0  0
   34.0370  -20.7180   37.3780 C   0  0  0  0  0  0  0  0  0  0  0  0
   33.9130  -22.1130   37.3900 C   0  0  0  0  0  0  0  0  0  0  0  0
   34.1440  -22.8390   38.5780 C   0  0  0  0  0  0  0  0  0  0  0  0
   34.8060  -25.6770   37.0320 N   0  0  0  0  0  0  0  0  0  0  0  0
   34.1950  -26.6970   36.3180 O   0  0  0  0  0  0  0  0  0  0  0  0
   32.9500  -26.9210   36.8190 C   0  0  0  0  0  0  0  0  0  0  0  0
   32.0460  -27.8790   36.3600 C   0  0  0  0  0  0  0  0  0  0  0  0
   28.8464  -28.7133   38.5661 H   0  0  0  0  0  0  0  0  0  0  0  0
   28.1206  -27.7304   37.2493 H   0  0  0  0  0  0  0  0  0  0  0  0
   27.9254  -29.5161   37.2493 H   0  0  0  0  0  0  0  0  0  0  0  0
   29.5790  -27.1643   38.6182 H   0  0  0  0  0  0  0  0  0  0  0  0
   31.2549  -25.4728   39.3899 H   0  0  0  0  0  0  0  0  0  0  0  0
   34.5616  -25.2982   42.1579 H   0  0  0  0  0  0  0  0  0  0  0  0
   33.7605  -26.2620   40.8710 H   0  0  0  0  0  0  0  0  0  0  0  0
   35.5468  -26.0727   40.8710 H   0  0  0  0  0  0  0  0  0  0  0  0
   34.4375  -21.8482   42.4467 H   0  0  0  0  0  0  0  0  0  0  0  0
   34.7622  -23.6367   42.7376 H   0  0  0  0  0  0  0  0  0  0  0  0
   36.9075  -24.5964   42.3356 H   0  0  0  0  0  0  0  0  0  0  0  0
   40.9715  -23.0526   43.2523 H   0  0  0  0  0  0  0  0  0  0  0  0
   42.5869  -25.3721   42.9986 H   0  0  0  0  0  0  0  0  0  0  0  0
   41.3135  -25.5750   41.7481 H   0  0  0  0  0  0  0  0  0  0  0  0
   42.3462  -24.1053   41.7481 H   0  0  0  0  0  0  0  0  0  0  0  0
   40.3173  -22.0467   43.0032 H   0  0  0  0  0  0  0  0  0  0  0  0
   38.8368  -20.0415   42.8782 H   0  0  0  0  0  0  0  0  0  0  0  0
   34.9266  -20.2011   40.6367 H   0  0  0  0  0  0  0  0  0  0  0  0
   33.8468  -20.1611   36.4486 H   0  0  0  0  0  0  0  0  0  0  0  0
   33.6341  -22.6455   36.4688 H   0  0  0  0  0  0  0  0  0  0  0  0
   32.2834  -28.5436   35.5163 H   0  0  0  0  0  0  0  0  0  0  0  0
  1  2  1  0
  2  3  1  0
  3  4  2  0
  4  5  1  0
  5  6  2  0
  6  7  1  0
  7  8  1  0
  8  9  2  0
  9 10  1  0
  9 11  1  0
 11 12  1  0
 12 13  1  0
 13 14  2  0
 14 15  1  0
 15 16  1  0
 16 17  1  0
 17 18  1  0
 17 19  1  0
 19 20  2  0
 19 21  1  0
 15 22  2  0
 22 23  1  0
 23 24  2  0
 24 25  1  0
 11 26  1  0
 26 27  2  0
 27 28  1  0
 28 29  1  0
 29 30  1  0
 30 31  1  0
 30 32  1  0
 30 33  1  0
 28 34  2  0
 34 35  1  0
 35 36  2  0
  7 37  2  0
 37 38  1  0
 38 39  1  0
 39 40  2  0
 40  3  1  0
 39  6  1  0
 36  8  1  0
 24 13  1  0
 36 26  1  0
  1 41  1  0
  1 42  1  0
  1 43  1  0
  4 44  1  0
  5 45  1  0
 10 46  1  0
 10 47  1  0
 10 48  1  0
 12 49  1  0
 12 50  1  0
 14 51  1  0
 17 52  1  1
 18 53  1  0
 18 54  1  0
 18 55  1  0
 22 56  1  0
 23 57  1  0
 27 58  1  0
 34 59  1  0
 35 60  1  0
 40 61  1  0
M  CHG  1  21  -1
M  END
>  <meeko>  (4) 
{"is_sidechain": [false], "free_energy": -9.706, "intermolecular_energy": -14.507, "internal_energy": -2.147}

$$$$
2p4y_ligand
     RDKit          3D

 61 65  0  0  0  0  0  0  0  0999 V2000
   40.2590  -18.9570   45.0550 C   0  0  0  0  0  0  0  0  0  0  0  0
   38.9660  -18.3670   45.1170 O   0  0  0  0  0  0  0  0  0  0  0  0
   38.0140  -18.8700   44.2690 C   0  0  0  0  0  0  0  0  0  0  0  0
   38.4310  -19.9910   43.5380 C   0  0  0  0  0  0  0  0  0  0  0  0
   37.5820  -20.6320   42.6230 C   0  0  0  0  0  0  0  0  0  0  0  0
   36.2870  -20.1190   42.4450 C   0  0  0  0  0  0  0  0  0  0  0  0
   35.1330  -20.4110   41.6750 C   0  0  0  0  0  0  0  0  0  0  0  0
   35.0270  -21.5120   40.7170 C   0  0  0  0  0  0  0  0  0  0  0  0
   35.0340  -21.4380   39.3340 C   0  0  0  0  0  0  0  0  0  0  0  0
   35.1110  -20.2470   38.4400 C   0  0  0  0  0  0  0  0  0  0  0  0
   34.9290  -22.7390   38.8580 N   0  0  0  0  0  0  0  0  0  0  0  0
   34.9370  -23.1210   37.4390 C   0  0  0  0  0  0  0  0  0  0  0  0
   33.7390  -23.9160   36.9780 C   0  0  0  0  0  0  0  0  0  0  0  0
   33.9050  -25.3080   36.8410 C   0  0  0  0  0  0  0  0  0  0  0  0
   32.8740  -26.1160   36.3670 C   0  0  0  0  0  0  0  0  0  0  0  0
   33.0280  -27.4670   36.2410 O   0  0  0  0  0  0  0  0  0  0  0  0
   32.6480  -28.1760   37.4520 C   0  0  2  0  0  0  0  0  0  0  0  0
   33.9010  -28.8710   37.9690 C   0  0  0  0  0  0  0  0  0  0  0  0
   31.5320  -29.2170   37.1580 C   0  0  0  0  0  0  0  0  0  0  0  0
   30.6720  -28.8440   36.3030 O   0  0  0  0  0  0  0  0  0  0  0  0
   31.5780  -30.3050   37.8020 O   0  0  0  0  0  0  0  0  0  0  0  0
   31.6350  -25.5660   36.0670 C   0  0  0  0  0  0  0  0  0  0  0  0
   31.4520  -24.1880   36.1790 C   0  0  0  0  0  0  0  0  0  0  0  0
   32.5010  -23.3650   36.6130 C   0  0  0  0  0  0  0  0  0  0  0  0
   32.1950  -21.6660   36.6350 Cl  0  0  0  0  0  0  0  0  0  0  0  0
   34.9230  -23.6310   39.9220 C   0  0  0  0  0  0  0  0  0  0  0  0
   34.9030  -25.0380   39.9570 C   0  0  0  0  0  0  0  0  0  0  0  0
   34.8670  -25.6960   41.1950 C   0  0  0  0  0  0  0  0  0  0  0  0
   34.8420  -27.0600   41.0980 O   0  0  0  0  0  0  0  0  0  0  0  0
   33.6650  -27.7310   41.5020 C   0  0  0  0  0  0  0  0  0  0  0  0
   32.6690  -27.4360   40.6370 F   0  0  0  0  0  0  0  0  0  0  0  0
   33.2720  -27.3410   42.7350 F   0  0  0  0  0  0  0  0  0  0  0  0
   33.8360  -29.0730   41.4930 F   0  0  0  0  0  0  0  0  0  0  0  0
   34.8610  -24.9560   42.3740 C   0  0  0  0  0  0  0  0  0  0  0  0
   34.9000  -23.5560   42.3350 C   0  0  0  0  0  0  0  0  0  0  0  0
   34.9360  -22.8790   41.0980 C   0  0  0  0  0  0  0  0  0  0  0  0
   34.1220  -19.5750   41.9470 N   0  0  0  0  0  0  0  0  0  0  0  0
   34.6190  -18.6910   42.8920 O   0  0  0  0  0  0  0  0  0  0  0  0
   35.9050  -19.0170   43.1900 C   0  0  0  0  0  0  0  0  0  0  0  0
   36.7230  -18.3560   44.1070 C   0  0  0  0  0  0  0  0  0  0  0  0
   40.6334  -19.1278   46.0751 H   0  0  0  0  0  0  0  0  0  0  0  0
   40.1989  -19.9168   44.5210 H   0  0  0  0  0  0  0  0  0  0  0  0
   40.9445  -18.2826   44.5210 H   0  0  0  0  0  0  0  0  0  0  0  0
   39.4500  -20.3781   43.6854 H   0  0  0  0  0  0  0  0  0  0  0  0
   37.9221  -21.5135   42.0597 H   0  0  0  0  0  0  0  0  0  0  0  0
   35.1700  -19.3337   39.0502 H   0  0  0  0  0  0  0  0  0  0  0  0
   36.0062  -20.3223   37.8052 H   0  0  0  0  0  0  0  0  0  0  0  0
   34.2136  -20.2064   37.8052 H   0  0  0  0  0  0  0  0  0  0  0  0
   34.9849  -22.2000   36.8394 H   0  0  0  0  0  0  0  0  0  0  0  0
   35.8083  -23.7792   37.3061 H   0  0  0  0  0  0  0  0  0  0  0  0
   34.8673  -25.7659   37.1136 H   0  0  0  0  0  0  0  0  0  0  0  0
   32.2470  -27.4764   38.2002 H   0  0  0  0  0  0  0  0  0  0  0  0
   33.8948  -28.8676   39.0690 H   0  0  0  0  0  0  0  0  0  0  0  0
   33.9209  -29.9091   37.6057 H   0  0  0  0  0  0  0  0  0  0  0  0
   34.7922  -28.3382   37.6057 H   0  0  0  0  0  0  0  0  0  0  0  0
   30.8050  -26.2115   35.7438 H   0  0  0  0  0  0  0  0  0  0  0  0
   30.4782  -23.7438   35.9252 H   0  0  0  0  0  0  0  0  0  0  0  0
   34.9155  -25.6164   39.0215 H   0  0  0  0  0  0  0  0  0  0  0  0
   34.8254  -25.4743   43.3436 H   0  0  0  0  0  0  0  0  0  0  0  0
   34.9026  -22.9821   43.2734 H   0  0  0  0  0  0  0  0  0  0  0  0
   36.3722  -17.4793   44.6713 H   0  0  0  0  0  0  0  0  0  0  0  0
  1  2  1  0
  2  3  1  0
  3  4  2  0
  4  5  1  0
  5  6  2  0
  6  7  1  0
  7  8  1  0
  8  9  2  0
  9 10  1  0
  9 11  1  0
 11 12  1  0
 12 13  1  0
 13 14  2  0
 14 15  1  0
 15 16  1  0
 16 17  1  0
 17 18  1  0
 17 19  1  0
 19 20  2  0
 19 21  1  0
 15 22  2  0
 22 23  1  0
 23 24  2  0
 24 25  1  0
 11 26  1  0
 26 27  2  0
 27 28  1  0
 28 29  1  0
 29 30  1  0
 30 31  1  0
 30 32  1  0
 30 33  1  0
 28 34  2  0
 34 35  1  0
 35 36  2  0
  7 37  2  0
 37 38  1  0
 38 39  1  0
 39 40  2  0
 40  3  1  0
 39  6  1  0
 36  8  1  0
 24 13  1  0
 36 26  1  0
  1 41  1  0
  1 42  1  0
  1 43  1  0
  4 44  1  0
  5 45  1  0
 10 46  1  0
 10 47  1  0
 10 48  1  0
 12 49  1  0
 12 50  1  0
 14 51  1  0
 17 52  1  1
 18 53  1  0
 18 54  1  0
 18 55  1  0
 22 56  1  0
 23 57  1  0
 27 58  1  0
 34 59  1  0
 35 60  1  0
 40 61  1  0
M  CHG  1  21  -1
M  END
>  <meeko>  (5) 
{"is_sidechain": [false], "free_energy": -9.665, "intermolecular_energy": -14.265, "internal_energy": -2.327}

$$$$
2p4y_ligand
     RDKit          3D

 61 65  0  0  0  0  0  0  0  0999 V2000
   43.0720  -22.5130   43.0170 C   0  0  0  0  0  0  0  0  0  0  0  0
   42.4590  -21.2970   43.4290 O   0  0  0  0  0  0  0  0  0  0  0  0
   41.1070  -21.1850   43.2300 C   0  0  0  0  0  0  0  0  0  0  0  0
   40.5970  -22.0580   42.2580 C   0  0  0  0  0  0  0  0  0  0  0  0
   39.2330  -22.0760   41.9280 C   0  0  0  0  0  0  0  0  0  0  0  0
   38.3750  -21.1870   42.5950 C   0  0  0  0  0  0  0  0  0  0  0  0
   36.9960  -20.8560   42.6020 C   0  0  0  0  0  0  0  0  0  0  0  0
   35.9850  -21.4830   41.7510 C   0  0  0  0  0  0  0  0  0  0  0  0
   35.0950  -20.8630   40.8890 C   0  0  0  0  0  0  0  0  0  0  0  0
   34.8870  -19.4120   40.6120 C   0  0  0  0  0  0  0  0  0  0  0  0
   34.3470  -21.8660   40.2860 N   0  0  0  0  0  0  0  0  0  0  0  0
   33.3100  -21.6480   39.2690 C   0  0  0  0  0  0  0  0  0  0  0  0
   33.5760  -22.2900   37.9280 C   0  0  0  0  0  0  0  0  0  0  0  0
   32.6940  -23.3080   37.5160 C   0  0  0  0  0  0  0  0  0  0  0  0
   32.8930  -23.9970   36.3220 C   0  0  0  0  0  0  0  0  0  0  0  0
   32.0350  -24.9790   35.9150 O   0  0  0  0  0  0  0  0  0  0  0  0
   32.7140  -26.2490   35.7140 C   0  0  2  0  0  0  0  0  0  0  0  0
   31.8610  -27.0570   34.7440 C   0  0  0  0  0  0  0  0  0  0  0  0
   32.8750  -27.0110   37.0600 C   0  0  0  0  0  0  0  0  0  0  0  0
   34.0300  -27.5030   37.2530 O   0  0  0  0  0  0  0  0  0  0  0  0
   31.8560  -27.0810   37.8060 O   0  0  0  0  0  0  0  0  0  0  0  0
   33.9430  -23.6540   35.4820 C   0  0  0  0  0  0  0  0  0  0  0  0
   34.8380  -22.6600   35.8760 C   0  0  0  0  0  0  0  0  0  0  0  0
   34.6680  -21.9940   37.0990 C   0  0  0  0  0  0  0  0  0  0  0  0
   35.8800  -20.8420   37.5290 Cl  0  0  0  0  0  0  0  0  0  0  0  0
   34.8000  -23.1090   40.7070 C   0  0  0  0  0  0  0  0  0  0  0  0
   34.4210  -24.4130   40.3360 C   0  0  0  0  0  0  0  0  0  0  0  0
   35.0330  -25.5110   40.9570 C   0  0  0  0  0  0  0  0  0  0  0  0
   34.5740  -26.7230   40.5190 O   0  0  0  0  0  0  0  0  0  0  0  0
   33.7080  -27.4500   41.3680 C   0  0  0  0  0  0  0  0  0  0  0  0
   34.2270  -28.6810   41.5780 F   0  0  0  0  0  0  0  0  0  0  0  0
   32.4870  -27.6060   40.8100 F   0  0  0  0  0  0  0  0  0  0  0  0
   33.5750  -26.8460   42.5700 F   0  0  0  0  0  0  0  0  0  0  0  0
   36.0130  -25.3050   41.9240 C   0  0  0  0  0  0  0  0  0  0  0  0
   36.4010  -24.0060   42.2760 C   0  0  0  0  0  0  0  0  0  0  0  0
   35.7950  -22.8900   41.6620 C   0  0  0  0  0  0  0  0  0  0  0  0
   36.7100  -19.9130   43.5090 N   0  0  0  0  0  0  0  0  0  0  0  0
   37.9220  -19.5860   44.0970 O   0  0  0  0  0  0  0  0  0  0  0  0
   38.9110  -20.3470   43.5550 C   0  0  0  0  0  0  0  0  0  0  0  0
   40.2600  -20.3020   43.9070 C   0  0  0  0  0  0  0  0  0  0  0  0
   43.3652  -23.0946   43.9035 H   0  0  0  0  0  0  0  0  0  0  0  0
   42.3604  -23.0966   42.4145 H   0  0  0  0  0  0  0  0  0  0  0  0
   43.9644  -22.2880   42.4145 H   0  0  0  0  0  0  0  0  0  0  0  0
   41.2830  -22.7455   41.7416 H   0  0  0  0  0  0  0  0  0  0  0  0
   38.8460  -22.7689   41.1663 H   0  0  0  0  0  0  0  0  0  0  0  0
   34.8086  -18.8647   41.5630 H   0  0  0  0  0  0  0  0  0  0  0  0
   35.7386  -19.0232   40.0344 H   0  0  0  0  0  0  0  0  0  0  0  0
   33.9605  -19.2781   40.0344 H   0  0  0  0  0  0  0  0  0  0  0  0
   32.3632  -22.0516   39.6572 H   0  0  0  0  0  0  0  0  0  0  0  0
   33.2853  -20.5634   39.0874 H   0  0  0  0  0  0  0  0  0  0  0  0
   31.8317  -23.5637   38.1492 H   0  0  0  0  0  0  0  0  0  0  0  0
   33.7252  -26.0881   35.3119 H   0  0  0  0  0  0  0  0  0  0  0  0
   31.1764  -27.7055   35.3103 H   0  0  0  0  0  0  0  0  0  0  0  0
   31.2777  -26.3724   34.1107 H   0  0  0  0  0  0  0  0  0  0  0  0
   32.5130  -27.6765   34.1107 H   0  0  0  0  0  0  0  0  0  0  0  0
   34.0681  -24.1616   34.5142 H   0  0  0  0  0  0  0  0  0  0  0  0
   35.6832  -22.3962   35.2233 H   0  0  0  0  0  0  0  0  0  0  0  0
   33.6515  -24.5691   39.5657 H   0  0  0  0  0  0  0  0  0  0  0  0
   36.4859  -26.1683   42.4150 H   0  0  0  0  0  0  0  0  0  0  0  0
   37.1825  -23.8553   43.0353 H   0  0  0  0  0  0  0  0  0  0  0  0
   40.6367  -19.6101   44.6747 H   0  0  0  0  0  0  0  0  0  0  0  0
  1  2  1  0
  2  3  1  0
  3  4  2  0
  4  5  1  0
  5  6  2  0
  6  7  1  0
  7  8  1  0
  8  9  2  0
  9 10  1  0
  9 11  1  0
 11 12  1  0
 12 13  1  0
 13 14  2  0
 14 15  1  0
 15 16  1  0
 16 17  1  0
 17 18  1  0
 17 19  1  0
 19 20  2  0
 19 21  1  0
 15 22  2  0
 22 23  1  0
 23 24  2  0
 24 25  1  0
 11 26  1  0
 26 27  2  0
 27 28  1  0
 28 29  1  0
 29 30  1  0
 30 31  1  0
 30 32  1  0
 30 33  1  0
 28 34  2  0
 34 35  1  0
 35 36  2  0
  7 37  2  0
 37 38  1  0
 38 39  1  0
 39 40  2  0
 40  3  1  0
 39  6  1  0
 36  8  1  0
 24 13  1  0
 36 26  1  0
  1 41  1  0
  1 42  1  0
  1 43  1  0
  4 44  1  0
  5 45  1  0
 10 46  1  0
 10 47  1  0
 10 48  1  0
 12 49  1  0
 12 50  1  0
 14 51  1  0
 17 52  1  6
 18 53  1  0
 18 54  1  0
 18 55  1  0
 22 56  1  0
 23 57  1  0
 27 58  1  0
 34 59  1  0
 35 60  1  0
 40 61  1  0
M  CHG  1  21  -1
M  END
>  <meeko>  (6) 
{"is_sidechain": [false], "free_energy": -9.664, "intermolecular_energy": -14.344, "internal_energy": -2.248}

$$$$
2p4y_ligand
     RDKit          3D

 61 65  0  0  0  0  0  0  0  0999 V2000
   28.1070  -28.3460   37.5800 C   0  0  0  0  0  0  0  0  0  0  0  0
   29.3020  -28.7450   36.9190 O   0  0  0  0  0  0  0  0  0  0  0  0
   30.4050  -27.9500   37.1000 C   0  0  0  0  0  0  0  0  0  0  0  0
   30.2340  -26.9410   38.0570 C   0  0  0  0  0  0  0  0  0  0  0  0
   31.2610  -26.0370   38.3670 C   0  0  0  0  0  0  0  0  0  0  0  0
   32.4830  -26.1600   37.6850 C   0  0  0  0  0  0  0  0  0  0  0  0
   33.7450  -25.5150   37.6580 C   0  0  0  0  0  0  0  0  0  0  0  0
   34.1110  -24.3640   38.4850 C   0  0  0  0  0  0  0  0  0  0  0  0
   34.1190  -24.2790   39.8670 C   0  0  0  0  0  0  0  0  0  0  0  0
   33.7300  -25.2940   40.8900 C   0  0  0  0  0  0  0  0  0  0  0  0
   34.5550  -23.0010   40.1930 N   0  0  0  0  0  0  0  0  0  0  0  0
   34.7470  -22.4990   41.5600 C   0  0  0  0  0  0  0  0  0  0  0  0
   36.1760  -22.4870   42.0480 C   0  0  0  0  0  0  0  0  0  0  0  0
   36.7980  -21.2300   42.1870 C   0  0  0  0  0  0  0  0  0  0  0  0
   38.1310  -21.1220   42.5750 C   0  0  0  0  0  0  0  0  0  0  0  0
   38.7340  -19.9050   42.7190 O   0  0  0  0  0  0  0  0  0  0  0  0
   38.8030  -19.4900   44.1100 C   0  0  2  0  0  0  0  0  0  0  0  0
   37.8260  -18.3330   44.2740 C   0  0  0  0  0  0  0  0  0  0  0  0
   40.2430  -19.0410   44.4850 C   0  0  0  0  0  0  0  0  0  0  0  0
   40.3730  -18.6210   45.6770 O   0  0  0  0  0  0  0  0  0  0  0  0
   41.1230  -19.1180   43.5790 O   0  0  0  0  0  0  0  0  0  0  0  0
   38.8640  -22.2590   42.8860 C   0  0  0  0  0  0  0  0  0  0  0  0
   38.2750  -23.5150   42.7410 C   0  0  0  0  0  0  0  0  0  0  0  0
   36.9470  -23.6310   42.3070 C   0  0  0  0  0  0  0  0  0  0  0  0
   36.3420  -25.2320   42.0790 Cl  0  0  0  0  0  0  0  0  0  0  0  0
   34.8840  -22.3070   39.0370 C   0  0  0  0  0  0  0  0  0  0  0  0
   35.4300  -21.0230   38.8450 C   0  0  0  0  0  0  0  0  0  0  0  0
   35.6340  -20.5490   37.5410 C   0  0  0  0  0  0  0  0  0  0  0  0
   36.1600  -19.2880   37.4850 O   0  0  0  0  0  0  0  0  0  0  0  0
   35.2830  -18.2160   37.2030 C   0  0  0  0  0  0  0  0  0  0  0  0
   35.9170  -17.0490   37.4560 F   0  0  0  0  0  0  0  0  0  0  0  0
   34.1780  -18.2630   37.9800 F   0  0  0  0  0  0  0  0  0  0  0  0
   34.9120  -18.2120   35.9020 F   0  0  0  0  0  0  0  0  0  0  0  0
   35.3050  -21.3510   36.4520 C   0  0  0  0  0  0  0  0  0  0  0  0
   34.7800  -22.6350   36.6470 C   0  0  0  0  0  0  0  0  0  0  0  0
   34.5680  -23.1280   37.9520 C   0  0  0  0  0  0  0  0  0  0  0  0
   34.5920  -26.1020   36.8020 N   0  0  0  0  0  0  0  0  0  0  0  0
   33.8730  -27.1380   36.2250 O   0  0  0  0  0  0  0  0  0  0  0  0
   32.6200  -27.1730   36.7540 C   0  0  0  0  0  0  0  0  0  0  0  0
   31.6200  -28.0870   36.4210 C   0  0  0  0  0  0  0  0  0  0  0  0
   28.2561  -28.3958   38.6687 H   0  0  0  0  0  0  0  0  0  0  0  0
   27.8550  -27.3150   37.2912 H   0  0  0  0  0  0  0  0  0  0  0  0
   27.2861  -29.0188   37.2912 H   0  0  0  0  0  0  0  0  0  0  0  0
   29.2694  -26.8555   38.5788 H   0  0  0  0  0  0  0  0  0  0  0  0
   31.1134  -25.2527   39.1240 H   0  0  0  0  0  0  0  0  0  0  0  0
   33.8888  -24.8796   41.8965 H   0  0  0  0  0  0  0  0  0  0  0  0
   32.6686  -25.5538   40.7637 H   0  0  0  0  0  0  0  0  0  0  0  0
   34.3459  -26.1966   40.7637 H   0  0  0  0  0  0  0  0  0  0  0  0
   34.3654  -21.4681   41.6002 H   0  0  0  0  0  0  0  0  0  0  0  0
   34.2064  -23.1949   42.2184 H   0  0  0  0  0  0  0  0  0  0  0  0
   36.2193  -20.3166   41.9851 H   0  0  0  0  0  0  0  0  0  0  0  0
   38.5428  -20.3257   44.7763 H   0  0  0  0  0  0  0  0  0  0  0  0
   37.6629  -18.1398   45.3445 H   0  0  0  0  0  0  0  0  0  0  0  0
   38.2410  -17.4324   43.7979 H   0  0  0  0  0  0  0  0  0  0  0  0
   36.8686  -18.5913   43.7979 H   0  0  0  0  0  0  0  0  0  0  0  0
   39.9004  -22.1703   43.2437 H   0  0  0  0  0  0  0  0  0  0  0  0
   38.8564  -24.4206   42.9687 H   0  0  0  0  0  0  0  0  0  0  0  0
   35.6941  -20.3974   39.7104 H   0  0  0  0  0  0  0  0  0  0  0  0
   35.4585  -20.9736   35.4302 H   0  0  0  0  0  0  0  0  0  0  0  0
   34.5317  -23.2623   35.7782 H   0  0  0  0  0  0  0  0  0  0  0  0
   31.7783  -28.8716   35.6665 H   0  0  0  0  0  0  0  0  0  0  0  0
  1  2  1  0
  2  3  1  0
  3  4  2  0
  4  5  1  0
  5  6  2  0
  6  7  1  0
  7  8  1  0
  8  9  2  0
  9 10  1  0
  9 11  1  0
 11 12  1  0
 12 13  1  0
 13 14  2  0
 14 15  1  0
 15 16  1  0
 16 17  1  0
 17 18  1  0
 17 19  1  0
 19 20  2  0
 19 21  1  0
 15 22  2  0
 22 23  1  0
 23 24  2  0
 24 25  1  0
 11 26  1  0
 26 27  2  0
 27 28  1  0
 28 29  1  0
 29 30  1  0
 30 31  1  0
 30 32  1  0
 30 33  1  0
 28 34  2  0
 34 35  1  0
 35 36  2  0
  7 37  2  0
 37 38  1  0
 38 39  1  0
 39 40  2  0
 40  3  1  0
 39  6  1  0
 36  8  1  0
 24 13  1  0
 36 26  1  0
  1 41  1  0
  1 42  1  0
  1 43  1  0
  4 44  1  0
  5 45  1  0
 10 46  1  0
 10 47  1  0
 10 48  1  0
 12 49  1  0
 12 50  1  0
 14 51  1  0
 17 52  1  1
 18 53  1  0
 18 54  1  0
 18 55  1  0
 22 56  1  0
 23 57  1  0
 27 58  1  0
 34 59  1  0
 35 60  1  0
 40 61  1  0
M  CHG  1  21  -1
M  END
>  <meeko>  (7) 
{"is_sidechain": [false], "free_energy": -9.452, "intermolecular_energy": -14.74, "internal_energy": -1.527}

$$$$
2p4y_ligand
     RDKit          3D

 61 65  0  0  0  0  0  0  0  0999 V2000
   33.8820  -30.2360   39.2390 C   0  0  0  0  0  0  0  0  0  0  0  0
   32.6370  -29.5620   39.0980 O   0  0  0  0  0  0  0  0  0  0  0  0
   32.6860  -28.2110   38.8700 C   0  0  0  0  0  0  0  0  0  0  0  0
   33.8700  -27.5980   39.3030 C   0  0  0  0  0  0  0  0  0  0  0  0
   34.0860  -26.2210   39.1480 C   0  0  0  0  0  0  0  0  0  0  0  0
   33.0760  -25.4530   38.5450 C   0  0  0  0  0  0  0  0  0  0  0  0
   32.8500  -24.0980   38.1920 C   0  0  0  0  0  0  0  0  0  0  0  0
   33.7950  -23.0060   38.4290 C   0  0  0  0  0  0  0  0  0  0  0  0
   34.5140  -22.2850   37.4900 C   0  0  0  0  0  0  0  0  0  0  0  0
   34.5640  -22.4310   36.0070 C   0  0  0  0  0  0  0  0  0  0  0  0
   35.2600  -21.3430   38.1860 N   0  0  0  0  0  0  0  0  0  0  0  0
   36.1390  -20.3410   37.5690 C   0  0  0  0  0  0  0  0  0  0  0  0
   35.4330  -19.1720   36.9240 C   0  0  0  0  0  0  0  0  0  0  0  0
   35.6120  -18.9980   35.5380 C   0  0  0  0  0  0  0  0  0  0  0  0
   35.0480  -17.9160   34.8660 C   0  0  0  0  0  0  0  0  0  0  0  0
   35.2120  -17.7480   33.5210 O   0  0  0  0  0  0  0  0  0  0  0  0
   35.8920  -16.5040   33.2040 C   0  0  2  0  0  0  0  0  0  0  0  0
   35.8850  -16.3700   31.6860 C   0  0  0  0  0  0  0  0  0  0  0  0
   37.3510  -16.5150   33.7410 C   0  0  0  0  0  0  0  0  0  0  0  0
   38.1990  -17.0440   32.9580 O   0  0  0  0  0  0  0  0  0  0  0  0
   37.5430  -16.0240   34.8910 O   0  0  0  0  0  0  0  0  0  0  0  0
   34.2470  -17.0100   35.5470 C   0  0  0  0  0  0  0  0  0  0  0  0
   34.0670  -17.1530   36.9220 C   0  0  0  0  0  0  0  0  0  0  0  0
   34.6710  -18.2150   37.6110 C   0  0  0  0  0  0  0  0  0  0  0  0
   34.4550  -18.2500   39.3240 Cl  0  0  0  0  0  0  0  0  0  0  0  0
   34.9680  -21.4190   39.5420 C   0  0  0  0  0  0  0  0  0  0  0  0
   35.4050  -20.6440   40.6330 C   0  0  0  0  0  0  0  0  0  0  0  0
   34.9690  -20.9680   41.9260 C   0  0  0  0  0  0  0  0  0  0  0  0
   35.4680  -20.1490   42.9010 O   0  0  0  0  0  0  0  0  0  0  0  0
   34.8980  -18.8630   43.0430 C   0  0  0  0  0  0  0  0  0  0  0  0
   33.6280  -18.8900   42.5780 F   0  0  0  0  0  0  0  0  0  0  0  0
   35.5800  -17.9390   42.3310 F   0  0  0  0  0  0  0  0  0  0  0  0
   34.8550  -18.4840   44.3400 F   0  0  0  0  0  0  0  0  0  0  0  0
   34.1060  -22.0430   42.1180 C   0  0  0  0  0  0  0  0  0  0  0  0
   33.6590  -22.8000   41.0280 C   0  0  0  0  0  0  0  0  0  0  0  0
   34.0870  -22.4870   39.7200 C   0  0  0  0  0  0  0  0  0  0  0  0
   31.6720  -23.9290   37.5780 N   0  0  0  0  0  0  0  0  0  0  0  0
   31.0870  -25.1860   37.5480 O   0  0  0  0  0  0  0  0  0  0  0  0
   31.9250  -26.0920   38.1210 C   0  0  0  0  0  0  0  0  0  0  0  0
   31.6780  -27.4580   38.2600 C   0  0  0  0  0  0  0  0  0  0  0  0
   34.1125  -30.3608   40.3073 H   0  0  0  0  0  0  0  0  0  0  0  0
   33.8205  -31.2240   38.7593 H   0  0  0  0  0  0  0  0  0  0  0  0
   34.6756  -29.6443   38.7593 H   0  0  0  0  0  0  0  0  0  0  0  0
   34.6496  -28.2128   39.7765 H   0  0  0  0  0  0  0  0  0  0  0  0
   35.0218  -25.7545   39.4896 H   0  0  0  0  0  0  0  0  0  0  0  0
   34.9105  -23.4428   35.7496 H   0  0  0  0  0  0  0  0  0  0  0  0
   33.5595  -22.2700   35.5886 H   0  0  0  0  0  0  0  0  0  0  0  0
   35.2589  -21.6880   35.5886 H   0  0  0  0  0  0  0  0  0  0  0  0
   36.8053  -19.9465   38.3503 H   0  0  0  0  0  0  0  0  0  0  0  0
   36.6698  -20.8607   36.7578 H   0  0  0  0  0  0  0  0  0  0  0  0
   36.2088  -19.7308   34.9751 H   0  0  0  0  0  0  0  0  0  0  0  0
   35.3810  -15.6533   33.6785 H   0  0  0  0  0  0  0  0  0  0  0  0
   35.8294  -15.3061   31.4121 H   0  0  0  0  0  0  0  0  0  0  0  0
   36.8072  -16.8067   31.2751 H   0  0  0  0  0  0  0  0  0  0  0  0
   35.0133  -16.9004   31.2751 H   0  0  0  0  0  0  0  0  0  0  0  0
   33.7583  -16.1860   35.0064 H   0  0  0  0  0  0  0  0  0  0  0  0
   33.4472  -16.4282   37.4702 H   0  0  0  0  0  0  0  0  0  0  0  0
   36.0822  -19.7921   40.4728 H   0  0  0  0  0  0  0  0  0  0  0  0
   33.7724  -22.3000   43.1342 H   0  0  0  0  0  0  0  0  0  0  0  0
   32.9711  -23.6425   41.1920 H   0  0  0  0  0  0  0  0  0  0  0  0
   30.7421  -27.9173   37.9091 H   0  0  0  0  0  0  0  0  0  0  0  0
  1  2  1  0
  2  3  1  0
  3  4  2  0
  4  5  1  0
  5  6  2  0
  6  7  1  0
  7  8  1  0
  8  9  2  0
  9 10  1  0
  9 11  1  0
 11 12  1  0
 12 13  1  0
 13 14  2  0
 14 15  1  0
 15 16  1  0
 16 17  1  0
 17 18  1  0
 17 19  1  0
 19 20  2  0
 19 21  1  0
 15 22  2  0
 22 23  1  0
 23 24  2  0
 24 25  1  0
 11 26  1  0
 26 27  2  0
 27 28  1  0
 28 29  1  0
 29 30  1  0
 30 31  1  0
 30 32  1  0
 30 33  1  0
 28 34  2  0
 34 35  1  0
 35 36  2  0
  7 37  2  0
 37 38  1  0
 38 39  1  0
 39 40  2  0
 40  3  1  0
 39  6  1  0
 36  8  1  0
 24 13  1  0
 36 26  1  0
  1 41  1  0
  1 42  1  0
  1 43  1  0
  4 44  1  0
  5 45  1  0
 10 46  1  0
 10 47  1  0
 10 48  1  0
 12 49  1  0
 12 50  1  0
 14 51  1  0
 17 52  1  1
 18 53  1  0
 18 54  1  0
 18 55  1  0
 22 56  1  0
 23 57  1  0
 27 58  1  0
 34 59  1  0
 35 60  1  0
 40 61  1  0
M  CHG  1  21  -1
M  END
>  <meeko>  (8) 
{"is_sidechain": [false], "free_energy": -9.45, "intermolecular_energy": -14.709, "internal_energy": -1.555}

$$$$
2p4y_ligand
     RDKit          3D

 61 65  0  0  0  0  0  0  0  0999 V2000
   40.0940  -19.1940   44.9410 C   0  0  0  0  0  0  0  0  0  0  0  0
   38.7840  -19.6660   45.2360 O   0  0  0  0  0  0  0  0  0  0  0  0
   37.8920  -19.7100   44.1950 C   0  0  0  0  0  0  0  0  0  0  0  0
   38.3970  -20.3090   43.0320 C   0  0  0  0  0  0  0  0  0  0  0  0
   37.6190  -20.4380   41.8720 C   0  0  0  0  0  0  0  0  0  0  0  0
   36.3050  -19.9410   41.8940 C   0  0  0  0  0  0  0  0  0  0  0  0
   35.1980  -19.8460   41.0130 C   0  0  0  0  0  0  0  0  0  0  0  0
   35.1870  -20.3310   39.6330 C   0  0  0  0  0  0  0  0  0  0  0  0
   35.1890  -21.6450   39.1940 C   0  0  0  0  0  0  0  0  0  0  0  0
   35.2370  -22.9140   39.9750 C   0  0  0  0  0  0  0  0  0  0  0  0
   35.1560  -21.6080   37.8050 N   0  0  0  0  0  0  0  0  0  0  0  0
   35.1080  -22.7890   36.9320 C   0  0  0  0  0  0  0  0  0  0  0  0
   33.9140  -23.6910   37.1320 C   0  0  0  0  0  0  0  0  0  0  0  0
   34.1710  -25.0590   37.3520 C   0  0  0  0  0  0  0  0  0  0  0  0
   33.1320  -25.9760   37.4900 C   0  0  0  0  0  0  0  0  0  0  0  0
   33.3770  -27.3020   37.7110 O   0  0  0  0  0  0  0  0  0  0  0  0
   32.3620  -27.9130   38.5520 C   0  0  2  0  0  0  0  0  0  0  0  0
   32.9820  -28.0940   39.9320 C   0  0  0  0  0  0  0  0  0  0  0  0
   31.9140  -29.2840   37.9740 C   0  0  0  0  0  0  0  0  0  0  0  0
   32.4710  -30.2920   38.5090 O   0  0  0  0  0  0  0  0  0  0  0  0
   31.0690  -29.2610   37.0330 O   0  0  0  0  0  0  0  0  0  0  0  0
   31.8120  -25.5490   37.4650 C   0  0  0  0  0  0  0  0  0  0  0  0
   31.5330  -24.2020   37.2330 C   0  0  0  0  0  0  0  0  0  0  0  0
   32.5740  -23.2820   37.0490 C   0  0  0  0  0  0  0  0  0  0  0  0
   32.1180  -21.6570   36.6830 Cl  0  0  0  0  0  0  0  0  0  0  0  0
   35.0680  -20.2930   37.3700 C   0  0  0  0  0  0  0  0  0  0  0  0
   34.9410  -19.7450   36.0800 C   0  0  0  0  0  0  0  0  0  0  0  0
   34.9070  -18.3520   35.9230 C   0  0  0  0  0  0  0  0  0  0  0  0
   34.7890  -17.9430   34.6230 O   0  0  0  0  0  0  0  0  0  0  0  0
   35.4570  -16.7580   34.2380 C   0  0  0  0  0  0  0  0  0  0  0  0
   34.7620  -15.6910   34.6930 F   0  0  0  0  0  0  0  0  0  0  0  0
   35.5410  -16.6540   32.8930 F   0  0  0  0  0  0  0  0  0  0  0  0
   36.7000  -16.6980   34.7670 F   0  0  0  0  0  0  0  0  0  0  0  0
   34.9910  -17.5260   37.0400 C   0  0  0  0  0  0  0  0  0  0  0  0
   35.0990  -18.0750   38.3240 C   0  0  0  0  0  0  0  0  0  0  0  0
   35.1340  -19.4740   38.5000 C   0  0  0  0  0  0  0  0  0  0  0  0
   34.1340  -19.2840   41.6010 N   0  0  0  0  0  0  0  0  0  0  0  0
   34.5460  -18.9700   42.8880 O   0  0  0  0  0  0  0  0  0  0  0  0
   35.8370  -19.3640   43.0610 C   0  0  0  0  0  0  0  0  0  0  0  0
   36.5830  -19.2200   44.2310 C   0  0  0  0  0  0  0  0  0  0  0  0
   40.6337  -18.9995   45.8796 H   0  0  0  0  0  0  0  0  0  0  0  0
   40.6348  -19.9538   44.3577 H   0  0  0  0  0  0  0  0  0  0  0  0
   40.0259  -18.2639   44.3577 H   0  0  0  0  0  0  0  0  0  0  0  0
   39.4298  -20.6875   43.0293 H   0  0  0  0  0  0  0  0  0  0  0  0
   38.0268  -20.9157   40.9689 H   0  0  0  0  0  0  0  0  0  0  0  0
   35.2283  -22.6832   41.0505 H   0  0  0  0  0  0  0  0  0  0  0  0
   34.3616  -23.5315   39.7254 H   0  0  0  0  0  0  0  0  0  0  0  0
   36.1566  -23.4636   39.7254 H   0  0  0  0  0  0  0  0  0  0  0  0
   35.0995  -22.4403   35.8888 H   0  0  0  0  0  0  0  0  0  0  0  0
   35.9914  -23.3925   37.1878 H   0  0  0  0  0  0  0  0  0  0  0  0
   35.2118  -25.4091   37.4159 H   0  0  0  0  0  0  0  0  0  0  0  0
   31.4662  -27.2766   38.6015 H   0  0  0  0  0  0  0  0  0  0  0  0
   32.2295  -27.8743   40.7037 H   0  0  0  0  0  0  0  0  0  0  0  0
   33.3303  -29.1313   40.0443 H   0  0  0  0  0  0  0  0  0  0  0  0
   33.8337  -27.4070   40.0443 H   0  0  0  0  0  0  0  0  0  0  0  0
   30.9934  -26.2658   37.6266 H   0  0  0  0  0  0  0  0  0  0  0  0
   30.4884  -23.8595   37.1942 H   0  0  0  0  0  0  0  0  0  0  0  0
   34.8690  -20.4039   35.2022 H   0  0  0  0  0  0  0  0  0  0  0  0
   34.9724  -16.4335   36.9134 H   0  0  0  0  0  0  0  0  0  0  0  0
   35.1568  -17.4117   39.1996 H   0  0  0  0  0  0  0  0  0  0  0  0
   36.1646  -18.7472   45.1318 H   0  0  0  0  0  0  0  0  0  0  0  0
  1  2  1  0
  2  3  1  0
  3  4  2  0
  4  5  1  0
  5  6  2  0
  6  7  1  0
  7  8  1  0
  8  9  2  0
  9 10  1  0
  9 11  1  0
 11 12  1  0
 12 13  1  0
 13 14  2  0
 14 15  1  0
 15 16  1  0
 16 17  1  0
 17 18  1  0
 17 19  1  0
 19 20  2  0
 19 21  1  0
 15 22  2  0
 22 23  1  0
 23 24  2  0
 24 25  1  0
 11 26  1  0
 26 27  2  0
 27 28  1  0
 28 29  1  0
 29 30  1  0
 30 31  1  0
 30 32  1  0
 30 33  1  0
 28 34  2  0
 34 35  1  0
 35 36  2  0
  7 37  2  0
 37 38  1  0
 38 39  1  0
 39 40  2  0
 40  3  1  0
 39  6  1  0
 36  8  1  0
 24 13  1  0
 36 26  1  0
  1 41  1  0
  1 42  1  0
  1 43  1  0
  4 44  1  0
  5 45  1  0
 10 46  1  0
 10 47  1  0
 10 48  1  0
 12 49  1  0
 12 50  1  0
 14 51  1  0
 17 52  1  1
 18 53  1  0
 18 54  1  0
 18 55  1  0
 22 56  1  0
 23 57  1  0
 27 58  1  0
 34 59  1  0
 35 60  1  0
 40 61  1  0
M  CHG  1  21  -1
M  END
>  <meeko>  (9) 
{"is_sidechain": [false], "free_energy": -9.315, "intermolecular_energy": -14.436, "internal_energy": -1.622}

$$$$
