3gy4_ligand
     RDKit          3D

 20 20  0  0  0  0  0  0  0  0999 V2000
   -1.4150   12.4190   14.9630 N   0  0  0  0  0  0  0  0  0  0  0  0
   -2.0600   13.4970   15.3530 C   0  0  0  0  0  0  0  0  0  0  0  0
   -3.1600   13.8940   14.7520 N   0  0  0  0  0  0  0  0  0  0  0  0
   -1.5420   14.2710   16.4860 C   0  0  0  0  0  0  0  0  0  0  0  0
   -1.6660   15.6670   16.5140 C   0  0  0  0  0  0  0  0  0  0  0  0
   -1.1560   16.4040   17.5890 C   0  0  0  0  0  0  0  0  0  0  0  0
   -0.5540   15.7650   18.6730 C   0  0  0  0  0  0  0  0  0  0  0  0
    0.0710   16.5110   19.6710 N   0  0  0  0  0  0  0  0  0  0  0  0
   -0.3870   14.3800   18.6230 C   0  0  0  0  0  0  0  0  0  0  0  0
   -0.8910   13.6340   17.5520 C   0  0  0  0  0  0  0  0  0  0  0  0
   -0.5500   12.1550   15.4260 H   0  0  0  0  0  0  0  0  0  0  0  0
   -1.7240   11.8470   14.1890 H   0  0  0  0  0  0  0  0  0  0  0  0
   -3.5640   13.4000   13.9690 H   0  0  0  0  0  0  0  0  0  0  0  0
   -3.6490   14.7180   15.0900 H   0  0  0  0  0  0  0  0  0  0  0  0
   -2.1679   16.1872   15.6848 H   0  0  0  0  0  0  0  0  0  0  0  0
   -1.2309   17.5014   17.5789 H   0  0  0  0  0  0  0  0  0  0  0  0
   -0.1290   17.5070   19.6580 H   0  0  0  0  0  0  0  0  0  0  0  0
    0.0070   16.1240   20.6080 H   0  0  0  0  0  0  0  0  0  0  0  0
    0.1480   13.8682   19.4365 H   0  0  0  0  0  0  0  0  0  0  0  0
   -0.7757   12.5401   17.5462 H   0  0  0  0  0  0  0  0  0  0  0  0
  1  2  1  0
  2  3  2  0
  2  4  1  0
  4  5  2  0
  5  6  1  0
  6  7  2  0
  7  8  1  0
  7  9  1  0
  9 10  2  0
 10  4  1  0
  1 11  1  0
  1 12  1  0
  3 13  1  0
  3 14  1  0
  5 15  1  0
  6 16  1  0
  8 17  1  0
  8 18  1  0
  9 19  1  0
 10 20  1  0
M  CHG  1   3   1
M  END
>  <meeko>  (1) 
{"is_sidechain": [false], "free_energy": -6.333, "intermolecular_energy": -6.888, "internal_energy": -0.041}

$$$$
3gy4_ligand
     RDKit          3D

 20 20  0  0  0  0  0  0  0  0999 V2000
   -2.9630   13.8660   14.5860 N   0  0  0  0  0  0  0  0  0  0  0  0
   -2.0150   13.4730   15.4090 C   0  0  0  0  0  0  0  0  0  0  0  0
   -1.3060   12.3910   15.1740 N   0  0  0  0  0  0  0  0  0  0  0  0
   -1.7400   14.2630   16.6150 C   0  0  0  0  0  0  0  0  0  0  0  0
   -0.8160   13.8140   17.5670 C   0  0  0  0  0  0  0  0  0  0  0  0
   -0.5690   14.5620   18.7240 C   0  0  0  0  0  0  0  0  0  0  0  0
   -1.2010   15.7880   18.9320 C   0  0  0  0  0  0  0  0  0  0  0  0
   -1.0530   16.4580   20.1460 N   0  0  0  0  0  0  0  0  0  0  0  0
   -2.1560   16.2120   18.0080 C   0  0  0  0  0  0  0  0  0  0  0  0
   -2.4140   15.4700   16.8500 C   0  0  0  0  0  0  0  0  0  0  0  0
   -3.5150   14.6890   14.8100 H   0  0  0  0  0  0  0  0  0  0  0  0
   -3.1970   13.3620   13.7410 H   0  0  0  0  0  0  0  0  0  0  0  0
   -1.4500   11.8100   14.3600 H   0  0  0  0  0  0  0  0  0  0  0  0
   -0.5660   12.1250   15.8160 H   0  0  0  0  0  0  0  0  0  0  0  0
   -0.2807   12.8669   17.4043 H   0  0  0  0  0  0  0  0  0  0  0  0
    0.1327   14.1780   19.4791 H   0  0  0  0  0  0  0  0  0  0  0  0
   -0.1380   16.3760   20.5790 H   0  0  0  0  0  0  0  0  0  0  0  0
   -1.3940   17.4150   20.1580 H   0  0  0  0  0  0  0  0  0  0  0  0
   -2.7138   17.1421   18.1921 H   0  0  0  0  0  0  0  0  0  0  0  0
   -3.1503   15.8359   16.1193 H   0  0  0  0  0  0  0  0  0  0  0  0
  1  2  1  0
  2  3  2  0
  2  4  1  0
  4  5  2  0
  5  6  1  0
  6  7  2  0
  7  8  1  0
  7  9  1  0
  9 10  2  0
 10  4  1  0
  1 11  1  0
  1 12  1  0
  3 13  1  0
  3 14  1  0
  5 15  1  0
  6 16  1  0
  8 17  1  0
  8 18  1  0
  9 19  1  0
 10 20  1  0
M  CHG  1   3   1
M  END
>  <meeko>  (2) 
{"is_sidechain": [false], "free_energy": -6.225, "intermolecular_energy": -6.766, "internal_energy": -0.046}

$$$$
3gy4_ligand
     RDKit          3D

 20 20  0  0  0  0  0  0  0  0999 V2000
   -1.8100   17.1430   19.5420 N   0  0  0  0  0  0  0  0  0  0  0  0
   -0.8400   16.3270   19.1900 C   0  0  0  0  0  0  0  0  0  0  0  0
    0.3420   16.3790   19.7630 N   0  0  0  0  0  0  0  0  0  0  0  0
   -1.0840   15.3370   18.1350 C   0  0  0  0  0  0  0  0  0  0  0  0
   -1.9750   15.6120   17.0890 C   0  0  0  0  0  0  0  0  0  0  0  0
   -2.2170   14.6590   16.0940 C   0  0  0  0  0  0  0  0  0  0  0  0
   -1.5480   13.4350   16.0970 C   0  0  0  0  0  0  0  0  0  0  0  0
   -1.8960   12.4400   15.1830 N   0  0  0  0  0  0  0  0  0  0  0  0
   -0.6990   13.1410   17.1650 C   0  0  0  0  0  0  0  0  0  0  0  0
   -0.4510   14.0860   18.1660 C   0  0  0  0  0  0  0  0  0  0  0  0
   -2.7030   17.1000   19.0590 H   0  0  0  0  0  0  0  0  0  0  0  0
   -1.7010   17.8450   20.2610 H   0  0  0  0  0  0  0  0  0  0  0  0
    0.5660   17.0380   20.4950 H   0  0  0  0  0  0  0  0  0  0  0  0
    1.0650   15.7210   19.4860 H   0  0  0  0  0  0  0  0  0  0  0  0
   -2.4879   16.5843   17.0500 H   0  0  0  0  0  0  0  0  0  0  0  0
   -2.9446   14.8778   15.2986 H   0  0  0  0  0  0  0  0  0  0  0  0
   -1.1270   11.8590   14.8610 H   0  0  0  0  0  0  0  0  0  0  0  0
   -2.7110   11.8880   15.4320 H   0  0  0  0  0  0  0  0  0  0  0  0
   -0.2185   12.1530   17.2203 H   0  0  0  0  0  0  0  0  0  0  0  0
    0.2453   13.8463   18.9831 H   0  0  0  0  0  0  0  0  0  0  0  0
  1  2  1  0
  2  3  2  0
  2  4  1  0
  4  5  2  0
  5  6  1  0
  6  7  2  0
  7  8  1  0
  7  9  1  0
  9 10  2  0
 10  4  1  0
  1 11  1  0
  1 12  1  0
  3 13  1  0
  3 14  1  0
  5 15  1  0
  6 16  1  0
  8 17  1  0
  8 18  1  0
  9 19  1  0
 10 20  1  0
M  CHG  1   3   1
M  END
>  <meeko>  (3) 
{"is_sidechain": [false], "free_energy": -5.852, "intermolecular_energy": -6.365, "internal_energy": -0.042}

$$$$
3gy4_ligand
     RDKit          3D

 20 20  0  0  0  0  0  0  0  0999 V2000
   -1.3660   17.6560   19.1660 N   0  0  0  0  0  0  0  0  0  0  0  0
   -0.5720   16.6150   19.0380 C   0  0  0  0  0  0  0  0  0  0  0  0
    0.5330   16.5040   19.7420 N   0  0  0  0  0  0  0  0  0  0  0  0
   -0.9290   15.5520   18.0920 C   0  0  0  0  0  0  0  0  0  0  0  0
   -0.4990   14.2350   18.3020 C   0  0  0  0  0  0  0  0  0  0  0  0
   -0.8280   13.2270   17.3890 C   0  0  0  0  0  0  0  0  0  0  0  0
   -1.6250   13.5010   16.2770 C   0  0  0  0  0  0  0  0  0  0  0  0
   -1.8330   12.5250   15.3030 N   0  0  0  0  0  0  0  0  0  0  0  0
   -2.0120   14.8210   16.0420 C   0  0  0  0  0  0  0  0  0  0  0  0
   -1.6860   15.8360   16.9470 C   0  0  0  0  0  0  0  0  0  0  0  0
   -2.1970   17.7280   18.5850 H   0  0  0  0  0  0  0  0  0  0  0  0
   -1.1720   18.4170   19.8000 H   0  0  0  0  0  0  0  0  0  0  0  0
    0.8280   17.2030   20.4100 H   0  0  0  0  0  0  0  0  0  0  0  0
    1.1150   15.6780   19.6390 H   0  0  0  0  0  0  0  0  0  0  0  0
    0.1015   13.9918   19.1910 H   0  0  0  0  0  0  0  0  0  0  0  0
   -0.4535   12.2053   17.5500 H   0  0  0  0  0  0  0  0  0  0  0  0
   -1.3490   12.6790   14.4230 H   0  0  0  0  0  0  0  0  0  0  0  0
   -1.7410   11.5650   15.6230 H   0  0  0  0  0  0  0  0  0  0  0  0
   -2.5809   15.0663   15.1330 H   0  0  0  0  0  0  0  0  0  0  0  0
   -2.0262   16.8650   16.7589 H   0  0  0  0  0  0  0  0  0  0  0  0
  1  2  1  0
  2  3  2  0
  2  4  1  0
  4  5  2  0
  5  6  1  0
  6  7  2  0
  7  8  1  0
  7  9  1  0
  9 10  2  0
 10  4  1  0
  1 11  1  0
  1 12  1  0
  3 13  1  0
  3 14  1  0
  5 15  1  0
  6 16  1  0
  8 17  1  0
  8 18  1  0
  9 19  1  0
 10 20  1  0
M  CHG  1   3   1
M  END
>  <meeko>  (4) 
{"is_sidechain": [false], "free_energy": -5.839, "intermolecular_energy": -6.349, "internal_energy": -0.043}

$$$$
3gy4_ligand
     RDKit          3D

 20 20  0  0  0  0  0  0  0  0999 V2000
   -0.0760   11.9900   16.0330 N   0  0  0  0  0  0  0  0  0  0  0  0
   -1.1400   12.7450   15.8620 C   0  0  0  0  0  0  0  0  0  0  0  0
   -2.0390   12.4640   14.9440 N   0  0  0  0  0  0  0  0  0  0  0  0
   -1.3290   13.9220   16.7160 C   0  0  0  0  0  0  0  0  0  0  0  0
   -0.7580   13.9760   17.9950 C   0  0  0  0  0  0  0  0  0  0  0  0
   -0.9530   15.0940   18.8130 C   0  0  0  0  0  0  0  0  0  0  0  0
   -1.6810   16.1950   18.3590 C   0  0  0  0  0  0  0  0  0  0  0  0
   -1.9860   17.2430   19.2270 N   0  0  0  0  0  0  0  0  0  0  0  0
   -2.2900   16.1210   17.1060 C   0  0  0  0  0  0  0  0  0  0  0  0
   -2.1030   15.0070   16.2810 C   0  0  0  0  0  0  0  0  0  0  0  0
    0.6180   12.2500   16.7290 H   0  0  0  0  0  0  0  0  0  0  0  0
    0.1070   11.1680   15.4750 H   0  0  0  0  0  0  0  0  0  0  0  0
   -1.9630   11.6660   14.3290 H   0  0  0  0  0  0  0  0  0  0  0  0
   -2.8620   13.0520   14.8500 H   0  0  0  0  0  0  0  0  0  0  0  0
   -0.1520   13.1329   18.3583 H   0  0  0  0  0  0  0  0  0  0  0  0
   -0.5271   15.1056   19.8271 H   0  0  0  0  0  0  0  0  0  0  0  0
   -1.9370   17.0150   20.2160 H   0  0  0  0  0  0  0  0  0  0  0  0
   -1.5300   18.1260   19.0180 H   0  0  0  0  0  0  0  0  0  0  0  0
   -2.9259   16.9501   16.7621 H   0  0  0  0  0  0  0  0  0  0  0  0
   -2.5666   14.9821   15.2838 H   0  0  0  0  0  0  0  0  0  0  0  0
  1  2  1  0
  2  3  2  0
  2  4  1  0
  4  5  2  0
  5  6  1  0
  6  7  2  0
  7  8  1  0
  7  9  1  0
  9 10  2  0
 10  4  1  0
  1 11  1  0
  1 12  1  0
  3 13  1  0
  3 14  1  0
  5 15  1  0
  6 16  1  0
  8 17  1  0
  8 18  1  0
  9 19  1  0
 10 20  1  0
M  CHG  1   3   1
M  END
>  <meeko>  (5) 
{"is_sidechain": [false], "free_energy": -5.727, "intermolecular_energy": -6.227, "internal_energy": -0.043}

$$$$
3gy4_ligand
     RDKit          3D

 20 20  0  0  0  0  0  0  0  0999 V2000
   -1.5720   15.9470   20.1990 N   0  0  0  0  0  0  0  0  0  0  0  0
   -0.7080   15.8750   19.2100 C   0  0  0  0  0  0  0  0  0  0  0  0
    0.4810   16.4310   19.2950 N   0  0  0  0  0  0  0  0  0  0  0  0
   -1.0770   15.1550   17.9860 C   0  0  0  0  0  0  0  0  0  0  0  0
   -1.7390   15.8160   16.9420 C   0  0  0  0  0  0  0  0  0  0  0  0
   -2.1050   15.1230   15.7830 C   0  0  0  0  0  0  0  0  0  0  0  0
   -1.7810   13.7750   15.6220 C   0  0  0  0  0  0  0  0  0  0  0  0
   -2.2680   13.0600   14.5290 N   0  0  0  0  0  0  0  0  0  0  0  0
   -1.1670   13.1060   16.6810 C   0  0  0  0  0  0  0  0  0  0  0  0
   -0.7990   13.7890   17.8460 C   0  0  0  0  0  0  0  0  0  0  0  0
   -2.4940   15.5350   20.0920 H   0  0  0  0  0  0  0  0  0  0  0  0
   -1.3730   16.4290   21.0650 H   0  0  0  0  0  0  0  0  0  0  0  0
    0.7910   16.9370   20.1130 H   0  0  0  0  0  0  0  0  0  0  0  0
    1.1360   16.3400   18.5240 H   0  0  0  0  0  0  0  0  0  0  0  0
   -1.9723   16.8870   17.0346 H   0  0  0  0  0  0  0  0  0  0  0  0
   -2.6554   15.6475   14.9881 H   0  0  0  0  0  0  0  0  0  0  0  0
   -2.5770   12.1140   14.7310 H   0  0  0  0  0  0  0  0  0  0  0  0
   -2.9320   13.5590   13.9440 H   0  0  0  0  0  0  0  0  0  0  0  0
   -0.9694   12.0270   16.5994 H   0  0  0  0  0  0  0  0  0  0  0  0
   -0.2881   13.2496   18.6572 H   0  0  0  0  0  0  0  0  0  0  0  0
  1  2  1  0
  2  3  2  0
  2  4  1  0
  4  5  2  0
  5  6  1  0
  6  7  2  0
  7  8  1  0
  7  9  1  0
  9 10  2  0
 10  4  1  0
  1 11  1  0
  1 12  1  0
  3 13  1  0
  3 14  1  0
  5 15  1  0
  6 16  1  0
  8 17  1  0
  8 18  1  0
  9 19  1  0
 10 20  1  0
M  CHG  1   3   1
M  END
>  <meeko>  (6) 
{"is_sidechain": [false], "free_energy": -5.473, "intermolecular_energy": -5.963, "internal_energy": -0.031}

$$$$
3gy4_ligand
     RDKit          3D

 20 20  0  0  0  0  0  0  0  0999 V2000
   -2.2430   17.3520   19.0710 N   0  0  0  0  0  0  0  0  0  0  0  0
   -2.5350   16.8390   17.8960 C   0  0  0  0  0  0  0  0  0  0  0  0
   -3.3570   17.4460   17.0680 N   0  0  0  0  0  0  0  0  0  0  0  0
   -1.9280   15.5640   17.4990 C   0  0  0  0  0  0  0  0  0  0  0  0
   -0.9850   14.9350   18.3240 C   0  0  0  0  0  0  0  0  0  0  0  0
   -0.3960   13.7270   17.9350 C   0  0  0  0  0  0  0  0  0  0  0  0
   -0.7660   13.1010   16.7440 C   0  0  0  0  0  0  0  0  0  0  0  0
   -0.0780   11.9730   16.2990 N   0  0  0  0  0  0  0  0  0  0  0  0
   -1.6680   13.7510   15.9010 C   0  0  0  0  0  0  0  0  0  0  0  0
   -2.2600   14.9610   16.2780 C   0  0  0  0  0  0  0  0  0  0  0  0
   -1.6290   16.8450   19.7030 H   0  0  0  0  0  0  0  0  0  0  0  0
   -2.6300   18.2260   19.3980 H   0  0  0  0  0  0  0  0  0  0  0  0
   -3.8020   18.3260   17.2860 H   0  0  0  0  0  0  0  0  0  0  0  0
   -3.5470   17.0370   16.1570 H   0  0  0  0  0  0  0  0  0  0  0  0
   -0.7063   15.3944   19.2838 H   0  0  0  0  0  0  0  0  0  0  0  0
    0.3688   13.2647   18.5764 H   0  0  0  0  0  0  0  0  0  0  0  0
    0.8830   12.1350   16.0120 H   0  0  0  0  0  0  0  0  0  0  0  0
   -0.1630   11.1510   16.8900 H   0  0  0  0  0  0  0  0  0  0  0  0
   -1.9170   13.3058   14.9264 H   0  0  0  0  0  0  0  0  0  0  0  0
   -2.9910   15.4425   15.6118 H   0  0  0  0  0  0  0  0  0  0  0  0
  1  2  1  0
  2  3  2  0
  2  4  1  0
  4  5  2  0
  5  6  1  0
  6  7  2  0
  7  8  1  0
  7  9  1  0
  9 10  2  0
 10  4  1  0
  1 11  1  0
  1 12  1  0
  3 13  1  0
  3 14  1  0
  5 15  1  0
  6 16  1  0
  8 17  1  0
  8 18  1  0
  9 19  1  0
 10 20  1  0
M  CHG  1   3   1
M  END
>  <meeko>  (7) 
{"is_sidechain": [false], "free_energy": -5.081, "intermolecular_energy": -5.522, "internal_energy": -0.046}

$$$$
3gy4_ligand
     RDKit          3D

 20 20  0  0  0  0  0  0  0  0999 V2000
    0.6520   18.6890   20.9300 N   0  0  0  0  0  0  0  0  0  0  0  0
    0.9770   17.9970   19.8590 C   0  0  0  0  0  0  0  0  0  0  0  0
    2.2300   17.8550   19.4880 N   0  0  0  0  0  0  0  0  0  0  0  0
   -0.0830   17.3660   19.0650 C   0  0  0  0  0  0  0  0  0  0  0  0
   -0.1800   15.9700   18.9840 C   0  0  0  0  0  0  0  0  0  0  0  0
   -1.1820   15.3720   18.2130 C   0  0  0  0  0  0  0  0  0  0  0  0
   -2.1300   16.1470   17.5440 C   0  0  0  0  0  0  0  0  0  0  0  0
   -3.0380   15.5500   16.6700 N   0  0  0  0  0  0  0  0  0  0  0  0
   -2.0040   17.5360   17.5840 C   0  0  0  0  0  0  0  0  0  0  0  0
   -1.0040   18.1450   18.3500 C   0  0  0  0  0  0  0  0  0  0  0  0
   -0.3280   18.8070   21.1740 H   0  0  0  0  0  0  0  0  0  0  0  0
    1.3380   19.1450   21.5150 H   0  0  0  0  0  0  0  0  0  0  0  0
    3.0010   18.2650   19.9960 H   0  0  0  0  0  0  0  0  0  0  0  0
    2.4520   17.2970   18.6690 H   0  0  0  0  0  0  0  0  0  0  0  0
    0.5372   15.3402   19.5308 H   0  0  0  0  0  0  0  0  0  0  0  0
   -1.2233   14.2757   18.1329 H   0  0  0  0  0  0  0  0  0  0  0  0
   -3.8970   15.2170   17.0980 H   0  0  0  0  0  0  0  0  0  0  0  0
   -3.2150   16.0620   15.8110 H   0  0  0  0  0  0  0  0  0  0  0  0
   -2.7003   18.1608   17.0054 H   0  0  0  0  0  0  0  0  0  0  0  0
   -0.9399   19.2423   18.3916 H   0  0  0  0  0  0  0  0  0  0  0  0
  1  2  1  0
  2  3  2  0
  2  4  1  0
  4  5  2  0
  5  6  1  0
  6  7  2  0
  7  8  1  0
  7  9  1  0
  9 10  2  0
 10  4  1  0
  1 11  1  0
  1 12  1  0
  3 13  1  0
  3 14  1  0
  5 15  1  0
  6 16  1  0
  8 17  1  0
  8 18  1  0
  9 19  1  0
 10 20  1  0
M  CHG  1   3   1
M  END
>  <meeko>  (8) 
{"is_sidechain": [false], "free_energy": -3.748, "intermolecular_energy": -4.085, "internal_energy": -0.033}

$$$$
3gy4_ligand
     RDKit          3D

 20 20  0  0  0  0  0  0  0  0999 V2000
   -1.5890   12.3300   18.3640 N   0  0  0  0  0  0  0  0  0  0  0  0
   -1.0990   13.0620   17.3870 C   0  0  0  0  0  0  0  0  0  0  0  0
   -0.5230   12.5140   16.3410 N   0  0  0  0  0  0  0  0  0  0  0  0
   -1.2000   14.5240   17.4670 C   0  0  0  0  0  0  0  0  0  0  0  0
   -1.9230   15.2420   16.5050 C   0  0  0  0  0  0  0  0  0  0  0  0
   -2.0040   16.6370   16.5740 C   0  0  0  0  0  0  0  0  0  0  0  0
   -1.4080   17.3380   17.6230 C   0  0  0  0  0  0  0  0  0  0  0  0
   -1.3770   18.7320   17.6100 N   0  0  0  0  0  0  0  0  0  0  0  0
   -0.6480   16.6270   18.5530 C   0  0  0  0  0  0  0  0  0  0  0  0
   -0.5570   15.2330   18.4910 C   0  0  0  0  0  0  0  0  0  0  0  0
   -2.0000   12.7840   19.1750 H   0  0  0  0  0  0  0  0  0  0  0  0
   -1.5470   11.3200   18.3640 H   0  0  0  0  0  0  0  0  0  0  0  0
   -0.4260   11.5140   16.2310 H   0  0  0  0  0  0  0  0  0  0  0  0
   -0.1730   13.1030   15.5910 H   0  0  0  0  0  0  0  0  0  0  0  0
   -2.4304   14.7051   15.6900 H   0  0  0  0  0  0  0  0  0  0  0  0
   -2.5448   17.1886   15.7908 H   0  0  0  0  0  0  0  0  0  0  0  0
   -2.2110   19.1880   17.9690 H   0  0  0  0  0  0  0  0  0  0  0  0
   -0.5280   19.1510   17.9780 H   0  0  0  0  0  0  0  0  0  0  0  0
   -0.1132   17.1707   19.3457 H   0  0  0  0  0  0  0  0  0  0  0  0
    0.0231   14.6891   19.2510 H   0  0  0  0  0  0  0  0  0  0  0  0
  1  2  1  0
  2  3  2  0
  2  4  1  0
  4  5  2  0
  5  6  1  0
  6  7  2  0
  7  8  1  0
  7  9  1  0
  9 10  2  0
 10  4  1  0
  1 11  1  0
  1 12  1  0
  3 13  1  0
  3 14  1  0
  5 15  1  0
  6 16  1  0
  8 17  1  0
  8 18  1  0
  9 19  1  0
 10 20  1  0
M  CHG  1   3   1
M  END
>  <meeko>  (9) 
{"is_sidechain": [false], "free_energy": -3.722, "intermolecular_energy": -4.055, "internal_energy": -0.034}

$$$$
