3wz8_ligand
     RDKit          3D

 58 61  0  0  0  0  0  0  0  0999 V2000
   22.8210    3.0970   55.5550 O   0  0  0  0  0  0  0  0  0  0  0  0
   22.6550    2.9860   56.7650 C   0  0  0  0  0  0  0  0  0  0  0  0
   22.1390    1.6820   57.3400 C   0  0  0  0  0  0  0  0  0  0  0  0
   22.5060    1.5810   58.8140 C   0  0  0  0  0  0  0  0  0  0  0  0
   21.3010    1.4720   59.6340 N   0  0  0  0  0  0  0  0  0  0  0  0
   20.9500    0.2320   60.1800 C   0  0  0  0  0  0  0  0  0  0  0  0
   21.3590   -0.9970   59.6460 C   0  0  0  0  0  0  0  0  0  0  0  0
   21.0370   -2.2040   60.2760 C   0  0  0  0  0  0  0  0  0  0  0  0
   20.3230   -2.2020   61.4700 C   0  0  0  0  0  0  0  0  0  0  0  0
   19.9440   -0.9910   62.0410 C   0  0  0  0  0  0  0  0  0  0  0  0
   20.2680    0.2110   61.4060 C   0  0  0  0  0  0  0  0  0  0  0  0
   22.9250    3.9220   57.7460 N   0  0  0  0  0  0  0  0  0  0  0  0
   23.4620    5.1930   57.5880 C   0  0  0  0  0  0  0  0  0  0  0  0
   23.0380    6.1710   56.2700 S   0  0  0  0  0  0  0  0  0  0  0  0
   24.0810    7.4170   56.7700 C   0  0  0  0  0  0  0  0  0  0  0  0
   24.7450    7.1080   57.9410 C   0  0  0  0  0  0  0  0  0  0  0  0
   25.7130    8.0590   58.4640 C   0  0  0  0  0  0  0  0  0  0  0  0
   26.9690    7.6170   58.9000 C   0  0  0  0  0  0  0  0  0  0  0  0
   27.9080    8.5360   59.3710 C   0  0  0  0  0  0  0  0  0  0  0  0
   27.5960    9.8950   59.4080 C   0  0  0  0  0  0  0  0  0  0  0  0
   26.3450   10.3380   58.9780 C   0  0  0  0  0  0  0  0  0  0  0  0
   25.4040    9.4240   58.5060 C   0  0  0  0  0  0  0  0  0  0  0  0
   24.3720    5.8020   58.4510 C   0  0  0  0  0  0  0  0  0  0  0  0
   24.8260    5.1090   59.6710 C   0  0  0  0  0  0  0  0  0  0  0  0
   24.4350    5.4590   60.7850 O   0  0  0  0  0  0  0  0  0  0  0  0
   25.7330    4.0920   59.5040 N   0  0  0  0  0  0  0  0  0  0  0  0
   26.3720    3.4360   60.6210 C   0  0  0  0  0  0  0  0  0  0  0  0
   25.6050    2.2000   61.0140 C   0  0  0  0  0  0  0  0  0  0  0  0
   24.4860    2.2990   61.8540 C   0  0  0  0  0  0  0  0  0  0  0  0
   23.7910    1.1550   62.2440 C   0  0  0  0  0  0  0  0  0  0  0  0
   24.2100   -0.1000   61.8040 C   0  0  0  0  0  0  0  0  0  0  0  0
   25.3270   -0.2120   60.9790 C   0  0  0  0  0  0  0  0  0  0  0  0
   26.0250    0.9320   60.5880 C   0  0  0  0  0  0  0  0  0  0  0  0
   21.0448    1.6448   57.2338 H   0  0  0  0  0  0  0  0  0  0  0  0
   22.5956    0.8420   56.7960 H   0  0  0  0  0  0  0  0  0  0  0  0
   23.1328    0.6908   58.9711 H   0  0  0  0  0  0  0  0  0  0  0  0
   23.0557    2.4876   59.1072 H   0  0  0  0  0  0  0  0  0  0  0  0
   20.4910    1.9290   59.2070 H   0  0  0  0  0  0  0  0  0  0  0  0
   21.9439   -1.0133   58.7145 H   0  0  0  0  0  0  0  0  0  0  0  0
   21.3494   -3.1578   59.8257 H   0  0  0  0  0  0  0  0  0  0  0  0
   20.0598   -3.1513   61.9594 H   0  0  0  0  0  0  0  0  0  0  0  0
   19.3899   -0.9798   62.9912 H   0  0  0  0  0  0  0  0  0  0  0  0
   19.9818    1.1624   61.8781 H   0  0  0  0  0  0  0  0  0  0  0  0
   22.7450    3.6700   58.7180 H   0  0  0  0  0  0  0  0  0  0  0  0
   24.2122    8.3622   56.2229 H   0  0  0  0  0  0  0  0  0  0  0  0
   27.2152    6.5453   58.8711 H   0  0  0  0  0  0  0  0  0  0  0  0
   28.8941    8.1885   59.7130 H   0  0  0  0  0  0  0  0  0  0  0  0
   28.3377   10.6187   59.7769 H   0  0  0  0  0  0  0  0  0  0  0  0
   26.1007   11.4100   59.0114 H   0  0  0  0  0  0  0  0  0  0  0  0
   24.4185    9.7753   58.1665 H   0  0  0  0  0  0  0  0  0  0  0  0
   26.1730    3.9680   58.6050 H   0  0  0  0  0  0  0  0  0  0  0  0
   27.3960    3.1519   60.3369 H   0  0  0  0  0  0  0  0  0  0  0  0
   26.3947    4.1282   61.4756 H   0  0  0  0  0  0  0  0  0  0  0  0
   24.1544    3.2864   62.2076 H   0  0  0  0  0  0  0  0  0  0  0  0
   22.9117    1.2425   62.8991 H   0  0  0  0  0  0  0  0  0  0  0  0
   23.6585   -1.0018   62.1083 H   0  0  0  0  0  0  0  0  0  0  0  0
   25.6592   -1.2027   60.6354 H   0  0  0  0  0  0  0  0  0  0  0  0
   26.9101    0.8380   59.9416 H   0  0  0  0  0  0  0  0  0  0  0  0
  1  2  2  0
  2  3  1  0
  3  4  1  0
  4  5  1  0
  5  6  1  0
  6  7  2  0
  7  8  1  0
  8  9  2  0
  9 10  1  0
 10 11  2  0
  2 12  1  0
 12 13  1  0
 13 14  1  0
 14 15  1  0
 15 16  2  0
 16 17  1  0
 17 18  2  0
 18 19  1  0
 19 20  2  0
 20 21  1  0
 21 22  2  0
 16 23  1  0
 23 24  1  0
 24 25  2  0
 24 26  1  0
 26 27  1  0
 27 28  1  0
 28 29  2  0
 29 30  1  0
 30 31  2  0
 31 32  1  0
 32 33  2  0
 11  6  1  0
 23 13  2  0
 33 28  1  0
 22 17  1  0
  3 34  1  0
  3 35  1  0
  4 36  1  0
  4 37  1  0
  5 38  1  0
  7 39  1  0
  8 40  1  0
  9 41  1  0
 10 42  1  0
 11 43  1  0
 12 44  1  0
 15 45  1  0
 18 46  1  0
 19 47  1  0
 20 48  1  0
 21 49  1  0
 22 50  1  0
 26 51  1  0
 27 52  1  0
 27 53  1  0
 29 54  1  0
 30 55  1  0
 31 56  1  0
 32 57  1  0
 33 58  1  0
M  END
>  <meeko>  (1) 
{"is_sidechain": [false], "free_energy": -9.825, "intermolecular_energy": -14.995, "internal_energy": -1.902}

$$$$
3wz8_ligand
     RDKit          3D

 58 61  0  0  0  0  0  0  0  0999 V2000
   23.1200    3.1200   55.7330 O   0  0  0  0  0  0  0  0  0  0  0  0
   22.6520    3.1870   56.8650 C   0  0  0  0  0  0  0  0  0  0  0  0
   21.8970    2.0060   57.4420 C   0  0  0  0  0  0  0  0  0  0  0  0
   22.8130    0.7920   57.5220 C   0  0  0  0  0  0  0  0  0  0  0  0
   22.3190   -0.2770   56.6570 N   0  0  0  0  0  0  0  0  0  0  0  0
   21.3710   -1.1800   57.1510 C   0  0  0  0  0  0  0  0  0  0  0  0
   21.3990   -1.7040   58.4500 C   0  0  0  0  0  0  0  0  0  0  0  0
   20.3840   -2.5480   58.9130 C   0  0  0  0  0  0  0  0  0  0  0  0
   19.3060   -2.8620   58.0920 C   0  0  0  0  0  0  0  0  0  0  0  0
   19.2360   -2.3200   56.8130 C   0  0  0  0  0  0  0  0  0  0  0  0
   20.2530   -1.4770   56.3570 C   0  0  0  0  0  0  0  0  0  0  0  0
   22.7540    4.2340   57.7620 N   0  0  0  0  0  0  0  0  0  0  0  0
   23.4220    5.4400   57.5950 C   0  0  0  0  0  0  0  0  0  0  0  0
   23.1220    6.4350   56.2560 S   0  0  0  0  0  0  0  0  0  0  0  0
   24.2820    7.5730   56.7540 C   0  0  0  0  0  0  0  0  0  0  0  0
   24.8940    7.2160   57.9400 C   0  0  0  0  0  0  0  0  0  0  0  0
   25.9480    8.0700   58.4650 C   0  0  0  0  0  0  0  0  0  0  0  0
   25.7320    9.4450   58.6110 C   0  0  0  0  0  0  0  0  0  0  0  0
   26.7340   10.2560   59.1460 C   0  0  0  0  0  0  0  0  0  0  0  0
   27.9510    9.6970   59.5350 C   0  0  0  0  0  0  0  0  0  0  0  0
   28.1710    8.3270   59.3870 C   0  0  0  0  0  0  0  0  0  0  0  0
   27.1720    7.5130   58.8530 C   0  0  0  0  0  0  0  0  0  0  0  0
   24.3780    5.9650   58.4630 C   0  0  0  0  0  0  0  0  0  0  0  0
   24.7400    5.2480   59.7000 C   0  0  0  0  0  0  0  0  0  0  0  0
   24.4410    5.6970   60.8070 O   0  0  0  0  0  0  0  0  0  0  0  0
   25.4600    4.0870   59.5560 N   0  0  0  0  0  0  0  0  0  0  0  0
   26.0060    3.3730   60.6850 C   0  0  0  0  0  0  0  0  0  0  0  0
   25.1610    2.1680   61.0050 C   0  0  0  0  0  0  0  0  0  0  0  0
   25.6660    0.8750   60.8000 C   0  0  0  0  0  0  0  0  0  0  0  0
   24.8760   -0.2440   61.0660 C   0  0  0  0  0  0  0  0  0  0  0  0
   23.5730   -0.0810   61.5340 C   0  0  0  0  0  0  0  0  0  0  0  0
   23.0570    1.1970   61.7310 C   0  0  0  0  0  0  0  0  0  0  0  0
   23.8440    2.3180   61.4640 C   0  0  0  0  0  0  0  0  0  0  0  0
   21.5394    2.2598   58.4508 H   0  0  0  0  0  0  0  0  0  0  0  0
   21.0416    1.7711   56.7915 H   0  0  0  0  0  0  0  0  0  0  0  0
   23.8249    1.0797   57.2007 H   0  0  0  0  0  0  0  0  0  0  0  0
   22.8348    0.4294   58.5603 H   0  0  0  0  0  0  0  0  0  0  0  0
   23.0710   -0.7660   56.1630 H   0  0  0  0  0  0  0  0  0  0  0  0
   22.2343   -1.4471   59.1180 H   0  0  0  0  0  0  0  0  0  0  0  0
   20.4386   -2.9647   59.9296 H   0  0  0  0  0  0  0  0  0  0  0  0
   18.5137   -3.5348   58.4520 H   0  0  0  0  0  0  0  0  0  0  0  0
   18.3814   -2.5546   56.1614 H   0  0  0  0  0  0  0  0  0  0  0  0
   20.1752   -1.0361   55.3523 H   0  0  0  0  0  0  0  0  0  0  0  0
   22.3180    4.1300   58.6800 H   0  0  0  0  0  0  0  0  0  0  0  0
   24.5188    8.4903   56.1950 H   0  0  0  0  0  0  0  0  0  0  0  0
   24.7724    9.8866   58.3041 H   0  0  0  0  0  0  0  0  0  0  0  0
   26.5637   11.3366   59.2609 H   0  0  0  0  0  0  0  0  0  0  0  0
   28.7387   10.3370   59.9591 H   0  0  0  0  0  0  0  0  0  0  0  0
   29.1328    7.8887   59.6916 H   0  0  0  0  0  0  0  0  0  0  0  0
   27.3462    6.4331   58.7368 H   0  0  0  0  0  0  0  0  0  0  0  0
   25.8500    3.8600   58.6540 H   0  0  0  0  0  0  0  0  0  0  0  0
   27.0285    3.0452   60.4461 H   0  0  0  0  0  0  0  0  0  0  0  0
   26.0170    4.0422   61.5580 H   0  0  0  0  0  0  0  0  0  0  0  0
   26.6923    0.7425   60.4268 H   0  0  0  0  0  0  0  0  0  0  0  0
   25.2811   -1.2542   60.9065 H   0  0  0  0  0  0  0  0  0  0  0  0
   22.9518   -0.9632   61.7479 H   0  0  0  0  0  0  0  0  0  0  0  0
   22.0276    1.3232   62.0976 H   0  0  0  0  0  0  0  0  0  0  0  0
   23.4290    3.3256   61.6144 H   0  0  0  0  0  0  0  0  0  0  0  0
  1  2  2  0
  2  3  1  0
  3  4  1  0
  4  5  1  0
  5  6  1  0
  6  7  2  0
  7  8  1  0
  8  9  2  0
  9 10  1  0
 10 11  2  0
  2 12  1  0
 12 13  1  0
 13 14  1  0
 14 15  1  0
 15 16  2  0
 16 17  1  0
 17 18  2  0
 18 19  1  0
 19 20  2  0
 20 21  1  0
 21 22  2  0
 16 23  1  0
 23 24  1  0
 24 25  2  0
 24 26  1  0
 26 27  1  0
 27 28  1  0
 28 29  2  0
 29 30  1  0
 30 31  2  0
 31 32  1  0
 32 33  2  0
 11  6  1  0
 23 13  2  0
 33 28  1  0
 22 17  1  0
  3 34  1  0
  3 35  1  0
  4 36  1  0
  4 37  1  0
  5 38  1  0
  7 39  1  0
  8 40  1  0
  9 41  1  0
 10 42  1  0
 11 43  1  0
 12 44  1  0
 15 45  1  0
 18 46  1  0
 19 47  1  0
 20 48  1  0
 21 49  1  0
 22 50  1  0
 26 51  1  0
 27 52  1  0
 27 53  1  0
 29 54  1  0
 30 55  1  0
 31 56  1  0
 32 57  1  0
 33 58  1  0
M  END
>  <meeko>  (2) 
{"is_sidechain": [false], "free_energy": -9.461, "intermolecular_energy": -14.793, "internal_energy": -1.548}

$$$$
3wz8_ligand
     RDKit          3D

 58 61  0  0  0  0  0  0  0  0999 V2000
   24.4100    5.7490   60.4230 O   0  0  0  0  0  0  0  0  0  0  0  0
   24.9400    4.8080   59.8420 C   0  0  0  0  0  0  0  0  0  0  0  0
   25.9790    3.9670   60.5570 C   0  0  0  0  0  0  0  0  0  0  0  0
   27.2410    4.7870   60.7920 C   0  0  0  0  0  0  0  0  0  0  0  0
   27.6080    5.5160   59.5800 N   0  0  0  0  0  0  0  0  0  0  0  0
   27.9430    6.8720   59.6680 C   0  0  0  0  0  0  0  0  0  0  0  0
   29.2120    7.3380   60.0350 C   0  0  0  0  0  0  0  0  0  0  0  0
   29.5100    8.7050   60.0370 C   0  0  0  0  0  0  0  0  0  0  0  0
   28.5490    9.6310   59.6420 C   0  0  0  0  0  0  0  0  0  0  0  0
   27.2960    9.1880   59.2330 C   0  0  0  0  0  0  0  0  0  0  0  0
   27.0050    7.8210   59.2340 C   0  0  0  0  0  0  0  0  0  0  0  0
   24.6840    4.3500   58.5630 N   0  0  0  0  0  0  0  0  0  0  0  0
   23.7560    4.8370   57.6510 C   0  0  0  0  0  0  0  0  0  0  0  0
   23.6870    6.4850   57.2600 S   0  0  0  0  0  0  0  0  0  0  0  0
   22.3700    6.2530   56.2120 C   0  0  0  0  0  0  0  0  0  0  0  0
   21.9820    4.9290   56.1400 C   0  0  0  0  0  0  0  0  0  0  0  0
   20.8320    4.5830   55.3200 C   0  0  0  0  0  0  0  0  0  0  0  0
   19.5570    5.0470   55.6660 C   0  0  0  0  0  0  0  0  0  0  0  0
   18.4600    4.7410   54.8590 C   0  0  0  0  0  0  0  0  0  0  0  0
   18.6330    3.9720   53.7080 C   0  0  0  0  0  0  0  0  0  0  0  0
   19.9010    3.5050   53.3640 C   0  0  0  0  0  0  0  0  0  0  0  0
   21.0000    3.8090   54.1660 C   0  0  0  0  0  0  0  0  0  0  0  0
   22.8100    4.0730   56.9710 C   0  0  0  0  0  0  0  0  0  0  0  0
   22.7480    2.6120   57.1630 C   0  0  0  0  0  0  0  0  0  0  0  0
   23.2120    1.8400   56.3230 O   0  0  0  0  0  0  0  0  0  0  0  0
   22.1120    2.1620   58.2930 N   0  0  0  0  0  0  0  0  0  0  0  0
   21.8480    0.7620   58.5240 C   0  0  0  0  0  0  0  0  0  0  0  0
   22.7030    0.2450   59.6520 C   0  0  0  0  0  0  0  0  0  0  0  0
   22.5420   -1.0680   60.1180 C   0  0  0  0  0  0  0  0  0  0  0  0
   23.3110   -1.5410   61.1810 C   0  0  0  0  0  0  0  0  0  0  0  0
   24.2430   -0.7050   61.7940 C   0  0  0  0  0  0  0  0  0  0  0  0
   24.4040    0.6050   61.3480 C   0  0  0  0  0  0  0  0  0  0  0  0
   23.6350    1.0810   60.2850 C   0  0  0  0  0  0  0  0  0  0  0  0
   25.5753    3.6343   61.5246 H   0  0  0  0  0  0  0  0  0  0  0  0
   26.2263    3.0935   59.9358 H   0  0  0  0  0  0  0  0  0  0  0  0
   27.0606    5.5046   61.6059 H   0  0  0  0  0  0  0  0  0  0  0  0
   28.0628    4.1075   61.0622 H   0  0  0  0  0  0  0  0  0  0  0  0
   26.9610    5.3450   58.8050 H   0  0  0  0  0  0  0  0  0  0  0  0
   29.9886    6.6158   60.3270 H   0  0  0  0  0  0  0  0  0  0  0  0
   30.5064    9.0488   60.3516 H   0  0  0  0  0  0  0  0  0  0  0  0
   28.7792   10.7066   59.6533 H   0  0  0  0  0  0  0  0  0  0  0  0
   26.5346    9.9127   58.9090 H   0  0  0  0  0  0  0  0  0  0  0  0
   26.0181    7.4813   58.8866 H   0  0  0  0  0  0  0  0  0  0  0  0
   25.2040    3.5380   58.2260 H   0  0  0  0  0  0  0  0  0  0  0  0
   21.8814    7.0652   55.6538 H   0  0  0  0  0  0  0  0  0  0  0  0
   19.4199    5.6527   56.5739 H   0  0  0  0  0  0  0  0  0  0  0  0
   17.4587    5.1064   55.1307 H   0  0  0  0  0  0  0  0  0  0  0  0
   17.7683    3.7338   53.0712 H   0  0  0  0  0  0  0  0  0  0  0  0
   20.0344    2.8955   52.4580 H   0  0  0  0  0  0  0  0  0  0  0  0
   21.9995    3.4405   53.8918 H   0  0  0  0  0  0  0  0  0  0  0  0
   21.5790    2.8130   58.8490 H   0  0  0  0  0  0  0  0  0  0  0  0
   20.7872    0.6314   58.7841 H   0  0  0  0  0  0  0  0  0  0  0  0
   22.0853    0.1987   57.6095 H   0  0  0  0  0  0  0  0  0  0  0  0
   21.8037   -1.7297   59.6415 H   0  0  0  0  0  0  0  0  0  0  0  0
   23.1821   -2.5742   61.5359 H   0  0  0  0  0  0  0  0  0  0  0  0
   24.8515   -1.0798   62.6302 H   0  0  0  0  0  0  0  0  0  0  0  0
   25.1378    1.2647   61.8341 H   0  0  0  0  0  0  0  0  0  0  0  0
   23.7605    2.1184   59.9413 H   0  0  0  0  0  0  0  0  0  0  0  0
  1  2  2  0
  2  3  1  0
  3  4  1  0
  4  5  1  0
  5  6  1  0
  6  7  2  0
  7  8  1  0
  8  9  2  0
  9 10  1  0
 10 11  2  0
  2 12  1  0
 12 13  1  0
 13 14  1  0
 14 15  1  0
 15 16  2  0
 16 17  1  0
 17 18  2  0
 18 19  1  0
 19 20  2  0
 20 21  1  0
 21 22  2  0
 16 23  1  0
 23 24  1  0
 24 25  2  0
 24 26  1  0
 26 27  1  0
 27 28  1  0
 28 29  2  0
 29 30  1  0
 30 31  2  0
 31 32  1  0
 32 33  2  0
 11  6  1  0
 23 13  2  0
 33 28  1  0
 22 17  1  0
  3 34  1  0
  3 35  1  0
  4 36  1  0
  4 37  1  0
  5 38  1  0
  7 39  1  0
  8 40  1  0
  9 41  1  0
 10 42  1  0
 11 43  1  0
 12 44  1  0
 15 45  1  0
 18 46  1  0
 19 47  1  0
 20 48  1  0
 21 49  1  0
 22 50  1  0
 26 51  1  0
 27 52  1  0
 27 53  1  0
 29 54  1  0
 30 55  1  0
 31 56  1  0
 32 57  1  0
 33 58  1  0
M  END
>  <meeko>  (3) 
{"is_sidechain": [false], "free_energy": -9.335, "intermolecular_energy": -14.424, "internal_energy": -1.724}

$$$$
3wz8_ligand
     RDKit          3D

 58 61  0  0  0  0  0  0  0  0999 V2000
   24.5800    6.4850   59.8690 O   0  0  0  0  0  0  0  0  0  0  0  0
   25.0310    5.3600   59.6780 C   0  0  0  0  0  0  0  0  0  0  0  0
   26.0590    4.7870   60.6320 C   0  0  0  0  0  0  0  0  0  0  0  0
   26.7050    3.5500   60.0210 C   0  0  0  0  0  0  0  0  0  0  0  0
   26.8310    2.4930   61.0220 N   0  0  0  0  0  0  0  0  0  0  0  0
   25.7350    1.6660   61.2910 C   0  0  0  0  0  0  0  0  0  0  0  0
   24.5760    2.0990   61.9470 C   0  0  0  0  0  0  0  0  0  0  0  0
   23.4810    1.2450   62.1250 C   0  0  0  0  0  0  0  0  0  0  0  0
   23.5170   -0.0520   61.6230 C   0  0  0  0  0  0  0  0  0  0  0  0
   24.6410   -0.4900   60.9320 C   0  0  0  0  0  0  0  0  0  0  0  0
   25.7310    0.3680   60.7580 C   0  0  0  0  0  0  0  0  0  0  0  0
   24.6880    4.4690   58.6780 N   0  0  0  0  0  0  0  0  0  0  0  0
   23.7430    4.6350   57.6740 C   0  0  0  0  0  0  0  0  0  0  0  0
   23.4870    6.1440   56.9460 S   0  0  0  0  0  0  0  0  0  0  0  0
   22.2490    5.5340   55.9540 C   0  0  0  0  0  0  0  0  0  0  0  0
   22.0300    4.1850   56.1560 C   0  0  0  0  0  0  0  0  0  0  0  0
   20.9630    3.5330   55.4140 C   0  0  0  0  0  0  0  0  0  0  0  0
   19.9990    2.7730   56.0890 C   0  0  0  0  0  0  0  0  0  0  0  0
   18.9580    2.1760   55.3770 C   0  0  0  0  0  0  0  0  0  0  0  0
   18.8760    2.3350   53.9940 C   0  0  0  0  0  0  0  0  0  0  0  0
   19.8370    3.0880   53.3190 C   0  0  0  0  0  0  0  0  0  0  0  0
   20.8790    3.6870   54.0250 C   0  0  0  0  0  0  0  0  0  0  0  0
   22.9240    3.6320   57.1570 C   0  0  0  0  0  0  0  0  0  0  0  0
   23.0350    2.2470   57.6500 C   0  0  0  0  0  0  0  0  0  0  0  0
   23.0780    2.0020   58.8570 O   0  0  0  0  0  0  0  0  0  0  0  0
   23.1320    1.2580   56.7030 N   0  0  0  0  0  0  0  0  0  0  0  0
   23.3980   -0.1180   57.0480 C   0  0  0  0  0  0  0  0  0  0  0  0
   22.1220   -0.8200   57.4350 C   0  0  0  0  0  0  0  0  0  0  0  0
   22.0740   -1.6200   58.5860 C   0  0  0  0  0  0  0  0  0  0  0  0
   20.9030   -2.2950   58.9310 C   0  0  0  0  0  0  0  0  0  0  0  0
   19.7710   -2.1820   58.1260 C   0  0  0  0  0  0  0  0  0  0  0  0
   19.8090   -1.3990   56.9750 C   0  0  0  0  0  0  0  0  0  0  0  0
   20.9800   -0.7240   56.6260 C   0  0  0  0  0  0  0  0  0  0  0  0
   26.8337    5.5426   60.8294 H   0  0  0  0  0  0  0  0  0  0  0  0
   25.5620    4.5073   61.5726 H   0  0  0  0  0  0  0  0  0  0  0  0
   26.0818    3.1891   59.1895 H   0  0  0  0  0  0  0  0  0  0  0  0
   27.7077    3.8155   59.6549 H   0  0  0  0  0  0  0  0  0  0  0  0
   27.2680    2.8200   61.8890 H   0  0  0  0  0  0  0  0  0  0  0  0
   24.5250    3.1291   62.3295 H   0  0  0  0  0  0  0  0  0  0  0  0
   22.5899    1.6004   62.6632 H   0  0  0  0  0  0  0  0  0  0  0  0
   22.6612   -0.7269   61.7719 H   0  0  0  0  0  0  0  0  0  0  0  0
   24.6727   -1.5105   60.5226 H   0  0  0  0  0  0  0  0  0  0  0  0
   26.6055    0.0175   60.1902 H   0  0  0  0  0  0  0  0  0  0  0  0
   25.1480    3.5580   58.6630 H   0  0  0  0  0  0  0  0  0  0  0  0
   21.6858    6.1443   55.2327 H   0  0  0  0  0  0  0  0  0  0  0  0
   20.0627    2.6469   57.1799 H   0  0  0  0  0  0  0  0  0  0  0  0
   18.2012    1.5793   55.9072 H   0  0  0  0  0  0  0  0  0  0  0  0
   18.0528    1.8663   53.4348 H   0  0  0  0  0  0  0  0  0  0  0  0
   19.7723    3.2093   52.2276 H   0  0  0  0  0  0  0  0  0  0  0  0
   21.6353    4.2807   53.4908 H   0  0  0  0  0  0  0  0  0  0  0  0
   23.2900    1.5140   55.7400 H   0  0  0  0  0  0  0  0  0  0  0  0
   23.8441   -0.6288   56.1820 H   0  0  0  0  0  0  0  0  0  0  0  0
   24.0916   -0.1436   57.9014 H   0  0  0  0  0  0  0  0  0  0  0  0
   22.9667   -1.7159   59.2216 H   0  0  0  0  0  0  0  0  0  0  0  0
   20.8731   -2.9163   59.8382 H   0  0  0  0  0  0  0  0  0  0  0  0
   18.8467   -2.7117   58.4000 H   0  0  0  0  0  0  0  0  0  0  0  0
   18.9150   -1.3123   56.3400 H   0  0  0  0  0  0  0  0  0  0  0  0
   21.0074   -0.1134   55.7115 H   0  0  0  0  0  0  0  0  0  0  0  0
  1  2  2  0
  2  3  1  0
  3  4  1  0
  4  5  1  0
  5  6  1  0
  6  7  2  0
  7  8  1  0
  8  9  2  0
  9 10  1  0
 10 11  2  0
  2 12  1  0
 12 13  1  0
 13 14  1  0
 14 15  1  0
 15 16  2  0
 16 17  1  0
 17 18  2  0
 18 19  1  0
 19 20  2  0
 20 21  1  0
 21 22  2  0
 16 23  1  0
 23 24  1  0
 24 25  2  0
 24 26  1  0
 26 27  1  0
 27 28  1  0
 28 29  2  0
 29 30  1  0
 30 31  2  0
 31 32  1  0
 32 33  2  0
 11  6  1  0
 23 13  2  0
 33 28  1  0
 22 17  1  0
  3 34  1  0
  3 35  1  0
  4 36  1  0
  4 37  1  0
  5 38  1  0
  7 39  1  0
  8 40  1  0
  9 41  1  0
 10 42  1  0
 11 43  1  0
 12 44  1  0
 15 45  1  0
 18 46  1  0
 19 47  1  0
 20 48  1  0
 21 49  1  0
 22 50  1  0
 26 51  1  0
 27 52  1  0
 27 53  1  0
 29 54  1  0
 30 55  1  0
 31 56  1  0
 32 57  1  0
 33 58  1  0
M  END
>  <meeko>  (4) 
{"is_sidechain": [false], "free_energy": -9.303, "intermolecular_energy": -13.847, "internal_energy": -2.252}

$$$$
3wz8_ligand
     RDKit          3D

 58 61  0  0  0  0  0  0  0  0999 V2000
   23.0170    3.3460   55.7350 O   0  0  0  0  0  0  0  0  0  0  0  0
   22.5860    3.4060   56.8820 C   0  0  0  0  0  0  0  0  0  0  0  0
   21.7990    2.2440   57.4550 C   0  0  0  0  0  0  0  0  0  0  0  0
   20.3850    2.2430   56.8880 C   0  0  0  0  0  0  0  0  0  0  0  0
   20.3740    1.6520   55.5510 N   0  0  0  0  0  0  0  0  0  0  0  0
   19.6770    2.2950   54.5210 C   0  0  0  0  0  0  0  0  0  0  0  0
   19.6110    3.6860   54.3770 C   0  0  0  0  0  0  0  0  0  0  0  0
   18.9580    4.2720   53.2860 C   0  0  0  0  0  0  0  0  0  0  0  0
   18.3830    3.4730   52.3040 C   0  0  0  0  0  0  0  0  0  0  0  0
   18.4730    2.0880   52.4040 C   0  0  0  0  0  0  0  0  0  0  0  0
   19.1260    1.5100   53.4970 C   0  0  0  0  0  0  0  0  0  0  0  0
   22.7590    4.4260   57.7990 N   0  0  0  0  0  0  0  0  0  0  0  0
   23.4740    5.6060   57.6380 C   0  0  0  0  0  0  0  0  0  0  0  0
   23.2050    6.6250   56.3110 S   0  0  0  0  0  0  0  0  0  0  0  0
   24.4120    7.7120   56.8120 C   0  0  0  0  0  0  0  0  0  0  0  0
   25.0160    7.3200   57.9910 C   0  0  0  0  0  0  0  0  0  0  0  0
   26.1070    8.1260   58.5170 C   0  0  0  0  0  0  0  0  0  0  0  0
   27.3570    7.5440   58.7600 C   0  0  0  0  0  0  0  0  0  0  0  0
   28.4110    8.3280   59.2340 C   0  0  0  0  0  0  0  0  0  0  0  0
   28.2190    9.6900   59.4650 C   0  0  0  0  0  0  0  0  0  0  0  0
   26.9730   10.2710   59.2270 C   0  0  0  0  0  0  0  0  0  0  0  0
   25.9180    9.4930   58.7540 C   0  0  0  0  0  0  0  0  0  0  0  0
   24.4550    6.0840   58.5060 C   0  0  0  0  0  0  0  0  0  0  0  0
   24.7960    5.3420   59.7330 C   0  0  0  0  0  0  0  0  0  0  0  0
   24.3970    5.7190   60.8370 O   0  0  0  0  0  0  0  0  0  0  0  0
   25.6090    4.2450   59.5890 N   0  0  0  0  0  0  0  0  0  0  0  0
   26.1410    3.5240   60.7210 C   0  0  0  0  0  0  0  0  0  0  0  0
   25.3110    2.2980   61.0010 C   0  0  0  0  0  0  0  0  0  0  0  0
   24.0230    2.4230   61.5410 C   0  0  0  0  0  0  0  0  0  0  0  0
   23.2630    1.2900   61.8290 C   0  0  0  0  0  0  0  0  0  0  0  0
   23.7840    0.0200   61.5850 C   0  0  0  0  0  0  0  0  0  0  0  0
   25.0660   -0.1170   61.0580 C   0  0  0  0  0  0  0  0  0  0  0  0
   25.8300    1.0160   60.7710 C   0  0  0  0  0  0  0  0  0  0  0  0
   22.2983    1.3002   57.1906 H   0  0  0  0  0  0  0  0  0  0  0  0
   21.7494    2.3458   58.5492 H   0  0  0  0  0  0  0  0  0  0  0  0
   19.7296    1.6569   57.5490 H   0  0  0  0  0  0  0  0  0  0  0  0
   20.0252    3.2805   56.8232 H   0  0  0  0  0  0  0  0  0  0  0  0
   20.1700    0.6490   55.5640 H   0  0  0  0  0  0  0  0  0  0  0  0
   20.0807    4.3302   55.1348 H   0  0  0  0  0  0  0  0  0  0  0  0
   18.8997    5.3675   53.2055 H   0  0  0  0  0  0  0  0  0  0  0  0
   17.8599    3.9332   51.4528 H   0  0  0  0  0  0  0  0  0  0  0  0
   18.0314    1.4493   51.6249 H   0  0  0  0  0  0  0  0  0  0  0  0
   19.2096    0.4147   53.5553 H   0  0  0  0  0  0  0  0  0  0  0  0
   22.3470    4.3190   58.7270 H   0  0  0  0  0  0  0  0  0  0  0  0
   24.6817    8.6244   56.2599 H   0  0  0  0  0  0  0  0  0  0  0  0
   27.5088    6.4699   58.5777 H   0  0  0  0  0  0  0  0  0  0  0  0
   29.3932    7.8711   59.4253 H   0  0  0  0  0  0  0  0  0  0  0  0
   29.0510   10.3070   59.8353 H   0  0  0  0  0  0  0  0  0  0  0  0
   26.8232   11.3448   59.4130 H   0  0  0  0  0  0  0  0  0  0  0  0
   24.9365    9.9529   58.5668 H   0  0  0  0  0  0  0  0  0  0  0  0
   26.0690    4.0880   58.7060 H   0  0  0  0  0  0  0  0  0  0  0  0
   27.1752    3.2193   60.5030 H   0  0  0  0  0  0  0  0  0  0  0  0
   26.1179    4.1795   61.6041 H   0  0  0  0  0  0  0  0  0  0  0  0
   23.6089    3.4227   61.7390 H   0  0  0  0  0  0  0  0  0  0  0  0
   22.2521    1.3982   62.2488 H   0  0  0  0  0  0  0  0  0  0  0  0
   23.1827   -0.8736   61.8086 H   0  0  0  0  0  0  0  0  0  0  0  0
   25.4772   -1.1193   60.8676 H   0  0  0  0  0  0  0  0  0  0  0  0
   26.8448    0.9021   60.3621 H   0  0  0  0  0  0  0  0  0  0  0  0
  1  2  2  0
  2  3  1  0
  3  4  1  0
  4  5  1  0
  5  6  1  0
  6  7  2  0
  7  8  1  0
  8  9  2  0
  9 10  1  0
 10 11  2  0
  2 12  1  0
 12 13  1  0
 13 14  1  0
 14 15  1  0
 15 16  2  0
 16 17  1  0
 17 18  2  0
 18 19  1  0
 19 20  2  0
 20 21  1  0
 21 22  2  0
 16 23  1  0
 23 24  1  0
 24 25  2  0
 24 26  1  0
 26 27  1  0
 27 28  1  0
 28 29  2  0
 29 30  1  0
 30 31  2  0
 31 32  1  0
 32 33  2  0
 11  6  1  0
 23 13  2  0
 33 28  1  0
 22 17  1  0
  3 34  1  0
  3 35  1  0
  4 36  1  0
  4 37  1  0
  5 38  1  0
  7 39  1  0
  8 40  1  0
  9 41  1  0
 10 42  1  0
 11 43  1  0
 12 44  1  0
 15 45  1  0
 18 46  1  0
 19 47  1  0
 20 48  1  0
 21 49  1  0
 22 50  1  0
 26 51  1  0
 27 52  1  0
 27 53  1  0
 29 54  1  0
 30 55  1  0
 31 56  1  0
 32 57  1  0
 33 58  1  0
M  END
>  <meeko>  (5) 
{"is_sidechain": [false], "free_energy": -9.086, "intermolecular_energy": -14.248, "internal_energy": -1.52}

$$$$
3wz8_ligand
     RDKit          3D

 58 61  0  0  0  0  0  0  0  0999 V2000
   23.4690    3.4100   56.2830 O   0  0  0  0  0  0  0  0  0  0  0  0
   23.1080    3.0600   57.4020 C   0  0  0  0  0  0  0  0  0  0  0  0
   22.2730    1.8070   57.5690 C   0  0  0  0  0  0  0  0  0  0  0  0
   21.0280    1.8900   56.6960 C   0  0  0  0  0  0  0  0  0  0  0  0
   20.6630    0.5650   56.2000 N   0  0  0  0  0  0  0  0  0  0  0  0
   20.2850   -0.4300   57.1100 C   0  0  0  0  0  0  0  0  0  0  0  0
   19.2430   -0.2830   58.0340 C   0  0  0  0  0  0  0  0  0  0  0  0
   18.8620   -1.3390   58.8710 C   0  0  0  0  0  0  0  0  0  0  0  0
   19.5010   -2.5710   58.7770 C   0  0  0  0  0  0  0  0  0  0  0  0
   20.5110   -2.7520   57.8380 C   0  0  0  0  0  0  0  0  0  0  0  0
   20.8860   -1.6930   57.0050 C   0  0  0  0  0  0  0  0  0  0  0  0
   23.4060    3.6580   58.6120 N   0  0  0  0  0  0  0  0  0  0  0  0
   24.1930    4.7800   58.8400 C   0  0  0  0  0  0  0  0  0  0  0  0
   23.8460    6.2650   58.1000 S   0  0  0  0  0  0  0  0  0  0  0  0
   25.1960    7.0130   58.8110 C   0  0  0  0  0  0  0  0  0  0  0  0
   25.9100    6.1510   59.6210 C   0  0  0  0  0  0  0  0  0  0  0  0
   27.1240    6.6370   60.2570 C   0  0  0  0  0  0  0  0  0  0  0  0
   28.0360    7.4150   59.5320 C   0  0  0  0  0  0  0  0  0  0  0  0
   29.1840    7.9070   60.1550 C   0  0  0  0  0  0  0  0  0  0  0  0
   29.4230    7.6250   61.5000 C   0  0  0  0  0  0  0  0  0  0  0  0
   28.5190    6.8480   62.2230 C   0  0  0  0  0  0  0  0  0  0  0  0
   27.3710    6.3540   61.6060 C   0  0  0  0  0  0  0  0  0  0  0  0
   25.3150    4.8290   59.6660 C   0  0  0  0  0  0  0  0  0  0  0  0
   25.7440    3.6350   60.4180 C   0  0  0  0  0  0  0  0  0  0  0  0
   26.8730    3.1640   60.2740 O   0  0  0  0  0  0  0  0  0  0  0  0
   24.8140    3.0550   61.2450 N   0  0  0  0  0  0  0  0  0  0  0  0
   25.0540    1.8000   61.9170 C   0  0  0  0  0  0  0  0  0  0  0  0
   23.9350    0.8310   61.6350 C   0  0  0  0  0  0  0  0  0  0  0  0
   24.2110   -0.5310   61.4400 C   0  0  0  0  0  0  0  0  0  0  0  0
   23.1820   -1.4270   61.1500 C   0  0  0  0  0  0  0  0  0  0  0  0
   21.8690   -0.9700   61.0460 C   0  0  0  0  0  0  0  0  0  0  0  0
   21.5840    0.3810   61.2270 C   0  0  0  0  0  0  0  0  0  0  0  0
   22.6120    1.2800   61.5160 C   0  0  0  0  0  0  0  0  0  0  0  0
   22.8680    0.9306   57.2724 H   0  0  0  0  0  0  0  0  0  0  0  0
   21.9697    1.7132   58.6222 H   0  0  0  0  0  0  0  0  0  0  0  0
   20.1958    2.2965   57.2895 H   0  0  0  0  0  0  0  0  0  0  0  0
   21.2373    2.5463   55.8384 H   0  0  0  0  0  0  0  0  0  0  0  0
   21.3300    0.2020   55.5140 H   0  0  0  0  0  0  0  0  0  0  0  0
   18.7144    0.6792   58.1035 H   0  0  0  0  0  0  0  0  0  0  0  0
   18.0554   -1.1939   59.6047 H   0  0  0  0  0  0  0  0  0  0  0  0
   19.2092   -3.3975   59.4416 H   0  0  0  0  0  0  0  0  0  0  0  0
   21.0140   -3.7264   57.7507 H   0  0  0  0  0  0  0  0  0  0  0  0
   21.6700   -1.8542   56.2504 H   0  0  0  0  0  0  0  0  0  0  0  0
   23.0390    3.2340   59.4650 H   0  0  0  0  0  0  0  0  0  0  0  0
   25.4706    8.0652   58.6450 H   0  0  0  0  0  0  0  0  0  0  0  0
   27.8473    7.6382   58.4715 H   0  0  0  0  0  0  0  0  0  0  0  0
   29.9003    8.5172   59.5853 H   0  0  0  0  0  0  0  0  0  0  0  0
   30.3262    8.0163   61.9910 H   0  0  0  0  0  0  0  0  0  0  0  0
   28.7122    6.6244   63.2826 H   0  0  0  0  0  0  0  0  0  0  0  0
   26.6589    5.7418   62.1788 H   0  0  0  0  0  0  0  0  0  0  0  0
   23.8510    3.3510   61.1850 H   0  0  0  0  0  0  0  0  0  0  0  0
   26.0023    1.3727   61.5591 H   0  0  0  0  0  0  0  0  0  0  0  0
   25.1058    1.9798   63.0010 H   0  0  0  0  0  0  0  0  0  0  0  0
   25.2463   -0.8947   61.5164 H   0  0  0  0  0  0  0  0  0  0  0  0
   23.4065   -2.4938   61.0034 H   0  0  0  0  0  0  0  0  0  0  0  0
   21.0573   -1.6774   60.8207 H   0  0  0  0  0  0  0  0  0  0  0  0
   20.5477    0.7401   61.1422 H   0  0  0  0  0  0  0  0  0  0  0  0
   22.3828    2.3473   61.6512 H   0  0  0  0  0  0  0  0  0  0  0  0
  1  2  2  0
  2  3  1  0
  3  4  1  0
  4  5  1  0
  5  6  1  0
  6  7  2  0
  7  8  1  0
  8  9  2  0
  9 10  1  0
 10 11  2  0
  2 12  1  0
 12 13  1  0
 13 14  1  0
 14 15  1  0
 15 16  2  0
 16 17  1  0
 17 18  2  0
 18 19  1  0
 19 20  2  0
 20 21  1  0
 21 22  2  0
 16 23  1  0
 23 24  1  0
 24 25  2  0
 24 26  1  0
 26 27  1  0
 27 28  1  0
 28 29  2  0
 29 30  1  0
 30 31  2  0
 31 32  1  0
 32 33  2  0
 11  6  1  0
 23 13  2  0
 33 28  1  0
 22 17  1  0
  3 34  1  0
  3 35  1  0
  4 36  1  0
  4 37  1  0
  5 38  1  0
  7 39  1  0
  8 40  1  0
  9 41  1  0
 10 42  1  0
 11 43  1  0
 12 44  1  0
 15 45  1  0
 18 46  1  0
 19 47  1  0
 20 48  1  0
 21 49  1  0
 22 50  1  0
 26 51  1  0
 27 52  1  0
 27 53  1  0
 29 54  1  0
 30 55  1  0
 31 56  1  0
 32 57  1  0
 33 58  1  0
M  END
>  <meeko>  (6) 
{"is_sidechain": [false], "free_energy": -9.082, "intermolecular_energy": -13.806, "internal_energy": -1.955}

$$$$
3wz8_ligand
     RDKit          3D

 58 61  0  0  0  0  0  0  0  0999 V2000
   24.2400    4.4420   60.7820 O   0  0  0  0  0  0  0  0  0  0  0  0
   24.8310    3.6710   60.0330 C   0  0  0  0  0  0  0  0  0  0  0  0
   25.8390    2.6920   60.5990 C   0  0  0  0  0  0  0  0  0  0  0  0
   25.1200    1.5880   61.3640 C   0  0  0  0  0  0  0  0  0  0  0  0
   24.3310    0.7660   60.4500 N   0  0  0  0  0  0  0  0  0  0  0  0
   23.0700    0.3080   60.8510 C   0  0  0  0  0  0  0  0  0  0  0  0
   22.6990   -1.0420   60.8580 C   0  0  0  0  0  0  0  0  0  0  0  0
   21.4480   -1.4480   61.3370 C   0  0  0  0  0  0  0  0  0  0  0  0
   20.5560   -0.5090   61.8450 C   0  0  0  0  0  0  0  0  0  0  0  0
   20.9200    0.8320   61.8870 C   0  0  0  0  0  0  0  0  0  0  0  0
   22.1700    1.2310   61.4060 C   0  0  0  0  0  0  0  0  0  0  0  0
   24.6720    3.5310   58.6660 N   0  0  0  0  0  0  0  0  0  0  0  0
   23.7970    4.2150   57.8340 C   0  0  0  0  0  0  0  0  0  0  0  0
   23.8340    5.9050   57.7150 S   0  0  0  0  0  0  0  0  0  0  0  0
   22.5300    5.9270   56.6250 C   0  0  0  0  0  0  0  0  0  0  0  0
   22.0670    4.6590   56.3340 C   0  0  0  0  0  0  0  0  0  0  0  0
   20.9170    4.5210   55.4530 C   0  0  0  0  0  0  0  0  0  0  0  0
   19.7030    5.1380   55.7810 C   0  0  0  0  0  0  0  0  0  0  0  0
   18.6110    5.0310   54.9170 C   0  0  0  0  0  0  0  0  0  0  0  0
   18.7290    4.3110   53.7280 C   0  0  0  0  0  0  0  0  0  0  0  0
   19.9360    3.6930   53.4020 C   0  0  0  0  0  0  0  0  0  0  0  0
   21.0300    3.7970   54.2610 C   0  0  0  0  0  0  0  0  0  0  0  0
   22.8220    3.6310   57.0250 C   0  0  0  0  0  0  0  0  0  0  0  0
   22.6700    2.1650   56.9770 C   0  0  0  0  0  0  0  0  0  0  0  0
   23.4790    1.4610   56.3700 O   0  0  0  0  0  0  0  0  0  0  0  0
   21.5670    1.6350   57.5990 N   0  0  0  0  0  0  0  0  0  0  0  0
   21.2190    0.2380   57.4960 C   0  0  0  0  0  0  0  0  0  0  0  0
   19.9180   -0.0340   58.2060 C   0  0  0  0  0  0  0  0  0  0  0  0
   19.1610    1.0260   58.7250 C   0  0  0  0  0  0  0  0  0  0  0  0
   17.9700    0.7770   59.4090 C   0  0  0  0  0  0  0  0  0  0  0  0
   17.5290   -0.5340   59.5850 C   0  0  0  0  0  0  0  0  0  0  0  0
   18.2780   -1.5950   59.0830 C   0  0  0  0  0  0  0  0  0  0  0  0
   19.4700   -1.3490   58.4000 C   0  0  0  0  0  0  0  0  0  0  0  0
   26.4172    2.2475   59.7755 H   0  0  0  0  0  0  0  0  0  0  0  0
   26.5148    3.2250   61.2840 H   0  0  0  0  0  0  0  0  0  0  0  0
   25.8632    0.9550   61.8709 H   0  0  0  0  0  0  0  0  0  0  0  0
   24.4467    2.0463   62.1033 H   0  0  0  0  0  0  0  0  0  0  0  0
   24.8770    0.0130   60.0230 H   0  0  0  0  0  0  0  0  0  0  0  0
   23.4036   -1.7975   60.4801 H   0  0  0  0  0  0  0  0  0  0  0  0
   21.1696   -2.5119   61.3117 H   0  0  0  0  0  0  0  0  0  0  0  0
   19.5684   -0.8258   62.2113 H   0  0  0  0  0  0  0  0  0  0  0  0
   20.2247    1.5785   62.2985 H   0  0  0  0  0  0  0  0  0  0  0  0
   22.4548    2.2919   61.4636 H   0  0  0  0  0  0  0  0  0  0  0  0
   25.2330    2.8270   58.1840 H   0  0  0  0  0  0  0  0  0  0  0  0
   22.1032    6.8472   56.1995 H   0  0  0  0  0  0  0  0  0  0  0  0
   19.6098    5.7063   56.7182 H   0  0  0  0  0  0  0  0  0  0  0  0
   17.6572    5.5148   55.1742 H   0  0  0  0  0  0  0  0  0  0  0  0
   17.8691    4.2306   53.0468 H   0  0  0  0  0  0  0  0  0  0  0  0
   20.0254    3.1225   52.4658 H   0  0  0  0  0  0  0  0  0  0  0  0
   21.9815    3.3099   54.0014 H   0  0  0  0  0  0  0  0  0  0  0  0
   20.8350    2.2550   57.9110 H   0  0  0  0  0  0  0  0  0  0  0  0
   21.1160   -0.0324   56.4347 H   0  0  0  0  0  0  0  0  0  0  0  0
   22.0129   -0.3625   57.9642 H   0  0  0  0  0  0  0  0  0  0  0  0
   19.5082    2.0613   58.5922 H   0  0  0  0  0  0  0  0  0  0  0  0
   17.3797    1.6146   59.8090 H   0  0  0  0  0  0  0  0  0  0  0  0
   16.5886   -0.7302   60.1209 H   0  0  0  0  0  0  0  0  0  0  0  0
   17.9297   -2.6287   59.2249 H   0  0  0  0  0  0  0  0  0  0  0  0
   20.0615   -2.1912   58.0116 H   0  0  0  0  0  0  0  0  0  0  0  0
  1  2  2  0
  2  3  1  0
  3  4  1  0
  4  5  1  0
  5  6  1  0
  6  7  2  0
  7  8  1  0
  8  9  2  0
  9 10  1  0
 10 11  2  0
  2 12  1  0
 12 13  1  0
 13 14  1  0
 14 15  1  0
 15 16  2  0
 16 17  1  0
 17 18  2  0
 18 19  1  0
 19 20  2  0
 20 21  1  0
 21 22  2  0
 16 23  1  0
 23 24  1  0
 24 25  2  0
 24 26  1  0
 26 27  1  0
 27 28  1  0
 28 29  2  0
 29 30  1  0
 30 31  2  0
 31 32  1  0
 32 33  2  0
 11  6  1  0
 23 13  2  0
 33 28  1  0
 22 17  1  0
  3 34  1  0
  3 35  1  0
  4 36  1  0
  4 37  1  0
  5 38  1  0
  7 39  1  0
  8 40  1  0
  9 41  1  0
 10 42  1  0
 11 43  1  0
 12 44  1  0
 15 45  1  0
 18 46  1  0
 19 47  1  0
 20 48  1  0
 21 49  1  0
 22 50  1  0
 26 51  1  0
 27 52  1  0
 27 53  1  0
 29 54  1  0
 30 55  1  0
 31 56  1  0
 32 57  1  0
 33 58  1  0
M  END
>  <meeko>  (7) 
{"is_sidechain": [false], "free_energy": -9.017, "intermolecular_energy": -12.31, "internal_energy": -3.353}

$$$$
3wz8_ligand
     RDKit          3D

 58 61  0  0  0  0  0  0  0  0999 V2000
   18.7770    0.7740   56.5500 O   0  0  0  0  0  0  0  0  0  0  0  0
   19.5260    0.1370   55.8170 C   0  0  0  0  0  0  0  0  0  0  0  0
   19.2680    0.0980   54.3240 C   0  0  0  0  0  0  0  0  0  0  0  0
   17.8600    0.5980   54.0250 C   0  0  0  0  0  0  0  0  0  0  0  0
   17.8260    1.2840   52.7360 N   0  0  0  0  0  0  0  0  0  0  0  0
   17.6360    2.6700   52.6990 C   0  0  0  0  0  0  0  0  0  0  0  0
   16.4010    3.2800   52.4460 C   0  0  0  0  0  0  0  0  0  0  0  0
   16.2550    4.6710   52.4930 C   0  0  0  0  0  0  0  0  0  0  0  0
   17.3400    5.4770   52.8220 C   0  0  0  0  0  0  0  0  0  0  0  0
   18.5660    4.8910   53.1180 C   0  0  0  0  0  0  0  0  0  0  0  0
   18.7050    3.5010   53.0700 C   0  0  0  0  0  0  0  0  0  0  0  0
   20.6660   -0.5600   56.1710 N   0  0  0  0  0  0  0  0  0  0  0  0
   21.2320   -0.6860   57.4330 C   0  0  0  0  0  0  0  0  0  0  0  0
   20.8090   -1.9600   58.4670 S   0  0  0  0  0  0  0  0  0  0  0  0
   21.8270   -1.3890   59.7020 C   0  0  0  0  0  0  0  0  0  0  0  0
   22.5020   -0.2410   59.3380 C   0  0  0  0  0  0  0  0  0  0  0  0
   23.3730    0.3950   60.3140 C   0  0  0  0  0  0  0  0  0  0  0  0
   22.8370    1.2590   61.2770 C   0  0  0  0  0  0  0  0  0  0  0  0
   23.6710    1.8420   62.2330 C   0  0  0  0  0  0  0  0  0  0  0  0
   25.0380    1.5640   62.2300 C   0  0  0  0  0  0  0  0  0  0  0  0
   25.5750    0.7070   61.2690 C   0  0  0  0  0  0  0  0  0  0  0  0
   24.7460    0.1220   60.3120 C   0  0  0  0  0  0  0  0  0  0  0  0
   22.1770    0.1770   57.9870 C   0  0  0  0  0  0  0  0  0  0  0  0
   22.6880    1.3240   57.2130 C   0  0  0  0  0  0  0  0  0  0  0  0
   23.4050    1.1580   56.2260 O   0  0  0  0  0  0  0  0  0  0  0  0
   22.3610    2.5760   57.6730 N   0  0  0  0  0  0  0  0  0  0  0  0
   22.9200    3.7780   57.1020 C   0  0  0  0  0  0  0  0  0  0  0  0
   23.7290    4.5230   58.1310 C   0  0  0  0  0  0  0  0  0  0  0  0
   23.9080    5.9100   58.0230 C   0  0  0  0  0  0  0  0  0  0  0  0
   24.6810    6.5990   58.9570 C   0  0  0  0  0  0  0  0  0  0  0  0
   25.2870    5.9090   60.0050 C   0  0  0  0  0  0  0  0  0  0  0  0
   25.1260    4.5300   60.1180 C   0  0  0  0  0  0  0  0  0  0  0  0
   24.3540    3.8380   59.1830 C   0  0  0  0  0  0  0  0  0  0  0  0
   19.9991    0.7402   53.8111 H   0  0  0  0  0  0  0  0  0  0  0  0
   19.3665   -0.9380   53.9676 H   0  0  0  0  0  0  0  0  0  0  0  0
   17.1695   -0.2579   53.9983 H   0  0  0  0  0  0  0  0  0  0  0  0
   17.5573    1.3036   54.8127 H   0  0  0  0  0  0  0  0  0  0  0  0
   17.2280    0.8120   52.0520 H   0  0  0  0  0  0  0  0  0  0  0  0
   15.5291    2.6538   52.2058 H   0  0  0  0  0  0  0  0  0  0  0  0
   15.2798    5.1282   52.2692 H   0  0  0  0  0  0  0  0  0  0  0  0
   17.2289    6.5711   52.8479 H   0  0  0  0  0  0  0  0  0  0  0  0
   19.4258    5.5210   53.3897 H   0  0  0  0  0  0  0  0  0  0  0  0
   19.6735    3.0481   53.3287 H   0  0  0  0  0  0  0  0  0  0  0  0
   21.1940   -1.0310   55.4350 H   0  0  0  0  0  0  0  0  0  0  0  0
   21.9359   -1.8788   60.6809 H   0  0  0  0  0  0  0  0  0  0  0  0
   21.7591    1.4783   61.2802 H   0  0  0  0  0  0  0  0  0  0  0  0
   23.2499    2.5210   62.9891 H   0  0  0  0  0  0  0  0  0  0  0  0
   25.6932    2.0210   62.9862 H   0  0  0  0  0  0  0  0  0  0  0  0
   26.6538    0.4923   61.2660 H   0  0  0  0  0  0  0  0  0  0  0  0
   25.1711   -0.5540   59.5555 H   0  0  0  0  0  0  0  0  0  0  0  0
   21.9430    2.6700   58.5860 H   0  0  0  0  0  0  0  0  0  0  0  0
   23.5696    3.5089   56.2561 H   0  0  0  0  0  0  0  0  0  0  0  0
   22.0989    4.4243   56.7584 H   0  0  0  0  0  0  0  0  0  0  0  0
   23.4349    6.4585   57.1951 H   0  0  0  0  0  0  0  0  0  0  0  0
   24.8124    7.6874   58.8664 H   0  0  0  0  0  0  0  0  0  0  0  0
   25.8931    6.4538   60.7438 H   0  0  0  0  0  0  0  0  0  0  0  0
   25.6073    3.9861   60.9442 H   0  0  0  0  0  0  0  0  0  0  0  0
   24.2352    2.7481   59.2721 H   0  0  0  0  0  0  0  0  0  0  0  0
  1  2  2  0
  2  3  1  0
  3  4  1  0
  4  5  1  0
  5  6  1  0
  6  7  2  0
  7  8  1  0
  8  9  2  0
  9 10  1  0
 10 11  2  0
  2 12  1  0
 12 13  1  0
 13 14  1  0
 14 15  1  0
 15 16  2  0
 16 17  1  0
 17 18  2  0
 18 19  1  0
 19 20  2  0
 20 21  1  0
 21 22  2  0
 16 23  1  0
 23 24  1  0
 24 25  2  0
 24 26  1  0
 26 27  1  0
 27 28  1  0
 28 29  2  0
 29 30  1  0
 30 31  2  0
 31 32  1  0
 32 33  2  0
 11  6  1  0
 23 13  2  0
 33 28  1  0
 22 17  1  0
  3 34  1  0
  3 35  1  0
  4 36  1  0
  4 37  1  0
  5 38  1  0
  7 39  1  0
  8 40  1  0
  9 41  1  0
 10 42  1  0
 11 43  1  0
 12 44  1  0
 15 45  1  0
 18 46  1  0
 19 47  1  0
 20 48  1  0
 21 49  1  0
 22 50  1  0
 26 51  1  0
 27 52  1  0
 27 53  1  0
 29 54  1  0
 30 55  1  0
 31 56  1  0
 32 57  1  0
 33 58  1  0
M  END
>  <meeko>  (8) 
{"is_sidechain": [false], "free_energy": -8.908, "intermolecular_energy": -13.02, "internal_energy": -2.477}

$$$$
3wz8_ligand
     RDKit          3D

 58 61  0  0  0  0  0  0  0  0999 V2000
   20.1140   -2.8790   56.6420 O   0  0  0  0  0  0  0  0  0  0  0  0
   19.3930   -1.9010   56.8120 C   0  0  0  0  0  0  0  0  0  0  0  0
   18.2430   -1.6350   55.8620 C   0  0  0  0  0  0  0  0  0  0  0  0
   18.1560   -0.1470   55.5520 C   0  0  0  0  0  0  0  0  0  0  0  0
   19.3520    0.2960   54.8390 N   0  0  0  0  0  0  0  0  0  0  0  0
   19.3670    1.5610   54.2390 C   0  0  0  0  0  0  0  0  0  0  0  0
   18.8220    1.8290   52.9770 C   0  0  0  0  0  0  0  0  0  0  0  0
   18.8020    3.1290   52.4580 C   0  0  0  0  0  0  0  0  0  0  0  0
   19.3030    4.1890   53.2060 C   0  0  0  0  0  0  0  0  0  0  0  0
   19.8110    3.9520   54.4790 C   0  0  0  0  0  0  0  0  0  0  0  0
   19.8280    2.6510   54.9920 C   0  0  0  0  0  0  0  0  0  0  0  0
   19.4580   -0.9700   57.8320 N   0  0  0  0  0  0  0  0  0  0  0  0
   20.3400   -0.9380   58.9040 C   0  0  0  0  0  0  0  0  0  0  0  0
   20.1030   -1.9130   60.2690 S   0  0  0  0  0  0  0  0  0  0  0  0
   21.4750   -1.2800   61.0470 C   0  0  0  0  0  0  0  0  0  0  0  0
   22.1290   -0.3380   60.2760 C   0  0  0  0  0  0  0  0  0  0  0  0
   23.2950    0.3310   60.8320 C   0  0  0  0  0  0  0  0  0  0  0  0
   24.5800   -0.0210   60.4000 C   0  0  0  0  0  0  0  0  0  0  0  0
   25.6940    0.6460   60.9110 C   0  0  0  0  0  0  0  0  0  0  0  0
   25.5280    1.6630   61.8520 C   0  0  0  0  0  0  0  0  0  0  0  0
   24.2500    2.0130   62.2860 C   0  0  0  0  0  0  0  0  0  0  0  0
   23.1330    1.3500   61.7780 C   0  0  0  0  0  0  0  0  0  0  0  0
   21.4810   -0.1400   58.9920 C   0  0  0  0  0  0  0  0  0  0  0  0
   21.8620    0.7480   57.8790 C   0  0  0  0  0  0  0  0  0  0  0  0
   21.9590    0.3190   56.7270 O   0  0  0  0  0  0  0  0  0  0  0  0
   22.1420    2.0540   58.1950 N   0  0  0  0  0  0  0  0  0  0  0  0
   22.6720    2.9860   57.2290 C   0  0  0  0  0  0  0  0  0  0  0  0
   23.4530    4.0730   57.9200 C   0  0  0  0  0  0  0  0  0  0  0  0
   24.1550    3.7980   59.1020 C   0  0  0  0  0  0  0  0  0  0  0  0
   24.8550    4.8090   59.7620 C   0  0  0  0  0  0  0  0  0  0  0  0
   24.8540    6.1060   59.2500 C   0  0  0  0  0  0  0  0  0  0  0  0
   24.1510    6.3940   58.0820 C   0  0  0  0  0  0  0  0  0  0  0  0
   23.4490    5.3840   57.4210 C   0  0  0  0  0  0  0  0  0  0  0  0
   18.4059   -2.1926   54.9279 H   0  0  0  0  0  0  0  0  0  0  0  0
   17.3037   -1.9609   56.3326 H   0  0  0  0  0  0  0  0  0  0  0  0
   17.2707    0.0418   54.9269 H   0  0  0  0  0  0  0  0  0  0  0  0
   18.0774    0.4102   56.4972 H   0  0  0  0  0  0  0  0  0  0  0  0
   19.7200   -0.4180   54.2030 H   0  0  0  0  0  0  0  0  0  0  0  0
   18.4023    1.0036   52.3832 H   0  0  0  0  0  0  0  0  0  0  0  0
   18.3887    3.3127   51.4553 H   0  0  0  0  0  0  0  0  0  0  0  0
   19.2976    5.2087   52.7934 H   0  0  0  0  0  0  0  0  0  0  0  0
   20.1988    4.7867   55.0814 H   0  0  0  0  0  0  0  0  0  0  0  0
   20.2114    2.4787   56.0085 H   0  0  0  0  0  0  0  0  0  0  0  0
   18.7710   -0.2150   57.8420 H   0  0  0  0  0  0  0  0  0  0  0  0
   21.8051   -1.5856   62.0508 H   0  0  0  0  0  0  0  0  0  0  0  0
   24.7109   -0.8228   59.6584 H   0  0  0  0  0  0  0  0  0  0  0  0
   26.7034    0.3701   60.5720 H   0  0  0  0  0  0  0  0  0  0  0  0
   26.4070    2.1895   62.2521 H   0  0  0  0  0  0  0  0  0  0  0  0
   24.1225    2.8131   63.0300 H   0  0  0  0  0  0  0  0  0  0  0  0
   22.1253    1.6277   62.1206 H   0  0  0  0  0  0  0  0  0  0  0  0
   22.2410    2.3130   59.1650 H   0  0  0  0  0  0  0  0  0  0  0  0
   23.3348    2.4496   56.5340 H   0  0  0  0  0  0  0  0  0  0  0  0
   21.8362    3.4426   56.6787 H   0  0  0  0  0  0  0  0  0  0  0  0
   24.1541    2.7774   59.5124 H   0  0  0  0  0  0  0  0  0  0  0  0
   25.4074    4.5827   60.6859 H   0  0  0  0  0  0  0  0  0  0  0  0
   25.4084    6.9021   59.7684 H   0  0  0  0  0  0  0  0  0  0  0  0
   24.1490    7.4180   57.6802 H   0  0  0  0  0  0  0  0  0  0  0  0
   22.8894    5.6179   56.5033 H   0  0  0  0  0  0  0  0  0  0  0  0
  1  2  2  0
  2  3  1  0
  3  4  1  0
  4  5  1  0
  5  6  1  0
  6  7  2  0
  7  8  1  0
  8  9  2  0
  9 10  1  0
 10 11  2  0
  2 12  1  0
 12 13  1  0
 13 14  1  0
 14 15  1  0
 15 16  2  0
 16 17  1  0
 17 18  2  0
 18 19  1  0
 19 20  2  0
 20 21  1  0
 21 22  2  0
 16 23  1  0
 23 24  1  0
 24 25  2  0
 24 26  1  0
 26 27  1  0
 27 28  1  0
 28 29  2  0
 29 30  1  0
 30 31  2  0
 31 32  1  0
 32 33  2  0
 11  6  1  0
 23 13  2  0
 33 28  1  0
 22 17  1  0
  3 34  1  0
  3 35  1  0
  4 36  1  0
  4 37  1  0
  5 38  1  0
  7 39  1  0
  8 40  1  0
  9 41  1  0
 10 42  1  0
 11 43  1  0
 12 44  1  0
 15 45  1  0
 18 46  1  0
 19 47  1  0
 20 48  1  0
 21 49  1  0
 22 50  1  0
 26 51  1  0
 27 52  1  0
 27 53  1  0
 29 54  1  0
 30 55  1  0
 31 56  1  0
 32 57  1  0
 33 58  1  0
M  END
>  <meeko>  (9) 
{"is_sidechain": [false], "free_energy": -8.88, "intermolecular_energy": -12.594, "internal_energy": -2.86}

$$$$
