1vso_ligand
     RDKit          3D

 38 38  0  0  0  0  0  0  0  0999 V2000
   41.6230    7.6560    9.0980 C   0  0  0  0  0  0  0  0  0  0  0  0
   40.3310    7.8480    8.2840 C   0  0  0  0  0  0  0  0  0  0  0  0
   39.5030    8.9680    8.9540 C   0  0  0  0  0  0  0  0  0  0  0  0
   40.6880    8.3300    6.8720 C   0  0  0  0  0  0  0  0  0  0  0  0
   39.5620    6.5460    8.2560 C   0  0  0  0  0  0  0  0  0  0  0  0
   39.3070    5.9940    9.4830 O   0  0  0  0  0  0  0  0  0  0  0  0
   38.7250    4.7530    9.3390 N   0  0  0  0  0  0  0  0  0  0  0  0
   38.5680    4.6000    8.0240 C   0  0  0  0  0  0  0  0  0  0  0  0
   38.2020    3.3910    7.5610 O   0  0  0  0  0  0  0  0  0  0  0  0
   38.1460    2.4030    8.5990 C   0  0  0  0  0  0  0  0  0  0  0  0
   36.3960    1.7510    8.6950 P   0  0  0  0  0  0  0  0  0  0  0  0
   36.0440    1.3040    7.2740 O   0  0  0  0  0  0  0  0  0  0  0  0
   35.5740    2.9000    9.2380 O   0  0  0  0  0  0  0  0  0  0  0  0
   36.4780    0.5070    9.5870 O   0  0  0  0  0  0  0  0  0  0  0  0
   39.0990    5.6780    7.2740 C   0  0  0  0  0  0  0  0  0  0  0  0
   39.2120    5.7620    5.7780 C   0  0  0  0  0  0  0  0  0  0  0  0
   40.2360    4.8090    5.1490 C   0  0  2  0  0  0  0  0  0  0  0  0
   41.6190    5.2530    5.4200 N   0  0  0  0  0  0  0  0  0  0  0  0
   39.9490    4.5340    3.6360 C   0  0  0  0  0  0  0  0  0  0  0  0
   40.9300    4.5820    2.8420 O   0  0  0  0  0  0  0  0  0  0  0  0
   38.7210    4.3440    3.3720 O   0  0  0  0  0  0  0  0  0  0  0  0
   41.3883    7.6909   10.1721 H   0  0  0  0  0  0  0  0  0  0  0  0
   42.0701    6.6816    8.8518 H   0  0  0  0  0  0  0  0  0  0  0  0
   42.3341    8.4583    8.8518 H   0  0  0  0  0  0  0  0  0  0  0  0
   39.5738    8.8722   10.0475 H   0  0  0  0  0  0  0  0  0  0  0  0
   39.8952    9.9484    8.6457 H   0  0  0  0  0  0  0  0  0  0  0  0
   38.4507    8.8805    8.6457 H   0  0  0  0  0  0  0  0  0  0  0  0
   41.3415    9.2123    6.9400 H   0  0  0  0  0  0  0  0  0  0  0  0
   41.2110    7.5271    6.3318 H   0  0  0  0  0  0  0  0  0  0  0  0
   39.7675    8.5962    6.3318 H   0  0  0  0  0  0  0  0  0  0  0  0
   38.8375    1.5797    8.3666 H   0  0  0  0  0  0  0  0  0  0  0  0
   38.4382    2.8477    9.5617 H   0  0  0  0  0  0  0  0  0  0  0  0
   38.2254    5.5341    5.3483 H   0  0  0  0  0  0  0  0  0  0  0  0
   39.5626    6.7802    5.5537 H   0  0  0  0  0  0  0  0  0  0  0  0
   40.1247    3.8305    5.6391 H   0  0  0  0  0  0  0  0  0  0  0  0
   42.2630    4.5740    5.9250 H   0  0  0  0  0  0  0  0  0  0  0  0
   42.2340    5.3400    4.5590 H   0  0  0  0  0  0  0  0  0  0  0  0
   41.6640    6.1200    5.9530 H   0  0  0  0  0  0  0  0  0  0  0  0
  1  2  1  0
  2  3  1  0
  2  4  1  0
  2  5  1  0
  5  6  1  0
  6  7  1  0
  7  8  2  0
  8  9  1  0
  9 10  1  0
 10 11  1  0
 11 12  2  0
 11 13  1  0
 11 14  1  0
  8 15  1  0
 15 16  1  0
 16 17  1  0
 17 18  1  0
 17 19  1  0
 19 20  2  0
 19 21  1  0
 15  5  2  0
  1 22  1  0
  1 23  1  0
  1 24  1  0
  3 25  1  0
  3 26  1  0
  3 27  1  0
  4 28  1  0
  4 29  1  0
  4 30  1  0
 10 31  1  0
 10 32  1  0
 16 33  1  0
 16 34  1  0
 17 35  1  1
 18 36  1  0
 18 37  1  0
 18 38  1  0
M  CHG  4  13  -1  14  -1  18   1  21  -1
M  END
>  <meeko>  (1) 
{"is_sidechain": [false], "free_energy": -7.276, "intermolecular_energy": -10.466, "internal_energy": -0.511}

$$$$
1vso_ligand
     RDKit          3D

 38 38  0  0  0  0  0  0  0  0999 V2000
   37.3460    7.5940   11.0070 C   0  0  0  0  0  0  0  0  0  0  0  0
   37.2700    6.1130   10.5920 C   0  0  0  0  0  0  0  0  0  0  0  0
   38.0290    5.2780   11.6490 C   0  0  0  0  0  0  0  0  0  0  0  0
   35.8060    5.6540   10.6160 C   0  0  0  0  0  0  0  0  0  0  0  0
   37.8900    5.9480    9.2220 C   0  0  0  0  0  0  0  0  0  0  0  0
   37.1060    5.3040    8.3030 O   0  0  0  0  0  0  0  0  0  0  0  0
   37.8120    5.0880    7.1390 N   0  0  0  0  0  0  0  0  0  0  0  0
   38.9940    5.6710    7.3430 C   0  0  0  0  0  0  0  0  0  0  0  0
   39.9760    5.4530    6.4500 O   0  0  0  0  0  0  0  0  0  0  0  0
   39.5820    5.7880    5.1120 C   0  0  0  0  0  0  0  0  0  0  0  0
   39.8540    4.2890    4.0270 P   0  0  0  0  0  0  0  0  0  0  0  0
   38.5530    4.1090    3.2400 O   0  0  0  0  0  0  0  0  0  0  0  0
   40.1970    3.1650    4.9810 O   0  0  0  0  0  0  0  0  0  0  0  0
   40.9600    4.6960    3.0470 O   0  0  0  0  0  0  0  0  0  0  0  0
   39.1280    6.2090    8.6460 C   0  0  0  0  0  0  0  0  0  0  0  0
   40.3670    6.8080    9.2480 C   0  0  0  0  0  0  0  0  0  0  0  0
   40.9460    8.0070    8.4850 C   0  0  2  0  0  0  0  0  0  0  0  0
   41.8790    7.5680    7.4260 N   0  0  0  0  0  0  0  0  0  0  0  0
   41.5420    9.0930    9.4380 C   0  0  0  0  0  0  0  0  0  0  0  0
   42.6160    8.8100   10.0410 O   0  0  0  0  0  0  0  0  0  0  0  0
   40.8270   10.1390    9.5380 O   0  0  0  0  0  0  0  0  0  0  0  0
   37.3498    7.6675   12.1045 H   0  0  0  0  0  0  0  0  0  0  0  0
   38.2682    8.0402   10.6065 H   0  0  0  0  0  0  0  0  0  0  0  0
   36.4743    8.1322   10.6065 H   0  0  0  0  0  0  0  0  0  0  0  0
   37.7321    5.6046   12.6566 H   0  0  0  0  0  0  0  0  0  0  0  0
   37.7828    4.2135   11.5212 H   0  0  0  0  0  0  0  0  0  0  0  0
   39.1121    5.4218   11.5212 H   0  0  0  0  0  0  0  0  0  0  0  0
   35.4717    5.5492   11.6587 H   0  0  0  0  0  0  0  0  0  0  0  0
   35.1797    6.3989   10.1033 H   0  0  0  0  0  0  0  0  0  0  0  0
   35.7171    4.6849   10.1033 H   0  0  0  0  0  0  0  0  0  0  0  0
   38.5189    6.0701    5.0969 H   0  0  0  0  0  0  0  0  0  0  0  0
   40.1772    6.6362    4.7428 H   0  0  0  0  0  0  0  0  0  0  0  0
   40.1247    7.1383   10.2689 H   0  0  0  0  0  0  0  0  0  0  0  0
   41.1358    6.0220    9.2133 H   0  0  0  0  0  0  0  0  0  0  0  0
   40.1126    8.5101    7.9728 H   0  0  0  0  0  0  0  0  0  0  0  0
   41.7910    6.5670    7.0780 H   0  0  0  0  0  0  0  0  0  0  0  0
   41.7110    8.0110    6.4760 H   0  0  0  0  0  0  0  0  0  0  0  0
   42.8580    7.6840    7.6820 H   0  0  0  0  0  0  0  0  0  0  0  0
  1  2  1  0
  2  3  1  0
  2  4  1  0
  2  5  1  0
  5  6  1  0
  6  7  1  0
  7  8  2  0
  8  9  1  0
  9 10  1  0
 10 11  1  0
 11 12  2  0
 11 13  1  0
 11 14  1  0
  8 15  1  0
 15 16  1  0
 16 17  1  0
 17 18  1  0
 17 19  1  0
 19 20  2  0
 19 21  1  0
 15  5  2  0
  1 22  1  0
  1 23  1  0
  1 24  1  0
  3 25  1  0
  3 26  1  0
  3 27  1  0
  4 28  1  0
  4 29  1  0
  4 30  1  0
 10 31  1  0
 10 32  1  0
 16 33  1  0
 16 34  1  0
 17 35  1  6
 18 36  1  0
 18 37  1  0
 18 38  1  0
M  CHG  4  13  -1  14  -1  18   1  21  -1
M  END
>  <meeko>  (2) 
{"is_sidechain": [false], "free_energy": -6.888, "intermolecular_energy": -9.508, "internal_energy": -0.911}

$$$$
1vso_ligand
     RDKit          3D

 38 38  0  0  0  0  0  0  0  0999 V2000
   35.0730    3.9520    5.5820 C   0  0  0  0  0  0  0  0  0  0  0  0
   36.5510    4.1230    5.1880 C   0  0  0  0  0  0  0  0  0  0  0  0
   37.2410    2.7440    5.3000 C   0  0  0  0  0  0  0  0  0  0  0  0
   36.6370    4.5560    3.7190 C   0  0  0  0  0  0  0  0  0  0  0  0
   37.1990    5.1310    6.1120 C   0  0  0  0  0  0  0  0  0  0  0  0
   36.4880    5.4240    7.2450 O   0  0  0  0  0  0  0  0  0  0  0  0
   37.0970    6.4440    7.9430 N   0  0  0  0  0  0  0  0  0  0  0  0
   38.2120    6.7070    7.2590 C   0  0  0  0  0  0  0  0  0  0  0  0
   38.9200    7.8020    7.5910 O   0  0  0  0  0  0  0  0  0  0  0  0
   39.5760    7.6650    8.8590 C   0  0  0  0  0  0  0  0  0  0  0  0
   41.3440    8.2440    8.6720 P   0  0  0  0  0  0  0  0  0  0  0  0
   42.1330    7.5170    9.7640 O   0  0  0  0  0  0  0  0  0  0  0  0
   41.2850    9.7510    8.8060 O   0  0  0  0  0  0  0  0  0  0  0  0
   41.8000    7.7110    7.3090 O   0  0  0  0  0  0  0  0  0  0  0  0
   38.3300    5.9390    6.0750 C   0  0  0  0  0  0  0  0  0  0  0  0
   39.3830    6.0800    5.0140 C   0  0  0  0  0  0  0  0  0  0  0  0
   40.3600    4.9020    4.9070 C   0  0  2  0  0  0  0  0  0  0  0  0
   41.7060    5.2760    5.3880 N   0  0  0  0  0  0  0  0  0  0  0  0
   40.3590    4.2490    3.4860 C   0  0  0  0  0  0  0  0  0  0  0  0
   40.5720    5.0080    2.4990 O   0  0  0  0  0  0  0  0  0  0  0  0
   40.0830    3.0080    3.4890 O   0  0  0  0  0  0  0  0  0  0  0  0
   34.9846    3.9418    6.6784 H   0  0  0  0  0  0  0  0  0  0  0  0
   34.4858    4.7882    5.1746 H   0  0  0  0  0  0  0  0  0  0  0  0
   34.6923    3.0038    5.1746 H   0  0  0  0  0  0  0  0  0  0  0  0
   37.3710    2.4841    6.3609 H   0  0  0  0  0  0  0  0  0  0  0  0
   36.6182    1.9815    4.8094 H   0  0  0  0  0  0  0  0  0  0  0  0
   38.2247    2.7853    4.8094 H   0  0  0  0  0  0  0  0  0  0  0  0
   36.8511    5.6337    3.6663 H   0  0  0  0  0  0  0  0  0  0  0  0
   37.4418    3.9974    3.2186 H   0  0  0  0  0  0  0  0  0  0  0  0
   35.6799    4.3474    3.2186 H   0  0  0  0  0  0  0  0  0  0  0  0
   39.0612    8.2795    9.6123 H   0  0  0  0  0  0  0  0  0  0  0  0
   39.5540    6.6147    9.1852 H   0  0  0  0  0  0  0  0  0  0  0  0
   38.8766    6.1921    4.0439 H   0  0  0  0  0  0  0  0  0  0  0  0
   39.9872    6.9548    5.2960 H   0  0  0  0  0  0  0  0  0  0  0  0
   40.0010    4.1100    5.5807 H   0  0  0  0  0  0  0  0  0  0  0  0
   42.0470    6.2610    5.1760 H   0  0  0  0  0  0  0  0  0  0  0  0
   41.7870    5.3760    6.4420 H   0  0  0  0  0  0  0  0  0  0  0  0
   42.4390    4.6540    5.0530 H   0  0  0  0  0  0  0  0  0  0  0  0
  1  2  1  0
  2  3  1  0
  2  4  1  0
  2  5  1  0
  5  6  1  0
  6  7  1  0
  7  8  2  0
  8  9  1  0
  9 10  1  0
 10 11  1  0
 11 12  2  0
 11 13  1  0
 11 14  1  0
  8 15  1  0
 15 16  1  0
 16 17  1  0
 17 18  1  0
 17 19  1  0
 19 20  2  0
 19 21  1  0
 15  5  2  0
  1 22  1  0
  1 23  1  0
  1 24  1  0
  3 25  1  0
  3 26  1  0
  3 27  1  0
  4 28  1  0
  4 29  1  0
  4 30  1  0
 10 31  1  0
 10 32  1  0
 16 33  1  0
 16 34  1  0
 17 35  1  1
 18 36  1  0
 18 37  1  0
 18 38  1  0
M  CHG  4  13  -1  14  -1  18   1  21  -1
M  END
>  <meeko>  (3) 
{"is_sidechain": [false], "free_energy": -6.858, "intermolecular_energy": -9.287, "internal_energy": -1.09}

$$$$
1vso_ligand
     RDKit          3D

 38 38  0  0  0  0  0  0  0  0999 V2000
   37.2870    5.4470    5.2090 C   0  0  0  0  0  0  0  0  0  0  0  0
   38.6870    4.9250    5.5810 C   0  0  0  0  0  0  0  0  0  0  0  0
   38.7010    3.3930    5.3690 C   0  0  0  0  0  0  0  0  0  0  0  0
   39.7230    5.5250    4.6220 C   0  0  0  0  0  0  0  0  0  0  0  0
   38.9830    5.2760    7.0230 C   0  0  0  0  0  0  0  0  0  0  0  0
   38.7440    4.2760    7.9260 O   0  0  0  0  0  0  0  0  0  0  0  0
   38.9150    4.7410    9.2120 N   0  0  0  0  0  0  0  0  0  0  0  0
   39.3290    6.0010    9.0670 C   0  0  0  0  0  0  0  0  0  0  0  0
   39.3890    6.7830   10.1610 O   0  0  0  0  0  0  0  0  0  0  0  0
   38.2080    6.6850   10.9680 C   0  0  0  0  0  0  0  0  0  0  0  0
   37.4270    8.3810   11.0730 P   0  0  0  0  0  0  0  0  0  0  0  0
   38.1410    9.2300   10.0180 O   0  0  0  0  0  0  0  0  0  0  0  0
   37.6260    8.8220   12.5070 O   0  0  0  0  0  0  0  0  0  0  0  0
   35.9720    8.1820   10.6300 O   0  0  0  0  0  0  0  0  0  0  0  0
   39.3670    6.4190    7.7140 C   0  0  0  0  0  0  0  0  0  0  0  0
   39.6520    7.8050    7.2100 C   0  0  0  0  0  0  0  0  0  0  0  0
   41.1390    8.1720    7.1250 C   0  0  2  0  0  0  0  0  0  0  0  0
   41.9380    7.0520    6.5850 N   0  0  0  0  0  0  0  0  0  0  0  0
   41.6930    8.7470    8.4700 C   0  0  0  0  0  0  0  0  0  0  0  0
   42.6800    8.1550    8.9910 O   0  0  0  0  0  0  0  0  0  0  0  0
   41.0320    9.7360    8.9180 O   0  0  0  0  0  0  0  0  0  0  0  0
   36.7188    5.6588    6.1268 H   0  0  0  0  0  0  0  0  0  0  0  0
   37.3848    6.3691    4.6172 H   0  0  0  0  0  0  0  0  0  0  0  0
   36.7572    4.6860    4.6172 H   0  0  0  0  0  0  0  0  0  0  0  0
   38.7056    2.8877    6.3460 H   0  0  0  0  0  0  0  0  0  0  0  0
   37.8056    3.0927    4.8051 H   0  0  0  0  0  0  0  0  0  0  0  0
   39.6018    3.1091    4.8051 H   0  0  0  0  0  0  0  0  0  0  0  0
   40.5317    5.9934    5.2022 H   0  0  0  0  0  0  0  0  0  0  0  0
   40.1402    4.7287    3.9881 H   0  0  0  0  0  0  0  0  0  0  0  0
   39.2400    6.2832    3.9881 H   0  0  0  0  0  0  0  0  0  0  0  0
   37.5014    5.9778   10.5091 H   0  0  0  0  0  0  0  0  0  0  0  0
   38.4653    6.3230   11.9744 H   0  0  0  0  0  0  0  0  0  0  0  0
   39.2199    7.8971    6.2026 H   0  0  0  0  0  0  0  0  0  0  0  0
   39.2068    8.4953    7.9417 H   0  0  0  0  0  0  0  0  0  0  0  0
   41.2368    8.9971    6.4041 H   0  0  0  0  0  0  0  0  0  0  0  0
   41.5820    6.5760    5.7030 H   0  0  0  0  0  0  0  0  0  0  0  0
   42.8720    7.3350    6.1660 H   0  0  0  0  0  0  0  0  0  0  0  0
   42.0860    6.3030    7.2590 H   0  0  0  0  0  0  0  0  0  0  0  0
  1  2  1  0
  2  3  1  0
  2  4  1  0
  2  5  1  0
  5  6  1  0
  6  7  1  0
  7  8  2  0
  8  9  1  0
  9 10  1  0
 10 11  1  0
 11 12  2  0
 11 13  1  0
 11 14  1  0
  8 15  1  0
 15 16  1  0
 16 17  1  0
 17 18  1  0
 17 19  1  0
 19 20  2  0
 19 21  1  0
 15  5  2  0
  1 22  1  0
  1 23  1  0
  1 24  1  0
  3 25  1  0
  3 26  1  0
  3 27  1  0
  4 28  1  0
  4 29  1  0
  4 30  1  0
 10 31  1  0
 10 32  1  0
 16 33  1  0
 16 34  1  0
 17 35  1  6
 18 36  1  0
 18 37  1  0
 18 38  1  0
M  CHG  4  13  -1  14  -1  18   1  21  -1
M  END
>  <meeko>  (4) 
{"is_sidechain": [false], "free_energy": -6.719, "intermolecular_energy": -9.321, "internal_energy": -0.856}

$$$$
1vso_ligand
     RDKit          3D

 38 38  0  0  0  0  0  0  0  0999 V2000
   36.2040    2.3560    8.4860 C   0  0  0  0  0  0  0  0  0  0  0  0
   36.6450    3.1750    7.2610 C   0  0  0  0  0  0  0  0  0  0  0  0
   37.1900    2.1940    6.1970 C   0  0  0  0  0  0  0  0  0  0  0  0
   35.4220    3.8720    6.6500 C   0  0  0  0  0  0  0  0  0  0  0  0
   37.7070    4.1670    7.6800 C   0  0  0  0  0  0  0  0  0  0  0  0
   37.7490    4.4420    9.0210 O   0  0  0  0  0  0  0  0  0  0  0  0
   38.6540    5.4510    9.2750 N   0  0  0  0  0  0  0  0  0  0  0  0
   39.2030    5.7230    8.0910 C   0  0  0  0  0  0  0  0  0  0  0  0
   39.9870    6.8110    7.9860 O   0  0  0  0  0  0  0  0  0  0  0  0
   40.3300    7.3630    9.2650 C   0  0  0  0  0  0  0  0  0  0  0  0
   41.4140    8.8620    8.9870 P   0  0  0  0  0  0  0  0  0  0  0  0
   42.8540    8.3610    9.1310 O   0  0  0  0  0  0  0  0  0  0  0  0
   40.9690    9.8710   10.0240 O   0  0  0  0  0  0  0  0  0  0  0  0
   41.1840    9.2590    7.5240 O   0  0  0  0  0  0  0  0  0  0  0  0
   38.6340    4.9740    7.0310 C   0  0  0  0  0  0  0  0  0  0  0  0
   38.9210    5.1310    5.5650 C   0  0  0  0  0  0  0  0  0  0  0  0
   40.2230    4.4780    5.0840 C   0  0  2  0  0  0  0  0  0  0  0  0
   41.3910    5.3360    5.3730 N   0  0  0  0  0  0  0  0  0  0  0  0
   40.1420    4.0050    3.5960 C   0  0  0  0  0  0  0  0  0  0  0  0
   39.6600    2.8580    3.3770 O   0  0  0  0  0  0  0  0  0  0  0  0
   40.6350    4.8310    2.7660 O   0  0  0  0  0  0  0  0  0  0  0  0
   36.4905    2.8880    9.4052 H   0  0  0  0  0  0  0  0  0  0  0  0
   35.1123    2.2230    8.4644 H   0  0  0  0  0  0  0  0  0  0  0  0
   36.6939    1.3713    8.4644 H   0  0  0  0  0  0  0  0  0  0  0  0
   37.6657    1.3376    6.6973 H   0  0  0  0  0  0  0  0  0  0  0  0
   36.3608    1.8371    5.5684 H   0  0  0  0  0  0  0  0  0  0  0  0
   37.9311    2.7095    5.5684 H   0  0  0  0  0  0  0  0  0  0  0  0
   34.7710    4.2430    7.4553 H   0  0  0  0  0  0  0  0  0  0  0  0
   35.7539    4.7166    6.0283 H   0  0  0  0  0  0  0  0  0  0  0  0
   34.8644    3.1560    6.0283 H   0  0  0  0  0  0  0  0  0  0  0  0
   39.4154    7.6595    9.7994 H   0  0  0  0  0  0  0  0  0  0  0  0
   40.8651    6.6154    9.8690 H   0  0  0  0  0  0  0  0  0  0  0  0
   38.0874    4.6826    5.0045 H   0  0  0  0  0  0  0  0  0  0  0  0
   39.0362    6.2107    5.3890 H   0  0  0  0  0  0  0  0  0  0  0  0
   40.3676    3.5549    5.6645 H   0  0  0  0  0  0  0  0  0  0  0  0
   42.2710    5.1770    4.7970 H   0  0  0  0  0  0  0  0  0  0  0  0
   41.2760    6.3520    5.0870 H   0  0  0  0  0  0  0  0  0  0  0  0
   41.6890    5.2920    6.3460 H   0  0  0  0  0  0  0  0  0  0  0  0
  1  2  1  0
  2  3  1  0
  2  4  1  0
  2  5  1  0
  5  6  1  0
  6  7  1  0
  7  8  2  0
  8  9  1  0
  9 10  1  0
 10 11  1  0
 11 12  2  0
 11 13  1  0
 11 14  1  0
  8 15  1  0
 15 16  1  0
 16 17  1  0
 17 18  1  0
 17 19  1  0
 19 20  2  0
 19 21  1  0
 15  5  2  0
  1 22  1  0
  1 23  1  0
  1 24  1  0
  3 25  1  0
  3 26  1  0
  3 27  1  0
  4 28  1  0
  4 29  1  0
  4 30  1  0
 10 31  1  0
 10 32  1  0
 16 33  1  0
 16 34  1  0
 17 35  1  1
 18 36  1  0
 18 37  1  0
 18 38  1  0
M  CHG  4  13  -1  14  -1  18   1  21  -1
M  END
>  <meeko>  (5) 
{"is_sidechain": [false], "free_energy": -6.607, "intermolecular_energy": -9.203, "internal_energy": -0.812}

$$$$
1vso_ligand
     RDKit          3D

 38 38  0  0  0  0  0  0  0  0999 V2000
   37.0950    2.7980   11.4750 C   0  0  0  0  0  0  0  0  0  0  0  0
   36.2470    2.6720   10.1960 C   0  0  0  0  0  0  0  0  0  0  0  0
   35.6810    1.2340   10.1350 C   0  0  0  0  0  0  0  0  0  0  0  0
   35.0500    3.6270   10.2860 C   0  0  0  0  0  0  0  0  0  0  0  0
   37.1140    2.9660    8.9920 C   0  0  0  0  0  0  0  0  0  0  0  0
   37.4250    1.8800    8.2190 O   0  0  0  0  0  0  0  0  0  0  0  0
   38.3220    2.2330    7.2340 N   0  0  0  0  0  0  0  0  0  0  0  0
   38.4860    3.5490    7.3790 C   0  0  0  0  0  0  0  0  0  0  0  0
   39.4660    4.1500    6.6800 O   0  0  0  0  0  0  0  0  0  0  0  0
   39.7880    3.4450    5.4730 C   0  0  0  0  0  0  0  0  0  0  0  0
   39.7080    4.6520    4.0470 P   0  0  0  0  0  0  0  0  0  0  0  0
   40.9030    4.3130    3.1520 O   0  0  0  0  0  0  0  0  0  0  0  0
   39.7430    6.0240    4.6860 O   0  0  0  0  0  0  0  0  0  0  0  0
   38.4220    4.2990    3.2920 O   0  0  0  0  0  0  0  0  0  0  0  0
   37.7790    4.0770    8.4870 C   0  0  0  0  0  0  0  0  0  0  0  0
   37.8520    5.4820    9.0120 C   0  0  0  0  0  0  0  0  0  0  0  0
   39.1220    5.8130    9.8080 C   0  0  2  0  0  0  0  0  0  0  0  0
   38.7980    6.1950   11.1980 N   0  0  0  0  0  0  0  0  0  0  0  0
   40.0410    6.8420    9.0710 C   0  0  0  0  0  0  0  0  0  0  0  0
   39.7520    7.1240    7.8740 O   0  0  0  0  0  0  0  0  0  0  0  0
   41.0270    7.2400    9.7660 O   0  0  0  0  0  0  0  0  0  0  0  0
   36.4448    2.7014   12.3570 H   0  0  0  0  0  0  0  0  0  0  0  0
   37.8550    2.0029   11.4909 H   0  0  0  0  0  0  0  0  0  0  0  0
   37.5910    3.7797   11.4909 H   0  0  0  0  0  0  0  0  0  0  0  0
   35.5318    0.8550   11.1568 H   0  0  0  0  0  0  0  0  0  0  0  0
   34.7186    1.2411    9.6024 H   0  0  0  0  0  0  0  0  0  0  0  0
   36.3900    0.5832    9.6024 H   0  0  0  0  0  0  0  0  0  0  0  0
   34.8114    3.8173   11.3428 H   0  0  0  0  0  0  0  0  0  0  0  0
   35.3002    4.5763    9.7899 H   0  0  0  0  0  0  0  0  0  0  0  0
   34.1800    3.1722    9.7899 H   0  0  0  0  0  0  0  0  0  0  0  0
   40.8016    3.0242    5.5474 H   0  0  0  0  0  0  0  0  0  0  0  0
   39.0750    2.6227    5.3133 H   0  0  0  0  0  0  0  0  0  0  0  0
   37.7977    6.1695    8.1551 H   0  0  0  0  0  0  0  0  0  0  0  0
   37.0124    5.5913    9.7142 H   0  0  0  0  0  0  0  0  0  0  0  0
   39.7238    4.8945    9.8722 H   0  0  0  0  0  0  0  0  0  0  0  0
   39.1320    5.5510   11.9750 H   0  0  0  0  0  0  0  0  0  0  0  0
   39.3200    7.0480   11.5570 H   0  0  0  0  0  0  0  0  0  0  0  0
   37.8000    6.3210   11.3570 H   0  0  0  0  0  0  0  0  0  0  0  0
  1  2  1  0
  2  3  1  0
  2  4  1  0
  2  5  1  0
  5  6  1  0
  6  7  1  0
  7  8  2  0
  8  9  1  0
  9 10  1  0
 10 11  1  0
 11 12  2  0
 11 13  1  0
 11 14  1  0
  8 15  1  0
 15 16  1  0
 16 17  1  0
 17 18  1  0
 17 19  1  0
 19 20  2  0
 19 21  1  0
 15  5  2  0
  1 22  1  0
  1 23  1  0
  1 24  1  0
  3 25  1  0
  3 26  1  0
  3 27  1  0
  4 28  1  0
  4 29  1  0
  4 30  1  0
 10 31  1  0
 10 32  1  0
 16 33  1  0
 16 34  1  0
 17 35  1  1
 18 36  1  0
 18 37  1  0
 18 38  1  0
M  CHG  4  13  -1  14  -1  18   1  21  -1
M  END
>  <meeko>  (6) 
{"is_sidechain": [false], "free_energy": -6.495, "intermolecular_energy": -8.927, "internal_energy": -0.927}

$$$$
1vso_ligand
     RDKit          3D

 38 38  0  0  0  0  0  0  0  0999 V2000
   38.1570    3.2690   10.9650 C   0  0  0  0  0  0  0  0  0  0  0  0
   37.7980    4.7380   10.6790 C   0  0  0  0  0  0  0  0  0  0  0  0
   36.2650    4.8940   10.8180 C   0  0  0  0  0  0  0  0  0  0  0  0
   38.4430    5.6350   11.7440 C   0  0  0  0  0  0  0  0  0  0  0  0
   38.2560    5.1000    9.2840 C   0  0  0  0  0  0  0  0  0  0  0  0
   39.2330    6.0580    9.2230 O   0  0  0  0  0  0  0  0  0  0  0  0
   39.4790    6.4080    7.9130 N   0  0  0  0  0  0  0  0  0  0  0  0
   38.6980    5.6030    7.1920 C   0  0  0  0  0  0  0  0  0  0  0  0
   38.5730    5.8480    5.8750 O   0  0  0  0  0  0  0  0  0  0  0  0
   39.8300    5.7970    5.1870 C   0  0  0  0  0  0  0  0  0  0  0  0
   39.8330    4.2900    4.0790 P   0  0  0  0  0  0  0  0  0  0  0  0
   40.0040    3.0910    5.0160 O   0  0  0  0  0  0  0  0  0  0  0  0
   40.9660    4.5180    3.1020 O   0  0  0  0  0  0  0  0  0  0  0  0
   38.4270    4.2330    3.4720 O   0  0  0  0  0  0  0  0  0  0  0  0
   37.8750    4.7700    7.9880 C   0  0  0  0  0  0  0  0  0  0  0  0
   36.7910    3.8510    7.5050 C   0  0  0  0  0  0  0  0  0  0  0  0
   37.0920    2.3540    7.6540 C   0  0  2  0  0  0  0  0  0  0  0  0
   37.2880    1.7130    6.3370 N   0  0  0  0  0  0  0  0  0  0  0  0
   36.0530    1.6200    8.5630 C   0  0  0  0  0  0  0  0  0  0  0  0
   34.8840    2.0960    8.6080 O   0  0  0  0  0  0  0  0  0  0  0  0
   36.5370    0.6380    9.2080 O   0  0  0  0  0  0  0  0  0  0  0  0
   38.1968    3.1062   12.0522 H   0  0  0  0  0  0  0  0  0  0  0  0
   37.3929    2.6122   10.5236 H   0  0  0  0  0  0  0  0  0  0  0  0
   39.1379    3.0386   10.5236 H   0  0  0  0  0  0  0  0  0  0  0  0
   35.9944    4.9215   11.8838 H   0  0  0  0  0  0  0  0  0  0  0  0
   35.9463    5.8292   10.3345 H   0  0  0  0  0  0  0  0  0  0  0  0
   35.7644    4.0422   10.3345 H   0  0  0  0  0  0  0  0  0  0  0  0
   38.1769    5.2650   12.7451 H   0  0  0  0  0  0  0  0  0  0  0  0
   39.5364    5.6172   11.6251 H   0  0  0  0  0  0  0  0  0  0  0  0
   38.0780    6.6659   11.6251 H   0  0  0  0  0  0  0  0  0  0  0  0
   39.9587    6.7052    4.5799 H   0  0  0  0  0  0  0  0  0  0  0  0
   40.6559    5.7365    5.9110 H   0  0  0  0  0  0  0  0  0  0  0  0
   35.8769    4.0731    8.0752 H   0  0  0  0  0  0  0  0  0  0  0  0
   36.6903    4.0371    6.4255 H   0  0  0  0  0  0  0  0  0  0  0  0
   38.0486    2.2587    8.1887 H   0  0  0  0  0  0  0  0  0  0  0  0
   37.0470    0.6810    6.2520 H   0  0  0  0  0  0  0  0  0  0  0  0
   36.6060    2.0280    5.5850 H   0  0  0  0  0  0  0  0  0  0  0  0
   38.2390    1.8020    5.9850 H   0  0  0  0  0  0  0  0  0  0  0  0
  1  2  1  0
  2  3  1  0
  2  4  1  0
  2  5  1  0
  5  6  1  0
  6  7  1  0
  7  8  2  0
  8  9  1  0
  9 10  1  0
 10 11  1  0
 11 12  2  0
 11 13  1  0
 11 14  1  0
  8 15  1  0
 15 16  1  0
 16 17  1  0
 17 18  1  0
 17 19  1  0
 19 20  2  0
 19 21  1  0
 15  5  2  0
  1 22  1  0
  1 23  1  0
  1 24  1  0
  3 25  1  0
  3 26  1  0
  3 27  1  0
  4 28  1  0
  4 29  1  0
  4 30  1  0
 10 31  1  0
 10 32  1  0
 16 33  1  0
 16 34  1  0
 17 35  1  1
 18 36  1  0
 18 37  1  0
 18 38  1  0
M  CHG  4  13  -1  14  -1  18   1  21  -1
M  END
>  <meeko>  (7) 
{"is_sidechain": [false], "free_energy": -6.387, "intermolecular_energy": -8.608, "internal_energy": -1.092}

$$$$
1vso_ligand
     RDKit          3D

 38 38  0  0  0  0  0  0  0  0999 V2000
   39.2670    5.7910    8.3670 C   0  0  0  0  0  0  0  0  0  0  0  0
   39.1340    5.7030    6.8360 C   0  0  0  0  0  0  0  0  0  0  0  0
   37.7100    6.1660    6.4500 C   0  0  0  0  0  0  0  0  0  0  0  0
   40.1210    6.6800    6.1850 C   0  0  0  0  0  0  0  0  0  0  0  0
   39.3790    4.2760    6.3960 C   0  0  0  0  0  0  0  0  0  0  0  0
   40.4080    4.1100    5.5080 O   0  0  0  0  0  0  0  0  0  0  0  0
   40.4580    2.8040    5.0720 N   0  0  0  0  0  0  0  0  0  0  0  0
   39.5020    2.1770    5.7600 C   0  0  0  0  0  0  0  0  0  0  0  0
   39.1770    0.9220    5.4020 O   0  0  0  0  0  0  0  0  0  0  0  0
   39.1740    0.7420    3.9790 C   0  0  0  0  0  0  0  0  0  0  0  0
   37.4600    1.1330    3.3410 P   0  0  0  0  0  0  0  0  0  0  0  0
   37.4140    2.6570    3.1920 O   0  0  0  0  0  0  0  0  0  0  0  0
   36.5120    0.5520    4.3670 O   0  0  0  0  0  0  0  0  0  0  0  0
   37.3980    0.5090    1.9430 O   0  0  0  0  0  0  0  0  0  0  0  0
   38.7590    3.0480    6.5940 C   0  0  0  0  0  0  0  0  0  0  0  0
   37.5350    2.7000    7.3930 C   0  0  0  0  0  0  0  0  0  0  0  0
   37.7960    2.3640    8.8670 C   0  0  2  0  0  0  0  0  0  0  0  0
   39.0550    1.6070    9.0290 N   0  0  0  0  0  0  0  0  0  0  0  0
   36.5640    1.6900    9.5550 C   0  0  0  0  0  0  0  0  0  0  0  0
   36.4490    0.4370    9.4410 O   0  0  0  0  0  0  0  0  0  0  0  0
   35.7750    2.5130   10.1170 O   0  0  0  0  0  0  0  0  0  0  0  0
   38.4384    5.2428    8.8391 H   0  0  0  0  0  0  0  0  0  0  0  0
   40.2244    5.3475    8.6780 H   0  0  0  0  0  0  0  0  0  0  0  0
   39.2332    6.8456    8.6780 H   0  0  0  0  0  0  0  0  0  0  0  0
   37.1261    6.3558    7.3627 H   0  0  0  0  0  0  0  0  0  0  0  0
   37.7731    7.0899    5.8563 H   0  0  0  0  0  0  0  0  0  0  0  0
   37.2177    5.3816    5.8563 H   0  0  0  0  0  0  0  0  0  0  0  0
   40.6698    7.2232    6.9684 H   0  0  0  0  0  0  0  0  0  0  0  0
   40.8324    6.1204    5.5599 H   0  0  0  0  0  0  0  0  0  0  0  0
   39.5687    7.3970    5.5599 H   0  0  0  0  0  0  0  0  0  0  0  0
   39.9065    1.4201    3.5168 H   0  0  0  0  0  0  0  0  0  0  0  0
   39.4447   -0.2941    3.7276 H   0  0  0  0  0  0  0  0  0  0  0  0
   36.8477    3.5580    7.3553 H   0  0  0  0  0  0  0  0  0  0  0  0
   37.1208    1.7878    6.9387 H   0  0  0  0  0  0  0  0  0  0  0  0
   37.9350    3.3129    9.4058 H   0  0  0  0  0  0  0  0  0  0  0  0
   39.8060    1.7370    8.2870 H   0  0  0  0  0  0  0  0  0  0  0  0
   39.6660    1.9300    9.8350 H   0  0  0  0  0  0  0  0  0  0  0  0
   38.9110    0.6010    9.0990 H   0  0  0  0  0  0  0  0  0  0  0  0
  1  2  1  0
  2  3  1  0
  2  4  1  0
  2  5  1  0
  5  6  1  0
  6  7  1  0
  7  8  2  0
  8  9  1  0
  9 10  1  0
 10 11  1  0
 11 12  2  0
 11 13  1  0
 11 14  1  0
  8 15  1  0
 15 16  1  0
 16 17  1  0
 17 18  1  0
 17 19  1  0
 19 20  2  0
 19 21  1  0
 15  5  2  0
  1 22  1  0
  1 23  1  0
  1 24  1  0
  3 25  1  0
  3 26  1  0
  3 27  1  0
  4 28  1  0
  4 29  1  0
  4 30  1  0
 10 31  1  0
 10 32  1  0
 16 33  1  0
 16 34  1  0
 17 35  1  1
 18 36  1  0
 18 37  1  0
 18 38  1  0
M  CHG  4  13  -1  14  -1  18   1  21  -1
M  END
>  <meeko>  (8) 
{"is_sidechain": [false], "free_energy": -6.351, "intermolecular_energy": -8.731, "internal_energy": -0.916}

$$$$
1vso_ligand
     RDKit          3D

 38 38  0  0  0  0  0  0  0  0999 V2000
   37.7100    4.9070    4.2970 C   0  0  0  0  0  0  0  0  0  0  0  0
   39.0630    4.6660    4.9900 C   0  0  0  0  0  0  0  0  0  0  0  0
   39.8330    3.5960    4.1810 C   0  0  0  0  0  0  0  0  0  0  0  0
   39.8940    5.9550    4.9420 C   0  0  0  0  0  0  0  0  0  0  0  0
   38.8210    4.2040    6.4100 C   0  0  0  0  0  0  0  0  0  0  0  0
   38.7150    2.8490    6.5710 O   0  0  0  0  0  0  0  0  0  0  0  0
   38.3620    2.5460    7.8680 N   0  0  0  0  0  0  0  0  0  0  0  0
   38.3320    3.7220    8.4960 C   0  0  0  0  0  0  0  0  0  0  0  0
   37.8200    3.7680    9.7400 O   0  0  0  0  0  0  0  0  0  0  0  0
   37.9260    2.5110   10.4210 C   0  0  0  0  0  0  0  0  0  0  0  0
   36.1990    1.8580   10.7200 P   0  0  0  0  0  0  0  0  0  0  0  0
   36.1030    1.6210   12.2300 O   0  0  0  0  0  0  0  0  0  0  0  0
   36.0890    0.6180    9.8590 O   0  0  0  0  0  0  0  0  0  0  0  0
   35.2620    3.0130   10.3520 O   0  0  0  0  0  0  0  0  0  0  0  0
   38.5810    4.8180    7.6340 C   0  0  0  0  0  0  0  0  0  0  0  0
   38.4870    6.2750    7.9830 C   0  0  0  0  0  0  0  0  0  0  0  0
   39.6620    6.8250    8.8020 C   0  0  2  0  0  0  0  0  0  0  0  0
   39.4850    6.5500   10.2430 N   0  0  0  0  0  0  0  0  0  0  0  0
   39.9690    8.3240    8.4800 C   0  0  0  0  0  0  0  0  0  0  0  0
   40.3970    9.0440    9.4260 O   0  0  0  0  0  0  0  0  0  0  0  0
   39.6920    8.6610    7.2860 O   0  0  0  0  0  0  0  0  0  0  0  0
   36.9280    5.0463    5.0579 H   0  0  0  0  0  0  0  0  0  0  0  0
   37.7750    5.8077    3.6689 H   0  0  0  0  0  0  0  0  0  0  0  0
   37.4600    4.0392    3.6689 H   0  0  0  0  0  0  0  0  0  0  0  0
   40.3324    2.9021    4.8731 H   0  0  0  0  0  0  0  0  0  0  0  0
   39.1281    3.0379    3.5473 H   0  0  0  0  0  0  0  0  0  0  0  0
   40.5861    4.0871    3.5473 H   0  0  0  0  0  0  0  0  0  0  0  0
   40.1102    6.2903    5.9671 H   0  0  0  0  0  0  0  0  0  0  0  0
   40.8387    5.7627    4.4122 H   0  0  0  0  0  0  0  0  0  0  0  0
   39.3289    6.7360    4.4122 H   0  0  0  0  0  0  0  0  0  0  0  0
   38.4909    1.7988    9.8016 H   0  0  0  0  0  0  0  0  0  0  0  0
   38.4529    2.6414   11.3777 H   0  0  0  0  0  0  0  0  0  0  0  0
   38.4279    6.8469    7.0452 H   0  0  0  0  0  0  0  0  0  0  0  0
   37.5949    6.3811    8.6177 H   0  0  0  0  0  0  0  0  0  0  0  0
   40.5669    6.2814    8.4929 H   0  0  0  0  0  0  0  0  0  0  0  0
   38.7820    7.1460   10.7740 H   0  0  0  0  0  0  0  0  0  0  0  0
   39.0080    5.6280   10.4630 H   0  0  0  0  0  0  0  0  0  0  0  0
   40.3530    6.6140   10.7720 H   0  0  0  0  0  0  0  0  0  0  0  0
  1  2  1  0
  2  3  1  0
  2  4  1  0
  2  5  1  0
  5  6  1  0
  6  7  1  0
  7  8  2  0
  8  9  1  0
  9 10  1  0
 10 11  1  0
 11 12  2  0
 11 13  1  0
 11 14  1  0
  8 15  1  0
 15 16  1  0
 16 17  1  0
 17 18  1  0
 17 19  1  0
 19 20  2  0
 19 21  1  0
 15  5  2  0
  1 22  1  0
  1 23  1  0
  1 24  1  0
  3 25  1  0
  3 26  1  0
  3 27  1  0
  4 28  1  0
  4 29  1  0
  4 30  1  0
 10 31  1  0
 10 32  1  0
 16 33  1  0
 16 34  1  0
 17 35  1  6
 18 36  1  0
 18 37  1  0
 18 38  1  0
M  CHG  4  13  -1  14  -1  18   1  21  -1
M  END
>  <meeko>  (9) 
{"is_sidechain": [false], "free_energy": -6.18, "intermolecular_energy": -8.566, "internal_energy": -0.835}

$$$$
