5c2h_ligand
     RDKit          3D

 55 58  0  0  0  0  0  0  0  0999 V2000
   12.1010   42.3820   56.4590 C   0  0  0  0  0  0  0  0  0  0  0  0
   11.2450   42.0170   57.6190 C   0  0  0  0  0  0  0  0  0  0  0  0
   10.0360   42.4880   57.8270 N   0  0  0  0  0  0  0  0  0  0  0  0
    9.5100   41.9560   58.9950 C   0  0  0  0  0  0  0  0  0  0  0  0
    8.1370   42.3570   59.4030 C   0  0  0  0  0  0  0  0  0  0  0  0
   10.3480   41.0790   59.6630 C   0  0  0  0  0  0  0  0  0  0  0  0
   10.1060   40.3280   60.9390 C   0  0  0  0  0  0  0  0  0  0  0  0
   10.1820   38.8790   60.7470 N   0  0  0  0  0  0  0  0  0  0  0  0
    8.9490   38.2050   60.7950 C   0  0  0  0  0  0  0  0  0  0  0  0
    8.1860   38.1810   59.6910 N   0  0  0  0  0  0  0  0  0  0  0  0
    7.0180   37.5330   59.7460 C   0  0  0  0  0  0  0  0  0  0  0  0
    6.2670   37.6100   58.5970 O   0  0  0  0  0  0  0  0  0  0  0  0
    5.7890   36.3660   58.0920 C   0  0  0  0  0  0  0  0  0  0  0  0
    5.1230   36.5470   56.7290 C   0  0  0  0  0  0  0  0  0  0  0  0
    5.0450   35.2490   55.9260 C   0  0  0  0  0  0  0  0  0  0  0  0
    3.8130   35.2190   55.0570 C   0  0  0  0  0  0  0  0  0  0  0  0
    3.8900   34.7960   53.7360 C   0  0  0  0  0  0  0  0  0  0  0  0
    2.7320   34.8020   52.9670 C   0  0  0  0  0  0  0  0  0  0  0  0
    1.5250   35.2310   53.5290 C   0  0  0  0  0  0  0  0  0  0  0  0
    0.3280   35.2540   52.7900 C   0  0  0  0  0  0  0  0  0  0  0  0
   -0.8560   35.6890   53.3810 C   0  0  0  0  0  0  0  0  0  0  0  0
   -0.8500   36.1010   54.7090 C   0  0  0  0  0  0  0  0  0  0  0  0
    0.3420   36.0760   55.4390 C   0  0  0  0  0  0  0  0  0  0  0  0
    1.5360   35.6480   54.8760 C   0  0  0  0  0  0  0  0  0  0  0  0
    2.6560   35.6440   55.6220 N   0  0  0  0  0  0  0  0  0  0  0  0
    6.5310   36.9160   60.8190 N   0  0  0  0  0  0  0  0  0  0  0  0
    7.3300   36.9440   61.8940 C   0  0  0  0  0  0  0  0  0  0  0  0
    6.6200   36.1380   63.2430 Cl  0  0  0  0  0  0  0  0  0  0  0  0
    8.5720   37.5480   61.9580 C   0  0  0  0  0  0  0  0  0  0  0  0
    9.4070   37.5350   63.2000 C   0  0  0  0  0  0  0  0  0  0  0  0
   11.8190   40.9100   58.7980 S   0  0  0  0  0  0  0  0  0  0  0  0
   13.0562   42.7893   56.8220 H   0  0  0  0  0  0  0  0  0  0  0  0
   12.2923   41.4872   55.8485 H   0  0  0  0  0  0  0  0  0  0  0  0
   11.5877   43.1395   55.8485 H   0  0  0  0  0  0  0  0  0  0  0  0
    8.0716   42.3761   60.5009 H   0  0  0  0  0  0  0  0  0  0  0  0
    7.9138   43.3579   59.0049 H   0  0  0  0  0  0  0  0  0  0  0  0
    7.4102   41.6336   59.0049 H   0  0  0  0  0  0  0  0  0  0  0  0
   10.8645   40.6284   61.6769 H   0  0  0  0  0  0  0  0  0  0  0  0
    9.0917   40.5710   61.2883 H   0  0  0  0  0  0  0  0  0  0  0  0
   10.8270   38.4680   61.4160 H   0  0  0  0  0  0  0  0  0  0  0  0
    6.6351   35.6707   57.9892 H   0  0  0  0  0  0  0  0  0  0  0  0
    5.0439   35.9657   58.7953 H   0  0  0  0  0  0  0  0  0  0  0  0
    4.1017   36.9246   56.8852 H   0  0  0  0  0  0  0  0  0  0  0  0
    5.7383   37.2540   56.1532 H   0  0  0  0  0  0  0  0  0  0  0  0
    5.9368   35.1681   55.2872 H   0  0  0  0  0  0  0  0  0  0  0  0
    4.9950   34.4058   56.6306 H   0  0  0  0  0  0  0  0  0  0  0  0
    4.8470   34.4634   53.3076 H   0  0  0  0  0  0  0  0  0  0  0  0
    2.7647   34.4701   51.9188 H   0  0  0  0  0  0  0  0  0  0  0  0
    0.3271   34.9267   51.7398 H   0  0  0  0  0  0  0  0  0  0  0  0
   -1.7902   35.7065   52.8005 H   0  0  0  0  0  0  0  0  0  0  0  0
   -1.7805   36.4456   55.1838 H   0  0  0  0  0  0  0  0  0  0  0  0
    0.3332   36.4047   56.4887 H   0  0  0  0  0  0  0  0  0  0  0  0
    8.7510   37.5452   64.0830 H   0  0  0  0  0  0  0  0  0  0  0  0
   10.0279   36.6271   63.2149 H   0  0  0  0  0  0  0  0  0  0  0  0
   10.0558   38.4232   63.2149 H   0  0  0  0  0  0  0  0  0  0  0  0
  1  2  1  0
  2  3  2  0
  3  4  1  0
  4  5  1  0
  4  6  2  0
  6  7  1  0
  7  8  1  0
  8  9  1  0
  9 10  2  0
 10 11  1  0
 11 12  1  0
 12 13  1  0
 13 14  1  0
 14 15  1  0
 15 16  1  0
 16 17  2  0
 17 18  1  0
 18 19  2  0
 19 20  1  0
 20 21  2  0
 21 22  1  0
 22 23  2  0
 23 24  1  0
 24 25  2  0
 11 26  2  0
 26 27  1  0
 27 28  1  0
 27 29  2  0
 29 30  1  0
  6 31  1  0
 31  2  1  0
 29  9  1  0
 25 16  1  0
 24 19  1  0
  1 32  1  0
  1 33  1  0
  1 34  1  0
  5 35  1  0
  5 36  1  0
  5 37  1  0
  7 38  1  0
  7 39  1  0
  8 40  1  0
 13 41  1  0
 13 42  1  0
 14 43  1  0
 14 44  1  0
 15 45  1  0
 15 46  1  0
 17 47  1  0
 18 48  1  0
 20 49  1  0
 21 50  1  0
 22 51  1  0
 23 52  1  0
 30 53  1  0
 30 54  1  0
 30 55  1  0
M  END
>  <meeko>  (1) 
{"is_sidechain": [false], "free_energy": -10.086, "intermolecular_energy": -14.803, "internal_energy": -0.764}

$$$$
5c2h_ligand
     RDKit          3D

 55 58  0  0  0  0  0  0  0  0999 V2000
   14.2060   40.8970   52.6040 C   0  0  0  0  0  0  0  0  0  0  0  0
   13.7740   41.8560   53.6540 C   0  0  0  0  0  0  0  0  0  0  0  0
   14.4110   42.0570   54.7860 N   0  0  0  0  0  0  0  0  0  0  0  0
   13.7490   43.0100   55.5450 C   0  0  0  0  0  0  0  0  0  0  0  0
   14.3210   43.3890   56.8650 C   0  0  0  0  0  0  0  0  0  0  0  0
   12.6000   43.5190   54.9650 C   0  0  0  0  0  0  0  0  0  0  0  0
   11.6510   44.5530   55.4970 C   0  0  0  0  0  0  0  0  0  0  0  0
   10.2550   44.1260   55.3900 N   0  0  0  0  0  0  0  0  0  0  0  0
    9.6800   43.6590   56.5840 C   0  0  0  0  0  0  0  0  0  0  0  0
   10.2800   42.6510   57.2360 N   0  0  0  0  0  0  0  0  0  0  0  0
    9.7270   42.2180   58.3740 C   0  0  0  0  0  0  0  0  0  0  0  0
   10.3640   41.1420   58.9460 O   0  0  0  0  0  0  0  0  0  0  0  0
   10.6920   41.2850   60.3250 C   0  0  0  0  0  0  0  0  0  0  0  0
    9.7320   40.4830   61.2020 C   0  0  0  0  0  0  0  0  0  0  0  0
    9.9540   38.9730   61.1030 C   0  0  0  0  0  0  0  0  0  0  0  0
    8.7920   38.2960   60.4190 C   0  0  0  0  0  0  0  0  0  0  0  0
    7.8050   37.6650   61.1650 C   0  0  0  0  0  0  0  0  0  0  0  0
    6.7610   37.0390   60.4930 C   0  0  0  0  0  0  0  0  0  0  0  0
    6.7260   37.0540   59.0940 C   0  0  0  0  0  0  0  0  0  0  0  0
    5.6900   36.4350   58.3710 C   0  0  0  0  0  0  0  0  0  0  0  0
    5.6870   36.4680   56.9780 C   0  0  0  0  0  0  0  0  0  0  0  0
    6.7150   37.1180   56.3040 C   0  0  0  0  0  0  0  0  0  0  0  0
    7.7420   37.7320   57.0280 C   0  0  0  0  0  0  0  0  0  0  0  0
    7.7700   37.7140   58.4150 C   0  0  0  0  0  0  0  0  0  0  0  0
    8.7810   38.3200   59.0640 N   0  0  0  0  0  0  0  0  0  0  0  0
    8.6100   42.6940   58.9150 N   0  0  0  0  0  0  0  0  0  0  0  0
    8.0520   43.7130   58.2470 C   0  0  0  0  0  0  0  0  0  0  0  0
    6.6020   44.2600   59.0040 Cl  0  0  0  0  0  0  0  0  0  0  0  0
    8.5400   44.2740   57.0820 C   0  0  0  0  0  0  0  0  0  0  0  0
    7.8570   45.4150   56.3940 C   0  0  0  0  0  0  0  0  0  0  0  0
   12.3560   42.7970   53.4280 S   0  0  0  0  0  0  0  0  0  0  0  0
   14.6135   39.9924   53.0789 H   0  0  0  0  0  0  0  0  0  0  0  0
   13.3432   40.6255   51.9780 H   0  0  0  0  0  0  0  0  0  0  0  0
   14.9810   41.3633   51.9780 H   0  0  0  0  0  0  0  0  0  0  0  0
   13.6949   42.9741   57.6687 H   0  0  0  0  0  0  0  0  0  0  0  0
   15.3416   42.9878   56.9512 H   0  0  0  0  0  0  0  0  0  0  0  0
   14.3494   44.4853   56.9512 H   0  0  0  0  0  0  0  0  0  0  0  0
   11.8852   44.7381   56.5557 H   0  0  0  0  0  0  0  0  0  0  0  0
   11.7730   45.4660   54.8958 H   0  0  0  0  0  0  0  0  0  0  0  0
   10.1550   43.4260   54.6600 H   0  0  0  0  0  0  0  0  0  0  0  0
   11.7176   40.9233   60.4902 H   0  0  0  0  0  0  0  0  0  0  0  0
   10.6099   42.3478   60.5964 H   0  0  0  0  0  0  0  0  0  0  0  0
    9.8732   40.7904   62.2487 H   0  0  0  0  0  0  0  0  0  0  0  0
    8.7113   40.6900   60.8480 H   0  0  0  0  0  0  0  0  0  0  0  0
   10.8710   38.7819   60.5264 H   0  0  0  0  0  0  0  0  0  0  0  0
   10.0450   38.5661   62.1209 H   0  0  0  0  0  0  0  0  0  0  0  0
    7.8483   37.6606   62.2641 H   0  0  0  0  0  0  0  0  0  0  0  0
    5.9649   36.5335   61.0593 H   0  0  0  0  0  0  0  0  0  0  0  0
    4.8783   35.9224   58.9080 H   0  0  0  0  0  0  0  0  0  0  0  0
    4.8762   35.9827   56.4148 H   0  0  0  0  0  0  0  0  0  0  0  0
    6.7204   37.1492   55.2045 H   0  0  0  0  0  0  0  0  0  0  0  0
    8.5494   38.2430   56.4830 H   0  0  0  0  0  0  0  0  0  0  0  0
    7.4450   46.1033   57.1466 H   0  0  0  0  0  0  0  0  0  0  0  0
    8.5827   45.9513   55.7650 H   0  0  0  0  0  0  0  0  0  0  0  0
    7.0415   45.0287   55.7650 H   0  0  0  0  0  0  0  0  0  0  0  0
  1  2  1  0
  2  3  2  0
  3  4  1  0
  4  5  1  0
  4  6  2  0
  6  7  1  0
  7  8  1  0
  8  9  1  0
  9 10  2  0
 10 11  1  0
 11 12  1  0
 12 13  1  0
 13 14  1  0
 14 15  1  0
 15 16  1  0
 16 17  2  0
 17 18  1  0
 18 19  2  0
 19 20  1  0
 20 21  2  0
 21 22  1  0
 22 23  2  0
 23 24  1  0
 24 25  2  0
 11 26  2  0
 26 27  1  0
 27 28  1  0
 27 29  2  0
 29 30  1  0
  6 31  1  0
 31  2  1  0
 29  9  1  0
 25 16  1  0
 24 19  1  0
  1 32  1  0
  1 33  1  0
  1 34  1  0
  5 35  1  0
  5 36  1  0
  5 37  1  0
  7 38  1  0
  7 39  1  0
  8 40  1  0
 13 41  1  0
 13 42  1  0
 14 43  1  0
 14 44  1  0
 15 45  1  0
 15 46  1  0
 17 47  1  0
 18 48  1  0
 20 49  1  0
 21 50  1  0
 22 51  1  0
 23 52  1  0
 30 53  1  0
 30 54  1  0
 30 55  1  0
M  END
>  <meeko>  (2) 
{"is_sidechain": [false], "free_energy": -9.366, "intermolecular_energy": -13.557, "internal_energy": -0.952}

$$$$
5c2h_ligand
     RDKit          3D

 55 58  0  0  0  0  0  0  0  0999 V2000
   14.3400   41.0440   51.7300 C   0  0  0  0  0  0  0  0  0  0  0  0
   13.8900   41.8720   52.8800 C   0  0  0  0  0  0  0  0  0  0  0  0
   14.3570   41.7620   54.1040 N   0  0  0  0  0  0  0  0  0  0  0  0
   13.7300   42.6730   54.9390 C   0  0  0  0  0  0  0  0  0  0  0  0
   14.1290   42.7160   56.3710 C   0  0  0  0  0  0  0  0  0  0  0  0
   12.7790   43.4680   54.3220 C   0  0  0  0  0  0  0  0  0  0  0  0
   11.9200   44.5470   54.9140 C   0  0  0  0  0  0  0  0  0  0  0  0
   10.4950   44.2200   54.8370 N   0  0  0  0  0  0  0  0  0  0  0  0
    9.9180   43.7820   56.0410 C   0  0  0  0  0  0  0  0  0  0  0  0
   10.4980   42.7680   56.7020 N   0  0  0  0  0  0  0  0  0  0  0  0
    9.9420   42.3620   57.8480 C   0  0  0  0  0  0  0  0  0  0  0  0
   10.5580   41.2780   58.4290 O   0  0  0  0  0  0  0  0  0  0  0  0
   11.5740   41.5860   59.3800 C   0  0  0  0  0  0  0  0  0  0  0  0
   11.0310   41.5060   60.8060 C   0  0  0  0  0  0  0  0  0  0  0  0
   11.5220   40.2720   61.5630 C   0  0  0  0  0  0  0  0  0  0  0  0
   10.4050   39.2790   61.7690 C   0  0  0  0  0  0  0  0  0  0  0  0
   10.2720   38.6070   62.9770 C   0  0  0  0  0  0  0  0  0  0  0  0
    9.2380   37.6890   63.1170 C   0  0  0  0  0  0  0  0  0  0  0  0
    8.3620   37.4580   62.0500 C   0  0  0  0  0  0  0  0  0  0  0  0
    7.3020   36.5390   62.1450 C   0  0  0  0  0  0  0  0  0  0  0  0
    6.4490   36.3330   61.0630 C   0  0  0  0  0  0  0  0  0  0  0  0
    6.6520   37.0430   59.8840 C   0  0  0  0  0  0  0  0  0  0  0  0
    7.7070   37.9560   59.7950 C   0  0  0  0  0  0  0  0  0  0  0  0
    8.5720   38.1810   60.8580 C   0  0  0  0  0  0  0  0  0  0  0  0
    9.5720   39.0700   60.7200 N   0  0  0  0  0  0  0  0  0  0  0  0
    8.8410   42.8710   58.3910 N   0  0  0  0  0  0  0  0  0  0  0  0
    8.3020   43.8950   57.7140 C   0  0  0  0  0  0  0  0  0  0  0  0
    6.8710   44.4860   58.4740 Cl  0  0  0  0  0  0  0  0  0  0  0  0
    8.7960   44.4300   56.5390 C   0  0  0  0  0  0  0  0  0  0  0  0
    8.1350   45.5780   55.8410 C   0  0  0  0  0  0  0  0  0  0  0  0
   12.6830   43.0720   52.6560 S   0  0  0  0  0  0  0  0  0  0  0  0
   14.8340   40.1350   52.1037 H   0  0  0  0  0  0  0  0  0  0  0  0
   13.4703   40.7633   51.1177 H   0  0  0  0  0  0  0  0  0  0  0  0
   15.0486   41.6211   51.1177 H   0  0  0  0  0  0  0  0  0  0  0  0
   13.2345   42.6196   57.0039 H   0  0  0  0  0  0  0  0  0  0  0  0
   14.8200   41.8871   56.5841 H   0  0  0  0  0  0  0  0  0  0  0  0
   14.6276   43.6731   56.5841 H   0  0  0  0  0  0  0  0  0  0  0  0
   12.1966   44.6813   55.9701 H   0  0  0  0  0  0  0  0  0  0  0  0
   12.0880   45.4686   54.3374 H   0  0  0  0  0  0  0  0  0  0  0  0
   10.3280   43.5370   54.1040 H   0  0  0  0  0  0  0  0  0  0  0  0
   12.4003   40.8685   59.2689 H   0  0  0  0  0  0  0  0  0  0  0  0
   11.9271   42.6115   59.1962 H   0  0  0  0  0  0  0  0  0  0  0  0
   11.3515   42.4042   61.3542 H   0  0  0  0  0  0  0  0  0  0  0  0
    9.9353   41.4362   60.7378 H   0  0  0  0  0  0  0  0  0  0  0  0
   12.3262   39.7929   60.9853 H   0  0  0  0  0  0  0  0  0  0  0  0
   11.8906   40.5916   62.5489 H   0  0  0  0  0  0  0  0  0  0  0  0
   10.9702   38.7973   63.8054 H   0  0  0  0  0  0  0  0  0  0  0  0
    9.1083   37.1451   64.0643 H   0  0  0  0  0  0  0  0  0  0  0  0
    7.1454   35.9795   63.0790 H   0  0  0  0  0  0  0  0  0  0  0  0
    5.6204   35.6137   61.1404 H   0  0  0  0  0  0  0  0  0  0  0  0
    5.9842   36.8864   59.0241 H   0  0  0  0  0  0  0  0  0  0  0  0
    7.8561   38.5114   58.8573 H   0  0  0  0  0  0  0  0  0  0  0  0
    7.7319   46.2781   56.5876 H   0  0  0  0  0  0  0  0  0  0  0  0
    8.8721   46.0978   55.2113 H   0  0  0  0  0  0  0  0  0  0  0  0
    7.3154   45.2015   55.2113 H   0  0  0  0  0  0  0  0  0  0  0  0
  1  2  1  0
  2  3  2  0
  3  4  1  0
  4  5  1  0
  4  6  2  0
  6  7  1  0
  7  8  1  0
  8  9  1  0
  9 10  2  0
 10 11  1  0
 11 12  1  0
 12 13  1  0
 13 14  1  0
 14 15  1  0
 15 16  1  0
 16 17  2  0
 17 18  1  0
 18 19  2  0
 19 20  1  0
 20 21  2  0
 21 22  1  0
 22 23  2  0
 23 24  1  0
 24 25  2  0
 11 26  2  0
 26 27  1  0
 27 28  1  0
 27 29  2  0
 29 30  1  0
  6 31  1  0
 31  2  1  0
 29  9  1  0
 25 16  1  0
 24 19  1  0
  1 32  1  0
  1 33  1  0
  1 34  1  0
  5 35  1  0
  5 36  1  0
  5 37  1  0
  7 38  1  0
  7 39  1  0
  8 40  1  0
 13 41  1  0
 13 42  1  0
 14 43  1  0
 14 44  1  0
 15 45  1  0
 15 46  1  0
 17 47  1  0
 18 48  1  0
 20 49  1  0
 21 50  1  0
 22 51  1  0
 23 52  1  0
 30 53  1  0
 30 54  1  0
 30 55  1  0
M  END
>  <meeko>  (3) 
{"is_sidechain": [false], "free_energy": -9.151, "intermolecular_energy": -13.248, "internal_energy": -0.946}

$$$$
5c2h_ligand
     RDKit          3D

 55 58  0  0  0  0  0  0  0  0999 V2000
    8.1960   42.1680   51.1280 C   0  0  0  0  0  0  0  0  0  0  0  0
    9.0700   41.9810   52.3160 C   0  0  0  0  0  0  0  0  0  0  0  0
    8.9180   42.6130   53.4580 N   0  0  0  0  0  0  0  0  0  0  0  0
    9.8960   42.2180   54.3580 C   0  0  0  0  0  0  0  0  0  0  0  0
    9.8900   42.8130   55.7200 C   0  0  0  0  0  0  0  0  0  0  0  0
   10.7890   41.2780   53.8700 C   0  0  0  0  0  0  0  0  0  0  0  0
   11.9550   40.6350   54.5600 C   0  0  0  0  0  0  0  0  0  0  0  0
   13.2100   41.3400   54.2950 N   0  0  0  0  0  0  0  0  0  0  0  0
   13.4310   42.4820   55.0850 C   0  0  0  0  0  0  0  0  0  0  0  0
   13.6240   42.3250   56.4040 N   0  0  0  0  0  0  0  0  0  0  0  0
   13.8380   43.4180   57.1430 C   0  0  0  0  0  0  0  0  0  0  0  0
   13.9610   43.1800   58.4920 O   0  0  0  0  0  0  0  0  0  0  0  0
   13.6450   41.8550   58.9130 C   0  0  0  0  0  0  0  0  0  0  0  0
   12.3720   41.8380   59.7570 C   0  0  0  0  0  0  0  0  0  0  0  0
   11.1090   41.6070   58.9280 C   0  0  0  0  0  0  0  0  0  0  0  0
   10.2230   40.5650   59.5640 C   0  0  0  0  0  0  0  0  0  0  0  0
   10.2820   40.3270   60.9310 C   0  0  0  0  0  0  0  0  0  0  0  0
    9.4600   39.3460   61.4720 C   0  0  0  0  0  0  0  0  0  0  0  0
    8.5990   38.6220   60.6400 C   0  0  0  0  0  0  0  0  0  0  0  0
    7.7490   37.6210   61.1420 C   0  0  0  0  0  0  0  0  0  0  0  0
    6.9050   36.9190   60.2840 C   0  0  0  0  0  0  0  0  0  0  0  0
    6.9070   37.2130   58.9250 C   0  0  0  0  0  0  0  0  0  0  0  0
    7.7540   38.2100   58.4310 C   0  0  0  0  0  0  0  0  0  0  0  0
    8.6050   38.9250   59.2620 C   0  0  0  0  0  0  0  0  0  0  0  0
    9.4010   39.8740   58.7370 N   0  0  0  0  0  0  0  0  0  0  0  0
   13.8600   44.6650   56.6840 N   0  0  0  0  0  0  0  0  0  0  0  0
   13.6850   44.7800   55.3600 C   0  0  0  0  0  0  0  0  0  0  0  0
   13.7110   46.4260   54.8480 Cl  0  0  0  0  0  0  0  0  0  0  0  0
   13.4880   43.7310   54.4810 C   0  0  0  0  0  0  0  0  0  0  0  0
   13.3000   43.9410   53.0110 C   0  0  0  0  0  0  0  0  0  0  0  0
   10.3810   40.8740   52.2540 S   0  0  0  0  0  0  0  0  0  0  0  0
    7.1700   42.3875   51.4585 H   0  0  0  0  0  0  0  0  0  0  0  0
    8.5736   43.0057   50.5232 H   0  0  0  0  0  0  0  0  0  0  0  0
    8.1977   41.2492   50.5232 H   0  0  0  0  0  0  0  0  0  0  0  0
    9.8981   42.0095   56.4712 H   0  0  0  0  0  0  0  0  0  0  0  0
   10.7818   43.4440   55.8484 H   0  0  0  0  0  0  0  0  0  0  0  0
    8.9856   43.4259   55.8484 H   0  0  0  0  0  0  0  0  0  0  0  0
   11.7699   40.6361   55.6443 H   0  0  0  0  0  0  0  0  0  0  0  0
   12.0543   39.6103   54.1726 H   0  0  0  0  0  0  0  0  0  0  0  0
   13.2780   41.5810   53.3110 H   0  0  0  0  0  0  0  0  0  0  0  0
   13.4971   41.2214   58.0261 H   0  0  0  0  0  0  0  0  0  0  0  0
   14.4761   41.4739   59.5245 H   0  0  0  0  0  0  0  0  0  0  0  0
   12.4553   41.0320   60.5009 H   0  0  0  0  0  0  0  0  0  0  0  0
   12.2783   42.8262   60.2311 H   0  0  0  0  0  0  0  0  0  0  0  0
   10.5524   42.5527   58.8507 H   0  0  0  0  0  0  0  0  0  0  0  0
   11.4068   41.2500   57.9311 H   0  0  0  0  0  0  0  0  0  0  0  0
   10.9653   40.9032   61.5722 H   0  0  0  0  0  0  0  0  0  0  0  0
    9.4861   39.1390   62.5520 H   0  0  0  0  0  0  0  0  0  0  0  0
    7.7503   37.3908   62.2176 H   0  0  0  0  0  0  0  0  0  0  0  0
    6.2408   36.1365   60.6796 H   0  0  0  0  0  0  0  0  0  0  0  0
    6.2444   36.6630   58.2406 H   0  0  0  0  0  0  0  0  0  0  0  0
    7.7455   38.4337   57.3540 H   0  0  0  0  0  0  0  0  0  0  0  0
   12.5746   44.7513   52.8462 H   0  0  0  0  0  0  0  0  0  0  0  0
   14.2628   44.2121   52.5532 H   0  0  0  0  0  0  0  0  0  0  0  0
   12.9245   43.0140   52.5532 H   0  0  0  0  0  0  0  0  0  0  0  0
  1  2  1  0
  2  3  2  0
  3  4  1  0
  4  5  1  0
  4  6  2  0
  6  7  1  0
  7  8  1  0
  8  9  1  0
  9 10  2  0
 10 11  1  0
 11 12  1  0
 12 13  1  0
 13 14  1  0
 14 15  1  0
 15 16  1  0
 16 17  2  0
 17 18  1  0
 18 19  2  0
 19 20  1  0
 20 21  2  0
 21 22  1  0
 22 23  2  0
 23 24  1  0
 24 25  2  0
 11 26  2  0
 26 27  1  0
 27 28  1  0
 27 29  2  0
 29 30  1  0
  6 31  1  0
 31  2  1  0
 29  9  1  0
 25 16  1  0
 24 19  1  0
  1 32  1  0
  1 33  1  0
  1 34  1  0
  5 35  1  0
  5 36  1  0
  5 37  1  0
  7 38  1  0
  7 39  1  0
  8 40  1  0
 13 41  1  0
 13 42  1  0
 14 43  1  0
 14 44  1  0
 15 45  1  0
 15 46  1  0
 17 47  1  0
 18 48  1  0
 20 49  1  0
 21 50  1  0
 22 51  1  0
 23 52  1  0
 30 53  1  0
 30 54  1  0
 30 55  1  0
M  END
>  <meeko>  (4) 
{"is_sidechain": [false], "free_energy": -9.085, "intermolecular_energy": -12.588, "internal_energy": -1.51}

$$$$
5c2h_ligand
     RDKit          3D

 55 58  0  0  0  0  0  0  0  0999 V2000
   12.6070   43.2060   50.4170 C   0  0  0  0  0  0  0  0  0  0  0  0
   12.6220   43.2160   51.9040 C   0  0  0  0  0  0  0  0  0  0  0  0
   12.9360   44.2620   52.6370 N   0  0  0  0  0  0  0  0  0  0  0  0
   12.8570   43.9430   53.9840 C   0  0  0  0  0  0  0  0  0  0  0  0
   13.1640   45.0000   54.9840 C   0  0  0  0  0  0  0  0  0  0  0  0
   12.4820   42.6360   54.2510 C   0  0  0  0  0  0  0  0  0  0  0  0
   12.2970   41.9580   55.5760 C   0  0  0  0  0  0  0  0  0  0  0  0
   12.1700   40.5070   55.4400 N   0  0  0  0  0  0  0  0  0  0  0  0
   11.3010   39.8940   56.3580 C   0  0  0  0  0  0  0  0  0  0  0  0
   11.6040   39.9450   57.6650 N   0  0  0  0  0  0  0  0  0  0  0  0
   10.7670   39.3630   58.5290 C   0  0  0  0  0  0  0  0  0  0  0  0
   11.1810   39.4020   59.8400 O   0  0  0  0  0  0  0  0  0  0  0  0
   10.2090   39.8580   60.7770 C   0  0  0  0  0  0  0  0  0  0  0  0
    9.8210   41.3100   60.5020 C   0  0  0  0  0  0  0  0  0  0  0  0
    8.3250   41.4880   60.2430 C   0  0  0  0  0  0  0  0  0  0  0  0
    8.0680   42.6460   59.3100 C   0  0  0  0  0  0  0  0  0  0  0  0
    6.9990   43.5040   59.5280 C   0  0  0  0  0  0  0  0  0  0  0  0
    6.7900   44.5480   58.6330 C   0  0  0  0  0  0  0  0  0  0  0  0
    7.6480   44.7100   57.5410 C   0  0  0  0  0  0  0  0  0  0  0  0
    7.4760   45.7500   56.6100 C   0  0  0  0  0  0  0  0  0  0  0  0
    8.3490   45.8820   55.5320 C   0  0  0  0  0  0  0  0  0  0  0  0
    9.3950   44.9780   55.3800 C   0  0  0  0  0  0  0  0  0  0  0  0
    9.5610   43.9460   56.3090 C   0  0  0  0  0  0  0  0  0  0  0  0
    8.7070   43.7910   57.3910 C   0  0  0  0  0  0  0  0  0  0  0  0
    8.9100   42.7800   58.2560 N   0  0  0  0  0  0  0  0  0  0  0  0
    9.6530   38.7140   58.2030 N   0  0  0  0  0  0  0  0  0  0  0  0
    9.3730   38.7030   56.8930 C   0  0  0  0  0  0  0  0  0  0  0  0
    7.9250   37.8300   56.5530 Cl  0  0  0  0  0  0  0  0  0  0  0  0
   10.1350   39.2940   55.9020 C   0  0  0  0  0  0  0  0  0  0  0  0
    9.7530   39.2370   54.4560 C   0  0  0  0  0  0  0  0  0  0  0  0
   12.2090   41.7990   52.7790 S   0  0  0  0  0  0  0  0  0  0  0  0
   11.7404   42.6284   50.0629 H   0  0  0  0  0  0  0  0  0  0  0  0
   12.5366   44.2385   50.0441 H   0  0  0  0  0  0  0  0  0  0  0  0
   13.5329   42.7438   50.0441 H   0  0  0  0  0  0  0  0  0  0  0  0
   13.0452   44.5909   55.9982 H   0  0  0  0  0  0  0  0  0  0  0  0
   14.1995   45.3450   54.8468 H   0  0  0  0  0  0  0  0  0  0  0  0
   12.4744   45.8460   54.8468 H   0  0  0  0  0  0  0  0  0  0  0  0
   13.1666   42.1796   56.2121 H   0  0  0  0  0  0  0  0  0  0  0  0
   11.3670   42.3384   56.0237 H   0  0  0  0  0  0  0  0  0  0  0  0
   13.0850   40.0670   55.4830 H   0  0  0  0  0  0  0  0  0  0  0  0
    9.3121   39.2256   60.7012 H   0  0  0  0  0  0  0  0  0  0  0  0
   10.6404   39.7962   61.7870 H   0  0  0  0  0  0  0  0  0  0  0  0
   10.1010   41.9192   61.3741 H   0  0  0  0  0  0  0  0  0  0  0  0
   10.3530   41.6270   59.5929 H   0  0  0  0  0  0  0  0  0  0  0  0
    7.9268   40.5676   59.7910 H   0  0  0  0  0  0  0  0  0  0  0  0
    7.8272   41.6953   61.2017 H   0  0  0  0  0  0  0  0  0  0  0  0
    6.3312   43.3614   60.3904 H   0  0  0  0  0  0  0  0  0  0  0  0
    5.9519   45.2443   58.7839 H   0  0  0  0  0  0  0  0  0  0  0  0
    6.6477   46.4632   56.7335 H   0  0  0  0  0  0  0  0  0  0  0  0
    8.2117   46.6964   54.8055 H   0  0  0  0  0  0  0  0  0  0  0  0
   10.0892   45.0745   54.5322 H   0  0  0  0  0  0  0  0  0  0  0  0
   10.3920   43.2373   56.1780 H   0  0  0  0  0  0  0  0  0  0  0  0
    8.6684   39.0752   54.3694 H   0  0  0  0  0  0  0  0  0  0  0  0
   10.0224   40.1853   53.9679 H   0  0  0  0  0  0  0  0  0  0  0  0
   10.2875   38.4087   53.9679 H   0  0  0  0  0  0  0  0  0  0  0  0
  1  2  1  0
  2  3  2  0
  3  4  1  0
  4  5  1  0
  4  6  2  0
  6  7  1  0
  7  8  1  0
  8  9  1  0
  9 10  2  0
 10 11  1  0
 11 12  1  0
 12 13  1  0
 13 14  1  0
 14 15  1  0
 15 16  1  0
 16 17  2  0
 17 18  1  0
 18 19  2  0
 19 20  1  0
 20 21  2  0
 21 22  1  0
 22 23  2  0
 23 24  1  0
 24 25  2  0
 11 26  2  0
 26 27  1  0
 27 28  1  0
 27 29  2  0
 29 30  1  0
  6 31  1  0
 31  2  1  0
 29  9  1  0
 25 16  1  0
 24 19  1  0
  1 32  1  0
  1 33  1  0
  1 34  1  0
  5 35  1  0
  5 36  1  0
  5 37  1  0
  7 38  1  0
  7 39  1  0
  8 40  1  0
 13 41  1  0
 13 42  1  0
 14 43  1  0
 14 44  1  0
 15 45  1  0
 15 46  1  0
 17 47  1  0
 18 48  1  0
 20 49  1  0
 21 50  1  0
 22 51  1  0
 23 52  1  0
 30 53  1  0
 30 54  1  0
 30 55  1  0
M  END
>  <meeko>  (5) 
{"is_sidechain": [false], "free_energy": -9.045, "intermolecular_energy": -12.321, "internal_energy": -1.718}

$$$$
5c2h_ligand
     RDKit          3D

 55 58  0  0  0  0  0  0  0  0999 V2000
   14.2040   43.3930   58.8210 C   0  0  0  0  0  0  0  0  0  0  0  0
   13.2730   42.4730   58.1150 C   0  0  0  0  0  0  0  0  0  0  0  0
   13.3920   42.1180   56.8550 N   0  0  0  0  0  0  0  0  0  0  0  0
   12.3640   41.2560   56.5020 C   0  0  0  0  0  0  0  0  0  0  0  0
   12.3260   40.7270   55.1130 C   0  0  0  0  0  0  0  0  0  0  0  0
   11.4670   40.9740   57.5190 C   0  0  0  0  0  0  0  0  0  0  0  0
   10.2530   40.0930   57.4910 C   0  0  0  0  0  0  0  0  0  0  0  0
    9.4780   40.1840   58.7280 N   0  0  0  0  0  0  0  0  0  0  0  0
    8.6170   39.1000   58.9750 C   0  0  0  0  0  0  0  0  0  0  0  0
    8.0000   38.5180   57.9340 N   0  0  0  0  0  0  0  0  0  0  0  0
    7.1880   37.4860   58.1810 C   0  0  0  0  0  0  0  0  0  0  0  0
    6.5440   36.9880   57.0720 O   0  0  0  0  0  0  0  0  0  0  0  0
    5.1470   36.7540   57.2270 C   0  0  0  0  0  0  0  0  0  0  0  0
    4.8090   35.2820   57.0000 C   0  0  0  0  0  0  0  0  0  0  0  0
    4.9900   34.8460   55.5450 C   0  0  0  0  0  0  0  0  0  0  0  0
    3.6960   34.9570   54.7790 C   0  0  0  0  0  0  0  0  0  0  0  0
    3.6300   34.5750   53.4450 C   0  0  0  0  0  0  0  0  0  0  0  0
    2.4210   34.7100   52.7730 C   0  0  0  0  0  0  0  0  0  0  0  0
    1.3060   35.2250   53.4430 C   0  0  0  0  0  0  0  0  0  0  0  0
    0.0620   35.3800   52.8040 C   0  0  0  0  0  0  0  0  0  0  0  0
   -1.0270   35.8960   53.5010 C   0  0  0  0  0  0  0  0  0  0  0  0
   -0.8800   36.2600   54.8360 C   0  0  0  0  0  0  0  0  0  0  0  0
    0.3590   36.1040   55.4660 C   0  0  0  0  0  0  0  0  0  0  0  0
    1.4610   35.5910   54.7950 C   0  0  0  0  0  0  0  0  0  0  0  0
    2.6300   35.4620   55.4480 N   0  0  0  0  0  0  0  0  0  0  0  0
    6.9210   36.9870   59.3840 N   0  0  0  0  0  0  0  0  0  0  0  0
    7.5720   37.5800   60.3940 C   0  0  0  0  0  0  0  0  0  0  0  0
    7.1580   36.8870   61.9190 Cl  0  0  0  0  0  0  0  0  0  0  0  0
    8.4610   38.6310   60.2720 C   0  0  0  0  0  0  0  0  0  0  0  0
    9.1500   39.2400   61.4530 C   0  0  0  0  0  0  0  0  0  0  0  0
   11.9350   41.7960   58.9500 S   0  0  0  0  0  0  0  0  0  0  0  0
   14.0833   43.2738   59.9078 H   0  0  0  0  0  0  0  0  0  0  0  0
   15.2399   43.1540   58.5387 H   0  0  0  0  0  0  0  0  0  0  0  0
   13.9773   44.4317   58.5387 H   0  0  0  0  0  0  0  0  0  0  0  0
   12.2472   39.6302   55.1404 H   0  0  0  0  0  0  0  0  0  0  0  0
   11.4555   41.1441   54.5855 H   0  0  0  0  0  0  0  0  0  0  0  0
   13.2472   41.0154   54.5855 H   0  0  0  0  0  0  0  0  0  0  0  0
    9.6138   40.3967   56.6489 H   0  0  0  0  0  0  0  0  0  0  0  0
   10.5923   39.0525   57.3798 H   0  0  0  0  0  0  0  0  0  0  0  0
    8.9540   41.0540   58.7540 H   0  0  0  0  0  0  0  0  0  0  0  0
    4.8456   37.0391   58.2457 H   0  0  0  0  0  0  0  0  0  0  0  0
    4.6065   37.3562   56.4818 H   0  0  0  0  0  0  0  0  0  0  0  0
    5.4666   34.6693   57.6342 H   0  0  0  0  0  0  0  0  0  0  0  0
    3.7481   35.1442   57.2558 H   0  0  0  0  0  0  0  0  0  0  0  0
    5.7453   35.4885   55.0689 H   0  0  0  0  0  0  0  0  0  0  0  0
    5.3133   33.7946   55.5334 H   0  0  0  0  0  0  0  0  0  0  0  0
    4.5162   34.1740   52.9313 H   0  0  0  0  0  0  0  0  0  0  0  0
    2.3410   34.4127   51.7170 H   0  0  0  0  0  0  0  0  0  0  0  0
   -0.0506   35.0920   51.7484 H   0  0  0  0  0  0  0  0  0  0  0  0
   -1.9985   36.0153   52.9991 H   0  0  0  0  0  0  0  0  0  0  0  0
   -1.7352   36.6690   55.3939 H   0  0  0  0  0  0  0  0  0  0  0  0
    0.4632   36.3956   56.5215 H   0  0  0  0  0  0  0  0  0  0  0  0
    8.7057   38.8473   62.3795 H   0  0  0  0  0  0  0  0  0  0  0  0
   10.2202   38.9872   61.4237 H   0  0  0  0  0  0  0  0  0  0  0  0
    9.0305   40.3331   61.4237 H   0  0  0  0  0  0  0  0  0  0  0  0
  1  2  1  0
  2  3  2  0
  3  4  1  0
  4  5  1  0
  4  6  2  0
  6  7  1  0
  7  8  1  0
  8  9  1  0
  9 10  2  0
 10 11  1  0
 11 12  1  0
 12 13  1  0
 13 14  1  0
 14 15  1  0
 15 16  1  0
 16 17  2  0
 17 18  1  0
 18 19  2  0
 19 20  1  0
 20 21  2  0
 21 22  1  0
 22 23  2  0
 23 24  1  0
 24 25  2  0
 11 26  2  0
 26 27  1  0
 27 28  1  0
 27 29  2  0
 29 30  1  0
  6 31  1  0
 31  2  1  0
 29  9  1  0
 25 16  1  0
 24 19  1  0
  1 32  1  0
  1 33  1  0
  1 34  1  0
  5 35  1  0
  5 36  1  0
  5 37  1  0
  7 38  1  0
  7 39  1  0
  8 40  1  0
 13 41  1  0
 13 42  1  0
 14 43  1  0
 14 44  1  0
 15 45  1  0
 15 46  1  0
 17 47  1  0
 18 48  1  0
 20 49  1  0
 21 50  1  0
 22 51  1  0
 23 52  1  0
 30 53  1  0
 30 54  1  0
 30 55  1  0
M  END
>  <meeko>  (6) 
{"is_sidechain": [false], "free_energy": -9.021, "intermolecular_energy": -13.357, "internal_energy": -0.647}

$$$$
5c2h_ligand
     RDKit          3D

 55 58  0  0  0  0  0  0  0  0999 V2000
   10.2170   44.2640   55.1460 C   0  0  0  0  0  0  0  0  0  0  0  0
   10.0510   42.8210   55.4630 C   0  0  0  0  0  0  0  0  0  0  0  0
    9.7550   41.8940   54.5790 N   0  0  0  0  0  0  0  0  0  0  0  0
    9.6690   40.6550   55.1950 C   0  0  0  0  0  0  0  0  0  0  0  0
    9.3530   39.4670   54.3590 C   0  0  0  0  0  0  0  0  0  0  0  0
    9.9030   40.6680   56.5600 C   0  0  0  0  0  0  0  0  0  0  0  0
    9.8930   39.5240   57.5310 C   0  0  0  0  0  0  0  0  0  0  0  0
    9.3500   39.9110   58.8330 N   0  0  0  0  0  0  0  0  0  0  0  0
    8.6540   38.8980   59.5150 C   0  0  0  0  0  0  0  0  0  0  0  0
    7.7010   38.2180   58.8590 N   0  0  0  0  0  0  0  0  0  0  0  0
    7.0490   37.2540   59.5160 C   0  0  0  0  0  0  0  0  0  0  0  0
    6.0450   36.6500   58.7960 O   0  0  0  0  0  0  0  0  0  0  0  0
    5.6470   37.3300   57.6080 C   0  0  0  0  0  0  0  0  0  0  0  0
    5.7060   36.3990   56.3990 C   0  0  0  0  0  0  0  0  0  0  0  0
    4.8110   35.1680   56.5490 C   0  0  0  0  0  0  0  0  0  0  0  0
    3.7220   35.1570   55.5050 C   0  0  0  0  0  0  0  0  0  0  0  0
    3.9920   34.7420   54.2070 C   0  0  0  0  0  0  0  0  0  0  0  0
    2.9630   34.7640   53.2730 C   0  0  0  0  0  0  0  0  0  0  0  0
    1.6890   35.2020   53.6510 C   0  0  0  0  0  0  0  0  0  0  0  0
    0.6170   35.2410   52.7420 C   0  0  0  0  0  0  0  0  0  0  0  0
   -0.6380   35.6840   53.1520 C   0  0  0  0  0  0  0  0  0  0  0  0
   -0.8280   36.0870   54.4690 C   0  0  0  0  0  0  0  0  0  0  0  0
    0.2410   36.0460   55.3700 C   0  0  0  0  0  0  0  0  0  0  0  0
    1.5020   35.6100   54.9880 C   0  0  0  0  0  0  0  0  0  0  0  0
    2.4970   35.5890   55.8940 N   0  0  0  0  0  0  0  0  0  0  0  0
    7.2530   36.9150   60.7850 N   0  0  0  0  0  0  0  0  0  0  0  0
    8.2260   37.6010   61.4000 C   0  0  0  0  0  0  0  0  0  0  0  0
    8.4150   37.1130   63.0440 Cl  0  0  0  0  0  0  0  0  0  0  0  0
    8.9950   38.5960   60.8260 C   0  0  0  0  0  0  0  0  0  0  0  0
   10.0670   39.3170   61.5820 C   0  0  0  0  0  0  0  0  0  0  0  0
   10.2510   42.2660   57.0750 S   0  0  0  0  0  0  0  0  0  0  0  0
   10.2832   44.8396   56.0811 H   0  0  0  0  0  0  0  0  0  0  0  0
   11.1376   44.4074   54.5612 H   0  0  0  0  0  0  0  0  0  0  0  0
    9.3530   44.6127   54.5612 H   0  0  0  0  0  0  0  0  0  0  0  0
    9.1251   38.6104   55.0104 H   0  0  0  0  0  0  0  0  0  0  0  0
    8.4821   39.6867   53.7240 H   0  0  0  0  0  0  0  0  0  0  0  0
   10.2180   39.2249   53.7240 H   0  0  0  0  0  0  0  0  0  0  0  0
    9.2764   38.7127   57.1167 H   0  0  0  0  0  0  0  0  0  0  0  0
   10.9330   39.1986   57.6813 H   0  0  0  0  0  0  0  0  0  0  0  0
    8.7610   40.7330   58.7400 H   0  0  0  0  0  0  0  0  0  0  0  0
    4.6168   37.6955   57.7307 H   0  0  0  0  0  0  0  0  0  0  0  0
    6.3361   38.1702   57.4374 H   0  0  0  0  0  0  0  0  0  0  0  0
    5.3848   36.9596   55.5088 H   0  0  0  0  0  0  0  0  0  0  0  0
    6.7428   36.0431   56.3079 H   0  0  0  0  0  0  0  0  0  0  0  0
    5.4247   34.2620   56.4373 H   0  0  0  0  0  0  0  0  0  0  0  0
    4.3412   35.1970   57.5432 H   0  0  0  0  0  0  0  0  0  0  0  0
    4.9995   34.4029   53.9242 H   0  0  0  0  0  0  0  0  0  0  0  0
    3.1497   34.4379   52.2392 H   0  0  0  0  0  0  0  0  0  0  0  0
    0.7705   34.9198   51.7012 H   0  0  0  0  0  0  0  0  0  0  0  0
   -1.4742   35.7149   52.4380 H   0  0  0  0  0  0  0  0  0  0  0  0
   -1.8164   36.4371   54.8015 H   0  0  0  0  0  0  0  0  0  0  0  0
    0.0779   36.3679   56.4091 H   0  0  0  0  0  0  0  0  0  0  0  0
    9.8950   39.2013   62.6623 H   0  0  0  0  0  0  0  0  0  0  0  0
   11.0482   38.8945   61.3196 H   0  0  0  0  0  0  0  0  0  0  0  0
   10.0457   40.3850   61.3196 H   0  0  0  0  0  0  0  0  0  0  0  0
  1  2  1  0
  2  3  2  0
  3  4  1  0
  4  5  1  0
  4  6  2  0
  6  7  1  0
  7  8  1  0
  8  9  1  0
  9 10  2  0
 10 11  1  0
 11 12  1  0
 12 13  1  0
 13 14  1  0
 14 15  1  0
 15 16  1  0
 16 17  2  0
 17 18  1  0
 18 19  2  0
 19 20  1  0
 20 21  2  0
 21 22  1  0
 22 23  2  0
 23 24  1  0
 24 25  2  0
 11 26  2  0
 26 27  1  0
 27 28  1  0
 27 29  2  0
 29 30  1  0
  6 31  1  0
 31  2  1  0
 29  9  1  0
 25 16  1  0
 24 19  1  0
  1 32  1  0
  1 33  1  0
  1 34  1  0
  5 35  1  0
  5 36  1  0
  5 37  1  0
  7 38  1  0
  7 39  1  0
  8 40  1  0
 13 41  1  0
 13 42  1  0
 14 43  1  0
 14 44  1  0
 15 45  1  0
 15 46  1  0
 17 47  1  0
 18 48  1  0
 20 49  1  0
 21 50  1  0
 22 51  1  0
 23 52  1  0
 30 53  1  0
 30 54  1  0
 30 55  1  0
M  END
>  <meeko>  (7) 
{"is_sidechain": [false], "free_energy": -8.956, "intermolecular_energy": -13.123, "internal_energy": -0.786}

$$$$
5c2h_ligand
     RDKit          3D

 55 58  0  0  0  0  0  0  0  0999 V2000
    9.4200   45.0710   55.5260 C   0  0  0  0  0  0  0  0  0  0  0  0
    9.6800   43.6210   55.3280 C   0  0  0  0  0  0  0  0  0  0  0  0
    9.6750   43.0170   54.1600 N   0  0  0  0  0  0  0  0  0  0  0  0
    9.9500   41.6670   54.3190 C   0  0  0  0  0  0  0  0  0  0  0  0
   10.0020   40.8060   53.1080 C   0  0  0  0  0  0  0  0  0  0  0  0
   10.1570   41.2660   55.6280 C   0  0  0  0  0  0  0  0  0  0  0  0
   10.4730   39.8980   56.1590 C   0  0  0  0  0  0  0  0  0  0  0  0
    9.2950   39.2410   56.7250 N   0  0  0  0  0  0  0  0  0  0  0  0
    9.2890   39.1300   58.1270 C   0  0  0  0  0  0  0  0  0  0  0  0
   10.1960   39.8240   58.8310 N   0  0  0  0  0  0  0  0  0  0  0  0
   10.1780   39.7140   60.1630 C   0  0  0  0  0  0  0  0  0  0  0  0
   11.1790   40.4040   60.8070 O   0  0  0  0  0  0  0  0  0  0  0  0
   12.4110   40.5030   60.0980 C   0  0  0  0  0  0  0  0  0  0  0  0
   12.6660   41.9390   59.6430 C   0  0  0  0  0  0  0  0  0  0  0  0
   13.9820   42.0990   58.8820 C   0  0  0  0  0  0  0  0  0  0  0  0
   13.7620   42.7680   57.5480 C   0  0  0  0  0  0  0  0  0  0  0  0
   13.4970   44.1300   57.4770 C   0  0  0  0  0  0  0  0  0  0  0  0
   13.2840   44.7020   56.2280 C   0  0  0  0  0  0  0  0  0  0  0  0
   13.3340   43.9040   55.0790 C   0  0  0  0  0  0  0  0  0  0  0  0
   13.1250   44.4380   53.7950 C   0  0  0  0  0  0  0  0  0  0  0  0
   13.1810   43.6150   52.6720 C   0  0  0  0  0  0  0  0  0  0  0  0
   13.4470   42.2590   52.8280 C   0  0  0  0  0  0  0  0  0  0  0  0
   13.6550   41.7330   54.1070 C   0  0  0  0  0  0  0  0  0  0  0  0
   13.6040   42.5300   55.2420 C   0  0  0  0  0  0  0  0  0  0  0  0
   13.8110   41.9750   56.4500 N   0  0  0  0  0  0  0  0  0  0  0  0
    9.3400   38.9530   60.8610 N   0  0  0  0  0  0  0  0  0  0  0  0
    8.4370   38.2920   60.1240 C   0  0  0  0  0  0  0  0  0  0  0  0
    7.4010   37.3180   61.1010 Cl  0  0  0  0  0  0  0  0  0  0  0  0
    8.3270   38.3450   58.7470 C   0  0  0  0  0  0  0  0  0  0  0  0
    7.2870   37.5750   57.9950 C   0  0  0  0  0  0  0  0  0  0  0  0
   10.0190   42.6150   56.6770 S   0  0  0  0  0  0  0  0  0  0  0  0
    9.3802   45.2927   56.6027 H   0  0  0  0  0  0  0  0  0  0  0  0
   10.2277   45.6552   55.0609 H   0  0  0  0  0  0  0  0  0  0  0  0
    8.4596   45.3382   55.0609 H   0  0  0  0  0  0  0  0  0  0  0  0
   10.0657   39.7505   53.4110 H   0  0  0  0  0  0  0  0  0  0  0  0
    9.0929   40.9611   52.5085 H   0  0  0  0  0  0  0  0  0  0  0  0
   10.8859   41.0694   52.5085 H   0  0  0  0  0  0  0  0  0  0  0  0
   10.8630   39.2799   55.3369 H   0  0  0  0  0  0  0  0  0  0  0  0
   11.2165   40.0101   56.9619 H   0  0  0  0  0  0  0  0  0  0  0  0
    9.1650   38.3250   56.3050 H   0  0  0  0  0  0  0  0  0  0  0  0
   13.2319   40.1830   60.7566 H   0  0  0  0  0  0  0  0  0  0  0  0
   12.3569   39.8576   59.2089 H   0  0  0  0  0  0  0  0  0  0  0  0
   11.8408   42.2503   58.9857 H   0  0  0  0  0  0  0  0  0  0  0  0
   12.7296   42.5641   60.5459 H   0  0  0  0  0  0  0  0  0  0  0  0
   14.6711   42.7118   59.4816 H   0  0  0  0  0  0  0  0  0  0  0  0
   14.4062   41.0996   58.7051 H   0  0  0  0  0  0  0  0  0  0  0  0
   13.4566   44.7427   58.3897 H   0  0  0  0  0  0  0  0  0  0  0  0
   13.0767   45.7789   56.1428 H   0  0  0  0  0  0  0  0  0  0  0  0
   12.9161   45.5115   53.6765 H   0  0  0  0  0  0  0  0  0  0  0  0
   13.0159   44.0351   51.6689 H   0  0  0  0  0  0  0  0  0  0  0  0
   13.4937   41.6016   51.9473 H   0  0  0  0  0  0  0  0  0  0  0  0
   13.8647   40.6587   54.2163 H   0  0  0  0  0  0  0  0  0  0  0  0
    6.6134   37.0763   58.7074 H   0  0  0  0  0  0  0  0  0  0  0  0
    6.7072   38.2632   57.3624 H   0  0  0  0  0  0  0  0  0  0  0  0
    7.7760   36.8196   57.3624 H   0  0  0  0  0  0  0  0  0  0  0  0
  1  2  1  0
  2  3  2  0
  3  4  1  0
  4  5  1  0
  4  6  2  0
  6  7  1  0
  7  8  1  0
  8  9  1  0
  9 10  2  0
 10 11  1  0
 11 12  1  0
 12 13  1  0
 13 14  1  0
 14 15  1  0
 15 16  1  0
 16 17  2  0
 17 18  1  0
 18 19  2  0
 19 20  1  0
 20 21  2  0
 21 22  1  0
 22 23  2  0
 23 24  1  0
 24 25  2  0
 11 26  2  0
 26 27  1  0
 27 28  1  0
 27 29  2  0
 29 30  1  0
  6 31  1  0
 31  2  1  0
 29  9  1  0
 25 16  1  0
 24 19  1  0
  1 32  1  0
  1 33  1  0
  1 34  1  0
  5 35  1  0
  5 36  1  0
  5 37  1  0
  7 38  1  0
  7 39  1  0
  8 40  1  0
 13 41  1  0
 13 42  1  0
 14 43  1  0
 14 44  1  0
 15 45  1  0
 15 46  1  0
 17 47  1  0
 18 48  1  0
 20 49  1  0
 21 50  1  0
 22 51  1  0
 23 52  1  0
 30 53  1  0
 30 54  1  0
 30 55  1  0
M  END
>  <meeko>  (8) 
{"is_sidechain": [false], "free_energy": -8.73, "intermolecular_energy": -11.278, "internal_energy": -2.299}

$$$$
5c2h_ligand
     RDKit          3D

 55 58  0  0  0  0  0  0  0  0999 V2000
    9.5570   36.1850   54.5140 C   0  0  0  0  0  0  0  0  0  0  0  0
    9.9180   37.6220   54.6340 C   0  0  0  0  0  0  0  0  0  0  0  0
    9.6850   38.3620   55.6960 N   0  0  0  0  0  0  0  0  0  0  0  0
   10.1390   39.6550   55.4870 C   0  0  0  0  0  0  0  0  0  0  0  0
    9.9780   40.6490   56.5810 C   0  0  0  0  0  0  0  0  0  0  0  0
   10.7130   39.8760   54.2470 C   0  0  0  0  0  0  0  0  0  0  0  0
   11.3040   41.1380   53.6900 C   0  0  0  0  0  0  0  0  0  0  0  0
   12.7260   41.2680   54.0080 N   0  0  0  0  0  0  0  0  0  0  0  0
   13.0470   42.3040   54.9030 C   0  0  0  0  0  0  0  0  0  0  0  0
   13.1840   42.0100   56.2050 N   0  0  0  0  0  0  0  0  0  0  0  0
   13.4930   43.0030   57.0450 C   0  0  0  0  0  0  0  0  0  0  0  0
   13.5520   42.6330   58.3690 O   0  0  0  0  0  0  0  0  0  0  0  0
   13.3380   41.2480   58.6290 C   0  0  0  0  0  0  0  0  0  0  0  0
   12.7760   41.0360   60.0340 C   0  0  0  0  0  0  0  0  0  0  0  0
   11.3060   41.4420   60.1550 C   0  0  0  0  0  0  0  0  0  0  0  0
   10.4770   40.3180   60.7260 C   0  0  0  0  0  0  0  0  0  0  0  0
   10.7880   39.7700   61.9640 C   0  0  0  0  0  0  0  0  0  0  0  0
   10.0070   38.7250   62.4440 C   0  0  0  0  0  0  0  0  0  0  0  0
    8.9370   38.2480   61.6800 C   0  0  0  0  0  0  0  0  0  0  0  0
    8.1190   37.1930   62.1240 C   0  0  0  0  0  0  0  0  0  0  0  0
    7.0620   36.7420   61.3370 C   0  0  0  0  0  0  0  0  0  0  0  0
    6.8180   37.3410   60.1060 C   0  0  0  0  0  0  0  0  0  0  0  0
    7.6340   38.3890   59.6690 C   0  0  0  0  0  0  0  0  0  0  0  0
    8.6930   38.8590   60.4320 C   0  0  0  0  0  0  0  0  0  0  0  0
    9.4480   39.8700   59.9660 N   0  0  0  0  0  0  0  0  0  0  0  0
   13.6620   44.2760   56.7030 N   0  0  0  0  0  0  0  0  0  0  0  0
   13.5380   44.5260   55.3920 C   0  0  0  0  0  0  0  0  0  0  0  0
   13.7550   46.1990   55.0340 Cl  0  0  0  0  0  0  0  0  0  0  0  0
   13.2550   43.5880   54.4170 C   0  0  0  0  0  0  0  0  0  0  0  0
   13.1320   43.9470   52.9690 C   0  0  0  0  0  0  0  0  0  0  0  0
   10.6960   38.4260   53.3320 S   0  0  0  0  0  0  0  0  0  0  0  0
    9.4476   35.7494   55.5181 H   0  0  0  0  0  0  0  0  0  0  0  0
    8.6071   36.0900   53.9675 H   0  0  0  0  0  0  0  0  0  0  0  0
   10.3492   35.6523   53.9675 H   0  0  0  0  0  0  0  0  0  0  0  0
   10.0603   40.1409   57.5531 H   0  0  0  0  0  0  0  0  0  0  0  0
   10.7639   41.4143   56.4996 H   0  0  0  0  0  0  0  0  0  0  0  0
    8.9907   41.1271   56.4996 H   0  0  0  0  0  0  0  0  0  0  0  0
   11.1843   41.1330   52.5965 H   0  0  0  0  0  0  0  0  0  0  0  0
   10.7763   41.9887   54.1459 H   0  0  0  0  0  0  0  0  0  0  0  0
   13.2710   41.3660   53.1560 H   0  0  0  0  0  0  0  0  0  0  0  0
   12.6250   40.8495   57.8923 H   0  0  0  0  0  0  0  0  0  0  0  0
   14.3022   40.7239   58.5540 H   0  0  0  0  0  0  0  0  0  0  0  0
   12.8682   39.9706   60.2918 H   0  0  0  0  0  0  0  0  0  0  0  0
   13.3522   41.6746   60.7197 H   0  0  0  0  0  0  0  0  0  0  0  0
   11.2284   42.3175   60.8165 H   0  0  0  0  0  0  0  0  0  0  0  0
   10.9259   41.6811   59.1508 H   0  0  0  0  0  0  0  0  0  0  0  0
   11.6343   40.1548   62.5520 H   0  0  0  0  0  0  0  0  0  0  0  0
   10.2300   38.2743   63.4223 H   0  0  0  0  0  0  0  0  0  0  0  0
    8.3153   36.7216   63.0983 H   0  0  0  0  0  0  0  0  0  0  0  0
    6.4241   35.9170   61.6871 H   0  0  0  0  0  0  0  0  0  0  0  0
    5.9854   36.9914   59.4778 H   0  0  0  0  0  0  0  0  0  0  0  0
    7.4306   38.8538   58.6930 H   0  0  0  0  0  0  0  0  0  0  0  0
   12.7767   44.9840   52.8772 H   0  0  0  0  0  0  0  0  0  0  0  0
   14.1141   43.8515   52.4829 H   0  0  0  0  0  0  0  0  0  0  0  0
   12.4148   43.2693   52.4829 H   0  0  0  0  0  0  0  0  0  0  0  0
  1  2  1  0
  2  3  2  0
  3  4  1  0
  4  5  1  0
  4  6  2  0
  6  7  1  0
  7  8  1  0
  8  9  1  0
  9 10  2  0
 10 11  1  0
 11 12  1  0
 12 13  1  0
 13 14  1  0
 14 15  1  0
 15 16  1  0
 16 17  2  0
 17 18  1  0
 18 19  2  0
 19 20  1  0
 20 21  2  0
 21 22  1  0
 22 23  2  0
 23 24  1  0
 24 25  2  0
 11 26  2  0
 26 27  1  0
 27 28  1  0
 27 29  2  0
 29 30  1  0
  6 31  1  0
 31  2  1  0
 29  9  1  0
 25 16  1  0
 24 19  1  0
  1 32  1  0
  1 33  1  0
  1 34  1  0
  5 35  1  0
  5 36  1  0
  5 37  1  0
  7 38  1  0
  7 39  1  0
  8 40  1  0
 13 41  1  0
 13 42  1  0
 14 43  1  0
 14 44  1  0
 15 45  1  0
 15 46  1  0
 17 47  1  0
 18 48  1  0
 20 49  1  0
 21 50  1  0
 22 51  1  0
 23 52  1  0
 30 53  1  0
 30 54  1  0
 30 55  1  0
M  END
>  <meeko>  (9) 
{"is_sidechain": [false], "free_energy": -8.664, "intermolecular_energy": -12.155, "internal_energy": -1.324}

$$$$
