4j28_ligand
     RDKit          3D

 33 35  0  0  0  0  0  0  0  0999 V2000
  -16.6050    8.3950   31.5540 C   0  0  0  0  0  0  0  0  0  0  0  0
  -16.2140    9.6700   32.2850 C   0  0  2  0  0  0  0  0  0  0  0  0
  -17.4460   10.5240   32.4710 N   0  0  0  0  0  0  0  0  0  0  0  0
  -17.0670   11.9550   32.1420 C   0  0  1  0  0  0  0  0  0  0  0  0
  -16.5430   12.6380   33.3580 C   0  0  0  0  0  0  0  0  0  0  0  0
  -15.7460   13.6890   33.3390 N   0  0  0  0  0  0  0  0  0  0  0  0
  -15.5050   13.9910   34.6590 C   0  0  0  0  0  0  0  0  0  0  0  0
  -14.7290   15.0140   35.2180 C   0  0  0  0  0  0  0  0  0  0  0  0
  -14.6460   15.1030   36.6140 C   0  0  0  0  0  0  0  0  0  0  0  0
  -15.3190   14.1910   37.4310 C   0  0  0  0  0  0  0  0  0  0  0  0
  -16.0970   13.1620   36.8880 C   0  0  0  0  0  0  0  0  0  0  0  0
  -16.1640   13.0970   35.4950 C   0  0  0  0  0  0  0  0  0  0  0  0
  -16.8130   12.2380   34.6450 N   0  0  0  0  0  0  0  0  0  0  0  0
  -16.0130   11.7560   31.0560 C   0  0  2  0  0  0  0  0  0  0  0  0
  -16.6740   11.3930   29.8320 O   0  0  0  0  0  0  0  0  0  0  0  0
  -15.1840   10.5680   31.5580 C   0  0  2  0  0  0  0  0  0  0  0  0
  -14.5460    9.9640   30.4380 O   0  0  0  0  0  0  0  0  0  0  0  0
  -16.8454    7.6110   32.2872 H   0  0  0  0  0  0  0  0  0  0  0  0
  -17.4849    8.5892   30.9230 H   0  0  0  0  0  0  0  0  0  0  0  0
  -15.7675    8.0626   30.9230 H   0  0  0  0  0  0  0  0  0  0  0  0
  -15.7530    9.3223   33.2213 H   0  0  0  0  0  0  0  0  0  0  0  0
  -17.7760   10.4820   33.4460 H   0  0  0  0  0  0  0  0  0  0  0  0
  -18.1990   10.2340   31.8360 H   0  0  0  0  0  0  0  0  0  0  0  0
  -17.8942   12.5977   31.8062 H   0  0  0  0  0  0  0  0  0  0  0  0
  -14.1968   15.7313   34.5759 H   0  0  0  0  0  0  0  0  0  0  0  0
  -14.0434   15.9009   37.0724 H   0  0  0  0  0  0  0  0  0  0  0  0
  -15.2357   14.2836   38.5239 H   0  0  0  0  0  0  0  0  0  0  0  0
  -16.6287   12.4411   37.5264 H   0  0  0  0  0  0  0  0  0  0  0  0
  -17.3830   11.4540   34.9390 H   0  0  0  0  0  0  0  0  0  0  0  0
  -15.4038   12.6525   30.8686 H   0  0  0  0  0  0  0  0  0  0  0  0
  -17.6320   11.3510   30.0530 H   0  0  0  0  0  0  0  0  0  0  0  0
  -14.3675   10.8153   32.2524 H   0  0  0  0  0  0  0  0  0  0  0  0
  -15.2040    9.8470   29.7250 H   0  0  0  0  0  0  0  0  0  0  0  0
  1  2  1  0
  2  3  1  0
  3  4  1  0
  4  5  1  0
  5  6  2  0
  6  7  1  0
  7  8  2  0
  8  9  1  0
  9 10  2  0
 10 11  1  0
 11 12  2  0
 12 13  1  0
  4 14  1  0
 14 15  1  0
 14 16  1  0
 16 17  1  0
 16  2  1  0
 13  5  1  0
 12  7  1  0
  1 18  1  0
  1 19  1  0
  1 20  1  0
  2 21  1  1
  3 22  1  0
  3 23  1  0
  4 24  1  6
  8 25  1  0
  9 26  1  0
 10 27  1  0
 11 28  1  0
 13 29  1  0
 14 30  1  6
 15 31  1  0
 16 32  1  1
 17 33  1  0
M  CHG  1   3   1
M  END
>  <meeko>  (1) 
{"is_sidechain": [false], "free_energy": -6.665, "intermolecular_energy": -7.444, "internal_energy": -0.294}

$$$$
4j28_ligand
     RDKit          3D

 33 35  0  0  0  0  0  0  0  0999 V2000
  -15.5750    9.4440   31.5320 C   0  0  0  0  0  0  0  0  0  0  0  0
  -15.4650   10.8490   32.1010 C   0  0  2  0  0  0  0  0  0  0  0  0
  -16.0360   10.8570   33.5000 N   0  0  0  0  0  0  0  0  0  0  0  0
  -16.8950   12.0990   33.6380 C   0  0  1  0  0  0  0  0  0  0  0  0
  -16.0610   13.2490   34.0910 C   0  0  0  0  0  0  0  0  0  0  0  0
  -16.3940   14.5160   33.9410 N   0  0  0  0  0  0  0  0  0  0  0  0
  -15.3560   15.2350   34.4870 C   0  0  0  0  0  0  0  0  0  0  0  0
  -15.1870   16.6200   34.6020 C   0  0  0  0  0  0  0  0  0  0  0  0
  -14.0190   17.1030   35.2080 C   0  0  0  0  0  0  0  0  0  0  0  0
  -13.0440   16.2240   35.6850 C   0  0  0  0  0  0  0  0  0  0  0  0
  -13.1970   14.8370   35.5760 C   0  0  0  0  0  0  0  0  0  0  0  0
  -14.3700   14.3830   34.9700 C   0  0  0  0  0  0  0  0  0  0  0  0
  -14.8360   13.1210   34.7010 N   0  0  0  0  0  0  0  0  0  0  0  0
  -17.4370   12.2630   32.2210 C   0  0  2  0  0  0  0  0  0  0  0  0
  -18.4650   11.2820   32.0040 O   0  0  0  0  0  0  0  0  0  0  0  0
  -16.2340   11.9470   31.3270 C   0  0  2  0  0  0  0  0  0  0  0  0
  -16.7210   11.5490   30.0480 O   0  0  0  0  0  0  0  0  0  0  0  0
  -15.6318    8.7180   32.3564 H   0  0  0  0  0  0  0  0  0  0  0  0
  -16.4818    9.3687   30.9139 H   0  0  0  0  0  0  0  0  0  0  0  0
  -14.6910    9.2285   30.9139 H   0  0  0  0  0  0  0  0  0  0  0  0
  -14.3925   11.0866   32.0428 H   0  0  0  0  0  0  0  0  0  0  0  0
  -15.2840   10.8900   34.2030 H   0  0  0  0  0  0  0  0  0  0  0  0
  -16.6290   10.0340   33.6640 H   0  0  0  0  0  0  0  0  0  0  0  0
  -17.6997   12.0367   34.3854 H   0  0  0  0  0  0  0  0  0  0  0  0
  -15.9534   17.3134   34.2254 H   0  0  0  0  0  0  0  0  0  0  0  0
  -13.8684   18.1879   35.3092 H   0  0  0  0  0  0  0  0  0  0  0  0
  -12.1369   16.6303   36.1562 H   0  0  0  0  0  0  0  0  0  0  0  0
  -12.4320   14.1401   35.9488 H   0  0  0  0  0  0  0  0  0  0  0  0
  -14.3430   12.2630   34.9190 H   0  0  0  0  0  0  0  0  0  0  0  0
  -17.8622   13.2588   32.0271 H   0  0  0  0  0  0  0  0  0  0  0  0
  -18.7010   11.3540   31.0510 H   0  0  0  0  0  0  0  0  0  0  0  0
  -15.5554   12.7892   31.1264 H   0  0  0  0  0  0  0  0  0  0  0  0
  -16.9290   12.3500   29.5280 H   0  0  0  0  0  0  0  0  0  0  0  0
  1  2  1  0
  2  3  1  0
  3  4  1  0
  4  5  1  0
  5  6  2  0
  6  7  1  0
  7  8  2  0
  8  9  1  0
  9 10  2  0
 10 11  1  0
 11 12  2  0
 12 13  1  0
  4 14  1  0
 14 15  1  0
 14 16  1  0
 16 17  1  0
 16  2  1  0
 13  5  1  0
 12  7  1  0
  1 18  1  0
  1 19  1  0
  1 20  1  0
  2 21  1  1
  3 22  1  0
  3 23  1  0
  4 24  1  1
  8 25  1  0
  9 26  1  0
 10 27  1  0
 11 28  1  0
 13 29  1  0
 14 30  1  1
 15 31  1  0
 16 32  1  6
 17 33  1  0
M  CHG  1   3   1
M  END
>  <meeko>  (2) 
{"is_sidechain": [false], "free_energy": -6.428, "intermolecular_energy": -7.188, "internal_energy": -0.285}

$$$$
4j28_ligand
     RDKit          3D

 33 35  0  0  0  0  0  0  0  0999 V2000
  -16.1030   10.1600   30.4800 C   0  0  0  0  0  0  0  0  0  0  0  0
  -16.1490   11.3150   31.4680 C   0  0  2  0  0  0  0  0  0  0  0  0
  -14.8470   11.3540   32.2340 N   0  0  0  0  0  0  0  0  0  0  0  0
  -15.1810   11.5910   33.6940 C   0  0  1  0  0  0  0  0  0  0  0  0
  -15.2610   13.0530   33.9700 C   0  0  0  0  0  0  0  0  0  0  0  0
  -14.2140   13.8410   34.1270 N   0  0  0  0  0  0  0  0  0  0  0  0
  -14.7300   15.0930   34.3640 C   0  0  0  0  0  0  0  0  0  0  0  0
  -14.0700   16.3070   34.5960 C   0  0  0  0  0  0  0  0  0  0  0  0
  -14.8410   17.4560   34.8140 C   0  0  0  0  0  0  0  0  0  0  0  0
  -16.2370   17.3950   34.8030 C   0  0  0  0  0  0  0  0  0  0  0  0
  -16.9110   16.1900   34.5740 C   0  0  0  0  0  0  0  0  0  0  0  0
  -16.1200   15.0610   34.3590 C   0  0  0  0  0  0  0  0  0  0  0  0
  -16.4370   13.7490   34.1130 N   0  0  0  0  0  0  0  0  0  0  0  0
  -16.5220   10.8740   33.8280 C   0  0  2  0  0  0  0  0  0  0  0  0
  -16.2860    9.4570   33.8610 O   0  0  0  0  0  0  0  0  0  0  0  0
  -17.2650   11.2370   32.5370 C   0  0  2  0  0  0  0  0  0  0  0  0
  -18.2560   10.2430   32.2990 O   0  0  0  0  0  0  0  0  0  0  0  0
  -16.0651    9.2082   31.0301 H   0  0  0  0  0  0  0  0  0  0  0  0
  -17.0027   10.1824   29.8476 H   0  0  0  0  0  0  0  0  0  0  0  0
  -15.2079   10.2539   29.8476 H   0  0  0  0  0  0  0  0  0  0  0  0
  -16.3421   12.2026   30.8477 H   0  0  0  0  0  0  0  0  0  0  0  0
  -14.2480   12.1220   31.8990 H   0  0  0  0  0  0  0  0  0  0  0  0
  -14.3440   10.4620   32.1580 H   0  0  0  0  0  0  0  0  0  0  0  0
  -14.4373   11.2199   34.4146 H   0  0  0  0  0  0  0  0  0  0  0  0
  -12.9712   16.3567   34.6067 H   0  0  0  0  0  0  0  0  0  0  0  0
  -14.3411   18.4187   34.9962 H   0  0  0  0  0  0  0  0  0  0  0  0
  -16.8179   18.3126   34.9779 H   0  0  0  0  0  0  0  0  0  0  0  0
  -18.0096   16.1357   34.5640 H   0  0  0  0  0  0  0  0  0  0  0  0
  -17.3800   13.3830   34.0560 H   0  0  0  0  0  0  0  0  0  0  0  0
  -17.0796   11.1534   34.7341 H   0  0  0  0  0  0  0  0  0  0  0  0
  -16.0150    9.2570   34.7860 H   0  0  0  0  0  0  0  0  0  0  0  0
  -17.8142   12.1900   32.5542 H   0  0  0  0  0  0  0  0  0  0  0  0
  -19.1260   10.5930   32.5740 H   0  0  0  0  0  0  0  0  0  0  0  0
  1  2  1  0
  2  3  1  0
  3  4  1  0
  4  5  1  0
  5  6  2  0
  6  7  1  0
  7  8  2  0
  8  9  1  0
  9 10  2  0
 10 11  1  0
 11 12  2  0
 12 13  1  0
  4 14  1  0
 14 15  1  0
 14 16  1  0
 16 17  1  0
 16  2  1  0
 13  5  1  0
 12  7  1  0
  1 18  1  0
  1 19  1  0
  1 20  1  0
  2 21  1  6
  3 22  1  0
  3 23  1  0
  4 24  1  1
  8 25  1  0
  9 26  1  0
 10 27  1  0
 11 28  1  0
 13 29  1  0
 14 30  1  1
 15 31  1  0
 16 32  1  1
 17 33  1  0
M  CHG  1   3   1
M  END
>  <meeko>  (3) 
{"is_sidechain": [false], "free_energy": -6.182, "intermolecular_energy": -7.25, "internal_energy": 0.051}

$$$$
4j28_ligand
     RDKit          3D

 33 35  0  0  0  0  0  0  0  0999 V2000
  -15.1780   11.2000   31.1920 C   0  0  0  0  0  0  0  0  0  0  0  0
  -16.2530   11.9540   31.9590 C   0  0  2  0  0  0  0  0  0  0  0  0
  -15.6220   12.6090   33.1670 N   0  0  0  0  0  0  0  0  0  0  0  0
  -16.5480   12.3850   34.3460 C   0  0  1  0  0  0  0  0  0  0  0  0
  -17.5590   13.4780   34.4170 C   0  0  0  0  0  0  0  0  0  0  0  0
  -17.3280   14.7310   34.0740 N   0  0  0  0  0  0  0  0  0  0  0  0
  -18.5110   15.3960   34.2970 C   0  0  0  0  0  0  0  0  0  0  0  0
  -18.8340   16.7440   34.1000 C   0  0  0  0  0  0  0  0  0  0  0  0
  -20.1310   17.1740   34.4110 C   0  0  0  0  0  0  0  0  0  0  0  0
  -21.0810   16.2790   34.9090 C   0  0  0  0  0  0  0  0  0  0  0  0
  -20.7750   14.9290   35.1130 C   0  0  0  0  0  0  0  0  0  0  0  0
  -19.4760   14.5270   34.7940 C   0  0  0  0  0  0  0  0  0  0  0  0
  -18.8450   13.3110   34.8700 N   0  0  0  0  0  0  0  0  0  0  0  0
  -17.1500   11.0220   34.0150 C   0  0  2  0  0  0  0  0  0  0  0  0
  -16.1690   10.0070   34.2830 O   0  0  0  0  0  0  0  0  0  0  0  0
  -17.4140   11.0910   32.5070 C   0  0  2  0  0  0  0  0  0  0  0  0
  -17.4640    9.7600   32.0020 O   0  0  0  0  0  0  0  0  0  0  0  0
  -14.4905   10.7178   31.9026 H   0  0  0  0  0  0  0  0  0  0  0  0
  -15.6487   10.4331   30.5593 H   0  0  0  0  0  0  0  0  0  0  0  0
  -14.6172   11.9037   30.5593 H   0  0  0  0  0  0  0  0  0  0  0  0
  -16.6757   12.6560   31.2251 H   0  0  0  0  0  0  0  0  0  0  0  0
  -15.5100   13.6220   33.0170 H   0  0  0  0  0  0  0  0  0  0  0  0
  -14.7110   12.1870   33.3850 H   0  0  0  0  0  0  0  0  0  0  0  0
  -16.0659   12.3975   35.3347 H   0  0  0  0  0  0  0  0  0  0  0  0
  -18.0862   17.4500   33.7097 H   0  0  0  0  0  0  0  0  0  0  0  0
  -20.4043   18.2289   34.2612 H   0  0  0  0  0  0  0  0  0  0  0  0
  -22.0915   16.6435   35.1459 H   0  0  0  0  0  0  0  0  0  0  0  0
  -21.5196   14.2204   35.5047 H   0  0  0  0  0  0  0  0  0  0  0  0
  -19.2740   12.4580   35.2070 H   0  0  0  0  0  0  0  0  0  0  0  0
  -18.0550   10.7904   34.5957 H   0  0  0  0  0  0  0  0  0  0  0  0
  -16.1620    9.4300   33.4850 H   0  0  0  0  0  0  0  0  0  0  0  0
  -18.3708   11.5454   32.2103 H   0  0  0  0  0  0  0  0  0  0  0  0
  -16.8180    9.6760   31.2730 H   0  0  0  0  0  0  0  0  0  0  0  0
  1  2  1  0
  2  3  1  0
  3  4  1  0
  4  5  1  0
  5  6  2  0
  6  7  1  0
  7  8  2  0
  8  9  1  0
  9 10  2  0
 10 11  1  0
 11 12  2  0
 12 13  1  0
  4 14  1  0
 14 15  1  0
 14 16  1  0
 16 17  1  0
 16  2  1  0
 13  5  1  0
 12  7  1  0
  1 18  1  0
  1 19  1  0
  1 20  1  0
  2 21  1  6
  3 22  1  0
  3 23  1  0
  4 24  1  1
  8 25  1  0
  9 26  1  0
 10 27  1  0
 11 28  1  0
 13 29  1  0
 14 30  1  1
 15 31  1  0
 16 32  1  1
 17 33  1  0
M  CHG  1   3   1
M  END
>  <meeko>  (4) 
{"is_sidechain": [false], "free_energy": -6.015, "intermolecular_energy": -6.717, "internal_energy": -0.294}

$$$$
4j28_ligand
     RDKit          3D

 33 35  0  0  0  0  0  0  0  0999 V2000
  -13.3020   15.5920   35.8960 C   0  0  0  0  0  0  0  0  0  0  0  0
  -13.9450   14.3570   35.2840 C   0  0  2  0  0  0  0  0  0  0  0  0
  -14.9240   14.7930   34.2180 N   0  0  0  0  0  0  0  0  0  0  0  0
  -16.1820   13.9640   34.3840 C   0  0  1  0  0  0  0  0  0  0  0  0
  -16.0670   12.6990   33.6060 C   0  0  0  0  0  0  0  0  0  0  0  0
  -15.2790   12.5350   32.5610 N   0  0  0  0  0  0  0  0  0  0  0  0
  -15.4830   11.2380   32.1480 C   0  0  0  0  0  0  0  0  0  0  0  0
  -14.9020   10.5330   31.0870 C   0  0  0  0  0  0  0  0  0  0  0  0
  -15.2890    9.2020   30.8780 C   0  0  0  0  0  0  0  0  0  0  0  0
  -16.2340    8.5930   31.7060 C   0  0  0  0  0  0  0  0  0  0  0  0
  -16.8250    9.2840   32.7690 C   0  0  0  0  0  0  0  0  0  0  0  0
  -16.4210   10.6080   32.9570 C   0  0  0  0  0  0  0  0  0  0  0  0
  -16.7860   11.5590   33.8750 N   0  0  0  0  0  0  0  0  0  0  0  0
  -16.2160   13.7470   35.8940 C   0  0  2  0  0  0  0  0  0  0  0  0
  -16.6440   14.9650   36.5260 O   0  0  0  0  0  0  0  0  0  0  0  0
  -14.7530   13.4700   36.2600 C   0  0  2  0  0  0  0  0  0  0  0  0
  -14.5730   13.7770   37.6390 O   0  0  0  0  0  0  0  0  0  0  0  0
  -13.3397   15.5196   36.9930 H   0  0  0  0  0  0  0  0  0  0  0  0
  -12.2540   15.6600   35.5688 H   0  0  0  0  0  0  0  0  0  0  0  0
  -13.8473   16.4896   35.5688 H   0  0  0  0  0  0  0  0  0  0  0  0
  -13.0989   13.7604   34.9124 H   0  0  0  0  0  0  0  0  0  0  0  0
  -14.5370   14.6300   33.2770 H   0  0  0  0  0  0  0  0  0  0  0  0
  -15.1720   15.7840   34.3240 H   0  0  0  0  0  0  0  0  0  0  0  0
  -17.1065   14.4284   34.0102 H   0  0  0  0  0  0  0  0  0  0  0  0
  -14.1591   11.0124   30.4326 H   0  0  0  0  0  0  0  0  0  0  0  0
  -14.8425    8.6301   30.0512 H   0  0  0  0  0  0  0  0  0  0  0  0
  -16.5199    7.5475   31.5184 H   0  0  0  0  0  0  0  0  0  0  0  0
  -17.5703    8.8088   33.4238 H   0  0  0  0  0  0  0  0  0  0  0  0
  -17.4700   11.4210   34.6100 H   0  0  0  0  0  0  0  0  0  0  0  0
  -16.8942   12.9387   36.2050 H   0  0  0  0  0  0  0  0  0  0  0  0
  -16.8000   14.7320   37.4700 H   0  0  0  0  0  0  0  0  0  0  0  0
  -14.4242   12.4257   36.1539 H   0  0  0  0  0  0  0  0  0  0  0  0
  -13.6370   14.0160   37.7890 H   0  0  0  0  0  0  0  0  0  0  0  0
  1  2  1  0
  2  3  1  0
  3  4  1  0
  4  5  1  0
  5  6  2  0
  6  7  1  0
  7  8  2  0
  8  9  1  0
  9 10  2  0
 10 11  1  0
 11 12  2  0
 12 13  1  0
  4 14  1  0
 14 15  1  0
 14 16  1  0
 16 17  1  0
 16  2  1  0
 13  5  1  0
 12  7  1  0
  1 18  1  0
  1 19  1  0
  1 20  1  0
  2 21  1  6
  3 22  1  0
  3 23  1  0
  4 24  1  6
  8 25  1  0
  9 26  1  0
 10 27  1  0
 11 28  1  0
 13 29  1  0
 14 30  1  6
 15 31  1  0
 16 32  1  1
 17 33  1  0
M  CHG  1   3   1
M  END
>  <meeko>  (5) 
{"is_sidechain": [false], "free_energy": -6.011, "intermolecular_energy": -6.717, "internal_energy": -0.291}

$$$$
4j28_ligand
     RDKit          3D

 33 35  0  0  0  0  0  0  0  0999 V2000
  -21.1090   13.6900   35.5550 C   0  0  0  0  0  0  0  0  0  0  0  0
  -19.9200   13.1280   34.7920 C   0  0  2  0  0  0  0  0  0  0  0  0
  -19.1300   12.2280   35.7140 N   0  0  0  0  0  0  0  0  0  0  0  0
  -17.6600   12.5380   35.5090 C   0  0  1  0  0  0  0  0  0  0  0  0
  -17.1120   11.7040   34.4020 C   0  0  0  0  0  0  0  0  0  0  0  0
  -16.1890   12.1070   33.5500 N   0  0  0  0  0  0  0  0  0  0  0  0
  -15.9800   11.0430   32.7040 C   0  0  0  0  0  0  0  0  0  0  0  0
  -15.1050   10.9190   31.6170 C   0  0  0  0  0  0  0  0  0  0  0  0
  -15.0870    9.7100   30.9090 C   0  0  0  0  0  0  0  0  0  0  0  0
  -15.9220    8.6530   31.2750 C   0  0  0  0  0  0  0  0  0  0  0  0
  -16.8030    8.7610   32.3580 C   0  0  0  0  0  0  0  0  0  0  0  0
  -16.8010    9.9750   33.0470 C   0  0  0  0  0  0  0  0  0  0  0  0
  -17.5190   10.4200   34.1270 N   0  0  0  0  0  0  0  0  0  0  0  0
  -17.6980   14.0280   35.1840 C   0  0  2  0  0  0  0  0  0  0  0  0
  -17.9310   14.7590   36.3990 O   0  0  0  0  0  0  0  0  0  0  0  0
  -18.9120   14.1740   34.2600 C   0  0  2  0  0  0  0  0  0  0  0  0
  -19.3600   15.5250   34.3220 O   0  0  0  0  0  0  0  0  0  0  0  0
  -20.9252   13.6031   36.6361 H   0  0  0  0  0  0  0  0  0  0  0  0
  -21.2472   14.7487   35.2905 H   0  0  0  0  0  0  0  0  0  0  0  0
  -22.0148   13.1247   35.2905 H   0  0  0  0  0  0  0  0  0  0  0  0
  -20.3636   12.6189   33.9236 H   0  0  0  0  0  0  0  0  0  0  0  0
  -19.2980   11.2370   35.4890 H   0  0  0  0  0  0  0  0  0  0  0  0
  -19.3640   12.4050   36.6980 H   0  0  0  0  0  0  0  0  0  0  0  0
  -17.0061   12.3161   36.3652 H   0  0  0  0  0  0  0  0  0  0  0  0
  -14.4474   11.7514   31.3261 H   0  0  0  0  0  0  0  0  0  0  0  0
  -14.4058    9.5923   30.0534 H   0  0  0  0  0  0  0  0  0  0  0  0
  -15.8872    7.7155   30.7006 H   0  0  0  0  0  0  0  0  0  0  0  0
  -17.4631    7.9313   32.6510 H   0  0  0  0  0  0  0  0  0  0  0  0
  -18.2240    9.8800   34.6160 H   0  0  0  0  0  0  0  0  0  0  0  0
  -16.7688   14.4007   34.7284 H   0  0  0  0  0  0  0  0  0  0  0  0
  -17.4650   14.2550   37.1040 H   0  0  0  0  0  0  0  0  0  0  0  0
  -18.7246   13.9834   33.1930 H   0  0  0  0  0  0  0  0  0  0  0  0
  -19.2160   15.8630   35.2280 H   0  0  0  0  0  0  0  0  0  0  0  0
  1  2  1  0
  2  3  1  0
  3  4  1  0
  4  5  1  0
  5  6  2  0
  6  7  1  0
  7  8  2  0
  8  9  1  0
  9 10  2  0
 10 11  1  0
 11 12  2  0
 12 13  1  0
  4 14  1  0
 14 15  1  0
 14 16  1  0
 16 17  1  0
 16  2  1  0
 13  5  1  0
 12  7  1  0
  1 18  1  0
  1 19  1  0
  1 20  1  0
  2 21  1  6
  3 22  1  0
  3 23  1  0
  4 24  1  1
  8 25  1  0
  9 26  1  0
 10 27  1  0
 11 28  1  0
 13 29  1  0
 14 30  1  6
 15 31  1  0
 16 32  1  6
 17 33  1  0
M  CHG  1   3   1
M  END
>  <meeko>  (6) 
{"is_sidechain": [false], "free_energy": -5.872, "intermolecular_energy": -6.567, "internal_energy": -0.285}

$$$$
4j28_ligand
     RDKit          3D

 33 35  0  0  0  0  0  0  0  0999 V2000
  -20.6460   10.7960   37.7150 C   0  0  0  0  0  0  0  0  0  0  0  0
  -19.9340   10.6600   36.3790 C   0  0  2  0  0  0  0  0  0  0  0  0
  -18.9630   11.8080   36.2230 N   0  0  0  0  0  0  0  0  0  0  0  0
  -19.0930   12.3310   34.8060 C   0  0  1  0  0  0  0  0  0  0  0  0
  -18.1800   11.5800   33.8990 C   0  0  0  0  0  0  0  0  0  0  0  0
  -17.1840   12.1230   33.2260 N   0  0  0  0  0  0  0  0  0  0  0  0
  -16.6120   11.0910   32.5200 C   0  0  0  0  0  0  0  0  0  0  0  0
  -15.5170   11.0990   31.6460 C   0  0  0  0  0  0  0  0  0  0  0  0
  -15.1310    9.8930   31.0470 C   0  0  0  0  0  0  0  0  0  0  0  0
  -15.8230    8.7080   31.3110 C   0  0  0  0  0  0  0  0  0  0  0  0
  -16.9200    8.6830   32.1800 C   0  0  0  0  0  0  0  0  0  0  0  0
  -17.2820    9.8980   32.7650 C   0  0  0  0  0  0  0  0  0  0  0  0
  -18.2830   10.2340   33.6410 N   0  0  0  0  0  0  0  0  0  0  0  0
  -20.5720   12.0870   34.5180 C   0  0  2  0  0  0  0  0  0  0  0  0
  -21.3470   13.0770   35.2120 O   0  0  0  0  0  0  0  0  0  0  0  0
  -20.8440   10.7070   35.1280 C   0  0  2  0  0  0  0  0  0  0  0  0
  -22.2390   10.6050   35.3960 O   0  0  0  0  0  0  0  0  0  0  0  0
  -19.9224   10.6578   38.5319 H   0  0  0  0  0  0  0  0  0  0  0  0
  -21.0969   11.7965   37.7900 H   0  0  0  0  0  0  0  0  0  0  0  0
  -21.4340   10.0321   37.7900 H   0  0  0  0  0  0  0  0  0  0  0  0
  -19.4656    9.6654   36.4158 H   0  0  0  0  0  0  0  0  0  0  0  0
  -17.9950   11.4920   36.3760 H   0  0  0  0  0  0  0  0  0  0  0  0
  -19.1850   12.5730   36.8720 H   0  0  0  0  0  0  0  0  0  0  0  0
  -18.8106   13.3844   34.6626 H   0  0  0  0  0  0  0  0  0  0  0  0
  -14.9727   12.0313   31.4349 H   0  0  0  0  0  0  0  0  0  0  0  0
  -14.2721    9.8786   30.3599 H   0  0  0  0  0  0  0  0  0  0  0  0
  -15.4989    7.7755   30.8258 H   0  0  0  0  0  0  0  0  0  0  0  0
  -17.4690    7.7535   32.3913 H   0  0  0  0  0  0  0  0  0  0  0  0
  -18.9670    9.5860   34.0140 H   0  0  0  0  0  0  0  0  0  0  0  0
  -20.8238   12.1379   33.4484 H   0  0  0  0  0  0  0  0  0  0  0  0
  -21.6150   12.6560   36.0610 H   0  0  0  0  0  0  0  0  0  0  0  0
  -20.6132    9.8466   34.4827 H   0  0  0  0  0  0  0  0  0  0  0  0
  -22.6680   11.4500   35.1580 H   0  0  0  0  0  0  0  0  0  0  0  0
  1  2  1  0
  2  3  1  0
  3  4  1  0
  4  5  1  0
  5  6  2  0
  6  7  1  0
  7  8  2  0
  8  9  1  0
  9 10  2  0
 10 11  1  0
 11 12  2  0
 12 13  1  0
  4 14  1  0
 14 15  1  0
 14 16  1  0
 16 17  1  0
 16  2  1  0
 13  5  1  0
 12  7  1  0
  1 18  1  0
  1 19  1  0
  1 20  1  0
  2 21  1  1
  3 22  1  0
  3 23  1  0
  4 24  1  1
  8 25  1  0
  9 26  1  0
 10 27  1  0
 11 28  1  0
 13 29  1  0
 14 30  1  6
 15 31  1  0
 16 32  1  6
 17 33  1  0
M  CHG  1   3   1
M  END
>  <meeko>  (7) 
{"is_sidechain": [false], "free_energy": -5.729, "intermolecular_energy": -7.059, "internal_energy": 0.366}

$$$$
4j28_ligand
     RDKit          3D

 33 35  0  0  0  0  0  0  0  0999 V2000
  -17.2620    8.6260   31.9930 C   0  0  0  0  0  0  0  0  0  0  0  0
  -17.1200    9.9590   32.7090 C   0  0  2  0  0  0  0  0  0  0  0  0
  -18.3160   10.8220   32.3780 N   0  0  0  0  0  0  0  0  0  0  0  0
  -17.8070   12.2200   32.0890 C   0  0  1  0  0  0  0  0  0  0  0  0
  -17.7290   13.0070   33.3520 C   0  0  0  0  0  0  0  0  0  0  0  0
  -18.5760   12.8910   34.3570 N   0  0  0  0  0  0  0  0  0  0  0  0
  -18.1450   13.7900   35.3040 C   0  0  0  0  0  0  0  0  0  0  0  0
  -18.6720   14.0820   36.5690 C   0  0  0  0  0  0  0  0  0  0  0  0
  -18.0350   15.0570   37.3490 C   0  0  0  0  0  0  0  0  0  0  0  0
  -16.9030   15.7250   36.8770 C   0  0  0  0  0  0  0  0  0  0  0  0
  -16.3660   15.4470   35.6150 C   0  0  0  0  0  0  0  0  0  0  0  0
  -17.0180   14.4710   34.8590 C   0  0  0  0  0  0  0  0  0  0  0  0
  -16.7740   13.9610   33.6090 N   0  0  0  0  0  0  0  0  0  0  0  0
  -16.4440   11.9340   31.4660 C   0  0  2  0  0  0  0  0  0  0  0  0
  -16.6400   11.4660   30.1210 O   0  0  0  0  0  0  0  0  0  0  0  0
  -15.8770   10.7970   32.3240 C   0  0  2  0  0  0  0  0  0  0  0  0
  -14.9000   10.1020   31.5550 O   0  0  0  0  0  0  0  0  0  0  0  0
  -17.3480    7.8185   32.7350 H   0  0  0  0  0  0  0  0  0  0  0  0
  -18.1635    8.6425   31.3629 H   0  0  0  0  0  0  0  0  0  0  0  0
  -16.3773    8.4522   31.3629 H   0  0  0  0  0  0  0  0  0  0  0  0
  -17.0276    9.6926   33.7722 H   0  0  0  0  0  0  0  0  0  0  0  0
  -18.9700   10.8610   33.1720 H   0  0  0  0  0  0  0  0  0  0  0  0
  -18.8040   10.4750   31.5420 H   0  0  0  0  0  0  0  0  0  0  0  0
  -18.4446   12.8282   31.4305 H   0  0  0  0  0  0  0  0  0  0  0  0
  -19.5648   13.5583   36.9413 H   0  0  0  0  0  0  0  0  0  0  0  0
  -18.4319   15.2992   38.3459 H   0  0  0  0  0  0  0  0  0  0  0  0
  -16.4234   16.4857   37.5106 H   0  0  0  0  0  0  0  0  0  0  0  0
  -15.4754   15.9709   35.2378 H   0  0  0  0  0  0  0  0  0  0  0  0
  -16.0190   14.2560   33.0010 H   0  0  0  0  0  0  0  0  0  0  0  0
  -15.7842   12.8136   31.4337 H   0  0  0  0  0  0  0  0  0  0  0  0
  -15.7470   11.2030   29.8010 H   0  0  0  0  0  0  0  0  0  0  0  0
  -15.3526   11.1068   33.2400 H   0  0  0  0  0  0  0  0  0  0  0  0
  -14.5100    9.3960   32.1060 H   0  0  0  0  0  0  0  0  0  0  0  0
  1  2  1  0
  2  3  1  0
  3  4  1  0
  4  5  1  0
  5  6  2  0
  6  7  1  0
  7  8  2  0
  8  9  1  0
  9 10  2  0
 10 11  1  0
 11 12  2  0
 12 13  1  0
  4 14  1  0
 14 15  1  0
 14 16  1  0
 16 17  1  0
 16  2  1  0
 13  5  1  0
 12  7  1  0
  1 18  1  0
  1 19  1  0
  1 20  1  0
  2 21  1  1
  3 22  1  0
  3 23  1  0
  4 24  1  6
  8 25  1  0
  9 26  1  0
 10 27  1  0
 11 28  1  0
 13 29  1  0
 14 30  1  6
 15 31  1  0
 16 32  1  1
 17 33  1  0
M  CHG  1   3   1
M  END
>  <meeko>  (8) 
{"is_sidechain": [false], "free_energy": -5.697, "intermolecular_energy": -6.363, "internal_energy": -0.294}

$$$$
4j28_ligand
     RDKit          3D

 33 35  0  0  0  0  0  0  0  0999 V2000
  -17.9910   15.2900   36.2410 C   0  0  0  0  0  0  0  0  0  0  0  0
  -17.7480   13.9890   35.4930 C   0  0  2  0  0  0  0  0  0  0  0  0
  -18.5990   13.9770   34.2440 N   0  0  0  0  0  0  0  0  0  0  0  0
  -19.2210   12.5990   34.1260 C   0  0  1  0  0  0  0  0  0  0  0  0
  -18.3070   11.6890   33.3790 C   0  0  0  0  0  0  0  0  0  0  0  0
  -17.2900   12.0920   32.6420 N   0  0  0  0  0  0  0  0  0  0  0  0
  -16.7260   10.9450   32.1360 C   0  0  0  0  0  0  0  0  0  0  0  0
  -15.6160   10.7850   31.2950 C   0  0  0  0  0  0  0  0  0  0  0  0
  -15.2430    9.4880   30.9200 C   0  0  0  0  0  0  0  0  0  0  0  0
  -15.9610    8.3780   31.3710 C   0  0  0  0  0  0  0  0  0  0  0  0
  -17.0720    8.5200   32.2100 C   0  0  0  0  0  0  0  0  0  0  0  0
  -17.4220    9.8230   32.5700 C   0  0  0  0  0  0  0  0  0  0  0  0
  -18.4310   10.3210   33.3550 N   0  0  0  0  0  0  0  0  0  0  0  0
  -19.4010   12.2110   35.5900 C   0  0  2  0  0  0  0  0  0  0  0  0
  -20.5210   12.9350   36.1250 O   0  0  0  0  0  0  0  0  0  0  0  0
  -18.1120   12.6960   36.2620 C   0  0  2  0  0  0  0  0  0  0  0  0
  -18.3740   12.8780   37.6500 O   0  0  0  0  0  0  0  0  0  0  0  0
  -17.9559   15.1022   37.3243 H   0  0  0  0  0  0  0  0  0  0  0  0
  -17.2136   16.0195   35.9700 H   0  0  0  0  0  0  0  0  0  0  0  0
  -18.9793   15.6897   35.9700 H   0  0  0  0  0  0  0  0  0  0  0  0
  -16.6636   13.9749   35.3091 H   0  0  0  0  0  0  0  0  0  0  0  0
  -18.0250   14.1580   33.4080 H   0  0  0  0  0  0  0  0  0  0  0  0
  -19.3560   14.6690   34.3030 H   0  0  0  0  0  0  0  0  0  0  0  0
  -20.1665   12.5533   33.5657 H   0  0  0  0  0  0  0  0  0  0  0  0
  -15.0506   11.6583   30.9376 H   0  0  0  0  0  0  0  0  0  0  0  0
  -14.3737    9.3417   30.2620 H   0  0  0  0  0  0  0  0  0  0  0  0
  -15.6465    7.3708   31.0601 H   0  0  0  0  0  0  0  0  0  0  0  0
  -17.6409    7.6492   32.5678 H   0  0  0  0  0  0  0  0  0  0  0  0
  -19.1330    9.7570   33.8200 H   0  0  0  0  0  0  0  0  0  0  0  0
  -19.5808   11.1361   35.7391 H   0  0  0  0  0  0  0  0  0  0  0  0
  -21.2970   12.3390   36.0160 H   0  0  0  0  0  0  0  0  0  0  0  0
  -17.2615   11.9997   36.2198 H   0  0  0  0  0  0  0  0  0  0  0  0
  -18.8100   12.0750   37.9960 H   0  0  0  0  0  0  0  0  0  0  0  0
  1  2  1  0
  2  3  1  0
  3  4  1  0
  4  5  1  0
  5  6  2  0
  6  7  1  0
  7  8  2  0
  8  9  1  0
  9 10  2  0
 10 11  1  0
 11 12  2  0
 12 13  1  0
  4 14  1  0
 14 15  1  0
 14 16  1  0
 16 17  1  0
 16  2  1  0
 13  5  1  0
 12  7  1  0
  1 18  1  0
  1 19  1  0
  1 20  1  0
  2 21  1  6
  3 22  1  0
  3 23  1  0
  4 24  1  6
  8 25  1  0
  9 26  1  0
 10 27  1  0
 11 28  1  0
 13 29  1  0
 14 30  1  6
 15 31  1  0
 16 32  1  1
 17 33  1  0
M  CHG  1   3   1
M  END
>  <meeko>  (9) 
{"is_sidechain": [false], "free_energy": -5.401, "intermolecular_energy": -6.069, "internal_energy": -0.257}

$$$$
