4kzq_ligand
     RDKit          3D

 28 30  0  0  0  0  0  0  0  0999 V2000
   -7.8450   38.5750  -15.0600 O   0  0  0  0  0  0  0  0  0  0  0  0
   -7.1720   37.9320  -14.2660 C   0  0  0  0  0  0  0  0  0  0  0  0
   -7.1800   38.2560  -12.8310 C   0  0  0  0  0  0  0  0  0  0  0  0
   -6.4370   37.5220  -11.9890 C   0  0  0  0  0  0  0  0  0  0  0  0
   -6.4000   37.8060  -10.5410 C   0  0  0  0  0  0  0  0  0  0  0  0
   -5.6770   36.9660   -9.6800 C   0  0  0  0  0  0  0  0  0  0  0  0
   -5.6380   37.2140   -8.3070 C   0  0  0  0  0  0  0  0  0  0  0  0
   -6.3280   38.3000   -7.7840 C   0  0  0  0  0  0  0  0  0  0  0  0
   -6.2640   38.5060   -6.4370 O   0  0  0  0  0  0  0  0  0  0  0  0
   -7.0590   39.1430   -8.6120 C   0  0  0  0  0  0  0  0  0  0  0  0
   -7.0970   38.8940   -9.9880 C   0  0  0  0  0  0  0  0  0  0  0  0
   -5.6290   36.4650  -12.3790 O   0  0  0  0  0  0  0  0  0  0  0  0
   -5.5920   36.1290  -13.7100 C   0  0  0  0  0  0  0  0  0  0  0  0
   -4.7770   35.0570  -14.0740 C   0  0  0  0  0  0  0  0  0  0  0  0
   -4.6980   34.6690  -15.4130 C   0  0  0  0  0  0  0  0  0  0  0  0
   -5.4320   35.3490  -16.3870 C   0  0  0  0  0  0  0  0  0  0  0  0
   -6.2470   36.4220  -16.0240 C   0  0  0  0  0  0  0  0  0  0  0  0
   -6.3230   36.8060  -14.6810 C   0  0  0  0  0  0  0  0  0  0  0  0
   -7.7884   39.0907  -12.4527 H   0  0  0  0  0  0  0  0  0  0  0  0
   -5.1348   36.1021  -10.0920 H   0  0  0  0  0  0  0  0  0  0  0  0
   -5.0634   36.5523   -7.6422 H   0  0  0  0  0  0  0  0  0  0  0  0
   -6.0400   39.4370   -6.2740 H   0  0  0  0  0  0  0  0  0  0  0  0
   -7.6037   39.9998   -8.1887 H   0  0  0  0  0  0  0  0  0  0  0  0
   -7.6790   39.5573  -10.6447 H   0  0  0  0  0  0  0  0  0  0  0  0
   -4.1984   34.5190  -13.3086 H   0  0  0  0  0  0  0  0  0  0  0  0
   -4.0551   33.8244  -15.7017 H   0  0  0  0  0  0  0  0  0  0  0  0
   -5.3678   35.0389  -17.4404 H   0  0  0  0  0  0  0  0  0  0  0  0
   -6.8254   36.9618  -16.7882 H   0  0  0  0  0  0  0  0  0  0  0  0
  1  2  2  0
  2  3  1  0
  3  4  2  0
  4  5  1  0
  5  6  2  0
  6  7  1  0
  7  8  2  0
  8  9  1  0
  8 10  1  0
 10 11  2  0
  4 12  1  0
 12 13  1  0
 13 14  2  0
 14 15  1  0
 15 16  2  0
 16 17  1  0
 17 18  2  0
 18  2  1  0
 11  5  1  0
 18 13  1  0
  3 19  1  0
  6 20  1  0
  7 21  1  0
  9 22  1  0
 10 23  1  0
 11 24  1  0
 14 25  1  0
 15 26  1  0
 16 27  1  0
 17 28  1  0
M  END
>  <meeko>  (1) 
{"is_sidechain": [false], "free_energy": -10.976, "intermolecular_energy": -11.939, "internal_energy": -0.301}

$$$$
4kzq_ligand
     RDKit          3D

 28 30  0  0  0  0  0  0  0  0999 V2000
   -5.2410   36.3540   -7.8100 O   0  0  0  0  0  0  0  0  0  0  0  0
   -5.6790   37.1870   -8.5920 C   0  0  0  0  0  0  0  0  0  0  0  0
   -5.8220   36.8800  -10.0240 C   0  0  0  0  0  0  0  0  0  0  0  0
   -6.3160   37.8140  -10.8490 C   0  0  0  0  0  0  0  0  0  0  0  0
   -6.4730   37.5640  -12.2960 C   0  0  0  0  0  0  0  0  0  0  0  0
   -7.3880   38.3220  -13.0420 C   0  0  0  0  0  0  0  0  0  0  0  0
   -7.5560   38.0930  -14.4100 C   0  0  0  0  0  0  0  0  0  0  0  0
   -6.8160   37.1000  -15.0380 C   0  0  0  0  0  0  0  0  0  0  0  0
   -7.0110   36.9100  -16.3730 O   0  0  0  0  0  0  0  0  0  0  0  0
   -5.9090   36.3290  -14.3200 C   0  0  0  0  0  0  0  0  0  0  0  0
   -5.7410   36.5590  -12.9510 C   0  0  0  0  0  0  0  0  0  0  0  0
   -6.6980   39.0860  -10.4500 O   0  0  0  0  0  0  0  0  0  0  0  0
   -6.5820   39.4150   -9.1220 C   0  0  0  0  0  0  0  0  0  0  0  0
   -6.9810   40.6970   -8.7460 C   0  0  0  0  0  0  0  0  0  0  0  0
   -6.8860   41.0900   -7.4100 C   0  0  0  0  0  0  0  0  0  0  0  0
   -6.3940   40.2030   -6.4500 C   0  0  0  0  0  0  0  0  0  0  0  0
   -5.9950   38.9200   -6.8240 C   0  0  0  0  0  0  0  0  0  0  0  0
   -6.0920   38.5320   -8.1640 C   0  0  0  0  0  0  0  0  0  0  0  0
   -5.5267   35.8945  -10.4134 H   0  0  0  0  0  0  0  0  0  0  0  0
   -7.9794   39.1049  -12.5446 H   0  0  0  0  0  0  0  0  0  0  0  0
   -8.2716   38.6969  -14.9872 H   0  0  0  0  0  0  0  0  0  0  0  0
   -7.1610   37.7730  -16.7930 H   0  0  0  0  0  0  0  0  0  0  0  0
   -5.3276   35.5436  -14.8252 H   0  0  0  0  0  0  0  0  0  0  0  0
   -5.0277   35.9463  -12.3802 H   0  0  0  0  0  0  0  0  0  0  0  0
   -7.3697   41.3969   -9.5003 H   0  0  0  0  0  0  0  0  0  0  0  0
   -7.1996   42.1015   -7.1124 H   0  0  0  0  0  0  0  0  0  0  0  0
   -6.3211   40.5165   -5.3981 H   0  0  0  0  0  0  0  0  0  0  0  0
   -5.6070   38.2186   -6.0707 H   0  0  0  0  0  0  0  0  0  0  0  0
  1  2  2  0
  2  3  1  0
  3  4  2  0
  4  5  1  0
  5  6  2  0
  6  7  1  0
  7  8  2  0
  8  9  1  0
  8 10  1  0
 10 11  2  0
  4 12  1  0
 12 13  1  0
 13 14  2  0
 14 15  1  0
 15 16  2  0
 16 17  1  0
 17 18  2  0
 18  2  1  0
 11  5  1  0
 18 13  1  0
  3 19  1  0
  6 20  1  0
  7 21  1  0
  9 22  1  0
 10 23  1  0
 11 24  1  0
 14 25  1  0
 15 26  1  0
 16 27  1  0
 17 28  1  0
M  END
>  <meeko>  (2) 
{"is_sidechain": [false], "free_energy": -9.252, "intermolecular_energy": -10.07, "internal_energy": -0.295}

$$$$
4kzq_ligand
     RDKit          3D

 28 30  0  0  0  0  0  0  0  0999 V2000
   -4.2460   34.6160  -13.2490 O   0  0  0  0  0  0  0  0  0  0  0  0
   -4.9860   35.5720  -13.0640 C   0  0  0  0  0  0  0  0  0  0  0  0
   -5.1750   36.1350  -11.7180 C   0  0  0  0  0  0  0  0  0  0  0  0
   -5.9860   37.1910  -11.5560 C   0  0  0  0  0  0  0  0  0  0  0  0
   -6.2200   37.7910  -10.2280 C   0  0  0  0  0  0  0  0  0  0  0  0
   -5.6910   37.1800   -9.0810 C   0  0  0  0  0  0  0  0  0  0  0  0
   -5.9090   37.7300   -7.8150 C   0  0  0  0  0  0  0  0  0  0  0  0
   -6.6630   38.8890   -7.6880 C   0  0  0  0  0  0  0  0  0  0  0  0
   -6.8520   39.3900   -6.4350 O   0  0  0  0  0  0  0  0  0  0  0  0
   -7.2070   39.5090   -8.8070 C   0  0  0  0  0  0  0  0  0  0  0  0
   -6.9870   38.9590  -10.0740 C   0  0  0  0  0  0  0  0  0  0  0  0
   -6.6920   37.7980  -12.5830 O   0  0  0  0  0  0  0  0  0  0  0  0
   -6.5450   37.3050  -13.8560 C   0  0  0  0  0  0  0  0  0  0  0  0
   -7.2590   37.9400  -14.8720 C   0  0  0  0  0  0  0  0  0  0  0  0
   -7.1510   37.4830  -16.1870 C   0  0  0  0  0  0  0  0  0  0  0  0
   -6.3290   36.3940  -16.4870 C   0  0  0  0  0  0  0  0  0  0  0  0
   -5.6140   35.7590  -15.4720 C   0  0  0  0  0  0  0  0  0  0  0  0
   -5.7260   36.2200  -14.1570 C   0  0  0  0  0  0  0  0  0  0  0  0
   -4.6567   35.6945  -10.8535 H   0  0  0  0  0  0  0  0  0  0  0  0
   -5.0985   36.2584   -9.1794 H   0  0  0  0  0  0  0  0  0  0  0  0
   -5.4849   37.2466   -6.9225 H   0  0  0  0  0  0  0  0  0  0  0  0
   -7.2380   40.2780   -6.5090 H   0  0  0  0  0  0  0  0  0  0  0  0
   -7.8059   40.4251   -8.6968 H   0  0  0  0  0  0  0  0  0  0  0  0
   -7.4193   39.4461  -10.9605 H   0  0  0  0  0  0  0  0  0  0  0  0
   -7.9055   38.7986  -14.6380 H   0  0  0  0  0  0  0  0  0  0  0  0
   -7.7148   37.9819  -16.9890 H   0  0  0  0  0  0  0  0  0  0  0  0
   -6.2457   36.0373  -17.5242 H   0  0  0  0  0  0  0  0  0  0  0  0
   -4.9661   34.9010  -15.7046 H   0  0  0  0  0  0  0  0  0  0  0  0
  1  2  2  0
  2  3  1  0
  3  4  2  0
  4  5  1  0
  5  6  2  0
  6  7  1  0
  7  8  2  0
  8  9  1  0
  8 10  1  0
 10 11  2  0
  4 12  1  0
 12 13  1  0
 13 14  2  0
 14 15  1  0
 15 16  2  0
 16 17  1  0
 17 18  2  0
 18  2  1  0
 11  5  1  0
 18 13  1  0
  3 19  1  0
  6 20  1  0
  7 21  1  0
  9 22  1  0
 10 23  1  0
 11 24  1  0
 14 25  1  0
 15 26  1  0
 16 27  1  0
 17 28  1  0
M  END
>  <meeko>  (3) 
{"is_sidechain": [false], "free_energy": -9.162, "intermolecular_energy": -9.968, "internal_energy": -0.299}

$$$$
4kzq_ligand
     RDKit          3D

 28 30  0  0  0  0  0  0  0  0999 V2000
   -3.9520   39.4580   -9.0850 O   0  0  0  0  0  0  0  0  0  0  0  0
   -4.9590   38.8970   -9.4970 C   0  0  0  0  0  0  0  0  0  0  0  0
   -5.1070   38.5540  -10.9200 C   0  0  0  0  0  0  0  0  0  0  0  0
   -6.2200   37.9300  -11.3320 C   0  0  0  0  0  0  0  0  0  0  0  0
   -6.4260   37.5690  -12.7480 C   0  0  0  0  0  0  0  0  0  0  0  0
   -7.3030   38.3220  -13.5430 C   0  0  0  0  0  0  0  0  0  0  0  0
   -7.5160   37.9890  -14.8830 C   0  0  0  0  0  0  0  0  0  0  0  0
   -6.8590   36.8960  -15.4340 C   0  0  0  0  0  0  0  0  0  0  0  0
   -7.0970   36.6070  -16.7450 O   0  0  0  0  0  0  0  0  0  0  0  0
   -5.9920   36.1280  -14.6670 C   0  0  0  0  0  0  0  0  0  0  0  0
   -5.7790   36.4620  -13.3260 C   0  0  0  0  0  0  0  0  0  0  0  0
   -7.2780   37.5910  -10.5020 O   0  0  0  0  0  0  0  0  0  0  0  0
   -7.1820   37.8930   -9.1670 C   0  0  0  0  0  0  0  0  0  0  0  0
   -8.2560   37.5340   -8.3530 C   0  0  0  0  0  0  0  0  0  0  0  0
   -8.2170   37.8150   -6.9860 C   0  0  0  0  0  0  0  0  0  0  0  0
   -7.1060   38.4550   -6.4320 C   0  0  0  0  0  0  0  0  0  0  0  0
   -6.0300   38.8150   -7.2450 C   0  0  0  0  0  0  0  0  0  0  0  0
   -6.0750   38.5310   -8.6130 C   0  0  0  0  0  0  0  0  0  0  0  0
   -4.3131   38.8067  -11.6382 H   0  0  0  0  0  0  0  0  0  0  0  0
   -7.8287   39.1840  -13.1065 H   0  0  0  0  0  0  0  0  0  0  0  0
   -8.2011   38.5898  -15.4992 H   0  0  0  0  0  0  0  0  0  0  0  0
   -7.8470   35.9920  -16.7970 H   0  0  0  0  0  0  0  0  0  0  0  0
   -5.4769   35.2636  -15.1113 H   0  0  0  0  0  0  0  0  0  0  0  0
   -5.0971   35.8516  -12.7157 H   0  0  0  0  0  0  0  0  0  0  0  0
   -9.1322   37.0304   -8.7872 H   0  0  0  0  0  0  0  0  0  0  0  0
   -9.0636   37.5316   -6.3434 H   0  0  0  0  0  0  0  0  0  0  0  0
   -7.0790   38.6754   -5.3546 H   0  0  0  0  0  0  0  0  0  0  0  0
   -5.1529   39.3186   -6.8123 H   0  0  0  0  0  0  0  0  0  0  0  0
  1  2  2  0
  2  3  1  0
  3  4  2  0
  4  5  1  0
  5  6  2  0
  6  7  1  0
  7  8  2  0
  8  9  1  0
  8 10  1  0
 10 11  2  0
  4 12  1  0
 12 13  1  0
 13 14  2  0
 14 15  1  0
 15 16  2  0
 16 17  1  0
 17 18  2  0
 18  2  1  0
 11  5  1  0
 18 13  1  0
  3 19  1  0
  6 20  1  0
  7 21  1  0
  9 22  1  0
 10 23  1  0
 11 24  1  0
 14 25  1  0
 15 26  1  0
 16 27  1  0
 17 28  1  0
M  END
>  <meeko>  (4) 
{"is_sidechain": [false], "free_energy": -9.078, "intermolecular_energy": -9.923, "internal_energy": -0.253}

$$$$
4kzq_ligand
     RDKit          3D

 28 30  0  0  0  0  0  0  0  0999 V2000
   -7.1860   37.7840  -15.8830 O   0  0  0  0  0  0  0  0  0  0  0  0
   -6.6920   37.3430  -14.8540 C   0  0  0  0  0  0  0  0  0  0  0  0
   -6.9350   37.9950  -13.5580 C   0  0  0  0  0  0  0  0  0  0  0  0
   -6.3840   37.4770  -12.4500 C   0  0  0  0  0  0  0  0  0  0  0  0
   -6.5870   38.0930  -11.1240 C   0  0  0  0  0  0  0  0  0  0  0  0
   -5.8820   37.6090  -10.0110 C   0  0  0  0  0  0  0  0  0  0  0  0
   -6.0690   38.1740   -8.7470 C   0  0  0  0  0  0  0  0  0  0  0  0
   -6.9660   39.2220   -8.5870 C   0  0  0  0  0  0  0  0  0  0  0  0
   -7.1170   39.7440   -7.3370 O   0  0  0  0  0  0  0  0  0  0  0  0
   -7.6840   39.7150   -9.6700 C   0  0  0  0  0  0  0  0  0  0  0  0
   -7.4960   39.1490  -10.9350 C   0  0  0  0  0  0  0  0  0  0  0  0
   -5.5700   36.3550  -12.4340 O   0  0  0  0  0  0  0  0  0  0  0  0
   -5.3170   35.7160  -13.6220 C   0  0  0  0  0  0  0  0  0  0  0  0
   -4.5010   34.5860  -13.5770 C   0  0  0  0  0  0  0  0  0  0  0  0
   -4.2080   33.8930  -14.7530 C   0  0  0  0  0  0  0  0  0  0  0  0
   -4.7290   34.3280  -15.9730 C   0  0  0  0  0  0  0  0  0  0  0  0
   -5.5450   35.4590  -16.0200 C   0  0  0  0  0  0  0  0  0  0  0  0
   -5.8360   36.1480  -14.8390 C   0  0  0  0  0  0  0  0  0  0  0  0
   -7.5615   38.8972  -13.4981 H   0  0  0  0  0  0  0  0  0  0  0  0
   -5.1746   36.7758  -10.1353 H   0  0  0  0  0  0  0  0  0  0  0  0
   -5.5080   37.7903   -7.8821 H   0  0  0  0  0  0  0  0  0  0  0  0
   -7.4040   39.0360   -6.7360 H   0  0  0  0  0  0  0  0  0  0  0  0
   -8.3944   40.5437   -9.5333 H   0  0  0  0  0  0  0  0  0  0  0  0
   -8.0664   39.5348  -11.7928 H   0  0  0  0  0  0  0  0  0  0  0  0
   -4.0891   34.2414  -12.6170 H   0  0  0  0  0  0  0  0  0  0  0  0
   -3.5646   33.0015  -14.7182 H   0  0  0  0  0  0  0  0  0  0  0  0
   -4.4962   33.7791  -16.8974 H   0  0  0  0  0  0  0  0  0  0  0  0
   -5.9563   35.8059  -16.9794 H   0  0  0  0  0  0  0  0  0  0  0  0
  1  2  2  0
  2  3  1  0
  3  4  2  0
  4  5  1  0
  5  6  2  0
  6  7  1  0
  7  8  2  0
  8  9  1  0
  8 10  1  0
 10 11  2  0
  4 12  1  0
 12 13  1  0
 13 14  2  0
 14 15  1  0
 15 16  2  0
 16 17  1  0
 17 18  2  0
 18  2  1  0
 11  5  1  0
 18 13  1  0
  3 19  1  0
  6 20  1  0
  7 21  1  0
  9 22  1  0
 10 23  1  0
 11 24  1  0
 14 25  1  0
 15 26  1  0
 16 27  1  0
 17 28  1  0
M  END
>  <meeko>  (5) 
{"is_sidechain": [false], "free_energy": -8.175, "intermolecular_energy": -8.892, "internal_energy": -0.301}

$$$$
