4w9c_ligand
     RDKit          3D

 55 57  0  0  0  0  0  0  0  0999 V2000
   12.7030   53.7580   95.8240 C   0  0  0  0  0  0  0  0  0  0  0  0
   12.3350   54.7830   94.7400 C   0  0  0  0  0  0  0  0  0  0  0  0
   11.1020   54.2820   93.9680 C   0  0  0  0  0  0  0  0  0  0  0  0
   11.9620   56.1110   95.4290 C   0  0  0  0  0  0  0  0  0  0  0  0
   13.5290   55.0550   93.7900 C   0  0  0  0  0  0  0  0  0  0  0  0
   13.8080   53.9420   92.7890 C   0  0  0  0  0  0  0  0  0  0  0  0
   13.8150   52.7630   93.1510 O   0  0  0  0  0  0  0  0  0  0  0  0
   14.0280   54.2740   91.4700 N   0  0  0  0  0  0  0  0  0  0  0  0
   15.3820   54.2670   90.9340 C   0  0  0  0  0  0  0  0  0  0  0  0
   15.3830   55.4060   89.9150 C   0  0  2  0  0  0  0  0  0  0  0  0
   15.5530   56.6710   90.5530 O   0  0  0  0  0  0  0  0  0  0  0  0
   13.9770   55.3440   89.3390 C   0  0  0  0  0  0  0  0  0  0  0  0
   13.1040   54.9560   90.5430 C   0  0  1  0  0  0  0  0  0  0  0  0
   11.9700   54.0430   90.0390 C   0  0  0  0  0  0  0  0  0  0  0  0
   10.7970   54.2290   90.3550 O   0  0  0  0  0  0  0  0  0  0  0  0
   12.3660   53.0870   89.1310 N   0  0  0  0  0  0  0  0  0  0  0  0
   11.4270   52.2940   88.3770 C   0  0  0  0  0  0  0  0  0  0  0  0
   12.0020   51.9510   87.0270 C   0  0  0  0  0  0  0  0  0  0  0  0
   11.8590   50.6680   86.4890 C   0  0  0  0  0  0  0  0  0  0  0  0
   12.4230   50.3500   85.2480 C   0  0  0  0  0  0  0  0  0  0  0  0
   13.1490   51.3030   84.5200 C   0  0  0  0  0  0  0  0  0  0  0  0
   13.7340   50.9610   83.2300 C   0  0  0  0  0  0  0  0  0  0  0  0
   13.4350   50.0820   82.2100 C   0  0  0  0  0  0  0  0  0  0  0  0
   14.3610   50.1830   81.2010 N   0  0  0  0  0  0  0  0  0  0  0  0
   15.1790   51.1120   81.6360 C   0  0  0  0  0  0  0  0  0  0  0  0
   14.8720   51.6320   82.8550 O   0  0  0  0  0  0  0  0  0  0  0  0
   13.2950   52.5850   85.0690 C   0  0  0  0  0  0  0  0  0  0  0  0
   12.7320   52.9050   86.3080 C   0  0  0  0  0  0  0  0  0  0  0  0
   12.5436   54.2020   96.8177 H   0  0  0  0  0  0  0  0  0  0  0  0
   12.0691   52.8656   95.7151 H   0  0  0  0  0  0  0  0  0  0  0  0
   13.7597   53.4726   95.7151 H   0  0  0  0  0  0  0  0  0  0  0  0
   10.3261   53.9667   94.6811 H   0  0  0  0  0  0  0  0  0  0  0  0
   10.7111   55.0926   93.3355 H   0  0  0  0  0  0  0  0  0  0  0  0
   11.3873   53.4285   93.3355 H   0  0  0  0  0  0  0  0  0  0  0  0
   11.9986   55.9806   96.5206 H   0  0  0  0  0  0  0  0  0  0  0  0
   12.6753   56.8928   95.1290 H   0  0  0  0  0  0  0  0  0  0  0  0
   10.9460   56.4070   95.1290 H   0  0  0  0  0  0  0  0  0  0  0  0
   13.3176   55.9768   93.2282 H   0  0  0  0  0  0  0  0  0  0  0  0
   14.4227   55.1335   94.4266 H   0  0  0  0  0  0  0  0  0  0  0  0
   16.1183   54.4537   91.7296 H   0  0  0  0  0  0  0  0  0  0  0  0
   15.6552   53.2996   90.4874 H   0  0  0  0  0  0  0  0  0  0  0  0
   16.1924   55.3051   89.1769 H   0  0  0  0  0  0  0  0  0  0  0  0
   15.2470   57.3600   89.9370 H   0  0  0  0  0  0  0  0  0  0  0  0
   13.6755   56.3218   88.9353 H   0  0  0  0  0  0  0  0  0  0  0  0
   13.8904   54.6330   88.5042 H   0  0  0  0  0  0  0  0  0  0  0  0
   12.6206   55.8028   91.0522 H   0  0  0  0  0  0  0  0  0  0  0  0
   13.3370   53.0930   88.8380 H   0  0  0  0  0  0  0  0  0  0  0  0
   11.2114   51.3659   88.9266 H   0  0  0  0  0  0  0  0  0  0  0  0
   10.5010   52.8710   88.2368 H   0  0  0  0  0  0  0  0  0  0  0  0
   11.2987   49.9024   87.0457 H   0  0  0  0  0  0  0  0  0  0  0  0
   12.2947   49.3374   84.8379 H   0  0  0  0  0  0  0  0  0  0  0  0
   12.5751   49.3960   82.2054 H   0  0  0  0  0  0  0  0  0  0  0  0
   16.0516   51.4468   81.0559 H   0  0  0  0  0  0  0  0  0  0  0  0
   13.8607   53.3499   84.5168 H   0  0  0  0  0  0  0  0  0  0  0  0
   12.8638   53.9157   86.7217 H   0  0  0  0  0  0  0  0  0  0  0  0
  1  2  1  0
  2  3  1  0
  2  4  1  0
  2  5  1  0
  5  6  1  0
  6  7  2  0
  6  8  1  0
  8  9  1  0
  9 10  1  0
 10 11  1  0
 10 12  1  0
 12 13  1  0
 13 14  1  0
 14 15  2  0
 14 16  1  0
 16 17  1  0
 17 18  1  0
 18 19  2  0
 19 20  1  0
 20 21  2  0
 21 22  1  0
 22 23  2  0
 23 24  1  0
 24 25  2  0
 25 26  1  0
 21 27  1  0
 27 28  2  0
 13  8  1  0
 28 18  1  0
 26 22  1  0
  1 29  1  0
  1 30  1  0
  1 31  1  0
  3 32  1  0
  3 33  1  0
  3 34  1  0
  4 35  1  0
  4 36  1  0
  4 37  1  0
  5 38  1  0
  5 39  1  0
  9 40  1  0
  9 41  1  0
 10 42  1  6
 11 43  1  0
 12 44  1  0
 12 45  1  0
 13 46  1  1
 16 47  1  0
 17 48  1  0
 17 49  1  0
 19 50  1  0
 20 51  1  0
 23 52  1  0
 25 53  1  0
 27 54  1  0
 28 55  1  0
M  END
>  <meeko>  (1) 
{"is_sidechain": [false], "free_energy": -6.772, "intermolecular_energy": -9.741, "internal_energy": -0.758}

$$$$
4w9c_ligand
     RDKit          3D

 55 57  0  0  0  0  0  0  0  0999 V2000
   11.6610   51.1710   82.1540 C   0  0  0  0  0  0  0  0  0  0  0  0
   12.8060   50.1840   82.4280 C   0  0  0  0  0  0  0  0  0  0  0  0
   12.2340   48.7600   82.5290 C   0  0  0  0  0  0  0  0  0  0  0  0
   13.7830   50.2260   81.2360 C   0  0  0  0  0  0  0  0  0  0  0  0
   13.5940   50.5730   83.7050 C   0  0  0  0  0  0  0  0  0  0  0  0
   12.8490   50.3240   85.0100 C   0  0  0  0  0  0  0  0  0  0  0  0
   12.9330   49.2330   85.5780 O   0  0  0  0  0  0  0  0  0  0  0  0
   12.1000   51.3450   85.5530 N   0  0  0  0  0  0  0  0  0  0  0  0
   10.8610   51.0440   86.2570 C   0  0  0  0  0  0  0  0  0  0  0  0
    9.9580   52.2360   85.9430 C   0  0  2  0  0  0  0  0  0  0  0  0
    9.3570   52.1050   84.6560 O   0  0  0  0  0  0  0  0  0  0  0  0
   10.9370   53.3980   85.9000 C   0  0  0  0  0  0  0  0  0  0  0  0
   12.2010   52.7900   85.2710 C   0  0  1  0  0  0  0  0  0  0  0  0
   13.4290   53.4500   85.9270 C   0  0  0  0  0  0  0  0  0  0  0  0
   14.4590   53.6760   85.2970 O   0  0  0  0  0  0  0  0  0  0  0  0
   13.2320   53.8580   87.2280 N   0  0  0  0  0  0  0  0  0  0  0  0
   14.1740   54.6930   87.9310 C   0  0  0  0  0  0  0  0  0  0  0  0
   13.9570   54.5820   89.4180 C   0  0  0  0  0  0  0  0  0  0  0  0
   14.8740   55.1320   90.3210 C   0  0  0  0  0  0  0  0  0  0  0  0
   14.6800   54.9980   91.7010 C   0  0  0  0  0  0  0  0  0  0  0  0
   13.5720   54.3040   92.2100 C   0  0  0  0  0  0  0  0  0  0  0  0
   13.3820   54.1680   93.6480 C   0  0  0  0  0  0  0  0  0  0  0  0
   13.4520   53.1360   94.5620 C   0  0  0  0  0  0  0  0  0  0  0  0
   13.1640   53.5920   95.8250 N   0  0  0  0  0  0  0  0  0  0  0  0
   12.9360   54.8710   95.6380 C   0  0  0  0  0  0  0  0  0  0  0  0
   13.0450   55.2980   94.3510 O   0  0  0  0  0  0  0  0  0  0  0  0
   12.6630   53.7490   91.2990 C   0  0  0  0  0  0  0  0  0  0  0  0
   12.8540   53.8830   89.9200 C   0  0  0  0  0  0  0  0  0  0  0  0
   11.2476   51.5273   83.1091 H   0  0  0  0  0  0  0  0  0  0  0  0
   12.0442   52.0265   81.5784 H   0  0  0  0  0  0  0  0  0  0  0  0
   10.8714   50.6659   81.5784 H   0  0  0  0  0  0  0  0  0  0  0  0
   12.1230   48.4837   83.5879 H   0  0  0  0  0  0  0  0  0  0  0  0
   11.2515   48.7237   82.0357 H   0  0  0  0  0  0  0  0  0  0  0  0
   12.9184   48.0541   82.0357 H   0  0  0  0  0  0  0  0  0  0  0  0
   14.8164   50.2704   81.6103 H   0  0  0  0  0  0  0  0  0  0  0  0
   13.6534   49.3215   80.6236 H   0  0  0  0  0  0  0  0  0  0  0  0
   13.5762   51.1161   80.6236 H   0  0  0  0  0  0  0  0  0  0  0  0
   14.5256   49.9884   83.7248 H   0  0  0  0  0  0  0  0  0  0  0  0
   13.7667   51.6578   83.6466 H   0  0  0  0  0  0  0  0  0  0  0  0
   10.4173   50.1087   85.8850 H   0  0  0  0  0  0  0  0  0  0  0  0
   11.0121   50.9004   87.3371 H   0  0  0  0  0  0  0  0  0  0  0  0
    9.1407   52.3440   86.6713 H   0  0  0  0  0  0  0  0  0  0  0  0
    9.3590   52.9820   84.2340 H   0  0  0  0  0  0  0  0  0  0  0  0
   10.5456   54.2173   85.2791 H   0  0  0  0  0  0  0  0  0  0  0  0
   11.1235   53.8339   86.8926 H   0  0  0  0  0  0  0  0  0  0  0  0
   12.2999   52.9540   84.1878 H   0  0  0  0  0  0  0  0  0  0  0  0
   12.3050   53.7390   87.6210 H   0  0  0  0  0  0  0  0  0  0  0  0
   15.1973   54.3711   87.6878 H   0  0  0  0  0  0  0  0  0  0  0  0
   14.0269   55.7388   87.6233 H   0  0  0  0  0  0  0  0  0  0  0  0
   15.7538   55.6737   89.9436 H   0  0  0  0  0  0  0  0  0  0  0  0
   15.4068   55.4433   92.3963 H   0  0  0  0  0  0  0  0  0  0  0  0
   13.7033   52.0943   94.3136 H   0  0  0  0  0  0  0  0  0  0  0  0
   12.6752   55.5496   96.4635 H   0  0  0  0  0  0  0  0  0  0  0  0
   11.7866   53.2001   91.6740 H   0  0  0  0  0  0  0  0  0  0  0  0
   12.1302   53.4346   89.2236 H   0  0  0  0  0  0  0  0  0  0  0  0
  1  2  1  0
  2  3  1  0
  2  4  1  0
  2  5  1  0
  5  6  1  0
  6  7  2  0
  6  8  1  0
  8  9  1  0
  9 10  1  0
 10 11  1  0
 10 12  1  0
 12 13  1  0
 13 14  1  0
 14 15  2  0
 14 16  1  0
 16 17  1  0
 17 18  1  0
 18 19  2  0
 19 20  1  0
 20 21  2  0
 21 22  1  0
 22 23  2  0
 23 24  1  0
 24 25  2  0
 25 26  1  0
 21 27  1  0
 27 28  2  0
 13  8  1  0
 28 18  1  0
 26 22  1  0
  1 29  1  0
  1 30  1  0
  1 31  1  0
  3 32  1  0
  3 33  1  0
  3 34  1  0
  4 35  1  0
  4 36  1  0
  4 37  1  0
  5 38  1  0
  5 39  1  0
  9 40  1  0
  9 41  1  0
 10 42  1  1
 11 43  1  0
 12 44  1  0
 12 45  1  0
 13 46  1  6
 16 47  1  0
 17 48  1  0
 17 49  1  0
 19 50  1  0
 20 51  1  0
 23 52  1  0
 25 53  1  0
 27 54  1  0
 28 55  1  0
M  END
>  <meeko>  (2) 
{"is_sidechain": [false], "free_energy": -6.683, "intermolecular_energy": -9.53, "internal_energy": -0.842}

$$$$
4w9c_ligand
     RDKit          3D

 55 57  0  0  0  0  0  0  0  0999 V2000
   11.7920   54.1590   92.8250 C   0  0  0  0  0  0  0  0  0  0  0  0
   13.1820   53.9470   93.4450 C   0  0  0  0  0  0  0  0  0  0  0  0
   14.2600   54.3330   92.4170 C   0  0  0  0  0  0  0  0  0  0  0  0
   13.3220   54.8830   94.6630 C   0  0  0  0  0  0  0  0  0  0  0  0
   13.3640   52.4890   93.9390 C   0  0  0  0  0  0  0  0  0  0  0  0
   13.5920   51.4680   92.8320 C   0  0  0  0  0  0  0  0  0  0  0  0
   14.7320   51.0760   92.5700 O   0  0  0  0  0  0  0  0  0  0  0  0
   12.5030   50.9740   92.1480 N   0  0  0  0  0  0  0  0  0  0  0  0
   11.4010   50.3640   92.8800 C   0  0  0  0  0  0  0  0  0  0  0  0
   10.9060   49.2580   91.9490 C   0  0  2  0  0  0  0  0  0  0  0  0
   11.7250   48.0940   92.0460 O   0  0  0  0  0  0  0  0  0  0  0  0
   11.1000   49.8670   90.5690 C   0  0  0  0  0  0  0  0  0  0  0  0
   12.3970   50.6800   90.7060 C   0  0  1  0  0  0  0  0  0  0  0  0
   12.2630   51.9470   89.8400 C   0  0  0  0  0  0  0  0  0  0  0  0
   13.1190   52.8290   89.8410 O   0  0  0  0  0  0  0  0  0  0  0  0
   11.1750   51.9510   88.9960 N   0  0  0  0  0  0  0  0  0  0  0  0
   11.0040   52.9310   87.9520 C   0  0  0  0  0  0  0  0  0  0  0  0
   11.8570   52.5770   86.7610 C   0  0  0  0  0  0  0  0  0  0  0  0
   11.6950   51.3560   86.0980 C   0  0  0  0  0  0  0  0  0  0  0  0
   12.5140   51.0220   85.0130 C   0  0  0  0  0  0  0  0  0  0  0  0
   13.5170   51.8960   84.5700 C   0  0  0  0  0  0  0  0  0  0  0  0
   14.3650   51.5380   83.4410 C   0  0  0  0  0  0  0  0  0  0  0  0
   14.2520   50.7120   82.3410 C   0  0  0  0  0  0  0  0  0  0  0  0
   15.3960   50.7600   81.5830 N   0  0  0  0  0  0  0  0  0  0  0  0
   16.1550   51.6060   82.2390 C   0  0  0  0  0  0  0  0  0  0  0  0
   15.6060   52.1200   83.3730 O   0  0  0  0  0  0  0  0  0  0  0  0
   13.6790   53.1140   85.2440 C   0  0  0  0  0  0  0  0  0  0  0  0
   12.8620   53.4510   86.3280 C   0  0  0  0  0  0  0  0  0  0  0  0
   11.0467   54.2727   93.6260 H   0  0  0  0  0  0  0  0  0  0  0  0
   11.8026   55.0659   92.2026 H   0  0  0  0  0  0  0  0  0  0  0  0
   11.5317   53.2902   92.2026 H   0  0  0  0  0  0  0  0  0  0  0  0
   15.1691   54.6585   92.9438 H   0  0  0  0  0  0  0  0  0  0  0  0
   14.4935   53.4626   91.7862 H   0  0  0  0  0  0  0  0  0  0  0  0
   13.8880   55.1538   91.7862 H   0  0  0  0  0  0  0  0  0  0  0  0
   13.2341   54.2956   95.5889 H   0  0  0  0  0  0  0  0  0  0  0  0
   14.3041   55.3776   94.6344 H   0  0  0  0  0  0  0  0  0  0  0  0
   12.5276   55.6433   94.6344 H   0  0  0  0  0  0  0  0  0  0  0  0
   14.2314   52.4616   94.6149 H   0  0  0  0  0  0  0  0  0  0  0  0
   12.4225   52.2076   94.4334 H   0  0  0  0  0  0  0  0  0  0  0  0
   11.7507   49.9441   93.8347 H   0  0  0  0  0  0  0  0  0  0  0  0
   10.6119   51.0862   93.1364 H   0  0  0  0  0  0  0  0  0  0  0  0
    9.8761   48.9484   92.1801 H   0  0  0  0  0  0  0  0  0  0  0  0
   12.4370   48.2820   92.6830 H   0  0  0  0  0  0  0  0  0  0  0  0
   11.2083   49.0821   89.8060 H   0  0  0  0  0  0  0  0  0  0  0  0
   10.2446   50.4811   90.2510 H   0  0  0  0  0  0  0  0  0  0  0  0
   13.3034   50.1602   90.3620 H   0  0  0  0  0  0  0  0  0  0  0  0
   10.5940   51.1200   88.9770 H   0  0  0  0  0  0  0  0  0  0  0  0
    9.9473   52.9567   87.6474 H   0  0  0  0  0  0  0  0  0  0  0  0
   11.3095   53.9171   88.3319 H   0  0  0  0  0  0  0  0  0  0  0  0
   10.9179   50.6527   86.4319 H   0  0  0  0  0  0  0  0  0  0  0  0
   12.3686   50.0597   84.5004 H   0  0  0  0  0  0  0  0  0  0  0  0
   13.3687   50.1005   82.1045 H   0  0  0  0  0  0  0  0  0  0  0  0
   17.1637   51.8802   81.8964 H   0  0  0  0  0  0  0  0  0  0  0  0
   14.4602   53.8153   84.9156 H   0  0  0  0  0  0  0  0  0  0  0  0
   13.0101   54.4107   86.8449 H   0  0  0  0  0  0  0  0  0  0  0  0
  1  2  1  0
  2  3  1  0
  2  4  1  0
  2  5  1  0
  5  6  1  0
  6  7  2  0
  6  8  1  0
  8  9  1  0
  9 10  1  0
 10 11  1  0
 10 12  1  0
 12 13  1  0
 13 14  1  0
 14 15  2  0
 14 16  1  0
 16 17  1  0
 17 18  1  0
 18 19  2  0
 19 20  1  0
 20 21  2  0
 21 22  1  0
 22 23  2  0
 23 24  1  0
 24 25  2  0
 25 26  1  0
 21 27  1  0
 27 28  2  0
 13  8  1  0
 28 18  1  0
 26 22  1  0
  1 29  1  0
  1 30  1  0
  1 31  1  0
  3 32  1  0
  3 33  1  0
  3 34  1  0
  4 35  1  0
  4 36  1  0
  4 37  1  0
  5 38  1  0
  5 39  1  0
  9 40  1  0
  9 41  1  0
 10 42  1  1
 11 43  1  0
 12 44  1  0
 12 45  1  0
 13 46  1  6
 16 47  1  0
 17 48  1  0
 17 49  1  0
 19 50  1  0
 20 51  1  0
 23 52  1  0
 25 53  1  0
 27 54  1  0
 28 55  1  0
M  END
>  <meeko>  (3) 
{"is_sidechain": [false], "free_energy": -6.397, "intermolecular_energy": -9.057, "internal_energy": -0.903}

$$$$
4w9c_ligand
     RDKit          3D

 55 57  0  0  0  0  0  0  0  0999 V2000
   15.0830   52.8750   83.8030 C   0  0  0  0  0  0  0  0  0  0  0  0
   15.1380   51.6560   82.8700 C   0  0  0  0  0  0  0  0  0  0  0  0
   14.6330   52.0620   81.4750 C   0  0  0  0  0  0  0  0  0  0  0  0
   16.6070   51.2070   82.7380 C   0  0  0  0  0  0  0  0  0  0  0  0
   14.3250   50.4680   83.4450 C   0  0  0  0  0  0  0  0  0  0  0  0
   12.8910   50.8070   83.8280 C   0  0  0  0  0  0  0  0  0  0  0  0
   12.0520   51.0490   82.9580 O   0  0  0  0  0  0  0  0  0  0  0  0
   12.5430   50.8150   85.1620 N   0  0  0  0  0  0  0  0  0  0  0  0
   12.7330   49.6170   85.9690 C   0  0  0  0  0  0  0  0  0  0  0  0
   11.5680   49.6480   86.9570 C   0  0  2  0  0  0  0  0  0  0  0  0
   10.3700   49.1560   86.3600 O   0  0  0  0  0  0  0  0  0  0  0  0
   11.3950   51.1340   87.2270 C   0  0  0  0  0  0  0  0  0  0  0  0
   11.6940   51.7910   85.8710 C   0  0  1  0  0  0  0  0  0  0  0  0
   12.4050   53.1320   86.1330 C   0  0  0  0  0  0  0  0  0  0  0  0
   12.1060   54.1570   85.5240 O   0  0  0  0  0  0  0  0  0  0  0  0
   13.3110   53.1060   87.1690 N   0  0  0  0  0  0  0  0  0  0  0  0
   13.9040   54.3030   87.7140 C   0  0  0  0  0  0  0  0  0  0  0  0
   13.7860   54.3040   89.2170 C   0  0  0  0  0  0  0  0  0  0  0  0
   12.7060   53.6840   89.8530 C   0  0  0  0  0  0  0  0  0  0  0  0
   12.5890   53.7160   91.2480 C   0  0  0  0  0  0  0  0  0  0  0  0
   13.5430   54.3740   92.0370 C   0  0  0  0  0  0  0  0  0  0  0  0
   13.4100   54.4030   93.4880 C   0  0  0  0  0  0  0  0  0  0  0  0
   12.9960   55.3280   94.4250 C   0  0  0  0  0  0  0  0  0  0  0  0
   13.0840   54.8020   95.6910 N   0  0  0  0  0  0  0  0  0  0  0  0
   13.5390   53.5890   95.4810 C   0  0  0  0  0  0  0  0  0  0  0  0
   13.7640   53.2710   94.1780 O   0  0  0  0  0  0  0  0  0  0  0  0
   14.6180   55.0000   91.3920 C   0  0  0  0  0  0  0  0  0  0  0  0
   14.7380   54.9690   89.9990 C   0  0  0  0  0  0  0  0  0  0  0  0
   15.0983   52.5367   84.8496 H   0  0  0  0  0  0  0  0  0  0  0  0
   15.9529   53.5211   83.6138 H   0  0  0  0  0  0  0  0  0  0  0  0
   14.1584   53.4401   83.6138 H   0  0  0  0  0  0  0  0  0  0  0  0
   13.7796   52.7481   81.5793 H   0  0  0  0  0  0  0  0  0  0  0  0
   15.4419   52.5641   80.9240 H   0  0  0  0  0  0  0  0  0  0  0  0
   14.3164   51.1641   80.9240 H   0  0  0  0  0  0  0  0  0  0  0  0
   17.0413   51.0743   83.7399 H   0  0  0  0  0  0  0  0  0  0  0  0
   16.6514   50.2543   82.1900 H   0  0  0  0  0  0  0  0  0  0  0  0
   17.1764   51.9721   82.1900 H   0  0  0  0  0  0  0  0  0  0  0  0
   14.2983   49.6716   82.6866 H   0  0  0  0  0  0  0  0  0  0  0  0
   14.8316   50.1639   84.3728 H   0  0  0  0  0  0  0  0  0  0  0  0
   12.6910   48.7133   85.3432 H   0  0  0  0  0  0  0  0  0  0  0  0
   13.7122   49.5948   86.4697 H   0  0  0  0  0  0  0  0  0  0  0  0
   11.7602   49.0331   87.8486 H   0  0  0  0  0  0  0  0  0  0  0  0
   10.3580   49.4460   85.4310 H   0  0  0  0  0  0  0  0  0  0  0  0
   10.3678   51.3561   87.5519 H   0  0  0  0  0  0  0  0  0  0  0  0
   12.0517   51.4993   88.0303 H   0  0  0  0  0  0  0  0  0  0  0  0
   10.8043   52.0219   85.2668 H   0  0  0  0  0  0  0  0  0  0  0  0
   13.3970   52.2430   87.6940 H   0  0  0  0  0  0  0  0  0  0  0  0
   14.9667   54.3426   87.4328 H   0  0  0  0  0  0  0  0  0  0  0  0
   13.3764   55.1804   87.3117 H   0  0  0  0  0  0  0  0  0  0  0  0
   11.9426   53.1672   89.2529 H   0  0  0  0  0  0  0  0  0  0  0  0
   11.7361   53.2176   91.7319 H   0  0  0  0  0  0  0  0  0  0  0  0
   12.6449   56.3438   94.1909 H   0  0  0  0  0  0  0  0  0  0  0  0
   13.7252   52.8797   96.3009 H   0  0  0  0  0  0  0  0  0  0  0  0
   15.3785   55.5234   91.9900 H   0  0  0  0  0  0  0  0  0  0  0  0
   15.5877   55.4714   89.5136 H   0  0  0  0  0  0  0  0  0  0  0  0
  1  2  1  0
  2  3  1  0
  2  4  1  0
  2  5  1  0
  5  6  1  0
  6  7  2  0
  6  8  1  0
  8  9  1  0
  9 10  1  0
 10 11  1  0
 10 12  1  0
 12 13  1  0
 13 14  1  0
 14 15  2  0
 14 16  1  0
 16 17  1  0
 17 18  1  0
 18 19  2  0
 19 20  1  0
 20 21  2  0
 21 22  1  0
 22 23  2  0
 23 24  1  0
 24 25  2  0
 25 26  1  0
 21 27  1  0
 27 28  2  0
 13  8  1  0
 28 18  1  0
 26 22  1  0
  1 29  1  0
  1 30  1  0
  1 31  1  0
  3 32  1  0
  3 33  1  0
  3 34  1  0
  4 35  1  0
  4 36  1  0
  4 37  1  0
  5 38  1  0
  5 39  1  0
  9 40  1  0
  9 41  1  0
 10 42  1  1
 11 43  1  0
 12 44  1  0
 12 45  1  0
 13 46  1  6
 16 47  1  0
 17 48  1  0
 17 49  1  0
 19 50  1  0
 20 51  1  0
 23 52  1  0
 25 53  1  0
 27 54  1  0
 28 55  1  0
M  END
>  <meeko>  (4) 
{"is_sidechain": [false], "free_energy": -6.239, "intermolecular_energy": -8.763, "internal_energy": -0.97}

$$$$
4w9c_ligand
     RDKit          3D

 55 57  0  0  0  0  0  0  0  0999 V2000
    7.0630   52.7980   85.6830 C   0  0  0  0  0  0  0  0  0  0  0  0
    7.9040   52.1850   84.5520 C   0  0  0  0  0  0  0  0  0  0  0  0
    8.4620   50.8280   85.0150 C   0  0  0  0  0  0  0  0  0  0  0  0
    6.9860   51.9380   83.3380 C   0  0  0  0  0  0  0  0  0  0  0  0
    9.0380   53.1440   84.1080 C   0  0  0  0  0  0  0  0  0  0  0  0
   10.3060   53.0590   84.9470 C   0  0  0  0  0  0  0  0  0  0  0  0
   10.3300   53.5220   86.0890 O   0  0  0  0  0  0  0  0  0  0  0  0
   11.4140   52.4350   84.4160 N   0  0  0  0  0  0  0  0  0  0  0  0
   11.3920   51.9630   83.0380 C   0  0  0  0  0  0  0  0  0  0  0  0
   12.2470   50.6970   83.0670 C   0  0  2  0  0  0  0  0  0  0  0  0
   11.5020   49.5800   83.5480 O   0  0  0  0  0  0  0  0  0  0  0  0
   13.3180   51.0370   84.0900 C   0  0  0  0  0  0  0  0  0  0  0  0
   12.5700   51.8740   85.1400 C   0  0  1  0  0  0  0  0  0  0  0  0
   13.5340   52.9530   85.6690 C   0  0  0  0  0  0  0  0  0  0  0  0
   14.3830   53.4750   84.9510 O   0  0  0  0  0  0  0  0  0  0  0  0
   13.2880   53.3540   86.9640 N   0  0  0  0  0  0  0  0  0  0  0  0
   13.9260   54.5050   87.5560 C   0  0  0  0  0  0  0  0  0  0  0  0
   13.8210   54.4420   89.0580 C   0  0  0  0  0  0  0  0  0  0  0  0
   14.7940   55.0320   89.8720 C   0  0  0  0  0  0  0  0  0  0  0  0
   14.7040   54.9410   91.2660 C   0  0  0  0  0  0  0  0  0  0  0  0
   13.6460   54.2540   91.8780 C   0  0  0  0  0  0  0  0  0  0  0  0
   13.5640   54.1630   93.3300 C   0  0  0  0  0  0  0  0  0  0  0  0
   13.7380   53.1690   94.2710 C   0  0  0  0  0  0  0  0  0  0  0  0
   13.5240   53.6610   95.5350 N   0  0  0  0  0  0  0  0  0  0  0  0
   13.2350   54.9230   95.3210 C   0  0  0  0  0  0  0  0  0  0  0  0
   13.2360   55.3060   94.0160 O   0  0  0  0  0  0  0  0  0  0  0  0
   12.6800   53.6580   91.0550 C   0  0  0  0  0  0  0  0  0  0  0  0
   12.7670   53.7480   89.6630 C   0  0  0  0  0  0  0  0  0  0  0  0
    7.4791   52.4947   86.6551 H   0  0  0  0  0  0  0  0  0  0  0  0
    7.0830   53.8948   85.6017 H   0  0  0  0  0  0  0  0  0  0  0  0
    6.0250   52.4432   85.6017 H   0  0  0  0  0  0  0  0  0  0  0  0
    8.4763   50.7932   86.1144 H   0  0  0  0  0  0  0  0  0  0  0  0
    7.8237   50.0187   84.6308 H   0  0  0  0  0  0  0  0  0  0  0  0
    9.4850   50.7018   84.6308 H   0  0  0  0  0  0  0  0  0  0  0  0
    5.9792   51.6671   83.6887 H   0  0  0  0  0  0  0  0  0  0  0  0
    6.9286   52.8526   82.7296 H   0  0  0  0  0  0  0  0  0  0  0  0
    7.3953   51.1180   82.7296 H   0  0  0  0  0  0  0  0  0  0  0  0
    9.2995   52.9067   83.0662 H   0  0  0  0  0  0  0  0  0  0  0  0
    8.6492   54.1653   84.2338 H   0  0  0  0  0  0  0  0  0  0  0  0
   10.3644   51.7336   82.7197 H   0  0  0  0  0  0  0  0  0  0  0  0
   11.7701   52.7129   82.3276 H   0  0  0  0  0  0  0  0  0  0  0  0
   12.6261   50.4265   82.0704 H   0  0  0  0  0  0  0  0  0  0  0  0
   11.7050   49.4710   84.4940 H   0  0  0  0  0  0  0  0  0  0  0  0
   13.7335   50.1236   84.5406 H   0  0  0  0  0  0  0  0  0  0  0  0
   14.1723   51.5720   83.6495 H   0  0  0  0  0  0  0  0  0  0  0  0
   12.2231   51.3079   86.0170 H   0  0  0  0  0  0  0  0  0  0  0  0
   12.4840   52.9540   87.4330 H   0  0  0  0  0  0  0  0  0  0  0  0
   14.9870   54.5217   87.2661 H   0  0  0  0  0  0  0  0  0  0  0  0
   13.4251   55.4169   87.1987 H   0  0  0  0  0  0  0  0  0  0  0  0
   15.6358   55.5713   89.4133 H   0  0  0  0  0  0  0  0  0  0  0  0
   15.4750   55.4157   91.8907 H   0  0  0  0  0  0  0  0  0  0  0  0
   14.0100   52.1283   94.0409 H   0  0  0  0  0  0  0  0  0  0  0  0
   13.0079   55.6219   96.1395 H   0  0  0  0  0  0  0  0  0  0  0  0
   11.8415   53.1116   91.5115 H   0  0  0  0  0  0  0  0  0  0  0  0
   11.9998   53.2688   89.0371 H   0  0  0  0  0  0  0  0  0  0  0  0
  1  2  1  0
  2  3  1  0
  2  4  1  0
  2  5  1  0
  5  6  1  0
  6  7  2  0
  6  8  1  0
  8  9  1  0
  9 10  1  0
 10 11  1  0
 10 12  1  0
 12 13  1  0
 13 14  1  0
 14 15  2  0
 14 16  1  0
 16 17  1  0
 17 18  1  0
 18 19  2  0
 19 20  1  0
 20 21  2  0
 21 22  1  0
 22 23  2  0
 23 24  1  0
 24 25  2  0
 25 26  1  0
 21 27  1  0
 27 28  2  0
 13  8  1  0
 28 18  1  0
 26 22  1  0
  1 29  1  0
  1 30  1  0
  1 31  1  0
  3 32  1  0
  3 33  1  0
  3 34  1  0
  4 35  1  0
  4 36  1  0
  4 37  1  0
  5 38  1  0
  5 39  1  0
  9 40  1  0
  9 41  1  0
 10 42  1  6
 11 43  1  0
 12 44  1  0
 12 45  1  0
 13 46  1  1
 16 47  1  0
 17 48  1  0
 17 49  1  0
 19 50  1  0
 20 51  1  0
 23 52  1  0
 25 53  1  0
 27 54  1  0
 28 55  1  0
M  END
>  <meeko>  (5) 
{"is_sidechain": [false], "free_energy": -6.118, "intermolecular_energy": -8.548, "internal_energy": -1.01}

$$$$
4w9c_ligand
     RDKit          3D

 55 57  0  0  0  0  0  0  0  0999 V2000
    9.4220   51.7180   89.0070 C   0  0  0  0  0  0  0  0  0  0  0  0
    9.6040   52.6130   90.2430 C   0  0  0  0  0  0  0  0  0  0  0  0
    9.9950   54.0300   89.7890 C   0  0  0  0  0  0  0  0  0  0  0  0
    8.2560   52.7010   90.9850 C   0  0  0  0  0  0  0  0  0  0  0  0
   10.6510   52.0200   91.2200 C   0  0  0  0  0  0  0  0  0  0  0  0
   12.0980   52.1750   90.7710 C   0  0  0  0  0  0  0  0  0  0  0  0
   12.5180   51.5490   89.7950 O   0  0  0  0  0  0  0  0  0  0  0  0
   12.9170   53.0440   91.4570 N   0  0  0  0  0  0  0  0  0  0  0  0
   13.3800   52.7040   92.7950 C   0  0  0  0  0  0  0  0  0  0  0  0
   13.4510   54.0490   93.5160 C   0  0  2  0  0  0  0  0  0  0  0  0
   12.1640   54.4600   93.9740 O   0  0  0  0  0  0  0  0  0  0  0  0
   13.8930   54.9990   92.4130 C   0  0  0  0  0  0  0  0  0  0  0  0
   13.1770   54.4670   91.1620 C   0  0  1  0  0  0  0  0  0  0  0  0
   14.1080   54.6730   89.9520 C   0  0  0  0  0  0  0  0  0  0  0  0
   15.3210   54.8200   90.0830 O   0  0  0  0  0  0  0  0  0  0  0  0
   13.4870   54.5680   88.7280 N   0  0  0  0  0  0  0  0  0  0  0  0
   14.2200   54.5010   87.4870 C   0  0  0  0  0  0  0  0  0  0  0  0
   13.5080   53.5990   86.5110 C   0  0  0  0  0  0  0  0  0  0  0  0
   12.2460   53.0730   86.8070 C   0  0  0  0  0  0  0  0  0  0  0  0
   11.6070   52.2100   85.9090 C   0  0  0  0  0  0  0  0  0  0  0  0
   12.2160   51.8480   84.6990 C   0  0  0  0  0  0  0  0  0  0  0  0
   11.5430   50.9480   83.7720 C   0  0  0  0  0  0  0  0  0  0  0  0
   10.2380   50.7190   83.3870 C   0  0  0  0  0  0  0  0  0  0  0  0
   10.1810   49.7160   82.4500 N   0  0  0  0  0  0  0  0  0  0  0  0
   11.4400   49.3770   82.2970 C   0  0  0  0  0  0  0  0  0  0  0  0
   12.3260   50.0720   83.0610 O   0  0  0  0  0  0  0  0  0  0  0  0
   13.4840   52.3720   84.4130 C   0  0  0  0  0  0  0  0  0  0  0  0
   14.1250   53.2340   85.3090 C   0  0  0  0  0  0  0  0  0  0  0  0
    9.2124   50.6871   89.3284 H   0  0  0  0  0  0  0  0  0  0  0  0
    8.5816   52.0921   88.4039 H   0  0  0  0  0  0  0  0  0  0  0  0
   10.3418   51.7342   88.4039 H   0  0  0  0  0  0  0  0  0  0  0  0
   10.1696   54.6627   90.6717 H   0  0  0  0  0  0  0  0  0  0  0  0
   10.9133   53.9813   89.1853 H   0  0  0  0  0  0  0  0  0  0  0  0
    9.1817   54.4591   89.1853 H   0  0  0  0  0  0  0  0  0  0  0  0
    8.4335   52.6894   92.0705 H   0  0  0  0  0  0  0  0  0  0  0  0
    7.7447   53.6344   90.7070 H   0  0  0  0  0  0  0  0  0  0  0  0
    7.6277   51.8420   90.7070 H   0  0  0  0  0  0  0  0  0  0  0  0
   10.5375   52.5237   92.1913 H   0  0  0  0  0  0  0  0  0  0  0  0
   10.4542   50.9388   91.2684 H   0  0  0  0  0  0  0  0  0  0  0  0
   12.6691   52.0297   93.2949 H   0  0  0  0  0  0  0  0  0  0  0  0
   14.3455   52.1770   92.7871 H   0  0  0  0  0  0  0  0  0  0  0  0
   14.1115   54.0167   94.3951 H   0  0  0  0  0  0  0  0  0  0  0  0
   11.7630   55.0160   93.2830 H   0  0  0  0  0  0  0  0  0  0  0  0
   13.5800   56.0299   92.6350 H   0  0  0  0  0  0  0  0  0  0  0  0
   14.9861   55.0342   92.2948 H   0  0  0  0  0  0  0  0  0  0  0  0
   12.2331   54.9778   90.9207 H   0  0  0  0  0  0  0  0  0  0  0  0
   12.5040   54.3200   88.7210 H   0  0  0  0  0  0  0  0  0  0  0  0
   14.3002   55.5104   87.0572 H   0  0  0  0  0  0  0  0  0  0  0  0
   15.2237   54.0963   87.6839 H   0  0  0  0  0  0  0  0  0  0  0  0
   11.7519   53.3397   87.7529 H   0  0  0  0  0  0  0  0  0  0  0  0
   10.6126   51.8100   86.1562 H   0  0  0  0  0  0  0  0  0  0  0  0
    9.3650   51.2636   83.7761 H   0  0  0  0  0  0  0  0  0  0  0  0
   11.7564   48.5868   81.6003 H   0  0  0  0  0  0  0  0  0  0  0  0
   13.9823   52.1015   83.4704 H   0  0  0  0  0  0  0  0  0  0  0  0
   15.1228   53.6285   85.0667 H   0  0  0  0  0  0  0  0  0  0  0  0
  1  2  1  0
  2  3  1  0
  2  4  1  0
  2  5  1  0
  5  6  1  0
  6  7  2  0
  6  8  1  0
  8  9  1  0
  9 10  1  0
 10 11  1  0
 10 12  1  0
 12 13  1  0
 13 14  1  0
 14 15  2  0
 14 16  1  0
 16 17  1  0
 17 18  1  0
 18 19  2  0
 19 20  1  0
 20 21  2  0
 21 22  1  0
 22 23  2  0
 23 24  1  0
 24 25  2  0
 25 26  1  0
 21 27  1  0
 27 28  2  0
 13  8  1  0
 28 18  1  0
 26 22  1  0
  1 29  1  0
  1 30  1  0
  1 31  1  0
  3 32  1  0
  3 33  1  0
  3 34  1  0
  4 35  1  0
  4 36  1  0
  4 37  1  0
  5 38  1  0
  5 39  1  0
  9 40  1  0
  9 41  1  0
 10 42  1  1
 11 43  1  0
 12 44  1  0
 12 45  1  0
 13 46  1  6
 16 47  1  0
 17 48  1  0
 17 49  1  0
 19 50  1  0
 20 51  1  0
 23 52  1  0
 25 53  1  0
 27 54  1  0
 28 55  1  0
M  END
>  <meeko>  (6) 
{"is_sidechain": [false], "free_energy": -5.976, "intermolecular_energy": -7.993, "internal_energy": -1.362}

$$$$
4w9c_ligand
     RDKit          3D

 55 57  0  0  0  0  0  0  0  0999 V2000
   12.4480   49.1590   87.8410 C   0  0  0  0  0  0  0  0  0  0  0  0
   12.6700   48.4670   86.4880 C   0  0  0  0  0  0  0  0  0  0  0  0
   13.8220   47.4560   86.6190 C   0  0  0  0  0  0  0  0  0  0  0  0
   11.3900   47.6910   86.1200 C   0  0  0  0  0  0  0  0  0  0  0  0
   12.9440   49.4980   85.3630 C   0  0  0  0  0  0  0  0  0  0  0  0
   11.6970   50.1620   84.7940 C   0  0  0  0  0  0  0  0  0  0  0  0
   11.1490   49.7030   83.7890 O   0  0  0  0  0  0  0  0  0  0  0  0
   11.1790   51.2650   85.4360 N   0  0  0  0  0  0  0  0  0  0  0  0
    9.9720   51.1390   86.2410 C   0  0  0  0  0  0  0  0  0  0  0  0
    9.2570   52.4750   86.0490 C   0  0  2  0  0  0  0  0  0  0  0  0
    8.5340   52.5040   84.8200 O   0  0  0  0  0  0  0  0  0  0  0  0
   10.4090   53.4630   85.9520 C   0  0  0  0  0  0  0  0  0  0  0  0
   11.4940   52.6860   85.1900 C   0  0  1  0  0  0  0  0  0  0  0  0
   12.8670   53.1050   85.7500 C   0  0  0  0  0  0  0  0  0  0  0  0
   13.8920   53.0370   85.0770 O   0  0  0  0  0  0  0  0  0  0  0  0
   12.8260   53.6580   87.0110 N   0  0  0  0  0  0  0  0  0  0  0  0
   13.9620   54.3170   87.6080 C   0  0  0  0  0  0  0  0  0  0  0  0
   13.8430   54.2960   89.1100 C   0  0  0  0  0  0  0  0  0  0  0  0
   12.7930   53.6190   89.7390 C   0  0  0  0  0  0  0  0  0  0  0  0
   12.6730   53.6310   91.1340 C   0  0  0  0  0  0  0  0  0  0  0  0
   13.5940   54.3260   91.9310 C   0  0  0  0  0  0  0  0  0  0  0  0
   13.4580   54.3350   93.3820 C   0  0  0  0  0  0  0  0  0  0  0  0
   13.0710   55.2550   94.3340 C   0  0  0  0  0  0  0  0  0  0  0  0
   13.1390   54.7050   95.5910 N   0  0  0  0  0  0  0  0  0  0  0  0
   13.5570   53.4820   95.3610 C   0  0  0  0  0  0  0  0  0  0  0  0
   13.7750   53.1800   94.0530 O   0  0  0  0  0  0  0  0  0  0  0  0
   14.6380   55.0100   91.2940 C   0  0  0  0  0  0  0  0  0  0  0  0
   14.7610   54.9980   89.9010 C   0  0  0  0  0  0  0  0  0  0  0  0
   12.6741   48.4542   88.6548 H   0  0  0  0  0  0  0  0  0  0  0  0
   13.1107   50.0336   87.9187 H   0  0  0  0  0  0  0  0  0  0  0  0
   11.4002   49.4848   87.9187 H   0  0  0  0  0  0  0  0  0  0  0  0
   14.0302   47.2733   87.6836 H   0  0  0  0  0  0  0  0  0  0  0  0
   13.5374   46.5108   86.1336 H   0  0  0  0  0  0  0  0  0  0  0  0
   14.7222   47.8609   86.1336 H   0  0  0  0  0  0  0  0  0  0  0  0
   10.8738   47.3781   87.0396 H   0  0  0  0  0  0  0  0  0  0  0  0
   10.7258   48.3386   85.5289 H   0  0  0  0  0  0  0  0  0  0  0  0
   11.6570   46.8026   85.5289 H   0  0  0  0  0  0  0  0  0  0  0  0
   13.5962   50.2847   85.7700 H   0  0  0  0  0  0  0  0  0  0  0  0
   13.4057   48.9404   84.5348 H   0  0  0  0  0  0  0  0  0  0  0  0
    9.3483   50.3069   85.8824 H   0  0  0  0  0  0  0  0  0  0  0  0
   10.1891   50.9236   87.2976 H   0  0  0  0  0  0  0  0  0  0  0  0
    8.5348   52.6807   86.8528 H   0  0  0  0  0  0  0  0  0  0  0  0
    8.9630   53.1530   84.2350 H   0  0  0  0  0  0  0  0  0  0  0  0
   10.1078   54.3630   85.3959 H   0  0  0  0  0  0  0  0  0  0  0  0
   10.7504   53.8168   86.9360 H   0  0  0  0  0  0  0  0  0  0  0  0
   11.5239   52.8813   84.1079 H   0  0  0  0  0  0  0  0  0  0  0  0
   11.9150   53.7870   87.4360 H   0  0  0  0  0  0  0  0  0  0  0  0
   14.8834   53.7960   87.3088 H   0  0  0  0  0  0  0  0  0  0  0  0
   13.9938   55.3614   87.2641 H   0  0  0  0  0  0  0  0  0  0  0  0
   12.0555   53.0727   89.1328 H   0  0  0  0  0  0  0  0  0  0  0  0
   11.8444   53.0875   91.6116 H   0  0  0  0  0  0  0  0  0  0  0  0
   12.7524   56.2852   94.1170 H   0  0  0  0  0  0  0  0  0  0  0  0
   13.7194   52.7533   96.1688 H   0  0  0  0  0  0  0  0  0  0  0  0
   15.3712   55.5643   91.8983 H   0  0  0  0  0  0  0  0  0  0  0  0
   15.5865   55.5451   89.4222 H   0  0  0  0  0  0  0  0  0  0  0  0
  1  2  1  0
  2  3  1  0
  2  4  1  0
  2  5  1  0
  5  6  1  0
  6  7  2  0
  6  8  1  0
  8  9  1  0
  9 10  1  0
 10 11  1  0
 10 12  1  0
 12 13  1  0
 13 14  1  0
 14 15  2  0
 14 16  1  0
 16 17  1  0
 17 18  1  0
 18 19  2  0
 19 20  1  0
 20 21  2  0
 21 22  1  0
 22 23  2  0
 23 24  1  0
 24 25  2  0
 25 26  1  0
 21 27  1  0
 27 28  2  0
 13  8  1  0
 28 18  1  0
 26 22  1  0
  1 29  1  0
  1 30  1  0
  1 31  1  0
  3 32  1  0
  3 33  1  0
  3 34  1  0
  4 35  1  0
  4 36  1  0
  4 37  1  0
  5 38  1  0
  5 39  1  0
  9 40  1  0
  9 41  1  0
 10 42  1  1
 11 43  1  0
 12 44  1  0
 12 45  1  0
 13 46  1  6
 16 47  1  0
 17 48  1  0
 17 49  1  0
 19 50  1  0
 20 51  1  0
 23 52  1  0
 25 53  1  0
 27 54  1  0
 28 55  1  0
M  END
>  <meeko>  (7) 
{"is_sidechain": [false], "free_energy": -5.885, "intermolecular_energy": -8.402, "internal_energy": -0.822}

$$$$
4w9c_ligand
     RDKit          3D

 55 57  0  0  0  0  0  0  0  0999 V2000
   11.7940   50.6970   85.6190 C   0  0  0  0  0  0  0  0  0  0  0  0
   12.4450   51.5550   84.5240 C   0  0  0  0  0  0  0  0  0  0  0  0
   13.2760   52.6720   85.1810 C   0  0  0  0  0  0  0  0  0  0  0  0
   13.4020   50.6630   83.7070 C   0  0  0  0  0  0  0  0  0  0  0  0
   11.3840   52.1330   83.5530 C   0  0  0  0  0  0  0  0  0  0  0  0
   10.1540   52.7200   84.2340 C   0  0  0  0  0  0  0  0  0  0  0  0
   10.2640   53.6760   85.0050 O   0  0  0  0  0  0  0  0  0  0  0  0
    8.9180   52.1800   83.9540 N   0  0  0  0  0  0  0  0  0  0  0  0
    8.7490   51.3160   82.7930 C   0  0  0  0  0  0  0  0  0  0  0  0
    7.3320   51.6210   82.3080 C   0  0  2  0  0  0  0  0  0  0  0  0
    7.2970   52.8150   81.5290 O   0  0  0  0  0  0  0  0  0  0  0  0
    6.5790   51.8720   83.6050 C   0  0  0  0  0  0  0  0  0  0  0  0
    7.6080   52.5900   84.4930 C   0  0  1  0  0  0  0  0  0  0  0  0
    7.3850   52.1360   85.9490 C   0  0  0  0  0  0  0  0  0  0  0  0
    6.9620   51.0150   86.2230 O   0  0  0  0  0  0  0  0  0  0  0  0
    7.8000   53.0410   86.9000 N   0  0  0  0  0  0  0  0  0  0  0  0
    7.8880   52.7100   88.3010 C   0  0  0  0  0  0  0  0  0  0  0  0
    9.2370   53.1060   88.8450 C   0  0  0  0  0  0  0  0  0  0  0  0
    9.3460   53.9750   89.9360 C   0  0  0  0  0  0  0  0  0  0  0  0
   10.6030   54.3610   90.4140 C   0  0  0  0  0  0  0  0  0  0  0  0
   11.7790   53.8960   89.8090 C   0  0  0  0  0  0  0  0  0  0  0  0
   13.0830   54.3060   90.3130 C   0  0  0  0  0  0  0  0  0  0  0  0
   13.6200   54.5950   91.5520 C   0  0  0  0  0  0  0  0  0  0  0  0
   14.9430   54.9420   91.4340 N   0  0  0  0  0  0  0  0  0  0  0  0
   15.1640   54.8500   90.1440 C   0  0  0  0  0  0  0  0  0  0  0  0
   14.0910   54.4740   89.3960 O   0  0  0  0  0  0  0  0  0  0  0  0
   11.6620   53.0320   88.7110 C   0  0  0  0  0  0  0  0  0  0  0  0
   10.4070   52.6440   88.2320 C   0  0  0  0  0  0  0  0  0  0  0  0
   12.0855   51.0812   86.6076 H   0  0  0  0  0  0  0  0  0  0  0  0
   10.6996   50.7405   85.5168 H   0  0  0  0  0  0  0  0  0  0  0  0
   12.1306   49.6548   85.5168 H   0  0  0  0  0  0  0  0  0  0  0  0
   13.2097   52.5829   86.2754 H   0  0  0  0  0  0  0  0  0  0  0  0
   14.3266   52.5795   84.8685 H   0  0  0  0  0  0  0  0  0  0  0  0
   12.8854   53.6517   84.8685 H   0  0  0  0  0  0  0  0  0  0  0  0
   14.0313   50.0764   84.3924 H   0  0  0  0  0  0  0  0  0  0  0  0
   12.8162   49.9812   83.0730 H   0  0  0  0  0  0  0  0  0  0  0  0
   14.0410   51.2952   83.0730 H   0  0  0  0  0  0  0  0  0  0  0  0
   11.8592   52.9275   82.9589 H   0  0  0  0  0  0  0  0  0  0  0  0
   11.0293   51.2904   82.9413 H   0  0  0  0  0  0  0  0  0  0  0  0
    9.4887   51.5569   82.0154 H   0  0  0  0  0  0  0  0  0  0  0  0
    8.8948   50.2523   83.0322 H   0  0  0  0  0  0  0  0  0  0  0  0
    6.9229   50.8148   81.6813 H   0  0  0  0  0  0  0  0  0  0  0  0
    7.0870   52.5670   80.6110 H   0  0  0  0  0  0  0  0  0  0  0  0
    5.6995   52.5092   83.4306 H   0  0  0  0  0  0  0  0  0  0  0  0
    6.1958   50.9469   84.0604 H   0  0  0  0  0  0  0  0  0  0  0  0
    7.5297   53.6872   84.4915 H   0  0  0  0  0  0  0  0  0  0  0  0
    8.2520   53.8880   86.5750 H   0  0  0  0  0  0  0  0  0  0  0  0
    7.1020   53.2476   88.8516 H   0  0  0  0  0  0  0  0  0  0  0  0
    7.7560   51.6247   88.4227 H   0  0  0  0  0  0  0  0  0  0  0  0
    8.4363   54.3578   90.4218 H   0  0  0  0  0  0  0  0  0  0  0  0
   10.6695   55.0394   91.2773 H   0  0  0  0  0  0  0  0  0  0  0  0
   13.0652   54.5530   92.5009 H   0  0  0  0  0  0  0  0  0  0  0  0
   16.1472   55.0618   89.6985 H   0  0  0  0  0  0  0  0  0  0  0  0
   12.5705   52.6540   88.2194 H   0  0  0  0  0  0  0  0  0  0  0  0
   10.3388   51.9696   87.3656 H   0  0  0  0  0  0  0  0  0  0  0  0
  1  2  1  0
  2  3  1  0
  2  4  1  0
  2  5  1  0
  5  6  1  0
  6  7  2  0
  6  8  1  0
  8  9  1  0
  9 10  1  0
 10 11  1  0
 10 12  1  0
 12 13  1  0
 13 14  1  0
 14 15  2  0
 14 16  1  0
 16 17  1  0
 17 18  1  0
 18 19  2  0
 19 20  1  0
 20 21  2  0
 21 22  1  0
 22 23  2  0
 23 24  1  0
 24 25  2  0
 25 26  1  0
 21 27  1  0
 27 28  2  0
 13  8  1  0
 28 18  1  0
 26 22  1  0
  1 29  1  0
  1 30  1  0
  1 31  1  0
  3 32  1  0
  3 33  1  0
  3 34  1  0
  4 35  1  0
  4 36  1  0
  4 37  1  0
  5 38  1  0
  5 39  1  0
  9 40  1  0
  9 41  1  0
 10 42  1  6
 11 43  1  0
 12 44  1  0
 12 45  1  0
 13 46  1  1
 16 47  1  0
 17 48  1  0
 17 49  1  0
 19 50  1  0
 20 51  1  0
 23 52  1  0
 25 53  1  0
 27 54  1  0
 28 55  1  0
M  END
>  <meeko>  (8) 
{"is_sidechain": [false], "free_energy": -5.815, "intermolecular_energy": -7.669, "internal_energy": -1.454}

$$$$
4w9c_ligand
     RDKit          3D

 55 57  0  0  0  0  0  0  0  0999 V2000
   13.8890   52.8280   94.3520 C   0  0  0  0  0  0  0  0  0  0  0  0
   13.2220   53.8770   93.4500 C   0  0  0  0  0  0  0  0  0  0  0  0
   12.7730   55.0720   94.3100 C   0  0  0  0  0  0  0  0  0  0  0  0
   14.2660   54.3840   92.4340 C   0  0  0  0  0  0  0  0  0  0  0  0
   12.0370   53.2700   92.6570 C   0  0  0  0  0  0  0  0  0  0  0  0
   11.5460   51.9260   93.1800 C   0  0  0  0  0  0  0  0  0  0  0  0
   10.7050   51.8760   94.0790 O   0  0  0  0  0  0  0  0  0  0  0  0
   12.0410   50.7720   92.6130 N   0  0  0  0  0  0  0  0  0  0  0  0
   12.1160   49.5490   93.4010 C   0  0  0  0  0  0  0  0  0  0  0  0
   13.3710   48.8500   92.8810 C   0  0  2  0  0  0  0  0  0  0  0  0
   14.5500   49.3990   93.4680 O   0  0  0  0  0  0  0  0  0  0  0  0
   13.3630   49.2000   91.4010 C   0  0  0  0  0  0  0  0  0  0  0  0
   12.8200   50.6370   91.3670 C   0  0  1  0  0  0  0  0  0  0  0  0
   11.9620   50.7960   90.0980 C   0  0  0  0  0  0  0  0  0  0  0  0
   11.0220   50.0440   89.8500 O   0  0  0  0  0  0  0  0  0  0  0  0
   12.2660   51.9030   89.3370 N   0  0  0  0  0  0  0  0  0  0  0  0
   11.4340   52.3480   88.2460 C   0  0  0  0  0  0  0  0  0  0  0  0
   12.1010   52.0480   86.9280 C   0  0  0  0  0  0  0  0  0  0  0  0
   12.0250   50.7720   86.3590 C   0  0  0  0  0  0  0  0  0  0  0  0
   12.6740   50.4930   85.1500 C   0  0  0  0  0  0  0  0  0  0  0  0
   13.4190   51.4790   84.4870 C   0  0  0  0  0  0  0  0  0  0  0  0
   14.0920   51.1780   83.2300 C   0  0  0  0  0  0  0  0  0  0  0  0
   15.3730   51.3140   82.7370 C   0  0  0  0  0  0  0  0  0  0  0  0
   15.4430   50.8520   81.4450 N   0  0  0  0  0  0  0  0  0  0  0  0
   14.2170   50.4530   81.2030 C   0  0  0  0  0  0  0  0  0  0  0  0
   13.3390   50.6170   82.2290 O   0  0  0  0  0  0  0  0  0  0  0  0
   13.4970   52.7530   85.0670 C   0  0  0  0  0  0  0  0  0  0  0  0
   12.8490   53.0340   86.2740 C   0  0  0  0  0  0  0  0  0  0  0  0
   13.7214   53.0915   95.4067 H   0  0  0  0  0  0  0  0  0  0  0  0
   13.4537   51.8387   94.1476 H   0  0  0  0  0  0  0  0  0  0  0  0
   14.9695   52.8025   94.1476 H   0  0  0  0  0  0  0  0  0  0  0  0
   12.8698   54.8142   95.3750 H   0  0  0  0  0  0  0  0  0  0  0  0
   13.4049   55.9438   94.0848 H   0  0  0  0  0  0  0  0  0  0  0  0
   11.7234   55.3120   94.0848 H   0  0  0  0  0  0  0  0  0  0  0  0
   15.1287   54.8029   92.9728 H   0  0  0  0  0  0  0  0  0  0  0  0
   14.5993   53.5474   91.8023 H   0  0  0  0  0  0  0  0  0  0  0  0
   13.8146   55.1632   91.8023 H   0  0  0  0  0  0  0  0  0  0  0  0
   11.1982   53.9806   92.6961 H   0  0  0  0  0  0  0  0  0  0  0  0
   12.4042   53.0917   91.6355 H   0  0  0  0  0  0  0  0  0  0  0  0
   12.2124   49.7795   94.4723 H   0  0  0  0  0  0  0  0  0  0  0  0
   11.2140   48.9269   93.3036 H   0  0  0  0  0  0  0  0  0  0  0  0
   13.3715   47.7727   93.1034 H   0  0  0  0  0  0  0  0  0  0  0  0
   15.0050   48.6860   93.9500 H   0  0  0  0  0  0  0  0  0  0  0  0
   14.3792   49.1551   90.9822 H   0  0  0  0  0  0  0  0  0  0  0  0
   12.7586   48.5027   90.8023 H   0  0  0  0  0  0  0  0  0  0  0  0
   13.5925   51.4188   91.3221 H   0  0  0  0  0  0  0  0  0  0  0  0
   12.9760   52.5340   89.6910 H   0  0  0  0  0  0  0  0  0  0  0  0
   10.4664   51.8267   88.2907 H   0  0  0  0  0  0  0  0  0  0  0  0
   11.2795   53.4337   88.3316 H   0  0  0  0  0  0  0  0  0  0  0  0
   11.4510   49.9819   86.8653 H   0  0  0  0  0  0  0  0  0  0  0  0
   12.5984   49.4859   84.7140 H   0  0  0  0  0  0  0  0  0  0  0  0
   16.2200   51.7336   83.2995 H   0  0  0  0  0  0  0  0  0  0  0  0
   13.9198   50.0164   80.2381 H   0  0  0  0  0  0  0  0  0  0  0  0
   14.0760   53.5426   84.5657 H   0  0  0  0  0  0  0  0  0  0  0  0
   12.9278   54.0393   86.7136 H   0  0  0  0  0  0  0  0  0  0  0  0
  1  2  1  0
  2  3  1  0
  2  4  1  0
  2  5  1  0
  5  6  1  0
  6  7  2  0
  6  8  1  0
  8  9  1  0
  9 10  1  0
 10 11  1  0
 10 12  1  0
 12 13  1  0
 13 14  1  0
 14 15  2  0
 14 16  1  0
 16 17  1  0
 17 18  1  0
 18 19  2  0
 19 20  1  0
 20 21  2  0
 21 22  1  0
 22 23  2  0
 23 24  1  0
 24 25  2  0
 25 26  1  0
 21 27  1  0
 27 28  2  0
 13  8  1  0
 28 18  1  0
 26 22  1  0
  1 29  1  0
  1 30  1  0
  1 31  1  0
  3 32  1  0
  3 33  1  0
  3 34  1  0
  4 35  1  0
  4 36  1  0
  4 37  1  0
  5 38  1  0
  5 39  1  0
  9 40  1  0
  9 41  1  0
 10 42  1  6
 11 43  1  0
 12 44  1  0
 12 45  1  0
 13 46  1  1
 16 47  1  0
 17 48  1  0
 17 49  1  0
 19 50  1  0
 20 51  1  0
 23 52  1  0
 25 53  1  0
 27 54  1  0
 28 55  1  0
M  END
>  <meeko>  (9) 
{"is_sidechain": [false], "free_energy": -5.726, "intermolecular_energy": -8.108, "internal_energy": -0.887}

$$$$
