2qbq_ligand
     RDKit          3D

 57 59  0  0  0  0  0  0  0  0999 V2000
   49.7230    7.2470   -1.5080 C   0  0  0  0  0  0  0  0  0  0  0  0
   49.0480    7.8950   -0.2770 C   0  0  0  0  0  0  0  0  0  0  0  0
   49.7800    9.2240   -0.0230 C   0  0  0  0  0  0  0  0  0  0  0  0
   47.5610    8.1440   -0.6100 C   0  0  0  0  0  0  0  0  0  0  0  0
   46.7100    8.5300    0.6100 C   0  0  0  0  0  0  0  0  0  0  0  0
   45.3150    8.6760    0.1490 N   0  0  0  0  0  0  0  0  0  0  0  0
   44.9820    9.9740   -0.2930 C   0  0  0  0  0  0  0  0  0  0  0  0
   44.5650   10.2070   -1.6070 C   0  0  0  0  0  0  0  0  0  0  0  0
   44.2930   11.5030   -2.0500 C   0  0  0  0  0  0  0  0  0  0  0  0
   44.4550   12.5840   -1.1830 C   0  0  0  0  0  0  0  0  0  0  0  0
   44.8790   12.3770    0.1340 C   0  0  0  0  0  0  0  0  0  0  0  0
   45.1090   13.4980    1.0470 C   0  0  0  0  0  0  0  0  0  0  0  0
   44.2730   14.9720    0.8030 S   0  0  0  0  0  0  0  0  0  0  0  0
   44.9880   15.7070    2.1870 C   0  0  0  0  0  0  0  0  0  0  0  0
   44.6870   17.2260    2.5540 C   0  0  0  0  0  0  0  0  0  0  0  0
   44.4260   17.5300    3.7580 O   0  0  0  0  0  0  0  0  0  0  0  0
   44.7340   18.0580    1.5880 O   0  0  0  0  0  0  0  0  0  0  0  0
   45.8020   14.8130    2.8600 C   0  0  0  0  0  0  0  0  0  0  0  0
   46.4890   15.0950    3.9960 O   0  0  0  0  0  0  0  0  0  0  0  0
   47.6500   15.9160    3.7270 C   0  0  0  0  0  0  0  0  0  0  0  0
   47.8100   17.0370    4.7770 C   0  0  0  0  0  0  0  0  0  0  0  0
   46.8480   17.1900    5.5920 O   0  0  0  0  0  0  0  0  0  0  0  0
   48.9180   17.6590    4.7610 O   0  0  0  0  0  0  0  0  0  0  0  0
   45.9260   13.5820    2.1540 C   0  0  0  0  0  0  0  0  0  0  0  0
   47.1330   12.2180    2.7030 Br  0  0  0  0  0  0  0  0  0  0  0  0
   45.1250   11.0660    0.5720 C   0  0  0  0  0  0  0  0  0  0  0  0
   46.8170    7.4430    1.6930 C   0  0  0  0  0  0  0  0  0  0  0  0
   48.2650    7.1570    2.1430 C   0  0  0  0  0  0  0  0  0  0  0  0
   48.2640    5.8720    3.0040 C   0  0  0  0  0  0  0  0  0  0  0  0
   48.7880    8.2910    3.0450 C   0  0  0  0  0  0  0  0  0  0  0  0
   49.1800    6.9140    0.9150 C   0  0  0  0  0  0  0  0  0  0  0  0
   50.4787    6.5216   -1.1723 H   0  0  0  0  0  0  0  0  0  0  0  0
   48.9633    6.7313   -2.1137 H   0  0  0  0  0  0  0  0  0  0  0  0
   50.2073    8.0271   -2.1137 H   0  0  0  0  0  0  0  0  0  0  0  0
   49.8719    9.3908    1.0604 H   0  0  0  0  0  0  0  0  0  0  0  0
   50.7825    9.1825   -0.4739 H   0  0  0  0  0  0  0  0  0  0  0  0
   49.2091   10.0491   -0.4739 H   0  0  0  0  0  0  0  0  0  0  0  0
   47.5020    8.9591   -1.3463 H   0  0  0  0  0  0  0  0  0  0  0  0
   47.1559    7.1976   -0.9975 H   0  0  0  0  0  0  0  0  0  0  0  0
   47.0632    9.4735    1.0516 H   0  0  0  0  0  0  0  0  0  0  0  0
   44.6640    8.3970    0.8850 H   0  0  0  0  0  0  0  0  0  0  0  0
   44.4499    9.3601   -2.2994 H   0  0  0  0  0  0  0  0  0  0  0  0
   43.9512   11.6715   -3.0819 H   0  0  0  0  0  0  0  0  0  0  0  0
   44.2482   13.6048   -1.5370 H   0  0  0  0  0  0  0  0  0  0  0  0
   48.5479   15.2807    3.7436 H   0  0  0  0  0  0  0  0  0  0  0  0
   47.5183   16.3850    2.7408 H   0  0  0  0  0  0  0  0  0  0  0  0
   45.4356   10.8935    1.6131 H   0  0  0  0  0  0  0  0  0  0  0  0
   46.2385    7.7684    2.5702 H   0  0  0  0  0  0  0  0  0  0  0  0
   46.4266    6.5127    1.2547 H   0  0  0  0  0  0  0  0  0  0  0  0
   48.2642    6.1447    4.0697 H   0  0  0  0  0  0  0  0  0  0  0  0
   47.3654    5.2794    2.7773 H   0  0  0  0  0  0  0  0  0  0  0  0
   49.1617    5.2780    2.7773 H   0  0  0  0  0  0  0  0  0  0  0  0
   48.6582    8.0095    4.1004 H   0  0  0  0  0  0  0  0  0  0  0  0
   49.8552    8.4605    2.8393 H   0  0  0  0  0  0  0  0  0  0  0  0
   48.2241    9.2128    2.8393 H   0  0  0  0  0  0  0  0  0  0  0  0
   50.2217    6.9588    1.2655 H   0  0  0  0  0  0  0  0  0  0  0  0
   48.8615    5.9402    0.5148 H   0  0  0  0  0  0  0  0  0  0  0  0
  1  2  1  0
  2  3  1  0
  2  4  1  0
  4  5  1  0
  5  6  1  0
  6  7  1  0
  7  8  2  0
  8  9  1  0
  9 10  2  0
 10 11  1  0
 11 12  1  0
 12 13  1  0
 13 14  1  0
 14 15  1  0
 15 16  2  0
 15 17  1  0
 14 18  2  0
 18 19  1  0
 19 20  1  0
 20 21  1  0
 21 22  2  0
 21 23  1  0
 18 24  1  0
 24 25  1  0
 11 26  2  0
  5 27  1  0
 27 28  1  0
 28 29  1  0
 28 30  1  0
 28 31  1  0
 31  2  1  0
 26  7  1  0
 24 12  2  0
  1 32  1  0
  1 33  1  0
  1 34  1  0
  3 35  1  0
  3 36  1  0
  3 37  1  0
  4 38  1  0
  4 39  1  0
  5 40  1  0
  6 41  1  0
  8 42  1  0
  9 43  1  0
 10 44  1  0
 20 45  1  0
 20 46  1  0
 26 47  1  0
 27 48  1  0
 27 49  1  0
 29 50  1  0
 29 51  1  0
 29 52  1  0
 30 53  1  0
 30 54  1  0
 30 55  1  0
 31 56  1  0
 31 57  1  0
M  CHG  2  17  -1  23  -1
M  END
>  <meeko>  (1) 
{"is_sidechain": [false], "free_energy": -8.352, "intermolecular_energy": -11.769, "internal_energy": -0.779}

$$$$
2qbq_ligand
     RDKit          3D

 57 59  0  0  0  0  0  0  0  0999 V2000
   48.2070    7.5050    3.3070 C   0  0  0  0  0  0  0  0  0  0  0  0
   47.9820    7.5760    1.7790 C   0  0  0  0  0  0  0  0  0  0  0  0
   48.2270    6.1590    1.2310 C   0  0  0  0  0  0  0  0  0  0  0  0
   46.5260    8.0190    1.5200 C   0  0  0  0  0  0  0  0  0  0  0  0
   46.2440    8.3950    0.0570 C   0  0  0  0  0  0  0  0  0  0  0  0
   44.8420    8.8490   -0.0230 N   0  0  0  0  0  0  0  0  0  0  0  0
   44.6890   10.1950   -0.4180 C   0  0  0  0  0  0  0  0  0  0  0  0
   44.4250   10.5330   -1.7490 C   0  0  0  0  0  0  0  0  0  0  0  0
   44.3330   11.8700   -2.1410 C   0  0  0  0  0  0  0  0  0  0  0  0
   44.5240   12.8860   -1.2040 C   0  0  0  0  0  0  0  0  0  0  0  0
   44.7970   12.5720    0.1320 C   0  0  0  0  0  0  0  0  0  0  0  0
   45.0560   13.6180    1.1230 C   0  0  0  0  0  0  0  0  0  0  0  0
   44.1640   15.0780    1.0640 S   0  0  0  0  0  0  0  0  0  0  0  0
   44.9480   15.7160    2.4590 C   0  0  0  0  0  0  0  0  0  0  0  0
   44.6290   17.1860    2.9770 C   0  0  0  0  0  0  0  0  0  0  0  0
   44.3960   17.3690    4.2110 O   0  0  0  0  0  0  0  0  0  0  0  0
   44.6330   18.1070    2.0940 O   0  0  0  0  0  0  0  0  0  0  0  0
   45.8300   14.7960    2.9970 C   0  0  0  0  0  0  0  0  0  0  0  0
   46.5840   15.0020    4.1070 O   0  0  0  0  0  0  0  0  0  0  0  0
   47.7230   15.8490    3.8280 C   0  0  0  0  0  0  0  0  0  0  0  0
   47.8210   17.0200    4.8310 C   0  0  0  0  0  0  0  0  0  0  0  0
   46.8570   17.1480    5.6470 O   0  0  0  0  0  0  0  0  0  0  0  0
   48.8890   17.7080    4.7790 O   0  0  0  0  0  0  0  0  0  0  0  0
   45.9430   13.6340    2.1790 C   0  0  0  0  0  0  0  0  0  0  0  0
   47.2220   12.2710    2.5280 Br  0  0  0  0  0  0  0  0  0  0  0  0
   44.8630   11.2240    0.5160 C   0  0  0  0  0  0  0  0  0  0  0  0
   47.2050    9.5060   -0.3970 C   0  0  0  0  0  0  0  0  0  0  0  0
   48.6960    9.1410   -0.2350 C   0  0  0  0  0  0  0  0  0  0  0  0
   49.5380   10.4200   -0.4480 C   0  0  0  0  0  0  0  0  0  0  0  0
   49.1320    8.1410   -1.3230 C   0  0  0  0  0  0  0  0  0  0  0  0
   48.9760    8.6120    1.1950 C   0  0  0  0  0  0  0  0  0  0  0  0
   47.2829    7.7966    3.8276 H   0  0  0  0  0  0  0  0  0  0  0  0
   48.4788    6.4774    3.5902 H   0  0  0  0  0  0  0  0  0  0  0  0
   49.0194    8.1905    3.5902 H   0  0  0  0  0  0  0  0  0  0  0  0
   48.3483    5.4575    2.0695 H   0  0  0  0  0  0  0  0  0  0  0  0
   47.3689    5.8503    0.6159 H   0  0  0  0  0  0  0  0  0  0  0  0
   49.1389    6.1564    0.6159 H   0  0  0  0  0  0  0  0  0  0  0  0
   45.8567    7.1926    1.8011 H   0  0  0  0  0  0  0  0  0  0  0  0
   46.3538    8.9231    2.1225 H   0  0  0  0  0  0  0  0  0  0  0  0
   46.3995    7.5310   -0.6058 H   0  0  0  0  0  0  0  0  0  0  0  0
   44.3690    8.7090    0.8720 H   0  0  0  0  0  0  0  0  0  0  0  0
   44.2883    9.7367   -2.4955 H   0  0  0  0  0  0  0  0  0  0  0  0
   44.1100   12.1222   -3.1882 H   0  0  0  0  0  0  0  0  0  0  0  0
   44.4597   13.9386   -1.5169 H   0  0  0  0  0  0  0  0  0  0  0  0
   48.6406   15.2459    3.8928 H   0  0  0  0  0  0  0  0  0  0  0  0
   47.5996   16.2698    2.8192 H   0  0  0  0  0  0  0  0  0  0  0  0
   45.0548   10.9710    1.5692 H   0  0  0  0  0  0  0  0  0  0  0  0
   47.0129    9.7188   -1.4590 H   0  0  0  0  0  0  0  0  0  0  0  0
   47.0156   10.3778    0.2466 H   0  0  0  0  0  0  0  0  0  0  0  0
   49.8163   10.8427    0.5287 H   0  0  0  0  0  0  0  0  0  0  0  0
   50.4486   10.1698   -1.0121 H   0  0  0  0  0  0  0  0  0  0  0  0
   48.9482   11.1575   -1.0121 H   0  0  0  0  0  0  0  0  0  0  0  0
   49.5285    7.2317   -0.8476 H   0  0  0  0  0  0  0  0  0  0  0  0
   48.2661    7.8797   -1.9491 H   0  0  0  0  0  0  0  0  0  0  0  0
   49.9127    8.5976   -1.9491 H   0  0  0  0  0  0  0  0  0  0  0  0
   49.9718    8.1447    1.1850 H   0  0  0  0  0  0  0  0  0  0  0  0
   48.8783    9.4937    1.8455 H   0  0  0  0  0  0  0  0  0  0  0  0
  1  2  1  0
  2  3  1  0
  2  4  1  0
  4  5  1  0
  5  6  1  0
  6  7  1  0
  7  8  2  0
  8  9  1  0
  9 10  2  0
 10 11  1  0
 11 12  1  0
 12 13  1  0
 13 14  1  0
 14 15  1  0
 15 16  2  0
 15 17  1  0
 14 18  2  0
 18 19  1  0
 19 20  1  0
 20 21  1  0
 21 22  2  0
 21 23  1  0
 18 24  1  0
 24 25  1  0
 11 26  2  0
  5 27  1  0
 27 28  1  0
 28 29  1  0
 28 30  1  0
 28 31  1  0
 31  2  1  0
 26  7  1  0
 24 12  2  0
  1 32  1  0
  1 33  1  0
  1 34  1  0
  3 35  1  0
  3 36  1  0
  3 37  1  0
  4 38  1  0
  4 39  1  0
  5 40  1  0
  6 41  1  0
  8 42  1  0
  9 43  1  0
 10 44  1  0
 20 45  1  0
 20 46  1  0
 26 47  1  0
 27 48  1  0
 27 49  1  0
 29 50  1  0
 29 51  1  0
 29 52  1  0
 30 53  1  0
 30 54  1  0
 30 55  1  0
 31 56  1  0
 31 57  1  0
M  CHG  2  17  -1  23  -1
M  END
>  <meeko>  (2) 
{"is_sidechain": [false], "free_energy": -8.189, "intermolecular_energy": -11.813, "internal_energy": -0.506}

$$$$
2qbq_ligand
     RDKit          3D

 57 59  0  0  0  0  0  0  0  0999 V2000
   40.6010   14.3980   -3.3920 C   0  0  0  0  0  0  0  0  0  0  0  0
   41.1330   13.0930   -4.0280 C   0  0  0  0  0  0  0  0  0  0  0  0
   41.0320   13.2730   -5.5530 C   0  0  0  0  0  0  0  0  0  0  0  0
   42.6030   12.9030   -3.5950 C   0  0  0  0  0  0  0  0  0  0  0  0
   43.1720   11.5150   -3.9290 C   0  0  0  0  0  0  0  0  0  0  0  0
   44.5520   11.4640   -3.4070 N   0  0  0  0  0  0  0  0  0  0  0  0
   44.6380   11.2660   -2.0120 C   0  0  0  0  0  0  0  0  0  0  0  0
   44.3960   10.0120   -1.4430 C   0  0  0  0  0  0  0  0  0  0  0  0
   44.4280    9.8410   -0.0570 C   0  0  0  0  0  0  0  0  0  0  0  0
   44.6850   10.9300    0.7750 C   0  0  0  0  0  0  0  0  0  0  0  0
   44.9230   12.1960    0.2280 C   0  0  0  0  0  0  0  0  0  0  0  0
   45.1410   13.3660    1.0800 C   0  0  0  0  0  0  0  0  0  0  0  0
   44.3090   14.8240    0.7430 S   0  0  0  0  0  0  0  0  0  0  0  0
   45.0050   15.6360    2.0940 C   0  0  0  0  0  0  0  0  0  0  0  0
   44.6990   17.1730    2.3710 C   0  0  0  0  0  0  0  0  0  0  0  0
   44.4130   17.5420    3.5510 O   0  0  0  0  0  0  0  0  0  0  0  0
   44.7680   17.9510    1.3620 O   0  0  0  0  0  0  0  0  0  0  0  0
   45.8090   14.7820    2.8260 C   0  0  0  0  0  0  0  0  0  0  0  0
   46.4820   15.1260    3.9530 O   0  0  0  0  0  0  0  0  0  0  0  0
   47.6090   15.9850    3.6600 C   0  0  0  0  0  0  0  0  0  0  0  0
   47.8030   17.0620    4.7510 C   0  0  0  0  0  0  0  0  0  0  0  0
   48.9070   17.6880    4.7370 O   0  0  0  0  0  0  0  0  0  0  0  0
   46.8120   17.2560    5.5220 O   0  0  0  0  0  0  0  0  0  0  0  0
   45.9430   13.5130    2.1910 C   0  0  0  0  0  0  0  0  0  0  0  0
   47.1420   12.1820    2.8320 Br  0  0  0  0  0  0  0  0  0  0  0  0
   44.9120   12.3480   -1.1670 C   0  0  0  0  0  0  0  0  0  0  0  0
   42.3040   10.4210   -3.2850 C   0  0  0  0  0  0  0  0  0  0  0  0
   40.8190   10.4840   -3.7000 C   0  0  0  0  0  0  0  0  0  0  0  0
   40.0140    9.5340   -2.7820 C   0  0  0  0  0  0  0  0  0  0  0  0
   40.6340    9.9670   -5.1390 C   0  0  0  0  0  0  0  0  0  0  0  0
   40.2610   11.9180   -3.5160 C   0  0  0  0  0  0  0  0  0  0  0  0
   40.6359   14.3124   -2.2959 H   0  0  0  0  0  0  0  0  0  0  0  0
   41.2260   15.2441   -3.7138 H   0  0  0  0  0  0  0  0  0  0  0  0
   39.5626   14.5660   -3.7138 H   0  0  0  0  0  0  0  0  0  0  0  0
   40.5050   14.2122   -5.7773 H   0  0  0  0  0  0  0  0  0  0  0  0
   42.0427   13.3072   -5.9859 H   0  0  0  0  0  0  0  0  0  0  0  0
   40.4761   12.4283   -5.9859 H   0  0  0  0  0  0  0  0  0  0  0  0
   43.2157   13.6611   -4.1047 H   0  0  0  0  0  0  0  0  0  0  0  0
   42.6311   13.0065   -2.5002 H   0  0  0  0  0  0  0  0  0  0  0  0
   43.1719   11.3424   -5.0154 H   0  0  0  0  0  0  0  0  0  0  0  0
   45.0600   12.3140   -3.6550 H   0  0  0  0  0  0  0  0  0  0  0  0
   44.1783    9.1518   -2.0931 H   0  0  0  0  0  0  0  0  0  0  0  0
   44.2503    8.8466    0.3784 H   0  0  0  0  0  0  0  0  0  0  0  0
   44.7008   10.7934    1.8664 H   0  0  0  0  0  0  0  0  0  0  0  0
   48.5195   15.3708    3.5990 H   0  0  0  0  0  0  0  0  0  0  0  0
   47.4137   16.4945    2.7049 H   0  0  0  0  0  0  0  0  0  0  0  0
   45.1225   13.3351   -1.6044 H   0  0  0  0  0  0  0  0  0  0  0  0
   42.7058    9.4403   -3.5797 H   0  0  0  0  0  0  0  0  0  0  0  0
   42.3411   10.5796   -2.1971 H   0  0  0  0  0  0  0  0  0  0  0  0
   40.2211    9.7784   -1.7297 H   0  0  0  0  0  0  0  0  0  0  0  0
   38.9391    9.6547   -2.9818 H   0  0  0  0  0  0  0  0  0  0  0  0
   40.3095    8.4934   -2.9818 H   0  0  0  0  0  0  0  0  0  0  0  0
   40.2635    8.9316   -5.1118 H   0  0  0  0  0  0  0  0  0  0  0  0
   39.9075   10.6027   -5.6664 H   0  0  0  0  0  0  0  0  0  0  0  0
   41.5988    9.9975   -5.6664 H   0  0  0  0  0  0  0  0  0  0  0  0
   39.2973   11.9675   -4.0441 H   0  0  0  0  0  0  0  0  0  0  0  0
   40.2065   12.0614   -2.4268 H   0  0  0  0  0  0  0  0  0  0  0  0
  1  2  1  0
  2  3  1  0
  2  4  1  0
  4  5  1  0
  5  6  1  0
  6  7  1  0
  7  8  2  0
  8  9  1  0
  9 10  2  0
 10 11  1  0
 11 12  1  0
 12 13  1  0
 13 14  1  0
 14 15  1  0
 15 16  2  0
 15 17  1  0
 14 18  2  0
 18 19  1  0
 19 20  1  0
 20 21  1  0
 21 22  2  0
 21 23  1  0
 18 24  1  0
 24 25  1  0
 11 26  2  0
  5 27  1  0
 27 28  1  0
 28 29  1  0
 28 30  1  0
 28 31  1  0
 31  2  1  0
 26  7  1  0
 24 12  2  0
  1 32  1  0
  1 33  1  0
  1 34  1  0
  3 35  1  0
  3 36  1  0
  3 37  1  0
  4 38  1  0
  4 39  1  0
  5 40  1  0
  6 41  1  0
  8 42  1  0
  9 43  1  0
 10 44  1  0
 20 45  1  0
 20 46  1  0
 26 47  1  0
 27 48  1  0
 27 49  1  0
 29 50  1  0
 29 51  1  0
 29 52  1  0
 30 53  1  0
 30 54  1  0
 30 55  1  0
 31 56  1  0
 31 57  1  0
M  CHG  2  17  -1  23  -1
M  END
>  <meeko>  (3) 
{"is_sidechain": [false], "free_energy": -8.186, "intermolecular_energy": -12.044, "internal_energy": -0.272}

$$$$
2qbq_ligand
     RDKit          3D

 57 59  0  0  0  0  0  0  0  0999 V2000
   45.2910   18.0670   -3.9560 C   0  0  0  0  0  0  0  0  0  0  0  0
   44.6150   16.8030   -3.3800 C   0  0  0  0  0  0  0  0  0  0  0  0
   45.5780   15.6300   -3.6410 C   0  0  0  0  0  0  0  0  0  0  0  0
   44.4020   17.0100   -1.8650 C   0  0  0  0  0  0  0  0  0  0  0  0
   43.4960   15.9510   -1.2170 C   0  0  0  0  0  0  0  0  0  0  0  0
   43.3400   16.3120    0.2060 N   0  0  0  0  0  0  0  0  0  0  0  0
   44.2580   15.6790    1.0710 C   0  0  0  0  0  0  0  0  0  0  0  0
   44.9000   16.3880    2.0900 C   0  0  0  0  0  0  0  0  0  0  0  0
   45.8490   15.7660    2.9030 C   0  0  0  0  0  0  0  0  0  0  0  0
   46.1800   14.4270    2.6900 C   0  0  0  0  0  0  0  0  0  0  0  0
   45.5560   13.6990    1.6710 C   0  0  0  0  0  0  0  0  0  0  0  0
   45.9230   12.3100    1.3920 C   0  0  0  0  0  0  0  0  0  0  0  0
   46.9340   11.4660    2.4860 S   0  0  0  0  0  0  0  0  0  0  0  0
   46.8720   10.0140    1.5610 C   0  0  0  0  0  0  0  0  0  0  0  0
   47.7080    8.7320    1.9940 C   0  0  0  0  0  0  0  0  0  0  0  0
   47.1510    7.5920    1.9590 O   0  0  0  0  0  0  0  0  0  0  0  0
   48.9150    8.9410    2.3510 O   0  0  0  0  0  0  0  0  0  0  0  0
   46.0370   10.1580    0.4660 C   0  0  0  0  0  0  0  0  0  0  0  0
   45.7750    9.1840   -0.4410 O   0  0  0  0  0  0  0  0  0  0  0  0
   44.5240    8.5140   -0.1570 C   0  0  0  0  0  0  0  0  0  0  0  0
   43.6950    8.2870   -1.4410 C   0  0  0  0  0  0  0  0  0  0  0  0
   44.2120    8.6950   -2.5270 O   0  0  0  0  0  0  0  0  0  0  0  0
   42.6000    7.6610   -1.2910 O   0  0  0  0  0  0  0  0  0  0  0  0
   45.5670   11.4970    0.3360 C   0  0  0  0  0  0  0  0  0  0  0  0
   44.5670   12.0760   -1.1740 Br  0  0  0  0  0  0  0  0  0  0  0  0
   44.5860   14.3310    0.8780 C   0  0  0  0  0  0  0  0  0  0  0  0
   42.1320   15.9180   -1.9250 C   0  0  0  0  0  0  0  0  0  0  0  0
   42.2280   15.6570   -3.4430 C   0  0  0  0  0  0  0  0  0  0  0  0
   40.8430   15.9300   -4.0750 C   0  0  0  0  0  0  0  0  0  0  0  0
   42.5540   14.1770   -3.7200 C   0  0  0  0  0  0  0  0  0  0  0  0
   43.2540   16.6160   -4.0980 C   0  0  0  0  0  0  0  0  0  0  0  0
   45.6338   18.7080   -3.1304 H   0  0  0  0  0  0  0  0  0  0  0  0
   46.1523   17.7730   -4.5739 H   0  0  0  0  0  0  0  0  0  0  0  0
   44.5683   18.6201   -4.5739 H   0  0  0  0  0  0  0  0  0  0  0  0
   45.9188   15.2149   -2.6811 H   0  0  0  0  0  0  0  0  0  0  0  0
   45.0574   14.8487   -4.2142 H   0  0  0  0  0  0  0  0  0  0  0  0
   46.4457   15.9885   -4.2142 H   0  0  0  0  0  0  0  0  0  0  0  0
   45.3833   16.9777   -1.3690 H   0  0  0  0  0  0  0  0  0  0  0  0
   43.9002   17.9810   -1.7411 H   0  0  0  0  0  0  0  0  0  0  0  0
   43.9396   14.9484   -1.3068 H   0  0  0  0  0  0  0  0  0  0  0  0
   42.3900   16.1120    0.5240 H   0  0  0  0  0  0  0  0  0  0  0  0
   44.6548   17.4478    2.2531 H   0  0  0  0  0  0  0  0  0  0  0  0
   46.3359   16.3311    3.7114 H   0  0  0  0  0  0  0  0  0  0  0  0
   46.9349   13.9418    3.3261 H   0  0  0  0  0  0  0  0  0  0  0  0
   44.7383    7.5396    0.3063 H   0  0  0  0  0  0  0  0  0  0  0  0
   43.9388    9.1520    0.5216 H   0  0  0  0  0  0  0  0  0  0  0  0
   44.0742   13.7577    0.0910 H   0  0  0  0  0  0  0  0  0  0  0  0
   41.5251   15.1197   -1.4729 H   0  0  0  0  0  0  0  0  0  0  0  0
   41.6791   16.9123   -1.7974 H   0  0  0  0  0  0  0  0  0  0  0  0
   40.0989   16.0767   -3.2783 H   0  0  0  0  0  0  0  0  0  0  0  0
   40.8962   16.8349   -4.6981 H   0  0  0  0  0  0  0  0  0  0  0  0
   40.5489   15.0726   -4.6981 H   0  0  0  0  0  0  0  0  0  0  0  0
   42.6717   13.6427   -2.7657 H   0  0  0  0  0  0  0  0  0  0  0  0
   41.7344   13.7226   -4.2960 H   0  0  0  0  0  0  0  0  0  0  0  0
   43.4887   14.1090   -4.2960 H   0  0  0  0  0  0  0  0  0  0  0  0
   43.4636   16.2348   -5.1083 H   0  0  0  0  0  0  0  0  0  0  0  0
   42.7773   17.6066   -4.0597 H   0  0  0  0  0  0  0  0  0  0  0  0
  1  2  1  0
  2  3  1  0
  2  4  1  0
  4  5  1  0
  5  6  1  0
  6  7  1  0
  7  8  2  0
  8  9  1  0
  9 10  2  0
 10 11  1  0
 11 12  1  0
 12 13  1  0
 13 14  1  0
 14 15  1  0
 15 16  2  0
 15 17  1  0
 14 18  2  0
 18 19  1  0
 19 20  1  0
 20 21  1  0
 21 22  2  0
 21 23  1  0
 18 24  1  0
 24 25  1  0
 11 26  2  0
  5 27  1  0
 27 28  1  0
 28 29  1  0
 28 30  1  0
 28 31  1  0
 31  2  1  0
 26  7  1  0
 24 12  2  0
  1 32  1  0
  1 33  1  0
  1 34  1  0
  3 35  1  0
  3 36  1  0
  3 37  1  0
  4 38  1  0
  4 39  1  0
  5 40  1  0
  6 41  1  0
  8 42  1  0
  9 43  1  0
 10 44  1  0
 20 45  1  0
 20 46  1  0
 26 47  1  0
 27 48  1  0
 27 49  1  0
 29 50  1  0
 29 51  1  0
 29 52  1  0
 30 53  1  0
 30 54  1  0
 30 55  1  0
 31 56  1  0
 31 57  1  0
M  CHG  2  17  -1  23  -1
M  END
>  <meeko>  (4) 
{"is_sidechain": [false], "free_energy": -7.713, "intermolecular_energy": -10.634, "internal_energy": -1.014}

$$$$
2qbq_ligand
     RDKit          3D

 57 59  0  0  0  0  0  0  0  0999 V2000
   48.6480    3.6710    3.2270 C   0  0  0  0  0  0  0  0  0  0  0  0
   49.3120    4.9570    2.6850 C   0  0  0  0  0  0  0  0  0  0  0  0
   49.6240    4.7000    1.2000 C   0  0  0  0  0  0  0  0  0  0  0  0
   48.3150    6.1250    2.8410 C   0  0  0  0  0  0  0  0  0  0  0  0
   48.9390    7.5080    2.5970 C   0  0  0  0  0  0  0  0  0  0  0  0
   47.8890    8.5170    2.8390 N   0  0  0  0  0  0  0  0  0  0  0  0
   47.8880    9.5870    1.9190 C   0  0  0  0  0  0  0  0  0  0  0  0
   48.7460    9.5910    0.8140 C   0  0  0  0  0  0  0  0  0  0  0  0
   48.7780   10.6810   -0.0590 C   0  0  0  0  0  0  0  0  0  0  0  0
   47.9630   11.7880    0.1780 C   0  0  0  0  0  0  0  0  0  0  0  0
   47.1020   11.8090    1.2810 C   0  0  0  0  0  0  0  0  0  0  0  0
   46.2770   12.9800    1.5820 C   0  0  0  0  0  0  0  0  0  0  0  0
   46.6210   13.9220    2.9700 S   0  0  0  0  0  0  0  0  0  0  0  0
   45.3530   15.0390    2.6340 C   0  0  0  0  0  0  0  0  0  0  0  0
   45.0300   16.2350    3.6320 C   0  0  0  0  0  0  0  0  0  0  0  0
   45.2350   17.4280    3.2520 O   0  0  0  0  0  0  0  0  0  0  0  0
   44.5700   15.9050    4.7750 O   0  0  0  0  0  0  0  0  0  0  0  0
   44.7210   14.7290    1.4420 C   0  0  0  0  0  0  0  0  0  0  0  0
   43.6940   15.4340    0.9040 O   0  0  0  0  0  0  0  0  0  0  0  0
   44.1650   16.4440   -0.0170 C   0  0  0  0  0  0  0  0  0  0  0  0
   43.5680   16.2510   -1.4290 C   0  0  0  0  0  0  0  0  0  0  0  0
   44.3430   16.4800   -2.4070 O   0  0  0  0  0  0  0  0  0  0  0  0
   42.3720   15.8250   -1.4720 O   0  0  0  0  0  0  0  0  0  0  0  0
   45.2040   13.5060    0.8940 C   0  0  0  0  0  0  0  0  0  0  0  0
   44.4050   12.6940   -0.6290 Br  0  0  0  0  0  0  0  0  0  0  0  0
   47.0630   10.6970    2.1350 C   0  0  0  0  0  0  0  0  0  0  0  0
   50.1310    7.7230    3.5450 C   0  0  0  0  0  0  0  0  0  0  0  0
   51.2210    6.6370    3.4260 C   0  0  0  0  0  0  0  0  0  0  0  0
   52.2060    6.8020    4.6070 C   0  0  0  0  0  0  0  0  0  0  0  0
   52.0420    6.8290    2.1370 C   0  0  0  0  0  0  0  0  0  0  0  0
   50.5930    5.2230    3.5160 C   0  0  0  0  0  0  0  0  0  0  0  0
   48.6573    3.6891    4.3268 H   0  0  0  0  0  0  0  0  0  0  0  0
   47.6090    3.6164    2.8700 H   0  0  0  0  0  0  0  0  0  0  0  0
   49.2051    2.7922    2.8700 H   0  0  0  0  0  0  0  0  0  0  0  0
   50.4707    4.0025    1.1186 H   0  0  0  0  0  0  0  0  0  0  0  0
   48.7411    4.2636    0.7100 H   0  0  0  0  0  0  0  0  0  0  0  0
   49.8832    5.6501    0.7100 H   0  0  0  0  0  0  0  0  0  0  0  0
   47.4966    5.9814    2.1201 H   0  0  0  0  0  0  0  0  0  0  0  0
   47.9642    6.1105    3.8835 H   0  0  0  0  0  0  0  0  0  0  0  0
   49.3147    7.5921    1.5666 H   0  0  0  0  0  0  0  0  0  0  0  0
   47.9640    8.8920    3.7860 H   0  0  0  0  0  0  0  0  0  0  0  0
   49.4020    8.7272    0.6308 H   0  0  0  0  0  0  0  0  0  0  0  0
   49.4457   10.6664   -0.9331 H   0  0  0  0  0  0  0  0  0  0  0  0
   47.9973   12.6490   -0.5057 H   0  0  0  0  0  0  0  0  0  0  0  0
   43.8738   17.4351    0.3610 H   0  0  0  0  0  0  0  0  0  0  0  0
   45.2590   16.3572   -0.0918 H   0  0  0  0  0  0  0  0  0  0  0  0
   46.3713   10.6972    2.9903 H   0  0  0  0  0  0  0  0  0  0  0  0
   50.5856    8.6981    3.3159 H   0  0  0  0  0  0  0  0  0  0  0  0
   49.7387    7.6741    4.5715 H   0  0  0  0  0  0  0  0  0  0  0  0
   51.6585    6.7103    5.5566 H   0  0  0  0  0  0  0  0  0  0  0  0
   52.9784    6.0207    4.5521 H   0  0  0  0  0  0  0  0  0  0  0  0
   52.6816    7.7923    4.5521 H   0  0  0  0  0  0  0  0  0  0  0  0
   53.0825    7.0723    2.3979 H   0  0  0  0  0  0  0  0  0  0  0  0
   52.0194    5.9013    1.5463 H   0  0  0  0  0  0  0  0  0  0  0  0
   51.6104    7.6504    1.5463 H   0  0  0  0  0  0  0  0  0  0  0  0
   51.3555    4.5018    3.1867 H   0  0  0  0  0  0  0  0  0  0  0  0
   50.2741    5.1232    4.5640 H   0  0  0  0  0  0  0  0  0  0  0  0
  1  2  1  0
  2  3  1  0
  2  4  1  0
  4  5  1  0
  5  6  1  0
  6  7  1  0
  7  8  2  0
  8  9  1  0
  9 10  2  0
 10 11  1  0
 11 12  1  0
 12 13  1  0
 13 14  1  0
 14 15  1  0
 15 16  2  0
 15 17  1  0
 14 18  2  0
 18 19  1  0
 19 20  1  0
 20 21  1  0
 21 22  2  0
 21 23  1  0
 18 24  1  0
 24 25  1  0
 11 26  2  0
  5 27  1  0
 27 28  1  0
 28 29  1  0
 28 30  1  0
 28 31  1  0
 31  2  1  0
 26  7  1  0
 24 12  2  0
  1 32  1  0
  1 33  1  0
  1 34  1  0
  3 35  1  0
  3 36  1  0
  3 37  1  0
  4 38  1  0
  4 39  1  0
  5 40  1  0
  6 41  1  0
  8 42  1  0
  9 43  1  0
 10 44  1  0
 20 45  1  0
 20 46  1  0
 26 47  1  0
 27 48  1  0
 27 49  1  0
 29 50  1  0
 29 51  1  0
 29 52  1  0
 30 53  1  0
 30 54  1  0
 30 55  1  0
 31 56  1  0
 31 57  1  0
M  CHG  2  17  -1  23  -1
M  END
>  <meeko>  (5) 
{"is_sidechain": [false], "free_energy": -7.664, "intermolecular_energy": -10.337, "internal_energy": -1.242}

$$$$
2qbq_ligand
     RDKit          3D

 57 59  0  0  0  0  0  0  0  0999 V2000
   49.8770    7.8750    4.0320 C   0  0  0  0  0  0  0  0  0  0  0  0
   49.0810    7.3340    2.8230 C   0  0  0  0  0  0  0  0  0  0  0  0
   47.7400    6.8170    3.3750 C   0  0  0  0  0  0  0  0  0  0  0  0
   48.8530    8.4930    1.8290 C   0  0  0  0  0  0  0  0  0  0  0  0
   48.3150    8.0400    0.4630 C   0  0  0  0  0  0  0  0  0  0  0  0
   48.2060    9.2400   -0.3910 N   0  0  0  0  0  0  0  0  0  0  0  0
   46.9430    9.8680   -0.3510 C   0  0  0  0  0  0  0  0  0  0  0  0
   45.8560    9.3540   -1.0650 C   0  0  0  0  0  0  0  0  0  0  0  0
   44.6260   10.0160   -1.0640 C   0  0  0  0  0  0  0  0  0  0  0  0
   44.4770   11.2120   -0.3620 C   0  0  0  0  0  0  0  0  0  0  0  0
   45.5530   11.7490    0.3540 C   0  0  0  0  0  0  0  0  0  0  0  0
   45.4400   13.0290    1.0540 C   0  0  0  0  0  0  0  0  0  0  0  0
   44.4800   14.2780    0.3830 S   0  0  0  0  0  0  0  0  0  0  0  0
   44.7920   15.3450    1.6990 C   0  0  0  0  0  0  0  0  0  0  0  0
   44.2200   16.8300    1.7010 C   0  0  0  0  0  0  0  0  0  0  0  0
   44.9880   17.7860    2.0310 O   0  0  0  0  0  0  0  0  0  0  0  0
   42.9990   16.9630    1.3580 O   0  0  0  0  0  0  0  0  0  0  0  0
   45.5660   14.7280    2.6660 C   0  0  0  0  0  0  0  0  0  0  0  0
   45.9650   15.3090    3.8260 O   0  0  0  0  0  0  0  0  0  0  0  0
   47.2190   16.0130    3.6660 C   0  0  0  0  0  0  0  0  0  0  0  0
   47.3490   17.1790    4.6700 C   0  0  0  0  0  0  0  0  0  0  0  0
   48.5280   17.5580    4.9480 O   0  0  0  0  0  0  0  0  0  0  0  0
   46.2570   17.6860    5.0770 O   0  0  0  0  0  0  0  0  0  0  0  0
   45.9970   13.4350    2.2480 C   0  0  0  0  0  0  0  0  0  0  0  0
   47.2400   12.4090    3.2560 Br  0  0  0  0  0  0  0  0  0  0  0  0
   46.7760   11.0610    0.3640 C   0  0  0  0  0  0  0  0  0  0  0  0
   49.2680    7.0090   -0.1640 C   0  0  0  0  0  0  0  0  0  0  0  0
   49.5190    5.7750    0.7270 C   0  0  0  0  0  0  0  0  0  0  0  0
   50.6940    4.9680    0.1260 C   0  0  0  0  0  0  0  0  0  0  0  0
   48.2940    4.8410    0.7190 C   0  0  0  0  0  0  0  0  0  0  0  0
   49.9160    6.2090    2.1610 C   0  0  0  0  0  0  0  0  0  0  0  0
   49.3948    7.5473    4.9648 H   0  0  0  0  0  0  0  0  0  0  0  0
   50.9063    7.4886    3.9959 H   0  0  0  0  0  0  0  0  0  0  0  0
   49.8965    8.9742    3.9959 H   0  0  0  0  0  0  0  0  0  0  0  0
   47.7676    6.8276    4.4746 H   0  0  0  0  0  0  0  0  0  0  0  0
   46.9241    7.4650    3.0224 H   0  0  0  0  0  0  0  0  0  0  0  0
   47.5702    5.7890    3.0224 H   0  0  0  0  0  0  0  0  0  0  0  0
   48.1294    9.1930    2.2722 H   0  0  0  0  0  0  0  0  0  0  0  0
   49.8330    8.9592    1.6494 H   0  0  0  0  0  0  0  0  0  0  0  0
   47.3309    7.5603    0.5695 H   0  0  0  0  0  0  0  0  0  0  0  0
   48.4340    9.0120   -1.3600 H   0  0  0  0  0  0  0  0  0  0  0  0
   45.9707    8.4191   -1.6331 H   0  0  0  0  0  0  0  0  0  0  0  0
   43.7742    9.5937   -1.6173 H   0  0  0  0  0  0  0  0  0  0  0  0
   43.5096   11.7355   -0.3711 H   0  0  0  0  0  0  0  0  0  0  0  0
   48.0474   15.3079    3.8288 H   0  0  0  0  0  0  0  0  0  0  0  0
   47.2518   16.4300    2.6486 H   0  0  0  0  0  0  0  0  0  0  0  0
   47.6187   11.4658    0.9437 H   0  0  0  0  0  0  0  0  0  0  0  0
   48.8336    6.6680   -1.1153 H   0  0  0  0  0  0  0  0  0  0  0  0
   50.2380    7.5093   -0.3012 H   0  0  0  0  0  0  0  0  0  0  0  0
   51.3046    4.5486    0.9392 H   0  0  0  0  0  0  0  0  0  0  0  0
   50.2980    4.1504   -0.4943 H   0  0  0  0  0  0  0  0  0  0  0  0
   51.3149    5.6311   -0.4943 H   0  0  0  0  0  0  0  0  0  0  0  0
   47.9981    4.6154    1.7542 H   0  0  0  0  0  0  0  0  0  0  0  0
   47.4600    5.3345    0.1986 H   0  0  0  0  0  0  0  0  0  0  0  0
   48.5491    3.9061    0.1986 H   0  0  0  0  0  0  0  0  0  0  0  0
   49.8435    5.3211    2.8063 H   0  0  0  0  0  0  0  0  0  0  0  0
   50.9258    6.6326    2.0570 H   0  0  0  0  0  0  0  0  0  0  0  0
  1  2  1  0
  2  3  1  0
  2  4  1  0
  4  5  1  0
  5  6  1  0
  6  7  1  0
  7  8  2  0
  8  9  1  0
  9 10  2  0
 10 11  1  0
 11 12  1  0
 12 13  1  0
 13 14  1  0
 14 15  1  0
 15 16  2  0
 15 17  1  0
 14 18  2  0
 18 19  1  0
 19 20  1  0
 20 21  1  0
 21 22  2  0
 21 23  1  0
 18 24  1  0
 24 25  1  0
 11 26  2  0
  5 27  1  0
 27 28  1  0
 28 29  1  0
 28 30  1  0
 28 31  1  0
 31  2  1  0
 26  7  1  0
 24 12  2  0
  1 32  1  0
  1 33  1  0
  1 34  1  0
  3 35  1  0
  3 36  1  0
  3 37  1  0
  4 38  1  0
  4 39  1  0
  5 40  1  0
  6 41  1  0
  8 42  1  0
  9 43  1  0
 10 44  1  0
 20 45  1  0
 20 46  1  0
 26 47  1  0
 27 48  1  0
 27 49  1  0
 29 50  1  0
 29 51  1  0
 29 52  1  0
 30 53  1  0
 30 54  1  0
 30 55  1  0
 31 56  1  0
 31 57  1  0
M  CHG  2  17  -1  23  -1
M  END
>  <meeko>  (6) 
{"is_sidechain": [false], "free_energy": -7.58, "intermolecular_energy": -10.815, "internal_energy": -0.645}

$$$$
2qbq_ligand
     RDKit          3D

 57 59  0  0  0  0  0  0  0  0999 V2000
   49.8580   11.7420   -1.4100 C   0  0  0  0  0  0  0  0  0  0  0  0
   49.1130   12.0270   -2.7340 C   0  0  0  0  0  0  0  0  0  0  0  0
   49.7250   11.0920   -3.7930 C   0  0  0  0  0  0  0  0  0  0  0  0
   47.6150   11.7150   -2.5290 C   0  0  0  0  0  0  0  0  0  0  0  0
   46.7180   12.2100   -3.6740 C   0  0  0  0  0  0  0  0  0  0  0  0
   45.3210   11.8960   -3.3110 N   0  0  0  0  0  0  0  0  0  0  0  0
   45.1250   11.6260   -1.9400 C   0  0  0  0  0  0  0  0  0  0  0  0
   44.6570   10.3820   -1.5070 C   0  0  0  0  0  0  0  0  0  0  0  0
   44.4120   10.1450   -0.1530 C   0  0  0  0  0  0  0  0  0  0  0  0
   44.6150   11.1600    0.7820 C   0  0  0  0  0  0  0  0  0  0  0  0
   45.0750   12.4160    0.3710 C   0  0  0  0  0  0  0  0  0  0  0  0
   45.2450   13.5160    1.3220 C   0  0  0  0  0  0  0  0  0  0  0  0
   44.3320   14.9510    1.1270 S   0  0  0  0  0  0  0  0  0  0  0  0
   45.0050   15.6740    2.5390 C   0  0  0  0  0  0  0  0  0  0  0  0
   44.6220   17.1610    2.9570 C   0  0  0  0  0  0  0  0  0  0  0  0
   44.6600   18.0780    2.0800 O   0  0  0  0  0  0  0  0  0  0  0  0
   44.2900   17.3350    4.1760 O   0  0  0  0  0  0  0  0  0  0  0  0
   45.8650   14.8030    3.1820 C   0  0  0  0  0  0  0  0  0  0  0  0
   46.5360   15.0810    4.3280 O   0  0  0  0  0  0  0  0  0  0  0  0
   47.6890   15.9180    4.0810 C   0  0  0  0  0  0  0  0  0  0  0  0
   47.7280   17.1300    5.0380 C   0  0  0  0  0  0  0  0  0  0  0  0
   48.7480   17.8830    4.9570 O   0  0  0  0  0  0  0  0  0  0  0  0
   46.7060   17.2890    5.7760 O   0  0  0  0  0  0  0  0  0  0  0  0
   46.0560   13.6050    2.4340 C   0  0  0  0  0  0  0  0  0  0  0  0
   47.3330   12.2890    2.9380 Br  0  0  0  0  0  0  0  0  0  0  0  0
   45.3410   12.6320   -0.9900 C   0  0  0  0  0  0  0  0  0  0  0  0
   46.9030   13.7240   -3.8730 C   0  0  0  0  0  0  0  0  0  0  0  0
   48.3640   14.1390   -4.1450 C   0  0  0  0  0  0  0  0  0  0  0  0
   48.4620   15.6790   -4.0410 C   0  0  0  0  0  0  0  0  0  0  0  0
   48.7750   13.7680   -5.5820 C   0  0  0  0  0  0  0  0  0  0  0  0
   49.3130   13.5230   -3.0860 C   0  0  0  0  0  0  0  0  0  0  0  0
   49.2050   11.9918   -0.5607 H   0  0  0  0  0  0  0  0  0  0  0  0
   50.1287   10.6768   -1.3635 H   0  0  0  0  0  0  0  0  0  0  0  0
   50.7705   12.3546   -1.3635 H   0  0  0  0  0  0  0  0  0  0  0  0
   50.2614   10.2724   -3.2924 H   0  0  0  0  0  0  0  0  0  0  0  0
   48.9239   10.6759   -4.4216 H   0  0  0  0  0  0  0  0  0  0  0  0
   50.4269   11.6596   -4.4216 H   0  0  0  0  0  0  0  0  0  0  0  0
   47.4963   10.6249   -2.4414 H   0  0  0  0  0  0  0  0  0  0  0  0
   47.2977   12.2465   -1.6197 H   0  0  0  0  0  0  0  0  0  0  0  0
   46.9834   11.7162   -4.6204 H   0  0  0  0  0  0  0  0  0  0  0  0
   44.9780   11.1060   -3.8590 H   0  0  0  0  0  0  0  0  0  0  0  0
   44.4799    9.5816   -2.2405 H   0  0  0  0  0  0  0  0  0  0  0  0
   44.0585    9.1569    0.1767 H   0  0  0  0  0  0  0  0  0  0  0  0
   44.4127   10.9723    1.8468 H   0  0  0  0  0  0  0  0  0  0  0  0
   48.6012   15.3203    4.2247 H   0  0  0  0  0  0  0  0  0  0  0  0
   47.6250   16.2959    3.0500 H   0  0  0  0  0  0  0  0  0  0  0  0
   45.7262   13.6093   -1.3165 H   0  0  0  0  0  0  0  0  0  0  0  0
   46.2872   14.0399   -4.7280 H   0  0  0  0  0  0  0  0  0  0  0  0
   46.5993   14.2114   -2.9348 H   0  0  0  0  0  0  0  0  0  0  0  0
   48.4808   15.9745   -2.9816 H   0  0  0  0  0  0  0  0  0  0  0  0
   49.3838   16.0219   -4.5337 H   0  0  0  0  0  0  0  0  0  0  0  0
   47.5911   16.1359   -4.5337 H   0  0  0  0  0  0  0  0  0  0  0  0
   49.5912   13.0312   -5.5513 H   0  0  0  0  0  0  0  0  0  0  0  0
   47.9119   13.3372   -6.1106 H   0  0  0  0  0  0  0  0  0  0  0  0
   49.1155   14.6706   -6.1106 H   0  0  0  0  0  0  0  0  0  0  0  0
   50.3419   13.6401   -3.4570 H   0  0  0  0  0  0  0  0  0  0  0  0
   49.0856   14.0640   -2.1556 H   0  0  0  0  0  0  0  0  0  0  0  0
  1  2  1  0
  2  3  1  0
  2  4  1  0
  4  5  1  0
  5  6  1  0
  6  7  1  0
  7  8  2  0
  8  9  1  0
  9 10  2  0
 10 11  1  0
 11 12  1  0
 12 13  1  0
 13 14  1  0
 14 15  1  0
 15 16  2  0
 15 17  1  0
 14 18  2  0
 18 19  1  0
 19 20  1  0
 20 21  1  0
 21 22  2  0
 21 23  1  0
 18 24  1  0
 24 25  1  0
 11 26  2  0
  5 27  1  0
 27 28  1  0
 28 29  1  0
 28 30  1  0
 28 31  1  0
 31  2  1  0
 26  7  1  0
 24 12  2  0
  1 32  1  0
  1 33  1  0
  1 34  1  0
  3 35  1  0
  3 36  1  0
  3 37  1  0
  4 38  1  0
  4 39  1  0
  5 40  1  0
  6 41  1  0
  8 42  1  0
  9 43  1  0
 10 44  1  0
 20 45  1  0
 20 46  1  0
 26 47  1  0
 27 48  1  0
 27 49  1  0
 29 50  1  0
 29 51  1  0
 29 52  1  0
 30 53  1  0
 30 54  1  0
 30 55  1  0
 31 56  1  0
 31 57  1  0
M  CHG  2  17  -1  23  -1
M  END
>  <meeko>  (7) 
{"is_sidechain": [false], "free_energy": -7.566, "intermolecular_energy": -10.977, "internal_energy": -0.464}

$$$$
2qbq_ligand
     RDKit          3D

 57 59  0  0  0  0  0  0  0  0999 V2000
   48.5030   13.4670   -3.4090 C   0  0  0  0  0  0  0  0  0  0  0  0
   47.1180   13.6250   -4.0760 C   0  0  0  0  0  0  0  0  0  0  0  0
   47.3380   13.4650   -5.5920 C   0  0  0  0  0  0  0  0  0  0  0  0
   46.1880   12.5160   -3.5390 C   0  0  0  0  0  0  0  0  0  0  0  0
   44.7090   12.7160   -3.9070 C   0  0  0  0  0  0  0  0  0  0  0  0
   43.9440   11.6210   -3.2790 N   0  0  0  0  0  0  0  0  0  0  0  0
   44.2690   11.3870   -1.9260 C   0  0  0  0  0  0  0  0  0  0  0  0
   44.2310   10.0980   -1.3860 C   0  0  0  0  0  0  0  0  0  0  0  0
   44.4990    9.8850   -0.0320 C   0  0  0  0  0  0  0  0  0  0  0  0
   44.7900   10.9660    0.8000 C   0  0  0  0  0  0  0  0  0  0  0  0
   44.8260   12.2660    0.2830 C   0  0  0  0  0  0  0  0  0  0  0  0
   45.0740   13.4230    1.1450 C   0  0  0  0  0  0  0  0  0  0  0  0
   44.2500   14.8930    0.8440 S   0  0  0  0  0  0  0  0  0  0  0  0
   44.9830   15.6800    2.1900 C   0  0  0  0  0  0  0  0  0  0  0  0
   44.6990   17.2160    2.4930 C   0  0  0  0  0  0  0  0  0  0  0  0
   44.4750   17.5780    3.6890 O   0  0  0  0  0  0  0  0  0  0  0  0
   44.7210   18.0020    1.4880 O   0  0  0  0  0  0  0  0  0  0  0  0
   45.7960   14.8090    2.8930 C   0  0  0  0  0  0  0  0  0  0  0  0
   46.4960   15.1330    4.0090 O   0  0  0  0  0  0  0  0  0  0  0  0
   47.6390   15.9650    3.6990 C   0  0  0  0  0  0  0  0  0  0  0  0
   47.8360   17.0770    4.7520 C   0  0  0  0  0  0  0  0  0  0  0  0
   46.8950   17.2360    5.5900 O   0  0  0  0  0  0  0  0  0  0  0  0
   48.9500   17.6870    4.7140 O   0  0  0  0  0  0  0  0  0  0  0  0
   45.9030   13.5470    2.2390 C   0  0  0  0  0  0  0  0  0  0  0  0
   47.1020   12.1970    2.8360 Br  0  0  0  0  0  0  0  0  0  0  0  0
   44.5790   12.4610   -1.0840 C   0  0  0  0  0  0  0  0  0  0  0  0
   44.2200   14.0840   -3.4020 C   0  0  0  0  0  0  0  0  0  0  0  0
   45.0490   15.2720   -3.9310 C   0  0  0  0  0  0  0  0  0  0  0  0
   44.6480   16.5390   -3.1390 C   0  0  0  0  0  0  0  0  0  0  0  0
   44.7170   15.5530   -5.4090 C   0  0  0  0  0  0  0  0  0  0  0  0
   46.5630   15.0240   -3.7080 C   0  0  0  0  0  0  0  0  0  0  0  0
   48.3869   13.4802   -2.3152 H   0  0  0  0  0  0  0  0  0  0  0  0
   48.9522   12.5118   -3.7185 H   0  0  0  0  0  0  0  0  0  0  0  0
   49.1558   14.2965   -3.7185 H   0  0  0  0  0  0  0  0  0  0  0  0
   48.2159   12.8265   -5.7697 H   0  0  0  0  0  0  0  0  0  0  0  0
   46.4493   13.0007   -6.0445 H   0  0  0  0  0  0  0  0  0  0  0  0
   47.5059   14.4535   -6.0445 H   0  0  0  0  0  0  0  0  0  0  0  0
   46.5214   11.5529   -3.9529 H   0  0  0  0  0  0  0  0  0  0  0  0
   46.2525   12.5468   -2.4413 H   0  0  0  0  0  0  0  0  0  0  0  0
   44.5706   12.6968   -4.9981 H   0  0  0  0  0  0  0  0  0  0  0  0
   44.0620   10.7540   -3.8060 H   0  0  0  0  0  0  0  0  0  0  0  0
   43.9876    9.2431   -2.0340 H   0  0  0  0  0  0  0  0  0  0  0  0
   44.4806    8.8646    0.3783 H   0  0  0  0  0  0  0  0  0  0  0  0
   44.9922   10.7959    1.8678 H   0  0  0  0  0  0  0  0  0  0  0  0
   48.5411   15.3361    3.6712 H   0  0  0  0  0  0  0  0  0  0  0  0
   47.4622   16.4424    2.7239 H   0  0  0  0  0  0  0  0  0  0  0  0
   44.6299   13.4772   -1.5020 H   0  0  0  0  0  0  0  0  0  0  0  0
   43.1761   14.2193   -3.7213 H   0  0  0  0  0  0  0  0  0  0  0  0
   44.3265   14.0796   -2.3072 H   0  0  0  0  0  0  0  0  0  0  0  0
   44.7132   16.3331   -2.0604 H   0  0  0  0  0  0  0  0  0  0  0  0
   45.3291   17.3634   -3.3967 H   0  0  0  0  0  0  0  0  0  0  0  0
   43.6166   16.8214   -3.3967 H   0  0  0  0  0  0  0  0  0  0  0  0
   43.8786   16.2626   -5.4680 H   0  0  0  0  0  0  0  0  0  0  0  0
   45.5979   15.9841   -5.9071 H   0  0  0  0  0  0  0  0  0  0  0  0
   44.4374   14.6129   -5.9071 H   0  0  0  0  0  0  0  0  0  0  0  0
   47.1108   15.7648   -4.3090 H   0  0  0  0  0  0  0  0  0  0  0  0
   46.7042   15.1055   -2.6201 H   0  0  0  0  0  0  0  0  0  0  0  0
  1  2  1  0
  2  3  1  0
  2  4  1  0
  4  5  1  0
  5  6  1  0
  6  7  1  0
  7  8  2  0
  8  9  1  0
  9 10  2  0
 10 11  1  0
 11 12  1  0
 12 13  1  0
 13 14  1  0
 14 15  1  0
 15 16  2  0
 15 17  1  0
 14 18  2  0
 18 19  1  0
 19 20  1  0
 20 21  1  0
 21 22  2  0
 21 23  1  0
 18 24  1  0
 24 25  1  0
 11 26  2  0
  5 27  1  0
 27 28  1  0
 28 29  1  0
 28 30  1  0
 28 31  1  0
 31  2  1  0
 26  7  1  0
 24 12  2  0
  1 32  1  0
  1 33  1  0
  1 34  1  0
  3 35  1  0
  3 36  1  0
  3 37  1  0
  4 38  1  0
  4 39  1  0
  5 40  1  0
  6 41  1  0
  8 42  1  0
  9 43  1  0
 10 44  1  0
 20 45  1  0
 20 46  1  0
 26 47  1  0
 27 48  1  0
 27 49  1  0
 29 50  1  0
 29 51  1  0
 29 52  1  0
 30 53  1  0
 30 54  1  0
 30 55  1  0
 31 56  1  0
 31 57  1  0
M  CHG  2  17  -1  23  -1
M  END
>  <meeko>  (8) 
{"is_sidechain": [false], "free_energy": -7.54, "intermolecular_energy": -11.373, "internal_energy": -0.032}

$$$$
2qbq_ligand
     RDKit          3D

 57 59  0  0  0  0  0  0  0  0999 V2000
   48.3360    3.9770    3.0340 C   0  0  0  0  0  0  0  0  0  0  0  0
   49.0690    5.2340    2.5150 C   0  0  0  0  0  0  0  0  0  0  0  0
   49.1850    5.0780    0.9870 C   0  0  0  0  0  0  0  0  0  0  0  0
   48.2250    6.4750    2.8750 C   0  0  0  0  0  0  0  0  0  0  0  0
   48.9610    7.8080    2.6620 C   0  0  0  0  0  0  0  0  0  0  0  0
   48.0560    8.8890    3.1020 N   0  0  0  0  0  0  0  0  0  0  0  0
   47.4550    9.6080    2.0470 C   0  0  0  0  0  0  0  0  0  0  0  0
   47.4360    9.1010    0.7440 C   0  0  0  0  0  0  0  0  0  0  0  0
   46.8900    9.8470   -0.3030 C   0  0  0  0  0  0  0  0  0  0  0  0
   46.3740   11.1190   -0.0580 C   0  0  0  0  0  0  0  0  0  0  0  0
   46.3890   11.6510    1.2360 C   0  0  0  0  0  0  0  0  0  0  0  0
   45.9050   13.0050    1.5110 C   0  0  0  0  0  0  0  0  0  0  0  0
   44.8220   13.7530    0.4160 S   0  0  0  0  0  0  0  0  0  0  0  0
   44.6970   15.1770    1.3770 C   0  0  0  0  0  0  0  0  0  0  0  0
   43.8350   16.4220    0.8870 C   0  0  0  0  0  0  0  0  0  0  0  0
   43.2590   17.1520    1.7500 O   0  0  0  0  0  0  0  0  0  0  0  0
   43.7850   16.6100   -0.3740 O   0  0  0  0  0  0  0  0  0  0  0  0
   45.4230   15.0520    2.5480 C   0  0  0  0  0  0  0  0  0  0  0  0
   45.5060   16.0020    3.5140 O   0  0  0  0  0  0  0  0  0  0  0  0
   46.6340   16.8820    3.2990 C   0  0  0  0  0  0  0  0  0  0  0  0
   47.2850   17.3090    4.6330 C   0  0  0  0  0  0  0  0  0  0  0  0
   46.5320   17.3080    5.6550 O   0  0  0  0  0  0  0  0  0  0  0  0
   48.5290   17.5650    4.5880 O   0  0  0  0  0  0  0  0  0  0  0  0
   46.1730   13.8400    2.5740 C   0  0  0  0  0  0  0  0  0  0  0  0
   47.4300   13.4580    3.9490 Br  0  0  0  0  0  0  0  0  0  0  0  0
   46.9190   10.8800    2.2830 C   0  0  0  0  0  0  0  0  0  0  0  0
   50.2660    7.8250    3.4750 C   0  0  0  0  0  0  0  0  0  0  0  0
   51.2150    6.6530    3.1460 C   0  0  0  0  0  0  0  0  0  0  0  0
   52.3370    6.6190    4.2110 C   0  0  0  0  0  0  0  0  0  0  0  0
   51.9050    6.8750    1.7870 C   0  0  0  0  0  0  0  0  0  0  0  0
   50.4550    5.3030    3.2050 C   0  0  0  0  0  0  0  0  0  0  0  0
   48.3375    3.9796    4.1340 H   0  0  0  0  0  0  0  0  0  0  0  0
   47.2984    3.9806    2.6688 H   0  0  0  0  0  0  0  0  0  0  0  0
   48.8501    3.0757    2.6688 H   0  0  0  0  0  0  0  0  0  0  0  0
   49.8265    4.2153    0.7542 H   0  0  0  0  0  0  0  0  0  0  0  0
   48.1849    4.9177    0.5578 H   0  0  0  0  0  0  0  0  0  0  0  0
   49.6264    5.9896    0.5578 H   0  0  0  0  0  0  0  0  0  0  0  0
   47.3211    6.4737    2.2481 H   0  0  0  0  0  0  0  0  0  0  0  0
   47.9927    6.4047    3.9479 H   0  0  0  0  0  0  0  0  0  0  0  0
   49.2272    7.9440    1.6034 H   0  0  0  0  0  0  0  0  0  0  0  0
   48.5490    9.5420    3.7130 H   0  0  0  0  0  0  0  0  0  0  0  0
   47.8554    8.1044    0.5415 H   0  0  0  0  0  0  0  0  0  0  0  0
   46.8671    9.4310   -1.3210 H   0  0  0  0  0  0  0  0  0  0  0  0
   45.9529   11.7074   -0.8865 H   0  0  0  0  0  0  0  0  0  0  0  0
   47.3836   16.3584    2.6875 H   0  0  0  0  0  0  0  0  0  0  0  0
   46.2721   17.7864    2.7880 H   0  0  0  0  0  0  0  0  0  0  0  0
   46.9131   11.2823    3.3068 H   0  0  0  0  0  0  0  0  0  0  0  0
   50.7929    8.7679    3.2670 H   0  0  0  0  0  0  0  0  0  0  0  0
   49.9870    7.7262    4.5344 H   0  0  0  0  0  0  0  0  0  0  0  0
   51.8894    6.6326    5.2157 H   0  0  0  0  0  0  0  0  0  0  0  0
   52.9324    5.7024    4.0872 H   0  0  0  0  0  0  0  0  0  0  0  0
   52.9868    7.4979    4.0872 H   0  0  0  0  0  0  0  0  0  0  0  0
   52.9404    7.2081    1.9515 H   0  0  0  0  0  0  0  0  0  0  0  0
   51.9088    5.9327    1.2194 H   0  0  0  0  0  0  0  0  0  0  0  0
   51.3586    7.6427    1.2194 H   0  0  0  0  0  0  0  0  0  0  0  0
   51.0959    4.5427    2.7347 H   0  0  0  0  0  0  0  0  0  0  0  0
   50.2456    5.1446    4.2732 H   0  0  0  0  0  0  0  0  0  0  0  0
  1  2  1  0
  2  3  1  0
  2  4  1  0
  4  5  1  0
  5  6  1  0
  6  7  1  0
  7  8  2  0
  8  9  1  0
  9 10  2  0
 10 11  1  0
 11 12  1  0
 12 13  1  0
 13 14  1  0
 14 15  1  0
 15 16  2  0
 15 17  1  0
 14 18  2  0
 18 19  1  0
 19 20  1  0
 20 21  1  0
 21 22  2  0
 21 23  1  0
 18 24  1  0
 24 25  1  0
 11 26  2  0
  5 27  1  0
 27 28  1  0
 28 29  1  0
 28 30  1  0
 28 31  1  0
 31  2  1  0
 26  7  1  0
 24 12  2  0
  1 32  1  0
  1 33  1  0
  1 34  1  0
  3 35  1  0
  3 36  1  0
  3 37  1  0
  4 38  1  0
  4 39  1  0
  5 40  1  0
  6 41  1  0
  8 42  1  0
  9 43  1  0
 10 44  1  0
 20 45  1  0
 20 46  1  0
 26 47  1  0
 27 48  1  0
 27 49  1  0
 29 50  1  0
 29 51  1  0
 29 52  1  0
 30 53  1  0
 30 54  1  0
 30 55  1  0
 31 56  1  0
 31 57  1  0
M  CHG  2  17  -1  23  -1
M  END
>  <meeko>  (9) 
{"is_sidechain": [false], "free_energy": -7.485, "intermolecular_energy": -10.939, "internal_energy": -0.389}

$$$$
