3o9i_ligand
     RDKit          3D

 81 85  0  0  0  0  0  0  0  0999 V2000
   22.9390   31.7790   14.9660 C   0  0  0  0  0  0  0  0  0  0  0  0
   22.7560   32.2990   16.3870 C   0  0  0  0  0  0  0  0  0  0  0  0
   21.3350   32.7650   16.7790 C   0  0  0  0  0  0  0  0  0  0  0  0
   21.3170   34.1510   17.4640 C   0  0  0  0  0  0  0  0  0  0  0  0
   21.6240   35.3500   16.5810 C   0  0  0  0  0  0  0  0  0  0  0  0
   20.3280   32.6460   15.6140 C   0  0  0  0  0  0  0  0  0  0  0  0
   19.0900   31.9640   16.0450 N   0  0  0  0  0  0  0  0  0  0  0  0
   19.2580   30.5940   16.6120 C   0  0  0  0  0  0  0  0  0  0  0  0
   19.9980   29.6030   15.6930 C   0  0  1  0  0  0  0  0  0  0  0  0
   20.0150   28.3170   16.3200 O   0  0  0  0  0  0  0  0  0  0  0  0
   19.3850   29.5400   14.2600 C   0  0  2  0  0  0  0  0  0  0  0  0
   18.1130   28.6580   14.2000 C   0  0  0  0  0  0  0  0  0  0  0  0
   17.8190   28.0740   12.8390 C   0  0  0  0  0  0  0  0  0  0  0  0
   18.1030   26.7290   12.5660 C   0  0  0  0  0  0  0  0  0  0  0  0
   17.8420   26.1910   11.3050 C   0  0  0  0  0  0  0  0  0  0  0  0
   17.2920   26.9910   10.3050 C   0  0  0  0  0  0  0  0  0  0  0  0
   17.0000   28.3290   10.5670 C   0  0  0  0  0  0  0  0  0  0  0  0
   17.2590   28.8660   11.8280 C   0  0  0  0  0  0  0  0  0  0  0  0
   20.3560   29.0280   13.2910 N   0  0  0  0  0  0  0  0  0  0  0  0
   20.9980   29.8210   12.3930 C   0  0  0  0  0  0  0  0  0  0  0  0
   20.8000   31.0170   12.2470 O   0  0  0  0  0  0  0  0  0  0  0  0
   21.9060   29.0850   11.7150 O   0  0  0  0  0  0  0  0  0  0  0  0
   21.8080   27.6730   11.9120 C   0  0  1  0  0  0  0  0  0  0  0  0
   21.4150   26.8930   10.6650 C   0  0  0  0  0  0  0  0  0  0  0  0
   22.0180   25.5970   10.7740 O   0  0  0  0  0  0  0  0  0  0  0  0
   23.0060   25.6360   11.8100 C   0  0  1  0  0  0  0  0  0  0  0  0
   24.2760   25.1960   11.3300 O   0  0  0  0  0  0  0  0  0  0  0  0
   25.1800   26.3040   11.3400 C   0  0  0  0  0  0  0  0  0  0  0  0
   24.3340   27.5540   11.4190 C   0  0  0  0  0  0  0  0  0  0  0  0
   23.1540   27.0770   12.2450 C   0  0  1  0  0  0  0  0  0  0  0  0
   17.5990   32.4390   15.4050 S   0  0  0  0  0  0  0  0  0  0  0  0
   16.6690   31.3390   15.5440 O   0  0  0  0  0  0  0  0  0  0  0  0
   17.8620   33.0300   14.1060 O   0  0  0  0  0  0  0  0  0  0  0  0
   16.9900   33.7410   16.4670 C   0  0  0  0  0  0  0  0  0  0  0  0
   15.7760   33.5730   17.1370 C   0  0  0  0  0  0  0  0  0  0  0  0
   15.2880   34.5810   17.9770 C   0  0  0  0  0  0  0  0  0  0  0  0
   16.0350   35.7610   18.1630 C   0  0  0  0  0  0  0  0  0  0  0  0
   15.6680   36.8360   18.9550 N   0  0  0  0  0  0  0  0  0  0  0  0
   16.6070   37.7510   18.9140 C   0  0  0  0  0  0  0  0  0  0  0  0
   17.9730   37.4010   17.9430 S   0  0  0  0  0  0  0  0  0  0  0  0
   17.2690   35.8850   17.5170 C   0  0  0  0  0  0  0  0  0  0  0  0
   17.7770   34.8810   16.6770 C   0  0  0  0  0  0  0  0  0  0  0  0
   23.3040   30.7419   14.9993 H   0  0  0  0  0  0  0  0  0  0  0  0
   21.9753   31.8118   14.4366 H   0  0  0  0  0  0  0  0  0  0  0  0
   23.6698   32.4081   14.4366 H   0  0  0  0  0  0  0  0  0  0  0  0
   23.0441   31.4920   17.0768 H   0  0  0  0  0  0  0  0  0  0  0  0
   23.3826   33.2011   16.4473 H   0  0  0  0  0  0  0  0  0  0  0  0
   20.9871   32.0597   17.5481 H   0  0  0  0  0  0  0  0  0  0  0  0
   20.3143   34.2992   17.8914 H   0  0  0  0  0  0  0  0  0  0  0  0
   22.1302   34.1197   18.2041 H   0  0  0  0  0  0  0  0  0  0  0  0
   21.8474   36.2227   17.2123 H   0  0  0  0  0  0  0  0  0  0  0  0
   22.4934   35.1246   15.9459 H   0  0  0  0  0  0  0  0  0  0  0  0
   20.7533   35.5702   15.9459 H   0  0  0  0  0  0  0  0  0  0  0  0
   20.0754   33.6542   15.2537 H   0  0  0  0  0  0  0  0  0  0  0  0
   20.7916   32.0523   14.8123 H   0  0  0  0  0  0  0  0  0  0  0  0
   19.8245   30.6789   17.5510 H   0  0  0  0  0  0  0  0  0  0  0  0
   18.2447   30.1897   16.7529 H   0  0  0  0  0  0  0  0  0  0  0  0
   21.0299   29.9577   15.5541 H   0  0  0  0  0  0  0  0  0  0  0  0
   20.3280   28.4200   17.2380 H   0  0  0  0  0  0  0  0  0  0  0  0
   19.1087   30.5734   14.0035 H   0  0  0  0  0  0  0  0  0  0  0  0
   18.2370   27.8275   14.9106 H   0  0  0  0  0  0  0  0  0  0  0  0
   17.2657   29.3141   14.4483 H   0  0  0  0  0  0  0  0  0  0  0  0
   18.5351   26.0922   13.3520 H   0  0  0  0  0  0  0  0  0  0  0  0
   18.0706   25.1347   11.1002 H   0  0  0  0  0  0  0  0  0  0  0  0
   17.0886   26.5674    9.3104 H   0  0  0  0  0  0  0  0  0  0  0  0
   16.5652   28.9613    9.7789 H   0  0  0  0  0  0  0  0  0  0  0  0
   17.0215   29.9208   12.0305 H   0  0  0  0  0  0  0  0  0  0  0  0
   20.7060   28.0800   13.3670 H   0  0  0  0  0  0  0  0  0  0  0  0
   21.0512   27.5859   12.7055 H   0  0  0  0  0  0  0  0  0  0  0  0
   20.3206   26.7970   10.6087 H   0  0  0  0  0  0  0  0  0  0  0  0
   21.7557   27.4093    9.7554 H   0  0  0  0  0  0  0  0  0  0  0  0
   22.6887   24.9784   12.6327 H   0  0  0  0  0  0  0  0  0  0  0  0
   25.8466   26.2416   12.2128 H   0  0  0  0  0  0  0  0  0  0  0  0
   25.8099   26.3089   10.4382 H   0  0  0  0  0  0  0  0  0  0  0  0
   24.8718   28.3707   11.9228 H   0  0  0  0  0  0  0  0  0  0  0  0
   24.0543   27.9659   10.4381 H   0  0  0  0  0  0  0  0  0  0  0  0
   23.3658   27.3202   13.2967 H   0  0  0  0  0  0  0  0  0  0  0  0
   15.2010   32.6448   17.0041 H   0  0  0  0  0  0  0  0  0  0  0  0
   14.3238   34.4521   18.4905 H   0  0  0  0  0  0  0  0  0  0  0  0
   16.5213   38.6938   19.4741 H   0  0  0  0  0  0  0  0  0  0  0  0
   18.7620   34.9862   16.1988 H   0  0  0  0  0  0  0  0  0  0  0  0
  1  2  1  0
  2  3  1  0
  3  4  1  0
  4  5  1  0
  3  6  1  0
  6  7  1  0
  7  8  1  0
  8  9  1  0
  9 10  1  0
  9 11  1  0
 11 12  1  0
 12 13  1  0
 13 14  2  0
 14 15  1  0
 15 16  2  0
 16 17  1  0
 17 18  2  0
 11 19  1  0
 19 20  1  0
 20 21  2  0
 20 22  1  0
 22 23  1  0
 23 24  1  0
 24 25  1  0
 25 26  1  0
 26 27  1  0
 27 28  1  0
 28 29  1  0
 29 30  1  0
  7 31  1  0
 31 32  2  0
 31 33  2  0
 31 34  1  0
 34 35  2  0
 35 36  1  0
 36 37  2  0
 37 38  1  0
 38 39  2  0
 39 40  1  0
 40 41  1  0
 41 42  2  0
 18 13  1  0
 30 23  1  0
 42 34  1  0
 30 26  1  0
 41 37  1  0
  1 43  1  0
  1 44  1  0
  1 45  1  0
  2 46  1  0
  2 47  1  0
  3 48  1  0
  4 49  1  0
  4 50  1  0
  5 51  1  0
  5 52  1  0
  5 53  1  0
  6 54  1  0
  6 55  1  0
  8 56  1  0
  8 57  1  0
  9 58  1  6
 10 59  1  0
 11 60  1  6
 12 61  1  0
 12 62  1  0
 14 63  1  0
 15 64  1  0
 16 65  1  0
 17 66  1  0
 18 67  1  0
 19 68  1  0
 23 69  1  1
 24 70  1  0
 24 71  1  0
 26 72  1  1
 28 73  1  0
 28 74  1  0
 29 75  1  0
 29 76  1  0
 30 77  1  1
 35 78  1  0
 36 79  1  0
 39 80  1  0
 42 81  1  0
M  END
>  <meeko>  (1) 
{"is_sidechain": [false], "free_energy": -9.561, "intermolecular_energy": -17.665, "internal_energy": -2.411}

$$$$
3o9i_ligand
     RDKit          3D

 81 85  0  0  0  0  0  0  0  0999 V2000
   21.5650   25.3350   10.3520 C   0  0  0  0  0  0  0  0  0  0  0  0
   21.9560   25.6110   11.7990 C   0  0  0  0  0  0  0  0  0  0  0  0
   22.2160   27.0870   12.1800 C   0  0  0  0  0  0  0  0  0  0  0  0
   23.7180   27.4490   12.2200 C   0  0  0  0  0  0  0  0  0  0  0  0
   24.6830   26.4100   11.6710 C   0  0  0  0  0  0  0  0  0  0  0  0
   21.3710   28.0740   11.3440 C   0  0  0  0  0  0  0  0  0  0  0  0
   20.5520   28.9450   12.2110 N   0  0  0  0  0  0  0  0  0  0  0  0
   21.3000   29.7890   13.1890 C   0  0  0  0  0  0  0  0  0  0  0  0
   20.9720   31.2930   13.1250 C   0  0  1  0  0  0  0  0  0  0  0  0
   20.5040   31.6080   11.8100 O   0  0  0  0  0  0  0  0  0  0  0  0
   19.9540   31.7320   14.2230 C   0  0  2  0  0  0  0  0  0  0  0  0
   18.7130   32.4430   13.6270 C   0  0  0  0  0  0  0  0  0  0  0  0
   17.5840   32.6600   14.6070 C   0  0  0  0  0  0  0  0  0  0  0  0
   17.0360   31.5780   15.3100 C   0  0  0  0  0  0  0  0  0  0  0  0
   15.9860   31.7760   16.2080 C   0  0  0  0  0  0  0  0  0  0  0  0
   15.4740   33.0560   16.4120 C   0  0  0  0  0  0  0  0  0  0  0  0
   16.0150   34.1390   15.7220 C   0  0  0  0  0  0  0  0  0  0  0  0
   17.0670   33.9430   14.8270 C   0  0  0  0  0  0  0  0  0  0  0  0
   20.5810   32.6230   15.2000 N   0  0  0  0  0  0  0  0  0  0  0  0
   20.8790   32.2410   16.4700 C   0  0  0  0  0  0  0  0  0  0  0  0
   20.6090   31.1540   16.9570 O   0  0  0  0  0  0  0  0  0  0  0  0
   21.5460   33.2390   17.0910 O   0  0  0  0  0  0  0  0  0  0  0  0
   20.9510   34.5320   16.9700 C   0  0  1  0  0  0  0  0  0  0  0  0
   19.5780   34.6530   17.6180 C   0  0  0  0  0  0  0  0  0  0  0  0
   19.4360   36.0130   18.0460 O   0  0  0  0  0  0  0  0  0  0  0  0
   20.7220   36.6420   18.0130 C   0  0  1  0  0  0  0  0  0  0  0  0
   21.0470   37.2220   19.2760 O   0  0  0  0  0  0  0  0  0  0  0  0
   22.1490   36.5050   19.8410 C   0  0  0  0  0  0  0  0  0  0  0  0
   22.2280   35.1840   19.1110 C   0  0  0  0  0  0  0  0  0  0  0  0
   21.7480   35.5690   17.7240 C   0  0  1  0  0  0  0  0  0  0  0  0
   18.9240   28.5750   12.4820 S   0  0  0  0  0  0  0  0  0  0  0  0
   18.1220   29.7050   12.0620 O   0  0  0  0  0  0  0  0  0  0  0  0
   18.8240   28.0540   13.8320 O   0  0  0  0  0  0  0  0  0  0  0  0
   18.5220   27.2390   11.3650 C   0  0  0  0  0  0  0  0  0  0  0  0
   18.1550   25.9950   11.8820 C   0  0  0  0  0  0  0  0  0  0  0  0
   17.8320   24.9400   11.0210 C   0  0  0  0  0  0  0  0  0  0  0  0
   17.8540   25.1410    9.6270 C   0  0  0  0  0  0  0  0  0  0  0  0
   17.5660   24.1870    8.6660 N   0  0  0  0  0  0  0  0  0  0  0  0
   17.6640   24.7240    7.4720 C   0  0  0  0  0  0  0  0  0  0  0  0
   18.1010   26.3780    7.4130 S   0  0  0  0  0  0  0  0  0  0  0  0
   18.1790   26.4090    9.1360 C   0  0  0  0  0  0  0  0  0  0  0  0
   18.5000   27.4810    9.9850 C   0  0  0  0  0  0  0  0  0  0  0  0
   20.6665   24.7008   10.3296 H   0  0  0  0  0  0  0  0  0  0  0  0
   21.3552   26.2863    9.8410 H   0  0  0  0  0  0  0  0  0  0  0  0
   22.3911   24.8188    9.8410 H   0  0  0  0  0  0  0  0  0  0  0  0
   21.1431   25.2397   12.4403 H   0  0  0  0  0  0  0  0  0  0  0  0
   22.9213   25.1025   11.9390 H   0  0  0  0  0  0  0  0  0  0  0  0
   21.8663   27.1979   13.2170 H   0  0  0  0  0  0  0  0  0  0  0  0
   23.8545   28.3721   11.6376 H   0  0  0  0  0  0  0  0  0  0  0  0
   23.9663   27.5402   13.2877 H   0  0  0  0  0  0  0  0  0  0  0  0
   25.1705   25.8851   12.5058 H   0  0  0  0  0  0  0  0  0  0  0  0
   24.1302   25.6854   11.0550 H   0  0  0  0  0  0  0  0  0  0  0  0
   25.4464   26.9079   11.0550 H   0  0  0  0  0  0  0  0  0  0  0  0
   22.0442   28.7002   10.7401 H   0  0  0  0  0  0  0  0  0  0  0  0
   20.6964   27.4934   10.6976 H   0  0  0  0  0  0  0  0  0  0  0  0
   21.0648   29.4299   14.2018 H   0  0  0  0  0  0  0  0  0  0  0  0
   22.3651   29.6922   12.9319 H   0  0  0  0  0  0  0  0  0  0  0  0
   21.8903   31.8616   13.3332 H   0  0  0  0  0  0  0  0  0  0  0  0
   21.2310   32.0200   11.3090 H   0  0  0  0  0  0  0  0  0  0  0  0
   19.6246   30.8066   14.7181 H   0  0  0  0  0  0  0  0  0  0  0  0
   19.0299   33.4247   13.2453 H   0  0  0  0  0  0  0  0  0  0  0  0
   18.3213   31.7813   12.8403 H   0  0  0  0  0  0  0  0  0  0  0  0
   17.4364   30.5656   15.1528 H   0  0  0  0  0  0  0  0  0  0  0  0
   15.5623   30.9210   16.7552 H   0  0  0  0  0  0  0  0  0  0  0  0
   14.6439   33.2112   17.1168 H   0  0  0  0  0  0  0  0  0  0  0  0
   15.6121   35.1498   15.8832 H   0  0  0  0  0  0  0  0  0  0  0  0
   17.4938   34.8028   14.2898 H   0  0  0  0  0  0  0  0  0  0  0  0
   20.9650   33.5150   14.9090 H   0  0  0  0  0  0  0  0  0  0  0  0
   20.9047   34.6817   15.8812 H   0  0  0  0  0  0  0  0  0  0  0  0
   18.7929   34.4021   16.8895 H   0  0  0  0  0  0  0  0  0  0  0  0
   19.4825   33.9616   18.4682 H   0  0  0  0  0  0  0  0  0  0  0  0
   20.7135   37.4333   17.2489 H   0  0  0  0  0  0  0  0  0  0  0  0
   23.0815   37.0716   19.7014 H   0  0  0  0  0  0  0  0  0  0  0  0
   22.0094   36.3522   20.9214 H   0  0  0  0  0  0  0  0  0  0  0  0
   23.2587   34.8006   19.0864 H   0  0  0  0  0  0  0  0  0  0  0  0
   21.6413   34.3797   19.5790 H   0  0  0  0  0  0  0  0  0  0  0  0
   22.6371   35.8000   17.1189 H   0  0  0  0  0  0  0  0  0  0  0  0
   18.1196   25.8435   12.9709 H   0  0  0  0  0  0  0  0  0  0  0  0
   17.5616   23.9561   11.4319 H   0  0  0  0  0  0  0  0  0  0  0  0
   17.4753   24.1419    6.5579 H   0  0  0  0  0  0  0  0  0  0  0  0
   18.7268   28.4781    9.5797 H   0  0  0  0  0  0  0  0  0  0  0  0
  1  2  1  0
  2  3  1  0
  3  4  1  0
  4  5  1  0
  3  6  1  0
  6  7  1  0
  7  8  1  0
  8  9  1  0
  9 10  1  0
  9 11  1  0
 11 12  1  0
 12 13  1  0
 13 14  2  0
 14 15  1  0
 15 16  2  0
 16 17  1  0
 17 18  2  0
 11 19  1  0
 19 20  1  0
 20 21  2  0
 20 22  1  0
 22 23  1  0
 23 24  1  0
 24 25  1  0
 25 26  1  0
 26 27  1  0
 27 28  1  0
 28 29  1  0
 29 30  1  0
  7 31  1  0
 31 32  2  0
 31 33  2  0
 31 34  1  0
 34 35  2  0
 35 36  1  0
 36 37  2  0
 37 38  1  0
 38 39  2  0
 39 40  1  0
 40 41  1  0
 41 42  2  0
 18 13  1  0
 30 23  1  0
 42 34  1  0
 30 26  1  0
 41 37  1  0
  1 43  1  0
  1 44  1  0
  1 45  1  0
  2 46  1  0
  2 47  1  0
  3 48  1  0
  4 49  1  0
  4 50  1  0
  5 51  1  0
  5 52  1  0
  5 53  1  0
  6 54  1  0
  6 55  1  0
  8 56  1  0
  8 57  1  0
  9 58  1  1
 10 59  1  0
 11 60  1  1
 12 61  1  0
 12 62  1  0
 14 63  1  0
 15 64  1  0
 16 65  1  0
 17 66  1  0
 18 67  1  0
 19 68  1  0
 23 69  1  6
 24 70  1  0
 24 71  1  0
 26 72  1  6
 28 73  1  0
 28 74  1  0
 29 75  1  0
 29 76  1  0
 30 77  1  6
 35 78  1  0
 36 79  1  0
 39 80  1  0
 42 81  1  0
M  END
>  <meeko>  (2) 
{"is_sidechain": [false], "free_energy": -9.551, "intermolecular_energy": -17.539, "internal_energy": -2.52}

$$$$
3o9i_ligand
     RDKit          3D

 81 85  0  0  0  0  0  0  0  0999 V2000
   22.3060   35.5310   17.0260 C   0  0  0  0  0  0  0  0  0  0  0  0
   21.7220   34.2240   17.5470 C   0  0  0  0  0  0  0  0  0  0  0  0
   20.3430   33.8050   16.9850 C   0  0  0  0  0  0  0  0  0  0  0  0
   19.2250   34.8280   17.2920 C   0  0  0  0  0  0  0  0  0  0  0  0
   18.4600   34.6300   18.5910 C   0  0  0  0  0  0  0  0  0  0  0  0
   20.4070   33.3980   15.4970 C   0  0  0  0  0  0  0  0  0  0  0  0
   20.9800   32.0450   15.3370 N   0  0  0  0  0  0  0  0  0  0  0  0
   20.4740   31.0020   16.2780 C   0  0  0  0  0  0  0  0  0  0  0  0
   19.8820   29.7540   15.5970 C   0  0  1  0  0  0  0  0  0  0  0  0
   19.8390   28.6860   16.5490 O   0  0  0  0  0  0  0  0  0  0  0  0
   18.4820   30.0210   14.9640 C   0  0  2  0  0  0  0  0  0  0  0  0
   17.4420   30.4970   16.0100 C   0  0  0  0  0  0  0  0  0  0  0  0
   16.9310   31.9010   15.7910 C   0  0  0  0  0  0  0  0  0  0  0  0
   17.4030   32.6700   14.7180 C   0  0  0  0  0  0  0  0  0  0  0  0
   16.9380   33.9720   14.5220 C   0  0  0  0  0  0  0  0  0  0  0  0
   15.9970   34.5170   15.3940 C   0  0  0  0  0  0  0  0  0  0  0  0
   15.5170   33.7580   16.4600 C   0  0  0  0  0  0  0  0  0  0  0  0
   15.9780   32.4570   16.6560 C   0  0  0  0  0  0  0  0  0  0  0  0
   17.9640   28.8240   14.3000 N   0  0  0  0  0  0  0  0  0  0  0  0
   17.6490   28.7860   12.9780 C   0  0  0  0  0  0  0  0  0  0  0  0
   17.6980   29.7400   12.2170 O   0  0  0  0  0  0  0  0  0  0  0  0
   17.3050   27.5240   12.6370 O   0  0  0  0  0  0  0  0  0  0  0  0
   18.3760   26.7190   12.1400 C   0  0  1  0  0  0  0  0  0  0  0  0
   18.2390   25.2340   12.4510 C   0  0  0  0  0  0  0  0  0  0  0  0
   18.8830   24.5220   11.3870 O   0  0  0  0  0  0  0  0  0  0  0  0
   19.1060   25.4260   10.2990 C   0  0  1  0  0  0  0  0  0  0  0  0
   18.5430   24.9250    9.0860 O   0  0  0  0  0  0  0  0  0  0  0  0
   17.4590   25.7750    8.6990 C   0  0  0  0  0  0  0  0  0  0  0  0
   17.0680   26.5670    9.9250 C   0  0  0  0  0  0  0  0  0  0  0  0
   18.4020   26.7230   10.6310 C   0  0  1  0  0  0  0  0  0  0  0  0
   22.4780   31.8480   14.5780 S   0  0  0  0  0  0  0  0  0  0  0  0
   23.4430   31.4290   15.5720 O   0  0  0  0  0  0  0  0  0  0  0  0
   22.7060   33.0320   13.7720 O   0  0  0  0  0  0  0  0  0  0  0  0
   22.2940   30.4700   13.4560 C   0  0  0  0  0  0  0  0  0  0  0  0
   21.2410   30.4630   12.5380 C   0  0  0  0  0  0  0  0  0  0  0  0
   21.0870   29.3940   11.6490 C   0  0  0  0  0  0  0  0  0  0  0  0
   22.0100   28.3300   11.6640 C   0  0  0  0  0  0  0  0  0  0  0  0
   21.9710   27.2100   10.8490 N   0  0  0  0  0  0  0  0  0  0  0  0
   22.9950   26.4360   11.1190 C   0  0  0  0  0  0  0  0  0  0  0  0
   24.0600   26.9780   12.3450 S   0  0  0  0  0  0  0  0  0  0  0  0
   23.0810   28.3820   12.5610 C   0  0  0  0  0  0  0  0  0  0  0  0
   23.2550   29.4500   13.4560 C   0  0  0  0  0  0  0  0  0  0  0  0
   22.5913   36.1694   17.8752 H   0  0  0  0  0  0  0  0  0  0  0  0
   23.1942   35.3173   16.4133 H   0  0  0  0  0  0  0  0  0  0  0  0
   21.5542   36.0501   16.4133 H   0  0  0  0  0  0  0  0  0  0  0  0
   22.4362   33.4219   17.3093 H   0  0  0  0  0  0  0  0  0  0  0  0
   21.5573   34.3898   18.6219 H   0  0  0  0  0  0  0  0  0  0  0  0
   20.0574   32.8945   17.5321 H   0  0  0  0  0  0  0  0  0  0  0  0
   19.6857   35.8263   17.3247 H   0  0  0  0  0  0  0  0  0  0  0  0
   18.4808   34.6932   16.4933 H   0  0  0  0  0  0  0  0  0  0  0  0
   19.1333   34.8043   19.4432 H   0  0  0  0  0  0  0  0  0  0  0  0
   17.6216   35.3407   18.6348 H   0  0  0  0  0  0  0  0  0  0  0  0
   18.0717   33.6018   18.6348 H   0  0  0  0  0  0  0  0  0  0  0  0
   19.3900   33.4088   15.0780 H   0  0  0  0  0  0  0  0  0  0  0  0
   21.0523   34.1144   14.9674 H   0  0  0  0  0  0  0  0  0  0  0  0
   21.3110   30.6802   16.9151 H   0  0  0  0  0  0  0  0  0  0  0  0
   19.6529   31.4661   16.8441 H   0  0  0  0  0  0  0  0  0  0  0  0
   20.5331   29.4719   14.7565 H   0  0  0  0  0  0  0  0  0  0  0  0
   19.0100   28.1880   16.4240 H   0  0  0  0  0  0  0  0  0  0  0  0
   18.6316   30.8232   14.2264 H   0  0  0  0  0  0  0  0  0  0  0  0
   16.5835   29.8100   15.9781 H   0  0  0  0  0  0  0  0  0  0  0  0
   17.9553   30.4991   16.9829 H   0  0  0  0  0  0  0  0  0  0  0  0
   18.1447   32.2448   14.0258 H   0  0  0  0  0  0  0  0  0  0  0  0
   17.3149   34.5685   13.6781 H   0  0  0  0  0  0  0  0  0  0  0  0
   15.6339   35.5440   15.2412 H   0  0  0  0  0  0  0  0  0  0  0  0
   14.7731   34.1863   17.1479 H   0  0  0  0  0  0  0  0  0  0  0  0
   15.5909   31.8618   17.4962 H   0  0  0  0  0  0  0  0  0  0  0  0
   17.9760   27.9280   14.7730 H   0  0  0  0  0  0  0  0  0  0  0  0
   19.2612   27.1592   12.6223 H   0  0  0  0  0  0  0  0  0  0  0  0
   18.7261   25.0023   13.4097 H   0  0  0  0  0  0  0  0  0  0  0  0
   17.1805   24.9459   12.5319 H   0  0  0  0  0  0  0  0  0  0  0  0
   20.1891   25.5590   10.1605 H   0  0  0  0  0  0  0  0  0  0  0  0
   17.7785   26.4543    7.8950 H   0  0  0  0  0  0  0  0  0  0  0  0
   16.6101   25.1860    8.3216 H   0  0  0  0  0  0  0  0  0  0  0  0
   16.6425   27.5439    9.6520 H   0  0  0  0  0  0  0  0  0  0  0  0
   16.2925   26.0851   10.5385 H   0  0  0  0  0  0  0  0  0  0  0  0
   18.8326   27.6850   10.3162 H   0  0  0  0  0  0  0  0  0  0  0  0
   20.5298   31.3018   12.5141 H   0  0  0  0  0  0  0  0  0  0  0  0
   20.2465   29.3843   10.9394 H   0  0  0  0  0  0  0  0  0  0  0  0
   23.1608   25.4883   10.5857 H   0  0  0  0  0  0  0  0  0  0  0  0
   24.1189   29.4849   14.1360 H   0  0  0  0  0  0  0  0  0  0  0  0
  1  2  1  0
  2  3  1  0
  3  4  1  0
  4  5  1  0
  3  6  1  0
  6  7  1  0
  7  8  1  0
  8  9  1  0
  9 10  1  0
  9 11  1  0
 11 12  1  0
 12 13  1  0
 13 14  2  0
 14 15  1  0
 15 16  2  0
 16 17  1  0
 17 18  2  0
 11 19  1  0
 19 20  1  0
 20 21  2  0
 20 22  1  0
 22 23  1  0
 23 24  1  0
 24 25  1  0
 25 26  1  0
 26 27  1  0
 27 28  1  0
 28 29  1  0
 29 30  1  0
  7 31  1  0
 31 32  2  0
 31 33  2  0
 31 34  1  0
 34 35  2  0
 35 36  1  0
 36 37  2  0
 37 38  1  0
 38 39  2  0
 39 40  1  0
 40 41  1  0
 41 42  2  0
 18 13  1  0
 30 23  1  0
 42 34  1  0
 30 26  1  0
 41 37  1  0
  1 43  1  0
  1 44  1  0
  1 45  1  0
  2 46  1  0
  2 47  1  0
  3 48  1  0
  4 49  1  0
  4 50  1  0
  5 51  1  0
  5 52  1  0
  5 53  1  0
  6 54  1  0
  6 55  1  0
  8 56  1  0
  8 57  1  0
  9 58  1  6
 10 59  1  0
 11 60  1  6
 12 61  1  0
 12 62  1  0
 14 63  1  0
 15 64  1  0
 16 65  1  0
 17 66  1  0
 18 67  1  0
 19 68  1  0
 23 69  1  1
 24 70  1  0
 24 71  1  0
 26 72  1  6
 28 73  1  0
 28 74  1  0
 29 75  1  0
 29 76  1  0
 30 77  1  1
 35 78  1  0
 36 79  1  0
 39 80  1  0
 42 81  1  0
M  END
>  <meeko>  (3) 
{"is_sidechain": [false], "free_energy": -9.539, "intermolecular_energy": -16.513, "internal_energy": -3.523}

$$$$
3o9i_ligand
     RDKit          3D

 81 85  0  0  0  0  0  0  0  0999 V2000
   24.6470   26.6130   12.0130 C   0  0  0  0  0  0  0  0  0  0  0  0
   23.6730   27.7860   11.9970 C   0  0  0  0  0  0  0  0  0  0  0  0
   22.1900   27.4550   11.7090 C   0  0  0  0  0  0  0  0  0  0  0  0
   22.0090   26.2170   10.8000 C   0  0  0  0  0  0  0  0  0  0  0  0
   21.4210   24.9760   11.4520 C   0  0  0  0  0  0  0  0  0  0  0  0
   21.3330   27.4020   12.9920 C   0  0  0  0  0  0  0  0  0  0  0  0
   20.6640   28.6950   13.2430 N   0  0  0  0  0  0  0  0  0  0  0  0
   21.3510   29.6150   14.1960 C   0  0  0  0  0  0  0  0  0  0  0  0
   21.9070   30.9040   13.5610 C   0  0  1  0  0  0  0  0  0  0  0  0
   21.5030   30.9520   12.1890 O   0  0  0  0  0  0  0  0  0  0  0  0
   21.4810   32.1880   14.3360 C   0  0  2  0  0  0  0  0  0  0  0  0
   22.5990   32.7130   15.2700 C   0  0  0  0  0  0  0  0  0  0  0  0
   22.1410   33.7350   16.2840 C   0  0  0  0  0  0  0  0  0  0  0  0
   21.6220   34.9680   15.8660 C   0  0  0  0  0  0  0  0  0  0  0  0
   21.2090   35.9160   16.8030 C   0  0  0  0  0  0  0  0  0  0  0  0
   21.3080   35.6410   18.1650 C   0  0  0  0  0  0  0  0  0  0  0  0
   21.8170   34.4160   18.5920 C   0  0  0  0  0  0  0  0  0  0  0  0
   22.2280   33.4660   17.6570 C   0  0  0  0  0  0  0  0  0  0  0  0
   20.2770   31.9500   15.1340 N   0  0  0  0  0  0  0  0  0  0  0  0
   19.0320   32.3140   14.7270 C   0  0  0  0  0  0  0  0  0  0  0  0
   18.7800   32.9250   13.7000 O   0  0  0  0  0  0  0  0  0  0  0  0
   18.1220   31.8650   15.6200 O   0  0  0  0  0  0  0  0  0  0  0  0
   16.9710   32.6970   15.7810 C   0  0  1  0  0  0  0  0  0  0  0  0
   15.8750   32.0880   16.6450 C   0  0  0  0  0  0  0  0  0  0  0  0
   15.1930   33.1750   17.2830 O   0  0  0  0  0  0  0  0  0  0  0  0
   15.9850   34.3600   17.1420 C   0  0  1  0  0  0  0  0  0  0  0  0
   16.2470   34.9610   18.4100 O   0  0  0  0  0  0  0  0  0  0  0  0
   17.6460   34.8590   18.6860 C   0  0  0  0  0  0  0  0  0  0  0  0
   18.1930   33.7890   17.7690 C   0  0  0  0  0  0  0  0  0  0  0  0
   17.3130   33.9530   16.5440 C   0  0  1  0  0  0  0  0  0  0  0  0
   19.0060   28.8570   12.9530 S   0  0  0  0  0  0  0  0  0  0  0  0
   18.7920   30.0620   12.1800 O   0  0  0  0  0  0  0  0  0  0  0  0
   18.3310   28.6580   14.2210 O   0  0  0  0  0  0  0  0  0  0  0  0
   18.5480   27.4970   11.8880 C   0  0  0  0  0  0  0  0  0  0  0  0
   18.0730   26.3100   12.4500 C   0  0  0  0  0  0  0  0  0  0  0  0
   17.7050   25.2390   11.6290 C   0  0  0  0  0  0  0  0  0  0  0  0
   17.7940   25.3650   10.2290 C   0  0  0  0  0  0  0  0  0  0  0  0
   17.4720   24.3850    9.3040 N   0  0  0  0  0  0  0  0  0  0  0  0
   17.6530   24.8510    8.0910 C   0  0  0  0  0  0  0  0  0  0  0  0
   18.2120   26.4640    7.9690 S   0  0  0  0  0  0  0  0  0  0  0  0
   18.2290   26.5790    9.6900 C   0  0  0  0  0  0  0  0  0  0  0  0
   18.5950   27.6680   10.4980 C   0  0  0  0  0  0  0  0  0  0  0  0
   24.8743   26.3393   13.0539 H   0  0  0  0  0  0  0  0  0  0  0  0
   24.1937   25.7530   11.4983 H   0  0  0  0  0  0  0  0  0  0  0  0
   25.5757   26.9005   11.4983 H   0  0  0  0  0  0  0  0  0  0  0  0
   23.7205   28.2718   12.9827 H   0  0  0  0  0  0  0  0  0  0  0  0
   23.9961   28.4179   11.1566 H   0  0  0  0  0  0  0  0  0  0  0  0
   21.7994   28.3007   11.1239 H   0  0  0  0  0  0  0  0  0  0  0  0
   21.3455   26.5052    9.9713 H   0  0  0  0  0  0  0  0  0  0  0  0
   23.0257   25.9303   10.4933 H   0  0  0  0  0  0  0  0  0  0  0  0
   21.4696   25.0786   12.5461 H   0  0  0  0  0  0  0  0  0  0  0  0
   20.3723   24.8603   11.1408 H   0  0  0  0  0  0  0  0  0  0  0  0
   21.9956   24.0911   11.1408 H   0  0  0  0  0  0  0  0  0  0  0  0
   20.5689   26.6186   12.8807 H   0  0  0  0  0  0  0  0  0  0  0  0
   21.9943   27.1817   13.8430 H   0  0  0  0  0  0  0  0  0  0  0  0
   20.6299   29.9010   14.9758 H   0  0  0  0  0  0  0  0  0  0  0  0
   22.2182   29.0637   14.5886 H   0  0  0  0  0  0  0  0  0  0  0  0
   23.0051   30.8794   13.6203 H   0  0  0  0  0  0  0  0  0  0  0  0
   21.4510   30.0420   11.8450 H   0  0  0  0  0  0  0  0  0  0  0  0
   21.2776   32.9500   13.5692 H   0  0  0  0  0  0  0  0  0  0  0  0
   23.0229   31.8559   15.8137 H   0  0  0  0  0  0  0  0  0  0  0  0
   23.3325   33.2194   14.6254 H   0  0  0  0  0  0  0  0  0  0  0  0
   21.5397   35.1900   14.7918 H   0  0  0  0  0  0  0  0  0  0  0  0
   20.8047   36.8818   16.4656 H   0  0  0  0  0  0  0  0  0  0  0  0
   20.9847   36.3901   18.9028 H   0  0  0  0  0  0  0  0  0  0  0  0
   21.8947   34.1980   19.6674 H   0  0  0  0  0  0  0  0  0  0  0  0
   22.6234   32.4984   17.9996 H   0  0  0  0  0  0  0  0  0  0  0  0
   20.3140   31.3540   15.9520 H   0  0  0  0  0  0  0  0  0  0  0  0
   16.6347   32.8582   14.7462 H   0  0  0  0  0  0  0  0  0  0  0  0
   15.1735   31.5172   16.0188 H   0  0  0  0  0  0  0  0  0  0  0  0
   16.2993   31.3989   17.3901 H   0  0  0  0  0  0  0  0  0  0  0  0
   15.4427   35.0801   16.5117 H   0  0  0  0  0  0  0  0  0  0  0  0
   18.1428   35.8198   18.4861 H   0  0  0  0  0  0  0  0  0  0  0  0
   17.8235   34.6042   19.7413 H   0  0  0  0  0  0  0  0  0  0  0  0
   19.2513   33.9692   17.5293 H   0  0  0  0  0  0  0  0  0  0  0  0
   18.1721   32.7777   18.2012 H   0  0  0  0  0  0  0  0  0  0  0  0
   17.8373   34.6238   15.8475 H   0  0  0  0  0  0  0  0  0  0  0  0
   17.9879   26.2169   13.5428 H   0  0  0  0  0  0  0  0  0  0  0  0
   17.3467   24.2999   12.0760 H   0  0  0  0  0  0  0  0  0  0  0  0
   17.4559   24.2374    7.1995 H   0  0  0  0  0  0  0  0  0  0  0  0
   18.9084   28.6243   10.0539 H   0  0  0  0  0  0  0  0  0  0  0  0
  1  2  1  0
  2  3  1  0
  3  4  1  0
  4  5  1  0
  3  6  1  0
  6  7  1  0
  7  8  1  0
  8  9  1  0
  9 10  1  0
  9 11  1  0
 11 12  1  0
 12 13  1  0
 13 14  2  0
 14 15  1  0
 15 16  2  0
 16 17  1  0
 17 18  2  0
 11 19  1  0
 19 20  1  0
 20 21  2  0
 20 22  1  0
 22 23  1  0
 23 24  1  0
 24 25  1  0
 25 26  1  0
 26 27  1  0
 27 28  1  0
 28 29  1  0
 29 30  1  0
  7 31  1  0
 31 32  2  0
 31 33  2  0
 31 34  1  0
 34 35  2  0
 35 36  1  0
 36 37  2  0
 37 38  1  0
 38 39  2  0
 39 40  1  0
 40 41  1  0
 41 42  2  0
 18 13  1  0
 30 23  1  0
 42 34  1  0
 30 26  1  0
 41 37  1  0
  1 43  1  0
  1 44  1  0
  1 45  1  0
  2 46  1  0
  2 47  1  0
  3 48  1  0
  4 49  1  0
  4 50  1  0
  5 51  1  0
  5 52  1  0
  5 53  1  0
  6 54  1  0
  6 55  1  0
  8 56  1  0
  8 57  1  0
  9 58  1  6
 10 59  1  0
 11 60  1  6
 12 61  1  0
 12 62  1  0
 14 63  1  0
 15 64  1  0
 16 65  1  0
 17 66  1  0
 18 67  1  0
 19 68  1  0
 23 69  1  6
 24 70  1  0
 24 71  1  0
 26 72  1  6
 28 73  1  0
 28 74  1  0
 29 75  1  0
 29 76  1  0
 30 77  1  6
 35 78  1  0
 36 79  1  0
 39 80  1  0
 42 81  1  0
M  END
>  <meeko>  (4) 
{"is_sidechain": [false], "free_energy": -9.376, "intermolecular_energy": -16.237, "internal_energy": -3.497}

$$$$
3o9i_ligand
     RDKit          3D

 81 85  0  0  0  0  0  0  0  0999 V2000
   18.4740   34.6340   18.4580 C   0  0  0  0  0  0  0  0  0  0  0  0
   17.8920   34.8490   17.0670 C   0  0  0  0  0  0  0  0  0  0  0  0
   17.7620   33.5990   16.1660 C   0  0  0  0  0  0  0  0  0  0  0  0
   16.3570   33.4430   15.5410 C   0  0  0  0  0  0  0  0  0  0  0  0
   15.4890   32.3210   16.0880 C   0  0  0  0  0  0  0  0  0  0  0  0
   18.9060   33.4890   15.1340 C   0  0  0  0  0  0  0  0  0  0  0  0
   19.8420   32.4020   15.4860 N   0  0  0  0  0  0  0  0  0  0  0  0
   19.2670   31.2680   16.2680 C   0  0  0  0  0  0  0  0  0  0  0  0
   18.7480   30.0950   15.4160 C   0  0  1  0  0  0  0  0  0  0  0  0
   17.4370   29.7400   15.8680 O   0  0  0  0  0  0  0  0  0  0  0  0
   18.7690   30.4070   13.8880 C   0  0  2  0  0  0  0  0  0  0  0  0
   17.4570   29.9860   13.1810 C   0  0  0  0  0  0  0  0  0  0  0  0
   17.5340   28.6660   12.4490 C   0  0  0  0  0  0  0  0  0  0  0  0
   17.3620   28.6130   11.0590 C   0  0  0  0  0  0  0  0  0  0  0  0
   17.4230   27.3940   10.3840 C   0  0  0  0  0  0  0  0  0  0  0  0
   17.6590   26.2150   11.0900 C   0  0  0  0  0  0  0  0  0  0  0  0
   17.8370   26.2570   12.4720 C   0  0  0  0  0  0  0  0  0  0  0  0
   17.7790   27.4760   13.1470 C   0  0  0  0  0  0  0  0  0  0  0  0
   19.8920   29.7400   13.2270 N   0  0  0  0  0  0  0  0  0  0  0  0
   20.6730   30.3490   12.2950 C   0  0  0  0  0  0  0  0  0  0  0  0
   20.4970   31.4770   11.8620 O   0  0  0  0  0  0  0  0  0  0  0  0
   21.6860   29.5220   11.9530 O   0  0  0  0  0  0  0  0  0  0  0  0
   21.4060   28.1290   12.0980 C   0  0  1  0  0  0  0  0  0  0  0  0
   21.0530   27.4220   10.7960 C   0  0  0  0  0  0  0  0  0  0  0  0
   21.4870   26.0620   10.9280 O   0  0  0  0  0  0  0  0  0  0  0  0
   22.3640   25.9670   12.0560 C   0  0  1  0  0  0  0  0  0  0  0  0
   23.6160   25.3880   11.6910 O   0  0  0  0  0  0  0  0  0  0  0  0
   24.6370   26.3810   11.8230 C   0  0  0  0  0  0  0  0  0  0  0  0
   23.9380   27.7210   11.8540 C   0  0  0  0  0  0  0  0  0  0  0  0
   22.6330   27.3730   12.5450 C   0  0  1  0  0  0  0  0  0  0  0  0
   21.5060   32.7000   15.5230 S   0  0  0  0  0  0  0  0  0  0  0  0
   21.9420   33.0280   14.1830 O   0  0  0  0  0  0  0  0  0  0  0  0
   22.1180   31.6100   16.2580 O   0  0  0  0  0  0  0  0  0  0  0  0
   21.7270   34.1850   16.4930 C   0  0  0  0  0  0  0  0  0  0  0  0
   21.5010   35.4320   15.9060 C   0  0  0  0  0  0  0  0  0  0  0  0
   21.6650   36.6040   16.6540 C   0  0  0  0  0  0  0  0  0  0  0  0
   22.0370   36.5240   18.0100 C   0  0  0  0  0  0  0  0  0  0  0  0
   22.2420   37.5990   18.8590 N   0  0  0  0  0  0  0  0  0  0  0  0
   22.5570   37.1590   20.0550 C   0  0  0  0  0  0  0  0  0  0  0  0
   22.6330   35.4600   20.2470 S   0  0  0  0  0  0  0  0  0  0  0  0
   22.2130   35.2620   18.5860 C   0  0  0  0  0  0  0  0  0  0  0  0
   22.0460   34.0760   17.8530 C   0  0  0  0  0  0  0  0  0  0  0  0
   17.7256   34.9105   19.2153 H   0  0  0  0  0  0  0  0  0  0  0  0
   18.7471   33.5756   18.5816 H   0  0  0  0  0  0  0  0  0  0  0  0
   19.3696   35.2606   18.5816 H   0  0  0  0  0  0  0  0  0  0  0  0
   16.8862   35.2773   17.1894 H   0  0  0  0  0  0  0  0  0  0  0  0
   18.6111   35.5025   16.5514 H   0  0  0  0  0  0  0  0  0  0  0  0
   17.8769   32.7322   16.8334 H   0  0  0  0  0  0  0  0  0  0  0  0
   15.8164   34.3885   15.6952 H   0  0  0  0  0  0  0  0  0  0  0  0
   16.5357   33.1837   14.4871 H   0  0  0  0  0  0  0  0  0  0  0  0
   15.5080   32.3455   17.1876 H   0  0  0  0  0  0  0  0  0  0  0  0
   14.4551   32.4524   15.7361 H   0  0  0  0  0  0  0  0  0  0  0  0
   15.8759   31.3533   15.7361 H   0  0  0  0  0  0  0  0  0  0  0  0
   18.4759   33.2847   14.1424 H   0  0  0  0  0  0  0  0  0  0  0  0
   19.4618   34.4383   15.1285 H   0  0  0  0  0  0  0  0  0  0  0  0
   20.0490   30.8838   16.9394 H   0  0  0  0  0  0  0  0  0  0  0  0
   18.3953   31.6715   16.8040 H   0  0  0  0  0  0  0  0  0  0  0  0
   19.4260   29.2390   15.5487 H   0  0  0  0  0  0  0  0  0  0  0  0
   17.2130   28.8590   15.5170 H   0  0  0  0  0  0  0  0  0  0  0  0
   18.8790   31.4982   13.8037 H   0  0  0  0  0  0  0  0  0  0  0  0
   16.6658   29.9112   13.9416 H   0  0  0  0  0  0  0  0  0  0  0  0
   17.2519   30.7536   12.4202 H   0  0  0  0  0  0  0  0  0  0  0  0
   17.1775   29.5399   10.4961 H   0  0  0  0  0  0  0  0  0  0  0  0
   17.2847   27.3627    9.2932 H   0  0  0  0  0  0  0  0  0  0  0  0
   17.7046   25.2536   10.5575 H   0  0  0  0  0  0  0  0  0  0  0  0
   18.0234   25.3279   13.0306 H   0  0  0  0  0  0  0  0  0  0  0  0
   17.9268   27.5035   14.2367 H   0  0  0  0  0  0  0  0  0  0  0  0
   20.2280   28.8460   13.5640 H   0  0  0  0  0  0  0  0  0  0  0  0
   20.5676   28.1181   12.8100 H   0  0  0  0  0  0  0  0  0  0  0  0
   19.9663   27.4575   10.6292 H   0  0  0  0  0  0  0  0  0  0  0  0
   21.5415   27.9091    9.9392 H   0  0  0  0  0  0  0  0  0  0  0  0
   21.8915   25.3375   12.8245 H   0  0  0  0  0  0  0  0  0  0  0  0
   25.1993   26.2250   12.7555 H   0  0  0  0  0  0  0  0  0  0  0  0
   25.3520   26.3268   10.9888 H   0  0  0  0  0  0  0  0  0  0  0  0
   24.5129   28.4596   12.4319 H   0  0  0  0  0  0  0  0  0  0  0  0
   23.8091   28.1798   10.8626 H   0  0  0  0  0  0  0  0  0  0  0  0
   22.7637   27.5719   13.6190 H   0  0  0  0  0  0  0  0  0  0  0  0
   21.1929   35.4935   14.8518 H   0  0  0  0  0  0  0  0  0  0  0  0
   21.5037   37.5852   16.1837 H   0  0  0  0  0  0  0  0  0  0  0  0
   22.7613   37.8459   20.8896 H   0  0  0  0  0  0  0  0  0  0  0  0
   22.1620   33.0923   18.3314 H   0  0  0  0  0  0  0  0  0  0  0  0
  1  2  1  0
  2  3  1  0
  3  4  1  0
  4  5  1  0
  3  6  1  0
  6  7  1  0
  7  8  1  0
  8  9  1  0
  9 10  1  0
  9 11  1  0
 11 12  1  0
 12 13  1  0
 13 14  2  0
 14 15  1  0
 15 16  2  0
 16 17  1  0
 17 18  2  0
 11 19  1  0
 19 20  1  0
 20 21  2  0
 20 22  1  0
 22 23  1  0
 23 24  1  0
 24 25  1  0
 25 26  1  0
 26 27  1  0
 27 28  1  0
 28 29  1  0
 29 30  1  0
  7 31  1  0
 31 32  2  0
 31 33  2  0
 31 34  1  0
 34 35  2  0
 35 36  1  0
 36 37  2  0
 37 38  1  0
 38 39  2  0
 39 40  1  0
 40 41  1  0
 41 42  2  0
 18 13  1  0
 30 23  1  0
 42 34  1  0
 30 26  1  0
 41 37  1  0
  1 43  1  0
  1 44  1  0
  1 45  1  0
  2 46  1  0
  2 47  1  0
  3 48  1  0
  4 49  1  0
  4 50  1  0
  5 51  1  0
  5 52  1  0
  5 53  1  0
  6 54  1  0
  6 55  1  0
  8 56  1  0
  8 57  1  0
  9 58  1  6
 10 59  1  0
 11 60  1  1
 12 61  1  0
 12 62  1  0
 14 63  1  0
 15 64  1  0
 16 65  1  0
 17 66  1  0
 18 67  1  0
 19 68  1  0
 23 69  1  1
 24 70  1  0
 24 71  1  0
 26 72  1  1
 28 73  1  0
 28 74  1  0
 29 75  1  0
 29 76  1  0
 30 77  1  1
 35 78  1  0
 36 79  1  0
 39 80  1  0
 42 81  1  0
M  END
>  <meeko>  (5) 
{"is_sidechain": [false], "free_energy": -9.095, "intermolecular_energy": -16.254, "internal_energy": -2.961}

$$$$
3o9i_ligand
     RDKit          3D

 81 85  0  0  0  0  0  0  0  0999 V2000
   15.6200   32.3130   16.3490 C   0  0  0  0  0  0  0  0  0  0  0  0
   16.1160   33.6840   15.9040 C   0  0  0  0  0  0  0  0  0  0  0  0
   17.5800   34.0410   16.2520 C   0  0  0  0  0  0  0  0  0  0  0  0
   17.6990   35.2510   17.2080 C   0  0  0  0  0  0  0  0  0  0  0  0
   18.2620   34.9720   18.5920 C   0  0  0  0  0  0  0  0  0  0  0  0
   18.3960   32.8150   16.7150 C   0  0  0  0  0  0  0  0  0  0  0  0
   19.3630   32.3950   15.6790 N   0  0  0  0  0  0  0  0  0  0  0  0
   18.8160   31.5630   14.5680 C   0  0  0  0  0  0  0  0  0  0  0  0
   18.9030   30.0420   14.7990 C   0  0  1  0  0  0  0  0  0  0  0  0
   17.7710   29.6270   15.5700 O   0  0  0  0  0  0  0  0  0  0  0  0
   19.0230   29.2390   13.4680 C   0  0  2  0  0  0  0  0  0  0  0  0
   17.8430   28.2570   13.2610 C   0  0  0  0  0  0  0  0  0  0  0  0
   17.9830   27.3520   12.0610 C   0  0  0  0  0  0  0  0  0  0  0  0
   17.9700   25.9590   12.2150 C   0  0  0  0  0  0  0  0  0  0  0  0
   18.1100   25.1220   11.1080 C   0  0  0  0  0  0  0  0  0  0  0  0
   18.2630   25.6680    9.8340 C   0  0  0  0  0  0  0  0  0  0  0  0
   18.2720   27.0510    9.6690 C   0  0  0  0  0  0  0  0  0  0  0  0
   18.1290   27.8890   10.7740 C   0  0  0  0  0  0  0  0  0  0  0  0
   20.2760   28.4820   13.4170 N   0  0  0  0  0  0  0  0  0  0  0  0
   21.4070   28.9560   12.8320 C   0  0  0  0  0  0  0  0  0  0  0  0
   21.4960   30.0190   12.2360 O   0  0  0  0  0  0  0  0  0  0  0  0
   22.4180   28.0840   13.0420 O   0  0  0  0  0  0  0  0  0  0  0  0
   23.2360   27.8200   11.9000 C   0  0  1  0  0  0  0  0  0  0  0  0
   24.5110   27.0460   12.2100 C   0  0  0  0  0  0  0  0  0  0  0  0
   24.8250   26.2740   11.0440 O   0  0  0  0  0  0  0  0  0  0  0  0
   23.6810   26.2560   10.1830 C   0  0  1  0  0  0  0  0  0  0  0  0
   23.2940   24.9190    9.8630 O   0  0  0  0  0  0  0  0  0  0  0  0
   22.0220   24.6540   10.4590 C   0  0  0  0  0  0  0  0  0  0  0  0
   21.8160   25.7020   11.5290 C   0  0  0  0  0  0  0  0  0  0  0  0
   22.5340   26.8980   10.9330 C   0  0  1  0  0  0  0  0  0  0  0  0
   21.0150   32.3520   16.0370 S   0  0  0  0  0  0  0  0  0  0  0  0
   21.7510   32.2690   14.7930 O   0  0  0  0  0  0  0  0  0  0  0  0
   21.2000   31.3590   17.0780 O   0  0  0  0  0  0  0  0  0  0  0  0
   21.4170   33.9430   16.7440 C   0  0  0  0  0  0  0  0  0  0  0  0
   21.2550   35.1000   15.9780 C   0  0  0  0  0  0  0  0  0  0  0  0
   21.5600   36.3530   16.5190 C   0  0  0  0  0  0  0  0  0  0  0  0
   22.0110   36.4520   17.8500 C   0  0  0  0  0  0  0  0  0  0  0  0
   22.3550   37.6230   18.5060 N   0  0  0  0  0  0  0  0  0  0  0  0
   22.7100   37.3470   19.7380 C   0  0  0  0  0  0  0  0  0  0  0  0
   22.6610   35.6980   20.1960 S   0  0  0  0  0  0  0  0  0  0  0  0
   22.1200   35.2840   18.6110 C   0  0  0  0  0  0  0  0  0  0  0  0
   21.8120   34.0180   18.0860 C   0  0  0  0  0  0  0  0  0  0  0  0
   15.6037   32.2679   17.4480 H   0  0  0  0  0  0  0  0  0  0  0  0
   14.6046   32.1464   15.9601 H   0  0  0  0  0  0  0  0  0  0  0  0
   16.2938   31.5353   15.9601 H   0  0  0  0  0  0  0  0  0  0  0  0
   16.0111   33.7373   14.8103 H   0  0  0  0  0  0  0  0  0  0  0  0
   15.5024   34.4075   16.4609 H   0  0  0  0  0  0  0  0  0  0  0  0
   18.0435   34.3707   15.3105 H   0  0  0  0  0  0  0  0  0  0  0  0
   18.3511   35.9943   16.7260 H   0  0  0  0  0  0  0  0  0  0  0  0
   16.6661   35.5892   17.3778 H   0  0  0  0  0  0  0  0  0  0  0  0
   17.5517   35.3240   19.3546 H   0  0  0  0  0  0  0  0  0  0  0  0
   18.4221   33.8903   18.7115 H   0  0  0  0  0  0  0  0  0  0  0  0
   19.2197   35.4998   18.7115 H   0  0  0  0  0  0  0  0  0  0  0  0
   18.9436   33.0743   17.6331 H   0  0  0  0  0  0  0  0  0  0  0  0
   17.7005   31.9832   16.9004 H   0  0  0  0  0  0  0  0  0  0  0  0
   17.7575   31.8286   14.4303 H   0  0  0  0  0  0  0  0  0  0  0  0
   19.4350   31.7788   13.6847 H   0  0  0  0  0  0  0  0  0  0  0  0
   19.8261   29.8239   15.3560 H   0  0  0  0  0  0  0  0  0  0  0  0
   17.7280   30.1680   16.3790 H   0  0  0  0  0  0  0  0  0  0  0  0
   19.0034   29.9870   12.6617 H   0  0  0  0  0  0  0  0  0  0  0  0
   17.7595   27.6266   14.1585 H   0  0  0  0  0  0  0  0  0  0  0  0
   16.9502   28.8747   13.0837 H   0  0  0  0  0  0  0  0  0  0  0  0
   17.8484   25.5221   13.2172 H   0  0  0  0  0  0  0  0  0  0  0  0
   18.0997   24.0300   11.2401 H   0  0  0  0  0  0  0  0  0  0  0  0
   18.3763   25.0080    8.9613 H   0  0  0  0  0  0  0  0  0  0  0  0
   18.3922   27.4830    8.6646 H   0  0  0  0  0  0  0  0  0  0  0  0
   18.1307   28.9802   10.6351 H   0  0  0  0  0  0  0  0  0  0  0  0
   20.3870   27.6370   13.9660 H   0  0  0  0  0  0  0  0  0  0  0  0
   23.4518   28.8258   11.5105 H   0  0  0  0  0  0  0  0  0  0  0  0
   25.3316   27.7435   12.4338 H   0  0  0  0  0  0  0  0  0  0  0  0
   24.3729   26.3958   13.0865 H   0  0  0  0  0  0  0  0  0  0  0  0
   23.9262   26.7885    9.2522 H   0  0  0  0  0  0  0  0  0  0  0  0
   21.2269   24.7238    9.7021 H   0  0  0  0  0  0  0  0  0  0  0  0
   21.9889   23.6409   10.8863 H   0  0  0  0  0  0  0  0  0  0  0  0
   20.7474   25.9123   11.6834 H   0  0  0  0  0  0  0  0  0  0  0  0
   22.1896   25.4063   12.5204 H   0  0  0  0  0  0  0  0  0  0  0  0
   21.7854   27.4989   10.3958 H   0  0  0  0  0  0  0  0  0  0  0  0
   20.8858   35.0251   14.9445 H   0  0  0  0  0  0  0  0  0  0  0  0
   21.4480   37.2597   15.9064 H   0  0  0  0  0  0  0  0  0  0  0  0
   23.0228   38.1337   20.4403 H   0  0  0  0  0  0  0  0  0  0  0  0
   21.8789   33.1139   18.7090 H   0  0  0  0  0  0  0  0  0  0  0  0
  1  2  1  0
  2  3  1  0
  3  4  1  0
  4  5  1  0
  3  6  1  0
  6  7  1  0
  7  8  1  0
  8  9  1  0
  9 10  1  0
  9 11  1  0
 11 12  1  0
 12 13  1  0
 13 14  2  0
 14 15  1  0
 15 16  2  0
 16 17  1  0
 17 18  2  0
 11 19  1  0
 19 20  1  0
 20 21  2  0
 20 22  1  0
 22 23  1  0
 23 24  1  0
 24 25  1  0
 25 26  1  0
 26 27  1  0
 27 28  1  0
 28 29  1  0
 29 30  1  0
  7 31  1  0
 31 32  2  0
 31 33  2  0
 31 34  1  0
 34 35  2  0
 35 36  1  0
 36 37  2  0
 37 38  1  0
 38 39  2  0
 39 40  1  0
 40 41  1  0
 41 42  2  0
 18 13  1  0
 30 23  1  0
 42 34  1  0
 30 26  1  0
 41 37  1  0
  1 43  1  0
  1 44  1  0
  1 45  1  0
  2 46  1  0
  2 47  1  0
  3 48  1  0
  4 49  1  0
  4 50  1  0
  5 51  1  0
  5 52  1  0
  5 53  1  0
  6 54  1  0
  6 55  1  0
  8 56  1  0
  8 57  1  0
  9 58  1  1
 10 59  1  0
 11 60  1  6
 12 61  1  0
 12 62  1  0
 14 63  1  0
 15 64  1  0
 16 65  1  0
 17 66  1  0
 18 67  1  0
 19 68  1  0
 23 69  1  6
 24 70  1  0
 24 71  1  0
 26 72  1  6
 28 73  1  0
 28 74  1  0
 29 75  1  0
 29 76  1  0
 30 77  1  6
 35 78  1  0
 36 79  1  0
 39 80  1  0
 42 81  1  0
M  END
>  <meeko>  (6) 
{"is_sidechain": [false], "free_energy": -9.005, "intermolecular_energy": -15.811, "internal_energy": -3.238}

$$$$
3o9i_ligand
     RDKit          3D

 81 85  0  0  0  0  0  0  0  0999 V2000
   17.4230   26.8880   13.8660 C   0  0  0  0  0  0  0  0  0  0  0  0
   18.1640   28.1790   14.1950 C   0  0  0  0  0  0  0  0  0  0  0  0
   18.1330   29.2920   13.1210 C   0  0  0  0  0  0  0  0  0  0  0  0
   17.8560   28.7550   11.6980 C   0  0  0  0  0  0  0  0  0  0  0  0
   16.4180   28.8310   11.2100 C   0  0  0  0  0  0  0  0  0  0  0  0
   17.2210   30.4730   13.5170 C   0  0  0  0  0  0  0  0  0  0  0  0
   17.9260   31.4170   14.4100 N   0  0  0  0  0  0  0  0  0  0  0  0
   19.1160   32.1060   13.8300 C   0  0  0  0  0  0  0  0  0  0  0  0
   20.1080   31.1760   13.1060 C   0  0  1  0  0  0  0  0  0  0  0  0
   20.3700   31.7070   11.8030 O   0  0  0  0  0  0  0  0  0  0  0  0
   21.4230   30.9540   13.9150 C   0  0  2  0  0  0  0  0  0  0  0  0
   22.2650   32.2480   14.0410 C   0  0  0  0  0  0  0  0  0  0  0  0
   22.1260   32.9600   15.3660 C   0  0  0  0  0  0  0  0  0  0  0  0
   22.4640   32.3100   16.5610 C   0  0  0  0  0  0  0  0  0  0  0  0
   22.3260   32.9640   17.7860 C   0  0  0  0  0  0  0  0  0  0  0  0
   21.8500   34.2740   17.8290 C   0  0  0  0  0  0  0  0  0  0  0  0
   21.5170   34.9310   16.6460 C   0  0  0  0  0  0  0  0  0  0  0  0
   21.6570   34.2800   15.4210 C   0  0  0  0  0  0  0  0  0  0  0  0
   22.2520   29.9130   13.3040 N   0  0  0  0  0  0  0  0  0  0  0  0
   22.1900   28.6050   13.6690 C   0  0  0  0  0  0  0  0  0  0  0  0
   21.4990   28.1610   14.5720 O   0  0  0  0  0  0  0  0  0  0  0  0
   22.9870   27.8770   12.8560 O   0  0  0  0  0  0  0  0  0  0  0  0
   22.3910   26.6900   12.3290 C   0  0  1  0  0  0  0  0  0  0  0  0
   21.1820   26.9400   11.4370 C   0  0  0  0  0  0  0  0  0  0  0  0
   21.1430   25.8750   10.4780 O   0  0  0  0  0  0  0  0  0  0  0  0
   22.4000   25.1900   10.5000 C   0  0  1  0  0  0  0  0  0  0  0  0
   22.9840   25.1350    9.1990 O   0  0  0  0  0  0  0  0  0  0  0  0
   24.1720   25.9320    9.1940 C   0  0  0  0  0  0  0  0  0  0  0  0
   24.0870   26.8460   10.3950 C   0  0  0  0  0  0  0  0  0  0  0  0
   23.3350   25.9800   11.3890 C   0  0  1  0  0  0  0  0  0  0  0  0
   17.7630   31.2720   16.0870 S   0  0  0  0  0  0  0  0  0  0  0  0
   19.0840   31.1460   16.6660 O   0  0  0  0  0  0  0  0  0  0  0  0
   16.7460   30.2660   16.3310 O   0  0  0  0  0  0  0  0  0  0  0  0
   17.1160   32.8330   16.6650 C   0  0  0  0  0  0  0  0  0  0  0  0
   15.7340   33.0340   16.7090 C   0  0  0  0  0  0  0  0  0  0  0  0
   15.2120   34.2490   17.1640 C   0  0  0  0  0  0  0  0  0  0  0  0
   16.0820   35.2670   17.6010 C   0  0  0  0  0  0  0  0  0  0  0  0
   15.7010   36.5160   18.0660 N   0  0  0  0  0  0  0  0  0  0  0  0
   16.7680   37.2000   18.4060 C   0  0  0  0  0  0  0  0  0  0  0  0
   18.2760   36.4170   18.1990 S   0  0  0  0  0  0  0  0  0  0  0  0
   17.4590   35.0250   17.5910 C   0  0  0  0  0  0  0  0  0  0  0  0
   18.0000   33.8090   17.1430 C   0  0  0  0  0  0  0  0  0  0  0  0
   17.1334   26.3834   14.7995 H   0  0  0  0  0  0  0  0  0  0  0  0
   16.5215   27.1216   13.2805 H   0  0  0  0  0  0  0  0  0  0  0  0
   18.0794   26.2274   13.2805 H   0  0  0  0  0  0  0  0  0  0  0  0
   17.7231   28.5911   15.1146 H   0  0  0  0  0  0  0  0  0  0  0  0
   19.2220   27.8906   14.2813 H   0  0  0  0  0  0  0  0  0  0  0  0
   19.1527   29.7024   13.0798 H   0  0  0  0  0  0  0  0  0  0  0  0
   18.4773   29.3315   10.9969 H   0  0  0  0  0  0  0  0  0  0  0  0
   18.0911   27.6813   11.7422 H   0  0  0  0  0  0  0  0  0  0  0  0
   15.7388   28.8669   12.0745 H   0  0  0  0  0  0  0  0  0  0  0  0
   16.2848   29.7374   10.6012 H   0  0  0  0  0  0  0  0  0  0  0  0
   16.1900   27.9437   10.6012 H   0  0  0  0  0  0  0  0  0  0  0  0
   16.9083   31.0057   12.6068 H   0  0  0  0  0  0  0  0  0  0  0  0
   16.3470   30.0738   14.0525 H   0  0  0  0  0  0  0  0  0  0  0  0
   18.7599   32.8559   13.1082 H   0  0  0  0  0  0  0  0  0  0  0  0
   19.6636   32.5463   14.6763 H   0  0  0  0  0  0  0  0  0  0  0  0
   19.6507   30.1800   13.0124 H   0  0  0  0  0  0  0  0  0  0  0  0
   20.0510   32.6270   11.7700 H   0  0  0  0  0  0  0  0  0  0  0  0
   21.1090   30.6398   14.9213 H   0  0  0  0  0  0  0  0  0  0  0  0
   23.3238   31.9837   13.9025 H   0  0  0  0  0  0  0  0  0  0  0  0
   21.8903   32.9408   13.2731 H   0  0  0  0  0  0  0  0  0  0  0  0
   22.8408   31.2769   16.5330 H   0  0  0  0  0  0  0  0  0  0  0  0
   22.5930   32.4456   18.7187 H   0  0  0  0  0  0  0  0  0  0  0  0
   21.7376   34.7879   18.7951 H   0  0  0  0  0  0  0  0  0  0  0  0
   21.1431   35.9650   16.6787 H   0  0  0  0  0  0  0  0  0  0  0  0
   21.3975   34.8062   14.4905 H   0  0  0  0  0  0  0  0  0  0  0  0
   22.7880   30.1100   12.4670 H   0  0  0  0  0  0  0  0  0  0  0  0
   22.1230   26.1247   13.2338 H   0  0  0  0  0  0  0  0  0  0  0  0
   20.2615   26.9403   12.0392 H   0  0  0  0  0  0  0  0  0  0  0  0
   21.2577   27.9168   10.9369 H   0  0  0  0  0  0  0  0  0  0  0  0
   22.2407   24.1636   10.8620 H   0  0  0  0  0  0  0  0  0  0  0  0
   25.0607   25.2882    9.2697 H   0  0  0  0  0  0  0  0  0  0  0  0
   24.2567   26.5101    8.2620 H   0  0  0  0  0  0  0  0  0  0  0  0
   25.0871   27.1099   10.7695 H   0  0  0  0  0  0  0  0  0  0  0  0
   23.6020   27.8113   10.1877 H   0  0  0  0  0  0  0  0  0  0  0  0
   24.0821   25.4619   12.0082 H   0  0  0  0  0  0  0  0  0  0  0  0
   15.0536   32.2330   16.3843 H   0  0  0  0  0  0  0  0  0  0  0  0
   14.1239   34.4094   17.1806 H   0  0  0  0  0  0  0  0  0  0  0  0
   16.6970   38.2233   18.8033 H   0  0  0  0  0  0  0  0  0  0  0  0
   19.0848   33.6284   17.1667 H   0  0  0  0  0  0  0  0  0  0  0  0
  1  2  1  0
  2  3  1  0
  3  4  1  0
  4  5  1  0
  3  6  1  0
  6  7  1  0
  7  8  1  0
  8  9  1  0
  9 10  1  0
  9 11  1  0
 11 12  1  0
 12 13  1  0
 13 14  2  0
 14 15  1  0
 15 16  2  0
 16 17  1  0
 17 18  2  0
 11 19  1  0
 19 20  1  0
 20 21  2  0
 20 22  1  0
 22 23  1  0
 23 24  1  0
 24 25  1  0
 25 26  1  0
 26 27  1  0
 27 28  1  0
 28 29  1  0
 29 30  1  0
  7 31  1  0
 31 32  2  0
 31 33  2  0
 31 34  1  0
 34 35  2  0
 35 36  1  0
 36 37  2  0
 37 38  1  0
 38 39  2  0
 39 40  1  0
 40 41  1  0
 41 42  2  0
 18 13  1  0
 30 23  1  0
 42 34  1  0
 30 26  1  0
 41 37  1  0
  1 43  1  0
  1 44  1  0
  1 45  1  0
  2 46  1  0
  2 47  1  0
  3 48  1  0
  4 49  1  0
  4 50  1  0
  5 51  1  0
  5 52  1  0
  5 53  1  0
  6 54  1  0
  6 55  1  0
  8 56  1  0
  8 57  1  0
  9 58  1  6
 10 59  1  0
 11 60  1  1
 12 61  1  0
 12 62  1  0
 14 63  1  0
 15 64  1  0
 16 65  1  0
 17 66  1  0
 18 67  1  0
 19 68  1  0
 23 69  1  1
 24 70  1  0
 24 71  1  0
 26 72  1  1
 28 73  1  0
 28 74  1  0
 29 75  1  0
 29 76  1  0
 30 77  1  1
 35 78  1  0
 36 79  1  0
 39 80  1  0
 42 81  1  0
M  END
>  <meeko>  (7) 
{"is_sidechain": [false], "free_energy": -8.997, "intermolecular_energy": -17.298, "internal_energy": -1.737}

$$$$
3o9i_ligand
     RDKit          3D

 81 85  0  0  0  0  0  0  0  0999 V2000
   21.8630   35.3000   16.7350 C   0  0  0  0  0  0  0  0  0  0  0  0
   20.8110   34.1980   16.7760 C   0  0  0  0  0  0  0  0  0  0  0  0
   21.1730   32.8640   16.0800 C   0  0  0  0  0  0  0  0  0  0  0  0
   22.6480   32.4500   16.2900 C   0  0  0  0  0  0  0  0  0  0  0  0
   23.5640   32.5620   15.0820 C   0  0  0  0  0  0  0  0  0  0  0  0
   20.1700   31.7360   16.4020 C   0  0  0  0  0  0  0  0  0  0  0  0
   19.7640   31.0150   15.1770 N   0  0  0  0  0  0  0  0  0  0  0  0
   20.7820   30.0970   14.5880 C   0  0  0  0  0  0  0  0  0  0  0  0
   20.4100   28.6030   14.6440 C   0  0  1  0  0  0  0  0  0  0  0  0
   19.3310   28.4300   15.5670 O   0  0  0  0  0  0  0  0  0  0  0  0
   20.0710   28.0150   13.2390 C   0  0  2  0  0  0  0  0  0  0  0  0
   18.6630   27.3700   13.1930 C   0  0  0  0  0  0  0  0  0  0  0  0
   18.2330   26.9010   11.8240 C   0  0  0  0  0  0  0  0  0  0  0  0
   17.7910   25.5850   11.6290 C   0  0  0  0  0  0  0  0  0  0  0  0
   17.4030   25.1490   10.3620 C   0  0  0  0  0  0  0  0  0  0  0  0
   17.4520   26.0220    9.2770 C   0  0  0  0  0  0  0  0  0  0  0  0
   17.8850   27.3330    9.4600 C   0  0  0  0  0  0  0  0  0  0  0  0
   18.2700   27.7730   10.7260 C   0  0  0  0  0  0  0  0  0  0  0  0
   21.0580   27.0150   12.8310 N   0  0  0  0  0  0  0  0  0  0  0  0
   21.9900   27.2410   11.8670 C   0  0  0  0  0  0  0  0  0  0  0  0
   22.0730   28.2590   11.1980 O   0  0  0  0  0  0  0  0  0  0  0  0
   22.8220   26.1790   11.7930 O   0  0  0  0  0  0  0  0  0  0  0  0
   22.3090   25.0570   11.0710 C   0  0  1  0  0  0  0  0  0  0  0  0
   21.0420   25.3500   10.2780 C   0  0  0  0  0  0  0  0  0  0  0  0
   21.0520   24.4810    9.1390 O   0  0  0  0  0  0  0  0  0  0  0  0
   22.3640   23.9260    8.9950 C   0  0  1  0  0  0  0  0  0  0  0  0
   22.8880   24.1670    7.6890 O   0  0  0  0  0  0  0  0  0  0  0  0
   24.0000   25.0600    7.7980 C   0  0  0  0  0  0  0  0  0  0  0  0
   23.8910   25.7260    9.1510 C   0  0  0  0  0  0  0  0  0  0  0  0
   23.2660   24.6250    9.9880 C   0  0  1  0  0  0  0  0  0  0  0  0
   18.5140   31.6250   14.2160 S   0  0  0  0  0  0  0  0  0  0  0  0
   17.8050   30.5100   13.6250 O   0  0  0  0  0  0  0  0  0  0  0  0
   19.0860   32.6670   13.3840 O   0  0  0  0  0  0  0  0  0  0  0  0
   17.3600   32.4100   15.3320 C   0  0  0  0  0  0  0  0  0  0  0  0
   16.4410   31.6290   16.0350 C   0  0  0  0  0  0  0  0  0  0  0  0
   15.5350   32.2280   16.9170 C   0  0  0  0  0  0  0  0  0  0  0  0
   15.5640   33.6230   17.1120 C   0  0  0  0  0  0  0  0  0  0  0  0
   14.7230   34.3430   17.9440 N   0  0  0  0  0  0  0  0  0  0  0  0
   15.0450   35.6140   17.8990 C   0  0  0  0  0  0  0  0  0  0  0  0
   16.3520   36.0350   16.8760 S   0  0  0  0  0  0  0  0  0  0  0  0
   16.5240   34.3770   16.4310 C   0  0  0  0  0  0  0  0  0  0  0  0
   17.4460   33.7920   15.5480 C   0  0  0  0  0  0  0  0  0  0  0  0
   22.1354   35.5853   17.7619 H   0  0  0  0  0  0  0  0  0  0  0  0
   22.7561   34.9349   16.2068 H   0  0  0  0  0  0  0  0  0  0  0  0
   21.4568   36.1752   16.2068 H   0  0  0  0  0  0  0  0  0  0  0  0
   20.6018   33.9763   17.8329 H   0  0  0  0  0  0  0  0  0  0  0  0
   19.9547   34.5952   16.2112 H   0  0  0  0  0  0  0  0  0  0  0  0
   21.0777   33.0498   15.0000 H   0  0  0  0  0  0  0  0  0  0  0  0
   23.0638   33.0871   17.0845 H   0  0  0  0  0  0  0  0  0  0  0  0
   22.6169   31.3775   16.5325 H   0  0  0  0  0  0  0  0  0  0  0  0
   24.6030   32.6890   15.4202 H   0  0  0  0  0  0  0  0  0  0  0  0
   23.4849   31.6475   14.4758 H   0  0  0  0  0  0  0  0  0  0  0  0
   23.2669   33.4305   14.4758 H   0  0  0  0  0  0  0  0  0  0  0  0
   20.6406   31.0252   17.0972 H   0  0  0  0  0  0  0  0  0  0  0  0
   19.2738   32.1858   16.8543 H   0  0  0  0  0  0  0  0  0  0  0  0
   20.9251   30.3753   13.5334 H   0  0  0  0  0  0  0  0  0  0  0  0
   21.6929   30.2135   15.1935 H   0  0  0  0  0  0  0  0  0  0  0  0
   21.2859   28.0368   14.9937 H   0  0  0  0  0  0  0  0  0  0  0  0
   18.9840   29.3080   15.8110 H   0  0  0  0  0  0  0  0  0  0  0  0
   20.0909   28.8660   12.5423 H   0  0  0  0  0  0  0  0  0  0  0  0
   18.6602   26.5028   13.8697 H   0  0  0  0  0  0  0  0  0  0  0  0
   17.9507   28.1526   13.4933 H   0  0  0  0  0  0  0  0  0  0  0  0
   17.7498   24.8910   12.4815 H   0  0  0  0  0  0  0  0  0  0  0  0
   17.0578   24.1144   10.2192 H   0  0  0  0  0  0  0  0  0  0  0  0
   17.1492   25.6763    8.2776 H   0  0  0  0  0  0  0  0  0  0  0  0
   17.9234   28.0228    8.6041 H   0  0  0  0  0  0  0  0  0  0  0  0
   18.6052   28.8115   10.8646 H   0  0  0  0  0  0  0  0  0  0  0  0
   21.1850   26.1680   13.3730 H   0  0  0  0  0  0  0  0  0  0  0  0
   22.1349   24.3123   11.8616 H   0  0  0  0  0  0  0  0  0  0  0  0
   20.1544   25.1519   10.8968 H   0  0  0  0  0  0  0  0  0  0  0  0
   21.0076   26.4047    9.9675 H   0  0  0  0  0  0  0  0  0  0  0  0
   22.3139   22.8401    9.1632 H   0  0  0  0  0  0  0  0  0  0  0  0
   24.9442   24.5003    7.7259 H   0  0  0  0  0  0  0  0  0  0  0  0
   23.9905   25.8046    6.9884 H   0  0  0  0  0  0  0  0  0  0  0  0
   24.8803   26.0111    9.5382 H   0  0  0  0  0  0  0  0  0  0  0  0
   23.3132   26.6620    9.1421 H   0  0  0  0  0  0  0  0  0  0  0  0
   24.0839   24.0759   10.4774 H   0  0  0  0  0  0  0  0  0  0  0  0
   16.4291   30.5380   15.8949 H   0  0  0  0  0  0  0  0  0  0  0  0
   14.8016   31.6111   17.4570 H   0  0  0  0  0  0  0  0  0  0  0  0
   14.5038   36.3695   18.4875 H   0  0  0  0  0  0  0  0  0  0  0  0
   18.2112   34.3991   15.0421 H   0  0  0  0  0  0  0  0  0  0  0  0
  1  2  1  0
  2  3  1  0
  3  4  1  0
  4  5  1  0
  3  6  1  0
  6  7  1  0
  7  8  1  0
  8  9  1  0
  9 10  1  0
  9 11  1  0
 11 12  1  0
 12 13  1  0
 13 14  2  0
 14 15  1  0
 15 16  2  0
 16 17  1  0
 17 18  2  0
 11 19  1  0
 19 20  1  0
 20 21  2  0
 20 22  1  0
 22 23  1  0
 23 24  1  0
 24 25  1  0
 25 26  1  0
 26 27  1  0
 27 28  1  0
 28 29  1  0
 29 30  1  0
  7 31  1  0
 31 32  2  0
 31 33  2  0
 31 34  1  0
 34 35  2  0
 35 36  1  0
 36 37  2  0
 37 38  1  0
 38 39  2  0
 39 40  1  0
 40 41  1  0
 41 42  2  0
 18 13  1  0
 30 23  1  0
 42 34  1  0
 30 26  1  0
 41 37  1  0
  1 43  1  0
  1 44  1  0
  1 45  1  0
  2 46  1  0
  2 47  1  0
  3 48  1  0
  4 49  1  0
  4 50  1  0
  5 51  1  0
  5 52  1  0
  5 53  1  0
  6 54  1  0
  6 55  1  0
  8 56  1  0
  8 57  1  0
  9 58  1  1
 10 59  1  0
 11 60  1  6
 12 61  1  0
 12 62  1  0
 14 63  1  0
 15 64  1  0
 16 65  1  0
 17 66  1  0
 18 67  1  0
 19 68  1  0
 23 69  1  1
 24 70  1  0
 24 71  1  0
 26 72  1  1
 28 73  1  0
 28 74  1  0
 29 75  1  0
 29 76  1  0
 30 77  1  1
 35 78  1  0
 36 79  1  0
 39 80  1  0
 42 81  1  0
M  END
>  <meeko>  (8) 
{"is_sidechain": [false], "free_energy": -8.935, "intermolecular_energy": -17.058, "internal_energy": -1.862}

$$$$
3o9i_ligand
     RDKit          3D

 81 85  0  0  0  0  0  0  0  0999 V2000
   17.0490   27.7900   10.6840 C   0  0  0  0  0  0  0  0  0  0  0  0
   17.7950   28.9560   11.3220 C   0  0  0  0  0  0  0  0  0  0  0  0
   17.8900   28.9600   12.8650 C   0  0  0  0  0  0  0  0  0  0  0  0
   18.3250   27.5960   13.4510 C   0  0  0  0  0  0  0  0  0  0  0  0
   17.4120   26.9840   14.5000 C   0  0  0  0  0  0  0  0  0  0  0  0
   18.7150   30.1480   13.4060 C   0  0  0  0  0  0  0  0  0  0  0  0
   20.0950   29.7350   13.7370 N   0  0  0  0  0  0  0  0  0  0  0  0
   20.3490   29.3800   15.1650 C   0  0  0  0  0  0  0  0  0  0  0  0
   19.4940   30.1580   16.1830 C   0  0  1  0  0  0  0  0  0  0  0  0
   19.6780   29.5770   17.4780 O   0  0  0  0  0  0  0  0  0  0  0  0
   19.8040   31.6860   16.1860 C   0  0  2  0  0  0  0  0  0  0  0  0
   21.2190   32.0010   16.7330 C   0  0  0  0  0  0  0  0  0  0  0  0
   21.4860   33.4690   16.9720 C   0  0  0  0  0  0  0  0  0  0  0  0
   21.2780   34.4050   15.9500 C   0  0  0  0  0  0  0  0  0  0  0  0
   21.5340   35.7590   16.1670 C   0  0  0  0  0  0  0  0  0  0  0  0
   22.0000   36.1920   17.4080 C   0  0  0  0  0  0  0  0  0  0  0  0
   22.2050   35.2700   18.4320 C   0  0  0  0  0  0  0  0  0  0  0  0
   21.9460   33.9170   18.2180 C   0  0  0  0  0  0  0  0  0  0  0  0
   18.8200   32.4250   16.9790 N   0  0  0  0  0  0  0  0  0  0  0  0
   17.6330   32.8570   16.4750 C   0  0  0  0  0  0  0  0  0  0  0  0
   17.2820   32.7400   15.3120 O   0  0  0  0  0  0  0  0  0  0  0  0
   16.8990   33.4050   17.4690 O   0  0  0  0  0  0  0  0  0  0  0  0
   16.2730   34.6470   17.1450 C   0  0  1  0  0  0  0  0  0  0  0  0
   15.3120   35.1600   18.2090 C   0  0  0  0  0  0  0  0  0  0  0  0
   15.3290   36.5910   18.1340 O   0  0  0  0  0  0  0  0  0  0  0  0
   16.4560   36.9960   17.3490 C   0  0  1  0  0  0  0  0  0  0  0  0
   17.2780   37.9210   18.0620 O   0  0  0  0  0  0  0  0  0  0  0  0
   18.5350   37.2980   18.3390 C   0  0  0  0  0  0  0  0  0  0  0  0
   18.3290   35.8100   18.1730 C   0  0  0  0  0  0  0  0  0  0  0  0
   17.2870   35.7630   17.0720 C   0  0  1  0  0  0  0  0  0  0  0  0
   21.3770   30.1980   12.7370 S   0  0  0  0  0  0  0  0  0  0  0  0
   22.3400   30.9270   13.5350 O   0  0  0  0  0  0  0  0  0  0  0  0
   20.7960   30.7910   11.5470 O   0  0  0  0  0  0  0  0  0  0  0  0
   22.1910   28.6890   12.2350 C   0  0  0  0  0  0  0  0  0  0  0  0
   23.5140   28.4580   12.6180 C   0  0  0  0  0  0  0  0  0  0  0  0
   24.1640   27.2790   12.2370 C   0  0  0  0  0  0  0  0  0  0  0  0
   23.4740   26.3100   11.4830 C   0  0  0  0  0  0  0  0  0  0  0  0
   23.9970   25.1080   11.0340 N   0  0  0  0  0  0  0  0  0  0  0  0
   23.0710   24.4440   10.3830 C   0  0  0  0  0  0  0  0  0  0  0  0
   21.5370   25.1930   10.2610 S   0  0  0  0  0  0  0  0  0  0  0  0
   22.1360   26.5440   11.1520 C   0  0  0  0  0  0  0  0  0  0  0  0
   21.4660   27.7180   11.5310 C   0  0  0  0  0  0  0  0  0  0  0  0
   16.6356   27.1438   11.4724 H   0  0  0  0  0  0  0  0  0  0  0  0
   16.2300   28.1764   10.0596 H   0  0  0  0  0  0  0  0  0  0  0  0
   17.7431   27.2083   10.0596 H   0  0  0  0  0  0  0  0  0  0  0  0
   18.8209   28.9522   10.9251 H   0  0  0  0  0  0  0  0  0  0  0  0
   17.2063   29.8495   11.0668 H   0  0  0  0  0  0  0  0  0  0  0  0
   16.8645   29.1164   13.2308 H   0  0  0  0  0  0  0  0  0  0  0  0
   18.3998   26.8830   12.6168 H   0  0  0  0  0  0  0  0  0  0  0  0
   19.2737   27.7933   13.9717 H   0  0  0  0  0  0  0  0  0  0  0  0
   17.7864   27.2350   15.5034 H   0  0  0  0  0  0  0  0  0  0  0  0
   16.3942   27.3830   14.3780 H   0  0  0  0  0  0  0  0  0  0  0  0
   17.3944   25.8909   14.3780 H   0  0  0  0  0  0  0  0  0  0  0  0
   18.7507   30.9377   12.6411 H   0  0  0  0  0  0  0  0  0  0  0  0
   18.2329   30.5173   14.3232 H   0  0  0  0  0  0  0  0  0  0  0  0
   20.1430   28.3071   15.2933 H   0  0  0  0  0  0  0  0  0  0  0  0
   21.3962   29.6469   15.3702 H   0  0  0  0  0  0  0  0  0  0  0  0
   18.4373   30.0754   15.8886 H   0  0  0  0  0  0  0  0  0  0  0  0
   19.5450   28.6130   17.4110 H   0  0  0  0  0  0  0  0  0  0  0  0
   19.7542   32.0062   15.1348 H   0  0  0  0  0  0  0  0  0  0  0  0
   21.3446   31.4691   17.6876 H   0  0  0  0  0  0  0  0  0  0  0  0
   21.9323   31.6748   15.9618 H   0  0  0  0  0  0  0  0  0  0  0  0
   20.9101   34.0694   14.9692 H   0  0  0  0  0  0  0  0  0  0  0  0
   21.3681   36.4860   15.3583 H   0  0  0  0  0  0  0  0  0  0  0  0
   22.2053   37.2592   17.5780 H   0  0  0  0  0  0  0  0  0  0  0  0
   22.5720   35.6103   19.4115 H   0  0  0  0  0  0  0  0  0  0  0  0
   22.1038   33.1955   19.0332 H   0  0  0  0  0  0  0  0  0  0  0  0
   18.9210   32.4980   17.9840 H   0  0  0  0  0  0  0  0  0  0  0  0
   15.7568   34.4245   16.1995 H   0  0  0  0  0  0  0  0  0  0  0  0
   14.2969   34.7835   18.0143 H   0  0  0  0  0  0  0  0  0  0  0  0
   15.6136   34.8157   19.2092 H   0  0  0  0  0  0  0  0  0  0  0  0
   16.0956   37.4763   16.4273 H   0  0  0  0  0  0  0  0  0  0  0  0
   19.2990   37.6559   17.6332 H   0  0  0  0  0  0  0  0  0  0  0  0
   18.8799   37.5384   19.3555 H   0  0  0  0  0  0  0  0  0  0  0  0
   19.2588   35.3085   17.8664 H   0  0  0  0  0  0  0  0  0  0  0  0
   18.0249   35.2962   19.0969 H   0  0  0  0  0  0  0  0  0  0  0  0
   17.8203   35.6562   16.1159 H   0  0  0  0  0  0  0  0  0  0  0  0
   24.0476   29.2065   13.2221 H   0  0  0  0  0  0  0  0  0  0  0  0
   25.2118   27.1093   12.5258 H   0  0  0  0  0  0  0  0  0  0  0  0
   23.2703   23.4576    9.9389 H   0  0  0  0  0  0  0  0  0  0  0  0
   20.4053   27.8710   11.2832 H   0  0  0  0  0  0  0  0  0  0  0  0
  1  2  1  0
  2  3  1  0
  3  4  1  0
  4  5  1  0
  3  6  1  0
  6  7  1  0
  7  8  1  0
  8  9  1  0
  9 10  1  0
  9 11  1  0
 11 12  1  0
 12 13  1  0
 13 14  2  0
 14 15  1  0
 15 16  2  0
 16 17  1  0
 17 18  2  0
 11 19  1  0
 19 20  1  0
 20 21  2  0
 20 22  1  0
 22 23  1  0
 23 24  1  0
 24 25  1  0
 25 26  1  0
 26 27  1  0
 27 28  1  0
 28 29  1  0
 29 30  1  0
  7 31  1  0
 31 32  2  0
 31 33  2  0
 31 34  1  0
 34 35  2  0
 35 36  1  0
 36 37  2  0
 37 38  1  0
 38 39  2  0
 39 40  1  0
 40 41  1  0
 41 42  2  0
 18 13  1  0
 30 23  1  0
 42 34  1  0
 30 26  1  0
 41 37  1  0
  1 43  1  0
  1 44  1  0
  1 45  1  0
  2 46  1  0
  2 47  1  0
  3 48  1  0
  4 49  1  0
  4 50  1  0
  5 51  1  0
  5 52  1  0
  5 53  1  0
  6 54  1  0
  6 55  1  0
  8 56  1  0
  8 57  1  0
  9 58  1  6
 10 59  1  0
 11 60  1  6
 12 61  1  0
 12 62  1  0
 14 63  1  0
 15 64  1  0
 16 65  1  0
 17 66  1  0
 18 67  1  0
 19 68  1  0
 23 69  1  6
 24 70  1  0
 24 71  1  0
 26 72  1  6
 28 73  1  0
 28 74  1  0
 29 75  1  0
 29 76  1  0
 30 77  1  6
 35 78  1  0
 36 79  1  0
 39 80  1  0
 42 81  1  0
M  END
>  <meeko>  (9) 
{"is_sidechain": [false], "free_energy": -8.907, "intermolecular_energy": -16.219, "internal_energy": -2.649}

$$$$
