4ogj_ligand
     RDKit          3D

 74 77  0  0  0  0  0  0  0  0999 V2000
   23.5070   36.7290   17.4920 C   0  0  0  0  0  0  0  0  0  0  0  0
   22.8670   37.8980   18.1670 C   0  0  0  0  0  0  0  0  0  0  0  0
   23.1890   39.1880   17.8090 C   0  0  0  0  0  0  0  0  0  0  0  0
   22.6430   40.2800   18.3690 N   0  0  0  0  0  0  0  0  0  0  0  0
   21.7300   40.0790   19.3280 C   0  0  0  0  0  0  0  0  0  0  0  0
   21.1770   41.2420   19.8550 N   0  0  0  0  0  0  0  0  0  0  0  0
   20.1300   41.5070   20.7410 C   0  0  0  0  0  0  0  0  0  0  0  0
   20.4240   42.1310   21.9610 C   0  0  0  0  0  0  0  0  0  0  0  0
   19.4150   42.4570   22.8720 C   0  0  0  0  0  0  0  0  0  0  0  0
   18.0810   42.1770   22.5820 C   0  0  0  0  0  0  0  0  0  0  0  0
   17.1910   42.5590   23.5460 O   0  0  0  0  0  0  0  0  0  0  0  0
   16.0100   43.2250   23.1090 C   0  0  0  0  0  0  0  0  0  0  0  0
   16.1640   44.7410   23.3110 C   0  0  0  0  0  0  0  0  0  0  0  0
   16.6580   45.5120   22.1040 N   0  0  0  0  0  0  0  0  0  0  0  0
   16.3410   44.9410   20.7390 C   0  0  0  0  0  0  0  0  0  0  0  0
   17.4280   45.5200   19.8590 C   0  0  0  0  0  0  0  0  0  0  0  0
   18.6510   45.4420   20.7500 C   0  0  0  0  0  0  0  0  0  0  0  0
   18.1360   45.8750   22.1120 C   0  0  0  0  0  0  0  0  0  0  0  0
   17.7710   41.5510   21.3790 C   0  0  0  0  0  0  0  0  0  0  0  0
   18.7890   41.2250   20.4690 C   0  0  0  0  0  0  0  0  0  0  0  0
   21.3550   38.8630   19.7420 N   0  0  0  0  0  0  0  0  0  0  0  0
   21.9210   37.7790   19.1770 C   0  0  0  0  0  0  0  0  0  0  0  0
   21.5430   36.4810   19.6040 N   0  0  0  0  0  0  0  0  0  0  0  0
   20.8440   36.1060   20.7720 C   0  0  0  0  0  0  0  0  0  0  0  0
   20.3760   34.8030   20.9880 C   0  0  0  0  0  0  0  0  0  0  0  0
   19.7430   34.4430   22.1830 C   0  0  0  0  0  0  0  0  0  0  0  0
   19.5780   35.3850   23.1930 C   0  0  0  0  0  0  0  0  0  0  0  0
   20.0540   36.6830   22.9970 C   0  0  0  0  0  0  0  0  0  0  0  0
   19.8970   37.8700   24.3030 S   0  0  0  0  0  0  0  0  0  0  0  0
   19.2300   39.0260   23.7410 O   0  0  0  0  0  0  0  0  0  0  0  0
   19.3800   37.2050   25.4760 O   0  0  0  0  0  0  0  0  0  0  0  0
   21.4660   38.3600   24.5860 N   0  0  0  0  0  0  0  0  0  0  0  0
   21.9540   39.3320   25.5790 C   0  0  0  0  0  0  0  0  0  0  0  0
   21.0130   39.5230   26.7670 C   0  0  0  0  0  0  0  0  0  0  0  0
   23.3440   38.9030   26.0620 C   0  0  0  0  0  0  0  0  0  0  0  0
   22.0840   40.6800   24.8450 C   0  0  0  0  0  0  0  0  0  0  0  0
   20.7080   37.0350   21.8100 C   0  0  0  0  0  0  0  0  0  0  0  0
   23.8891   36.0311   18.2515 H   0  0  0  0  0  0  0  0  0  0  0  0
   22.7638   36.2163   16.8637 H   0  0  0  0  0  0  0  0  0  0  0  0
   24.3394   37.0789   16.8637 H   0  0  0  0  0  0  0  0  0  0  0  0
   23.9383   39.3330   17.0169 H   0  0  0  0  0  0  0  0  0  0  0  0
   21.7200   42.0290   19.5250 H   0  0  0  0  0  0  0  0  0  0  0  0
   21.4695   42.3690   22.2066 H   0  0  0  0  0  0  0  0  0  0  0  0
   19.6762   42.9386   23.8258 H   0  0  0  0  0  0  0  0  0  0  0  0
   15.8446   43.0134   22.0423 H   0  0  0  0  0  0  0  0  0  0  0  0
   15.1514   42.8652   23.6950 H   0  0  0  0  0  0  0  0  0  0  0  0
   15.1815   45.1469   23.5938 H   0  0  0  0  0  0  0  0  0  0  0  0
   16.9346   44.8661   24.0859 H   0  0  0  0  0  0  0  0  0  0  0  0
   16.1680   46.4160   22.1440 H   0  0  0  0  0  0  0  0  0  0  0  0
   16.3872   43.8420   20.7510 H   0  0  0  0  0  0  0  0  0  0  0  0
   15.3274   45.1910   20.3923 H   0  0  0  0  0  0  0  0  0  0  0  0
   17.5622   44.9199   18.9469 H   0  0  0  0  0  0  0  0  0  0  0  0
   17.2086   46.5382   19.5053 H   0  0  0  0  0  0  0  0  0  0  0  0
   19.0433   44.4150   20.7879 H   0  0  0  0  0  0  0  0  0  0  0  0
   19.4800   46.0690   20.3899 H   0  0  0  0  0  0  0  0  0  0  0  0
   18.6625   45.3369   22.9140 H   0  0  0  0  0  0  0  0  0  0  0  0
   18.2985   46.9474   22.2949 H   0  0  0  0  0  0  0  0  0  0  0  0
   16.7245   41.3106   21.1400 H   0  0  0  0  0  0  0  0  0  0  0  0
   18.5247   40.7361   19.5197 H   0  0  0  0  0  0  0  0  0  0  0  0
   22.2680   35.8160   19.3600 H   0  0  0  0  0  0  0  0  0  0  0  0
   20.5091   34.0463   20.2008 H   0  0  0  0  0  0  0  0  0  0  0  0
   19.3761   33.4156   22.3235 H   0  0  0  0  0  0  0  0  0  0  0  0
   19.0789   35.1109   24.1342 H   0  0  0  0  0  0  0  0  0  0  0  0
   22.1420   37.9100   23.9680 H   0  0  0  0  0  0  0  0  0  0  0  0
   21.5776   39.4084   27.7041 H   0  0  0  0  0  0  0  0  0  0  0  0
   20.5705   40.5293   26.7262 H   0  0  0  0  0  0  0  0  0  0  0  0
   20.2132   38.7689   26.7262 H   0  0  0  0  0  0  0  0  0  0  0  0
   23.3642   38.8968   27.1618 H   0  0  0  0  0  0  0  0  0  0  0  0
   23.5678   37.8940   25.6854 H   0  0  0  0  0  0  0  0  0  0  0  0
   24.0975   39.6104   25.6854 H   0  0  0  0  0  0  0  0  0  0  0  0
   22.1624   41.4928   25.5821 H   0  0  0  0  0  0  0  0  0  0  0  0
   22.9852   40.6687   24.2144 H   0  0  0  0  0  0  0  0  0  0  0  0
   21.1972   40.8411   24.2144 H   0  0  0  0  0  0  0  0  0  0  0  0
   21.1179   38.0490   21.6924 H   0  0  0  0  0  0  0  0  0  0  0  0
  1  2  1  0
  2  3  2  0
  3  4  1  0
  4  5  2  0
  5  6  1  0
  6  7  1  0
  7  8  2  0
  8  9  1  0
  9 10  2  0
 10 11  1  0
 11 12  1  0
 12 13  1  0
 13 14  1  0
 14 15  1  0
 15 16  1  0
 16 17  1  0
 17 18  1  0
 10 19  1  0
 19 20  2  0
  5 21  1  0
 21 22  2  0
 22 23  1  0
 23 24  1  0
 24 25  2  0
 25 26  1  0
 26 27  2  0
 27 28  1  0
 28 29  1  0
 29 30  2  0
 29 31  2  0
 29 32  1  0
 32 33  1  0
 33 34  1  0
 33 35  1  0
 33 36  1  0
 28 37  2  0
 22  2  1  0
 37 24  1  0
 20  7  1  0
 18 14  1  0
  1 38  1  0
  1 39  1  0
  1 40  1  0
  3 41  1  0
  6 42  1  0
  8 43  1  0
  9 44  1  0
 12 45  1  0
 12 46  1  0
 13 47  1  0
 13 48  1  0
 14 49  1  0
 15 50  1  0
 15 51  1  0
 16 52  1  0
 16 53  1  0
 17 54  1  0
 17 55  1  0
 18 56  1  0
 18 57  1  0
 19 58  1  0
 20 59  1  0
 23 60  1  0
 25 61  1  0
 26 62  1  0
 27 63  1  0
 32 64  1  0
 34 65  1  0
 34 66  1  0
 34 67  1  0
 35 68  1  0
 35 69  1  0
 35 70  1  0
 36 71  1  0
 36 72  1  0
 36 73  1  0
 37 74  1  0
M  CHG  1  14   1
M  END
>  <meeko>  (1) 
{"is_sidechain": [false], "free_energy": -7.146, "intermolecular_energy": -11.741, "internal_energy": -1.908}

$$$$
4ogj_ligand
     RDKit          3D

 74 77  0  0  0  0  0  0  0  0999 V2000
   23.5030   36.6570   17.5310 C   0  0  0  0  0  0  0  0  0  0  0  0
   22.8680   37.8450   18.1790 C   0  0  0  0  0  0  0  0  0  0  0  0
   23.2700   39.1240   17.8640 C   0  0  0  0  0  0  0  0  0  0  0  0
   22.7340   40.2320   18.4020 N   0  0  0  0  0  0  0  0  0  0  0  0
   21.7500   40.0590   19.2930 C   0  0  0  0  0  0  0  0  0  0  0  0
   21.2120   41.2390   19.7990 N   0  0  0  0  0  0  0  0  0  0  0  0
   20.1640   41.5340   20.6740 C   0  0  0  0  0  0  0  0  0  0  0  0
   20.4540   42.2150   21.8640 C   0  0  0  0  0  0  0  0  0  0  0  0
   19.4420   42.5730   22.7620 C   0  0  0  0  0  0  0  0  0  0  0  0
   18.1110   42.2690   22.4860 C   0  0  0  0  0  0  0  0  0  0  0  0
   17.2190   42.6860   23.4320 O   0  0  0  0  0  0  0  0  0  0  0  0
   16.6370   41.6820   24.2600 C   0  0  0  0  0  0  0  0  0  0  0  0
   15.1670   41.4700   23.8630 C   0  0  0  0  0  0  0  0  0  0  0  0
   14.7260   40.0260   23.7450 N   0  0  0  0  0  0  0  0  0  0  0  0
   13.8610   39.4730   24.8560 C   0  0  0  0  0  0  0  0  0  0  0  0
   14.1190   37.9830   24.7890 C   0  0  0  0  0  0  0  0  0  0  0  0
   15.6080   37.9180   24.5120 C   0  0  0  0  0  0  0  0  0  0  0  0
   15.8340   39.0150   23.4860 C   0  0  0  0  0  0  0  0  0  0  0  0
   17.8050   41.5870   21.3120 C   0  0  0  0  0  0  0  0  0  0  0  0
   18.8250   41.2300   20.4170 C   0  0  0  0  0  0  0  0  0  0  0  0
   21.2940   38.8560   19.6620 N   0  0  0  0  0  0  0  0  0  0  0  0
   21.8510   37.7550   19.1210 C   0  0  0  0  0  0  0  0  0  0  0  0
   21.3880   36.4700   19.5010 N   0  0  0  0  0  0  0  0  0  0  0  0
   20.7560   36.0800   20.7010 C   0  0  0  0  0  0  0  0  0  0  0  0
   20.3830   34.7550   20.9640 C   0  0  0  0  0  0  0  0  0  0  0  0
   19.8150   34.3860   22.1880 C   0  0  0  0  0  0  0  0  0  0  0  0
   19.6210   35.3410   23.1810 C   0  0  0  0  0  0  0  0  0  0  0  0
   20.0020   36.6620   22.9370 C   0  0  0  0  0  0  0  0  0  0  0  0
   19.8100   37.8700   24.2190 S   0  0  0  0  0  0  0  0  0  0  0  0
   19.2680   39.0590   23.5960 O   0  0  0  0  0  0  0  0  0  0  0  0
   19.1530   37.2510   25.3470 O   0  0  0  0  0  0  0  0  0  0  0  0
   21.3770   38.2630   24.6340 N   0  0  0  0  0  0  0  0  0  0  0  0
   21.8400   39.2980   25.5760 C   0  0  0  0  0  0  0  0  0  0  0  0
   21.7170   40.7210   25.0340 C   0  0  0  0  0  0  0  0  0  0  0  0
   21.0710   39.1580   26.8940 C   0  0  0  0  0  0  0  0  0  0  0  0
   23.3290   39.0100   25.8430 C   0  0  0  0  0  0  0  0  0  0  0  0
   20.5920   37.0260   21.7200 C   0  0  0  0  0  0  0  0  0  0  0  0
   23.8707   35.9691   18.3066 H   0  0  0  0  0  0  0  0  0  0  0  0
   22.7607   36.1405   16.9048 H   0  0  0  0  0  0  0  0  0  0  0  0
   24.3449   36.9872   16.9048 H   0  0  0  0  0  0  0  0  0  0  0  0
   24.0783   39.2455   17.1279 H   0  0  0  0  0  0  0  0  0  0  0  0
   21.7710   42.0120   19.4620 H   0  0  0  0  0  0  0  0  0  0  0  0
   21.4976   42.4732   22.0968 H   0  0  0  0  0  0  0  0  0  0  0  0
   19.6998   43.0987   23.6932 H   0  0  0  0  0  0  0  0  0  0  0  0
   17.1893   40.7390   24.1341 H   0  0  0  0  0  0  0  0  0  0  0  0
   16.6876   42.0026   25.3110 H   0  0  0  0  0  0  0  0  0  0  0  0
   14.5372   41.9558   24.6228 H   0  0  0  0  0  0  0  0  0  0  0  0
   15.0603   41.9019   22.8570 H   0  0  0  0  0  0  0  0  0  0  0  0
   14.1400   39.9930   22.8990 H   0  0  0  0  0  0  0  0  0  0  0  0
   14.1633   39.8818   25.8314 H   0  0  0  0  0  0  0  0  0  0  0  0
   12.7978   39.7314   24.7430 H   0  0  0  0  0  0  0  0  0  0  0  0
   13.8706   37.4936   25.7423 H   0  0  0  0  0  0  0  0  0  0  0  0
   13.5100   37.4669   24.0322 H   0  0  0  0  0  0  0  0  0  0  0  0
   16.1858   38.1127   25.4276 H   0  0  0  0  0  0  0  0  0  0  0  0
   15.9316   36.9290   24.1555 H   0  0  0  0  0  0  0  0  0  0  0  0
   16.8217   39.4786   23.6259 H   0  0  0  0  0  0  0  0  0  0  0  0
   15.8116   38.6301   22.4558 H   0  0  0  0  0  0  0  0  0  0  0  0
   16.7605   41.3271   21.0851 H   0  0  0  0  0  0  0  0  0  0  0  0
   18.5639   40.6978   19.4904 H   0  0  0  0  0  0  0  0  0  0  0  0
   22.0260   35.7610   19.1540 H   0  0  0  0  0  0  0  0  0  0  0  0
   20.5403   33.9883   20.1910 H   0  0  0  0  0  0  0  0  0  0  0  0
   19.5217   33.3408   22.3654 H   0  0  0  0  0  0  0  0  0  0  0  0
   19.1734   35.0591   24.1455 H   0  0  0  0  0  0  0  0  0  0  0  0
   22.0720   37.6980   24.1470 H   0  0  0  0  0  0  0  0  0  0  0  0
   21.6558   41.4291   25.8735 H   0  0  0  0  0  0  0  0  0  0  0  0
   22.5981   40.9566   24.4191 H   0  0  0  0  0  0  0  0  0  0  0  0
   20.8085   40.8019   24.4191 H   0  0  0  0  0  0  0  0  0  0  0  0
   21.7646   39.2843   27.7384 H   0  0  0  0  0  0  0  0  0  0  0  0
   20.2873   39.9282   26.9449 H   0  0  0  0  0  0  0  0  0  0  0  0
   20.6091   38.1610   26.9449 H   0  0  0  0  0  0  0  0  0  0  0  0
   23.5070   38.9756   26.9280 H   0  0  0  0  0  0  0  0  0  0  0  0
   23.6013   38.0425   25.3959 H   0  0  0  0  0  0  0  0  0  0  0  0
   23.9424   39.8062   25.3959 H   0  0  0  0  0  0  0  0  0  0  0  0
   20.9286   38.0615   21.5638 H   0  0  0  0  0  0  0  0  0  0  0  0
  1  2  1  0
  2  3  2  0
  3  4  1  0
  4  5  2  0
  5  6  1  0
  6  7  1  0
  7  8  2  0
  8  9  1  0
  9 10  2  0
 10 11  1  0
 11 12  1  0
 12 13  1  0
 13 14  1  0
 14 15  1  0
 15 16  1  0
 16 17  1  0
 17 18  1  0
 10 19  1  0
 19 20  2  0
  5 21  1  0
 21 22  2  0
 22 23  1  0
 23 24  1  0
 24 25  2  0
 25 26  1  0
 26 27  2  0
 27 28  1  0
 28 29  1  0
 29 30  2  0
 29 31  2  0
 29 32  1  0
 32 33  1  0
 33 34  1  0
 33 35  1  0
 33 36  1  0
 28 37  2  0
 22  2  1  0
 37 24  1  0
 20  7  1  0
 18 14  1  0
  1 38  1  0
  1 39  1  0
  1 40  1  0
  3 41  1  0
  6 42  1  0
  8 43  1  0
  9 44  1  0
 12 45  1  0
 12 46  1  0
 13 47  1  0
 13 48  1  0
 14 49  1  0
 15 50  1  0
 15 51  1  0
 16 52  1  0
 16 53  1  0
 17 54  1  0
 17 55  1  0
 18 56  1  0
 18 57  1  0
 19 58  1  0
 20 59  1  0
 23 60  1  0
 25 61  1  0
 26 62  1  0
 27 63  1  0
 32 64  1  0
 34 65  1  0
 34 66  1  0
 34 67  1  0
 35 68  1  0
 35 69  1  0
 35 70  1  0
 36 71  1  0
 36 72  1  0
 36 73  1  0
 37 74  1  0
M  CHG  1  14   1
M  END
>  <meeko>  (2) 
{"is_sidechain": [false], "free_energy": -7.088, "intermolecular_energy": -11.915, "internal_energy": -1.639}

$$$$
4ogj_ligand
     RDKit          3D

 74 77  0  0  0  0  0  0  0  0999 V2000
   23.4590   37.1590   17.7440 C   0  0  0  0  0  0  0  0  0  0  0  0
   22.6530   38.1860   18.4710 C   0  0  0  0  0  0  0  0  0  0  0  0
   22.7900   39.5270   18.1870 C   0  0  0  0  0  0  0  0  0  0  0  0
   22.0890   40.4970   18.7950 N   0  0  0  0  0  0  0  0  0  0  0  0
   21.2080   40.1160   19.7290 C   0  0  0  0  0  0  0  0  0  0  0  0
   20.4900   41.1580   20.3090 N   0  0  0  0  0  0  0  0  0  0  0  0
   20.4960   41.7600   21.5690 C   0  0  0  0  0  0  0  0  0  0  0  0
   21.2230   41.1520   22.6010 C   0  0  0  0  0  0  0  0  0  0  0  0
   21.2990   41.7270   23.8740 C   0  0  0  0  0  0  0  0  0  0  0  0
   20.6580   42.9340   24.1450 C   0  0  0  0  0  0  0  0  0  0  0  0
   20.8220   43.3980   25.4190 O   0  0  0  0  0  0  0  0  0  0  0  0
   22.1330   43.3180   25.9740 C   0  0  0  0  0  0  0  0  0  0  0  0
   22.0500   42.8460   27.4340 C   0  0  0  0  0  0  0  0  0  0  0  0
   22.5370   41.4350   27.6920 N   0  0  0  0  0  0  0  0  0  0  0  0
   23.3320   40.7650   26.5920 C   0  0  0  0  0  0  0  0  0  0  0  0
   23.1190   39.2900   26.8600 C   0  0  0  0  0  0  0  0  0  0  0  0
   21.6570   39.2340   27.2580 C   0  0  0  0  0  0  0  0  0  0  0  0
   21.4790   40.4450   28.1570 C   0  0  0  0  0  0  0  0  0  0  0  0
   19.9250   43.5490   23.1340 C   0  0  0  0  0  0  0  0  0  0  0  0
   19.8520   42.9650   21.8600 C   0  0  0  0  0  0  0  0  0  0  0  0
   21.0070   38.8380   20.0720 N   0  0  0  0  0  0  0  0  0  0  0  0
   21.7270   37.8780   19.4590 C   0  0  0  0  0  0  0  0  0  0  0  0
   21.5350   36.5180   19.8110 N   0  0  0  0  0  0  0  0  0  0  0  0
   20.7620   35.9800   20.8610 C   0  0  0  0  0  0  0  0  0  0  0  0
   20.4380   34.6190   20.9420 C   0  0  0  0  0  0  0  0  0  0  0  0
   19.7230   34.1020   22.0290 C   0  0  0  0  0  0  0  0  0  0  0  0
   19.3290   34.9420   23.0650 C   0  0  0  0  0  0  0  0  0  0  0  0
   19.6590   36.2980   23.0040 C   0  0  0  0  0  0  0  0  0  0  0  0
   19.2090   37.3600   24.3490 S   0  0  0  0  0  0  0  0  0  0  0  0
   19.0340   36.5140   25.5110 O   0  0  0  0  0  0  0  0  0  0  0  0
   20.1100   38.4880   24.3730 O   0  0  0  0  0  0  0  0  0  0  0  0
   17.6760   37.8810   23.9480 N   0  0  0  0  0  0  0  0  0  0  0  0
   17.2760   39.1630   23.3400 C   0  0  0  0  0  0  0  0  0  0  0  0
   17.7690   40.3880   24.1090 C   0  0  0  0  0  0  0  0  0  0  0  0
   17.7710   39.2070   21.8900 C   0  0  0  0  0  0  0  0  0  0  0  0
   15.7370   39.1830   23.3350 C   0  0  0  0  0  0  0  0  0  0  0  0
   20.3940   36.8100   21.9280 C   0  0  0  0  0  0  0  0  0  0  0  0
   23.9683   36.5101   18.4717 H   0  0  0  0  0  0  0  0  0  0  0  0
   22.7945   36.5510   17.1126 H   0  0  0  0  0  0  0  0  0  0  0  0
   24.2076   37.6600   17.1126 H   0  0  0  0  0  0  0  0  0  0  0  0
   23.5174   39.8205   17.4158 H   0  0  0  0  0  0  0  0  0  0  0  0
   19.8820   41.5550   19.6040 H   0  0  0  0  0  0  0  0  0  0  0  0
   21.7446   40.2033   22.4062 H   0  0  0  0  0  0  0  0  0  0  0  0
   21.8695   41.2221   24.6675 H   0  0  0  0  0  0  0  0  0  0  0  0
   22.7332   42.6030   25.3922 H   0  0  0  0  0  0  0  0  0  0  0  0
   22.6045   44.3112   25.9387 H   0  0  0  0  0  0  0  0  0  0  0  0
   22.6552   43.5307   28.0464 H   0  0  0  0  0  0  0  0  0  0  0  0
   20.9806   42.8482   27.6917 H   0  0  0  0  0  0  0  0  0  0  0  0
   23.1850   41.5170   28.4880 H   0  0  0  0  0  0  0  0  0  0  0  0
   22.9471   41.0453   25.6004 H   0  0  0  0  0  0  0  0  0  0  0  0
   24.3933   41.0540   26.5896 H   0  0  0  0  0  0  0  0  0  0  0  0
   23.3079   38.6910   25.9570 H   0  0  0  0  0  0  0  0  0  0  0  0
   23.7965   38.8819   27.6245 H   0  0  0  0  0  0  0  0  0  0  0  0
   21.0072   39.3040   26.3732 H   0  0  0  0  0  0  0  0  0  0  0  0
   21.3879   38.2911   27.7566 H   0  0  0  0  0  0  0  0  0  0  0  0
   20.4716   40.8706   28.0384 H   0  0  0  0  0  0  0  0  0  0  0  0
   21.5884   40.1908   29.2216 H   0  0  0  0  0  0  0  0  0  0  0  0
   19.4015   44.4955   23.3342 H   0  0  0  0  0  0  0  0  0  0  0  0
   19.2736   43.4684   21.0713 H   0  0  0  0  0  0  0  0  0  0  0  0
   22.3960   36.0030   19.6640 H   0  0  0  0  0  0  0  0  0  0  0  0
   20.7523   33.9421   20.1339 H   0  0  0  0  0  0  0  0  0  0  0  0
   19.4729   33.0314   22.0636 H   0  0  0  0  0  0  0  0  0  0  0  0
   18.7649   34.5438   23.9213 H   0  0  0  0  0  0  0  0  0  0  0  0
   16.9510   37.2010   24.1740 H   0  0  0  0  0  0  0  0  0  0  0  0
   17.6924   40.1978   25.1897 H   0  0  0  0  0  0  0  0  0  0  0  0
   18.8179   40.5887   23.8454 H   0  0  0  0  0  0  0  0  0  0  0  0
   17.1515   41.2594   23.8454 H   0  0  0  0  0  0  0  0  0  0  0  0
   18.8666   39.3044   21.8794 H   0  0  0  0  0  0  0  0  0  0  0  0
   17.4803   38.2795   21.3750 H   0  0  0  0  0  0  0  0  0  0  0  0
   17.3213   40.0687   21.3750 H   0  0  0  0  0  0  0  0  0  0  0  0
   15.3670   39.1878   24.3709 H   0  0  0  0  0  0  0  0  0  0  0  0
   15.3837   40.0858   22.8153 H   0  0  0  0  0  0  0  0  0  0  0  0
   15.3604   38.2897   22.8153 H   0  0  0  0  0  0  0  0  0  0  0  0
   20.6845   37.8709   21.9203 H   0  0  0  0  0  0  0  0  0  0  0  0
  1  2  1  0
  2  3  2  0
  3  4  1  0
  4  5  2  0
  5  6  1  0
  6  7  1  0
  7  8  2  0
  8  9  1  0
  9 10  2  0
 10 11  1  0
 11 12  1  0
 12 13  1  0
 13 14  1  0
 14 15  1  0
 15 16  1  0
 16 17  1  0
 17 18  1  0
 10 19  1  0
 19 20  2  0
  5 21  1  0
 21 22  2  0
 22 23  1  0
 23 24  1  0
 24 25  2  0
 25 26  1  0
 26 27  2  0
 27 28  1  0
 28 29  1  0
 29 30  2  0
 29 31  2  0
 29 32  1  0
 32 33  1  0
 33 34  1  0
 33 35  1  0
 33 36  1  0
 28 37  2  0
 22  2  1  0
 37 24  1  0
 20  7  1  0
 18 14  1  0
  1 38  1  0
  1 39  1  0
  1 40  1  0
  3 41  1  0
  6 42  1  0
  8 43  1  0
  9 44  1  0
 12 45  1  0
 12 46  1  0
 13 47  1  0
 13 48  1  0
 14 49  1  0
 15 50  1  0
 15 51  1  0
 16 52  1  0
 16 53  1  0
 17 54  1  0
 17 55  1  0
 18 56  1  0
 18 57  1  0
 19 58  1  0
 20 59  1  0
 23 60  1  0
 25 61  1  0
 26 62  1  0
 27 63  1  0
 32 64  1  0
 34 65  1  0
 34 66  1  0
 34 67  1  0
 35 68  1  0
 35 69  1  0
 35 70  1  0
 36 71  1  0
 36 72  1  0
 36 73  1  0
 37 74  1  0
M  CHG  1  14   1
M  END
>  <meeko>  (3) 
{"is_sidechain": [false], "free_energy": -7.054, "intermolecular_energy": -11.669, "internal_energy": -1.829}

$$$$
4ogj_ligand
     RDKit          3D

 74 77  0  0  0  0  0  0  0  0999 V2000
   23.5520   36.7150   17.4560 C   0  0  0  0  0  0  0  0  0  0  0  0
   22.9180   37.8620   18.1740 C   0  0  0  0  0  0  0  0  0  0  0  0
   23.2670   39.1620   17.8830 C   0  0  0  0  0  0  0  0  0  0  0  0
   22.7280   40.2350   18.4840 N   0  0  0  0  0  0  0  0  0  0  0  0
   21.7950   40.0040   19.4170 C   0  0  0  0  0  0  0  0  0  0  0  0
   21.2500   41.1510   19.9890 N   0  0  0  0  0  0  0  0  0  0  0  0
   20.2030   41.3890   20.8810 C   0  0  0  0  0  0  0  0  0  0  0  0
   20.4860   42.0360   22.0920 C   0  0  0  0  0  0  0  0  0  0  0  0
   19.4730   42.3370   23.0090 C   0  0  0  0  0  0  0  0  0  0  0  0
   18.1470   42.0100   22.7330 C   0  0  0  0  0  0  0  0  0  0  0  0
   17.2530   42.3720   23.7000 O   0  0  0  0  0  0  0  0  0  0  0  0
   16.0210   42.9400   23.2630 C   0  0  0  0  0  0  0  0  0  0  0  0
   16.0600   44.4650   23.4440 C   0  0  0  0  0  0  0  0  0  0  0  0
   16.5480   45.2520   22.2450 N   0  0  0  0  0  0  0  0  0  0  0  0
   16.2730   44.6690   20.8760 C   0  0  0  0  0  0  0  0  0  0  0  0
   17.3540   45.2840   20.0120 C   0  0  0  0  0  0  0  0  0  0  0  0
   18.5640   45.2500   20.9250 C   0  0  0  0  0  0  0  0  0  0  0  0
   18.0120   45.6670   22.2770 C   0  0  0  0  0  0  0  0  0  0  0  0
   17.8480   41.3610   21.5380 C   0  0  0  0  0  0  0  0  0  0  0  0
   18.8700   41.0610   20.6240 C   0  0  0  0  0  0  0  0  0  0  0  0
   21.3930   38.7770   19.7670 N   0  0  0  0  0  0  0  0  0  0  0  0
   21.9520   37.7110   19.1620 C   0  0  0  0  0  0  0  0  0  0  0  0
   21.5460   36.4010   19.5210 N   0  0  0  0  0  0  0  0  0  0  0  0
   20.7870   35.9880   20.6360 C   0  0  0  0  0  0  0  0  0  0  0  0
   20.4680   34.6450   20.8790 C   0  0  0  0  0  0  0  0  0  0  0  0
   19.7680   34.2570   22.0270 C   0  0  0  0  0  0  0  0  0  0  0  0
   19.3830   35.2120   22.9630 C   0  0  0  0  0  0  0  0  0  0  0  0
   19.7080   36.5520   22.7400 C   0  0  0  0  0  0  0  0  0  0  0  0
   19.2700   37.7640   23.9560 S   0  0  0  0  0  0  0  0  0  0  0  0
   19.3790   37.1190   25.2480 O   0  0  0  0  0  0  0  0  0  0  0  0
   19.9810   38.9880   23.6700 O   0  0  0  0  0  0  0  0  0  0  0  0
   17.6370   37.9980   23.7150 N   0  0  0  0  0  0  0  0  0  0  0  0
   16.6530   38.5940   24.6360 C   0  0  0  0  0  0  0  0  0  0  0  0
   17.2610   39.5900   25.6230 C   0  0  0  0  0  0  0  0  0  0  0  0
   15.5410   39.2620   23.8200 C   0  0  0  0  0  0  0  0  0  0  0  0
   16.0430   37.4300   25.4380 C   0  0  0  0  0  0  0  0  0  0  0  0
   20.4290   36.9360   21.6030 C   0  0  0  0  0  0  0  0  0  0  0  0
   23.9486   35.9975   18.1894 H   0  0  0  0  0  0  0  0  0  0  0  0
   22.8010   36.2171   16.8251 H   0  0  0  0  0  0  0  0  0  0  0  0
   24.3731   37.0861   16.8251 H   0  0  0  0  0  0  0  0  0  0  0  0
   24.0331   39.3315   17.1121 H   0  0  0  0  0  0  0  0  0  0  0  0
   21.8030   41.9450   19.6940 H   0  0  0  0  0  0  0  0  0  0  0  0
   21.5247   42.3124   22.3259 H   0  0  0  0  0  0  0  0  0  0  0  0
   19.7256   42.8362   23.9561 H   0  0  0  0  0  0  0  0  0  0  0  0
   15.8653   42.7019   22.2004 H   0  0  0  0  0  0  0  0  0  0  0  0
   15.1962   42.5236   23.8600 H   0  0  0  0  0  0  0  0  0  0  0  0
   15.0406   44.8044   23.6800 H   0  0  0  0  0  0  0  0  0  0  0  0
   16.7878   44.6553   24.2466 H   0  0  0  0  0  0  0  0  0  0  0  0
   16.0250   46.1380   22.2750 H   0  0  0  0  0  0  0  0  0  0  0  0
   16.3566   43.5723   20.8907 H   0  0  0  0  0  0  0  0  0  0  0  0
   15.2572   44.8840   20.5127 H   0  0  0  0  0  0  0  0  0  0  0  0
   17.5245   44.6871   19.1039 H   0  0  0  0  0  0  0  0  0  0  0  0
   17.1055   46.2930   19.6513 H   0  0  0  0  0  0  0  0  0  0  0  0
   18.9908   44.2373   20.9718 H   0  0  0  0  0  0  0  0  0  0  0  0
   19.3765   45.9051   20.5777 H   0  0  0  0  0  0  0  0  0  0  0  0
   18.5437   45.1492   23.0889 H   0  0  0  0  0  0  0  0  0  0  0  0
   18.1338   46.7448   22.4603 H   0  0  0  0  0  0  0  0  0  0  0  0
   16.8085   41.0828   21.3098 H   0  0  0  0  0  0  0  0  0  0  0  0
   18.6146   40.5547   19.6814 H   0  0  0  0  0  0  0  0  0  0  0  0
   22.2800   35.7400   19.2890 H   0  0  0  0  0  0  0  0  0  0  0  0
   20.7746   33.8791   20.1514 H   0  0  0  0  0  0  0  0  0  0  0  0
   19.5221   33.1972   22.1894 H   0  0  0  0  0  0  0  0  0  0  0  0
   18.8300   34.9156   23.8665 H   0  0  0  0  0  0  0  0  0  0  0  0
   17.3170   37.6670   22.8050 H   0  0  0  0  0  0  0  0  0  0  0  0
   17.0579   39.2573   26.6516 H   0  0  0  0  0  0  0  0  0  0  0  0
   18.3479   39.6468   25.4639 H   0  0  0  0  0  0  0  0  0  0  0  0
   16.8147   40.5827   25.4639 H   0  0  0  0  0  0  0  0  0  0  0  0
   14.8016   39.7062   24.5026 H   0  0  0  0  0  0  0  0  0  0  0  0
   15.9741   40.0496   23.1858 H   0  0  0  0  0  0  0  0  0  0  0  0
   15.0491   38.5097   23.1858 H   0  0  0  0  0  0  0  0  0  0  0  0
   16.1485   37.6313   26.5143 H   0  0  0  0  0  0  0  0  0  0  0  0
   14.9768   37.3304   25.1864 H   0  0  0  0  0  0  0  0  0  0  0  0
   16.5679   36.4966   25.1864 H   0  0  0  0  0  0  0  0  0  0  0  0
   20.7163   37.9892   21.4682 H   0  0  0  0  0  0  0  0  0  0  0  0
  1  2  1  0
  2  3  2  0
  3  4  1  0
  4  5  2  0
  5  6  1  0
  6  7  1  0
  7  8  2  0
  8  9  1  0
  9 10  2  0
 10 11  1  0
 11 12  1  0
 12 13  1  0
 13 14  1  0
 14 15  1  0
 15 16  1  0
 16 17  1  0
 17 18  1  0
 10 19  1  0
 19 20  2  0
  5 21  1  0
 21 22  2  0
 22 23  1  0
 23 24  1  0
 24 25  2  0
 25 26  1  0
 26 27  2  0
 27 28  1  0
 28 29  1  0
 29 30  2  0
 29 31  2  0
 29 32  1  0
 32 33  1  0
 33 34  1  0
 33 35  1  0
 33 36  1  0
 28 37  2  0
 22  2  1  0
 37 24  1  0
 20  7  1  0
 18 14  1  0
  1 38  1  0
  1 39  1  0
  1 40  1  0
  3 41  1  0
  6 42  1  0
  8 43  1  0
  9 44  1  0
 12 45  1  0
 12 46  1  0
 13 47  1  0
 13 48  1  0
 14 49  1  0
 15 50  1  0
 15 51  1  0
 16 52  1  0
 16 53  1  0
 17 54  1  0
 17 55  1  0
 18 56  1  0
 18 57  1  0
 19 58  1  0
 20 59  1  0
 23 60  1  0
 25 61  1  0
 26 62  1  0
 27 63  1  0
 32 64  1  0
 34 65  1  0
 34 66  1  0
 34 67  1  0
 35 68  1  0
 35 69  1  0
 35 70  1  0
 36 71  1  0
 36 72  1  0
 36 73  1  0
 37 74  1  0
M  CHG  1  14   1
M  END
>  <meeko>  (4) 
{"is_sidechain": [false], "free_energy": -6.958, "intermolecular_energy": -11.238, "internal_energy": -2.102}

$$$$
4ogj_ligand
     RDKit          3D

 74 77  0  0  0  0  0  0  0  0999 V2000
   22.7190   40.6000   16.9000 C   0  0  0  0  0  0  0  0  0  0  0  0
   22.3630   39.4710   17.8130 C   0  0  0  0  0  0  0  0  0  0  0  0
   22.8690   38.2070   17.6080 C   0  0  0  0  0  0  0  0  0  0  0  0
   22.5970   37.1550   18.3970 N   0  0  0  0  0  0  0  0  0  0  0  0
   21.7850   37.3700   19.4400 C   0  0  0  0  0  0  0  0  0  0  0  0
   21.5580   36.2530   20.2390 N   0  0  0  0  0  0  0  0  0  0  0  0
   20.8440   36.0300   21.4180 C   0  0  0  0  0  0  0  0  0  0  0  0
   20.8130   37.0430   22.3860 C   0  0  0  0  0  0  0  0  0  0  0  0
   20.0830   36.8940   23.5710 C   0  0  0  0  0  0  0  0  0  0  0  0
   19.3550   35.7310   23.8130 C   0  0  0  0  0  0  0  0  0  0  0  0
   18.6740   35.7160   24.9960 O   0  0  0  0  0  0  0  0  0  0  0  0
   18.7890   36.8700   25.8240 C   0  0  0  0  0  0  0  0  0  0  0  0
   17.4080   37.2450   26.3860 C   0  0  0  0  0  0  0  0  0  0  0  0
   16.6560   38.3070   25.6100 N   0  0  0  0  0  0  0  0  0  0  0  0
   15.2860   37.9390   25.0820 C   0  0  0  0  0  0  0  0  0  0  0  0
   15.1020   38.8800   23.9100 C   0  0  0  0  0  0  0  0  0  0  0  0
   16.4800   38.8960   23.2800 C   0  0  0  0  0  0  0  0  0  0  0  0
   17.4220   38.9600   24.4690 C   0  0  0  0  0  0  0  0  0  0  0  0
   19.3800   34.7120   22.8650 C   0  0  0  0  0  0  0  0  0  0  0  0
   20.1160   34.8670   21.6800 C   0  0  0  0  0  0  0  0  0  0  0  0
   21.2450   38.5630   19.7160 N   0  0  0  0  0  0  0  0  0  0  0  0
   21.5200   39.6060   18.9090 C   0  0  0  0  0  0  0  0  0  0  0  0
   20.9540   40.8780   19.1790 N   0  0  0  0  0  0  0  0  0  0  0  0
   20.1780   41.2790   20.2870 C   0  0  0  0  0  0  0  0  0  0  0  0
   18.7910   41.4590   20.2130 C   0  0  0  0  0  0  0  0  0  0  0  0
   18.0370   41.7960   21.3430 C   0  0  0  0  0  0  0  0  0  0  0  0
   18.6620   41.9470   22.5770 C   0  0  0  0  0  0  0  0  0  0  0  0
   20.0430   41.7550   22.6670 C   0  0  0  0  0  0  0  0  0  0  0  0
   20.8350   41.8900   24.2460 S   0  0  0  0  0  0  0  0  0  0  0  0
   21.9420   42.8090   24.0830 O   0  0  0  0  0  0  0  0  0  0  0  0
   19.8260   42.1060   25.2560 O   0  0  0  0  0  0  0  0  0  0  0  0
   21.5340   40.3920   24.4700 N   0  0  0  0  0  0  0  0  0  0  0  0
   22.3020   39.9060   25.6290 C   0  0  0  0  0  0  0  0  0  0  0  0
   23.2740   40.9390   26.1980 C   0  0  0  0  0  0  0  0  0  0  0  0
   21.3290   39.4320   26.7150 C   0  0  0  0  0  0  0  0  0  0  0  0
   23.1180   38.6960   25.1380 C   0  0  0  0  0  0  0  0  0  0  0  0
   20.7920   41.3950   21.5400 C   0  0  0  0  0  0  0  0  0  0  0  0
   22.9968   41.4809   17.4973 H   0  0  0  0  0  0  0  0  0  0  0  0
   23.5677   40.3048   16.2655 H   0  0  0  0  0  0  0  0  0  0  0  0
   21.8545   40.8450   16.2655 H   0  0  0  0  0  0  0  0  0  0  0  0
   23.5354   38.0496   16.7471 H   0  0  0  0  0  0  0  0  0  0  0  0
   21.9880   35.4530   19.7940 H   0  0  0  0  0  0  0  0  0  0  0  0
   21.3733   37.9733   22.2111 H   0  0  0  0  0  0  0  0  0  0  0  0
   20.0841   37.7020   24.3175 H   0  0  0  0  0  0  0  0  0  0  0  0
   19.4763   36.6561   26.6558 H   0  0  0  0  0  0  0  0  0  0  0  0
   19.1793   37.7082   25.2281 H   0  0  0  0  0  0  0  0  0  0  0  0
   16.7899   36.3352   26.4021 H   0  0  0  0  0  0  0  0  0  0  0  0
   17.5927   37.6723   27.3826 H   0  0  0  0  0  0  0  0  0  0  0  0
   16.4950   39.0680   26.2850 H   0  0  0  0  0  0  0  0  0  0  0  0
   15.2589   36.8896   24.7532 H   0  0  0  0  0  0  0  0  0  0  0  0
   14.4930   38.0324   25.8386 H   0  0  0  0  0  0  0  0  0  0  0  0
   14.3483   38.4960   23.2069 H   0  0  0  0  0  0  0  0  0  0  0  0
   14.7427   39.8778   24.2021 H   0  0  0  0  0  0  0  0  0  0  0  0
   16.6526   37.9824   22.6922 H   0  0  0  0  0  0  0  0  0  0  0  0
   16.6186   39.7350   22.5822 H   0  0  0  0  0  0  0  0  0  0  0  0
   18.3492   38.4068   24.2586 H   0  0  0  0  0  0  0  0  0  0  0  0
   17.7196   39.9919   24.7068 H   0  0  0  0  0  0  0  0  0  0  0  0
   18.8209   33.7820   23.0452 H   0  0  0  0  0  0  0  0  0  0  0  0
   20.1196   34.0532   20.9399 H   0  0  0  0  0  0  0  0  0  0  0  0
   20.6380   41.3020   18.3140 H   0  0  0  0  0  0  0  0  0  0  0  0
   18.2831   41.3327   19.2455 H   0  0  0  0  0  0  0  0  0  0  0  0
   16.9502   41.9415   21.2556 H   0  0  0  0  0  0  0  0  0  0  0  0
   18.0769   42.2139   23.4694 H   0  0  0  0  0  0  0  0  0  0  0  0
   21.3940   39.7640   23.6780 H   0  0  0  0  0  0  0  0  0  0  0  0
   23.2426   40.9056   27.2970 H   0  0  0  0  0  0  0  0  0  0  0  0
   24.2936   40.7120   25.8533 H   0  0  0  0  0  0  0  0  0  0  0  0
   22.9854   41.9429   25.8533 H   0  0  0  0  0  0  0  0  0  0  0  0
   21.7567   39.6404   27.7068 H   0  0  0  0  0  0  0  0  0  0  0  0
   20.3728   39.9652   26.6087 H   0  0  0  0  0  0  0  0  0  0  0  0
   21.1595   38.3504   26.6087 H   0  0  0  0  0  0  0  0  0  0  0  0
   23.4972   38.1337   26.0040 H   0  0  0  0  0  0  0  0  0  0  0  0
   22.4752   38.0428   24.5296 H   0  0  0  0  0  0  0  0  0  0  0  0
   23.9645   39.0471   24.5296 H   0  0  0  0  0  0  0  0  0  0  0  0
   21.8703   41.2020   21.6398 H   0  0  0  0  0  0  0  0  0  0  0  0
  1  2  1  0
  2  3  2  0
  3  4  1  0
  4  5  2  0
  5  6  1  0
  6  7  1  0
  7  8  2  0
  8  9  1  0
  9 10  2  0
 10 11  1  0
 11 12  1  0
 12 13  1  0
 13 14  1  0
 14 15  1  0
 15 16  1  0
 16 17  1  0
 17 18  1  0
 10 19  1  0
 19 20  2  0
  5 21  1  0
 21 22  2  0
 22 23  1  0
 23 24  1  0
 24 25  2  0
 25 26  1  0
 26 27  2  0
 27 28  1  0
 28 29  1  0
 29 30  2  0
 29 31  2  0
 29 32  1  0
 32 33  1  0
 33 34  1  0
 33 35  1  0
 33 36  1  0
 28 37  2  0
 22  2  1  0
 37 24  1  0
 20  7  1  0
 18 14  1  0
  1 38  1  0
  1 39  1  0
  1 40  1  0
  3 41  1  0
  6 42  1  0
  8 43  1  0
  9 44  1  0
 12 45  1  0
 12 46  1  0
 13 47  1  0
 13 48  1  0
 14 49  1  0
 15 50  1  0
 15 51  1  0
 16 52  1  0
 16 53  1  0
 17 54  1  0
 17 55  1  0
 18 56  1  0
 18 57  1  0
 19 58  1  0
 20 59  1  0
 23 60  1  0
 25 61  1  0
 26 62  1  0
 27 63  1  0
 32 64  1  0
 34 65  1  0
 34 66  1  0
 34 67  1  0
 35 68  1  0
 35 69  1  0
 35 70  1  0
 36 71  1  0
 36 72  1  0
 36 73  1  0
 37 74  1  0
M  CHG  1  14   1
M  END
>  <meeko>  (5) 
{"is_sidechain": [false], "free_energy": -6.885, "intermolecular_energy": -10.983, "internal_energy": -2.237}

$$$$
4ogj_ligand
     RDKit          3D

 74 77  0  0  0  0  0  0  0  0999 V2000
   23.5380   37.2360   18.2100 C   0  0  0  0  0  0  0  0  0  0  0  0
   22.4640   38.1840   18.6390 C   0  0  0  0  0  0  0  0  0  0  0  0
   22.5660   39.5330   18.3850 C   0  0  0  0  0  0  0  0  0  0  0  0
   21.6330   40.4340   18.7340 N   0  0  0  0  0  0  0  0  0  0  0  0
   20.5460   39.9700   19.3640 C   0  0  0  0  0  0  0  0  0  0  0  0
   19.6000   40.9410   19.6800 N   0  0  0  0  0  0  0  0  0  0  0  0
   19.1340   41.4930   20.8750 C   0  0  0  0  0  0  0  0  0  0  0  0
   19.7600   42.6440   21.3720 C   0  0  0  0  0  0  0  0  0  0  0  0
   19.3140   43.2660   22.5430 C   0  0  0  0  0  0  0  0  0  0  0  0
   18.2210   42.7580   23.2430 C   0  0  0  0  0  0  0  0  0  0  0  0
   17.8760   43.4640   24.3600 O   0  0  0  0  0  0  0  0  0  0  0  0
   18.4940   44.7350   24.5390 C   0  0  0  0  0  0  0  0  0  0  0  0
   19.2030   44.7790   25.9030 C   0  0  0  0  0  0  0  0  0  0  0  0
   20.7140   44.6850   25.8550 N   0  0  0  0  0  0  0  0  0  0  0  0
   21.4110   45.3130   24.6670 C   0  0  0  0  0  0  0  0  0  0  0  0
   22.7140   44.5470   24.5840 C   0  0  0  0  0  0  0  0  0  0  0  0
   22.2840   43.1270   24.8960 C   0  0  0  0  0  0  0  0  0  0  0  0
   21.2950   43.2900   26.0370 C   0  0  0  0  0  0  0  0  0  0  0  0
   17.5920   41.6110   22.7680 C   0  0  0  0  0  0  0  0  0  0  0  0
   18.0460   40.9920   21.5930 C   0  0  0  0  0  0  0  0  0  0  0  0
   20.3610   38.6770   19.6550 N   0  0  0  0  0  0  0  0  0  0  0  0
   21.3120   37.7880   19.3070 C   0  0  0  0  0  0  0  0  0  0  0  0
   21.1400   36.4140   19.6100 N   0  0  0  0  0  0  0  0  0  0  0  0
   20.5300   35.8310   20.7410 C   0  0  0  0  0  0  0  0  0  0  0  0
   20.3320   34.4490   20.8650 C   0  0  0  0  0  0  0  0  0  0  0  0
   19.7820   33.8920   22.0260 C   0  0  0  0  0  0  0  0  0  0  0  0
   19.4300   34.7130   23.0920 C   0  0  0  0  0  0  0  0  0  0  0  0
   19.6370   36.0900   22.9870 C   0  0  0  0  0  0  0  0  0  0  0  0
   19.2440   37.1330   24.3640 S   0  0  0  0  0  0  0  0  0  0  0  0
   18.4020   38.1960   23.8580 O   0  0  0  0  0  0  0  0  0  0  0  0
   18.8210   36.3040   25.4690 O   0  0  0  0  0  0  0  0  0  0  0  0
   20.6970   37.8610   24.7390 N   0  0  0  0  0  0  0  0  0  0  0  0
   20.9920   39.2990   24.8690 C   0  0  0  0  0  0  0  0  0  0  0  0
   19.8890   40.0920   25.5670 C   0  0  0  0  0  0  0  0  0  0  0  0
   22.3250   39.4740   25.6040 C   0  0  0  0  0  0  0  0  0  0  0  0
   21.1460   39.8440   23.4370 C   0  0  0  0  0  0  0  0  0  0  0  0
   20.2090   36.6440   21.8350 C   0  0  0  0  0  0  0  0  0  0  0  0
   24.0244   36.8067   19.0983 H   0  0  0  0  0  0  0  0  0  0  0  0
   23.0955   36.4286   17.6081 H   0  0  0  0  0  0  0  0  0  0  0  0
   24.2842   37.7754   17.6081 H   0  0  0  0  0  0  0  0  0  0  0  0
   23.4654   39.8948   17.8651 H   0  0  0  0  0  0  0  0  0  0  0  0
   19.2400   41.3250   18.8170 H   0  0  0  0  0  0  0  0  0  0  0  0
   20.6191   43.0668   20.8306 H   0  0  0  0  0  0  0  0  0  0  0  0
   19.8302   44.1635   22.9144 H   0  0  0  0  0  0  0  0  0  0  0  0
   19.2304   44.8995   23.7386 H   0  0  0  0  0  0  0  0  0  0  0  0
   17.7262   45.5219   24.5019 H   0  0  0  0  0  0  0  0  0  0  0  0
   18.9377   45.7277   26.3926 H   0  0  0  0  0  0  0  0  0  0  0  0
   18.8619   43.8877   26.4499 H   0  0  0  0  0  0  0  0  0  0  0  0
   21.0420   45.2120   26.6760 H   0  0  0  0  0  0  0  0  0  0  0  0
   20.8188   45.1840   23.7491 H   0  0  0  0  0  0  0  0  0  0  0  0
   21.5553   46.3980   24.7763 H   0  0  0  0  0  0  0  0  0  0  0  0
   23.1522   44.6170   23.5775 H   0  0  0  0  0  0  0  0  0  0  0  0
   23.4896   44.9285   25.2644 H   0  0  0  0  0  0  0  0  0  0  0  0
   21.8020   42.6628   24.0230 H   0  0  0  0  0  0  0  0  0  0  0  0
   23.1300   42.4740   25.1566 H   0  0  0  0  0  0  0  0  0  0  0  0
   20.5027   42.5295   25.9741 H   0  0  0  0  0  0  0  0  0  0  0  0
   21.7725   43.1652   27.0201 H   0  0  0  0  0  0  0  0  0  0  0  0
   16.7364   41.1883   23.3151 H   0  0  0  0  0  0  0  0  0  0  0  0
   17.5322   40.0901   21.2287 H   0  0  0  0  0  0  0  0  0  0  0  0
   21.9510   35.8910   19.2980 H   0  0  0  0  0  0  0  0  0  0  0  0
   20.6147   33.7879   20.0325 H   0  0  0  0  0  0  0  0  0  0  0  0
   19.6283   32.8050   22.0949 H   0  0  0  0  0  0  0  0  0  0  0  0
   18.9942   34.2832   24.0060 H   0  0  0  0  0  0  0  0  0  0  0  0
   21.4530   37.1920   24.8840 H   0  0  0  0  0  0  0  0  0  0  0  0
   20.0090   40.0057   26.6570 H   0  0  0  0  0  0  0  0  0  0  0  0
   19.9561   41.1500   25.2733 H   0  0  0  0  0  0  0  0  0  0  0  0
   18.9075   39.6915   25.2733 H   0  0  0  0  0  0  0  0  0  0  0  0
   22.1507   39.4511   26.6899 H   0  0  0  0  0  0  0  0  0  0  0  0
   23.0075   38.6578   25.3249 H   0  0  0  0  0  0  0  0  0  0  0  0
   22.7737   40.4388   25.3249 H   0  0  0  0  0  0  0  0  0  0  0  0
   21.4449   40.9018   23.4774 H   0  0  0  0  0  0  0  0  0  0  0  0
   21.9159   39.2655   22.9053 H   0  0  0  0  0  0  0  0  0  0  0  0
   20.1872   39.7540   22.9053 H   0  0  0  0  0  0  0  0  0  0  0  0
   20.4074   37.7250   21.7892 H   0  0  0  0  0  0  0  0  0  0  0  0
  1  2  1  0
  2  3  2  0
  3  4  1  0
  4  5  2  0
  5  6  1  0
  6  7  1  0
  7  8  2  0
  8  9  1  0
  9 10  2  0
 10 11  1  0
 11 12  1  0
 12 13  1  0
 13 14  1  0
 14 15  1  0
 15 16  1  0
 16 17  1  0
 17 18  1  0
 10 19  1  0
 19 20  2  0
  5 21  1  0
 21 22  2  0
 22 23  1  0
 23 24  1  0
 24 25  2  0
 25 26  1  0
 26 27  2  0
 27 28  1  0
 28 29  1  0
 29 30  2  0
 29 31  2  0
 29 32  1  0
 32 33  1  0
 33 34  1  0
 33 35  1  0
 33 36  1  0
 28 37  2  0
 22  2  1  0
 37 24  1  0
 20  7  1  0
 18 14  1  0
  1 38  1  0
  1 39  1  0
  1 40  1  0
  3 41  1  0
  6 42  1  0
  8 43  1  0
  9 44  1  0
 12 45  1  0
 12 46  1  0
 13 47  1  0
 13 48  1  0
 14 49  1  0
 15 50  1  0
 15 51  1  0
 16 52  1  0
 16 53  1  0
 17 54  1  0
 17 55  1  0
 18 56  1  0
 18 57  1  0
 19 58  1  0
 20 59  1  0
 23 60  1  0
 25 61  1  0
 26 62  1  0
 27 63  1  0
 32 64  1  0
 34 65  1  0
 34 66  1  0
 34 67  1  0
 35 68  1  0
 35 69  1  0
 35 70  1  0
 36 71  1  0
 36 72  1  0
 36 73  1  0
 37 74  1  0
M  CHG  1  14   1
M  END
>  <meeko>  (6) 
{"is_sidechain": [false], "free_energy": -6.858, "intermolecular_energy": -10.864, "internal_energy": -2.312}

$$$$
4ogj_ligand
     RDKit          3D

 74 77  0  0  0  0  0  0  0  0999 V2000
   17.6590   43.0410   21.6050 C   0  0  0  0  0  0  0  0  0  0  0  0
   18.6110   41.9080   21.3960 C   0  0  0  0  0  0  0  0  0  0  0  0
   18.1540   40.6430   21.1000 C   0  0  0  0  0  0  0  0  0  0  0  0
   18.9560   39.5860   20.8910 N   0  0  0  0  0  0  0  0  0  0  0  0
   20.2750   39.7990   20.9770 C   0  0  0  0  0  0  0  0  0  0  0  0
   21.0610   38.6770   20.7260 N   0  0  0  0  0  0  0  0  0  0  0  0
   20.8660   37.3020   20.8650 C   0  0  0  0  0  0  0  0  0  0  0  0
   20.8100   36.7590   22.1560 C   0  0  0  0  0  0  0  0  0  0  0  0
   20.5780   35.3940   22.3610 C   0  0  0  0  0  0  0  0  0  0  0  0
   20.3830   34.5380   21.2790 C   0  0  0  0  0  0  0  0  0  0  0  0
   20.1500   33.2350   21.6130 O   0  0  0  0  0  0  0  0  0  0  0  0
   18.8950   32.9360   22.2180 C   0  0  0  0  0  0  0  0  0  0  0  0
   19.1200   32.3740   23.6310 C   0  0  0  0  0  0  0  0  0  0  0  0
   18.2470   32.9690   24.7160 N   0  0  0  0  0  0  0  0  0  0  0  0
   18.2490   34.4750   24.8590 C   0  0  0  0  0  0  0  0  0  0  0  0
   17.8450   34.6880   26.3020 C   0  0  0  0  0  0  0  0  0  0  0  0
   18.5930   33.5830   27.0210 C   0  0  0  0  0  0  0  0  0  0  0  0
   18.4290   32.3800   26.1080 C   0  0  0  0  0  0  0  0  0  0  0  0
   20.4420   35.0590   19.9900 C   0  0  0  0  0  0  0  0  0  0  0  0
   20.6770   36.4280   19.7910 C   0  0  0  0  0  0  0  0  0  0  0  0
   20.8110   40.9920   21.2600 N   0  0  0  0  0  0  0  0  0  0  0  0
   19.9910   42.0390   21.4780 C   0  0  0  0  0  0  0  0  0  0  0  0
   20.5370   43.3110   21.7860 N   0  0  0  0  0  0  0  0  0  0  0  0
   21.1630   43.7370   22.9760 C   0  0  0  0  0  0  0  0  0  0  0  0
   21.3860   45.0880   23.2720 C   0  0  0  0  0  0  0  0  0  0  0  0
   21.9520   45.4850   24.4890 C   0  0  0  0  0  0  0  0  0  0  0  0
   22.2950   44.5300   25.4410 C   0  0  0  0  0  0  0  0  0  0  0  0
   22.0640   43.1810   25.1650 C   0  0  0  0  0  0  0  0  0  0  0  0
   22.4460   41.9670   26.3960 S   0  0  0  0  0  0  0  0  0  0  0  0
   23.6850   41.3360   25.9930 O   0  0  0  0  0  0  0  0  0  0  0  0
   22.3040   42.5670   27.7020 O   0  0  0  0  0  0  0  0  0  0  0  0
   21.2690   40.8030   26.1870 N   0  0  0  0  0  0  0  0  0  0  0  0
   21.4330   39.3410   26.1140 C   0  0  0  0  0  0  0  0  0  0  0  0
   22.3160   38.8790   24.9560 C   0  0  0  0  0  0  0  0  0  0  0  0
   21.9890   38.8290   27.4470 C   0  0  0  0  0  0  0  0  0  0  0  0
   20.0250   38.7520   25.9110 C   0  0  0  0  0  0  0  0  0  0  0  0
   21.4760   42.7870   23.9560 C   0  0  0  0  0  0  0  0  0  0  0  0
   17.5187   43.2079   22.6832 H   0  0  0  0  0  0  0  0  0  0  0  0
   18.0664   43.9523   21.1428 H   0  0  0  0  0  0  0  0  0  0  0  0
   16.6912   42.7967   21.1428 H   0  0  0  0  0  0  0  0  0  0  0  0
   17.0670   40.4890   21.0306 H   0  0  0  0  0  0  0  0  0  0  0  0
   21.9300   38.9860   20.3110 H   0  0  0  0  0  0  0  0  0  0  0  0
   20.9511   37.4185   23.0250 H   0  0  0  0  0  0  0  0  0  0  0  0
   20.5494   34.9936   23.3851 H   0  0  0  0  0  0  0  0  0  0  0  0
   18.2921   33.8539   22.2816 H   0  0  0  0  0  0  0  0  0  0  0  0
   18.3668   32.1877   21.6089 H   0  0  0  0  0  0  0  0  0  0  0  0
   18.9301   31.2910   23.5992 H   0  0  0  0  0  0  0  0  0  0  0  0
   20.1545   32.6352   23.8987 H   0  0  0  0  0  0  0  0  0  0  0  0
   17.2840   32.7190   24.4520 H   0  0  0  0  0  0  0  0  0  0  0  0
   19.2499   34.8880   24.6649 H   0  0  0  0  0  0  0  0  0  0  0  0
   17.5782   34.9761   24.1456 H   0  0  0  0  0  0  0  0  0  0  0  0
   18.1599   35.6791   26.6604 H   0  0  0  0  0  0  0  0  0  0  0  0
   16.7571   34.6555   26.4612 H   0  0  0  0  0  0  0  0  0  0  0  0
   19.6553   33.8423   27.1403 H   0  0  0  0  0  0  0  0  0  0  0  0
   18.2105   33.4015   28.0363 H   0  0  0  0  0  0  0  0  0  0  0  0
   19.3238   31.7413   26.1444 H   0  0  0  0  0  0  0  0  0  0  0  0
   17.5800   31.7467   26.4047 H   0  0  0  0  0  0  0  0  0  0  0  0
   20.3039   34.3952   19.1238 H   0  0  0  0  0  0  0  0  0  0  0  0
   20.7133   36.8228   18.7649 H   0  0  0  0  0  0  0  0  0  0  0  0
   19.9630   44.0380   21.3720 H   0  0  0  0  0  0  0  0  0  0  0  0
   21.1103   45.8535   22.5318 H   0  0  0  0  0  0  0  0  0  0  0  0
   22.1256   46.5519   24.6928 H   0  0  0  0  0  0  0  0  0  0  0  0
   22.7424   44.8339   26.3988 H   0  0  0  0  0  0  0  0  0  0  0  0
   20.3330   41.1950   26.0960 H   0  0  0  0  0  0  0  0  0  0  0  0
   23.2244   38.4037   25.3546 H   0  0  0  0  0  0  0  0  0  0  0  0
   21.7633   38.1545   24.3398 H   0  0  0  0  0  0  0  0  0  0  0  0
   22.5960   39.7461   24.3398 H   0  0  0  0  0  0  0  0  0  0  0  0
   21.4584   39.3176   28.2775 H   0  0  0  0  0  0  0  0  0  0  0  0
   21.8455   37.7402   27.5102 H   0  0  0  0  0  0  0  0  0  0  0  0
   23.0623   39.0616   27.5102 H   0  0  0  0  0  0  0  0  0  0  0  0
   19.5635   38.5590   26.8907 H   0  0  0  0  0  0  0  0  0  0  0  0
   19.4062   39.4667   25.3486 H   0  0  0  0  0  0  0  0  0  0  0  0
   20.0994   37.8095   25.3486 H   0  0  0  0  0  0  0  0  0  0  0  0
   21.2587   41.7239   23.7753 H   0  0  0  0  0  0  0  0  0  0  0  0
  1  2  1  0
  2  3  2  0
  3  4  1  0
  4  5  2  0
  5  6  1  0
  6  7  1  0
  7  8  2  0
  8  9  1  0
  9 10  2  0
 10 11  1  0
 11 12  1  0
 12 13  1  0
 13 14  1  0
 14 15  1  0
 15 16  1  0
 16 17  1  0
 17 18  1  0
 10 19  1  0
 19 20  2  0
  5 21  1  0
 21 22  2  0
 22 23  1  0
 23 24  1  0
 24 25  2  0
 25 26  1  0
 26 27  2  0
 27 28  1  0
 28 29  1  0
 29 30  2  0
 29 31  2  0
 29 32  1  0
 32 33  1  0
 33 34  1  0
 33 35  1  0
 33 36  1  0
 28 37  2  0
 22  2  1  0
 37 24  1  0
 20  7  1  0
 18 14  1  0
  1 38  1  0
  1 39  1  0
  1 40  1  0
  3 41  1  0
  6 42  1  0
  8 43  1  0
  9 44  1  0
 12 45  1  0
 12 46  1  0
 13 47  1  0
 13 48  1  0
 14 49  1  0
 15 50  1  0
 15 51  1  0
 16 52  1  0
 16 53  1  0
 17 54  1  0
 17 55  1  0
 18 56  1  0
 18 57  1  0
 19 58  1  0
 20 59  1  0
 23 60  1  0
 25 61  1  0
 26 62  1  0
 27 63  1  0
 32 64  1  0
 34 65  1  0
 34 66  1  0
 34 67  1  0
 35 68  1  0
 35 69  1  0
 35 70  1  0
 36 71  1  0
 36 72  1  0
 36 73  1  0
 37 74  1  0
M  CHG  1  14   1
M  END
>  <meeko>  (7) 
{"is_sidechain": [false], "free_energy": -6.472, "intermolecular_energy": -11.028, "internal_energy": -1.514}

$$$$
4ogj_ligand
     RDKit          3D

 74 77  0  0  0  0  0  0  0  0999 V2000
   19.9910   33.5010   18.7960 C   0  0  0  0  0  0  0  0  0  0  0  0
   19.6690   33.6070   20.2520 C   0  0  0  0  0  0  0  0  0  0  0  0
   18.8890   32.6600   20.8760 C   0  0  0  0  0  0  0  0  0  0  0  0
   18.5730   32.6920   22.1810 N   0  0  0  0  0  0  0  0  0  0  0  0
   19.0590   33.7120   22.8990 C   0  0  0  0  0  0  0  0  0  0  0  0
   18.7230   33.6830   24.2500 N   0  0  0  0  0  0  0  0  0  0  0  0
   17.9130   34.4720   25.0690 C   0  0  0  0  0  0  0  0  0  0  0  0
   18.2570   35.8180   25.2580 C   0  0  0  0  0  0  0  0  0  0  0  0
   17.4640   36.6690   26.0340 C   0  0  0  0  0  0  0  0  0  0  0  0
   16.2970   36.1990   26.6340 C   0  0  0  0  0  0  0  0  0  0  0  0
   15.6040   37.1310   27.3510 O   0  0  0  0  0  0  0  0  0  0  0  0
   15.2710   38.3460   26.6840 C   0  0  0  0  0  0  0  0  0  0  0  0
   14.2640   38.0590   25.5590 C   0  0  0  0  0  0  0  0  0  0  0  0
   14.4150   38.9130   24.3160 N   0  0  0  0  0  0  0  0  0  0  0  0
   15.6940   38.7630   23.5230 C   0  0  0  0  0  0  0  0  0  0  0  0
   15.8140   40.0890   22.8020 C   0  0  0  0  0  0  0  0  0  0  0  0
   15.3640   41.0800   23.8570 C   0  0  0  0  0  0  0  0  0  0  0  0
   14.1690   40.4030   24.5050 C   0  0  0  0  0  0  0  0  0  0  0  0
   15.9440   34.8630   26.4630 C   0  0  0  0  0  0  0  0  0  0  0  0
   16.7450   34.0150   25.6830 C   0  0  0  0  0  0  0  0  0  0  0  0
   19.8240   34.6790   22.3780 N   0  0  0  0  0  0  0  0  0  0  0  0
   20.1220   34.6380   21.0650 C   0  0  0  0  0  0  0  0  0  0  0  0
   20.9260   35.6540   20.4910 N   0  0  0  0  0  0  0  0  0  0  0  0
   20.6010   37.0070   20.2560 C   0  0  0  0  0  0  0  0  0  0  0  0
   20.0520   37.4550   19.0480 C   0  0  0  0  0  0  0  0  0  0  0  0
   19.6800   38.7920   18.8650 C   0  0  0  0  0  0  0  0  0  0  0  0
   19.8410   39.7060   19.9010 C   0  0  0  0  0  0  0  0  0  0  0  0
   20.3730   39.2700   21.1170 C   0  0  0  0  0  0  0  0  0  0  0  0
   20.5270   40.4180   22.4570 S   0  0  0  0  0  0  0  0  0  0  0  0
   21.2000   41.5870   21.9320 O   0  0  0  0  0  0  0  0  0  0  0  0
   19.2520   40.5250   23.1260 O   0  0  0  0  0  0  0  0  0  0  0  0
   21.6310   39.6930   23.4760 N   0  0  0  0  0  0  0  0  0  0  0  0
   21.8480   39.9410   24.9120 C   0  0  0  0  0  0  0  0  0  0  0  0
   23.1640   39.3730   25.4420 C   0  0  0  0  0  0  0  0  0  0  0  0
   21.7700   41.4480   25.1800 C   0  0  0  0  0  0  0  0  0  0  0  0
   20.6900   39.2490   25.6550 C   0  0  0  0  0  0  0  0  0  0  0  0
   20.7230   37.9270   21.3050 C   0  0  0  0  0  0  0  0  0  0  0  0
   21.0294   33.1592   18.6741 H   0  0  0  0  0  0  0  0  0  0  0  0
   19.3094   32.7798   18.3213 H   0  0  0  0  0  0  0  0  0  0  0  0
   19.8711   34.4860   18.3213 H   0  0  0  0  0  0  0  0  0  0  0  0
   18.5015   31.8277   20.2700 H   0  0  0  0  0  0  0  0  0  0  0  0
   19.1510   32.8660   24.6650 H   0  0  0  0  0  0  0  0  0  0  0  0
   19.1691   36.2125   24.7863 H   0  0  0  0  0  0  0  0  0  0  0  0
   17.7637   37.7183   26.1721 H   0  0  0  0  0  0  0  0  0  0  0  0
   14.8250   39.0481   27.4038 H   0  0  0  0  0  0  0  0  0  0  0  0
   16.1821   38.7875   26.2540 H   0  0  0  0  0  0  0  0  0  0  0  0
   14.3777   37.0058   25.2627 H   0  0  0  0  0  0  0  0  0  0  0  0
   13.2729   38.2984   25.9719 H   0  0  0  0  0  0  0  0  0  0  0  0
   13.6630   38.6040   23.6860 H   0  0  0  0  0  0  0  0  0  0  0  0
   16.5536   38.5974   24.1891 H   0  0  0  0  0  0  0  0  0  0  0  0
   15.6783   37.9012   22.8396 H   0  0  0  0  0  0  0  0  0  0  0  0
   16.8523   40.2810   22.4938 H   0  0  0  0  0  0  0  0  0  0  0  0
   15.2239   40.1383   21.8750 H   0  0  0  0  0  0  0  0  0  0  0  0
   16.1613   41.2567   24.5939 H   0  0  0  0  0  0  0  0  0  0  0  0
   15.1174   42.0660   23.4363 H   0  0  0  0  0  0  0  0  0  0  0  0
   14.1147   40.6539   25.5746 H   0  0  0  0  0  0  0  0  0  0  0  0
   13.2169   40.7260   24.0587 H   0  0  0  0  0  0  0  0  0  0  0  0
   15.0341   34.4710   26.9410 H   0  0  0  0  0  0  0  0  0  0  0  0
   16.4456   32.9647   25.5520 H   0  0  0  0  0  0  0  0  0  0  0  0
   21.4950   35.2610   19.7490 H   0  0  0  0  0  0  0  0  0  0  0  0
   19.9099   36.7400   18.2243 H   0  0  0  0  0  0  0  0  0  0  0  0
   19.2606   39.1196   17.9023 H   0  0  0  0  0  0  0  0  0  0  0  0
   19.5531   40.7589   19.7646 H   0  0  0  0  0  0  0  0  0  0  0  0
   22.2160   39.0030   23.0050 H   0  0  0  0  0  0  0  0  0  0  0  0
   23.1495   39.3793   26.5419 H   0  0  0  0  0  0  0  0  0  0  0  0
   23.2890   38.3408   25.0828 H   0  0  0  0  0  0  0  0  0  0  0  0
   24.0008   39.9901   25.0828 H   0  0  0  0  0  0  0  0  0  0  0  0
   21.7607   41.6274   26.2652 H   0  0  0  0  0  0  0  0  0  0  0  0
   22.6436   41.9455   24.7336 H   0  0  0  0  0  0  0  0  0  0  0  0
   20.8497   41.8527   24.7336 H   0  0  0  0  0  0  0  0  0  0  0  0
   20.8438   39.3409   26.7403 H   0  0  0  0  0  0  0  0  0  0  0  0
   19.7388   39.7269   25.3777 H   0  0  0  0  0  0  0  0  0  0  0  0
   20.6603   38.1849   25.3777 H   0  0  0  0  0  0  0  0  0  0  0  0
   21.0965   37.5922   22.2840 H   0  0  0  0  0  0  0  0  0  0  0  0
  1  2  1  0
  2  3  2  0
  3  4  1  0
  4  5  2  0
  5  6  1  0
  6  7  1  0
  7  8  2  0
  8  9  1  0
  9 10  2  0
 10 11  1  0
 11 12  1  0
 12 13  1  0
 13 14  1  0
 14 15  1  0
 15 16  1  0
 16 17  1  0
 17 18  1  0
 10 19  1  0
 19 20  2  0
  5 21  1  0
 21 22  2  0
 22 23  1  0
 23 24  1  0
 24 25  2  0
 25 26  1  0
 26 27  2  0
 27 28  1  0
 28 29  1  0
 29 30  2  0
 29 31  2  0
 29 32  1  0
 32 33  1  0
 33 34  1  0
 33 35  1  0
 33 36  1  0
 28 37  2  0
 22  2  1  0
 37 24  1  0
 20  7  1  0
 18 14  1  0
  1 38  1  0
  1 39  1  0
  1 40  1  0
  3 41  1  0
  6 42  1  0
  8 43  1  0
  9 44  1  0
 12 45  1  0
 12 46  1  0
 13 47  1  0
 13 48  1  0
 14 49  1  0
 15 50  1  0
 15 51  1  0
 16 52  1  0
 16 53  1  0
 17 54  1  0
 17 55  1  0
 18 56  1  0
 18 57  1  0
 19 58  1  0
 20 59  1  0
 23 60  1  0
 25 61  1  0
 26 62  1  0
 27 63  1  0
 32 64  1  0
 34 65  1  0
 34 66  1  0
 34 67  1  0
 35 68  1  0
 35 69  1  0
 35 70  1  0
 36 71  1  0
 36 72  1  0
 36 73  1  0
 37 74  1  0
M  CHG  1  14   1
M  END
>  <meeko>  (8) 
{"is_sidechain": [false], "free_energy": -6.408, "intermolecular_energy": -10.43, "internal_energy": -2.007}

$$$$
4ogj_ligand
     RDKit          3D

 74 77  0  0  0  0  0  0  0  0999 V2000
   22.4920   45.7200   25.5770 C   0  0  0  0  0  0  0  0  0  0  0  0
   21.8410   44.9050   24.5060 C   0  0  0  0  0  0  0  0  0  0  0  0
   21.0900   45.5020   23.5180 C   0  0  0  0  0  0  0  0  0  0  0  0
   20.4890   44.8290   22.5240 N   0  0  0  0  0  0  0  0  0  0  0  0
   20.6440   43.4990   22.5100 C   0  0  0  0  0  0  0  0  0  0  0  0
   20.0230   42.8530   21.4440 N   0  0  0  0  0  0  0  0  0  0  0  0
   19.9860   41.5310   20.9960 C   0  0  0  0  0  0  0  0  0  0  0  0
   21.1530   40.9700   20.4600 C   0  0  0  0  0  0  0  0  0  0  0  0
   21.1890   39.6390   20.0310 C   0  0  0  0  0  0  0  0  0  0  0  0
   20.0600   38.8290   20.1380 C   0  0  0  0  0  0  0  0  0  0  0  0
   20.2290   37.5470   19.6990 O   0  0  0  0  0  0  0  0  0  0  0  0
   21.1860   36.7480   20.3900 C   0  0  0  0  0  0  0  0  0  0  0  0
   20.4780   35.8970   21.4560 C   0  0  0  0  0  0  0  0  0  0  0  0
   20.4910   36.4680   22.8600 N   0  0  0  0  0  0  0  0  0  0  0  0
   19.1860   37.0120   23.3980 C   0  0  0  0  0  0  0  0  0  0  0  0
   19.6320   38.0090   24.4470 C   0  0  0  0  0  0  0  0  0  0  0  0
   20.8310   38.6650   23.7900 C   0  0  0  0  0  0  0  0  0  0  0  0
   21.5670   37.5070   23.1400 C   0  0  0  0  0  0  0  0  0  0  0  0
   18.8890   39.3720   20.6610 C   0  0  0  0  0  0  0  0  0  0  0  0
   18.8600   40.7080   21.0880 C   0  0  0  0  0  0  0  0  0  0  0  0
   21.3540   42.8320   23.4270 N   0  0  0  0  0  0  0  0  0  0  0  0
   21.9410   43.5220   24.4250 C   0  0  0  0  0  0  0  0  0  0  0  0
   22.6930   42.8360   25.4110 N   0  0  0  0  0  0  0  0  0  0  0  0
   22.4400   41.5760   25.9950 C   0  0  0  0  0  0  0  0  0  0  0  0
   23.4180   40.5780   26.0940 C   0  0  0  0  0  0  0  0  0  0  0  0
   23.1570   39.3610   26.7350 C   0  0  0  0  0  0  0  0  0  0  0  0
   21.9080   39.1270   27.3020 C   0  0  0  0  0  0  0  0  0  0  0  0
   20.9290   40.1210   27.2230 C   0  0  0  0  0  0  0  0  0  0  0  0
   19.3570   39.8500   27.9920 S   0  0  0  0  0  0  0  0  0  0  0  0
   19.1550   38.4170   28.0400 O   0  0  0  0  0  0  0  0  0  0  0  0
   19.2780   40.6560   29.1870 O   0  0  0  0  0  0  0  0  0  0  0  0
   18.2610   40.4130   26.8680 N   0  0  0  0  0  0  0  0  0  0  0  0
   16.7950   40.2630   26.8650 C   0  0  0  0  0  0  0  0  0  0  0  0
   16.1970   40.0500   28.2550 C   0  0  0  0  0  0  0  0  0  0  0  0
   16.1660   41.4890   26.1940 C   0  0  0  0  0  0  0  0  0  0  0  0
   16.4840   39.0210   26.0100 C   0  0  0  0  0  0  0  0  0  0  0  0
   21.1990   41.3460   26.6020 C   0  0  0  0  0  0  0  0  0  0  0  0
   22.1880   45.3394   26.5633 H   0  0  0  0  0  0  0  0  0  0  0  0
   23.5853   45.6496   25.4779 H   0  0  0  0  0  0  0  0  0  0  0  0
   22.1818   46.7707   25.4779 H   0  0  0  0  0  0  0  0  0  0  0  0
   20.9758   46.5957   23.5449 H   0  0  0  0  0  0  0  0  0  0  0  0
   19.4550   43.5290   20.9520 H   0  0  0  0  0  0  0  0  0  0  0  0
   22.0586   41.5885   20.3749 H   0  0  0  0  0  0  0  0  0  0  0  0
   22.1165   39.2282   19.6055 H   0  0  0  0  0  0  0  0  0  0  0  0
   21.6957   36.0868   19.6737 H   0  0  0  0  0  0  0  0  0  0  0  0
   21.9231   37.4030   20.8775 H   0  0  0  0  0  0  0  0  0  0  0  0
   19.4287   35.7740   21.1497 H   0  0  0  0  0  0  0  0  0  0  0  0
   21.0377   34.9515   21.5089 H   0  0  0  0  0  0  0  0  0  0  0  0
   20.7300   35.6740   23.4690 H   0  0  0  0  0  0  0  0  0  0  0  0
   18.6080   37.5072   22.6039 H   0  0  0  0  0  0  0  0  0  0  0  0
   18.5259   36.2294   23.8002 H   0  0  0  0  0  0  0  0  0  0  0  0
   18.8419   38.7450   24.6569 H   0  0  0  0  0  0  0  0  0  0  0  0
   19.8628   37.5483   25.4188 H   0  0  0  0  0  0  0  0  0  0  0  0
   20.5115   39.3991   23.0356 H   0  0  0  0  0  0  0  0  0  0  0  0
   21.4571   39.2193   24.5046 H   0  0  0  0  0  0  0  0  0  0  0  0
   22.0466   37.8296   22.2041 H   0  0  0  0  0  0  0  0  0  0  0  0
   22.3675   37.1118   23.7826 H   0  0  0  0  0  0  0  0  0  0  0  0
   17.9841   38.7515   20.7395 H   0  0  0  0  0  0  0  0  0  0  0  0
   17.9284   41.1179   21.5054 H   0  0  0  0  0  0  0  0  0  0  0  0
   23.0680   43.5010   26.0790 H   0  0  0  0  0  0  0  0  0  0  0  0
   24.4127   40.7543   25.6586 H   0  0  0  0  0  0  0  0  0  0  0  0
   23.9394   38.5897   26.7904 H   0  0  0  0  0  0  0  0  0  0  0  0
   21.6942   38.1727   27.8055 H   0  0  0  0  0  0  0  0  0  0  0  0
   18.7030   40.9130   26.0960 H   0  0  0  0  0  0  0  0  0  0  0  0
   16.9422   40.3154   29.0194 H   0  0  0  0  0  0  0  0  0  0  0  0
   15.3078   40.6867   28.3731 H   0  0  0  0  0  0  0  0  0  0  0  0
   15.9105   38.9945   28.3731 H   0  0  0  0  0  0  0  0  0  0  0  0
   15.8083   42.1863   26.9659 H   0  0  0  0  0  0  0  0  0  0  0  0
   16.9183   41.9903   25.5673 H   0  0  0  0  0  0  0  0  0  0  0  0
   15.3200   41.1703   25.5673 H   0  0  0  0  0  0  0  0  0  0  0  0
   16.2700   38.1665   26.6688 H   0  0  0  0  0  0  0  0  0  0  0  0
   15.6086   39.2227   25.3751 H   0  0  0  0  0  0  0  0  0  0  0  0
   17.3511   38.7864   25.3751 H   0  0  0  0  0  0  0  0  0  0  0  0
   20.4311   42.1335   26.5906 H   0  0  0  0  0  0  0  0  0  0  0  0
  1  2  1  0
  2  3  2  0
  3  4  1  0
  4  5  2  0
  5  6  1  0
  6  7  1  0
  7  8  2  0
  8  9  1  0
  9 10  2  0
 10 11  1  0
 11 12  1  0
 12 13  1  0
 13 14  1  0
 14 15  1  0
 15 16  1  0
 16 17  1  0
 17 18  1  0
 10 19  1  0
 19 20  2  0
  5 21  1  0
 21 22  2  0
 22 23  1  0
 23 24  1  0
 24 25  2  0
 25 26  1  0
 26 27  2  0
 27 28  1  0
 28 29  1  0
 29 30  2  0
 29 31  2  0
 29 32  1  0
 32 33  1  0
 33 34  1  0
 33 35  1  0
 33 36  1  0
 28 37  2  0
 22  2  1  0
 37 24  1  0
 20  7  1  0
 18 14  1  0
  1 38  1  0
  1 39  1  0
  1 40  1  0
  3 41  1  0
  6 42  1  0
  8 43  1  0
  9 44  1  0
 12 45  1  0
 12 46  1  0
 13 47  1  0
 13 48  1  0
 14 49  1  0
 15 50  1  0
 15 51  1  0
 16 52  1  0
 16 53  1  0
 17 54  1  0
 17 55  1  0
 18 56  1  0
 18 57  1  0
 19 58  1  0
 20 59  1  0
 23 60  1  0
 25 61  1  0
 26 62  1  0
 27 63  1  0
 32 64  1  0
 34 65  1  0
 34 66  1  0
 34 67  1  0
 35 68  1  0
 35 69  1  0
 35 70  1  0
 36 71  1  0
 36 72  1  0
 36 73  1  0
 37 74  1  0
M  CHG  1  14   1
M  END
>  <meeko>  (9) 
{"is_sidechain": [false], "free_energy": -6.367, "intermolecular_energy": -9.044, "internal_energy": -3.325}

$$$$
