1p1n_ligand
     RDKit          3D

 29 29  0  0  0  0  0  0  0  0999 V2000
   18.6390    3.3680   15.2960 C   0  0  0  0  0  0  0  0  0  0  0  0
   17.3670    3.7770   15.1510 C   0  0  0  0  0  0  0  0  0  0  0  0
   17.0350    4.8710   14.1670 C   0  0  0  0  0  0  0  0  0  0  0  0
   16.1780    3.2300   15.9240 C   0  0  1  0  0  0  0  0  0  0  0  0
   14.8340    3.9810   15.8660 C   0  0  0  0  0  0  0  0  0  0  0  0
   13.7870    2.9400   16.0030 N   0  0  0  0  0  0  0  0  0  0  0  0
   14.4780    1.6240   16.3530 C   0  0  2  0  0  0  0  0  0  0  0  0
   14.5550    1.4310   17.9050 C   0  0  0  0  0  0  0  0  0  0  0  0
   14.9940    0.2770   18.2160 O   0  0  0  0  0  0  0  0  0  0  0  0
   14.1560    2.3790   18.6260 O   0  0  0  0  0  0  0  0  0  0  0  0
   15.8140    1.7590   15.6210 C   0  0  1  0  0  0  0  0  0  0  0  0
   15.7310    1.3860   14.1200 C   0  0  0  0  0  0  0  0  0  0  0  0
   16.4110    0.1130   13.6020 C   0  0  0  0  0  0  0  0  0  0  0  0
   16.7750    0.1320   12.4000 O   0  0  0  0  0  0  0  0  0  0  0  0
   16.4930   -0.8340   14.4430 O   0  0  0  0  0  0  0  0  0  0  0  0
   18.8818    2.5703   16.0134 H   0  0  0  0  0  0  0  0  0  0  0  0
   19.4372    3.8310   14.6973 H   0  0  0  0  0  0  0  0  0  0  0  0
   16.7578    5.7843   14.7138 H   0  0  0  0  0  0  0  0  0  0  0  0
   17.9120    5.0741   13.5348 H   0  0  0  0  0  0  0  0  0  0  0  0
   16.1931    4.5524   13.5348 H   0  0  0  0  0  0  0  0  0  0  0  0
   16.6163    3.3707   16.9230 H   0  0  0  0  0  0  0  0  0  0  0  0
   14.7640    4.7063   16.6900 H   0  0  0  0  0  0  0  0  0  0  0  0
   14.7246    4.5462   14.9287 H   0  0  0  0  0  0  0  0  0  0  0  0
   13.1150    3.1030   16.7670 H   0  0  0  0  0  0  0  0  0  0  0  0
   13.3250    2.7780   15.0720 H   0  0  0  0  0  0  0  0  0  0  0  0
   13.9568    0.7076   16.0390 H   0  0  0  0  0  0  0  0  0  0  0  0
   16.5934    1.0572   15.9527 H   0  0  0  0  0  0  0  0  0  0  0  0
   14.6624    1.2961   13.8749 H   0  0  0  0  0  0  0  0  0  0  0  0
   16.2996    2.1904   13.6304 H   0  0  0  0  0  0  0  0  0  0  0  0
  1  2  2  0
  2  3  1  0
  2  4  1  0
  4  5  1  0
  5  6  1  0
  6  7  1  0
  7  8  1  0
  8  9  2  0
  8 10  1  0
  7 11  1  0
 11 12  1  0
 12 13  1  0
 13 14  2  0
 13 15  1  0
 11  4  1  0
  1 16  1  0
  1 17  1  0
  3 18  1  0
  3 19  1  0
  3 20  1  0
  4 21  1  1
  5 22  1  0
  5 23  1  0
  6 24  1  0
  6 25  1  0
  7 26  1  6
 11 27  1  1
 12 28  1  0
 12 29  1  0
M  CHG  3   6   1  10  -1  15  -1
M  END
>  <meeko>  (1) 
{"is_sidechain": [false], "free_energy": -8.269, "intermolecular_energy": -10.202, "internal_energy": -0.329}

$$$$
1p1n_ligand
     RDKit          3D

 29 29  0  0  0  0  0  0  0  0999 V2000
   14.5020    3.1740   16.1880 C   0  0  0  0  0  0  0  0  0  0  0  0
   15.7590    3.1310   15.7140 C   0  0  0  0  0  0  0  0  0  0  0  0
   16.9060    2.8260   16.6460 C   0  0  0  0  0  0  0  0  0  0  0  0
   16.1590    3.3840   14.2700 C   0  0  1  0  0  0  0  0  0  0  0  0
   17.4200    4.2180   13.9740 C   0  0  0  0  0  0  0  0  0  0  0  0
   17.9640    3.6840   12.7020 N   0  0  0  0  0  0  0  0  0  0  0  0
   16.9440    2.7020   12.1320 C   0  0  2  0  0  0  0  0  0  0  0  0
   15.9650    3.4250   11.1460 C   0  0  0  0  0  0  0  0  0  0  0  0
   14.7710    2.9990   11.2700 O   0  0  0  0  0  0  0  0  0  0  0  0
   16.4570    4.2710   10.3600 O   0  0  0  0  0  0  0  0  0  0  0  0
   16.3190    2.1160   13.3980 C   0  0  1  0  0  0  0  0  0  0  0  0
   17.1570    0.9750   14.0250 C   0  0  0  0  0  0  0  0  0  0  0  0
   16.5520   -0.4230   14.1960 C   0  0  0  0  0  0  0  0  0  0  0  0
   15.3430   -0.4640   14.5340 O   0  0  0  0  0  0  0  0  0  0  0  0
   17.3610   -1.3850   14.0140 O   0  0  0  0  0  0  0  0  0  0  0  0
   13.6655    3.3963   15.5091 H   0  0  0  0  0  0  0  0  0  0  0  0
   14.3098    2.9869   17.2548 H   0  0  0  0  0  0  0  0  0  0  0  0
   16.5657    2.9165   17.6881 H   0  0  0  0  0  0  0  0  0  0  0  0
   17.2634    1.8016   16.4646 H   0  0  0  0  0  0  0  0  0  0  0  0
   17.7250    3.5376   16.4646 H   0  0  0  0  0  0  0  0  0  0  0  0
   15.2734    3.9818   14.0085 H   0  0  0  0  0  0  0  0  0  0  0  0
   17.1597    5.2811   13.8637 H   0  0  0  0  0  0  0  0  0  0  0  0
   18.1538    4.1488   14.7905 H   0  0  0  0  0  0  0  0  0  0  0  0
   18.1030    4.3890   11.9630 H   0  0  0  0  0  0  0  0  0  0  0  0
   18.8270    3.1140   12.8980 H   0  0  0  0  0  0  0  0  0  0  0  0
   17.3499    1.9009   11.4968 H   0  0  0  0  0  0  0  0  0  0  0  0
   15.3653    1.5911   13.2399 H   0  0  0  0  0  0  0  0  0  0  0  0
   18.0521    0.8577   13.3965 H   0  0  0  0  0  0  0  0  0  0  0  0
   17.3035    1.3127   15.0616 H   0  0  0  0  0  0  0  0  0  0  0  0
  1  2  2  0
  2  3  1  0
  2  4  1  0
  4  5  1  0
  5  6  1  0
  6  7  1  0
  7  8  1  0
  8  9  2  0
  8 10  1  0
  7 11  1  0
 11 12  1  0
 12 13  1  0
 13 14  2  0
 13 15  1  0
 11  4  1  0
  1 16  1  0
  1 17  1  0
  3 18  1  0
  3 19  1  0
  3 20  1  0
  4 21  1  6
  5 22  1  0
  5 23  1  0
  6 24  1  0
  6 25  1  0
  7 26  1  6
 11 27  1  6
 12 28  1  0
 12 29  1  0
M  CHG  3   6   1  10  -1  15  -1
M  END
>  <meeko>  (2) 
{"is_sidechain": [false], "free_energy": -7.562, "intermolecular_energy": -9.509, "internal_energy": -0.151}

$$$$
1p1n_ligand
     RDKit          3D

 29 29  0  0  0  0  0  0  0  0999 V2000
   15.5900    3.1340   11.1820 C   0  0  0  0  0  0  0  0  0  0  0  0
   15.8140    2.0610   11.9590 C   0  0  0  0  0  0  0  0  0  0  0  0
   16.3650    0.7940   11.3550 C   0  0  0  0  0  0  0  0  0  0  0  0
   15.5420    1.9900   13.4540 C   0  0  1  0  0  0  0  0  0  0  0  0
   15.6330    0.6300   14.1710 C   0  0  0  0  0  0  0  0  0  0  0  0
   16.0790    0.9340   15.5510 N   0  0  0  0  0  0  0  0  0  0  0  0
   16.0500    2.4500   15.7300 C   0  0  2  0  0  0  0  0  0  0  0  0
   14.6730    2.9150   16.3140 C   0  0  0  0  0  0  0  0  0  0  0  0
   14.3930    4.1090   15.9690 O   0  0  0  0  0  0  0  0  0  0  0  0
   14.0560    2.1080   17.0510 O   0  0  0  0  0  0  0  0  0  0  0  0
   16.3900    2.9460   14.3250 C   0  0  1  0  0  0  0  0  0  0  0  0
   17.9090    2.9500   14.0270 C   0  0  0  0  0  0  0  0  0  0  0  0
   18.5440    4.1230   13.2700 C   0  0  0  0  0  0  0  0  0  0  0  0
   18.5120    5.2370   13.8500 O   0  0  0  0  0  0  0  0  0  0  0  0
   18.9960    3.8390   12.1180 O   0  0  0  0  0  0  0  0  0  0  0  0
   15.1880    4.0581   11.6230 H   0  0  0  0  0  0  0  0  0  0  0  0
   15.8086    3.0884   10.1049 H   0  0  0  0  0  0  0  0  0  0  0  0
   16.6647    0.1050   12.1584 H   0  0  0  0  0  0  0  0  0  0  0  0
   15.5925    0.3182   10.7330 H   0  0  0  0  0  0  0  0  0  0  0  0
   17.2398    1.0346   10.7330 H   0  0  0  0  0  0  0  0  0  0  0  0
   14.4837    2.2837   13.3921 H   0  0  0  0  0  0  0  0  0  0  0  0
   14.6496    0.1373   14.1854 H   0  0  0  0  0  0  0  0  0  0  0  0
   16.3282   -0.0527   13.6605 H   0  0  0  0  0  0  0  0  0  0  0  0
   15.4680    0.5630   16.2940 H   0  0  0  0  0  0  0  0  0  0  0  0
   17.0870    0.6560   15.6670 H   0  0  0  0  0  0  0  0  0  0  0  0
   16.7567    2.8617   16.4656 H   0  0  0  0  0  0  0  0  0  0  0  0
   16.1531    4.0043   14.1408 H   0  0  0  0  0  0  0  0  0  0  0  0
   18.4222    2.8849   14.9978 H   0  0  0  0  0  0  0  0  0  0  0  0
   18.0297    2.1075   13.3302 H   0  0  0  0  0  0  0  0  0  0  0  0
  1  2  2  0
  2  3  1  0
  2  4  1  0
  4  5  1  0
  5  6  1  0
  6  7  1  0
  7  8  1  0
  8  9  2  0
  8 10  1  0
  7 11  1  0
 11 12  1  0
 12 13  1  0
 13 14  2  0
 13 15  1  0
 11  4  1  0
  1 16  1  0
  1 17  1  0
  3 18  1  0
  3 19  1  0
  3 20  1  0
  4 21  1  6
  5 22  1  0
  5 23  1  0
  6 24  1  0
  6 25  1  0
  7 26  1  1
 11 27  1  1
 12 28  1  0
 12 29  1  0
M  CHG  3   6   1  10  -1  15  -1
M  END
>  <meeko>  (3) 
{"is_sidechain": [false], "free_energy": -7.148, "intermolecular_energy": -8.616, "internal_energy": -0.533}

$$$$
1p1n_ligand
     RDKit          3D

 29 29  0  0  0  0  0  0  0  0999 V2000
   18.4540    4.9510   14.1560 C   0  0  0  0  0  0  0  0  0  0  0  0
   18.4530    3.8150   14.8740 C   0  0  0  0  0  0  0  0  0  0  0  0
   19.5940    3.5170   15.8140 C   0  0  0  0  0  0  0  0  0  0  0  0
   17.3740    2.7450   14.8200 C   0  0  1  0  0  0  0  0  0  0  0  0
   16.1230    2.8940   15.7060 C   0  0  0  0  0  0  0  0  0  0  0  0
   15.0200    2.2490   14.9530 N   0  0  0  0  0  0  0  0  0  0  0  0
   15.6290    1.5400   13.7460 C   0  0  2  0  0  0  0  0  0  0  0  0
   15.9640    0.0480   14.0880 C   0  0  0  0  0  0  0  0  0  0  0  0
   17.0820   -0.3090   13.5930 O   0  0  0  0  0  0  0  0  0  0  0  0
   15.1130   -0.5990   14.7450 O   0  0  0  0  0  0  0  0  0  0  0  0
   16.8170    2.4400   13.4100 C   0  0  1  0  0  0  0  0  0  0  0  0
   16.4290    3.6770   12.5630 C   0  0  0  0  0  0  0  0  0  0  0  0
   16.1470    3.5280   11.0630 C   0  0  0  0  0  0  0  0  0  0  0  0
   17.1300    3.6890   10.2980 O   0  0  0  0  0  0  0  0  0  0  0  0
   14.9350    3.2980   10.7630 O   0  0  0  0  0  0  0  0  0  0  0  0
   17.6220    5.1689   13.4702 H   0  0  0  0  0  0  0  0  0  0  0  0
   19.2868    5.6629   14.2541 H   0  0  0  0  0  0  0  0  0  0  0  0
   19.2460    3.6079   16.8535 H   0  0  0  0  0  0  0  0  0  0  0  0
   19.9572    2.4939   15.6371 H   0  0  0  0  0  0  0  0  0  0  0  0
   20.4111    4.2319   15.6371 H   0  0  0  0  0  0  0  0  0  0  0  0
   17.9966    1.9336   15.2249 H   0  0  0  0  0  0  0  0  0  0  0  0
   16.2745    2.3897   16.6718 H   0  0  0  0  0  0  0  0  0  0  0  0
   15.9031    3.9494   15.9245 H   0  0  0  0  0  0  0  0  0  0  0  0
   14.5160    1.5150   15.4720 H   0  0  0  0  0  0  0  0  0  0  0  0
   14.3840    2.9880   14.5570 H   0  0  0  0  0  0  0  0  0  0  0  0
   14.9720    1.4276   12.8710 H   0  0  0  0  0  0  0  0  0  0  0  0
   17.5694    1.9816   12.7513 H   0  0  0  0  0  0  0  0  0  0  0  0
   15.5191    4.0978   13.0158 H   0  0  0  0  0  0  0  0  0  0  0  0
   17.3405    4.2923   12.5864 H   0  0  0  0  0  0  0  0  0  0  0  0
  1  2  2  0
  2  3  1  0
  2  4  1  0
  4  5  1  0
  5  6  1  0
  6  7  1  0
  7  8  1  0
  8  9  2  0
  8 10  1  0
  7 11  1  0
 11 12  1  0
 12 13  1  0
 13 14  2  0
 13 15  1  0
 11  4  1  0
  1 16  1  0
  1 17  1  0
  3 18  1  0
  3 19  1  0
  3 20  1  0
  4 21  1  1
  5 22  1  0
  5 23  1  0
  6 24  1  0
  6 25  1  0
  7 26  1  6
 11 27  1  6
 12 28  1  0
 12 29  1  0
M  CHG  3   6   1  10  -1  15  -1
M  END
>  <meeko>  (4) 
{"is_sidechain": [false], "free_energy": -6.951, "intermolecular_energy": -9.301, "internal_energy": 0.397}

$$$$
1p1n_ligand
     RDKit          3D

 29 29  0  0  0  0  0  0  0  0999 V2000
   14.3090    2.6250   16.4990 C   0  0  0  0  0  0  0  0  0  0  0  0
   15.6120    2.4590   16.7830 C   0  0  0  0  0  0  0  0  0  0  0  0
   16.0250    1.6290   17.9730 C   0  0  0  0  0  0  0  0  0  0  0  0
   16.7630    3.0650   15.9960 C   0  0  1  0  0  0  0  0  0  0  0  0
   18.1820    3.0340   16.5960 C   0  0  0  0  0  0  0  0  0  0  0  0
   19.1040    2.9470   15.4380 N   0  0  0  0  0  0  0  0  0  0  0  0
   18.2800    3.1380   14.1670 C   0  0  2  0  0  0  0  0  0  0  0  0
   18.2530    4.6460   13.7430 C   0  0  0  0  0  0  0  0  0  0  0  0
   19.4260    5.1040   13.5510 O   0  0  0  0  0  0  0  0  0  0  0  0
   17.1330    5.2090   13.6840 O   0  0  0  0  0  0  0  0  0  0  0  0
   16.9380    2.5220   14.5590 C   0  0  1  0  0  0  0  0  0  0  0  0
   16.9070    0.9800   14.4180 C   0  0  0  0  0  0  0  0  0  0  0  0
   15.6880    0.2850   13.7980 C   0  0  0  0  0  0  0  0  0  0  0  0
   15.0570   -0.4980   14.5510 O   0  0  0  0  0  0  0  0  0  0  0  0
   15.4810    0.5530   12.5750 O   0  0  0  0  0  0  0  0  0  0  0  0
   14.0080    3.2303   15.6312 H   0  0  0  0  0  0  0  0  0  0  0  0
   13.5435    2.1556   17.1343 H   0  0  0  0  0  0  0  0  0  0  0  0
   15.7609    2.1597   18.8996 H   0  0  0  0  0  0  0  0  0  0  0  0
   15.5035    0.6609   17.9436 H   0  0  0  0  0  0  0  0  0  0  0  0
   17.1117    1.4611   17.9436 H   0  0  0  0  0  0  0  0  0  0  0  0
   16.3908    4.0997   16.0261 H   0  0  0  0  0  0  0  0  0  0  0  0
   18.3751    3.9508   17.1723 H   0  0  0  0  0  0  0  0  0  0  0  0
   18.3136    2.1867   17.2850 H   0  0  0  0  0  0  0  0  0  0  0  0
   19.8260    3.6820   15.4050 H   0  0  0  0  0  0  0  0  0  0  0  0
   19.5010    1.9740   15.3740 H   0  0  0  0  0  0  0  0  0  0  0  0
   18.6745    2.6568   13.2599 H   0  0  0  0  0  0  0  0  0  0  0  0
   16.0979    2.7940   13.9031 H   0  0  0  0  0  0  0  0  0  0  0  0
   17.7763    0.7009   13.8045 H   0  0  0  0  0  0  0  0  0  0  0  0
   16.8882    0.6337   15.4619 H   0  0  0  0  0  0  0  0  0  0  0  0
  1  2  2  0
  2  3  1  0
  2  4  1  0
  4  5  1  0
  5  6  1  0
  6  7  1  0
  7  8  1  0
  8  9  2  0
  8 10  1  0
  7 11  1  0
 11 12  1  0
 12 13  1  0
 13 14  2  0
 13 15  1  0
 11  4  1  0
  1 16  1  0
  1 17  1  0
  3 18  1  0
  3 19  1  0
  3 20  1  0
  4 21  1  6
  5 22  1  0
  5 23  1  0
  6 24  1  0
  6 25  1  0
  7 26  1  6
 11 27  1  6
 12 28  1  0
 12 29  1  0
M  CHG  3   6   1  10  -1  15  -1
M  END
>  <meeko>  (5) 
{"is_sidechain": [false], "free_energy": -6.9, "intermolecular_energy": -8.472, "internal_energy": -0.371}

$$$$
1p1n_ligand
     RDKit          3D

 29 29  0  0  0  0  0  0  0  0999 V2000
   17.8400    1.9170   17.5390 C   0  0  0  0  0  0  0  0  0  0  0  0
   16.6060    1.9870   17.0110 C   0  0  0  0  0  0  0  0  0  0  0  0
   15.4150    2.2160   17.9080 C   0  0  0  0  0  0  0  0  0  0  0  0
   16.2750    1.8400   15.5350 C   0  0  1  0  0  0  0  0  0  0  0  0
   15.1030    2.6460   14.9430 C   0  0  0  0  0  0  0  0  0  0  0  0
   15.4730    2.9140   13.5330 N   0  0  0  0  0  0  0  0  0  0  0  0
   16.7310    2.1090   13.2170 C   0  0  2  0  0  0  0  0  0  0  0  0
   16.3600    0.7100   12.6170 C   0  0  0  0  0  0  0  0  0  0  0  0
   15.3330    0.7760   11.8670 O   0  0  0  0  0  0  0  0  0  0  0  0
   17.0640   -0.2710   12.9620 O   0  0  0  0  0  0  0  0  0  0  0  0
   17.4520    2.0970   14.5650 C   0  0  1  0  0  0  0  0  0  0  0  0
   18.2700    3.3830   14.8340 C   0  0  0  0  0  0  0  0  0  0  0  0
   18.3290    4.4960   13.7810 C   0  0  0  0  0  0  0  0  0  0  0  0
   19.3520    4.5120   13.0520 O   0  0  0  0  0  0  0  0  0  0  0  0
   17.3490    5.3020   13.7950 O   0  0  0  0  0  0  0  0  0  0  0  0
   18.7091    1.7500   16.8857 H   0  0  0  0  0  0  0  0  0  0  0  0
   17.9808    2.0267   18.6244 H   0  0  0  0  0  0  0  0  0  0  0  0
   15.7311    2.1552   18.9598 H   0  0  0  0  0  0  0  0  0  0  0  0
   14.9923    3.2119   17.7091 H   0  0  0  0  0  0  0  0  0  0  0  0
   14.6531    1.4479   17.7091 H   0  0  0  0  0  0  0  0  0  0  0  0
   15.9813    0.7813   15.5891 H   0  0  0  0  0  0  0  0  0  0  0  0
   14.1724    2.0614   14.9910 H   0  0  0  0  0  0  0  0  0  0  0  0
   14.9278    3.5776   15.5011 H   0  0  0  0  0  0  0  0  0  0  0  0
   14.7760    2.6090   12.8380 H   0  0  0  0  0  0  0  0  0  0  0  0
   15.7500    3.9240   13.4250 H   0  0  0  0  0  0  0  0  0  0  0  0
   17.3841    2.5229   12.4346 H   0  0  0  0  0  0  0  0  0  0  0  0
   18.2447    1.3398   14.6560 H   0  0  0  0  0  0  0  0  0  0  0  0
   17.8579    3.8344   15.7485 H   0  0  0  0  0  0  0  0  0  0  0  0
   19.3067    3.0169   14.8690 H   0  0  0  0  0  0  0  0  0  0  0  0
  1  2  2  0
  2  3  1  0
  2  4  1  0
  4  5  1  0
  5  6  1  0
  6  7  1  0
  7  8  1  0
  8  9  2  0
  8 10  1  0
  7 11  1  0
 11 12  1  0
 12 13  1  0
 13 14  2  0
 13 15  1  0
 11  4  1  0
  1 16  1  0
  1 17  1  0
  3 18  1  0
  3 19  1  0
  3 20  1  0
  4 21  1  1
  5 22  1  0
  5 23  1  0
  6 24  1  0
  6 25  1  0
  7 26  1  6
 11 27  1  6
 12 28  1  0
 12 29  1  0
M  CHG  3   6   1  10  -1  15  -1
M  END
>  <meeko>  (6) 
{"is_sidechain": [false], "free_energy": -6.768, "intermolecular_energy": -8.613, "internal_energy": -0.066}

$$$$
1p1n_ligand
     RDKit          3D

 29 29  0  0  0  0  0  0  0  0999 V2000
   14.6290    2.8930   17.3970 C   0  0  0  0  0  0  0  0  0  0  0  0
   14.9510    3.1320   16.1140 C   0  0  0  0  0  0  0  0  0  0  0  0
   14.6710    4.4840   15.5070 C   0  0  0  0  0  0  0  0  0  0  0  0
   15.5870    2.1260   15.1690 C   0  0  1  0  0  0  0  0  0  0  0  0
   15.7720    2.5010   13.6860 C   0  0  0  0  0  0  0  0  0  0  0  0
   16.9890    1.7810   13.2400 N   0  0  0  0  0  0  0  0  0  0  0  0
   17.4060    0.8280   14.3570 C   0  0  2  0  0  0  0  0  0  0  0  0
   16.7680   -0.5870   14.1490 C   0  0  0  0  0  0  0  0  0  0  0  0
   17.6010   -1.4120   13.6510 O   0  0  0  0  0  0  0  0  0  0  0  0
   15.5560   -0.7240   14.4460 O   0  0  0  0  0  0  0  0  0  0  0  0
   16.9690    1.5890   15.6080 C   0  0  1  0  0  0  0  0  0  0  0  0
   17.9900    2.6620   16.0610 C   0  0  0  0  0  0  0  0  0  0  0  0
   19.0070    2.3440   17.1630 C   0  0  0  0  0  0  0  0  0  0  0  0
   18.5450    1.8160   18.2060 O   0  0  0  0  0  0  0  0  0  0  0  0
   20.2020    2.6900   16.9100 O   0  0  0  0  0  0  0  0  0  0  0  0
   14.8327    1.9073   17.8408 H   0  0  0  0  0  0  0  0  0  0  0  0
   14.1617    3.6831   18.0032 H   0  0  0  0  0  0  0  0  0  0  0  0
   14.5183    5.2214   16.3088 H   0  0  0  0  0  0  0  0  0  0  0  0
   15.5247    4.7905   14.8847 H   0  0  0  0  0  0  0  0  0  0  0  0
   13.7658    4.4262   14.8847 H   0  0  0  0  0  0  0  0  0  0  0  0
   14.7864    1.3755   15.2453 H   0  0  0  0  0  0  0  0  0  0  0  0
   14.8995    2.1809   13.0975 H   0  0  0  0  0  0  0  0  0  0  0  0
   15.8706    3.5882   13.5509 H   0  0  0  0  0  0  0  0  0  0  0  0
   16.8570    1.1840   12.4100 H   0  0  0  0  0  0  0  0  0  0  0  0
   17.7850    2.4620   13.1370 H   0  0  0  0  0  0  0  0  0  0  0  0
   18.4777    0.5854   14.4080 H   0  0  0  0  0  0  0  0  0  0  0  0
   16.9111    0.9781   16.5210 H   0  0  0  0  0  0  0  0  0  0  0  0
   18.5682    2.9450   15.1690 H   0  0  0  0  0  0  0  0  0  0  0  0
   17.3548    3.4328   16.5219 H   0  0  0  0  0  0  0  0  0  0  0  0
  1  2  2  0
  2  3  1  0
  2  4  1  0
  4  5  1  0
  5  6  1  0
  6  7  1  0
  7  8  1  0
  8  9  2  0
  8 10  1  0
  7 11  1  0
 11 12  1  0
 12 13  1  0
 13 14  2  0
 13 15  1  0
 11  4  1  0
  1 16  1  0
  1 17  1  0
  3 18  1  0
  3 19  1  0
  3 20  1  0
  4 21  1  6
  5 22  1  0
  5 23  1  0
  6 24  1  0
  6 25  1  0
  7 26  1  1
 11 27  1  1
 12 28  1  0
 12 29  1  0
M  CHG  3   6   1  10  -1  15  -1
M  END
>  <meeko>  (7) 
{"is_sidechain": [false], "free_energy": -6.625, "intermolecular_energy": -8.568, "internal_energy": 0.064}

$$$$
1p1n_ligand
     RDKit          3D

 29 29  0  0  0  0  0  0  0  0999 V2000
   18.9000    2.2130   17.1500 C   0  0  0  0  0  0  0  0  0  0  0  0
   18.8090    2.8550   15.9730 C   0  0  0  0  0  0  0  0  0  0  0  0
   19.7740    3.9660   15.6430 C   0  0  0  0  0  0  0  0  0  0  0  0
   17.7750    2.5670   14.8960 C   0  0  1  0  0  0  0  0  0  0  0  0
   17.4730    1.1050   14.5160 C   0  0  0  0  0  0  0  0  0  0  0  0
   16.0480    1.0840   14.1060 N   0  0  0  0  0  0  0  0  0  0  0  0
   15.5610    2.5290   14.0310 C   0  0  2  0  0  0  0  0  0  0  0  0
   15.7350    3.1010   12.5830 C   0  0  0  0  0  0  0  0  0  0  0  0
   16.4470    4.1560   12.5750 O   0  0  0  0  0  0  0  0  0  0  0  0
   15.1460    2.5010   11.6510 O   0  0  0  0  0  0  0  0  0  0  0  0
   16.3850    3.2030   15.1280 C   0  0  1  0  0  0  0  0  0  0  0  0
   15.7920    3.0130   16.5460 C   0  0  0  0  0  0  0  0  0  0  0  0
   14.5960    2.0790   16.7630 C   0  0  0  0  0  0  0  0  0  0  0  0
   14.8570    0.8510   16.8160 O   0  0  0  0  0  0  0  0  0  0  0  0
   13.4660    2.6550   16.8240 O   0  0  0  0  0  0  0  0  0  0  0  0
   18.1960    1.4027   17.3904 H   0  0  0  0  0  0  0  0  0  0  0  0
   19.6785    2.4978   17.8731 H   0  0  0  0  0  0  0  0  0  0  0  0
   20.1574    4.4074   16.5747 H   0  0  0  0  0  0  0  0  0  0  0  0
   20.6123    3.5615   15.0568 H   0  0  0  0  0  0  0  0  0  0  0  0
   19.2561    4.7394   15.0568 H   0  0  0  0  0  0  0  0  0  0  0  0
   18.3337    3.0359   14.0726 H   0  0  0  0  0  0  0  0  0  0  0  0
   18.1165    0.7842   13.6836 H   0  0  0  0  0  0  0  0  0  0  0  0
   17.6647    0.4193   15.3545 H   0  0  0  0  0  0  0  0  0  0  0  0
   15.8740    0.6910   13.1690 H   0  0  0  0  0  0  0  0  0  0  0  0
   15.4700    0.6290   14.8590 H   0  0  0  0  0  0  0  0  0  0  0  0
   14.4862    2.6848   14.2057 H   0  0  0  0  0  0  0  0  0  0  0  0
   16.4108    4.3014   15.0740 H   0  0  0  0  0  0  0  0  0  0  0  0
   16.6068    2.6369   17.1821 H   0  0  0  0  0  0  0  0  0  0  0  0
   15.3804    4.0058   16.7806 H   0  0  0  0  0  0  0  0  0  0  0  0
  1  2  2  0
  2  3  1  0
  2  4  1  0
  4  5  1  0
  5  6  1  0
  6  7  1  0
  7  8  1  0
  8  9  2  0
  8 10  1  0
  7 11  1  0
 11 12  1  0
 12 13  1  0
 13 14  2  0
 13 15  1  0
 11  4  1  0
  1 16  1  0
  1 17  1  0
  3 18  1  0
  3 19  1  0
  3 20  1  0
  4 21  1  6
  5 22  1  0
  5 23  1  0
  6 24  1  0
  6 25  1  0
  7 26  1  1
 11 27  1  6
 12 28  1  0
 12 29  1  0
M  CHG  3   6   1  10  -1  15  -1
M  END
>  <meeko>  (8) 
{"is_sidechain": [false], "free_energy": -6.599, "intermolecular_energy": -8.467, "internal_energy": -0.003}

$$$$
1p1n_ligand
     RDKit          3D

 29 29  0  0  0  0  0  0  0  0999 V2000
   16.8700   -0.0380   14.2020 C   0  0  0  0  0  0  0  0  0  0  0  0
   16.5830    1.0120   13.4140 C   0  0  0  0  0  0  0  0  0  0  0  0
   15.5750    0.8660   12.3010 C   0  0  0  0  0  0  0  0  0  0  0  0
   17.2120    2.3910   13.5290 C   0  0  1  0  0  0  0  0  0  0  0  0
   16.8180    3.4830   12.5160 C   0  0  0  0  0  0  0  0  0  0  0  0
   16.9220    4.7670   13.2510 N   0  0  0  0  0  0  0  0  0  0  0  0
   17.5680    4.4810   14.6040 C   0  0  2  0  0  0  0  0  0  0  0  0
   19.1230    4.6600   14.5270 C   0  0  0  0  0  0  0  0  0  0  0  0
   19.7170    4.0210   15.4550 O   0  0  0  0  0  0  0  0  0  0  0  0
   19.5750    5.4080   13.6270 O   0  0  0  0  0  0  0  0  0  0  0  0
   17.0640    3.0710   14.9100 C   0  0  1  0  0  0  0  0  0  0  0  0
   15.6400    3.0470   15.5170 C   0  0  0  0  0  0  0  0  0  0  0  0
   15.3130    2.1070   16.6830 C   0  0  0  0  0  0  0  0  0  0  0  0
   16.0070    2.2530   17.7210 O   0  0  0  0  0  0  0  0  0  0  0  0
   14.4010    1.2560   16.4490 O   0  0  0  0  0  0  0  0  0  0  0  0
   17.6049    0.0681   15.0136 H   0  0  0  0  0  0  0  0  0  0  0  0
   16.3700   -1.0036   14.0354 H   0  0  0  0  0  0  0  0  0  0  0  0
   14.5728    0.7208   12.7306 H   0  0  0  0  0  0  0  0  0  0  0  0
   15.5799    1.7742   11.6804 H   0  0  0  0  0  0  0  0  0  0  0  0
   15.8374   -0.0035   11.6804 H   0  0  0  0  0  0  0  0  0  0  0  0
   18.2409    2.0666   13.3140 H   0  0  0  0  0  0  0  0  0  0  0  0
   17.5053    3.4757   11.6572 H   0  0  0  0  0  0  0  0  0  0  0  0
   15.8047    3.3227   12.1192 H   0  0  0  0  0  0  0  0  0  0  0  0
   17.5290    5.4710   12.8050 H   0  0  0  0  0  0  0  0  0  0  0  0
   15.9580    5.1290   13.4680 H   0  0  0  0  0  0  0  0  0  0  0  0
   17.3027    5.1698   15.4196 H   0  0  0  0  0  0  0  0  0  0  0  0
   17.6206    2.5448   15.6995 H   0  0  0  0  0  0  0  0  0  0  0  0
   15.4273    4.0686   15.8651 H   0  0  0  0  0  0  0  0  0  0  0  0
   15.0249    2.6502   14.6959 H   0  0  0  0  0  0  0  0  0  0  0  0
  1  2  2  0
  2  3  1  0
  2  4  1  0
  4  5  1  0
  5  6  1  0
  6  7  1  0
  7  8  1  0
  8  9  2  0
  8 10  1  0
  7 11  1  0
 11 12  1  0
 12 13  1  0
 13 14  2  0
 13 15  1  0
 11  4  1  0
  1 16  1  0
  1 17  1  0
  3 18  1  0
  3 19  1  0
  3 20  1  0
  4 21  1  6
  5 22  1  0
  5 23  1  0
  6 24  1  0
  6 25  1  0
  7 26  1  1
 11 27  1  1
 12 28  1  0
 12 29  1  0
M  CHG  3   6   1  10  -1  15  -1
M  END
>  <meeko>  (9) 
{"is_sidechain": [false], "free_energy": -6.584, "intermolecular_energy": -7.982, "internal_energy": -0.47}

$$$$
