3u8n_ligand
     RDKit          3D

 36 37  0  0  0  0  0  0  0  0999 V2000
   58.4230   26.0060  102.2390 C   0  0  0  0  0  0  0  0  0  0  0  0
   58.0790   24.8510  101.3150 C   0  0  0  0  0  0  0  0  0  0  0  0
   57.7280   23.6870  102.0590 O   0  0  0  0  0  0  0  0  0  0  0  0
   56.4180   23.3890  102.3070 C   0  0  0  0  0  0  0  0  0  0  0  0
   55.3200   24.1500  101.8870 C   0  0  0  0  0  0  0  0  0  0  0  0
   53.9970   23.7800  102.1930 C   0  0  0  0  0  0  0  0  0  0  0  0
   52.9110   24.5450  101.7410 N   0  0  0  0  0  0  0  0  0  0  0  0
   51.6400   24.4000  102.4660 C   0  0  0  0  0  0  0  0  0  0  0  0
   51.1670   22.9430  102.4320 C   0  0  0  0  0  0  0  0  0  0  0  0
   50.4490   22.5380  101.1600 C   0  0  0  0  0  0  0  0  0  0  0  0
   51.1730   22.9410   99.9090 N   0  0  0  0  0  0  0  0  0  0  0  0
   51.4760   24.3980   99.6790 C   0  0  0  0  0  0  0  0  0  0  0  0
   52.8170   24.8470  100.2980 C   0  0  0  0  0  0  0  0  0  0  0  0
   53.8720   22.5920  102.9170 C   0  0  0  0  0  0  0  0  0  0  0  0
   54.8940   21.8160  103.3410 N   0  0  0  0  0  0  0  0  0  0  0  0
   56.1450   22.2290  103.0360 C   0  0  0  0  0  0  0  0  0  0  0  0
   57.5570   21.1120  103.6600 Br  0  0  0  0  0  0  0  0  0  0  0  0
   58.3259   25.6801  103.2851 H   0  0  0  0  0  0  0  0  0  0  0  0
   59.4569   26.3309  102.0506 H   0  0  0  0  0  0  0  0  0  0  0  0
   57.7353   26.8436  102.0506 H   0  0  0  0  0  0  0  0  0  0  0  0
   57.2298   25.1405  100.6786 H   0  0  0  0  0  0  0  0  0  0  0  0
   58.9613   24.6202  100.7000 H   0  0  0  0  0  0  0  0  0  0  0  0
   55.4967   25.0638  101.3007 H   0  0  0  0  0  0  0  0  0  0  0  0
   51.7821   24.7103  103.5117 H   0  0  0  0  0  0  0  0  0  0  0  0
   50.8804   25.0324  101.9831 H   0  0  0  0  0  0  0  0  0  0  0  0
   52.0476   22.2944  102.5494 H   0  0  0  0  0  0  0  0  0  0  0  0
   50.4370   22.8350  103.2478 H   0  0  0  0  0  0  0  0  0  0  0  0
   50.3340   21.4440  101.1585 H   0  0  0  0  0  0  0  0  0  0  0  0
   49.4806   23.0597  101.1553 H   0  0  0  0  0  0  0  0  0  0  0  0
   50.6100   22.6020   99.1170 H   0  0  0  0  0  0  0  0  0  0  0  0
   52.0580   22.4190   99.8580 H   0  0  0  0  0  0  0  0  0  0  0  0
   51.5134   24.5801   98.5948 H   0  0  0  0  0  0  0  0  0  0  0  0
   50.6801   24.9780  100.1691 H   0  0  0  0  0  0  0  0  0  0  0  0
   53.6356   24.3294   99.7765 H   0  0  0  0  0  0  0  0  0  0  0  0
   52.8858   25.9388  100.1830 H   0  0  0  0  0  0  0  0  0  0  0  0
   52.8530   22.2591  103.1635 H   0  0  0  0  0  0  0  0  0  0  0  0
  1  2  1  0
  2  3  1  0
  3  4  1  0
  4  5  2  0
  5  6  1  0
  6  7  1  0
  7  8  1  0
  8  9  1  0
  9 10  1  0
 10 11  1  0
 11 12  1  0
 12 13  1  0
  6 14  2  0
 14 15  1  0
 15 16  2  0
 16 17  1  0
 16  4  1  0
 13  7  1  0
  1 18  1  0
  1 19  1  0
  1 20  1  0
  2 21  1  0
  2 22  1  0
  5 23  1  0
  8 24  1  0
  8 25  1  0
  9 26  1  0
  9 27  1  0
 10 28  1  0
 10 29  1  0
 11 30  1  0
 11 31  1  0
 12 32  1  0
 12 33  1  0
 13 34  1  0
 13 35  1  0
 14 36  1  0
M  CHG  1  11   1
M  END
>  <meeko>  (1) 
{"is_sidechain": [false], "free_energy": -5.495, "intermolecular_energy": -8.386, "internal_energy": 0.962}

$$$$
3u8n_ligand
     RDKit          3D

 36 37  0  0  0  0  0  0  0  0999 V2000
   51.9120   24.4910  100.3230 C   0  0  0  0  0  0  0  0  0  0  0  0
   53.1580   25.0480  100.9880 C   0  0  0  0  0  0  0  0  0  0  0  0
   53.6610   24.1460  101.9700 O   0  0  0  0  0  0  0  0  0  0  0  0
   55.0060   24.0060  102.1630 C   0  0  0  0  0  0  0  0  0  0  0  0
   55.9740   24.9720  101.8580 C   0  0  0  0  0  0  0  0  0  0  0  0
   57.3450   24.7480  102.0760 C   0  0  0  0  0  0  0  0  0  0  0  0
   58.2940   25.7390  101.7860 N   0  0  0  0  0  0  0  0  0  0  0  0
   58.7900   25.8110  100.4040 C   0  0  0  0  0  0  0  0  0  0  0  0
   59.4250   27.1800  100.1340 C   0  0  0  0  0  0  0  0  0  0  0  0
   58.7680   28.3500  100.8440 C   0  0  0  0  0  0  0  0  0  0  0  0
   59.3180   28.6020  102.2180 N   0  0  0  0  0  0  0  0  0  0  0  0
   59.0490   27.5980  103.3060 C   0  0  0  0  0  0  0  0  0  0  0  0
   59.2420   26.1360  102.8480 C   0  0  0  0  0  0  0  0  0  0  0  0
   57.6550   23.5080  102.6410 C   0  0  0  0  0  0  0  0  0  0  0  0
   56.7640   22.5430  102.9610 N   0  0  0  0  0  0  0  0  0  0  0  0
   55.4610   22.8040  102.7110 C   0  0  0  0  0  0  0  0  0  0  0  0
   54.2400   21.4150  103.1680 Br  0  0  0  0  0  0  0  0  0  0  0  0
   51.1964   24.1711  101.0947 H   0  0  0  0  0  0  0  0  0  0  0  0
   51.4519   25.2691   99.6962 H   0  0  0  0  0  0  0  0  0  0  0  0
   52.1850   23.6292   99.6962 H   0  0  0  0  0  0  0  0  0  0  0  0
   53.9305   25.2134  100.2226 H   0  0  0  0  0  0  0  0  0  0  0  0
   52.8966   25.9946  101.4836 H   0  0  0  0  0  0  0  0  0  0  0  0
   55.6516   25.9350  101.4351 H   0  0  0  0  0  0  0  0  0  0  0  0
   59.5436   25.0250  100.2481 H   0  0  0  0  0  0  0  0  0  0  0  0
   57.9453   25.6675   99.7141 H   0  0  0  0  0  0  0  0  0  0  0  0
   60.4768   27.1358  100.4530 H   0  0  0  0  0  0  0  0  0  0  0  0
   59.2991   27.3673   99.0574 H   0  0  0  0  0  0  0  0  0  0  0  0
   58.9191   29.2549  100.2371 H   0  0  0  0  0  0  0  0  0  0  0  0
   57.7033   28.1001  100.9625 H   0  0  0  0  0  0  0  0  0  0  0  0
   58.9470   29.5130  102.5240 H   0  0  0  0  0  0  0  0  0  0  0  0
   60.3360   28.7320  102.1460 H   0  0  0  0  0  0  0  0  0  0  0  0
   59.7364   27.7959  104.1417 H   0  0  0  0  0  0  0  0  0  0  0  0
   57.9953   27.7110  103.6010 H   0  0  0  0  0  0  0  0  0  0  0  0
   60.2669   26.0198  102.4658 H   0  0  0  0  0  0  0  0  0  0  0  0
   59.0552   25.4889  103.7177 H   0  0  0  0  0  0  0  0  0  0  0  0
   58.7159   23.2991  102.8428 H   0  0  0  0  0  0  0  0  0  0  0  0
  1  2  1  0
  2  3  1  0
  3  4  1  0
  4  5  2  0
  5  6  1  0
  6  7  1  0
  7  8  1  0
  8  9  1  0
  9 10  1  0
 10 11  1  0
 11 12  1  0
 12 13  1  0
  6 14  2  0
 14 15  1  0
 15 16  2  0
 16 17  1  0
 16  4  1  0
 13  7  1  0
  1 18  1  0
  1 19  1  0
  1 20  1  0
  2 21  1  0
  2 22  1  0
  5 23  1  0
  8 24  1  0
  8 25  1  0
  9 26  1  0
  9 27  1  0
 10 28  1  0
 10 29  1  0
 11 30  1  0
 11 31  1  0
 12 32  1  0
 12 33  1  0
 13 34  1  0
 13 35  1  0
 14 36  1  0
M  CHG  1  11   1
M  END
>  <meeko>  (2) 
{"is_sidechain": [false], "free_energy": -4.065, "intermolecular_energy": -5.788, "internal_energy": 0.546}

$$$$
3u8n_ligand
     RDKit          3D

 36 37  0  0  0  0  0  0  0  0999 V2000
   56.4970   19.4460  104.4300 C   0  0  0  0  0  0  0  0  0  0  0  0
   55.3970   20.3480  103.9000 C   0  0  0  0  0  0  0  0  0  0  0  0
   55.7370   21.7220  104.0640 O   0  0  0  0  0  0  0  0  0  0  0  0
   55.4320   22.6350  103.0950 C   0  0  0  0  0  0  0  0  0  0  0  0
   54.1700   23.2090  102.8910 C   0  0  0  0  0  0  0  0  0  0  0  0
   53.9320   24.1380  101.8610 C   0  0  0  0  0  0  0  0  0  0  0  0
   52.6670   24.7180  101.6910 N   0  0  0  0  0  0  0  0  0  0  0  0
   51.5650   24.1790  102.5030 C   0  0  0  0  0  0  0  0  0  0  0  0
   51.4440   22.6650  102.3030 C   0  0  0  0  0  0  0  0  0  0  0  0
   50.7870   22.2520  101.0180 C   0  0  0  0  0  0  0  0  0  0  0  0
   51.3450   22.9470   99.8110 N   0  0  0  0  0  0  0  0  0  0  0  0
   51.1740   24.4370   99.6840 C   0  0  0  0  0  0  0  0  0  0  0  0
   52.3080   25.2400  100.3560 C   0  0  0  0  0  0  0  0  0  0  0  0
   55.0510   24.4560  101.0870 C   0  0  0  0  0  0  0  0  0  0  0  0
   56.2890   23.9390  101.2430 N   0  0  0  0  0  0  0  0  0  0  0  0
   56.4570   23.0360  102.2350 C   0  0  0  0  0  0  0  0  0  0  0  0
   58.2160   22.3260  102.4150 Br  0  0  0  0  0  0  0  0  0  0  0  0
   56.4827   19.4577  105.5298 H   0  0  0  0  0  0  0  0  0  0  0  0
   56.3332   18.4188  104.0721 H   0  0  0  0  0  0  0  0  0  0  0  0
   57.4722   19.8078  104.0721 H   0  0  0  0  0  0  0  0  0  0  0  0
   55.2463   20.1404  102.8303 H   0  0  0  0  0  0  0  0  0  0  0  0
   54.4760   20.1459  104.4665 H   0  0  0  0  0  0  0  0  0  0  0  0
   53.3408   22.9250  103.5557 H   0  0  0  0  0  0  0  0  0  0  0  0
   51.7607   24.3897  103.5648 H   0  0  0  0  0  0  0  0  0  0  0  0
   50.6248   24.6562  102.1895 H   0  0  0  0  0  0  0  0  0  0  0  0
   52.4562   22.2348  102.3239 H   0  0  0  0  0  0  0  0  0  0  0  0
   50.7994   22.2953  103.1140 H   0  0  0  0  0  0  0  0  0  0  0  0
   50.9233   21.1680  100.8898 H   0  0  0  0  0  0  0  0  0  0  0  0
   49.7260   22.5329  101.0918 H   0  0  0  0  0  0  0  0  0  0  0  0
   50.9150   22.5040   98.9870 H   0  0  0  0  0  0  0  0  0  0  0  0
   52.3490   22.7330   99.7430 H   0  0  0  0  0  0  0  0  0  0  0  0
   51.1485   24.6959   98.6152 H   0  0  0  0  0  0  0  0  0  0  0  0
   50.2378   24.7029  100.1967 H   0  0  0  0  0  0  0  0  0  0  0  0
   53.1982   25.1977   99.7112 H   0  0  0  0  0  0  0  0  0  0  0  0
   51.9490   26.2711  100.4896 H   0  0  0  0  0  0  0  0  0  0  0  0
   54.9116   25.1911  100.2807 H   0  0  0  0  0  0  0  0  0  0  0  0
  1  2  1  0
  2  3  1  0
  3  4  1  0
  4  5  2  0
  5  6  1  0
  6  7  1  0
  7  8  1  0
  8  9  1  0
  9 10  1  0
 10 11  1  0
 11 12  1  0
 12 13  1  0
  6 14  2  0
 14 15  1  0
 15 16  2  0
 16 17  1  0
 16  4  1  0
 13  7  1  0
  1 18  1  0
  1 19  1  0
  1 20  1  0
  2 21  1  0
  2 22  1  0
  5 23  1  0
  8 24  1  0
  8 25  1  0
  9 26  1  0
  9 27  1  0
 10 28  1  0
 10 29  1  0
 11 30  1  0
 11 31  1  0
 12 32  1  0
 12 33  1  0
 13 34  1  0
 13 35  1  0
 14 36  1  0
M  CHG  1  11   1
M  END
>  <meeko>  (3) 
{"is_sidechain": [false], "free_energy": -4.064, "intermolecular_energy": -6.037, "internal_energy": 0.797}

$$$$
3u8n_ligand
     RDKit          3D

 36 37  0  0  0  0  0  0  0  0999 V2000
   60.9100   27.1730  104.1080 C   0  0  0  0  0  0  0  0  0  0  0  0
   59.4950   27.7080  104.2410 C   0  0  0  0  0  0  0  0  0  0  0  0
   58.8950   27.8930  102.9620 O   0  0  0  0  0  0  0  0  0  0  0  0
   58.6670   26.8270  102.1390 C   0  0  0  0  0  0  0  0  0  0  0  0
   58.1140   25.6020  102.5350 C   0  0  0  0  0  0  0  0  0  0  0  0
   57.9200   24.5450  101.6270 C   0  0  0  0  0  0  0  0  0  0  0  0
   57.3430   23.3350  102.0400 N   0  0  0  0  0  0  0  0  0  0  0  0
   55.9520   23.0810  101.6360 C   0  0  0  0  0  0  0  0  0  0  0  0
   55.0640   22.8870  102.8700 C   0  0  0  0  0  0  0  0  0  0  0  0
   54.9350   21.4370  103.3390 C   0  0  0  0  0  0  0  0  0  0  0  0
   56.1680   20.8960  104.0000 N   0  0  0  0  0  0  0  0  0  0  0  0
   57.5150   21.2390  103.4220 C   0  0  0  0  0  0  0  0  0  0  0  0
   57.7700   22.7590  103.3310 C   0  0  0  0  0  0  0  0  0  0  0  0
   58.2930   24.8260  100.3100 C   0  0  0  0  0  0  0  0  0  0  0  0
   58.8220   25.9890   99.8720 N   0  0  0  0  0  0  0  0  0  0  0  0
   59.0060   26.9640  100.7910 C   0  0  0  0  0  0  0  0  0  0  0  0
   59.7630   28.5840  100.1340 Br  0  0  0  0  0  0  0  0  0  0  0  0
   61.3366   27.0117  105.1090 H   0  0  0  0  0  0  0  0  0  0  0  0
   60.8915   26.2198  103.5593 H   0  0  0  0  0  0  0  0  0  0  0  0
   61.5268   27.9000  103.5593 H   0  0  0  0  0  0  0  0  0  0  0  0
   58.8931   26.9923  104.8202 H   0  0  0  0  0  0  0  0  0  0  0  0
   59.5357   28.6811  104.7522 H   0  0  0  0  0  0  0  0  0  0  0  0
   57.8230   25.4626  103.5866 H   0  0  0  0  0  0  0  0  0  0  0  0
   55.5815   23.9377  101.0539 H   0  0  0  0  0  0  0  0  0  0  0  0
   55.9191   22.1665  101.0255 H   0  0  0  0  0  0  0  0  0  0  0  0
   55.4887   23.4780  103.6948 H   0  0  0  0  0  0  0  0  0  0  0  0
   54.0537   23.2129  102.5818 H   0  0  0  0  0  0  0  0  0  0  0  0
   54.1039   21.3787  104.0573 H   0  0  0  0  0  0  0  0  0  0  0  0
   54.7627   20.8267  102.4402 H   0  0  0  0  0  0  0  0  0  0  0  0
   56.0760   19.8710  104.0110 H   0  0  0  0  0  0  0  0  0  0  0  0
   56.1630   21.1800  104.9890 H   0  0  0  0  0  0  0  0  0  0  0  0
   58.2925   20.7918  104.0587 H   0  0  0  0  0  0  0  0  0  0  0  0
   57.5408   20.8418  102.3965 H   0  0  0  0  0  0  0  0  0  0  0  0
   57.2145   23.2575  104.1391 H   0  0  0  0  0  0  0  0  0  0  0  0
   58.8545   22.9187  103.4222 H   0  0  0  0  0  0  0  0  0  0  0  0
   58.1427   24.0307   99.5650 H   0  0  0  0  0  0  0  0  0  0  0  0
  1  2  1  0
  2  3  1  0
  3  4  1  0
  4  5  2  0
  5  6  1  0
  6  7  1  0
  7  8  1  0
  8  9  1  0
  9 10  1  0
 10 11  1  0
 11 12  1  0
 12 13  1  0
  6 14  2  0
 14 15  1  0
 15 16  2  0
 16 17  1  0
 16  4  1  0
 13  7  1  0
  1 18  1  0
  1 19  1  0
  1 20  1  0
  2 21  1  0
  2 22  1  0
  5 23  1  0
  8 24  1  0
  8 25  1  0
  9 26  1  0
  9 27  1  0
 10 28  1  0
 10 29  1  0
 11 30  1  0
 11 31  1  0
 12 32  1  0
 12 33  1  0
 13 34  1  0
 13 35  1  0
 14 36  1  0
M  CHG  1  11   1
M  END
>  <meeko>  (4) 
{"is_sidechain": [false], "free_energy": -4.054, "intermolecular_energy": -5.455, "internal_energy": 0.23}

$$$$
3u8n_ligand
     RDKit          3D

 36 37  0  0  0  0  0  0  0  0999 V2000
   52.1530   24.4000  100.2380 C   0  0  0  0  0  0  0  0  0  0  0  0
   53.1380   25.1230  101.1390 C   0  0  0  0  0  0  0  0  0  0  0  0
   53.6250   24.2580  102.1630 O   0  0  0  0  0  0  0  0  0  0  0  0
   54.9600   23.9900  102.2700 C   0  0  0  0  0  0  0  0  0  0  0  0
   55.9940   24.8820  101.9590 C   0  0  0  0  0  0  0  0  0  0  0  0
   57.3490   24.5250  102.0860 C   0  0  0  0  0  0  0  0  0  0  0  0
   58.3680   25.4430  101.7920 N   0  0  0  0  0  0  0  0  0  0  0  0
   59.1370   25.9800  102.9240 C   0  0  0  0  0  0  0  0  0  0  0  0
   58.6910   27.4110  103.2430 C   0  0  0  0  0  0  0  0  0  0  0  0
   59.5170   28.5190  102.5710 C   0  0  0  0  0  0  0  0  0  0  0  0
   59.4350   28.5170  101.0730 N   0  0  0  0  0  0  0  0  0  0  0  0
   59.4410   27.2000  100.3440 C   0  0  0  0  0  0  0  0  0  0  0  0
   58.1920   26.3390  100.6310 C   0  0  0  0  0  0  0  0  0  0  0  0
   57.5740   23.2330  102.5690 C   0  0  0  0  0  0  0  0  0  0  0  0
   56.6170   22.3350  102.8910 N   0  0  0  0  0  0  0  0  0  0  0  0
   55.3310   22.7240  102.7300 C   0  0  0  0  0  0  0  0  0  0  0  0
   54.0140   21.4260  103.1870 Br  0  0  0  0  0  0  0  0  0  0  0  0
   51.4189   23.8612  100.8551 H   0  0  0  0  0  0  0  0  0  0  0  0
   51.6317   25.1315   99.6030 H   0  0  0  0  0  0  0  0  0  0  0  0
   52.6946   23.6834   99.6030 H   0  0  0  0  0  0  0  0  0  0  0  0
   53.9858   25.4770  100.5340 H   0  0  0  0  0  0  0  0  0  0  0  0
   52.6218   25.9708  101.6130 H   0  0  0  0  0  0  0  0  0  0  0  0
   55.7392   25.8918  101.6049 H   0  0  0  0  0  0  0  0  0  0  0  0
   58.9739   25.3444  103.8068 H   0  0  0  0  0  0  0  0  0  0  0  0
   60.2041   25.9903  102.6571 H   0  0  0  0  0  0  0  0  0  0  0  0
   57.6457   27.5218  102.9190 H   0  0  0  0  0  0  0  0  0  0  0  0
   58.8313   27.5401  104.3263 H   0  0  0  0  0  0  0  0  0  0  0  0
   59.1539   29.4910  102.9361 H   0  0  0  0  0  0  0  0  0  0  0  0
   60.5694   28.3349  102.8327 H   0  0  0  0  0  0  0  0  0  0  0  0
   60.2280   29.0760  100.7300 H   0  0  0  0  0  0  0  0  0  0  0  0
   58.5930   29.0360  100.7890 H   0  0  0  0  0  0  0  0  0  0  0  0
   59.4873   27.3991   99.2632 H   0  0  0  0  0  0  0  0  0  0  0  0
   60.3156   26.6347  100.6984 H   0  0  0  0  0  0  0  0  0  0  0  0
   57.3419   27.0083  100.8295 H   0  0  0  0  0  0  0  0  0  0  0  0
   58.0164   25.7063   99.7484 H   0  0  0  0  0  0  0  0  0  0  0  0
   58.6206   22.9201  102.6982 H   0  0  0  0  0  0  0  0  0  0  0  0
  1  2  1  0
  2  3  1  0
  3  4  1  0
  4  5  2  0
  5  6  1  0
  6  7  1  0
  7  8  1  0
  8  9  1  0
  9 10  1  0
 10 11  1  0
 11 12  1  0
 12 13  1  0
  6 14  2  0
 14 15  1  0
 15 16  2  0
 16 17  1  0
 16  4  1  0
 13  7  1  0
  1 18  1  0
  1 19  1  0
  1 20  1  0
  2 21  1  0
  2 22  1  0
  5 23  1  0
  8 24  1  0
  8 25  1  0
  9 26  1  0
  9 27  1  0
 10 28  1  0
 10 29  1  0
 11 30  1  0
 11 31  1  0
 12 32  1  0
 12 33  1  0
 13 34  1  0
 13 35  1  0
 14 36  1  0
M  CHG  1  11   1
M  END
>  <meeko>  (5) 
{"is_sidechain": [false], "free_energy": -3.913, "intermolecular_energy": -5.206, "internal_energy": 0.197}

$$$$
3u8n_ligand
     RDKit          3D

 36 37  0  0  0  0  0  0  0  0999 V2000
   50.7900   22.2870  100.7040 C   0  0  0  0  0  0  0  0  0  0  0  0
   50.7800   22.7660  102.1450 C   0  0  0  0  0  0  0  0  0  0  0  0
   51.5030   23.9860  102.2840 O   0  0  0  0  0  0  0  0  0  0  0  0
   52.8600   24.0120  102.1340 C   0  0  0  0  0  0  0  0  0  0  0  0
   53.7550   23.0900  102.6910 C   0  0  0  0  0  0  0  0  0  0  0  0
   55.1450   23.1910  102.4980 C   0  0  0  0  0  0  0  0  0  0  0  0
   56.0200   22.2420  103.0460 N   0  0  0  0  0  0  0  0  0  0  0  0
   55.5840   21.5500  104.2670 C   0  0  0  0  0  0  0  0  0  0  0  0
   55.6110   20.0310  104.0600 C   0  0  0  0  0  0  0  0  0  0  0  0
   56.9690   19.3920  104.2860 C   0  0  0  0  0  0  0  0  0  0  0  0
   58.1180   20.3500  104.1680 N   0  0  0  0  0  0  0  0  0  0  0  0
   58.2790   21.1410  102.8980 C   0  0  0  0  0  0  0  0  0  0  0  0
   57.4740   22.4590  102.8950 C   0  0  0  0  0  0  0  0  0  0  0  0
   55.5500   24.2590  101.6920 C   0  0  0  0  0  0  0  0  0  0  0  0
   54.7320   25.1720  101.1260 N   0  0  0  0  0  0  0  0  0  0  0  0
   53.4070   25.0390  101.3600 C   0  0  0  0  0  0  0  0  0  0  0  0
   52.2900   26.3520  100.5490 Br  0  0  0  0  0  0  0  0  0  0  0  0
   50.8130   21.1874  100.6833 H   0  0  0  0  0  0  0  0  0  0  0  0
   49.8842   22.6445  100.1925 H   0  0  0  0  0  0  0  0  0  0  0  0
   51.6801   22.6820  100.1925 H   0  0  0  0  0  0  0  0  0  0  0  0
   49.7393   22.9266  102.4632 H   0  0  0  0  0  0  0  0  0  0  0  0
   51.2615   22.0007  102.7714 H   0  0  0  0  0  0  0  0  0  0  0  0
   53.3594   22.2620  103.2976 H   0  0  0  0  0  0  0  0  0  0  0  0
   56.2589   21.8150  105.0942 H   0  0  0  0  0  0  0  0  0  0  0  0
   54.5553   21.8593  104.5040 H   0  0  0  0  0  0  0  0  0  0  0  0
   54.8955   19.5755  104.7604 H   0  0  0  0  0  0  0  0  0  0  0  0
   55.3515   19.8529  103.0060 H   0  0  0  0  0  0  0  0  0  0  0  0
   56.9833   18.9565  105.2960 H   0  0  0  0  0  0  0  0  0  0  0  0
   57.1014   18.6355  103.4985 H   0  0  0  0  0  0  0  0  0  0  0  0
   58.9780   19.8030  104.3160 H   0  0  0  0  0  0  0  0  0  0  0  0
   58.0760   21.0120  104.9550 H   0  0  0  0  0  0  0  0  0  0  0  0
   59.3445   21.3820  102.7691 H   0  0  0  0  0  0  0  0  0  0  0  0
   57.8928   20.5207  102.0758 H   0  0  0  0  0  0  0  0  0  0  0  0
   57.8241   23.0866  103.7278 H   0  0  0  0  0  0  0  0  0  0  0  0
   57.6372   22.9447  101.9216 H   0  0  0  0  0  0  0  0  0  0  0  0
   56.6284   24.3647  101.5025 H   0  0  0  0  0  0  0  0  0  0  0  0
  1  2  1  0
  2  3  1  0
  3  4  1  0
  4  5  2  0
  5  6  1  0
  6  7  1  0
  7  8  1  0
  8  9  1  0
  9 10  1  0
 10 11  1  0
 11 12  1  0
 12 13  1  0
  6 14  2  0
 14 15  1  0
 15 16  2  0
 16 17  1  0
 16  4  1  0
 13  7  1  0
  1 18  1  0
  1 19  1  0
  1 20  1  0
  2 21  1  0
  2 22  1  0
  5 23  1  0
  8 24  1  0
  8 25  1  0
  9 26  1  0
  9 27  1  0
 10 28  1  0
 10 29  1  0
 11 30  1  0
 11 31  1  0
 12 32  1  0
 12 33  1  0
 13 34  1  0
 13 35  1  0
 14 36  1  0
M  CHG  1  11   1
M  END
>  <meeko>  (6) 
{"is_sidechain": [false], "free_energy": -2.872, "intermolecular_energy": -3.512, "internal_energy": 0.091}

$$$$
3u8n_ligand
     RDKit          3D

 36 37  0  0  0  0  0  0  0  0999 V2000
   55.7980   19.0550  104.0070 C   0  0  0  0  0  0  0  0  0  0  0  0
   55.6730   20.5670  104.0590 C   0  0  0  0  0  0  0  0  0  0  0  0
   55.0270   21.0680  102.8920 O   0  0  0  0  0  0  0  0  0  0  0  0
   55.2620   22.3420  102.4590 C   0  0  0  0  0  0  0  0  0  0  0  0
   56.5260   22.8970  102.2230 C   0  0  0  0  0  0  0  0  0  0  0  0
   56.6860   24.2250  101.7870 C   0  0  0  0  0  0  0  0  0  0  0  0
   57.9600   24.7540  101.5350 N   0  0  0  0  0  0  0  0  0  0  0  0
   58.6870   25.3310  102.6750 C   0  0  0  0  0  0  0  0  0  0  0  0
   58.1980   26.7560  102.9550 C   0  0  0  0  0  0  0  0  0  0  0  0
   58.9930   27.8650  102.2630 C   0  0  0  0  0  0  0  0  0  0  0  0
   59.0860   27.6880  100.7760 N   0  0  0  0  0  0  0  0  0  0  0  0
   59.4220   26.3290  100.2240 C   0  0  0  0  0  0  0  0  0  0  0  0
   58.2200   25.3600  100.2130 C   0  0  0  0  0  0  0  0  0  0  0  0
   55.4930   24.9250  101.5840 C   0  0  0  0  0  0  0  0  0  0  0  0
   54.2500   24.4380  101.7880 N   0  0  0  0  0  0  0  0  0  0  0  0
   54.1550   23.1620  102.2260 C   0  0  0  0  0  0  0  0  0  0  0  0
   52.3850   22.5170  102.5090 Br  0  0  0  0  0  0  0  0  0  0  0  0
   55.8311   18.6544  105.0309 H   0  0  0  0  0  0  0  0  0  0  0  0
   54.9316   18.6335  103.4762 H   0  0  0  0  0  0  0  0  0  0  0  0
   56.7218   18.7815  103.4762 H   0  0  0  0  0  0  0  0  0  0  0  0
   55.0844   20.8487  104.9446 H   0  0  0  0  0  0  0  0  0  0  0  0
   56.6829   20.9998  104.1127 H   0  0  0  0  0  0  0  0  0  0  0  0
   57.4199   22.2764  102.3832 H   0  0  0  0  0  0  0  0  0  0  0  0
   58.5174   24.7081  103.5657 H   0  0  0  0  0  0  0  0  0  0  0  0
   59.7599   25.3629  102.4345 H   0  0  0  0  0  0  0  0  0  0  0  0
   57.1521   26.8285  102.6221 H   0  0  0  0  0  0  0  0  0  0  0  0
   58.3272   26.9164  104.0356 H   0  0  0  0  0  0  0  0  0  0  0  0
   58.5027   28.8277  102.4702 H   0  0  0  0  0  0  0  0  0  0  0  0
   60.0180   27.8283  102.6606 H   0  0  0  0  0  0  0  0  0  0  0  0
   59.7940   28.3540  100.4400 H   0  0  0  0  0  0  0  0  0  0  0  0
   58.2000   27.9950  100.3520 H   0  0  0  0  0  0  0  0  0  0  0  0
   59.7818   26.4507   99.1917 H   0  0  0  0  0  0  0  0  0  0  0  0
   60.1878   25.8908  100.8809 H   0  0  0  0  0  0  0  0  0  0  0  0
   57.3240   25.9153   99.8988 H   0  0  0  0  0  0  0  0  0  0  0  0
   58.4598   24.5434   99.5161 H   0  0  0  0  0  0  0  0  0  0  0  0
   55.5738   25.9624  101.2272 H   0  0  0  0  0  0  0  0  0  0  0  0
  1  2  1  0
  2  3  1  0
  3  4  1  0
  4  5  2  0
  5  6  1  0
  6  7  1  0
  7  8  1  0
  8  9  1  0
  9 10  1  0
 10 11  1  0
 11 12  1  0
 12 13  1  0
  6 14  2  0
 14 15  1  0
 15 16  2  0
 16 17  1  0
 16  4  1  0
 13  7  1  0
  1 18  1  0
  1 19  1  0
  1 20  1  0
  2 21  1  0
  2 22  1  0
  5 23  1  0
  8 24  1  0
  8 25  1  0
  9 26  1  0
  9 27  1  0
 10 28  1  0
 10 29  1  0
 11 30  1  0
 11 31  1  0
 12 32  1  0
 12 33  1  0
 13 34  1  0
 13 35  1  0
 14 36  1  0
M  CHG  1  11   1
M  END
>  <meeko>  (7) 
{"is_sidechain": [false], "free_energy": -2.711, "intermolecular_energy": -3.451, "internal_energy": 0.275}

$$$$
