2wca_ligand
     RDKit          3D

 50 51  0  0  0  0  0  0  0  0999 V2000
  -11.6370  -11.7460    3.8310 C   0  0  0  0  0  0  0  0  0  0  0  0
  -10.6050  -11.6370    4.9420 C   0  0  0  0  0  0  0  0  0  0  0  0
  -10.1080  -13.0120    5.3800 C   0  0  0  0  0  0  0  0  0  0  0  0
   -9.7100  -13.0380    6.8430 C   0  0  0  0  0  0  0  0  0  0  0  0
  -10.0930  -13.8790    7.6480 O   0  0  0  0  0  0  0  0  0  0  0  0
   -8.8860  -11.9960    7.1990 N   0  0  0  0  0  0  0  0  0  0  0  0
   -8.1990  -11.9170    8.5020 C   0  0  1  0  0  0  0  0  0  0  0  0
   -6.7150  -11.7430    8.1850 C   0  0  0  0  0  0  0  0  0  0  0  0
   -6.2200  -12.3560    7.1530 N   0  0  0  0  0  0  0  0  0  0  0  0
   -4.8380  -12.1070    7.0390 O   0  0  0  0  0  0  0  0  0  0  0  0
   -4.1270  -13.2850    7.0820 C   0  0  0  0  0  0  0  0  0  0  0  0
   -3.2690  -13.5490    7.9150 O   0  0  0  0  0  0  0  0  0  0  0  0
   -4.5610  -14.0840    6.0530 N   0  0  0  0  0  0  0  0  0  0  0  0
   -4.1290  -15.3750    5.7050 C   0  0  0  0  0  0  0  0  0  0  0  0
   -4.6110  -16.5440    6.2970 C   0  0  0  0  0  0  0  0  0  0  0  0
   -4.1290  -17.7930    5.8920 C   0  0  0  0  0  0  0  0  0  0  0  0
   -3.1620  -17.8830    4.8950 C   0  0  0  0  0  0  0  0  0  0  0  0
   -2.6740  -16.7230    4.2990 C   0  0  0  0  0  0  0  0  0  0  0  0
   -3.1550  -15.4750    4.7020 C   0  0  0  0  0  0  0  0  0  0  0  0
   -5.9280  -11.0200    8.9980 O   0  0  0  0  0  0  0  0  0  0  0  0
   -6.4720   -9.9950    9.8560 C   0  0  2  0  0  0  0  0  0  0  0  0
   -5.4070   -9.6420   10.9050 C   0  0  0  0  0  0  0  0  0  0  0  0
   -5.4710  -10.5400   12.0160 O   0  0  0  0  0  0  0  0  0  0  0  0
   -7.7620  -10.4540   10.5100 C   0  0  1  0  0  0  0  0  0  0  0  0
   -8.3220   -9.4160   11.3180 O   0  0  0  0  0  0  0  0  0  0  0  0
   -8.7650  -10.8300    9.4210 C   0  0  2  0  0  0  0  0  0  0  0  0
   -9.9430  -11.2660   10.1250 O   0  0  0  0  0  0  0  0  0  0  0  0
  -12.6396  -11.8519    4.2710 H   0  0  0  0  0  0  0  0  0  0  0  0
  -11.6034  -10.8393    3.2091 H   0  0  0  0  0  0  0  0  0  0  0  0
  -11.4147  -12.6257    3.2091 H   0  0  0  0  0  0  0  0  0  0  0  0
   -9.7505  -11.0467    4.5796 H   0  0  0  0  0  0  0  0  0  0  0  0
  -11.0788  -11.1494    5.8068 H   0  0  0  0  0  0  0  0  0  0  0  0
  -10.9104  -13.7468    5.2181 H   0  0  0  0  0  0  0  0  0  0  0  0
   -9.2164  -13.2547    4.7832 H   0  0  0  0  0  0  0  0  0  0  0  0
   -8.4080  -11.5170    6.4350 H   0  0  0  0  0  0  0  0  0  0  0  0
   -8.3615  -12.8344    9.0869 H   0  0  0  0  0  0  0  0  0  0  0  0
   -5.2840  -13.6620    5.4870 H   0  0  0  0  0  0  0  0  0  0  0  0
   -5.3744  -16.4824    7.0866 H   0  0  0  0  0  0  0  0  0  0  0  0
   -4.5160  -18.7083    6.3636 H   0  0  0  0  0  0  0  0  0  0  0  0
   -2.7847  -18.8668    4.5791 H   0  0  0  0  0  0  0  0  0  0  0  0
   -1.9096  -16.7894    3.5107 H   0  0  0  0  0  0  0  0  0  0  0  0
   -2.7657  -14.5620    4.2277 H   0  0  0  0  0  0  0  0  0  0  0  0
   -6.7230   -9.1026    9.2639 H   0  0  0  0  0  0  0  0  0  0  0  0
   -4.4105   -9.7092   10.4440 H   0  0  0  0  0  0  0  0  0  0  0  0
   -5.5936   -8.6200   11.2666 H   0  0  0  0  0  0  0  0  0  0  0  0
   -4.5610  -10.8100   12.2240 H   0  0  0  0  0  0  0  0  0  0  0  0
   -7.5425  -11.3206   11.1510 H   0  0  0  0  0  0  0  0  0  0  0  0
   -9.2340   -9.2960   10.9760 H   0  0  0  0  0  0  0  0  0  0  0  0
   -8.9947   -9.9840    8.7565 H   0  0  0  0  0  0  0  0  0  0  0  0
   -9.6390  -11.6500   10.9810 H   0  0  0  0  0  0  0  0  0  0  0  0
  1  2  1  0
  2  3  1  0
  3  4  1  0
  4  5  2  0
  4  6  1  0
  6  7  1  0
  7  8  1  0
  8  9  2  0
  9 10  1  0
 10 11  1  0
 11 12  2  0
 11 13  1  0
 13 14  1  0
 14 15  2  0
 15 16  1  0
 16 17  2  0
 17 18  1  0
 18 19  2  0
  8 20  1  0
 20 21  1  0
 21 22  1  0
 22 23  1  0
 21 24  1  0
 24 25  1  0
 24 26  1  0
 26 27  1  0
 26  7  1  0
 19 14  1  0
  1 28  1  0
  1 29  1  0
  1 30  1  0
  2 31  1  0
  2 32  1  0
  3 33  1  0
  3 34  1  0
  6 35  1  0
  7 36  1  1
 13 37  1  0
 15 38  1  0
 16 39  1  0
 17 40  1  0
 18 41  1  0
 19 42  1  0
 21 43  1  6
 22 44  1  0
 22 45  1  0
 23 46  1  0
 24 47  1  1
 25 48  1  0
 26 49  1  6
 27 50  1  0
M  END
>  <meeko>  (1) 
{"is_sidechain": [false], "free_energy": -7.787, "intermolecular_energy": -11.657, "internal_energy": -1.148}

$$$$
2wca_ligand
     RDKit          3D

 50 51  0  0  0  0  0  0  0  0999 V2000
  -11.5550  -11.8670    3.9690 C   0  0  0  0  0  0  0  0  0  0  0  0
  -10.5820  -12.2740    5.0640 C   0  0  0  0  0  0  0  0  0  0  0  0
   -9.7680  -11.0830    5.5600 C   0  0  0  0  0  0  0  0  0  0  0  0
   -9.2720  -11.2790    6.9800 C   0  0  0  0  0  0  0  0  0  0  0  0
   -9.7170  -12.1160    7.7570 O   0  0  0  0  0  0  0  0  0  0  0  0
   -8.2760  -10.4000    7.3320 N   0  0  0  0  0  0  0  0  0  0  0  0
   -7.4910  -10.5240    8.5760 C   0  0  1  0  0  0  0  0  0  0  0  0
   -6.0340  -10.6760    8.1390 C   0  0  0  0  0  0  0  0  0  0  0  0
   -5.7720  -11.3460    7.0590 N   0  0  0  0  0  0  0  0  0  0  0  0
   -4.3820  -11.4100    6.8350 O   0  0  0  0  0  0  0  0  0  0  0  0
   -3.9130  -12.6850    7.0510 C   0  0  0  0  0  0  0  0  0  0  0  0
   -2.8020  -12.9510    7.4940 O   0  0  0  0  0  0  0  0  0  0  0  0
   -4.9010  -13.5700    6.6990 N   0  0  0  0  0  0  0  0  0  0  0  0
   -4.8800  -14.9740    6.7520 C   0  0  0  0  0  0  0  0  0  0  0  0
   -4.7990  -15.7950    5.6260 C   0  0  0  0  0  0  0  0  0  0  0  0
   -4.7820  -17.1870    5.7640 C   0  0  0  0  0  0  0  0  0  0  0  0
   -4.8460  -17.7680    7.0270 C   0  0  0  0  0  0  0  0  0  0  0  0
   -4.9280  -16.9570    8.1570 C   0  0  0  0  0  0  0  0  0  0  0  0
   -4.9450  -15.5670    8.0200 C   0  0  0  0  0  0  0  0  0  0  0  0
   -5.0440  -10.1770    8.8970 O   0  0  0  0  0  0  0  0  0  0  0  0
   -5.2740   -9.0870    9.8150 C   0  0  2  0  0  0  0  0  0  0  0  0
   -4.0800   -9.0190   10.7770 C   0  0  0  0  0  0  0  0  0  0  0  0
   -4.3880   -9.6660   12.0160 O   0  0  0  0  0  0  0  0  0  0  0  0
   -6.5810   -9.2690   10.5650 C   0  0  1  0  0  0  0  0  0  0  0  0
   -6.8270   -8.1610   11.4350 O   0  0  0  0  0  0  0  0  0  0  0  0
   -7.7230   -9.3710    9.5570 C   0  0  2  0  0  0  0  0  0  0  0  0
   -8.9120   -9.5570   10.3480 O   0  0  0  0  0  0  0  0  0  0  0  0
  -12.4788  -11.4806    4.4244 H   0  0  0  0  0  0  0  0  0  0  0  0
  -11.0985  -11.0844    3.3452 H   0  0  0  0  0  0  0  0  0  0  0  0
  -11.7917  -12.7415    3.3452 H   0  0  0  0  0  0  0  0  0  0  0  0
  -11.1488  -12.6955    5.9072 H   0  0  0  0  0  0  0  0  0  0  0  0
   -9.8866  -13.0181    4.6485 H   0  0  0  0  0  0  0  0  0  0  0  0
   -8.9006  -10.9463    4.8975 H   0  0  0  0  0  0  0  0  0  0  0  0
  -10.4227  -10.1991    5.5501 H   0  0  0  0  0  0  0  0  0  0  0  0
   -7.7880   -9.9380    6.5640 H   0  0  0  0  0  0  0  0  0  0  0  0
   -7.8121  -11.4014    9.1567 H   0  0  0  0  0  0  0  0  0  0  0  0
   -5.7430  -13.1260    6.3580 H   0  0  0  0  0  0  0  0  0  0  0  0
   -4.7482  -15.3445    4.6237 H   0  0  0  0  0  0  0  0  0  0  0  0
   -4.7178  -17.8251    4.8703 H   0  0  0  0  0  0  0  0  0  0  0  0
   -4.8319  -18.8628    7.1327 H   0  0  0  0  0  0  0  0  0  0  0  0
   -4.9794  -17.4115    9.1574 H   0  0  0  0  0  0  0  0  0  0  0  0
   -5.0100  -14.9320    8.9158 H   0  0  0  0  0  0  0  0  0  0  0  0
   -5.3609   -8.1400    9.2622 H   0  0  0  0  0  0  0  0  0  0  0  0
   -3.2156   -9.5180   10.3147 H   0  0  0  0  0  0  0  0  0  0  0  0
   -3.8495   -7.9625   10.9787 H   0  0  0  0  0  0  0  0  0  0  0  0
   -4.8530  -10.4920   11.8050 H   0  0  0  0  0  0  0  0  0  0  0  0
   -6.5157  -10.1856   11.1696 H   0  0  0  0  0  0  0  0  0  0  0  0
   -7.7780   -8.2320   11.6680 H   0  0  0  0  0  0  0  0  0  0  0  0
   -7.8046   -8.4715    8.9291 H   0  0  0  0  0  0  0  0  0  0  0  0
   -9.3260  -10.4010   10.0490 H   0  0  0  0  0  0  0  0  0  0  0  0
  1  2  1  0
  2  3  1  0
  3  4  1  0
  4  5  2  0
  4  6  1  0
  6  7  1  0
  7  8  1  0
  8  9  2  0
  9 10  1  0
 10 11  1  0
 11 12  2  0
 11 13  1  0
 13 14  1  0
 14 15  2  0
 15 16  1  0
 16 17  2  0
 17 18  1  0
 18 19  2  0
  8 20  1  0
 20 21  1  0
 21 22  1  0
 22 23  1  0
 21 24  1  0
 24 25  1  0
 24 26  1  0
 26 27  1  0
 26  7  1  0
 19 14  1  0
  1 28  1  0
  1 29  1  0
  1 30  1  0
  2 31  1  0
  2 32  1  0
  3 33  1  0
  3 34  1  0
  6 35  1  0
  7 36  1  1
 13 37  1  0
 15 38  1  0
 16 39  1  0
 17 40  1  0
 18 41  1  0
 19 42  1  0
 21 43  1  6
 22 44  1  0
 22 45  1  0
 23 46  1  0
 24 47  1  1
 25 48  1  0
 26 49  1  6
 27 50  1  0
M  END
>  <meeko>  (2) 
{"is_sidechain": [false], "free_energy": -7.523, "intermolecular_energy": -11.333, "internal_energy": -1.077}

$$$$
2wca_ligand
     RDKit          3D

 50 51  0  0  0  0  0  0  0  0999 V2000
   -4.4190  -17.6310    6.2040 C   0  0  0  0  0  0  0  0  0  0  0  0
   -5.1290  -16.3800    5.7100 C   0  0  0  0  0  0  0  0  0  0  0  0
   -4.9670  -15.2210    6.6900 C   0  0  0  0  0  0  0  0  0  0  0  0
   -5.7440  -15.4430    7.9730 C   0  0  0  0  0  0  0  0  0  0  0  0
   -5.2430  -15.4430    9.0920 O   0  0  0  0  0  0  0  0  0  0  0  0
   -7.0820  -15.6760    7.7620 N   0  0  0  0  0  0  0  0  0  0  0  0
   -8.0780  -15.7130    8.8510 C   0  0  1  0  0  0  0  0  0  0  0  0
   -9.0890  -14.6120    8.5330 C   0  0  0  0  0  0  0  0  0  0  0  0
   -8.6650  -13.5110    7.9890 N   0  0  0  0  0  0  0  0  0  0  0  0
   -9.7270  -12.6040    7.8020 O   0  0  0  0  0  0  0  0  0  0  0  0
   -9.2940  -11.3080    7.9680 C   0  0  0  0  0  0  0  0  0  0  0  0
   -9.6730  -10.3580    7.2950 O   0  0  0  0  0  0  0  0  0  0  0  0
   -8.3970  -11.2880    9.0060 N   0  0  0  0  0  0  0  0  0  0  0  0
   -7.6980  -10.1900    9.5380 C   0  0  0  0  0  0  0  0  0  0  0  0
   -8.2250   -9.3200   10.4940 C   0  0  0  0  0  0  0  0  0  0  0  0
   -7.4640   -8.2500   10.9740 C   0  0  0  0  0  0  0  0  0  0  0  0
   -6.1710   -8.0400   10.5010 C   0  0  0  0  0  0  0  0  0  0  0  0
   -5.6360   -8.9020    9.5470 C   0  0  0  0  0  0  0  0  0  0  0  0
   -6.3970   -9.9720    9.0680 C   0  0  0  0  0  0  0  0  0  0  0  0
  -10.3810  -14.7600    8.8690 O   0  0  0  0  0  0  0  0  0  0  0  0
  -10.9670  -16.0660    9.0470 C   0  0  2  0  0  0  0  0  0  0  0  0
  -12.3010  -15.8890    9.7860 C   0  0  0  0  0  0  0  0  0  0  0  0
  -12.2310  -16.4430   11.1030 O   0  0  0  0  0  0  0  0  0  0  0  0
  -10.0320  -16.9890    9.8070 C   0  0  1  0  0  0  0  0  0  0  0  0
  -10.5980  -18.2960    9.9350 O   0  0  0  0  0  0  0  0  0  0  0  0
   -8.7110  -17.0930    9.0470 C   0  0  2  0  0  0  0  0  0  0  0  0
   -7.8860  -17.9670    9.8400 O   0  0  0  0  0  0  0  0  0  0  0  0
   -4.4141  -17.6396    7.3040 H   0  0  0  0  0  0  0  0  0  0  0  0
   -4.9458  -18.5224    5.8327 H   0  0  0  0  0  0  0  0  0  0  0  0
   -3.3836  -17.6358    5.8327 H   0  0  0  0  0  0  0  0  0  0  0  0
   -4.7044  -16.0883    4.7381 H   0  0  0  0  0  0  0  0  0  0  0  0
   -6.2015  -16.6059    5.6169 H   0  0  0  0  0  0  0  0  0  0  0  0
   -3.9005  -15.1116    6.9361 H   0  0  0  0  0  0  0  0  0  0  0  0
   -5.3618  -14.3141    6.2087 H   0  0  0  0  0  0  0  0  0  0  0  0
   -7.4530  -15.3920    6.8550 H   0  0  0  0  0  0  0  0  0  0  0  0
   -7.6012  -15.5273    9.8248 H   0  0  0  0  0  0  0  0  0  0  0  0
   -8.2340  -12.1940    9.4230 H   0  0  0  0  0  0  0  0  0  0  0  0
   -9.2459   -9.4774   10.8722 H   0  0  0  0  0  0  0  0  0  0  0  0
   -7.8882   -7.5711   11.7284 H   0  0  0  0  0  0  0  0  0  0  0  0
   -5.5747   -7.1966   10.8794 H   0  0  0  0  0  0  0  0  0  0  0  0
   -4.6150   -8.7408    9.1706 H   0  0  0  0  0  0  0  0  0  0  0  0
   -5.9697  -10.6497    8.3142 H   0  0  0  0  0  0  0  0  0  0  0  0
  -11.1418  -16.5363    8.0681 H   0  0  0  0  0  0  0  0  0  0  0  0
  -12.5334  -14.8163    9.8582 H   0  0  0  0  0  0  0  0  0  0  0  0
  -13.0871  -16.4149    9.2242 H   0  0  0  0  0  0  0  0  0  0  0  0
  -12.4830  -15.7420   11.7270 H   0  0  0  0  0  0  0  0  0  0  0  0
   -9.8692  -16.5750   10.8130 H   0  0  0  0  0  0  0  0  0  0  0  0
  -11.5650  -18.1600    9.8380 H   0  0  0  0  0  0  0  0  0  0  0  0
   -8.8453  -17.4932    8.0312 H   0  0  0  0  0  0  0  0  0  0  0  0
   -7.9860  -18.8740    9.4670 H   0  0  0  0  0  0  0  0  0  0  0  0
  1  2  1  0
  2  3  1  0
  3  4  1  0
  4  5  2  0
  4  6  1  0
  6  7  1  0
  7  8  1  0
  8  9  2  0
  9 10  1  0
 10 11  1  0
 11 12  2  0
 11 13  1  0
 13 14  1  0
 14 15  2  0
 15 16  1  0
 16 17  2  0
 17 18  1  0
 18 19  2  0
  8 20  1  0
 20 21  1  0
 21 22  1  0
 22 23  1  0
 21 24  1  0
 24 25  1  0
 24 26  1  0
 26 27  1  0
 26  7  1  0
 19 14  1  0
  1 28  1  0
  1 29  1  0
  1 30  1  0
  2 31  1  0
  2 32  1  0
  3 33  1  0
  3 34  1  0
  6 35  1  0
  7 36  1  1
 13 37  1  0
 15 38  1  0
 16 39  1  0
 17 40  1  0
 18 41  1  0
 19 42  1  0
 21 43  1  6
 22 44  1  0
 22 45  1  0
 23 46  1  0
 24 47  1  1
 25 48  1  0
 26 49  1  6
 27 50  1  0
M  END
>  <meeko>  (3) 
{"is_sidechain": [false], "free_energy": -7.451, "intermolecular_energy": -11.134, "internal_energy": -1.168}

$$$$
2wca_ligand
     RDKit          3D

 50 51  0  0  0  0  0  0  0  0999 V2000
  -11.0520  -11.7550    4.5690 C   0  0  0  0  0  0  0  0  0  0  0  0
  -10.9870  -13.1170    5.2400 C   0  0  0  0  0  0  0  0  0  0  0  0
   -9.5640  -13.4600    5.6740 C   0  0  0  0  0  0  0  0  0  0  0  0
   -9.2830  -13.0330    7.1020 C   0  0  0  0  0  0  0  0  0  0  0  0
   -9.7860  -13.5550    8.0900 O   0  0  0  0  0  0  0  0  0  0  0  0
   -8.4150  -11.9700    7.1880 N   0  0  0  0  0  0  0  0  0  0  0  0
   -7.8260  -11.5090    8.4600 C   0  0  1  0  0  0  0  0  0  0  0  0
   -6.4220  -11.0120    8.1170 C   0  0  0  0  0  0  0  0  0  0  0  0
   -5.7450  -11.6340    7.2000 N   0  0  0  0  0  0  0  0  0  0  0  0
   -4.4670  -11.0600    7.0460 O   0  0  0  0  0  0  0  0  0  0  0  0
   -3.5090  -11.8320    7.6620 C   0  0  0  0  0  0  0  0  0  0  0  0
   -2.8250  -12.6740    7.0950 O   0  0  0  0  0  0  0  0  0  0  0  0
   -3.4640  -11.4780    8.9880 N   0  0  0  0  0  0  0  0  0  0  0  0
   -2.6390  -11.9920   10.0030 C   0  0  0  0  0  0  0  0  0  0  0  0
   -3.0790  -12.8720   10.9940 C   0  0  0  0  0  0  0  0  0  0  0  0
   -2.1940  -13.3390   11.9700 C   0  0  0  0  0  0  0  0  0  0  0  0
   -0.8630  -12.9300   11.9650 C   0  0  0  0  0  0  0  0  0  0  0  0
   -0.4150  -12.0520   10.9820 C   0  0  0  0  0  0  0  0  0  0  0  0
   -1.2990  -11.5850   10.0060 C   0  0  0  0  0  0  0  0  0  0  0  0
   -5.8790   -9.9900    8.7980 O   0  0  0  0  0  0  0  0  0  0  0  0
   -6.7020   -9.0150    9.4750 C   0  0  2  0  0  0  0  0  0  0  0  0
   -5.8070   -8.2370   10.4500 C   0  0  0  0  0  0  0  0  0  0  0  0
   -5.0750   -9.1300   11.2930 O   0  0  0  0  0  0  0  0  0  0  0  0
   -7.8600   -9.6810   10.1970 C   0  0  1  0  0  0  0  0  0  0  0  0
   -8.6980   -8.7050   10.8220 O   0  0  0  0  0  0  0  0  0  0  0  0
   -8.6870  -10.4710    9.1860 C   0  0  2  0  0  0  0  0  0  0  0  0
   -9.7440  -11.0770    9.9530 O   0  0  0  0  0  0  0  0  0  0  0  0
  -11.0895  -10.9690    5.3376 H   0  0  0  0  0  0  0  0  0  0  0  0
  -10.1596  -11.6123    3.9418 H   0  0  0  0  0  0  0  0  0  0  0  0
  -11.9539  -11.6979    3.9418 H   0  0  0  0  0  0  0  0  0  0  0  0
  -11.6390  -13.1104    6.1259 H   0  0  0  0  0  0  0  0  0  0  0  0
  -11.3187  -13.8749    4.5150 H   0  0  0  0  0  0  0  0  0  0  0  0
   -9.4218  -14.5479    5.5949 H   0  0  0  0  0  0  0  0  0  0  0  0
   -8.8696  -12.9171    5.0159 H   0  0  0  0  0  0  0  0  0  0  0  0
   -7.8450  -11.7830    6.3620 H   0  0  0  0  0  0  0  0  0  0  0  0
   -7.7752  -12.3311    9.1891 H   0  0  0  0  0  0  0  0  0  0  0  0
   -4.1210  -10.7530    9.2390 H   0  0  0  0  0  0  0  0  0  0  0  0
   -4.1289  -13.1998   11.0066 H   0  0  0  0  0  0  0  0  0  0  0  0
   -2.5507  -14.0328   12.7455 H   0  0  0  0  0  0  0  0  0  0  0  0
   -0.1687  -13.2990   12.7343 H   0  0  0  0  0  0  0  0  0  0  0  0
    0.6355  -11.7257   10.9736 H   0  0  0  0  0  0  0  0  0  0  0  0
   -0.9389  -10.8908    9.2324 H   0  0  0  0  0  0  0  0  0  0  0  0
   -7.1464   -8.3237    8.7438 H   0  0  0  0  0  0  0  0  0  0  0  0
   -5.0987   -7.6215    9.8760 H   0  0  0  0  0  0  0  0  0  0  0  0
   -6.4446   -7.6006   11.0813 H   0  0  0  0  0  0  0  0  0  0  0  0
   -4.1630   -9.1640   10.9600 H   0  0  0  0  0  0  0  0  0  0  0  0
   -7.4561  -10.3487   10.9723 H   0  0  0  0  0  0  0  0  0  0  0  0
   -8.7740   -7.9820   10.1630 H   0  0  0  0  0  0  0  0  0  0  0  0
   -9.0949   -9.8300    8.3906 H   0  0  0  0  0  0  0  0  0  0  0  0
  -10.5050  -11.2080    9.3390 H   0  0  0  0  0  0  0  0  0  0  0  0
  1  2  1  0
  2  3  1  0
  3  4  1  0
  4  5  2  0
  4  6  1  0
  6  7  1  0
  7  8  1  0
  8  9  2  0
  9 10  1  0
 10 11  1  0
 11 12  2  0
 11 13  1  0
 13 14  1  0
 14 15  2  0
 15 16  1  0
 16 17  2  0
 17 18  1  0
 18 19  2  0
  8 20  1  0
 20 21  1  0
 21 22  1  0
 22 23  1  0
 21 24  1  0
 24 25  1  0
 24 26  1  0
 26 27  1  0
 26  7  1  0
 19 14  1  0
  1 28  1  0
  1 29  1  0
  1 30  1  0
  2 31  1  0
  2 32  1  0
  3 33  1  0
  3 34  1  0
  6 35  1  0
  7 36  1  1
 13 37  1  0
 15 38  1  0
 16 39  1  0
 17 40  1  0
 18 41  1  0
 19 42  1  0
 21 43  1  6
 22 44  1  0
 22 45  1  0
 23 46  1  0
 24 47  1  1
 25 48  1  0
 26 49  1  6
 27 50  1  0
M  END
>  <meeko>  (4) 
{"is_sidechain": [false], "free_energy": -7.37, "intermolecular_energy": -11.147, "internal_energy": -1.033}

$$$$
2wca_ligand
     RDKit          3D

 50 51  0  0  0  0  0  0  0  0999 V2000
   -2.2610  -15.8250   12.6500 C   0  0  0  0  0  0  0  0  0  0  0  0
   -2.5300  -15.1460   11.3170 C   0  0  0  0  0  0  0  0  0  0  0  0
   -1.4870  -14.0740   11.0140 C   0  0  0  0  0  0  0  0  0  0  0  0
   -2.1070  -12.8210   10.4260 C   0  0  0  0  0  0  0  0  0  0  0  0
   -1.4740  -11.9390    9.8580 O   0  0  0  0  0  0  0  0  0  0  0  0
   -3.4670  -12.7500   10.6150 N   0  0  0  0  0  0  0  0  0  0  0  0
   -4.3230  -11.7420    9.9600 C   0  0  1  0  0  0  0  0  0  0  0  0
   -5.6390  -12.4500    9.6420 C   0  0  0  0  0  0  0  0  0  0  0  0
   -5.6070  -13.6990    9.2870 N   0  0  0  0  0  0  0  0  0  0  0  0
   -6.9030  -14.1710    9.0010 O   0  0  0  0  0  0  0  0  0  0  0  0
   -7.2860  -13.8010    7.7320 C   0  0  0  0  0  0  0  0  0  0  0  0
   -6.5970  -13.9420    6.7290 O   0  0  0  0  0  0  0  0  0  0  0  0
   -8.5510  -13.2740    7.8050 N   0  0  0  0  0  0  0  0  0  0  0  0
   -9.3500  -12.7680    6.7650 C   0  0  0  0  0  0  0  0  0  0  0  0
  -10.1450  -13.5620    5.9360 C   0  0  0  0  0  0  0  0  0  0  0  0
  -10.9130  -12.9800    4.9220 C   0  0  0  0  0  0  0  0  0  0  0  0
  -10.8910  -11.6010    4.7290 C   0  0  0  0  0  0  0  0  0  0  0  0
  -10.1000  -10.8010    5.5490 C   0  0  0  0  0  0  0  0  0  0  0  0
   -9.3330  -11.3820    6.5620 C   0  0  0  0  0  0  0  0  0  0  0  0
   -6.7980  -11.7730    9.6690 O   0  0  0  0  0  0  0  0  0  0  0  0
   -6.9500  -10.5720   10.4550 C   0  0  2  0  0  0  0  0  0  0  0  0
   -8.2170   -9.8500    9.9760 C   0  0  0  0  0  0  0  0  0  0  0  0
   -8.6780   -8.9220   10.9620 O   0  0  0  0  0  0  0  0  0  0  0  0
   -5.7270   -9.6800   10.3370 C   0  0  1  0  0  0  0  0  0  0  0  0
   -5.8630   -8.5180   11.1580 O   0  0  0  0  0  0  0  0  0  0  0  0
   -4.4950  -10.4640   10.7870 C   0  0  2  0  0  0  0  0  0  0  0  0
   -3.3900   -9.5550   10.6270 O   0  0  0  0  0  0  0  0  0  0  0  0
   -2.5311  -15.1432   13.4699 H   0  0  0  0  0  0  0  0  0  0  0  0
   -2.8636  -16.7424   12.7224 H   0  0  0  0  0  0  0  0  0  0  0  0
   -1.1936  -16.0808   12.7224 H   0  0  0  0  0  0  0  0  0  0  0  0
   -2.5065  -15.9030   10.5192 H   0  0  0  0  0  0  0  0  0  0  0  0
   -3.5165  -14.6622   11.3693 H   0  0  0  0  0  0  0  0  0  0  0  0
   -0.9702  -13.8086   11.9481 H   0  0  0  0  0  0  0  0  0  0  0  0
   -0.7868  -14.4845   10.2716 H   0  0  0  0  0  0  0  0  0  0  0  0
   -3.9390  -13.6260   10.8430 H   0  0  0  0  0  0  0  0  0  0  0  0
   -3.8545  -11.3703    9.0368 H   0  0  0  0  0  0  0  0  0  0  0  0
   -8.9330  -13.2580    8.7400 H   0  0  0  0  0  0  0  0  0  0  0  0
  -10.1675  -14.6521    6.0812 H   0  0  0  0  0  0  0  0  0  0  0  0
  -11.5367  -13.6140    4.2746 H   0  0  0  0  0  0  0  0  0  0  0  0
  -11.4964  -11.1455    3.9315 H   0  0  0  0  0  0  0  0  0  0  0  0
  -10.0789   -9.7114    5.3994 H   0  0  0  0  0  0  0  0  0  0  0  0
   -8.7096  -10.7448    7.2065 H   0  0  0  0  0  0  0  0  0  0  0  0
   -7.0473  -10.8294   11.5200 H   0  0  0  0  0  0  0  0  0  0  0  0
   -7.9923   -9.3063    9.0465 H   0  0  0  0  0  0  0  0  0  0  0  0
   -9.0041  -10.5985    9.8019 H   0  0  0  0  0  0  0  0  0  0  0  0
   -8.2090   -8.0840   10.8140 H   0  0  0  0  0  0  0  0  0  0  0  0
   -5.6225   -9.3617    9.2892 H   0  0  0  0  0  0  0  0  0  0  0  0
   -5.8980   -8.8630   12.0760 H   0  0  0  0  0  0  0  0  0  0  0  0
   -4.5761  -10.8060   11.8293 H   0  0  0  0  0  0  0  0  0  0  0  0
   -3.2280   -9.4680    9.6580 H   0  0  0  0  0  0  0  0  0  0  0  0
  1  2  1  0
  2  3  1  0
  3  4  1  0
  4  5  2  0
  4  6  1  0
  6  7  1  0
  7  8  1  0
  8  9  2  0
  9 10  1  0
 10 11  1  0
 11 12  2  0
 11 13  1  0
 13 14  1  0
 14 15  2  0
 15 16  1  0
 16 17  2  0
 17 18  1  0
 18 19  2  0
  8 20  1  0
 20 21  1  0
 21 22  1  0
 22 23  1  0
 21 24  1  0
 24 25  1  0
 24 26  1  0
 26 27  1  0
 26  7  1  0
 19 14  1  0
  1 28  1  0
  1 29  1  0
  1 30  1  0
  2 31  1  0
  2 32  1  0
  3 33  1  0
  3 34  1  0
  6 35  1  0
  7 36  1  6
 13 37  1  0
 15 38  1  0
 16 39  1  0
 17 40  1  0
 18 41  1  0
 19 42  1  0
 21 43  1  1
 22 44  1  0
 22 45  1  0
 23 46  1  0
 24 47  1  6
 25 48  1  0
 26 49  1  1
 27 50  1  0
M  END
>  <meeko>  (5) 
{"is_sidechain": [false], "free_energy": -7.353, "intermolecular_energy": -10.94, "internal_energy": -1.215}

$$$$
2wca_ligand
     RDKit          3D

 50 51  0  0  0  0  0  0  0  0999 V2000
  -11.2570  -11.9180    4.3510 C   0  0  0  0  0  0  0  0  0  0  0  0
  -10.1700  -12.0900    5.3990 C   0  0  0  0  0  0  0  0  0  0  0  0
   -9.7790  -10.7530    6.0240 C   0  0  0  0  0  0  0  0  0  0  0  0
   -8.6950  -10.9060    7.0720 C   0  0  0  0  0  0  0  0  0  0  0  0
   -7.4950  -10.7890    6.8480 O   0  0  0  0  0  0  0  0  0  0  0  0
   -9.1860  -11.2210    8.3180 N   0  0  0  0  0  0  0  0  0  0  0  0
   -8.3570  -11.2170    9.5380 C   0  0  1  0  0  0  0  0  0  0  0  0
   -7.3300  -12.3320    9.3530 C   0  0  0  0  0  0  0  0  0  0  0  0
   -7.6890  -13.4180    8.7380 N   0  0  0  0  0  0  0  0  0  0  0  0
   -6.6260  -14.3420    8.6930 O   0  0  0  0  0  0  0  0  0  0  0  0
   -6.2050  -14.5350    7.3970 C   0  0  0  0  0  0  0  0  0  0  0  0
   -6.8740  -14.2800    6.4030 O   0  0  0  0  0  0  0  0  0  0  0  0
   -4.9280  -15.0380    7.4330 N   0  0  0  0  0  0  0  0  0  0  0  0
   -4.0930  -15.3850    6.3580 C   0  0  0  0  0  0  0  0  0  0  0  0
   -4.0290  -16.6650    5.8020 C   0  0  0  0  0  0  0  0  0  0  0  0
   -3.1700  -16.9290    4.7310 C   0  0  0  0  0  0  0  0  0  0  0  0
   -2.3690  -15.9180    4.2070 C   0  0  0  0  0  0  0  0  0  0  0  0
   -2.4250  -14.6390    4.7540 C   0  0  0  0  0  0  0  0  0  0  0  0
   -3.2830  -14.3740    5.8250 C   0  0  0  0  0  0  0  0  0  0  0  0
   -6.0970  -12.2130    9.8740 O   0  0  0  0  0  0  0  0  0  0  0  0
   -5.5210  -10.9200   10.1540 C   0  0  2  0  0  0  0  0  0  0  0  0
   -4.3100  -11.1310   11.0740 C   0  0  0  0  0  0  0  0  0  0  0  0
   -4.6500  -10.8460   12.4340 O   0  0  0  0  0  0  0  0  0  0  0  0
   -6.5400   -9.9880   10.7840 C   0  0  1  0  0  0  0  0  0  0  0  0
   -5.9760   -8.6940   11.0110 O   0  0  0  0  0  0  0  0  0  0  0  0
   -7.7360   -9.8510    9.8440 C   0  0  2  0  0  0  0  0  0  0  0  0
   -8.6520   -8.9720   10.5230 O   0  0  0  0  0  0  0  0  0  0  0  0
  -12.2257  -11.7647    4.8492 H   0  0  0  0  0  0  0  0  0  0  0  0
  -11.0257  -11.0453    3.7226 H   0  0  0  0  0  0  0  0  0  0  0  0
  -11.3064  -12.8195    3.7226 H   0  0  0  0  0  0  0  0  0  0  0  0
  -10.5386  -12.7600    6.1897 H   0  0  0  0  0  0  0  0  0  0  0  0
   -9.2817  -12.5147    4.9085 H   0  0  0  0  0  0  0  0  0  0  0  0
   -9.4129  -10.0847    5.2307 H   0  0  0  0  0  0  0  0  0  0  0  0
  -10.6699  -10.3378    6.5179 H   0  0  0  0  0  0  0  0  0  0  0  0
  -10.1760  -11.0310    8.4740 H   0  0  0  0  0  0  0  0  0  0  0  0
   -8.9720  -11.4067   10.4301 H   0  0  0  0  0  0  0  0  0  0  0  0
   -4.5680  -15.1670    8.3680 H   0  0  0  0  0  0  0  0  0  0  0  0
   -4.6583  -17.4700    6.2093 H   0  0  0  0  0  0  0  0  0  0  0  0
   -3.1268  -17.9403    4.3003 H   0  0  0  0  0  0  0  0  0  0  0  0
   -1.6945  -16.1290    3.3641 H   0  0  0  0  0  0  0  0  0  0  0  0
   -1.7940  -13.8370    4.3433 H   0  0  0  0  0  0  0  0  0  0  0  0
   -3.3226  -13.3617    6.2535 H   0  0  0  0  0  0  0  0  0  0  0  0
   -5.1992  -10.4410    9.2175 H   0  0  0  0  0  0  0  0  0  0  0  0
   -3.9763  -12.1763   10.9971 H   0  0  0  0  0  0  0  0  0  0  0  0
   -3.5060  -10.4487   10.7609 H   0  0  0  0  0  0  0  0  0  0  0  0
   -5.0190   -9.9470   12.4600 H   0  0  0  0  0  0  0  0  0  0  0  0
   -6.8534  -10.4100   11.7503 H   0  0  0  0  0  0  0  0  0  0  0  0
   -5.5560   -8.4510   10.1580 H   0  0  0  0  0  0  0  0  0  0  0  0
   -7.4503   -9.4411    8.8640 H   0  0  0  0  0  0  0  0  0  0  0  0
   -9.5630   -9.2760   10.2950 H   0  0  0  0  0  0  0  0  0  0  0  0
  1  2  1  0
  2  3  1  0
  3  4  1  0
  4  5  2  0
  4  6  1  0
  6  7  1  0
  7  8  1  0
  8  9  2  0
  9 10  1  0
 10 11  1  0
 11 12  2  0
 11 13  1  0
 13 14  1  0
 14 15  2  0
 15 16  1  0
 16 17  2  0
 17 18  1  0
 18 19  2  0
  8 20  1  0
 20 21  1  0
 21 22  1  0
 22 23  1  0
 21 24  1  0
 24 25  1  0
 24 26  1  0
 26 27  1  0
 26  7  1  0
 19 14  1  0
  1 28  1  0
  1 29  1  0
  1 30  1  0
  2 31  1  0
  2 32  1  0
  3 33  1  0
  3 34  1  0
  6 35  1  0
  7 36  1  1
 13 37  1  0
 15 38  1  0
 16 39  1  0
 17 40  1  0
 18 41  1  0
 19 42  1  0
 21 43  1  6
 22 44  1  0
 22 45  1  0
 23 46  1  0
 24 47  1  1
 25 48  1  0
 26 49  1  6
 27 50  1  0
M  END
>  <meeko>  (6) 
{"is_sidechain": [false], "free_energy": -7.235, "intermolecular_energy": -11.486, "internal_energy": -0.492}

$$$$
2wca_ligand
     RDKit          3D

 50 51  0  0  0  0  0  0  0  0999 V2000
   -8.2230   -9.7670    9.8760 C   0  0  0  0  0  0  0  0  0  0  0  0
   -7.5760   -8.7340   10.7850 C   0  0  0  0  0  0  0  0  0  0  0  0
   -6.3440   -8.1110   10.1350 C   0  0  0  0  0  0  0  0  0  0  0  0
   -5.1180   -8.9940   10.2660 C   0  0  0  0  0  0  0  0  0  0  0  0
   -4.4010   -9.0350   11.2600 O   0  0  0  0  0  0  0  0  0  0  0  0
   -4.8630   -9.7390    9.1400 N   0  0  0  0  0  0  0  0  0  0  0  0
   -3.8600  -10.8200    9.0950 C   0  0  1  0  0  0  0  0  0  0  0  0
   -4.6400  -12.1060    8.8230 C   0  0  0  0  0  0  0  0  0  0  0  0
   -5.8180  -12.2470    9.3490 N   0  0  0  0  0  0  0  0  0  0  0  0
   -6.3670  -13.5010    9.0190 O   0  0  0  0  0  0  0  0  0  0  0  0
   -7.6710  -13.3660    8.5980 C   0  0  0  0  0  0  0  0  0  0  0  0
   -8.6520  -13.6610    9.2700 O   0  0  0  0  0  0  0  0  0  0  0  0
   -7.6580  -12.8420    7.3300 N   0  0  0  0  0  0  0  0  0  0  0  0
   -8.7480  -12.5280    6.5010 C   0  0  0  0  0  0  0  0  0  0  0  0
   -9.5020  -13.4800    5.8110 C   0  0  0  0  0  0  0  0  0  0  0  0
  -10.5740  -13.0850    5.0050 C   0  0  0  0  0  0  0  0  0  0  0  0
  -10.9010  -11.7380    4.8820 C   0  0  0  0  0  0  0  0  0  0  0  0
  -10.1550  -10.7810    5.5650 C   0  0  0  0  0  0  0  0  0  0  0  0
   -9.0840  -11.1740    6.3700 C   0  0  0  0  0  0  0  0  0  0  0  0
   -4.0860  -13.0950    8.1030 O   0  0  0  0  0  0  0  0  0  0  0  0
   -3.0250  -12.8360    7.1580 C   0  0  2  0  0  0  0  0  0  0  0  0
   -2.3680  -14.1780    6.8060 C   0  0  0  0  0  0  0  0  0  0  0  0
   -1.2020  -14.3990    7.6050 O   0  0  0  0  0  0  0  0  0  0  0  0
   -2.0140  -11.8550    7.7240 C   0  0  1  0  0  0  0  0  0  0  0  0
   -0.9950  -11.5640    6.7630 O   0  0  0  0  0  0  0  0  0  0  0  0
   -2.7320  -10.5590    8.0930 C   0  0  2  0  0  0  0  0  0  0  0  0
   -1.7090   -9.7000    8.6310 O   0  0  0  0  0  0  0  0  0  0  0  0
   -8.7081  -10.5415   10.4882 H   0  0  0  0  0  0  0  0  0  0  0  0
   -8.9756   -9.2766    9.2411 H   0  0  0  0  0  0  0  0  0  0  0  0
   -7.4533  -10.2301    9.2411 H   0  0  0  0  0  0  0  0  0  0  0  0
   -8.3063   -7.9402   11.0008 H   0  0  0  0  0  0  0  0  0  0  0  0
   -7.2606   -9.2378   11.7106 H   0  0  0  0  0  0  0  0  0  0  0  0
   -6.5510   -7.9487    9.0669 H   0  0  0  0  0  0  0  0  0  0  0  0
   -6.1334   -7.1626   10.6510 H   0  0  0  0  0  0  0  0  0  0  0  0
   -5.6400   -9.8510    8.4870 H   0  0  0  0  0  0  0  0  0  0  0  0
   -3.3197  -10.8936   10.0503 H   0  0  0  0  0  0  0  0  0  0  0  0
   -6.7290  -12.6720    6.9690 H   0  0  0  0  0  0  0  0  0  0  0  0
   -9.2509  -14.5471    5.9023 H   0  0  0  0  0  0  0  0  0  0  0  0
  -11.1616  -13.8425    4.4656 H   0  0  0  0  0  0  0  0  0  0  0  0
  -11.7455  -11.4305    4.2477 H   0  0  0  0  0  0  0  0  0  0  0  0
  -10.4095   -9.7150    5.4703 H   0  0  0  0  0  0  0  0  0  0  0  0
   -8.4982  -10.4132    6.9067 H   0  0  0  0  0  0  0  0  0  0  0  0
   -3.4345  -12.3717    6.2487 H   0  0  0  0  0  0  0  0  0  0  0  0
   -3.0878  -14.9900    6.9864 H   0  0  0  0  0  0  0  0  0  0  0  0
   -2.0706  -14.1575    5.7472 H   0  0  0  0  0  0  0  0  0  0  0  0
   -0.5290  -13.7590    7.3200 H   0  0  0  0  0  0  0  0  0  0  0  0
   -1.5452  -12.3041    8.6120 H   0  0  0  0  0  0  0  0  0  0  0  0
   -0.9050  -12.3880    6.2370 H   0  0  0  0  0  0  0  0  0  0  0  0
   -3.2218  -10.0926    7.2255 H   0  0  0  0  0  0  0  0  0  0  0  0
   -0.8420  -10.1160    8.4130 H   0  0  0  0  0  0  0  0  0  0  0  0
  1  2  1  0
  2  3  1  0
  3  4  1  0
  4  5  2  0
  4  6  1  0
  6  7  1  0
  7  8  1  0
  8  9  2  0
  9 10  1  0
 10 11  1  0
 11 12  2  0
 11 13  1  0
 13 14  1  0
 14 15  2  0
 15 16  1  0
 16 17  2  0
 17 18  1  0
 18 19  2  0
  8 20  1  0
 20 21  1  0
 21 22  1  0
 22 23  1  0
 21 24  1  0
 24 25  1  0
 24 26  1  0
 26 27  1  0
 26  7  1  0
 19 14  1  0
  1 28  1  0
  1 29  1  0
  1 30  1  0
  2 31  1  0
  2 32  1  0
  3 33  1  0
  3 34  1  0
  6 35  1  0
  7 36  1  1
 13 37  1  0
 15 38  1  0
 16 39  1  0
 17 40  1  0
 18 41  1  0
 19 42  1  0
 21 43  1  6
 22 44  1  0
 22 45  1  0
 23 46  1  0
 24 47  1  1
 25 48  1  0
 26 49  1  6
 27 50  1  0
M  END
>  <meeko>  (7) 
{"is_sidechain": [false], "free_energy": -7.207, "intermolecular_energy": -10.62, "internal_energy": -1.317}

$$$$
2wca_ligand
     RDKit          3D

 50 51  0  0  0  0  0  0  0  0999 V2000
   -5.5520  -15.7210    5.3310 C   0  0  0  0  0  0  0  0  0  0  0  0
   -5.1450  -16.7790    6.3450 C   0  0  0  0  0  0  0  0  0  0  0  0
   -5.3280  -16.2820    7.7760 C   0  0  0  0  0  0  0  0  0  0  0  0
   -4.3260  -15.2040    8.1400 C   0  0  0  0  0  0  0  0  0  0  0  0
   -3.1970  -15.1240    7.6690 O   0  0  0  0  0  0  0  0  0  0  0  0
   -4.7970  -14.3230    9.0840 N   0  0  0  0  0  0  0  0  0  0  0  0
   -4.0980  -13.0750    9.4470 C   0  0  1  0  0  0  0  0  0  0  0  0
   -5.1900  -12.0700    9.8090 C   0  0  0  0  0  0  0  0  0  0  0  0
   -6.3080  -12.0960    9.1480 N   0  0  0  0  0  0  0  0  0  0  0  0
   -7.1770  -11.0810    9.5950 O   0  0  0  0  0  0  0  0  0  0  0  0
   -8.3780  -11.1400    8.9260 C   0  0  0  0  0  0  0  0  0  0  0  0
   -9.4500  -10.7710    9.3900 O   0  0  0  0  0  0  0  0  0  0  0  0
   -8.1470  -11.6630    7.6780 N   0  0  0  0  0  0  0  0  0  0  0  0
   -9.0690  -11.9060    6.6460 C   0  0  0  0  0  0  0  0  0  0  0  0
   -9.7760  -10.9030    5.9810 C   0  0  0  0  0  0  0  0  0  0  0  0
  -10.6770  -11.2290    4.9620 C   0  0  0  0  0  0  0  0  0  0  0  0
  -10.8790  -12.5590    4.6020 C   0  0  0  0  0  0  0  0  0  0  0  0
  -10.1790  -13.5660    5.2600 C   0  0  0  0  0  0  0  0  0  0  0  0
   -9.2790  -13.2420    6.2780 C   0  0  0  0  0  0  0  0  0  0  0  0
   -4.9700  -11.1390   10.7510 O   0  0  0  0  0  0  0  0  0  0  0  0
   -3.9800  -11.3320   11.7840 C   0  0  2  0  0  0  0  0  0  0  0  0
   -3.7080   -9.9710   12.4390 C   0  0  0  0  0  0  0  0  0  0  0  0
   -3.5410  -10.1120   13.8530 O   0  0  0  0  0  0  0  0  0  0  0  0
   -2.7080  -11.9390   11.2180 C   0  0  1  0  0  0  0  0  0  0  0  0
   -1.7520  -12.1750   12.2550 O   0  0  0  0  0  0  0  0  0  0  0  0
   -3.0470  -13.2670   10.5450 C   0  0  2  0  0  0  0  0  0  0  0  0
   -1.7970  -13.7580   10.0270 O   0  0  0  0  0  0  0  0  0  0  0  0
   -5.8984  -14.8206    5.8595 H   0  0  0  0  0  0  0  0  0  0  0  0
   -4.6877  -15.4661    4.7001 H   0  0  0  0  0  0  0  0  0  0  0  0
   -6.3643  -16.1111    4.7001 H   0  0  0  0  0  0  0  0  0  0  0  0
   -5.7657  -17.6747    6.1956 H   0  0  0  0  0  0  0  0  0  0  0  0
   -4.0804  -17.0106    6.1936 H   0  0  0  0  0  0  0  0  0  0  0  0
   -6.3433  -15.8722    7.8816 H   0  0  0  0  0  0  0  0  0  0  0  0
   -5.1681  -17.1343    8.4527 H   0  0  0  0  0  0  0  0  0  0  0  0
   -5.8100  -14.2960    9.2120 H   0  0  0  0  0  0  0  0  0  0  0  0
   -3.4990  -12.7017    8.6033 H   0  0  0  0  0  0  0  0  0  0  0  0
   -7.1790  -11.8970    7.5080 H   0  0  0  0  0  0  0  0  0  0  0  0
   -9.6237   -9.8499    6.2599 H   0  0  0  0  0  0  0  0  0  0  0  0
  -11.2284  -10.4313    4.4427 H   0  0  0  0  0  0  0  0  0  0  0  0
  -11.5889  -12.8126    3.8009 H   0  0  0  0  0  0  0  0  0  0  0  0
  -10.3346  -14.6178    4.9782 H   0  0  0  0  0  0  0  0  0  0  0  0
   -8.7302  -14.0426    6.7955 H   0  0  0  0  0  0  0  0  0  0  0  0
   -4.3551  -12.0397   12.5379 H   0  0  0  0  0  0  0  0  0  0  0  0
   -2.7917   -9.5404   12.0088 H   0  0  0  0  0  0  0  0  0  0  0  0
   -4.5670   -9.3105   12.2495 H   0  0  0  0  0  0  0  0  0  0  0  0
   -2.7480   -9.6080   14.1040 H   0  0  0  0  0  0  0  0  0  0  0  0
   -2.2753  -11.2361   10.4909 H   0  0  0  0  0  0  0  0  0  0  0  0
   -2.2870  -12.4400   13.0330 H   0  0  0  0  0  0  0  0  0  0  0  0
   -3.4929  -13.9880   11.2460 H   0  0  0  0  0  0  0  0  0  0  0  0
   -1.0830  -13.2170   10.4390 H   0  0  0  0  0  0  0  0  0  0  0  0
  1  2  1  0
  2  3  1  0
  3  4  1  0
  4  5  2  0
  4  6  1  0
  6  7  1  0
  7  8  1  0
  8  9  2  0
  9 10  1  0
 10 11  1  0
 11 12  2  0
 11 13  1  0
 13 14  1  0
 14 15  2  0
 15 16  1  0
 16 17  2  0
 17 18  1  0
 18 19  2  0
  8 20  1  0
 20 21  1  0
 21 22  1  0
 22 23  1  0
 21 24  1  0
 24 25  1  0
 24 26  1  0
 26 27  1  0
 26  7  1  0
 19 14  1  0
  1 28  1  0
  1 29  1  0
  1 30  1  0
  2 31  1  0
  2 32  1  0
  3 33  1  0
  3 34  1  0
  6 35  1  0
  7 36  1  6
 13 37  1  0
 15 38  1  0
 16 39  1  0
 17 40  1  0
 18 41  1  0
 19 42  1  0
 21 43  1  1
 22 44  1  0
 22 45  1  0
 23 46  1  0
 24 47  1  6
 25 48  1  0
 26 49  1  1
 27 50  1  0
M  END
>  <meeko>  (8) 
{"is_sidechain": [false], "free_energy": -7.169, "intermolecular_energy": -10.594, "internal_energy": -1.285}

$$$$
2wca_ligand
     RDKit          3D

 50 51  0  0  0  0  0  0  0  0999 V2000
  -11.2550  -12.1070    4.3690 C   0  0  0  0  0  0  0  0  0  0  0  0
  -10.0470  -12.0230    5.2880 C   0  0  0  0  0  0  0  0  0  0  0  0
   -9.7510  -13.3680    5.9470 C   0  0  0  0  0  0  0  0  0  0  0  0
   -9.4960  -13.2320    7.4350 C   0  0  0  0  0  0  0  0  0  0  0  0
  -10.1550  -13.7950    8.3020 O   0  0  0  0  0  0  0  0  0  0  0  0
   -8.4560  -12.3830    7.7320 N   0  0  0  0  0  0  0  0  0  0  0  0
   -7.8830  -12.2490    9.0850 C   0  0  1  0  0  0  0  0  0  0  0  0
   -6.3960  -12.5740    8.9460 C   0  0  0  0  0  0  0  0  0  0  0  0
   -6.0330  -13.4930    8.1040 N   0  0  0  0  0  0  0  0  0  0  0  0
   -4.6360  -13.6780    8.1370 O   0  0  0  0  0  0  0  0  0  0  0  0
   -4.2910  -14.5950    9.1040 C   0  0  0  0  0  0  0  0  0  0  0  0
   -4.6220  -15.7740    9.0930 O   0  0  0  0  0  0  0  0  0  0  0  0
   -3.5190  -13.9560   10.0420 N   0  0  0  0  0  0  0  0  0  0  0  0
   -2.9350  -14.4880   11.2050 C   0  0  0  0  0  0  0  0  0  0  0  0
   -2.3800  -15.7660   11.2840 C   0  0  0  0  0  0  0  0  0  0  0  0
   -1.8170  -16.2210   12.4810 C   0  0  0  0  0  0  0  0  0  0  0  0
   -1.8060  -15.4030   13.6070 C   0  0  0  0  0  0  0  0  0  0  0  0
   -2.3570  -14.1260   13.5380 C   0  0  0  0  0  0  0  0  0  0  0  0
   -2.9200  -13.6710   12.3430 C   0  0  0  0  0  0  0  0  0  0  0  0
   -5.4920  -11.9600    9.7270 O   0  0  0  0  0  0  0  0  0  0  0  0
   -5.7620  -10.6740   10.3240 C   0  0  2  0  0  0  0  0  0  0  0  0
   -4.7270  -10.4410   11.4330 C   0  0  0  0  0  0  0  0  0  0  0  0
   -4.5240   -9.0420   11.6540 O   0  0  0  0  0  0  0  0  0  0  0  0
   -7.1790  -10.6060   10.8650 C   0  0  1  0  0  0  0  0  0  0  0  0
   -7.4550   -9.3130   11.4080 O   0  0  0  0  0  0  0  0  0  0  0  0
   -8.1590  -10.8860    9.7280 C   0  0  2  0  0  0  0  0  0  0  0  0
   -9.4650  -10.8190   10.3290 O   0  0  0  0  0  0  0  0  0  0  0  0
  -12.1718  -12.1708    4.9735 H   0  0  0  0  0  0  0  0  0  0  0  0
  -11.2960  -11.2095    3.7343 H   0  0  0  0  0  0  0  0  0  0  0  0
  -11.1713  -13.0015    3.7343 H   0  0  0  0  0  0  0  0  0  0  0  0
   -9.1710  -11.7128    4.6995 H   0  0  0  0  0  0  0  0  0  0  0  0
  -10.2658  -11.2913    6.0797 H   0  0  0  0  0  0  0  0  0  0  0  0
  -10.6127  -14.0346    5.7946 H   0  0  0  0  0  0  0  0  0  0  0  0
   -8.8412  -13.7782    5.4843 H   0  0  0  0  0  0  0  0  0  0  0  0
   -7.8050  -12.1820    6.9720 H   0  0  0  0  0  0  0  0  0  0  0  0
   -8.3646  -12.9470    9.7856 H   0  0  0  0  0  0  0  0  0  0  0  0
   -3.3680  -12.9760    9.8470 H   0  0  0  0  0  0  0  0  0  0  0  0
   -2.3853  -16.4197   10.3993 H   0  0  0  0  0  0  0  0  0  0  0  0
   -1.3811  -17.2296   12.5326 H   0  0  0  0  0  0  0  0  0  0  0  0
   -1.3639  -15.7637   14.5474 H   0  0  0  0  0  0  0  0  0  0  0  0
   -2.3490  -13.4752   14.4248 H   0  0  0  0  0  0  0  0  0  0  0  0
   -3.3555  -12.6620   12.2952 H   0  0  0  0  0  0  0  0  0  0  0  0
   -5.6801   -9.8819    9.5651 H   0  0  0  0  0  0  0  0  0  0  0  0
   -5.0855  -10.9047   12.3638 H   0  0  0  0  0  0  0  0  0  0  0  0
   -3.7721  -10.8909   11.1237 H   0  0  0  0  0  0  0  0  0  0  0  0
   -4.7720   -8.8540   12.5740 H   0  0  0  0  0  0  0  0  0  0  0  0
   -7.2879  -11.3549   11.6633 H   0  0  0  0  0  0  0  0  0  0  0  0
   -7.8110   -8.7960   10.6550 H   0  0  0  0  0  0  0  0  0  0  0  0
   -8.0647  -10.1581    8.9087 H   0  0  0  0  0  0  0  0  0  0  0  0
  -10.0210  -11.5030    9.8850 H   0  0  0  0  0  0  0  0  0  0  0  0
  1  2  1  0
  2  3  1  0
  3  4  1  0
  4  5  2  0
  4  6  1  0
  6  7  1  0
  7  8  1  0
  8  9  2  0
  9 10  1  0
 10 11  1  0
 11 12  2  0
 11 13  1  0
 13 14  1  0
 14 15  2  0
 15 16  1  0
 16 17  2  0
 17 18  1  0
 18 19  2  0
  8 20  1  0
 20 21  1  0
 21 22  1  0
 22 23  1  0
 21 24  1  0
 24 25  1  0
 24 26  1  0
 26 27  1  0
 26  7  1  0
 19 14  1  0
  1 28  1  0
  1 29  1  0
  1 30  1  0
  2 31  1  0
  2 32  1  0
  3 33  1  0
  3 34  1  0
  6 35  1  0
  7 36  1  1
 13 37  1  0
 15 38  1  0
 16 39  1  0
 17 40  1  0
 18 41  1  0
 19 42  1  0
 21 43  1  6
 22 44  1  0
 22 45  1  0
 23 46  1  0
 24 47  1  1
 25 48  1  0
 26 49  1  6
 27 50  1  0
M  END
>  <meeko>  (9) 
{"is_sidechain": [false], "free_energy": -7.111, "intermolecular_energy": -10.954, "internal_energy": -0.839}

$$$$
