1s38_ligand
     RDKit          3D

 22 23  0  0  0  0  0  0  0  0999 V2000
   14.9580   16.1640   19.2500 C   0  0  0  0  0  0  0  0  0  0  0  0
   16.2650   16.6430   19.8190 C   0  0  0  0  0  0  0  0  0  0  0  0
   17.3490   16.9040   18.9630 C   0  0  0  0  0  0  0  0  0  0  0  0
   18.5700   17.3510   19.4700 C   0  0  0  0  0  0  0  0  0  0  0  0
   18.7220   17.5440   20.8410 C   0  0  0  0  0  0  0  0  0  0  0  0
   17.6440   17.2840   21.6920 C   0  0  0  0  0  0  0  0  0  0  0  0
   17.7700   17.4790   23.1460 C   0  0  0  0  0  0  0  0  0  0  0  0
   18.8010   17.8920   23.6650 O   0  0  0  0  0  0  0  0  0  0  0  0
   16.6550   17.1700   23.8830 N   0  0  0  0  0  0  0  0  0  0  0  0
   15.4840   16.7490   23.3340 C   0  0  0  0  0  0  0  0  0  0  0  0
   14.4640   16.5040   24.1930 N   0  0  0  0  0  0  0  0  0  0  0  0
   15.3250   16.5740   22.0630 N   0  0  0  0  0  0  0  0  0  0  0  0
   16.4120   16.8340   21.2050 C   0  0  0  0  0  0  0  0  0  0  0  0
   14.2709   15.9122   20.0713 H   0  0  0  0  0  0  0  0  0  0  0  0
   14.5145   16.9580   18.6313 H   0  0  0  0  0  0  0  0  0  0  0  0
   15.1326   15.2714   18.6313 H   0  0  0  0  0  0  0  0  0  0  0  0
   17.2334   16.7540   17.8794 H   0  0  0  0  0  0  0  0  0  0  0  0
   19.4102   17.5504   18.7886 H   0  0  0  0  0  0  0  0  0  0  0  0
   19.6802   17.8973   21.2497 H   0  0  0  0  0  0  0  0  0  0  0  0
   16.7160   17.3480   24.8710 H   0  0  0  0  0  0  0  0  0  0  0  0
   13.6260   16.2190   23.6960 H   0  0  0  0  0  0  0  0  0  0  0  0
   14.6770   15.8940   24.9700 H   0  0  0  0  0  0  0  0  0  0  0  0
  1  2  1  0
  2  3  2  0
  3  4  1  0
  4  5  2  0
  5  6  1  0
  6  7  1  0
  7  8  2  0
  7  9  1  0
  9 10  1  0
 10 11  1  0
 10 12  2  0
 12 13  1  0
 13  2  1  0
 13  6  2  0
  1 14  1  0
  1 15  1  0
  1 16  1  0
  3 17  1  0
  4 18  1  0
  5 19  1  0
  9 20  1  0
 11 21  1  0
 11 22  1  0
M  END
>  <meeko>  (1) 
{"is_sidechain": [false], "free_energy": -8.143, "intermolecular_energy": -8.381, "internal_energy": 0.0}

$$$$
1s38_ligand
     RDKit          3D

 22 23  0  0  0  0  0  0  0  0999 V2000
   14.8030   15.9590   19.1830 C   0  0  0  0  0  0  0  0  0  0  0  0
   16.0560   16.5590   19.7570 C   0  0  0  0  0  0  0  0  0  0  0  0
   17.0980   16.9590   18.9030 C   0  0  0  0  0  0  0  0  0  0  0  0
   18.2690   17.5210   19.4160 C   0  0  0  0  0  0  0  0  0  0  0  0
   18.4120   17.6900   20.7900 C   0  0  0  0  0  0  0  0  0  0  0  0
   17.3760   17.2910   21.6400 C   0  0  0  0  0  0  0  0  0  0  0  0
   17.4930   17.4580   23.0980 C   0  0  0  0  0  0  0  0  0  0  0  0
   18.4780   17.9650   23.6230 O   0  0  0  0  0  0  0  0  0  0  0  0
   16.4250   17.0100   23.8330 N   0  0  0  0  0  0  0  0  0  0  0  0
   15.3000   16.4820   23.2790 C   0  0  0  0  0  0  0  0  0  0  0  0
   14.3200   16.1040   24.1360 N   0  0  0  0  0  0  0  0  0  0  0  0
   15.1500   16.3260   22.0040 N   0  0  0  0  0  0  0  0  0  0  0  0
   16.1940   16.7260   21.1480 C   0  0  0  0  0  0  0  0  0  0  0  0
   14.1402   15.6416   20.0015 H   0  0  0  0  0  0  0  0  0  0  0  0
   14.2880   16.7082   18.5637 H   0  0  0  0  0  0  0  0  0  0  0  0
   15.0638   15.0881   18.5637 H   0  0  0  0  0  0  0  0  0  0  0  0
   16.9898   16.8277   17.8162 H   0  0  0  0  0  0  0  0  0  0  0  0
   19.0765   17.8294   18.7357 H   0  0  0  0  0  0  0  0  0  0  0  0
   19.3304   18.1328   21.2029 H   0  0  0  0  0  0  0  0  0  0  0  0
   16.4750   17.1660   24.8260 H   0  0  0  0  0  0  0  0  0  0  0  0
   14.7020   15.8490   25.0420 H   0  0  0  0  0  0  0  0  0  0  0  0
   13.5340   16.7360   24.2150 H   0  0  0  0  0  0  0  0  0  0  0  0
  1  2  1  0
  2  3  2  0
  3  4  1  0
  4  5  2  0
  5  6  1  0
  6  7  1  0
  7  8  2  0
  7  9  1  0
  9 10  1  0
 10 11  1  0
 10 12  2  0
 12 13  1  0
 13  2  1  0
 13  6  2  0
  1 14  1  0
  1 15  1  0
  1 16  1  0
  3 17  1  0
  4 18  1  0
  5 19  1  0
  9 20  1  0
 11 21  1  0
 11 22  1  0
M  END
>  <meeko>  (2) 
{"is_sidechain": [false], "free_energy": -6.968, "intermolecular_energy": -7.172, "internal_energy": 0.0}

$$$$
1s38_ligand
     RDKit          3D

 22 23  0  0  0  0  0  0  0  0999 V2000
   15.2610   16.6190   23.3780 C   0  0  0  0  0  0  0  0  0  0  0  0
   16.4130   16.9700   22.4780 C   0  0  0  0  0  0  0  0  0  0  0  0
   17.6080   17.4640   23.0280 C   0  0  0  0  0  0  0  0  0  0  0  0
   18.6910   17.7930   22.2100 C   0  0  0  0  0  0  0  0  0  0  0  0
   18.5920   17.6320   20.8310 C   0  0  0  0  0  0  0  0  0  0  0  0
   17.4020   17.1410   20.2840 C   0  0  0  0  0  0  0  0  0  0  0  0
   17.2640   16.9560   18.8300 C   0  0  0  0  0  0  0  0  0  0  0  0
   18.1770   17.1990   18.0480 O   0  0  0  0  0  0  0  0  0  0  0  0
   16.0460   16.4900   18.4050 N   0  0  0  0  0  0  0  0  0  0  0  0
   15.0280   16.1720   19.2490 C   0  0  0  0  0  0  0  0  0  0  0  0
   13.8910   15.7020   18.6800 N   0  0  0  0  0  0  0  0  0  0  0  0
   15.1080   16.3090   20.5330 N   0  0  0  0  0  0  0  0  0  0  0  0
   16.3050   16.8050   21.0850 C   0  0  0  0  0  0  0  0  0  0  0  0
   15.5739   16.7143   24.4282 H   0  0  0  0  0  0  0  0  0  0  0  0
   14.4213   17.3021   23.1821 H   0  0  0  0  0  0  0  0  0  0  0  0
   14.9449   15.5838   23.1821 H   0  0  0  0  0  0  0  0  0  0  0  0
   17.6915   17.5933   24.1172 H   0  0  0  0  0  0  0  0  0  0  0  0
   19.6204   18.1786   22.6546 H   0  0  0  0  0  0  0  0  0  0  0  0
   19.4400   17.8880   20.1788 H   0  0  0  0  0  0  0  0  0  0  0  0
   15.9600   16.3130   17.4190 H   0  0  0  0  0  0  0  0  0  0  0  0
   13.8660   14.6870   18.6910 H   0  0  0  0  0  0  0  0  0  0  0  0
   13.0280   16.1110   19.0120 H   0  0  0  0  0  0  0  0  0  0  0  0
  1  2  1  0
  2  3  2  0
  3  4  1  0
  4  5  2  0
  5  6  1  0
  6  7  1  0
  7  8  2  0
  7  9  1  0
  9 10  1  0
 10 11  1  0
 10 12  2  0
 12 13  1  0
 13  2  1  0
 13  6  2  0
  1 14  1  0
  1 15  1  0
  1 16  1  0
  3 17  1  0
  4 18  1  0
  5 19  1  0
  9 20  1  0
 11 21  1  0
 11 22  1  0
M  END
>  <meeko>  (3) 
{"is_sidechain": [false], "free_energy": -5.925, "intermolecular_energy": -6.098, "internal_energy": 0.0}

$$$$
1s38_ligand
     RDKit          3D

 22 23  0  0  0  0  0  0  0  0999 V2000
   18.2220   17.6890   17.1410 C   0  0  0  0  0  0  0  0  0  0  0  0
   17.9590   17.6860   18.6210 C   0  0  0  0  0  0  0  0  0  0  0  0
   18.7860   18.4270   19.4810 C   0  0  0  0  0  0  0  0  0  0  0  0
   18.5580   18.4410   20.8590 C   0  0  0  0  0  0  0  0  0  0  0  0
   17.4980   17.7130   21.3930 C   0  0  0  0  0  0  0  0  0  0  0  0
   16.6750   16.9740   20.5360 C   0  0  0  0  0  0  0  0  0  0  0  0
   15.5450   16.1940   21.0660 C   0  0  0  0  0  0  0  0  0  0  0  0
   15.2650   16.1750   22.2600 O   0  0  0  0  0  0  0  0  0  0  0  0
   14.8220   15.4920   20.1370 N   0  0  0  0  0  0  0  0  0  0  0  0
   15.0810   15.5260   18.8020 C   0  0  0  0  0  0  0  0  0  0  0  0
   14.2640   14.7940   18.0050 N   0  0  0  0  0  0  0  0  0  0  0  0
   16.0570   16.2040   18.2910 N   0  0  0  0  0  0  0  0  0  0  0  0
   16.8870   16.9460   19.1540 C   0  0  0  0  0  0  0  0  0  0  0  0
   19.3072   17.7014   16.9615 H   0  0  0  0  0  0  0  0  0  0  0  0
   17.7859   16.7858   16.6893 H   0  0  0  0  0  0  0  0  0  0  0  0
   17.7654   18.5820   16.6893 H   0  0  0  0  0  0  0  0  0  0  0  0
   19.6244   19.0040   19.0638 H   0  0  0  0  0  0  0  0  0  0  0  0
   19.2141   19.0256   21.5206 H   0  0  0  0  0  0  0  0  0  0  0  0
   17.3096   17.7188   22.4767 H   0  0  0  0  0  0  0  0  0  0  0  0
   14.0180   14.9970   20.4840 H   0  0  0  0  0  0  0  0  0  0  0  0
   13.3450   14.6840   18.4240 H   0  0  0  0  0  0  0  0  0  0  0  0
   14.2130   15.0840   17.0380 H   0  0  0  0  0  0  0  0  0  0  0  0
  1  2  1  0
  2  3  2  0
  3  4  1  0
  4  5  2  0
  5  6  1  0
  6  7  1  0
  7  8  2  0
  7  9  1  0
  9 10  1  0
 10 11  1  0
 10 12  2  0
 12 13  1  0
 13  2  1  0
 13  6  2  0
  1 14  1  0
  1 15  1  0
  1 16  1  0
  3 17  1  0
  4 18  1  0
  5 19  1  0
  9 20  1  0
 11 21  1  0
 11 22  1  0
M  END
>  <meeko>  (4) 
{"is_sidechain": [false], "free_energy": -5.889, "intermolecular_energy": -6.062, "internal_energy": 0.0}

$$$$
