2fvd_ligand
     RDKit          3D

 51 53  0  0  0  0  0  0  0  0999 V2000
   -0.1840   27.8730   11.9470 C   0  0  0  0  0  0  0  0  0  0  0  0
   -0.6870   29.2010   11.7760 O   0  0  0  0  0  0  0  0  0  0  0  0
   -1.8580   29.1890   11.0680 C   0  0  0  0  0  0  0  0  0  0  0  0
   -2.9150   28.3830   11.5000 C   0  0  0  0  0  0  0  0  0  0  0  0
   -4.0820   28.3020   10.7360 C   0  0  0  0  0  0  0  0  0  0  0  0
   -4.1760   29.0120    9.5420 C   0  0  0  0  0  0  0  0  0  0  0  0
   -5.2930   28.9180    8.8090 F   0  0  0  0  0  0  0  0  0  0  0  0
   -3.1190   29.8000    9.1010 C   0  0  0  0  0  0  0  0  0  0  0  0
   -3.2210   30.4620    7.9390 F   0  0  0  0  0  0  0  0  0  0  0  0
   -1.9560   29.8830    9.8590 C   0  0  0  0  0  0  0  0  0  0  0  0
   -0.8580   30.7440    9.3940 C   0  0  0  0  0  0  0  0  0  0  0  0
   -0.8210   31.9010    9.8010 O   0  0  0  0  0  0  0  0  0  0  0  0
    0.1570   30.2320    8.4480 C   0  0  0  0  0  0  0  0  0  0  0  0
    0.5820   28.9220    8.4620 C   0  0  0  0  0  0  0  0  0  0  0  0
    1.5070   28.4240    7.6180 N   0  0  0  0  0  0  0  0  0  0  0  0
    2.0520   29.2800    6.7470 C   0  0  0  0  0  0  0  0  0  0  0  0
    3.0270   28.8710    5.8630 N   0  0  0  0  0  0  0  0  0  0  0  0
    3.6160   27.5370    5.9410 C   0  0  0  0  0  0  0  0  0  0  0  0
    3.7230   26.8470    4.5750 C   0  0  0  0  0  0  0  0  0  0  0  0
    5.1650   26.5270    4.2050 C   0  0  0  0  0  0  0  0  0  0  0  0
    5.7940   25.7100    5.2680 N   0  0  0  0  0  0  0  0  0  0  0  0
    7.2630   24.9510    4.9110 S   0  0  0  0  0  0  0  0  0  0  0  0
    6.8540   23.2270    5.1090 C   0  0  0  0  0  0  0  0  0  0  0  0
    7.5540   25.1800    3.5120 O   0  0  0  0  0  0  0  0  0  0  0  0
    8.2160   25.2970    5.9430 O   0  0  0  0  0  0  0  0  0  0  0  0
    5.5650   26.1410    6.6670 C   0  0  0  0  0  0  0  0  0  0  0  0
    4.9210   27.5180    6.7380 C   0  0  0  0  0  0  0  0  0  0  0  0
    1.7060   30.5680    6.6610 N   0  0  0  0  0  0  0  0  0  0  0  0
    0.7770   31.0440    7.5090 C   0  0  0  0  0  0  0  0  0  0  0  0
    0.4260   32.3960    7.3310 N   0  0  0  0  0  0  0  0  0  0  0  0
   -0.0990   27.6485   13.0205 H   0  0  0  0  0  0  0  0  0  0  0  0
   -0.8730   27.1565   11.4760 H   0  0  0  0  0  0  0  0  0  0  0  0
    0.8068   27.7927   11.4760 H   0  0  0  0  0  0  0  0  0  0  0  0
   -2.8284   27.8147   12.4378 H   0  0  0  0  0  0  0  0  0  0  0  0
   -4.9229   27.6799   11.0764 H   0  0  0  0  0  0  0  0  0  0  0  0
    0.1405   28.2424    9.2058 H   0  0  0  0  0  0  0  0  0  0  0  0
    2.7000   29.1480    4.9410 H   0  0  0  0  0  0  0  0  0  0  0  0
    2.9082   26.9224    6.5166 H   0  0  0  0  0  0  0  0  0  0  0  0
    3.1484   25.9095    4.6055 H   0  0  0  0  0  0  0  0  0  0  0  0
    3.3239   27.5359    3.8159 H   0  0  0  0  0  0  0  0  0  0  0  0
    5.1820   25.9675    3.2581 H   0  0  0  0  0  0  0  0  0  0  0  0
    5.7254   27.4671    4.0945 H   0  0  0  0  0  0  0  0  0  0  0  0
    6.7965   22.9845    6.1804 H   0  0  0  0  0  0  0  0  0  0  0  0
    5.8827   23.0237    4.6344 H   0  0  0  0  0  0  0  0  0  0  0  0
    7.6305   22.6091    4.6344 H   0  0  0  0  0  0  0  0  0  0  0  0
    4.9036   25.4132    7.1597 H   0  0  0  0  0  0  0  0  0  0  0  0
    6.5410   26.1945    7.1715 H   0  0  0  0  0  0  0  0  0  0  0  0
    4.7079   27.7649    7.7885 H   0  0  0  0  0  0  0  0  0  0  0  0
    5.6124   28.2582    6.3089 H   0  0  0  0  0  0  0  0  0  0  0  0
    1.2130   32.8980    6.9290 H   0  0  0  0  0  0  0  0  0  0  0  0
   -0.2980   32.4440    6.6070 H   0  0  0  0  0  0  0  0  0  0  0  0
  1  2  1  0
  2  3  1  0
  3  4  2  0
  4  5  1  0
  5  6  2  0
  6  7  1  0
  6  8  1  0
  8  9  1  0
  8 10  2  0
 10 11  1  0
 11 12  2  0
 11 13  1  0
 13 14  2  0
 14 15  1  0
 15 16  2  0
 16 17  1  0
 17 18  1  0
 18 19  1  0
 19 20  1  0
 20 21  1  0
 21 22  1  0
 22 23  1  0
 22 24  2  0
 22 25  2  0
 21 26  1  0
 26 27  1  0
 16 28  1  0
 28 29  2  0
 29 30  1  0
 10  3  1  0
 29 13  1  0
 27 18  1  0
  1 31  1  0
  1 32  1  0
  1 33  1  0
  4 34  1  0
  5 35  1  0
 14 36  1  0
 17 37  1  0
 18 38  1  0
 19 39  1  0
 19 40  1  0
 20 41  1  0
 20 42  1  0
 23 43  1  0
 23 44  1  0
 23 45  1  0
 26 46  1  0
 26 47  1  0
 27 48  1  0
 27 49  1  0
 30 50  1  0
 30 51  1  0
M  END
>  <meeko>  (1) 
{"is_sidechain": [false], "free_energy": -8.574, "intermolecular_energy": -11.832, "internal_energy": -1.231}

$$$$
2fvd_ligand
     RDKit          3D

 51 53  0  0  0  0  0  0  0  0999 V2000
   -4.1930   29.4730    9.2400 C   0  0  0  0  0  0  0  0  0  0  0  0
   -3.6320   29.4920   10.5560 O   0  0  0  0  0  0  0  0  0  0  0  0
   -3.6070   28.2320   11.0900 C   0  0  0  0  0  0  0  0  0  0  0  0
   -4.7980   27.5100   11.2080 C   0  0  0  0  0  0  0  0  0  0  0  0
   -4.7910   26.2580   11.8290 C   0  0  0  0  0  0  0  0  0  0  0  0
   -3.6000   25.7480   12.3400 C   0  0  0  0  0  0  0  0  0  0  0  0
   -3.6050   24.5540   12.9450 F   0  0  0  0  0  0  0  0  0  0  0  0
   -2.4180   26.4720   12.2400 C   0  0  0  0  0  0  0  0  0  0  0  0
   -1.2850   25.9720   12.7550 F   0  0  0  0  0  0  0  0  0  0  0  0
   -2.4210   27.7190   11.6220 C   0  0  0  0  0  0  0  0  0  0  0  0
   -1.1570   28.4600   11.4990 C   0  0  0  0  0  0  0  0  0  0  0  0
   -0.7430   29.0620   12.4860 O   0  0  0  0  0  0  0  0  0  0  0  0
   -0.4200   28.4940   10.2170 C   0  0  0  0  0  0  0  0  0  0  0  0
    0.1940   27.3780    9.6930 C   0  0  0  0  0  0  0  0  0  0  0  0
    0.8780   27.3740    8.5310 N   0  0  0  0  0  0  0  0  0  0  0  0
    0.9750   28.5420    7.8850 C   0  0  0  0  0  0  0  0  0  0  0  0
    1.6770   28.6440    6.7030 N   0  0  0  0  0  0  0  0  0  0  0  0
    3.1260   28.4640    6.6580 C   0  0  0  0  0  0  0  0  0  0  0  0
    3.7450   28.2400    8.0440 C   0  0  0  0  0  0  0  0  0  0  0  0
    4.4410   26.8890    8.1500 C   0  0  0  0  0  0  0  0  0  0  0  0
    5.4570   26.7560    7.0810 N   0  0  0  0  0  0  0  0  0  0  0  0
    6.5830   25.5000    7.2180 S   0  0  0  0  0  0  0  0  0  0  0  0
    5.5400   24.0960    7.5620 C   0  0  0  0  0  0  0  0  0  0  0  0
    7.1850   25.2990    5.9180 O   0  0  0  0  0  0  0  0  0  0  0  0
    7.3930   25.7430    8.3920 O   0  0  0  0  0  0  0  0  0  0  0  0
    5.0540   27.1720    5.7180 C   0  0  0  0  0  0  0  0  0  0  0  0
    3.5570   27.4260    5.6220 C   0  0  0  0  0  0  0  0  0  0  0  0
    0.4150   29.6750    8.3170 N   0  0  0  0  0  0  0  0  0  0  0  0
   -0.2670   29.6570    9.4770 C   0  0  0  0  0  0  0  0  0  0  0  0
   -0.8710   30.8730    9.8480 N   0  0  0  0  0  0  0  0  0  0  0  0
   -5.2902   29.4358    9.3096 H   0  0  0  0  0  0  0  0  0  0  0  0
   -3.8905   30.3819    8.6993 H   0  0  0  0  0  0  0  0  0  0  0  0
   -3.8297   28.5866    8.6993 H   0  0  0  0  0  0  0  0  0  0  0  0
   -5.7370   27.9256   10.8137 H   0  0  0  0  0  0  0  0  0  0  0  0
   -5.7219   25.6781   11.9138 H   0  0  0  0  0  0  0  0  0  0  0  0
    0.1222   26.4352   10.2551 H   0  0  0  0  0  0  0  0  0  0  0  0
    1.1510   28.1050    6.0200 H   0  0  0  0  0  0  0  0  0  0  0  0
    3.5435   29.4199    6.3089 H   0  0  0  0  0  0  0  0  0  0  0  0
    4.4814   29.0343    8.2360 H   0  0  0  0  0  0  0  0  0  0  0  0
    2.9323   28.2611    8.7850 H   0  0  0  0  0  0  0  0  0  0  0  0
    4.9321   26.8085    9.1310 H   0  0  0  0  0  0  0  0  0  0  0  0
    3.6942   26.0890    8.0391 H   0  0  0  0  0  0  0  0  0  0  0  0
    5.4448   23.9679    8.6504 H   0  0  0  0  0  0  0  0  0  0  0  0
    4.5448   24.2625    7.1240 H   0  0  0  0  0  0  0  0  0  0  0  0
    5.9868   23.1913    7.1240 H   0  0  0  0  0  0  0  0  0  0  0  0
    5.5892   28.0965    5.4555 H   0  0  0  0  0  0  0  0  0  0  0  0
    5.3068   26.3569    5.0240 H   0  0  0  0  0  0  0  0  0  0  0  0
    3.3160   27.7971    4.6149 H   0  0  0  0  0  0  0  0  0  0  0  0
    3.0219   26.4846    5.8156 H   0  0  0  0  0  0  0  0  0  0  0  0
   -1.6700   31.0490    9.2450 H   0  0  0  0  0  0  0  0  0  0  0  0
   -1.2810   30.7530   10.7790 H   0  0  0  0  0  0  0  0  0  0  0  0
  1  2  1  0
  2  3  1  0
  3  4  2  0
  4  5  1  0
  5  6  2  0
  6  7  1  0
  6  8  1  0
  8  9  1  0
  8 10  2  0
 10 11  1  0
 11 12  2  0
 11 13  1  0
 13 14  2  0
 14 15  1  0
 15 16  2  0
 16 17  1  0
 17 18  1  0
 18 19  1  0
 19 20  1  0
 20 21  1  0
 21 22  1  0
 22 23  1  0
 22 24  2  0
 22 25  2  0
 21 26  1  0
 26 27  1  0
 16 28  1  0
 28 29  2  0
 29 30  1  0
 10  3  1  0
 29 13  1  0
 27 18  1  0
  1 31  1  0
  1 32  1  0
  1 33  1  0
  4 34  1  0
  5 35  1  0
 14 36  1  0
 17 37  1  0
 18 38  1  0
 19 39  1  0
 19 40  1  0
 20 41  1  0
 20 42  1  0
 23 43  1  0
 23 44  1  0
 23 45  1  0
 26 46  1  0
 26 47  1  0
 27 48  1  0
 27 49  1  0
 30 50  1  0
 30 51  1  0
M  END
>  <meeko>  (2) 
{"is_sidechain": [false], "free_energy": -8.399, "intermolecular_energy": -11.489, "internal_energy": -1.332}

$$$$
2fvd_ligand
     RDKit          3D

 51 53  0  0  0  0  0  0  0  0999 V2000
   -1.5900   32.0390    9.9190 C   0  0  0  0  0  0  0  0  0  0  0  0
   -1.0760   30.7050    9.9190 O   0  0  0  0  0  0  0  0  0  0  0  0
   -2.0780   29.7990   10.1430 C   0  0  0  0  0  0  0  0  0  0  0  0
   -3.3150   29.9710    9.5150 C   0  0  0  0  0  0  0  0  0  0  0  0
   -4.3670   29.0980    9.8050 C   0  0  0  0  0  0  0  0  0  0  0  0
   -4.1790   28.0750   10.7300 C   0  0  0  0  0  0  0  0  0  0  0  0
   -5.1960   27.2510   11.0130 F   0  0  0  0  0  0  0  0  0  0  0  0
   -2.9560   27.9130   11.3700 C   0  0  0  0  0  0  0  0  0  0  0  0
   -2.8000   26.9330   12.2730 F   0  0  0  0  0  0  0  0  0  0  0  0
   -1.9060   28.7800   11.0840 C   0  0  0  0  0  0  0  0  0  0  0  0
   -0.6090   28.5790   11.7480 C   0  0  0  0  0  0  0  0  0  0  0  0
   -0.4110   29.1580   12.8130 O   0  0  0  0  0  0  0  0  0  0  0  0
    0.4300   27.7220   11.1380 C   0  0  0  0  0  0  0  0  0  0  0  0
    1.0640   28.0600    9.9630 C   0  0  0  0  0  0  0  0  0  0  0  0
    2.0120   27.3010    9.3760 N   0  0  0  0  0  0  0  0  0  0  0  0
    2.3120   26.1430    9.9750 C   0  0  0  0  0  0  0  0  0  0  0  0
    3.2490   25.2860    9.4360 N   0  0  0  0  0  0  0  0  0  0  0  0
    3.8100   25.5100    8.1070 C   0  0  0  0  0  0  0  0  0  0  0  0
    4.9980   26.4810    8.1140 C   0  0  0  0  0  0  0  0  0  0  0  0
    6.2770   25.8270    7.6060 C   0  0  0  0  0  0  0  0  0  0  0  0
    6.0570   25.2600    6.2570 N   0  0  0  0  0  0  0  0  0  0  0  0
    7.4200   24.8030    5.3640 S   0  0  0  0  0  0  0  0  0  0  0  0
    6.9560   25.2660    3.7050 C   0  0  0  0  0  0  0  0  0  0  0  0
    8.5220   25.6480    5.7700 O   0  0  0  0  0  0  0  0  0  0  0  0
    7.5260   23.3600    5.4030 O   0  0  0  0  0  0  0  0  0  0  0  0
    4.8090   24.4880    6.0500 C   0  0  0  0  0  0  0  0  0  0  0  0
    4.0940   24.2050    7.3630 C   0  0  0  0  0  0  0  0  0  0  0  0
    1.7490   25.7310   11.1140 N   0  0  0  0  0  0  0  0  0  0  0  0
    0.8080   26.5060   11.6860 C   0  0  0  0  0  0  0  0  0  0  0  0
    0.2920   26.0350   12.9070 N   0  0  0  0  0  0  0  0  0  0  0  0
   -1.7218   32.3811   10.9561 H   0  0  0  0  0  0  0  0  0  0  0  0
   -0.8837   32.7041    9.4005 H   0  0  0  0  0  0  0  0  0  0  0  0
   -2.5599   32.0582    9.4005 H   0  0  0  0  0  0  0  0  0  0  0  0
   -3.4597   30.7903    8.7954 H   0  0  0  0  0  0  0  0  0  0  0  0
   -5.3391   29.2187    9.3046 H   0  0  0  0  0  0  0  0  0  0  0  0
    0.7807   29.0041    9.4747 H   0  0  0  0  0  0  0  0  0  0  0  0
    3.9280   25.1190   10.1730 H   0  0  0  0  0  0  0  0  0  0  0  0
    3.0274   26.0186    7.5249 H   0  0  0  0  0  0  0  0  0  0  0  0
    4.7583   27.3392    7.4690 H   0  0  0  0  0  0  0  0  0  0  0  0
    5.1698   26.7980    9.1532 H   0  0  0  0  0  0  0  0  0  0  0  0
    7.0767   26.5807    7.5579 H   0  0  0  0  0  0  0  0  0  0  0  0
    6.5656   25.0185    8.2937 H   0  0  0  0  0  0  0  0  0  0  0  0
    6.1779   26.0425    3.7451 H   0  0  0  0  0  0  0  0  0  0  0  0
    7.8364   25.6563    3.1734 H   0  0  0  0  0  0  0  0  0  0  0  0
    6.5676   24.3848    3.1734 H   0  0  0  0  0  0  0  0  0  0  0  0
    4.1380   25.0648    5.3965 H   0  0  0  0  0  0  0  0  0  0  0  0
    5.0757   23.5242    5.5918 H   0  0  0  0  0  0  0  0  0  0  0  0
    3.1434   23.6921    7.1549 H   0  0  0  0  0  0  0  0  0  0  0  0
    4.7369   23.5695    7.9897 H   0  0  0  0  0  0  0  0  0  0  0  0
   -0.5840   25.5470   12.7360 H   0  0  0  0  0  0  0  0  0  0  0  0
    0.9200   25.3050   13.2580 H   0  0  0  0  0  0  0  0  0  0  0  0
  1  2  1  0
  2  3  1  0
  3  4  2  0
  4  5  1  0
  5  6  2  0
  6  7  1  0
  6  8  1  0
  8  9  1  0
  8 10  2  0
 10 11  1  0
 11 12  2  0
 11 13  1  0
 13 14  2  0
 14 15  1  0
 15 16  2  0
 16 17  1  0
 17 18  1  0
 18 19  1  0
 19 20  1  0
 20 21  1  0
 21 22  1  0
 22 23  1  0
 22 24  2  0
 22 25  2  0
 21 26  1  0
 26 27  1  0
 16 28  1  0
 28 29  2  0
 29 30  1  0
 10  3  1  0
 29 13  1  0
 27 18  1  0
  1 31  1  0
  1 32  1  0
  1 33  1  0
  4 34  1  0
  5 35  1  0
 14 36  1  0
 17 37  1  0
 18 38  1  0
 19 39  1  0
 19 40  1  0
 20 41  1  0
 20 42  1  0
 23 43  1  0
 23 44  1  0
 23 45  1  0
 26 46  1  0
 26 47  1  0
 27 48  1  0
 27 49  1  0
 30 50  1  0
 30 51  1  0
M  END
>  <meeko>  (3) 
{"is_sidechain": [false], "free_energy": -8.232, "intermolecular_energy": -11.469, "internal_energy": -1.122}

$$$$
2fvd_ligand
     RDKit          3D

 51 53  0  0  0  0  0  0  0  0999 V2000
   -2.2740   26.0640   11.3780 C   0  0  0  0  0  0  0  0  0  0  0  0
   -1.8320   26.8580   10.2740 O   0  0  0  0  0  0  0  0  0  0  0  0
   -2.1620   28.1730   10.4590 C   0  0  0  0  0  0  0  0  0  0  0  0
   -3.5050   28.5570   10.4340 C   0  0  0  0  0  0  0  0  0  0  0  0
   -3.8430   29.9080   10.5400 C   0  0  0  0  0  0  0  0  0  0  0  0
   -2.8360   30.8640   10.6510 C   0  0  0  0  0  0  0  0  0  0  0  0
   -3.1670   32.1580   10.7380 F   0  0  0  0  0  0  0  0  0  0  0  0
   -1.4980   30.4870   10.6570 C   0  0  0  0  0  0  0  0  0  0  0  0
   -0.5420   31.4240   10.7470 F   0  0  0  0  0  0  0  0  0  0  0  0
   -1.1580   29.1420   10.5530 C   0  0  0  0  0  0  0  0  0  0  0  0
    0.2600   28.7570   10.5900 C   0  0  0  0  0  0  0  0  0  0  0  0
    0.7710   28.5460   11.6870 O   0  0  0  0  0  0  0  0  0  0  0  0
    1.0490   28.6470    9.3440 C   0  0  0  0  0  0  0  0  0  0  0  0
    0.7900   29.4290    8.2400 C   0  0  0  0  0  0  0  0  0  0  0  0
    1.4860   29.3530    7.0870 N   0  0  0  0  0  0  0  0  0  0  0  0
    2.4570   28.4350    7.0290 C   0  0  0  0  0  0  0  0  0  0  0  0
    3.2050   28.2630    5.8830 N   0  0  0  0  0  0  0  0  0  0  0  0
    3.8530   26.9900    5.5810 C   0  0  0  0  0  0  0  0  0  0  0  0
    3.7620   26.6080    4.0980 C   0  0  0  0  0  0  0  0  0  0  0  0
    5.1360   26.4820    3.4520 C   0  0  0  0  0  0  0  0  0  0  0  0
    5.9640   25.5130    4.2050 N   0  0  0  0  0  0  0  0  0  0  0  0
    7.3850   24.9570    3.4730 S   0  0  0  0  0  0  0  0  0  0  0  0
    6.7730   24.2400    1.9590 C   0  0  0  0  0  0  0  0  0  0  0  0
    8.1870   26.1100    3.1250 O   0  0  0  0  0  0  0  0  0  0  0  0
    7.9230   23.8840    4.2810 O   0  0  0  0  0  0  0  0  0  0  0  0
    5.9510   25.6260    5.6820 C   0  0  0  0  0  0  0  0  0  0  0  0
    5.2710   26.9050    6.1470 C   0  0  0  0  0  0  0  0  0  0  0  0
    2.7790   27.6320    8.0470 N   0  0  0  0  0  0  0  0  0  0  0  0
    2.0750   27.7270    9.1910 C   0  0  0  0  0  0  0  0  0  0  0  0
    2.4980   26.8860   10.2370 N   0  0  0  0  0  0  0  0  0  0  0  0
   -1.9979   26.5600   12.3202 H   0  0  0  0  0  0  0  0  0  0  0  0
   -3.3668   25.9474   11.3316 H   0  0  0  0  0  0  0  0  0  0  0  0
   -1.7973   25.0737   11.3316 H   0  0  0  0  0  0  0  0  0  0  0  0
   -4.2940   27.7975   10.3311 H   0  0  0  0  0  0  0  0  0  0  0  0
   -4.8991   30.2155   10.5358 H   0  0  0  0  0  0  0  0  0  0  0  0
   -0.0318   30.1575    8.3022 H   0  0  0  0  0  0  0  0  0  0  0  0
    2.6520   28.6600    5.1290 H   0  0  0  0  0  0  0  0  0  0  0  0
    3.2759   26.2181    6.1112 H   0  0  0  0  0  0  0  0  0  0  0  0
    3.2400   25.6436    4.0118 H   0  0  0  0  0  0  0  0  0  0  0  0
    3.2148   27.4068    3.5760 H   0  0  0  0  0  0  0  0  0  0  0  0
    5.0202   26.1334    2.4151 H   0  0  0  0  0  0  0  0  0  0  0  0
    5.6310   27.4643    3.4630 H   0  0  0  0  0  0  0  0  0  0  0  0
    6.0756   23.4230    2.1959 H   0  0  0  0  0  0  0  0  0  0  0  0
    6.2498   25.0105    1.3737 H   0  0  0  0  0  0  0  0  0  0  0  0
    7.6161   23.8443    1.3737 H   0  0  0  0  0  0  0  0  0  0  0  0
    5.4107   24.7638    6.0999 H   0  0  0  0  0  0  0  0  0  0  0  0
    6.9938   25.6478    6.0315 H   0  0  0  0  0  0  0  0  0  0  0  0
    5.2238   26.9116    7.2460 H   0  0  0  0  0  0  0  0  0  0  0  0
    5.8509   27.7684    5.7888 H   0  0  0  0  0  0  0  0  0  0  0  0
    1.8540   26.1030   10.3200 H   0  0  0  0  0  0  0  0  0  0  0  0
    3.3840   26.4530    9.9590 H   0  0  0  0  0  0  0  0  0  0  0  0
  1  2  1  0
  2  3  1  0
  3  4  2  0
  4  5  1  0
  5  6  2  0
  6  7  1  0
  6  8  1  0
  8  9  1  0
  8 10  2  0
 10 11  1  0
 11 12  2  0
 11 13  1  0
 13 14  2  0
 14 15  1  0
 15 16  2  0
 16 17  1  0
 17 18  1  0
 18 19  1  0
 19 20  1  0
 20 21  1  0
 21 22  1  0
 22 23  1  0
 22 24  2  0
 22 25  2  0
 21 26  1  0
 26 27  1  0
 16 28  1  0
 28 29  2  0
 29 30  1  0
 10  3  1  0
 29 13  1  0
 27 18  1  0
  1 31  1  0
  1 32  1  0
  1 33  1  0
  4 34  1  0
  5 35  1  0
 14 36  1  0
 17 37  1  0
 18 38  1  0
 19 39  1  0
 19 40  1  0
 20 41  1  0
 20 42  1  0
 23 43  1  0
 23 44  1  0
 23 45  1  0
 26 46  1  0
 26 47  1  0
 27 48  1  0
 27 49  1  0
 30 50  1  0
 30 51  1  0
M  END
>  <meeko>  (4) 
{"is_sidechain": [false], "free_energy": -8.23, "intermolecular_energy": -11.67, "internal_energy": -0.918}

$$$$
2fvd_ligand
     RDKit          3D

 51 53  0  0  0  0  0  0  0  0999 V2000
   -1.4080   32.4100    9.7760 C   0  0  0  0  0  0  0  0  0  0  0  0
   -1.1660   31.4380   10.7970 O   0  0  0  0  0  0  0  0  0  0  0  0
   -2.0610   30.4060   10.7060 C   0  0  0  0  0  0  0  0  0  0  0  0
   -3.4250   30.6850   10.5920 C   0  0  0  0  0  0  0  0  0  0  0  0
   -4.3490   29.6370   10.5820 C   0  0  0  0  0  0  0  0  0  0  0  0
   -3.9030   28.3230   10.7040 C   0  0  0  0  0  0  0  0  0  0  0  0
   -4.7960   27.3260   10.7080 F   0  0  0  0  0  0  0  0  0  0  0  0
   -2.5480   28.0440   10.8360 C   0  0  0  0  0  0  0  0  0  0  0  0
   -2.1390   26.7740   10.9710 F   0  0  0  0  0  0  0  0  0  0  0  0
   -1.6250   29.0850   10.8450 C   0  0  0  0  0  0  0  0  0  0  0  0
   -0.1930   28.7720   10.9570 C   0  0  0  0  0  0  0  0  0  0  0  0
    0.2680   28.5730   12.0770 O   0  0  0  0  0  0  0  0  0  0  0  0
    0.6680   28.7200    9.7550 C   0  0  0  0  0  0  0  0  0  0  0  0
    0.4010   29.4630    8.6270 C   0  0  0  0  0  0  0  0  0  0  0  0
    1.1600   29.4370    7.5130 N   0  0  0  0  0  0  0  0  0  0  0  0
    2.2100   28.6080    7.5190 C   0  0  0  0  0  0  0  0  0  0  0  0
    3.0300   28.4910    6.4170 N   0  0  0  0  0  0  0  0  0  0  0  0
    3.6860   27.2290    6.0870 C   0  0  0  0  0  0  0  0  0  0  0  0
    3.6190   26.8920    4.5910 C   0  0  0  0  0  0  0  0  0  0  0  0
    5.0040   26.7880    3.9640 C   0  0  0  0  0  0  0  0  0  0  0  0
    5.8230   25.7990    4.7000 N   0  0  0  0  0  0  0  0  0  0  0  0
    7.2560   25.2690    3.9740 S   0  0  0  0  0  0  0  0  0  0  0  0
    6.7480   23.7410    3.2080 C   0  0  0  0  0  0  0  0  0  0  0  0
    7.5930   26.2030    2.9210 O   0  0  0  0  0  0  0  0  0  0  0  0
    8.2010   24.9420    5.0200 O   0  0  0  0  0  0  0  0  0  0  0  0
    5.7860   25.8670    6.1800 C   0  0  0  0  0  0  0  0  0  0  0  0
    5.0950   27.1310    6.6720 C   0  0  0  0  0  0  0  0  0  0  0  0
    2.5460   27.8480    8.5650 N   0  0  0  0  0  0  0  0  0  0  0  0
    1.7780   27.8920    9.6690 C   0  0  0  0  0  0  0  0  0  0  0  0
    2.2160   27.1030   10.7490 N   0  0  0  0  0  0  0  0  0  0  0  0
   -1.6489   33.3776   10.2406 H   0  0  0  0  0  0  0  0  0  0  0  0
   -0.5091   32.5170    9.1511 H   0  0  0  0  0  0  0  0  0  0  0  0
   -2.2521   32.0830    9.1511 H   0  0  0  0  0  0  0  0  0  0  0  0
   -3.7704   31.7262   10.5104 H   0  0  0  0  0  0  0  0  0  0  0  0
   -5.4235   29.8485   10.4783 H   0  0  0  0  0  0  0  0  0  0  0  0
   -0.4839   30.1164    8.6352 H   0  0  0  0  0  0  0  0  0  0  0  0
    2.5300   28.9350    5.6510 H   0  0  0  0  0  0  0  0  0  0  0  0
    3.1032   26.4397    6.5844 H   0  0  0  0  0  0  0  0  0  0  0  0
    3.1004   25.9298    4.4671 H   0  0  0  0  0  0  0  0  0  0  0  0
    3.0782   27.7051    4.0846 H   0  0  0  0  0  0  0  0  0  0  0  0
    4.9057   26.4706    2.9154 H   0  0  0  0  0  0  0  0  0  0  0  0
    5.4960   27.7706    4.0133 H   0  0  0  0  0  0  0  0  0  0  0  0
    6.5030   23.0040    3.9870 H   0  0  0  0  0  0  0  0  0  0  0  0
    5.8615   23.9215    2.5822 H   0  0  0  0  0  0  0  0  0  0  0  0
    7.5661   23.3548    2.5822 H   0  0  0  0  0  0  0  0  0  0  0  0
    5.2411   24.9915    6.5629 H   0  0  0  0  0  0  0  0  0  0  0  0
    6.8228   25.8798    6.5472 H   0  0  0  0  0  0  0  0  0  0  0  0
    5.0309   27.1053    7.7698 H   0  0  0  0  0  0  0  0  0  0  0  0
    5.6779   28.0059    6.3483 H   0  0  0  0  0  0  0  0  0  0  0  0
    3.2140   27.2440   10.8860 H   0  0  0  0  0  0  0  0  0  0  0  0
    1.7910   27.4710   11.6050 H   0  0  0  0  0  0  0  0  0  0  0  0
  1  2  1  0
  2  3  1  0
  3  4  2  0
  4  5  1  0
  5  6  2  0
  6  7  1  0
  6  8  1  0
  8  9  1  0
  8 10  2  0
 10 11  1  0
 11 12  2  0
 11 13  1  0
 13 14  2  0
 14 15  1  0
 15 16  2  0
 16 17  1  0
 17 18  1  0
 18 19  1  0
 19 20  1  0
 20 21  1  0
 21 22  1  0
 22 23  1  0
 22 24  2  0
 22 25  2  0
 21 26  1  0
 26 27  1  0
 16 28  1  0
 28 29  2  0
 29 30  1  0
 10  3  1  0
 29 13  1  0
 27 18  1  0
  1 31  1  0
  1 32  1  0
  1 33  1  0
  4 34  1  0
  5 35  1  0
 14 36  1  0
 17 37  1  0
 18 38  1  0
 19 39  1  0
 19 40  1  0
 20 41  1  0
 20 42  1  0
 23 43  1  0
 23 44  1  0
 23 45  1  0
 26 46  1  0
 26 47  1  0
 27 48  1  0
 27 49  1  0
 30 50  1  0
 30 51  1  0
M  END
>  <meeko>  (5) 
{"is_sidechain": [false], "free_energy": -8.161, "intermolecular_energy": -11.753, "internal_energy": -0.74}

$$$$
2fvd_ligand
     RDKit          3D

 51 53  0  0  0  0  0  0  0  0999 V2000
   -1.9680   32.3920   10.3670 C   0  0  0  0  0  0  0  0  0  0  0  0
   -1.7990   31.3870   11.3690 O   0  0  0  0  0  0  0  0  0  0  0  0
   -2.6430   30.3330   11.1470 C   0  0  0  0  0  0  0  0  0  0  0  0
   -4.0240   30.5500   11.1230 C   0  0  0  0  0  0  0  0  0  0  0  0
   -4.8930   29.4660   10.9800 C   0  0  0  0  0  0  0  0  0  0  0  0
   -4.3770   28.1760   10.8800 C   0  0  0  0  0  0  0  0  0  0  0  0
   -5.2180   27.1410   10.7570 F   0  0  0  0  0  0  0  0  0  0  0  0
   -3.0060   27.9560   10.9220 C   0  0  0  0  0  0  0  0  0  0  0  0
   -2.5290   26.7050   10.8430 F   0  0  0  0  0  0  0  0  0  0  0  0
   -2.1370   29.0330   11.0640 C   0  0  0  0  0  0  0  0  0  0  0  0
   -0.6870   28.7870   11.0780 C   0  0  0  0  0  0  0  0  0  0  0  0
   -0.1370   28.6430   12.1660 O   0  0  0  0  0  0  0  0  0  0  0  0
    0.0850   28.7360    9.8170 C   0  0  0  0  0  0  0  0  0  0  0  0
    0.2520   29.8420    9.0130 C   0  0  0  0  0  0  0  0  0  0  0  0
    0.9450   29.8300    7.8560 N   0  0  0  0  0  0  0  0  0  0  0  0
    1.4640   28.6580    7.4760 C   0  0  0  0  0  0  0  0  0  0  0  0
    2.1660   28.5400    6.2950 N   0  0  0  0  0  0  0  0  0  0  0  0
    3.5790   28.1720    6.2820 C   0  0  0  0  0  0  0  0  0  0  0  0
    4.2500   28.3210    7.6540 C   0  0  0  0  0  0  0  0  0  0  0  0
    4.7920   26.9950    8.1740 C   0  0  0  0  0  0  0  0  0  0  0  0
    5.7200   26.4020    7.1850 N   0  0  0  0  0  0  0  0  0  0  0  0
    6.7010   25.1210    7.6960 S   0  0  0  0  0  0  0  0  0  0  0  0
    7.4100   24.5540    6.1610 C   0  0  0  0  0  0  0  0  0  0  0  0
    7.7680   25.6720    8.5020 O   0  0  0  0  0  0  0  0  0  0  0  0
    5.8460   24.0680    8.1990 O   0  0  0  0  0  0  0  0  0  0  0  0
    5.2860   26.4120    5.7680 C   0  0  0  0  0  0  0  0  0  0  0  0
    3.8250   26.8120    5.6260 C   0  0  0  0  0  0  0  0  0  0  0  0
    1.3530   27.5330    8.1890 N   0  0  0  0  0  0  0  0  0  0  0  0
    0.6610   27.5670    9.3430 C   0  0  0  0  0  0  0  0  0  0  0  0
    0.6240   26.3600   10.0660 N   0  0  0  0  0  0  0  0  0  0  0  0
   -2.1319   33.3669   10.8494 H   0  0  0  0  0  0  0  0  0  0  0  0
   -1.0654   32.4403    9.7402 H   0  0  0  0  0  0  0  0  0  0  0  0
   -2.8368   32.1424    9.7402 H   0  0  0  0  0  0  0  0  0  0  0  0
   -4.4244   31.5703   11.2164 H   0  0  0  0  0  0  0  0  0  0  0  0
   -5.9802   29.6302   10.9465 H   0  0  0  0  0  0  0  0  0  0  0  0
   -0.2062   30.7894    9.3330 H   0  0  0  0  0  0  0  0  0  0  0  0
    1.5700   28.0020    5.6710 H   0  0  0  0  0  0  0  0  0  0  0  0
    4.0822   28.9069    5.6365 H   0  0  0  0  0  0  0  0  0  0  0  0
    5.0826   29.0345    7.5661 H   0  0  0  0  0  0  0  0  0  0  0  0
    3.4911   28.6790    8.3652 H   0  0  0  0  0  0  0  0  0  0  0  0
    5.3284   27.1666    9.1189 H   0  0  0  0  0  0  0  0  0  0  0  0
    3.9529   26.3034    8.3403 H   0  0  0  0  0  0  0  0  0  0  0  0
    8.2529   23.8799    6.3733 H   0  0  0  0  0  0  0  0  0  0  0  0
    6.6463   24.0148    5.5814 H   0  0  0  0  0  0  0  0  0  0  0  0
    7.7681   25.4176    5.5814 H   0  0  0  0  0  0  0  0  0  0  0  0
    5.9069   27.1289    5.2107 H   0  0  0  0  0  0  0  0  0  0  0  0
    5.4015   25.3937    5.3684 H   0  0  0  0  0  0  0  0  0  0  0  0
    3.5678   26.8727    4.5582 H   0  0  0  0  0  0  0  0  0  0  0  0
    3.1981   26.0571    6.1231 H   0  0  0  0  0  0  0  0  0  0  0  0
    0.3260   25.6080    9.4510 H   0  0  0  0  0  0  0  0  0  0  0  0
    1.5860   26.1110   10.3190 H   0  0  0  0  0  0  0  0  0  0  0  0
  1  2  1  0
  2  3  1  0
  3  4  2  0
  4  5  1  0
  5  6  2  0
  6  7  1  0
  6  8  1  0
  8  9  1  0
  8 10  2  0
 10 11  1  0
 11 12  2  0
 11 13  1  0
 13 14  2  0
 14 15  1  0
 15 16  2  0
 16 17  1  0
 17 18  1  0
 18 19  1  0
 19 20  1  0
 20 21  1  0
 21 22  1  0
 22 23  1  0
 22 24  2  0
 22 25  2  0
 21 26  1  0
 26 27  1  0
 16 28  1  0
 28 29  2  0
 29 30  1  0
 10  3  1  0
 29 13  1  0
 27 18  1  0
  1 31  1  0
  1 32  1  0
  1 33  1  0
  4 34  1  0
  5 35  1  0
 14 36  1  0
 17 37  1  0
 18 38  1  0
 19 39  1  0
 19 40  1  0
 20 41  1  0
 20 42  1  0
 23 43  1  0
 23 44  1  0
 23 45  1  0
 26 46  1  0
 26 47  1  0
 27 48  1  0
 27 49  1  0
 30 50  1  0
 30 51  1  0
M  END
>  <meeko>  (6) 
{"is_sidechain": [false], "free_energy": -8.13, "intermolecular_energy": -11.339, "internal_energy": -1.112}

$$$$
2fvd_ligand
     RDKit          3D

 51 53  0  0  0  0  0  0  0  0999 V2000
   -1.7130   26.6390   11.0160 C   0  0  0  0  0  0  0  0  0  0  0  0
   -1.6220   27.2930    9.7480 O   0  0  0  0  0  0  0  0  0  0  0  0
   -1.5470   28.6510    9.9070 C   0  0  0  0  0  0  0  0  0  0  0  0
   -2.2410   29.2610   10.9560 C   0  0  0  0  0  0  0  0  0  0  0  0
   -2.2350   30.6530   11.0740 C   0  0  0  0  0  0  0  0  0  0  0  0
   -1.5530   31.4220   10.1340 C   0  0  0  0  0  0  0  0  0  0  0  0
   -1.5640   32.7560   10.2460 F   0  0  0  0  0  0  0  0  0  0  0  0
   -0.8780   30.8190    9.0800 C   0  0  0  0  0  0  0  0  0  0  0  0
   -0.2420   31.5770    8.1740 F   0  0  0  0  0  0  0  0  0  0  0  0
   -0.8810   29.4330    8.9590 C   0  0  0  0  0  0  0  0  0  0  0  0
   -0.1380   28.8080    7.8550 C   0  0  0  0  0  0  0  0  0  0  0  0
   -0.6980   28.7100    6.7670 O   0  0  0  0  0  0  0  0  0  0  0  0
    1.2340   28.2950    8.0590 C   0  0  0  0  0  0  0  0  0  0  0  0
    1.4950   27.1770    8.8200 C   0  0  0  0  0  0  0  0  0  0  0  0
    2.7330   26.6840    9.0300 N   0  0  0  0  0  0  0  0  0  0  0  0
    3.7500   27.3580    8.4820 C   0  0  0  0  0  0  0  0  0  0  0  0
    5.0540   26.9480    8.6640 N   0  0  0  0  0  0  0  0  0  0  0  0
    5.8690   26.4810    7.5460 C   0  0  0  0  0  0  0  0  0  0  0  0
    7.0190   25.5640    7.9840 C   0  0  0  0  0  0  0  0  0  0  0  0
    6.9100   24.1750    7.3680 C   0  0  0  0  0  0  0  0  0  0  0  0
    6.8370   24.2760    5.8930 N   0  0  0  0  0  0  0  0  0  0  0  0
    7.0660   22.8600    4.9960 S   0  0  0  0  0  0  0  0  0  0  0  0
    7.5770   23.4970    3.4110 C   0  0  0  0  0  0  0  0  0  0  0  0
    8.1860   22.1450    5.5700 O   0  0  0  0  0  0  0  0  0  0  0  0
    5.7800   22.2220    4.8180 O   0  0  0  0  0  0  0  0  0  0  0  0
    5.9260   25.3030    5.3370 C   0  0  0  0  0  0  0  0  0  0  0  0
    5.0280   25.9040    6.4070 C   0  0  0  0  0  0  0  0  0  0  0  0
    3.5950   28.4520    7.7310 N   0  0  0  0  0  0  0  0  0  0  0  0
    2.3510   28.9240    7.5290 C   0  0  0  0  0  0  0  0  0  0  0  0
    2.2560   30.0500    6.6910 N   0  0  0  0  0  0  0  0  0  0  0  0
   -1.6096   27.3823   11.8202 H   0  0  0  0  0  0  0  0  0  0  0  0
   -2.6893   26.1395   11.1017 H   0  0  0  0  0  0  0  0  0  0  0  0
   -0.9101   25.8919   11.1017 H   0  0  0  0  0  0  0  0  0  0  0  0
   -2.7897   28.6474   11.6857 H   0  0  0  0  0  0  0  0  0  0  0  0
   -2.7663   31.1394   11.9053 H   0  0  0  0  0  0  0  0  0  0  0  0
    0.6444   26.6558    9.2835 H   0  0  0  0  0  0  0  0  0  0  0  0
    5.4870   27.6540    9.2540 H   0  0  0  0  0  0  0  0  0  0  0  0
    6.3580   27.3737    7.1289 H   0  0  0  0  0  0  0  0  0  0  0  0
    7.9720   26.0165    7.6724 H   0  0  0  0  0  0  0  0  0  0  0  0
    6.9679   25.4549    9.0774 H   0  0  0  0  0  0  0  0  0  0  0  0
    7.7932   23.5824    7.6487 H   0  0  0  0  0  0  0  0  0  0  0  0
    5.9974   23.6869    7.7407 H   0  0  0  0  0  0  0  0  0  0  0  0
    8.2590   24.3471    3.5601 H   0  0  0  0  0  0  0  0  0  0  0  0
    8.0942   22.7064    2.8476 H   0  0  0  0  0  0  0  0  0  0  0  0
    6.6931   23.8304    2.8476 H   0  0  0  0  0  0  0  0  0  0  0  0
    6.5280   26.1057    4.8861 H   0  0  0  0  0  0  0  0  0  0  0  0
    5.2843   24.8187    4.5862 H   0  0  0  0  0  0  0  0  0  0  0  0
    4.4211   26.7063    5.9621 H   0  0  0  0  0  0  0  0  0  0  0  0
    4.3753   25.1153    6.8094 H   0  0  0  0  0  0  0  0  0  0  0  0
    3.0070   30.0240    6.0050 H   0  0  0  0  0  0  0  0  0  0  0  0
    1.4030   29.9590    6.1310 H   0  0  0  0  0  0  0  0  0  0  0  0
  1  2  1  0
  2  3  1  0
  3  4  2  0
  4  5  1  0
  5  6  2  0
  6  7  1  0
  6  8  1  0
  8  9  1  0
  8 10  2  0
 10 11  1  0
 11 12  2  0
 11 13  1  0
 13 14  2  0
 14 15  1  0
 15 16  2  0
 16 17  1  0
 17 18  1  0
 18 19  1  0
 19 20  1  0
 20 21  1  0
 21 22  1  0
 22 23  1  0
 22 24  2  0
 22 25  2  0
 21 26  1  0
 26 27  1  0
 16 28  1  0
 28 29  2  0
 29 30  1  0
 10  3  1  0
 29 13  1  0
 27 18  1  0
  1 31  1  0
  1 32  1  0
  1 33  1  0
  4 34  1  0
  5 35  1  0
 14 36  1  0
 17 37  1  0
 18 38  1  0
 19 39  1  0
 19 40  1  0
 20 41  1  0
 20 42  1  0
 23 43  1  0
 23 44  1  0
 23 45  1  0
 26 46  1  0
 26 47  1  0
 27 48  1  0
 27 49  1  0
 30 50  1  0
 30 51  1  0
M  END
>  <meeko>  (7) 
{"is_sidechain": [false], "free_energy": -8.045, "intermolecular_energy": -11.332, "internal_energy": -1.0}

$$$$
2fvd_ligand
     RDKit          3D

 51 53  0  0  0  0  0  0  0  0999 V2000
    6.7220   25.1910    7.9490 C   0  0  0  0  0  0  0  0  0  0  0  0
    5.2940   25.2710    7.9810 O   0  0  0  0  0  0  0  0  0  0  0  0
    4.7920   25.4700    6.7230 C   0  0  0  0  0  0  0  0  0  0  0  0
    4.9010   24.4560    5.7680 C   0  0  0  0  0  0  0  0  0  0  0  0
    4.4650   24.6840    4.4610 C   0  0  0  0  0  0  0  0  0  0  0  0
    3.9420   25.9280    4.1160 C   0  0  0  0  0  0  0  0  0  0  0  0
    3.5400   26.1430    2.8570 F   0  0  0  0  0  0  0  0  0  0  0  0
    3.8490   26.9450    5.0590 C   0  0  0  0  0  0  0  0  0  0  0  0
    3.3600   28.1410    4.7020 F   0  0  0  0  0  0  0  0  0  0  0  0
    4.2820   26.7210    6.3620 C   0  0  0  0  0  0  0  0  0  0  0  0
    4.1510   27.7970    7.3550 C   0  0  0  0  0  0  0  0  0  0  0  0
    5.1550   28.4440    7.6390 O   0  0  0  0  0  0  0  0  0  0  0  0
    2.8510   28.0750    8.0050 C   0  0  0  0  0  0  0  0  0  0  0  0
    1.8900   28.8670    7.4180 C   0  0  0  0  0  0  0  0  0  0  0  0
    0.6990   29.1450    7.9830 N   0  0  0  0  0  0  0  0  0  0  0  0
    0.4750   28.6340    9.1990 C   0  0  0  0  0  0  0  0  0  0  0  0
   -0.7040   28.8850    9.8700 N   0  0  0  0  0  0  0  0  0  0  0  0
   -1.6420   27.8130   10.1890 C   0  0  0  0  0  0  0  0  0  0  0  0
   -1.1200   26.4230    9.8000 C   0  0  0  0  0  0  0  0  0  0  0  0
   -0.9860   25.5020   11.0070 C   0  0  0  0  0  0  0  0  0  0  0  0
   -2.2800   25.4080   11.7200 N   0  0  0  0  0  0  0  0  0  0  0  0
   -2.4570   24.1790   12.8700 S   0  0  0  0  0  0  0  0  0  0  0  0
   -4.0380   24.5680   13.5970 C   0  0  0  0  0  0  0  0  0  0  0  0
   -2.5900   22.9240   12.1620 O   0  0  0  0  0  0  0  0  0  0  0  0
   -1.4470   24.3630   13.8900 O   0  0  0  0  0  0  0  0  0  0  0  0
   -3.0110   26.6750   11.9510 C   0  0  0  0  0  0  0  0  0  0  0  0
   -2.1560   27.8910   11.6270 C   0  0  0  0  0  0  0  0  0  0  0  0
    1.3470   27.8560    9.8470 N   0  0  0  0  0  0  0  0  0  0  0  0
    2.5290   27.5870    9.2630 C   0  0  0  0  0  0  0  0  0  0  0  0
    3.3800   26.7250    9.9790 N   0  0  0  0  0  0  0  0  0  0  0  0
    7.1112   25.1692    8.9776 H   0  0  0  0  0  0  0  0  0  0  0  0
    7.0262   24.2744    7.4224 H   0  0  0  0  0  0  0  0  0  0  0  0
    7.1267   26.0679    7.4224 H   0  0  0  0  0  0  0  0  0  0  0  0
    5.3289   23.4812    6.0447 H   0  0  0  0  0  0  0  0  0  0  0  0
    4.5343   23.8853    3.7079 H   0  0  0  0  0  0  0  0  0  0  0  0
    2.1074   29.2981    6.4296 H   0  0  0  0  0  0  0  0  0  0  0  0
   -0.4560   29.4920   10.6470 H   0  0  0  0  0  0  0  0  0  0  0  0
   -2.5228   27.9768    9.5508 H   0  0  0  0  0  0  0  0  0  0  0  0
   -1.8203   25.9689    9.0835 H   0  0  0  0  0  0  0  0  0  0  0  0
   -0.1209   26.5483    9.3571 H   0  0  0  0  0  0  0  0  0  0  0  0
   -0.6832   24.5001   10.6686 H   0  0  0  0  0  0  0  0  0  0  0  0
   -0.2269   25.9110   11.6900 H   0  0  0  0  0  0  0  0  0  0  0  0
   -3.9525   24.5470   14.6935 H   0  0  0  0  0  0  0  0  0  0  0  0
   -4.3538   25.5706   13.2730 H   0  0  0  0  0  0  0  0  0  0  0  0
   -4.7830   23.8264   13.2730 H   0  0  0  0  0  0  0  0  0  0  0  0
   -3.9069   26.6900   11.3129 H   0  0  0  0  0  0  0  0  0  0  0  0
   -3.2817   26.7229   13.0161 H   0  0  0  0  0  0  0  0  0  0  0  0
   -2.7610   28.8018   11.7468 H   0  0  0  0  0  0  0  0  0  0  0  0
   -1.2961   27.9156   12.3126 H   0  0  0  0  0  0  0  0  0  0  0  0
    3.5760   27.1270   10.8920 H   0  0  0  0  0  0  0  0  0  0  0  0
    2.8590   25.8680   10.1900 H   0  0  0  0  0  0  0  0  0  0  0  0
  1  2  1  0
  2  3  1  0
  3  4  2  0
  4  5  1  0
  5  6  2  0
  6  7  1  0
  6  8  1  0
  8  9  1  0
  8 10  2  0
 10 11  1  0
 11 12  2  0
 11 13  1  0
 13 14  2  0
 14 15  1  0
 15 16  2  0
 16 17  1  0
 17 18  1  0
 18 19  1  0
 19 20  1  0
 20 21  1  0
 21 22  1  0
 22 23  1  0
 22 24  2  0
 22 25  2  0
 21 26  1  0
 26 27  1  0
 16 28  1  0
 28 29  2  0
 29 30  1  0
 10  3  1  0
 29 13  1  0
 27 18  1  0
  1 31  1  0
  1 32  1  0
  1 33  1  0
  4 34  1  0
  5 35  1  0
 14 36  1  0
 17 37  1  0
 18 38  1  0
 19 39  1  0
 19 40  1  0
 20 41  1  0
 20 42  1  0
 23 43  1  0
 23 44  1  0
 23 45  1  0
 26 46  1  0
 26 47  1  0
 27 48  1  0
 27 49  1  0
 30 50  1  0
 30 51  1  0
M  END
>  <meeko>  (8) 
{"is_sidechain": [false], "free_energy": -8.011, "intermolecular_energy": -11.353, "internal_energy": -0.934}

$$$$
2fvd_ligand
     RDKit          3D

 51 53  0  0  0  0  0  0  0  0999 V2000
   -2.9810   26.2200   11.9210 C   0  0  0  0  0  0  0  0  0  0  0  0
   -1.8060   27.0140   11.7360 O   0  0  0  0  0  0  0  0  0  0  0  0
   -2.0640   28.0780   10.9140 C   0  0  0  0  0  0  0  0  0  0  0  0
   -3.3600   28.2760   10.4310 C   0  0  0  0  0  0  0  0  0  0  0  0
   -3.6120   29.3110    9.5270 C   0  0  0  0  0  0  0  0  0  0  0  0
   -2.5660   30.1250    9.1010 C   0  0  0  0  0  0  0  0  0  0  0  0
   -2.8130   31.1060    8.2240 F   0  0  0  0  0  0  0  0  0  0  0  0
   -1.2730   29.9190    9.5660 C   0  0  0  0  0  0  0  0  0  0  0  0
   -0.2750   30.7020    9.1310 F   0  0  0  0  0  0  0  0  0  0  0  0
   -1.0180   28.8900   10.4670 C   0  0  0  0  0  0  0  0  0  0  0  0
    0.3500   28.7020   10.9720 C   0  0  0  0  0  0  0  0  0  0  0  0
    0.6600   29.2630   12.0200 O   0  0  0  0  0  0  0  0  0  0  0  0
    1.3270   27.8790   10.2270 C   0  0  0  0  0  0  0  0  0  0  0  0
    1.9410   28.3280    9.0780 C   0  0  0  0  0  0  0  0  0  0  0  0
    2.8320   27.6030    8.3720 N   0  0  0  0  0  0  0  0  0  0  0  0
    3.0940   26.3690    8.8170 C   0  0  0  0  0  0  0  0  0  0  0  0
    3.9700   25.5420    8.1470 N   0  0  0  0  0  0  0  0  0  0  0  0
    4.8630   26.0570    7.1120 C   0  0  0  0  0  0  0  0  0  0  0  0
    6.3280   25.6570    7.3320 C   0  0  0  0  0  0  0  0  0  0  0  0
    6.8730   24.8210    6.1810 C   0  0  0  0  0  0  0  0  0  0  0  0
    6.7010   25.5440    4.9010 N   0  0  0  0  0  0  0  0  0  0  0  0
    7.5440   24.9660    3.5520 S   0  0  0  0  0  0  0  0  0  0  0  0
    6.2200   24.5160    2.4460 C   0  0  0  0  0  0  0  0  0  0  0  0
    8.2560   26.0790    2.9620 O   0  0  0  0  0  0  0  0  0  0  0  0
    8.2310   23.7510    3.9320 O   0  0  0  0  0  0  0  0  0  0  0  0
    5.3880   26.1890    4.6670 C   0  0  0  0  0  0  0  0  0  0  0  0
    4.3550   25.7630    5.7000 C   0  0  0  0  0  0  0  0  0  0  0  0
    2.5460   25.8480    9.9190 N   0  0  0  0  0  0  0  0  0  0  0  0
    1.6620   26.5900   10.6120 C   0  0  0  0  0  0  0  0  0  0  0  0
    1.1610   25.9990   11.7870 N   0  0  0  0  0  0  0  0  0  0  0  0
   -3.1711   26.0915   12.9968 H   0  0  0  0  0  0  0  0  0  0  0  0
   -3.8407   26.7230   11.4542 H   0  0  0  0  0  0  0  0  0  0  0  0
   -2.8350   25.2347   11.4542 H   0  0  0  0  0  0  0  0  0  0  0  0
   -4.1786   27.6196   10.7612 H   0  0  0  0  0  0  0  0  0  0  0  0
   -4.6324   29.4820    9.1535 H   0  0  0  0  0  0  0  0  0  0  0  0
    1.6898   29.3359    8.7159 H   0  0  0  0  0  0  0  0  0  0  0  0
    4.4150   24.9720    8.8610 H   0  0  0  0  0  0  0  0  0  0  0  0
    4.8478   27.1526    7.2093 H   0  0  0  0  0  0  0  0  0  0  0  0
    6.9346   26.5698    7.4257 H   0  0  0  0  0  0  0  0  0  0  0  0
    6.3791   25.0481    8.2467 H   0  0  0  0  0  0  0  0  0  0  0  0
    7.9426   24.6259    6.3477 H   0  0  0  0  0  0  0  0  0  0  0  0
    6.3218   23.8702    6.1342 H   0  0  0  0  0  0  0  0  0  0  0  0
    5.3386   24.2164    3.0320 H   0  0  0  0  0  0  0  0  0  0  0  0
    5.9632   25.3773    1.8118 H   0  0  0  0  0  0  0  0  0  0  0  0
    6.5413   23.6766    1.8118 H   0  0  0  0  0  0  0  0  0  0  0  0
    5.5136   27.2806    4.7188 H   0  0  0  0  0  0  0  0  0  0  0  0
    5.0271   25.8782    3.6754 H   0  0  0  0  0  0  0  0  0  0  0  0
    3.4203   26.3169    5.5281 H   0  0  0  0  0  0  0  0  0  0  0  0
    4.1763   24.6820    5.6022 H   0  0  0  0  0  0  0  0  0  0  0  0
    0.1450   26.0360   11.7750 H   0  0  0  0  0  0  0  0  0  0  0  0
    1.3760   24.9970   11.7560 H   0  0  0  0  0  0  0  0  0  0  0  0
  1  2  1  0
  2  3  1  0
  3  4  2  0
  4  5  1  0
  5  6  2  0
  6  7  1  0
  6  8  1  0
  8  9  1  0
  8 10  2  0
 10 11  1  0
 11 12  2  0
 11 13  1  0
 13 14  2  0
 14 15  1  0
 15 16  2  0
 16 17  1  0
 17 18  1  0
 18 19  1  0
 19 20  1  0
 20 21  1  0
 21 22  1  0
 22 23  1  0
 22 24  2  0
 22 25  2  0
 21 26  1  0
 26 27  1  0
 16 28  1  0
 28 29  2  0
 29 30  1  0
 10  3  1  0
 29 13  1  0
 27 18  1  0
  1 31  1  0
  1 32  1  0
  1 33  1  0
  4 34  1  0
  5 35  1  0
 14 36  1  0
 17 37  1  0
 18 38  1  0
 19 39  1  0
 19 40  1  0
 20 41  1  0
 20 42  1  0
 23 43  1  0
 23 44  1  0
 23 45  1  0
 26 46  1  0
 26 47  1  0
 27 48  1  0
 27 49  1  0
 30 50  1  0
 30 51  1  0
M  END
>  <meeko>  (9) 
{"is_sidechain": [false], "free_energy": -8.007, "intermolecular_energy": -10.868, "internal_energy": -1.412}

$$$$
