3d4z_ligand
     RDKit          3D

 27 28  0  0  0  0  0  0  0  0999 V2000
   28.8570   65.1350    6.0100 O   0  0  0  0  0  0  0  0  0  0  0  0
   28.4940   66.3030    6.7460 C   0  0  0  0  0  0  0  0  0  0  0  0
   29.5850   66.6750    7.7760 C   0  0  2  0  0  0  0  0  0  0  0  0
   30.9810   66.2680    7.2140 C   0  0  1  0  0  0  0  0  0  0  0  0
   31.3530   67.1430    6.1460 O   0  0  0  0  0  0  0  0  0  0  0  0
   32.0670   66.3230    8.3030 C   0  0  2  0  0  0  0  0  0  0  0  0
   33.3400   65.9680    7.7440 O   0  0  0  0  0  0  0  0  0  0  0  0
   31.7360   65.3320    9.4220 C   0  0  1  0  0  0  0  0  0  0  0  0
   32.6310   65.4890   10.5240 O   0  0  0  0  0  0  0  0  0  0  0  0
   30.3120   65.5050    9.8610 C   0  0  0  0  0  0  0  0  0  0  0  0
   29.7670   65.1730   11.0370 N   0  0  0  0  0  0  0  0  0  0  0  0
   28.4500   65.5510   11.0850 C   0  0  0  0  0  0  0  0  0  0  0  0
   28.1760   66.1430    9.8830 C   0  0  0  0  0  0  0  0  0  0  0  0
   29.3430   66.0780    9.1250 N   0  0  0  0  0  0  0  0  0  0  0  0
   28.5620   65.2690    5.0890 H   0  0  0  0  0  0  0  0  0  0  0  0
   28.3602   67.1411    6.0462 H   0  0  0  0  0  0  0  0  0  0  0  0
   27.5588   66.0974    7.2874 H   0  0  0  0  0  0  0  0  0  0  0  0
   29.5514   67.7642    7.9264 H   0  0  0  0  0  0  0  0  0  0  0  0
   30.9009   65.2336    6.8484 H   0  0  0  0  0  0  0  0  0  0  0  0
   32.0210   66.6820    5.6020 H   0  0  0  0  0  0  0  0  0  0  0  0
   32.1052   67.3459    8.7057 H   0  0  0  0  0  0  0  0  0  0  0  0
   33.6840   66.7530    7.2710 H   0  0  0  0  0  0  0  0  0  0  0  0
   31.8605   64.3110    9.0320 H   0  0  0  0  0  0  0  0  0  0  0  0
   33.4110   65.9660   10.1740 H   0  0  0  0  0  0  0  0  0  0  0  0
   30.3110   64.7600   11.7930 H   0  0  0  0  0  0  0  0  0  0  0  0
   27.7526   65.4068   11.9234 H   0  0  0  0  0  0  0  0  0  0  0  0
   27.2176   66.5857    9.5739 H   0  0  0  0  0  0  0  0  0  0  0  0
  1  2  1  0
  2  3  1  0
  3  4  1  0
  4  5  1  0
  4  6  1  0
  6  7  1  0
  6  8  1  0
  8  9  1  0
  8 10  1  0
 10 11  2  0
 11 12  1  0
 12 13  2  0
 13 14  1  0
 14  3  1  0
 14 10  1  0
  1 15  1  0
  2 16  1  0
  2 17  1  0
  3 18  1  1
  4 19  1  6
  5 20  1  0
  6 21  1  1
  7 22  1  0
  8 23  1  6
  9 24  1  0
 11 25  1  0
 12 26  1  0
 13 27  1  0
M  CHG  1  11   1
M  END
>  <meeko>  (1) 
{"is_sidechain": [false], "free_energy": -7.449, "intermolecular_energy": -8.756, "internal_energy": -0.22}

$$$$
3d4z_ligand
     RDKit          3D

 27 28  0  0  0  0  0  0  0  0999 V2000
   29.5210   64.5620   11.8710 O   0  0  0  0  0  0  0  0  0  0  0  0
   29.2320   65.6290   10.9680 C   0  0  0  0  0  0  0  0  0  0  0  0
   29.8470   65.3630    9.5750 C   0  0  2  0  0  0  0  0  0  0  0  0
   31.2900   65.9510    9.5310 C   0  0  1  0  0  0  0  0  0  0  0  0
   32.1670   65.1570   10.3350 O   0  0  0  0  0  0  0  0  0  0  0  0
   31.8390   65.9970    8.0940 C   0  0  2  0  0  0  0  0  0  0  0  0
   33.1750   66.5190    8.0960 O   0  0  0  0  0  0  0  0  0  0  0  0
   30.9640   66.9100    7.2300 C   0  0  1  0  0  0  0  0  0  0  0  0
   31.3460   66.8320    5.8560 O   0  0  0  0  0  0  0  0  0  0  0  0
   29.5170   66.5540    7.4030 C   0  0  0  0  0  0  0  0  0  0  0  0
   28.5060   66.7850    6.5580 N   0  0  0  0  0  0  0  0  0  0  0  0
   27.3390   66.2500    7.0410 C   0  0  0  0  0  0  0  0  0  0  0  0
   27.6510   65.6620    8.2350 C   0  0  0  0  0  0  0  0  0  0  0  0
   29.0070   65.8890    8.4560 N   0  0  0  0  0  0  0  0  0  0  0  0
   29.7340   64.9630   12.7350 H   0  0  0  0  0  0  0  0  0  0  0  0
   28.1412   65.7275   10.8660 H   0  0  0  0  0  0  0  0  0  0  0  0
   29.6685   66.5548   11.3709 H   0  0  0  0  0  0  0  0  0  0  0  0
   29.8882   64.2741    9.4248 H   0  0  0  0  0  0  0  0  0  0  0  0
   31.2398   66.9780    9.9218 H   0  0  0  0  0  0  0  0  0  0  0  0
   31.6150   64.5750   10.8940 H   0  0  0  0  0  0  0  0  0  0  0  0
   31.8353   64.9753    7.6865 H   0  0  0  0  0  0  0  0  0  0  0  0
   33.4960   66.5120    7.1720 H   0  0  0  0  0  0  0  0  0  0  0  0
   31.1111   67.9488    7.5605 H   0  0  0  0  0  0  0  0  0  0  0  0
   31.4090   65.8770    5.6460 H   0  0  0  0  0  0  0  0  0  0  0  0
   28.6410   67.2390    5.6570 H   0  0  0  0  0  0  0  0  0  0  0  0
   26.3491   66.2868    6.5628 H   0  0  0  0  0  0  0  0  0  0  0  0
   26.9624   65.1142    8.8951 H   0  0  0  0  0  0  0  0  0  0  0  0
  1  2  1  0
  2  3  1  0
  3  4  1  0
  4  5  1  0
  4  6  1  0
  6  7  1  0
  6  8  1  0
  8  9  1  0
  8 10  1  0
 10 11  2  0
 11 12  1  0
 12 13  2  0
 13 14  1  0
 14  3  1  0
 14 10  1  0
  1 15  1  0
  2 16  1  0
  2 17  1  0
  3 18  1  6
  4 19  1  1
  5 20  1  0
  6 21  1  6
  7 22  1  0
  8 23  1  1
  9 24  1  0
 11 25  1  0
 12 26  1  0
 13 27  1  0
M  CHG  1  11   1
M  END
>  <meeko>  (2) 
{"is_sidechain": [false], "free_energy": -6.576, "intermolecular_energy": -7.717, "internal_energy": -0.232}

$$$$
3d4z_ligand
     RDKit          3D

 27 28  0  0  0  0  0  0  0  0999 V2000
   27.9820   67.4980   10.3080 O   0  0  0  0  0  0  0  0  0  0  0  0
   27.7260   66.1500    9.9120 C   0  0  0  0  0  0  0  0  0  0  0  0
   28.9990   65.4880    9.3340 C   0  0  2  0  0  0  0  0  0  0  0  0
   30.1840   65.7070   10.3230 C   0  0  1  0  0  0  0  0  0  0  0  0
   30.0040   64.9010   11.4910 O   0  0  0  0  0  0  0  0  0  0  0  0
   31.5340   65.3490    9.6760 C   0  0  2  0  0  0  0  0  0  0  0  0
   32.5960   65.5390   10.6220 O   0  0  0  0  0  0  0  0  0  0  0  0
   31.7920   66.2560    8.4700 C   0  0  1  0  0  0  0  0  0  0  0  0
   32.9490   65.8300    7.7490 O   0  0  0  0  0  0  0  0  0  0  0  0
   30.5860   66.2840    7.5770 C   0  0  0  0  0  0  0  0  0  0  0  0
   30.5350   66.5760    6.2720 N   0  0  0  0  0  0  0  0  0  0  0  0
   29.2590   66.4270    5.7920 C   0  0  0  0  0  0  0  0  0  0  0  0
   28.4950   66.0230    6.8520 C   0  0  0  0  0  0  0  0  0  0  0  0
   29.3360   65.9690    7.9600 N   0  0  0  0  0  0  0  0  0  0  0  0
   28.8480   67.5080   10.7580 H   0  0  0  0  0  0  0  0  0  0  0  0
   27.3887   65.5762   10.7878 H   0  0  0  0  0  0  0  0  0  0  0  0
   26.9506   66.1563    9.1318 H   0  0  0  0  0  0  0  0  0  0  0  0
   28.8022   64.4111    9.2269 H   0  0  0  0  0  0  0  0  0  0  0  0
   30.1941   66.7730   10.5942 H   0  0  0  0  0  0  0  0  0  0  0  0
   29.7690   63.9990   11.1980 H   0  0  0  0  0  0  0  0  0  0  0  0
   31.4993   64.2973    9.3554 H   0  0  0  0  0  0  0  0  0  0  0  0
   33.2480   64.8230   10.4810 H   0  0  0  0  0  0  0  0  0  0  0  0
   31.9815   67.2762    8.8350 H   0  0  0  0  0  0  0  0  0  0  0  0
   32.6330   65.5680    6.8600 H   0  0  0  0  0  0  0  0  0  0  0  0
   31.3670   66.8050    5.7320 H   0  0  0  0  0  0  0  0  0  0  0  0
   28.9180   66.5983    4.7603 H   0  0  0  0  0  0  0  0  0  0  0  0
   27.4210   65.7860    6.8327 H   0  0  0  0  0  0  0  0  0  0  0  0
  1  2  1  0
  2  3  1  0
  3  4  1  0
  4  5  1  0
  4  6  1  0
  6  7  1  0
  6  8  1  0
  8  9  1  0
  8 10  1  0
 10 11  2  0
 11 12  1  0
 12 13  2  0
 13 14  1  0
 14  3  1  0
 14 10  1  0
  1 15  1  0
  2 16  1  0
  2 17  1  0
  3 18  1  6
  4 19  1  1
  5 20  1  0
  6 21  1  6
  7 22  1  0
  8 23  1  1
  9 24  1  0
 11 25  1  0
 12 26  1  0
 13 27  1  0
M  CHG  1  11   1
M  END
>  <meeko>  (3) 
{"is_sidechain": [false], "free_energy": -5.872, "intermolecular_energy": -7.007, "internal_energy": -0.115}

$$$$
3d4z_ligand
     RDKit          3D

 27 28  0  0  0  0  0  0  0  0999 V2000
   33.0150   64.8650   10.6250 O   0  0  0  0  0  0  0  0  0  0  0  0
   31.8840   65.7260   10.4960 C   0  0  0  0  0  0  0  0  0  0  0  0
   31.1260   65.4580    9.1750 C   0  0  2  0  0  0  0  0  0  0  0  0
   31.6940   66.3880    8.0610 C   0  0  1  0  0  0  0  0  0  0  0  0
   33.0020   65.9540    7.6780 O   0  0  0  0  0  0  0  0  0  0  0  0
   30.7900   66.3960    6.8150 C   0  0  2  0  0  0  0  0  0  0  0  0
   31.3570   67.2420    5.8040 O   0  0  0  0  0  0  0  0  0  0  0  0
   29.4050   66.9380    7.1790 C   0  0  1  0  0  0  0  0  0  0  0  0
   28.4960   66.7920    6.0860 O   0  0  0  0  0  0  0  0  0  0  0  0
   28.8840   66.2440    8.4040 C   0  0  0  0  0  0  0  0  0  0  0  0
   27.6110   66.1000    8.7890 N   0  0  0  0  0  0  0  0  0  0  0  0
   27.5330   65.3460    9.9310 C   0  0  0  0  0  0  0  0  0  0  0  0
   28.8180   65.0110   10.2590 C   0  0  0  0  0  0  0  0  0  0  0  0
   29.6450   65.6070    9.3100 N   0  0  0  0  0  0  0  0  0  0  0  0
   33.8070   65.4340   10.6820 H   0  0  0  0  0  0  0  0  0  0  0  0
   31.2028   65.5530   11.3422 H   0  0  0  0  0  0  0  0  0  0  0  0
   32.2376   66.7676   10.4900 H   0  0  0  0  0  0  0  0  0  0  0  0
   31.2907   64.4065    8.8973 H   0  0  0  0  0  0  0  0  0  0  0  0
   31.7364   67.4069    8.4735 H   0  0  0  0  0  0  0  0  0  0  0  0
   33.3940   66.6490    7.1130 H   0  0  0  0  0  0  0  0  0  0  0  0
   30.7046   65.3659    6.4389 H   0  0  0  0  0  0  0  0  0  0  0  0
   31.8850   67.9300    6.2560 H   0  0  0  0  0  0  0  0  0  0  0  0
   29.4969   68.0122    7.3972 H   0  0  0  0  0  0  0  0  0  0  0  0
   27.7480   67.3950    6.2740 H   0  0  0  0  0  0  0  0  0  0  0  0
   26.8310   66.4590    8.2400 H   0  0  0  0  0  0  0  0  0  0  0  0
   26.6190   65.0660   10.4753 H   0  0  0  0  0  0  0  0  0  0  0  0
   29.1370   64.3901   11.1091 H   0  0  0  0  0  0  0  0  0  0  0  0
  1  2  1  0
  2  3  1  0
  3  4  1  0
  4  5  1  0
  4  6  1  0
  6  7  1  0
  6  8  1  0
  8  9  1  0
  8 10  1  0
 10 11  2  0
 11 12  1  0
 12 13  2  0
 13 14  1  0
 14  3  1  0
 14 10  1  0
  1 15  1  0
  2 16  1  0
  2 17  1  0
  3 18  1  6
  4 19  1  1
  5 20  1  0
  6 21  1  6
  7 22  1  0
  8 23  1  1
  9 24  1  0
 11 25  1  0
 12 26  1  0
 13 27  1  0
M  CHG  1  11   1
M  END
>  <meeko>  (4) 
{"is_sidechain": [false], "free_energy": -5.812, "intermolecular_energy": -6.827, "internal_energy": -0.225}

$$$$
3d4z_ligand
     RDKit          3D

 27 28  0  0  0  0  0  0  0  0999 V2000
   31.3500   67.0120    5.7320 O   0  0  0  0  0  0  0  0  0  0  0  0
   30.1890   66.3630    6.2520 C   0  0  0  0  0  0  0  0  0  0  0  0
   30.1070   66.5160    7.7890 C   0  0  2  0  0  0  0  0  0  0  0  0
   31.3520   65.8400    8.4380 C   0  0  1  0  0  0  0  0  0  0  0  0
   32.5230   66.6210    8.1830 O   0  0  0  0  0  0  0  0  0  0  0  0
   31.1820   65.6830    9.9590 C   0  0  2  0  0  0  0  0  0  0  0  0
   32.3550   65.0810   10.5250 O   0  0  0  0  0  0  0  0  0  0  0  0
   29.9820   64.7800   10.2610 C   0  0  1  0  0  0  0  0  0  0  0  0
   29.6960   64.7610   11.6600 O   0  0  0  0  0  0  0  0  0  0  0  0
   28.7850   65.2330    9.4760 C   0  0  0  0  0  0  0  0  0  0  0  0
   27.4930   65.0180    9.7500 N   0  0  0  0  0  0  0  0  0  0  0  0
   26.6920   65.6490    8.8320 C   0  0  0  0  0  0  0  0  0  0  0  0
   27.5340   66.2800    7.9580 C   0  0  0  0  0  0  0  0  0  0  0  0
   28.8330   65.9820    8.3610 N   0  0  0  0  0  0  0  0  0  0  0  0
   31.1950   67.9740    5.7910 H   0  0  0  0  0  0  0  0  0  0  0  0
   29.2930   66.8115    5.7980 H   0  0  0  0  0  0  0  0  0  0  0  0
   30.2498   65.2916    6.0103 H   0  0  0  0  0  0  0  0  0  0  0  0
   30.1072   67.5906    8.0240 H   0  0  0  0  0  0  0  0  0  0  0  0
   31.4554   64.8409    7.9897 H   0  0  0  0  0  0  0  0  0  0  0  0
   33.1250   66.5130    8.9450 H   0  0  0  0  0  0  0  0  0  0  0  0
   31.0230   66.6801   10.3954 H   0  0  0  0  0  0  0  0  0  0  0  0
   32.9840   65.8010   10.7350 H   0  0  0  0  0  0  0  0  0  0  0  0
   30.2326   63.7529    9.9572 H   0  0  0  0  0  0  0  0  0  0  0  0
   28.7240   64.8500   11.7380 H   0  0  0  0  0  0  0  0  0  0  0  0
   27.1880   64.5090   10.5780 H   0  0  0  0  0  0  0  0  0  0  0  0
   25.5923   65.6477    8.8044 H   0  0  0  0  0  0  0  0  0  0  0  0
   27.2409   66.9037    7.1006 H   0  0  0  0  0  0  0  0  0  0  0  0
  1  2  1  0
  2  3  1  0
  3  4  1  0
  4  5  1  0
  4  6  1  0
  6  7  1  0
  6  8  1  0
  8  9  1  0
  8 10  1  0
 10 11  2  0
 11 12  1  0
 12 13  2  0
 13 14  1  0
 14  3  1  0
 14 10  1  0
  1 15  1  0
  2 16  1  0
  2 17  1  0
  3 18  1  6
  4 19  1  6
  5 20  1  0
  6 21  1  1
  7 22  1  0
  8 23  1  6
  9 24  1  0
 11 25  1  0
 12 26  1  0
 13 27  1  0
M  CHG  1  11   1
M  END
>  <meeko>  (5) 
{"is_sidechain": [false], "free_energy": -5.394, "intermolecular_energy": -6.332, "internal_energy": -0.227}

$$$$
3d4z_ligand
     RDKit          3D

 27 28  0  0  0  0  0  0  0  0999 V2000
   26.5580   66.6270    8.7310 O   0  0  0  0  0  0  0  0  0  0  0  0
   27.3230   66.1080    7.6430 C   0  0  0  0  0  0  0  0  0  0  0  0
   28.5720   65.3510    8.1510 C   0  0  2  0  0  0  0  0  0  0  0  0
   28.5290   65.2790    9.7080 C   0  0  1  0  0  0  0  0  0  0  0  0
   27.5100   64.3670   10.1290 O   0  0  0  0  0  0  0  0  0  0  0  0
   29.8770   64.8190   10.2900 C   0  0  2  0  0  0  0  0  0  0  0  0
   29.7920   64.7400   11.7200 O   0  0  0  0  0  0  0  0  0  0  0  0
   30.9740   65.8230    9.9250 C   0  0  1  0  0  0  0  0  0  0  0  0
   32.2620   65.3320   10.3010 O   0  0  0  0  0  0  0  0  0  0  0  0
   30.9270   66.1290    8.4570 C   0  0  0  0  0  0  0  0  0  0  0  0
   31.9150   66.5850    7.6790 N   0  0  0  0  0  0  0  0  0  0  0  0
   31.5020   66.6760    6.3740 C   0  0  0  0  0  0  0  0  0  0  0  0
   30.2010   66.2550    6.3530 C   0  0  0  0  0  0  0  0  0  0  0  0
   29.8540   65.9470    7.6660 N   0  0  0  0  0  0  0  0  0  0  0  0
   26.8690   67.5380    8.8950 H   0  0  0  0  0  0  0  0  0  0  0  0
   26.6961   65.4166    7.0608 H   0  0  0  0  0  0  0  0  0  0  0  0
   27.6553   66.9494    7.0172 H   0  0  0  0  0  0  0  0  0  0  0  0
   28.5449   64.3336    7.7336 H   0  0  0  0  0  0  0  0  0  0  0  0
   28.3112   66.2914   10.0789 H   0  0  0  0  0  0  0  0  0  0  0  0
   27.5050   63.6160    9.5040 H   0  0  0  0  0  0  0  0  0  0  0  0
   30.1176   63.8303    9.8722 H   0  0  0  0  0  0  0  0  0  0  0  0
   29.8820   65.6480   12.0720 H   0  0  0  0  0  0  0  0  0  0  0  0
   30.7941   66.7537   10.4831 H   0  0  0  0  0  0  0  0  0  0  0  0
   32.7010   65.0610    9.4690 H   0  0  0  0  0  0  0  0  0  0  0  0
   32.8530   66.7610    8.0350 H   0  0  0  0  0  0  0  0  0  0  0  0
   32.0983   67.0191    5.5157 H   0  0  0  0  0  0  0  0  0  0  0  0
   29.5526   66.1750    5.4681 H   0  0  0  0  0  0  0  0  0  0  0  0
  1  2  1  0
  2  3  1  0
  3  4  1  0
  4  5  1  0
  4  6  1  0
  6  7  1  0
  6  8  1  0
  8  9  1  0
  8 10  1  0
 10 11  2  0
 11 12  1  0
 12 13  2  0
 13 14  1  0
 14  3  1  0
 14 10  1  0
  1 15  1  0
  2 16  1  0
  2 17  1  0
  3 18  1  6
  4 19  1  1
  5 20  1  0
  6 21  1  6
  7 22  1  0
  8 23  1  1
  9 24  1  0
 11 25  1  0
 12 26  1  0
 13 27  1  0
M  CHG  1  11   1
M  END
>  <meeko>  (6) 
{"is_sidechain": [false], "free_energy": -5.124, "intermolecular_energy": -5.988, "internal_energy": -0.255}

$$$$
3d4z_ligand
     RDKit          3D

 27 28  0  0  0  0  0  0  0  0999 V2000
   32.8820   65.1450    9.1200 O   0  0  0  0  0  0  0  0  0  0  0  0
   31.8910   65.1460   10.1480 C   0  0  0  0  0  0  0  0  0  0  0  0
   30.6610   65.9870    9.7360 C   0  0  2  0  0  0  0  0  0  0  0  0
   29.3700   65.3140   10.2940 C   0  0  1  0  0  0  0  0  0  0  0  0
   29.3070   65.4770   11.7140 O   0  0  0  0  0  0  0  0  0  0  0  0
   28.1010   65.9180    9.6680 C   0  0  2  0  0  0  0  0  0  0  0  0
   26.9350   65.2930   10.2240 O   0  0  0  0  0  0  0  0  0  0  0  0
   28.1020   65.6830    8.1550 C   0  0  1  0  0  0  0  0  0  0  0  0
   27.0270   66.3850    7.5290 O   0  0  0  0  0  0  0  0  0  0  0  0
   29.4210   66.0940    7.5690 C   0  0  0  0  0  0  0  0  0  0  0  0
   29.6860   66.4510    6.3070 N   0  0  0  0  0  0  0  0  0  0  0  0
   30.9990   66.8240    6.1740 C   0  0  0  0  0  0  0  0  0  0  0  0
   31.5630   66.6900    7.4130 C   0  0  0  0  0  0  0  0  0  0  0  0
   30.5700   66.2060    8.2600 N   0  0  0  0  0  0  0  0  0  0  0  0
   33.7470   65.0110    9.5510 H   0  0  0  0  0  0  0  0  0  0  0  0
   31.5707   64.1111   10.3390 H   0  0  0  0  0  0  0  0  0  0  0  0
   32.3290   65.5893   11.0545 H   0  0  0  0  0  0  0  0  0  0  0  0
   30.7737   66.9894   10.1748 H   0  0  0  0  0  0  0  0  0  0  0  0
   29.4165   64.2460   10.0347 H   0  0  0  0  0  0  0  0  0  0  0  0
   28.4200   65.1910   12.0080 H   0  0  0  0  0  0  0  0  0  0  0  0
   28.0868   66.9971    9.8811 H   0  0  0  0  0  0  0  0  0  0  0  0
   26.8620   64.4010    9.8280 H   0  0  0  0  0  0  0  0  0  0  0  0
   27.9551   64.6089    7.9686 H   0  0  0  0  0  0  0  0  0  0  0  0
   27.3220   67.3150    7.4460 H   0  0  0  0  0  0  0  0  0  0  0  0
   28.9640   66.4930    5.5900 H   0  0  0  0  0  0  0  0  0  0  0  0
   31.4988   67.1632    5.2547 H   0  0  0  0  0  0  0  0  0  0  0  0
   32.6029   66.9207    7.6876 H   0  0  0  0  0  0  0  0  0  0  0  0
  1  2  1  0
  2  3  1  0
  3  4  1  0
  4  5  1  0
  4  6  1  0
  6  7  1  0
  6  8  1  0
  8  9  1  0
  8 10  1  0
 10 11  2  0
 11 12  1  0
 12 13  2  0
 13 14  1  0
 14  3  1  0
 14 10  1  0
  1 15  1  0
  2 16  1  0
  2 17  1  0
  3 18  1  1
  4 19  1  1
  5 20  1  0
  6 21  1  6
  7 22  1  0
  8 23  1  1
  9 24  1  0
 11 25  1  0
 12 26  1  0
 13 27  1  0
M  CHG  1  11   1
M  END
>  <meeko>  (7) 
{"is_sidechain": [false], "free_energy": -4.667, "intermolecular_energy": -6.383, "internal_energy": 0.677}

$$$$
