3rsx_ligand
     RDKit          3D

 26 28  0  0  0  0  0  0  0  0999 V2000
   73.5970   50.7580   14.2990 N   0  0  0  0  0  0  0  0  0  0  0  0
   72.4560   50.7110   13.5010 C   0  0  0  0  0  0  0  0  0  0  0  0
   71.4290   51.6180   13.6930 C   0  0  0  0  0  0  0  0  0  0  0  0
   70.2990   51.5260   12.8880 C   0  0  0  0  0  0  0  0  0  0  0  0
   70.2250   50.5220   11.9160 C   0  0  0  0  0  0  0  0  0  0  0  0
   69.1030   50.3830   11.0770 C   0  0  0  0  0  0  0  0  0  0  0  0
   69.0500   49.3650   10.1190 C   0  0  0  0  0  0  0  0  0  0  0  0
   67.8850   49.2350    9.2510 C   0  0  0  0  0  0  0  0  0  0  0  0
   66.5080   49.2300    9.6470 C   0  0  0  0  0  0  0  0  0  0  0  0
   65.6500   49.0780    8.5800 C   0  0  0  0  0  0  0  0  0  0  0  0
   66.4900   48.9280    7.1000 S   0  0  0  0  0  0  0  0  0  0  0  0
   68.0050   49.0680    7.8840 C   0  0  0  0  0  0  0  0  0  0  0  0
   70.1340   48.4920   10.0070 C   0  0  0  0  0  0  0  0  0  0  0  0
   71.2470   48.6370   10.8450 C   0  0  0  0  0  0  0  0  0  0  0  0
   71.3170   49.6390   11.8030 C   0  0  0  0  0  0  0  0  0  0  0  0
   72.4080   49.7340   12.5820 N   0  0  0  0  0  0  0  0  0  0  0  0
   73.2820   50.9260   15.2520 H   0  0  0  0  0  0  0  0  0  0  0  0
   74.1370   49.9040   14.2270 H   0  0  0  0  0  0  0  0  0  0  0  0
   71.5049   52.3961   14.4668 H   0  0  0  0  0  0  0  0  0  0  0  0
   69.4694   52.2372   13.0143 H   0  0  0  0  0  0  0  0  0  0  0  0
   68.2594   51.0820   11.1758 H   0  0  0  0  0  0  0  0  0  0  0  0
   66.1726   49.3360   10.6892 H   0  0  0  0  0  0  0  0  0  0  0  0
   64.5539   49.0558    8.6703 H   0  0  0  0  0  0  0  0  0  0  0  0
   68.9698   49.0293    7.3571 H   0  0  0  0  0  0  0  0  0  0  0  0
   70.1138   47.6871    9.2576 H   0  0  0  0  0  0  0  0  0  0  0  0
   72.0892   47.9371   10.7410 H   0  0  0  0  0  0  0  0  0  0  0  0
  1  2  1  0
  2  3  2  0
  3  4  1  0
  4  5  2  0
  5  6  1  0
  6  7  2  0
  7  8  1  0
  8  9  1  0
  9 10  2  0
 10 11  1  0
 11 12  1  0
  7 13  1  0
 13 14  2  0
 14 15  1  0
 15 16  2  0
 16  2  1  0
 15  5  1  0
 12  8  2  0
  1 17  1  0
  1 18  1  0
  3 19  1  0
  4 20  1  0
  6 21  1  0
  9 22  1  0
 10 23  1  0
 12 24  1  0
 13 25  1  0
 14 26  1  0
M  END
>  <meeko>  (1) 
{"is_sidechain": [false], "free_energy": -7.31, "intermolecular_energy": -7.951, "internal_energy": -0.162}

$$$$
3rsx_ligand
     RDKit          3D

 26 28  0  0  0  0  0  0  0  0999 V2000
   67.1720   48.4910    5.8130 N   0  0  0  0  0  0  0  0  0  0  0  0
   67.6790   48.7820    7.0770 C   0  0  0  0  0  0  0  0  0  0  0  0
   66.8550   48.7470    8.1890 C   0  0  0  0  0  0  0  0  0  0  0  0
   67.3960   49.0630    9.4290 C   0  0  0  0  0  0  0  0  0  0  0  0
   68.7470   49.4140    9.5240 C   0  0  0  0  0  0  0  0  0  0  0  0
   69.3430   49.7450   10.7550 C   0  0  0  0  0  0  0  0  0  0  0  0
   70.6940   50.1010   10.8220 C   0  0  0  0  0  0  0  0  0  0  0  0
   71.3030   50.4360   12.1040 C   0  0  0  0  0  0  0  0  0  0  0  0
   70.8900   51.4620   13.0150 C   0  0  0  0  0  0  0  0  0  0  0  0
   71.6860   51.5270   14.1370 C   0  0  0  0  0  0  0  0  0  0  0  0
   72.9390   50.3660   14.1010 S   0  0  0  0  0  0  0  0  0  0  0  0
   72.4180   49.7730   12.5810 C   0  0  0  0  0  0  0  0  0  0  0  0
   71.4420   50.1160    9.6420 C   0  0  0  0  0  0  0  0  0  0  0  0
   70.8430   49.7850    8.4210 C   0  0  0  0  0  0  0  0  0  0  0  0
   69.5030   49.4320    8.3360 C   0  0  0  0  0  0  0  0  0  0  0  0
   68.9760   49.1230    7.1370 N   0  0  0  0  0  0  0  0  0  0  0  0
   67.8910   47.9610    5.3240 H   0  0  0  0  0  0  0  0  0  0  0  0
   66.3000   47.9780    5.8700 H   0  0  0  0  0  0  0  0  0  0  0  0
   65.7936   48.4746    8.0927 H   0  0  0  0  0  0  0  0  0  0  0  0
   66.7661   49.0374   10.3304 H   0  0  0  0  0  0  0  0  0  0  0  0
   68.7398   49.7235   11.6746 H   0  0  0  0  0  0  0  0  0  0  0  0
   70.0307   52.1255   12.8375 H   0  0  0  0  0  0  0  0  0  0  0  0
   71.5332   52.2418   14.9590 H   0  0  0  0  0  0  0  0  0  0  0  0
   72.9167   48.9534   12.0428 H   0  0  0  0  0  0  0  0  0  0  0  0
   72.5071   50.3893    9.6727 H   0  0  0  0  0  0  0  0  0  0  0  0
   71.4503   49.8051    7.5041 H   0  0  0  0  0  0  0  0  0  0  0  0
  1  2  1  0
  2  3  2  0
  3  4  1  0
  4  5  2  0
  5  6  1  0
  6  7  2  0
  7  8  1  0
  8  9  1  0
  9 10  2  0
 10 11  1  0
 11 12  1  0
  7 13  1  0
 13 14  2  0
 14 15  1  0
 15 16  2  0
 16  2  1  0
 15  5  1  0
 12  8  2  0
  1 17  1  0
  1 18  1  0
  3 19  1  0
  4 20  1  0
  6 21  1  0
  9 22  1  0
 10 23  1  0
 12 24  1  0
 13 25  1  0
 14 26  1  0
M  END
>  <meeko>  (2) 
{"is_sidechain": [false], "free_energy": -7.293, "intermolecular_energy": -7.935, "internal_energy": -0.158}

$$$$
3rsx_ligand
     RDKit          3D

 26 28  0  0  0  0  0  0  0  0999 V2000
   66.2370   48.6140    6.3540 N   0  0  0  0  0  0  0  0  0  0  0  0
   67.1580   48.7240    7.3930 C   0  0  0  0  0  0  0  0  0  0  0  0
   67.8870   47.6210    7.8050 C   0  0  0  0  0  0  0  0  0  0  0  0
   68.7810   47.7680    8.8580 C   0  0  0  0  0  0  0  0  0  0  0  0
   68.9180   49.0150    9.4770 C   0  0  0  0  0  0  0  0  0  0  0  0
   69.8090   49.2170   10.5490 C   0  0  0  0  0  0  0  0  0  0  0  0
   69.9210   50.4720   11.1570 C   0  0  0  0  0  0  0  0  0  0  0  0
   70.8510   50.6720   12.2620 C   0  0  0  0  0  0  0  0  0  0  0  0
   70.8580   51.7540   13.2010 C   0  0  0  0  0  0  0  0  0  0  0  0
   71.8790   51.6530   14.1210 C   0  0  0  0  0  0  0  0  0  0  0  0
   72.8420   50.2660   13.8560 S   0  0  0  0  0  0  0  0  0  0  0  0
   71.8930   49.7980   12.5110 C   0  0  0  0  0  0  0  0  0  0  0  0
   69.1360   51.5230   10.6760 C   0  0  0  0  0  0  0  0  0  0  0  0
   68.2540   51.3150    9.6090 C   0  0  0  0  0  0  0  0  0  0  0  0
   68.1270   50.0760    8.9950 C   0  0  0  0  0  0  0  0  0  0  0  0
   67.2640   49.9300    7.9740 N   0  0  0  0  0  0  0  0  0  0  0  0
   65.9770   47.6320    6.2950 H   0  0  0  0  0  0  0  0  0  0  0  0
   65.4310   49.2080    6.5070 H   0  0  0  0  0  0  0  0  0  0  0  0
   67.7606   46.6477    7.3082 H   0  0  0  0  0  0  0  0  0  0  0  0
   69.3769   46.9100    9.2026 H   0  0  0  0  0  0  0  0  0  0  0  0
   70.4230   48.3795   10.9118 H   0  0  0  0  0  0  0  0  0  0  0  0
   70.1275   52.5763   13.1889 H   0  0  0  0  0  0  0  0  0  0  0  0
   72.0534   52.3784   14.9294 H   0  0  0  0  0  0  0  0  0  0  0  0
   72.0907   48.8986   11.9093 H   0  0  0  0  0  0  0  0  0  0  0  0
   69.2114   52.5185   11.1379 H   0  0  0  0  0  0  0  0  0  0  0  0
   67.6447   52.1563    9.2470 H   0  0  0  0  0  0  0  0  0  0  0  0
  1  2  1  0
  2  3  2  0
  3  4  1  0
  4  5  2  0
  5  6  1  0
  6  7  2  0
  7  8  1  0
  8  9  1  0
  9 10  2  0
 10 11  1  0
 11 12  1  0
  7 13  1  0
 13 14  2  0
 14 15  1  0
 15 16  2  0
 16  2  1  0
 15  5  1  0
 12  8  2  0
  1 17  1  0
  1 18  1  0
  3 19  1  0
  4 20  1  0
  6 21  1  0
  9 22  1  0
 10 23  1  0
 12 24  1  0
 13 25  1  0
 14 26  1  0
M  END
>  <meeko>  (3) 
{"is_sidechain": [false], "free_energy": -7.158, "intermolecular_energy": -7.777, "internal_energy": -0.17}

$$$$
3rsx_ligand
     RDKit          3D

 26 28  0  0  0  0  0  0  0  0999 V2000
   64.8730   55.2770   10.8140 N   0  0  0  0  0  0  0  0  0  0  0  0
   66.1010   54.6180   10.8000 C   0  0  0  0  0  0  0  0  0  0  0  0
   67.2420   55.2710   10.3700 C   0  0  0  0  0  0  0  0  0  0  0  0
   68.4440   54.5720   10.3520 C   0  0  0  0  0  0  0  0  0  0  0  0
   68.4680   53.2340   10.7590 C   0  0  0  0  0  0  0  0  0  0  0  0
   69.6570   52.4800   10.7590 C   0  0  0  0  0  0  0  0  0  0  0  0
   69.6550   51.1410   11.1620 C   0  0  0  0  0  0  0  0  0  0  0  0
   70.8940   50.3710   11.1630 C   0  0  0  0  0  0  0  0  0  0  0  0
   71.7210   50.0680   12.2930 C   0  0  0  0  0  0  0  0  0  0  0  0
   72.8320   49.3280   11.9530 C   0  0  0  0  0  0  0  0  0  0  0  0
   72.8960   49.0030   10.2770 S   0  0  0  0  0  0  0  0  0  0  0  0
   71.4340   49.8520   10.0020 C   0  0  0  0  0  0  0  0  0  0  0  0
   68.4490   50.5670   11.5710 C   0  0  0  0  0  0  0  0  0  0  0  0
   67.2700   51.3220   11.5700 C   0  0  0  0  0  0  0  0  0  0  0  0
   67.2530   52.6520   11.1700 C   0  0  0  0  0  0  0  0  0  0  0  0
   66.0940   53.3330   11.1880 N   0  0  0  0  0  0  0  0  0  0  0  0
   64.5100   55.2000   11.7620 H   0  0  0  0  0  0  0  0  0  0  0  0
   64.9660   56.2430   10.5240 H   0  0  0  0  0  0  0  0  0  0  0  0
   67.1994   56.3222   10.0487 H   0  0  0  0  0  0  0  0  0  0  0  0
   69.3685   55.0673   10.0204 H   0  0  0  0  0  0  0  0  0  0  0  0
   70.5985   52.9497   10.4382 H   0  0  0  0  0  0  0  0  0  0  0  0
   71.4937   50.3909   13.3197 H   0  0  0  0  0  0  0  0  0  0  0  0
   73.5884   48.9867   12.6751 H   0  0  0  0  0  0  0  0  0  0  0  0
   70.9751   49.9710    9.0094 H   0  0  0  0  0  0  0  0  0  0  0  0
   68.4255   49.5162   11.8956 H   0  0  0  0  0  0  0  0  0  0  0  0
   66.3315   50.8490   11.8949 H   0  0  0  0  0  0  0  0  0  0  0  0
  1  2  1  0
  2  3  2  0
  3  4  1  0
  4  5  2  0
  5  6  1  0
  6  7  2  0
  7  8  1  0
  8  9  1  0
  9 10  2  0
 10 11  1  0
 11 12  1  0
  7 13  1  0
 13 14  2  0
 14 15  1  0
 15 16  2  0
 16  2  1  0
 15  5  1  0
 12  8  2  0
  1 17  1  0
  1 18  1  0
  3 19  1  0
  4 20  1  0
  6 21  1  0
  9 22  1  0
 10 23  1  0
 12 24  1  0
 13 25  1  0
 14 26  1  0
M  END
>  <meeko>  (4) 
{"is_sidechain": [false], "free_energy": -7.016, "intermolecular_energy": -7.639, "internal_energy": -0.153}

$$$$
3rsx_ligand
     RDKit          3D

 26 28  0  0  0  0  0  0  0  0999 V2000
   73.5470   50.7680   14.2150 N   0  0  0  0  0  0  0  0  0  0  0  0
   72.6330   50.3310   13.2580 C   0  0  0  0  0  0  0  0  0  0  0  0
   72.9600   49.2970   12.3980 C   0  0  0  0  0  0  0  0  0  0  0  0
   72.0270   48.9040   11.4450 C   0  0  0  0  0  0  0  0  0  0  0  0
   70.7940   49.5610   11.3740 C   0  0  0  0  0  0  0  0  0  0  0  0
   69.8160   49.2030   10.4280 C   0  0  0  0  0  0  0  0  0  0  0  0
   68.5940   49.8820   10.3710 C   0  0  0  0  0  0  0  0  0  0  0  0
   67.5850   49.4990    9.3900 C   0  0  0  0  0  0  0  0  0  0  0  0
   66.2110   49.1820    9.6430 C   0  0  0  0  0  0  0  0  0  0  0  0
   65.5240   48.8480    8.4960 C   0  0  0  0  0  0  0  0  0  0  0  0
   66.5260   48.8990    7.1130 S   0  0  0  0  0  0  0  0  0  0  0  0
   67.8820   49.3720    8.0460 C   0  0  0  0  0  0  0  0  0  0  0  0
   68.3610   50.9190   11.2780 C   0  0  0  0  0  0  0  0  0  0  0  0
   69.3380   51.2690   12.2170 C   0  0  0  0  0  0  0  0  0  0  0  0
   70.5570   50.6090   12.2860 C   0  0  0  0  0  0  0  0  0  0  0  0
   71.4620   50.9840   13.2080 N   0  0  0  0  0  0  0  0  0  0  0  0
   73.2030   51.6600   14.5630 H   0  0  0  0  0  0  0  0  0  0  0  0
   73.6590   50.0910   14.9600 H   0  0  0  0  0  0  0  0  0  0  0  0
   73.9373   48.7968   12.4670 H   0  0  0  0  0  0  0  0  0  0  0  0
   72.2569   48.0818   10.7514 H   0  0  0  0  0  0  0  0  0  0  0  0
   70.0143   48.3802    9.7254 H   0  0  0  0  0  0  0  0  0  0  0  0
   65.7543   49.2029   10.6435 H   0  0  0  0  0  0  0  0  0  0  0  0
   64.4573   48.5804    8.4735 H   0  0  0  0  0  0  0  0  0  0  0  0
   68.8804   49.5548    7.6220 H   0  0  0  0  0  0  0  0  0  0  0  0
   67.4052   51.4629   11.2539 H   0  0  0  0  0  0  0  0  0  0  0  0
   69.1341   52.0901   12.9200 H   0  0  0  0  0  0  0  0  0  0  0  0
  1  2  1  0
  2  3  2  0
  3  4  1  0
  4  5  2  0
  5  6  1  0
  6  7  2  0
  7  8  1  0
  8  9  1  0
  9 10  2  0
 10 11  1  0
 11 12  1  0
  7 13  1  0
 13 14  2  0
 14 15  1  0
 15 16  2  0
 16  2  1  0
 15  5  1  0
 12  8  2  0
  1 17  1  0
  1 18  1  0
  3 19  1  0
  4 20  1  0
  6 21  1  0
  9 22  1  0
 10 23  1  0
 12 24  1  0
 13 25  1  0
 14 26  1  0
M  END
>  <meeko>  (5) 
{"is_sidechain": [false], "free_energy": -6.963, "intermolecular_energy": -7.575, "internal_energy": -0.16}

$$$$
3rsx_ligand
     RDKit          3D

 26 28  0  0  0  0  0  0  0  0999 V2000
   73.7370   47.4050   10.9490 N   0  0  0  0  0  0  0  0  0  0  0  0
   72.8550   48.4670   11.1310 C   0  0  0  0  0  0  0  0  0  0  0  0
   72.6050   48.9620   12.3990 C   0  0  0  0  0  0  0  0  0  0  0  0
   71.7030   50.0100   12.5390 C   0  0  0  0  0  0  0  0  0  0  0  0
   71.0680   50.5300   11.4060 C   0  0  0  0  0  0  0  0  0  0  0  0
   70.1450   51.5890   11.4940 C   0  0  0  0  0  0  0  0  0  0  0  0
   69.5170   52.0860   10.3470 C   0  0  0  0  0  0  0  0  0  0  0  0
   68.5670   53.1870   10.4480 C   0  0  0  0  0  0  0  0  0  0  0  0
   68.6280   54.4470    9.7680 C   0  0  0  0  0  0  0  0  0  0  0  0
   67.5780   55.2770   10.0910 C   0  0  0  0  0  0  0  0  0  0  0  0
   66.5180   54.5560   11.2220 S   0  0  0  0  0  0  0  0  0  0  0  0
   67.4640   53.1290   11.2790 C   0  0  0  0  0  0  0  0  0  0  0  0
   69.8280   51.5130    9.1110 C   0  0  0  0  0  0  0  0  0  0  0  0
   70.7480   50.4600    9.0310 C   0  0  0  0  0  0  0  0  0  0  0  0
   71.3790   49.9530   10.1590 C   0  0  0  0  0  0  0  0  0  0  0  0
   72.2540   48.9410   10.0280 N   0  0  0  0  0  0  0  0  0  0  0  0
   74.3120   47.3530   11.7880 H   0  0  0  0  0  0  0  0  0  0  0  0
   73.2450   46.5360   10.7760 H   0  0  0  0  0  0  0  0  0  0  0  0
   73.1098   48.5347   13.2780 H   0  0  0  0  0  0  0  0  0  0  0  0
   71.4898   50.4278   13.5340 H   0  0  0  0  0  0  0  0  0  0  0  0
   69.9151   52.0304   12.4749 H   0  0  0  0  0  0  0  0  0  0  0  0
   69.4274   54.7214    9.0640 H   0  0  0  0  0  0  0  0  0  0  0  0
   67.4379   56.2841    9.6713 H   0  0  0  0  0  0  0  0  0  0  0  0
   67.2201   52.2607   11.9087 H   0  0  0  0  0  0  0  0  0  0  0  0
   69.3479   51.8909    8.1963 H   0  0  0  0  0  0  0  0  0  0  0  0
   70.9768   50.0228    8.0479 H   0  0  0  0  0  0  0  0  0  0  0  0
  1  2  1  0
  2  3  2  0
  3  4  1  0
  4  5  2  0
  5  6  1  0
  6  7  2  0
  7  8  1  0
  8  9  1  0
  9 10  2  0
 10 11  1  0
 11 12  1  0
  7 13  1  0
 13 14  2  0
 14 15  1  0
 15 16  2  0
 16  2  1  0
 15  5  1  0
 12  8  2  0
  1 17  1  0
  1 18  1  0
  3 19  1  0
  4 20  1  0
  6 21  1  0
  9 22  1  0
 10 23  1  0
 12 24  1  0
 13 25  1  0
 14 26  1  0
M  END
>  <meeko>  (6) 
{"is_sidechain": [false], "free_energy": -6.834, "intermolecular_energy": -7.437, "internal_energy": -0.159}

$$$$
3rsx_ligand
     RDKit          3D

 26 28  0  0  0  0  0  0  0  0999 V2000
   73.7670   47.3620   11.0840 N   0  0  0  0  0  0  0  0  0  0  0  0
   72.8780   48.3790   10.7450 C   0  0  0  0  0  0  0  0  0  0  0  0
   72.5880   48.6440    9.4180 C   0  0  0  0  0  0  0  0  0  0  0  0
   71.7110   49.6810    9.1220 C   0  0  0  0  0  0  0  0  0  0  0  0
   71.1520   50.4300   10.1630 C   0  0  0  0  0  0  0  0  0  0  0  0
   70.2600   51.4910    9.9180 C   0  0  0  0  0  0  0  0  0  0  0  0
   69.7210   52.2310   10.9760 C   0  0  0  0  0  0  0  0  0  0  0  0
   68.7930   53.3240   10.7110 C   0  0  0  0  0  0  0  0  0  0  0  0
   68.9690   54.4000    9.7810 C   0  0  0  0  0  0  0  0  0  0  0  0
   67.9070   55.2770    9.7780 C   0  0  0  0  0  0  0  0  0  0  0  0
   66.6990   54.8220   10.8980 S   0  0  0  0  0  0  0  0  0  0  0  0
   67.5950   53.4480   11.3880 C   0  0  0  0  0  0  0  0  0  0  0  0
   70.0820   51.8920   12.2830 C   0  0  0  0  0  0  0  0  0  0  0  0
   70.9690   50.8350   12.5190 C   0  0  0  0  0  0  0  0  0  0  0  0
   71.5160   50.0920   11.4820 C   0  0  0  0  0  0  0  0  0  0  0  0
   72.3630   49.0870   11.7640 N   0  0  0  0  0  0  0  0  0  0  0  0
   74.0530   46.9190   10.2130 H   0  0  0  0  0  0  0  0  0  0  0  0
   74.5610   47.7180   11.6030 H   0  0  0  0  0  0  0  0  0  0  0  0
   73.0422   48.0463    8.6140 H   0  0  0  0  0  0  0  0  0  0  0  0
   71.4582   49.9111    8.0765 H   0  0  0  0  0  0  0  0  0  0  0  0
   69.9836   51.7411    8.8831 H   0  0  0  0  0  0  0  0  0  0  0  0
   69.8555   54.5131    9.1396 H   0  0  0  0  0  0  0  0  0  0  0  0
   67.8439   56.1648    9.1316 H   0  0  0  0  0  0  0  0  0  0  0  0
   67.2539   52.7406   12.1583 H   0  0  0  0  0  0  0  0  0  0  0  0
   69.6673   52.4583   13.1300 H   0  0  0  0  0  0  0  0  0  0  0  0
   71.2402   50.5862   13.5556 H   0  0  0  0  0  0  0  0  0  0  0  0
  1  2  1  0
  2  3  2  0
  3  4  1  0
  4  5  2  0
  5  6  1  0
  6  7  2  0
  7  8  1  0
  8  9  1  0
  9 10  2  0
 10 11  1  0
 11 12  1  0
  7 13  1  0
 13 14  2  0
 14 15  1  0
 15 16  2  0
 16  2  1  0
 15  5  1  0
 12  8  2  0
  1 17  1  0
  1 18  1  0
  3 19  1  0
  4 20  1  0
  6 21  1  0
  9 22  1  0
 10 23  1  0
 12 24  1  0
 13 25  1  0
 14 26  1  0
M  END
>  <meeko>  (7) 
{"is_sidechain": [false], "free_energy": -6.585, "intermolecular_energy": -7.163, "internal_energy": -0.161}

$$$$
3rsx_ligand
     RDKit          3D

 26 28  0  0  0  0  0  0  0  0999 V2000
   70.9500   52.3170   14.2580 N   0  0  0  0  0  0  0  0  0  0  0  0
   71.1690   51.2650   13.3710 C   0  0  0  0  0  0  0  0  0  0  0  0
   72.3550   50.5520   13.4090 C   0  0  0  0  0  0  0  0  0  0  0  0
   72.5430   49.5230   12.4940 C   0  0  0  0  0  0  0  0  0  0  0  0
   71.5400   49.2380   11.5610 C   0  0  0  0  0  0  0  0  0  0  0  0
   71.6810   48.2080   10.6120 C   0  0  0  0  0  0  0  0  0  0  0  0
   70.6670   47.9480    9.6830 C   0  0  0  0  0  0  0  0  0  0  0  0
   70.8210   46.8740    8.7090 C   0  0  0  0  0  0  0  0  0  0  0  0
   69.7910   46.0220    8.1920 C   0  0  0  0  0  0  0  0  0  0  0  0
   70.2700   45.0980    7.2910 C   0  0  0  0  0  0  0  0  0  0  0  0
   71.9590   45.2370    7.0680 S   0  0  0  0  0  0  0  0  0  0  0  0
   72.0510   46.5380    8.1770 C   0  0  0  0  0  0  0  0  0  0  0  0
   69.5090   48.7300    9.7190 C   0  0  0  0  0  0  0  0  0  0  0  0
   69.3760   49.7520   10.6660 C   0  0  0  0  0  0  0  0  0  0  0  0
   70.3730   50.0250   11.5940 C   0  0  0  0  0  0  0  0  0  0  0  0
   70.1940   51.0190   12.4820 N   0  0  0  0  0  0  0  0  0  0  0  0
   69.9710   52.2690   14.5330 H   0  0  0  0  0  0  0  0  0  0  0  0
   71.5690   52.2650   15.0580 H   0  0  0  0  0  0  0  0  0  0  0  0
   73.1326   50.7949   14.1482 H   0  0  0  0  0  0  0  0  0  0  0  0
   73.4737   48.9368   12.5032 H   0  0  0  0  0  0  0  0  0  0  0  0
   72.5982   47.6008   10.6004 H   0  0  0  0  0  0  0  0  0  0  0  0
   68.7330   46.0981    8.4834 H   0  0  0  0  0  0  0  0  0  0  0  0
   69.6404   44.3578    6.7756 H   0  0  0  0  0  0  0  0  0  0  0  0
   72.9884   47.0511    8.4379 H   0  0  0  0  0  0  0  0  0  0  0  0
   68.6984   48.5413    8.9997 H   0  0  0  0  0  0  0  0  0  0  0  0
   68.4565   50.3557   10.6757 H   0  0  0  0  0  0  0  0  0  0  0  0
  1  2  1  0
  2  3  2  0
  3  4  1  0
  4  5  2  0
  5  6  1  0
  6  7  2  0
  7  8  1  0
  8  9  1  0
  9 10  2  0
 10 11  1  0
 11 12  1  0
  7 13  1  0
 13 14  2  0
 14 15  1  0
 15 16  2  0
 16  2  1  0
 15  5  1  0
 12  8  2  0
  1 17  1  0
  1 18  1  0
  3 19  1  0
  4 20  1  0
  6 21  1  0
  9 22  1  0
 10 23  1  0
 12 24  1  0
 13 25  1  0
 14 26  1  0
M  END
>  <meeko>  (8) 
{"is_sidechain": [false], "free_energy": -6.437, "intermolecular_energy": -6.997, "internal_energy": -0.166}

$$$$
3rsx_ligand
     RDKit          3D

 26 28  0  0  0  0  0  0  0  0999 V2000
   73.0870   46.4130    5.4190 N   0  0  0  0  0  0  0  0  0  0  0  0
   73.0870   47.1780    6.5840 C   0  0  0  0  0  0  0  0  0  0  0  0
   74.2340   47.8370    6.9910 C   0  0  0  0  0  0  0  0  0  0  0  0
   74.1970   48.5730    8.1690 C   0  0  0  0  0  0  0  0  0  0  0  0
   73.0140   48.6240    8.9130 C   0  0  0  0  0  0  0  0  0  0  0  0
   72.9230   49.3530   10.1140 C   0  0  0  0  0  0  0  0  0  0  0  0
   71.7310   49.3810   10.8450 C   0  0  0  0  0  0  0  0  0  0  0  0
   71.6470   50.1450   12.0840 C   0  0  0  0  0  0  0  0  0  0  0  0
   72.5030   50.0320   13.2280 C   0  0  0  0  0  0  0  0  0  0  0  0
   72.1480   50.8930   14.2430 C   0  0  0  0  0  0  0  0  0  0  0  0
   70.7790   51.8320   13.8360 S   0  0  0  0  0  0  0  0  0  0  0  0
   70.6610   51.0890   12.2980 C   0  0  0  0  0  0  0  0  0  0  0  0
   70.6290   48.6760   10.3560 C   0  0  0  0  0  0  0  0  0  0  0  0
   70.7250   47.9540    9.1610 C   0  0  0  0  0  0  0  0  0  0  0  0
   71.9010   47.9120    8.4240 C   0  0  0  0  0  0  0  0  0  0  0  0
   71.9410   47.2030    7.2820 N   0  0  0  0  0  0  0  0  0  0  0  0
   73.2020   47.0610    4.6430 H   0  0  0  0  0  0  0  0  0  0  0  0
   73.8180   45.7120    5.4340 H   0  0  0  0  0  0  0  0  0  0  0  0
   75.1561   47.7793    6.3941 H   0  0  0  0  0  0  0  0  0  0  0  0
   75.0919   49.1117    8.5139 H   0  0  0  0  0  0  0  0  0  0  0  0
   73.7994   49.9069   10.4816 H   0  0  0  0  0  0  0  0  0  0  0  0
   73.3509   49.3339   13.2888 H   0  0  0  0  0  0  0  0  0  0  0  0
   72.6822   50.9674   15.2017 H   0  0  0  0  0  0  0  0  0  0  0  0
   69.8840   51.3365   11.5598 H   0  0  0  0  0  0  0  0  0  0  0  0
   69.6806   48.6883   10.9131 H   0  0  0  0  0  0  0  0  0  0  0  0
   69.8448   47.4048    8.7956 H   0  0  0  0  0  0  0  0  0  0  0  0
  1  2  1  0
  2  3  2  0
  3  4  1  0
  4  5  2  0
  5  6  1  0
  6  7  2  0
  7  8  1  0
  8  9  1  0
  9 10  2  0
 10 11  1  0
 11 12  1  0
  7 13  1  0
 13 14  2  0
 14 15  1  0
 15 16  2  0
 16  2  1  0
 15  5  1  0
 12  8  2  0
  1 17  1  0
  1 18  1  0
  3 19  1  0
  4 20  1  0
  6 21  1  0
  9 22  1  0
 10 23  1  0
 12 24  1  0
 13 25  1  0
 14 26  1  0
M  END
>  <meeko>  (9) 
{"is_sidechain": [false], "free_energy": -6.339, "intermolecular_energy": -6.897, "internal_energy": -0.159}

$$$$
