1q8t_ligand
     RDKit          3D

 40 41  0  0  0  0  0  0  0  0999 V2000
    3.6050    9.6720    5.1440 C   0  0  0  0  0  0  0  0  0  0  0  0
    4.4940    9.3020    3.9560 C   0  0  1  0  0  0  0  0  0  0  0  0
    3.6510    9.4420    2.7300 N   0  0  0  0  0  0  0  0  0  0  0  0
    5.7630   10.1930    3.8420 C   0  0  2  0  0  0  0  0  0  0  0  0
    6.7650    9.7330    2.7590 C   0  0  0  0  0  0  0  0  0  0  0  0
    7.7450    8.6740    3.2590 C   0  0  0  0  0  0  0  0  0  0  0  0
    8.5300    9.1240    4.5030 C   0  0  1  0  0  0  0  0  0  0  0  0
   10.0350    9.2090    4.2350 C   0  0  0  0  0  0  0  0  0  0  0  0
   10.5660   10.3100    4.1330 O   0  0  0  0  0  0  0  0  0  0  0  0
   10.6710    7.9850    4.1540 N   0  0  0  0  0  0  0  0  0  0  0  0
   12.0490    7.7530    3.9350 C   0  0  0  0  0  0  0  0  0  0  0  0
   12.9500    7.4030    4.9350 C   0  0  0  0  0  0  0  0  0  0  0  0
   14.2770    7.2000    4.5880 C   0  0  0  0  0  0  0  0  0  0  0  0
   14.7540    7.3210    3.3310 N   0  0  0  0  0  0  0  0  0  0  0  0
   13.8660    7.6640    2.3790 C   0  0  0  0  0  0  0  0  0  0  0  0
   12.5200    7.8870    2.6280 C   0  0  0  0  0  0  0  0  0  0  0  0
    7.9760   10.4100    5.1280 C   0  0  0  0  0  0  0  0  0  0  0  0
    6.4550   10.3310    5.2200 C   0  0  0  0  0  0  0  0  0  0  0  0
    4.1357    9.4511    6.0819 H   0  0  0  0  0  0  0  0  0  0  0  0
    3.3650   10.7447    5.1023 H   0  0  0  0  0  0  0  0  0  0  0  0
    2.6748    9.0863    5.1023 H   0  0  0  0  0  0  0  0  0  0  0  0
    4.8660    8.2753    4.0880 H   0  0  0  0  0  0  0  0  0  0  0  0
    2.8670    8.7770    2.7140 H   0  0  0  0  0  0  0  0  0  0  0  0
    4.1970    9.3080    1.8670 H   0  0  0  0  0  0  0  0  0  0  0  0
    3.2280   10.3790    2.6750 H   0  0  0  0  0  0  0  0  0  0  0  0
    5.4103   11.1806    3.5101 H   0  0  0  0  0  0  0  0  0  0  0  0
    6.1989    9.3146    1.9137 H   0  0  0  0  0  0  0  0  0  0  0  0
    7.3558   10.6129    2.4645 H   0  0  0  0  0  0  0  0  0  0  0  0
    7.1803    7.7642    3.5106 H   0  0  0  0  0  0  0  0  0  0  0  0
    8.4746    8.4942    2.4557 H   0  0  0  0  0  0  0  0  0  0  0  0
    8.3842    8.3366    5.2571 H   0  0  0  0  0  0  0  0  0  0  0  0
   10.1040    7.1550    4.2460 H   0  0  0  0  0  0  0  0  0  0  0  0
   12.6175    7.2898    5.9774 H   0  0  0  0  0  0  0  0  0  0  0  0
   14.9834    6.9238    5.3847 H   0  0  0  0  0  0  0  0  0  0  0  0
   14.2282    7.7735    1.3461 H   0  0  0  0  0  0  0  0  0  0  0  0
   11.8370    8.1640    1.8114 H   0  0  0  0  0  0  0  0  0  0  0  0
    8.3961   10.5353    6.1369 H   0  0  0  0  0  0  0  0  0  0  0  0
    8.2561   11.2676    4.4987 H   0  0  0  0  0  0  0  0  0  0  0  0
    6.1875    9.4582    5.8337 H   0  0  0  0  0  0  0  0  0  0  0  0
    6.1068   11.2745    5.6657 H   0  0  0  0  0  0  0  0  0  0  0  0
  1  2  1  0
  2  3  1  0
  2  4  1  0
  4  5  1  0
  5  6  1  0
  6  7  1  0
  7  8  1  0
  8  9  2  0
  8 10  1  0
 10 11  1  0
 11 12  2  0
 12 13  1  0
 13 14  2  0
 14 15  1  0
 15 16  2  0
  7 17  1  0
 17 18  1  0
 18  4  1  0
 16 11  1  0
  1 19  1  0
  1 20  1  0
  1 21  1  0
  2 22  1  1
  3 23  1  0
  3 24  1  0
  3 25  1  0
  4 26  1  1
  5 27  1  0
  5 28  1  0
  6 29  1  0
  6 30  1  0
  7 31  1  6
 10 32  1  0
 12 33  1  0
 13 34  1  0
 15 35  1  0
 16 36  1  0
 17 37  1  0
 17 38  1  0
 18 39  1  0
 18 40  1  0
M  CHG  1   3   1
M  END
>  <meeko>  (1) 
{"is_sidechain": [false], "free_energy": -8.034, "intermolecular_energy": -9.677, "internal_energy": -0.421}

$$$$
1q8t_ligand
     RDKit          3D

 40 41  0  0  0  0  0  0  0  0999 V2000
   13.3870    7.6880    4.9660 C   0  0  0  0  0  0  0  0  0  0  0  0
   13.2200    7.9340    3.4660 C   0  0  1  0  0  0  0  0  0  0  0  0
   12.6740    6.6700    2.8840 N   0  0  0  0  0  0  0  0  0  0  0  0
   12.2770    9.1270    3.1430 C   0  0  2  0  0  0  0  0  0  0  0  0
   11.1340    9.3250    4.1630 C   0  0  0  0  0  0  0  0  0  0  0  0
    9.9030    8.4740    3.8570 C   0  0  0  0  0  0  0  0  0  0  0  0
    9.3510    8.7070    2.4400 C   0  0  1  0  0  0  0  0  0  0  0  0
    7.9320    9.2820    2.4610 C   0  0  0  0  0  0  0  0  0  0  0  0
    7.5960   10.0850    1.5970 O   0  0  0  0  0  0  0  0  0  0  0  0
    7.1360    8.8010    3.4830 N   0  0  0  0  0  0  0  0  0  0  0  0
    5.7860    9.1340    3.7420 C   0  0  0  0  0  0  0  0  0  0  0  0
    4.7420    8.9120    2.8480 C   0  0  0  0  0  0  0  0  0  0  0  0
    3.4600    9.2820    3.2240 C   0  0  0  0  0  0  0  0  0  0  0  0
    3.1580    9.8480    4.4120 N   0  0  0  0  0  0  0  0  0  0  0  0
    4.1820   10.0580    5.2600 C   0  0  0  0  0  0  0  0  0  0  0  0
    5.4970    9.7210    4.9750 C   0  0  0  0  0  0  0  0  0  0  0  0
   10.2980    9.5280    1.5560 C   0  0  0  0  0  0  0  0  0  0  0  0
   11.7260    9.0100    1.7010 C   0  0  0  0  0  0  0  0  0  0  0  0
   12.8557    8.4707    5.5273 H   0  0  0  0  0  0  0  0  0  0  0  0
   12.9696    6.7037    5.2248 H   0  0  0  0  0  0  0  0  0  0  0  0
   14.4558    7.7126    5.2248 H   0  0  0  0  0  0  0  0  0  0  0  0
   14.1943    8.2040    3.0325 H   0  0  0  0  0  0  0  0  0  0  0  0
   13.3790    6.1470    2.3490 H   0  0  0  0  0  0  0  0  0  0  0  0
   11.8720    6.8460    2.2630 H   0  0  0  0  0  0  0  0  0  0  0  0
   12.3490    6.0310    3.6230 H   0  0  0  0  0  0  0  0  0  0  0  0
   12.8967   10.0323    3.2232 H   0  0  0  0  0  0  0  0  0  0  0  0
   11.5062    9.0554    5.1624 H   0  0  0  0  0  0  0  0  0  0  0  0
   10.8253   10.3794    4.1087 H   0  0  0  0  0  0  0  0  0  0  0  0
   10.1760    7.4131    3.9572 H   0  0  0  0  0  0  0  0  0  0  0  0
    9.1164    8.7635    4.5693 H   0  0  0  0  0  0  0  0  0  0  0  0
    9.2862    7.7139    1.9713 H   0  0  0  0  0  0  0  0  0  0  0  0
    7.5510    8.1500    4.1330 H   0  0  0  0  0  0  0  0  0  0  0  0
    4.9301    8.4536    1.8659 H   0  0  0  0  0  0  0  0  0  0  0  0
    2.6403    9.1039    2.5124 H   0  0  0  0  0  0  0  0  0  0  0  0
    3.9639   10.5226    6.2329 H   0  0  0  0  0  0  0  0  0  0  0  0
    6.2962    9.9125    5.7061 H   0  0  0  0  0  0  0  0  0  0  0  0
    9.9835    9.4406    0.5056 H   0  0  0  0  0  0  0  0  0  0  0  0
   10.2622   10.5819    1.8692 H   0  0  0  0  0  0  0  0  0  0  0  0
   11.7448    7.9507    1.4051 H   0  0  0  0  0  0  0  0  0  0  0  0
   12.3649    9.6320    1.0569 H   0  0  0  0  0  0  0  0  0  0  0  0
  1  2  1  0
  2  3  1  0
  2  4  1  0
  4  5  1  0
  5  6  1  0
  6  7  1  0
  7  8  1  0
  8  9  2  0
  8 10  1  0
 10 11  1  0
 11 12  2  0
 12 13  1  0
 13 14  2  0
 14 15  1  0
 15 16  2  0
  7 17  1  0
 17 18  1  0
 18  4  1  0
 16 11  1  0
  1 19  1  0
  1 20  1  0
  1 21  1  0
  2 22  1  6
  3 23  1  0
  3 24  1  0
  3 25  1  0
  4 26  1  1
  5 27  1  0
  5 28  1  0
  6 29  1  0
  6 30  1  0
  7 31  1  1
 10 32  1  0
 12 33  1  0
 13 34  1  0
 15 35  1  0
 16 36  1  0
 17 37  1  0
 17 38  1  0
 18 39  1  0
 18 40  1  0
M  CHG  1   3   1
M  END
>  <meeko>  (2) 
{"is_sidechain": [false], "free_energy": -7.898, "intermolecular_energy": -9.501, "internal_energy": -0.435}

$$$$
1q8t_ligand
     RDKit          3D

 40 41  0  0  0  0  0  0  0  0999 V2000
   13.2320   10.4590    1.0540 C   0  0  0  0  0  0  0  0  0  0  0  0
   13.4850    9.1550    1.8110 C   0  0  1  0  0  0  0  0  0  0  0  0
   14.9430    9.1260    2.1370 N   0  0  0  0  0  0  0  0  0  0  0  0
   12.6390    9.0280    3.1090 C   0  0  2  0  0  0  0  0  0  0  0  0
   11.6480    7.8430    3.1050 C   0  0  0  0  0  0  0  0  0  0  0  0
   10.3090    8.1820    2.4530 C   0  0  0  0  0  0  0  0  0  0  0  0
    9.6240    9.4020    3.0930 C   0  0  1  0  0  0  0  0  0  0  0  0
    8.2830    9.0380    3.7370 C   0  0  0  0  0  0  0  0  0  0  0  0
    8.2530    8.1890    4.6220 O   0  0  0  0  0  0  0  0  0  0  0  0
    7.2030    9.7480    3.2490 N   0  0  0  0  0  0  0  0  0  0  0  0
    5.8540    9.6410    3.6630 C   0  0  0  0  0  0  0  0  0  0  0  0
    4.8500    9.0480    2.9040 C   0  0  0  0  0  0  0  0  0  0  0  0
    3.5670    9.0030    3.4260 C   0  0  0  0  0  0  0  0  0  0  0  0
    3.2270    9.5010    4.6340 N   0  0  0  0  0  0  0  0  0  0  0  0
    4.2130   10.0720    5.3510 C   0  0  0  0  0  0  0  0  0  0  0  0
    5.5260   10.1650    4.9140 C   0  0  0  0  0  0  0  0  0  0  0  0
   10.5410   10.1690    4.0530 C   0  0  0  0  0  0  0  0  0  0  0  0
   11.9160   10.3610    3.4190 C   0  0  0  0  0  0  0  0  0  0  0  0
   13.0735   11.2758    1.7735 H   0  0  0  0  0  0  0  0  0  0  0  0
   14.1019   10.6908    0.4219 H   0  0  0  0  0  0  0  0  0  0  0  0
   12.3385   10.3486    0.4219 H   0  0  0  0  0  0  0  0  0  0  0  0
   13.1843    8.3053    1.1804 H   0  0  0  0  0  0  0  0  0  0  0  0
   15.2480    9.9620    2.6520 H   0  0  0  0  0  0  0  0  0  0  0  0
   15.5270    9.0440    1.2930 H   0  0  0  0  0  0  0  0  0  0  0  0
   15.1730    8.3240    2.7410 H   0  0  0  0  0  0  0  0  0  0  0  0
   13.3533    8.8055    3.9154 H   0  0  0  0  0  0  0  0  0  0  0  0
   12.1040    7.0075    2.5536 H   0  0  0  0  0  0  0  0  0  0  0  0
   11.4446    7.5828    4.1543 H   0  0  0  0  0  0  0  0  0  0  0  0
   10.4811    8.3948    1.3876 H   0  0  0  0  0  0  0  0  0  0  0  0
    9.6440    7.3174    2.5952 H   0  0  0  0  0  0  0  0  0  0  0  0
    9.4046   10.0958    2.2680 H   0  0  0  0  0  0  0  0  0  0  0  0
    7.3750   10.4110    2.5070 H   0  0  0  0  0  0  0  0  0  0  0  0
    5.0695    8.6247    1.9127 H   0  0  0  0  0  0  0  0  0  0  0  0
    2.7784    8.5334    2.8198 H   0  0  0  0  0  0  0  0  0  0  0  0
    3.9634   10.4879    6.3383 H   0  0  0  0  0  0  0  0  0  0  0  0
    6.2935   10.6423    5.5410 H   0  0  0  0  0  0  0  0  0  0  0  0
   10.0995   11.1527    4.2707 H   0  0  0  0  0  0  0  0  0  0  0  0
   10.6498    9.5948    4.9849 H   0  0  0  0  0  0  0  0  0  0  0  0
   11.7921   10.9179    2.4785 H   0  0  0  0  0  0  0  0  0  0  0  0
   12.5362   10.9067    4.1453 H   0  0  0  0  0  0  0  0  0  0  0  0
  1  2  1  0
  2  3  1  0
  2  4  1  0
  4  5  1  0
  5  6  1  0
  6  7  1  0
  7  8  1  0
  8  9  2  0
  8 10  1  0
 10 11  1  0
 11 12  2  0
 12 13  1  0
 13 14  2  0
 14 15  1  0
 15 16  2  0
  7 17  1  0
 17 18  1  0
 18  4  1  0
 16 11  1  0
  1 19  1  0
  1 20  1  0
  1 21  1  0
  2 22  1  6
  3 23  1  0
  3 24  1  0
  3 25  1  0
  4 26  1  6
  5 27  1  0
  5 28  1  0
  6 29  1  0
  6 30  1  0
  7 31  1  1
 10 32  1  0
 12 33  1  0
 13 34  1  0
 15 35  1  0
 16 36  1  0
 17 37  1  0
 17 38  1  0
 18 39  1  0
 18 40  1  0
M  CHG  1   3   1
M  END
>  <meeko>  (3) 
{"is_sidechain": [false], "free_energy": -7.788, "intermolecular_energy": -9.315, "internal_energy": -0.488}

$$$$
1q8t_ligand
     RDKit          3D

 40 41  0  0  0  0  0  0  0  0999 V2000
    3.9440    9.2790    3.4950 C   0  0  0  0  0  0  0  0  0  0  0  0
    5.2690    9.8560    3.9960 C   0  0  1  0  0  0  0  0  0  0  0  0
    5.1250   10.0370    5.4730 N   0  0  0  0  0  0  0  0  0  0  0  0
    6.4890    8.9480    3.6800 C   0  0  2  0  0  0  0  0  0  0  0  0
    7.5500    8.8980    4.8030 C   0  0  0  0  0  0  0  0  0  0  0  0
    8.5700   10.0310    4.7160 C   0  0  0  0  0  0  0  0  0  0  0  0
    9.2880   10.0880    3.3570 C   0  0  1  0  0  0  0  0  0  0  0  0
   10.7940    9.8470    3.4900 C   0  0  0  0  0  0  0  0  0  0  0  0
   11.5440   10.8040    3.6460 O   0  0  0  0  0  0  0  0  0  0  0  0
   11.1660    8.5170    3.4410 N   0  0  0  0  0  0  0  0  0  0  0  0
   12.4750    7.9930    3.5540 C   0  0  0  0  0  0  0  0  0  0  0  0
   13.0480    7.5770    4.7520 C   0  0  0  0  0  0  0  0  0  0  0  0
   14.3410    7.0780    4.7280 C   0  0  0  0  0  0  0  0  0  0  0  0
   15.0850    6.9680    3.6070 N   0  0  0  0  0  0  0  0  0  0  0  0
   14.5130    7.3780    2.4600 C   0  0  0  0  0  0  0  0  0  0  0  0
   13.2270    7.8910    2.3830 C   0  0  0  0  0  0  0  0  0  0  0  0
    8.6440    9.1810    2.3010 C   0  0  0  0  0  0  0  0  0  0  0  0
    7.1270    9.3470    2.3270 C   0  0  0  0  0  0  0  0  0  0  0  0
    3.3149    9.0051    4.3548 H   0  0  0  0  0  0  0  0  0  0  0  0
    3.4235   10.0319    2.8850 H   0  0  0  0  0  0  0  0  0  0  0  0
    4.1407    8.3850    2.8850 H   0  0  0  0  0  0  0  0  0  0  0  0
    5.4692   10.8063    3.4795 H   0  0  0  0  0  0  0  0  0  0  0  0
    5.9020   10.5710    5.8820 H   0  0  0  0  0  0  0  0  0  0  0  0
    5.0640    9.1360    5.9680 H   0  0  0  0  0  0  0  0  0  0  0  0
    4.2690   10.5630    5.7010 H   0  0  0  0  0  0  0  0  0  0  0  0
    6.0932    7.9241    3.6092 H   0  0  0  0  0  0  0  0  0  0  0  0
    7.0359    8.9639    5.7732 H   0  0  0  0  0  0  0  0  0  0  0  0
    8.1007    7.9524    4.6913 H   0  0  0  0  0  0  0  0  0  0  0  0
    8.0483   10.9859    4.8775 H   0  0  0  0  0  0  0  0  0  0  0  0
    9.3343    9.8464    5.4853 H   0  0  0  0  0  0  0  0  0  0  0  0
    9.1610   11.1164    2.9880 H   0  0  0  0  0  0  0  0  0  0  0  0
   10.4390    7.8320    3.2950 H   0  0  0  0  0  0  0  0  0  0  0  0
   12.4877    7.6427    5.6963 H   0  0  0  0  0  0  0  0  0  0  0  0
   14.7874    6.7522    5.6791 H   0  0  0  0  0  0  0  0  0  0  0  0
   15.0982    7.3020    1.5317 H   0  0  0  0  0  0  0  0  0  0  0  0
   12.8079    8.2113    1.4177 H   0  0  0  0  0  0  0  0  0  0  0  0
    9.0236    9.4543    1.3054 H   0  0  0  0  0  0  0  0  0  0  0  0
    8.8969    8.1334    2.5214 H   0  0  0  0  0  0  0  0  0  0  0  0
    6.8880   10.4018    2.1261 H   0  0  0  0  0  0  0  0  0  0  0  0
    6.7131    8.6743    1.5614 H   0  0  0  0  0  0  0  0  0  0  0  0
  1  2  1  0
  2  3  1  0
  2  4  1  0
  4  5  1  0
  5  6  1  0
  6  7  1  0
  7  8  1  0
  8  9  2  0
  8 10  1  0
 10 11  1  0
 11 12  2  0
 12 13  1  0
 13 14  2  0
 14 15  1  0
 15 16  2  0
  7 17  1  0
 17 18  1  0
 18  4  1  0
 16 11  1  0
  1 19  1  0
  1 20  1  0
  1 21  1  0
  2 22  1  6
  3 23  1  0
  3 24  1  0
  3 25  1  0
  4 26  1  1
  5 27  1  0
  5 28  1  0
  6 29  1  0
  6 30  1  0
  7 31  1  1
 10 32  1  0
 12 33  1  0
 13 34  1  0
 15 35  1  0
 16 36  1  0
 17 37  1  0
 17 38  1  0
 18 39  1  0
 18 40  1  0
M  CHG  1   3   1
M  END
>  <meeko>  (4) 
{"is_sidechain": [false], "free_energy": -7.335, "intermolecular_energy": -8.797, "internal_energy": -0.46}

$$$$
1q8t_ligand
     RDKit          3D

 40 41  0  0  0  0  0  0  0  0999 V2000
    3.9240   10.0540    5.5770 C   0  0  0  0  0  0  0  0  0  0  0  0
    4.6790    9.3950    4.4210 C   0  0  1  0  0  0  0  0  0  0  0  0
    3.7830    9.4700    3.2280 N   0  0  0  0  0  0  0  0  0  0  0  0
    6.0430   10.0750    4.1160 C   0  0  2  0  0  0  0  0  0  0  0  0
    6.4350   10.0650    2.6220 C   0  0  0  0  0  0  0  0  0  0  0  0
    7.1560    8.7870    2.1980 C   0  0  0  0  0  0  0  0  0  0  0  0
    8.4090    8.4980    3.0430 C   0  0  1  0  0  0  0  0  0  0  0  0
    9.6890    8.5200    2.2020 C   0  0  0  0  0  0  0  0  0  0  0  0
    9.9770    7.5400    1.5230 O   0  0  0  0  0  0  0  0  0  0  0  0
   10.4050    9.6980    2.2820 N   0  0  0  0  0  0  0  0  0  0  0  0
   11.6090   10.0120    1.6070 C   0  0  0  0  0  0  0  0  0  0  0  0
   12.8600    9.5330    1.9800 C   0  0  0  0  0  0  0  0  0  0  0  0
   13.9630    9.9130    1.2310 C   0  0  0  0  0  0  0  0  0  0  0  0
   13.8990   10.7240    0.1540 N   0  0  0  0  0  0  0  0  0  0  0  0
   12.6790   11.1790   -0.1880 C   0  0  0  0  0  0  0  0  0  0  0  0
   11.5180   10.8550    0.4980 C   0  0  0  0  0  0  0  0  0  0  0  0
    8.5140    9.3930    4.2840 C   0  0  0  0  0  0  0  0  0  0  0  0
    7.1640    9.4620    4.9920 C   0  0  0  0  0  0  0  0  0  0  0  0
    4.3334    9.6966    6.5334 H   0  0  0  0  0  0  0  0  0  0  0  0
    4.0385   11.1462    5.5144 H   0  0  0  0  0  0  0  0  0  0  0  0
    2.8573    9.7929    5.5144 H   0  0  0  0  0  0  0  0  0  0  0  0
    4.9228    8.3570    4.6914 H   0  0  0  0  0  0  0  0  0  0  0  0
    4.3030    9.6300    2.3550 H   0  0  0  0  0  0  0  0  0  0  0  0
    3.0790   10.2160    3.3190 H   0  0  0  0  0  0  0  0  0  0  0  0
    3.2700    8.5870    3.0920 H   0  0  0  0  0  0  0  0  0  0  0  0
    5.9168   11.1364    4.3758 H   0  0  0  0  0  0  0  0  0  0  0  0
    5.5201   10.1666    2.0198 H   0  0  0  0  0  0  0  0  0  0  0  0
    7.1306   10.9018    2.4608 H   0  0  0  0  0  0  0  0  0  0  0  0
    6.4605    7.9410    2.3009 H   0  0  0  0  0  0  0  0  0  0  0  0
    7.4841    8.9230    1.1569 H   0  0  0  0  0  0  0  0  0  0  0  0
    8.2917    7.4715    3.4206 H   0  0  0  0  0  0  0  0  0  0  0  0
   10.0540   10.4200    2.8950 H   0  0  0  0  0  0  0  0  0  0  0  0
   12.9719    8.8681    2.8491 H   0  0  0  0  0  0  0  0  0  0  0  0
   14.9494    9.5307    1.5325 H   0  0  0  0  0  0  0  0  0  0  0  0
   12.5985   11.8447   -1.0600 H   0  0  0  0  0  0  0  0  0  0  0  0
   10.5453   11.2542    0.1748 H   0  0  0  0  0  0  0  0  0  0  0  0
    9.2651    8.9765    4.9713 H   0  0  0  0  0  0  0  0  0  0  0  0
    8.8125   10.4057    3.9752 H   0  0  0  0  0  0  0  0  0  0  0  0
    6.8664    8.4419    5.2763 H   0  0  0  0  0  0  0  0  0  0  0  0
    7.2883   10.1168    5.8671 H   0  0  0  0  0  0  0  0  0  0  0  0
  1  2  1  0
  2  3  1  0
  2  4  1  0
  4  5  1  0
  5  6  1  0
  6  7  1  0
  7  8  1  0
  8  9  2  0
  8 10  1  0
 10 11  1  0
 11 12  2  0
 12 13  1  0
 13 14  2  0
 14 15  1  0
 15 16  2  0
  7 17  1  0
 17 18  1  0
 18  4  1  0
 16 11  1  0
  1 19  1  0
  1 20  1  0
  1 21  1  0
  2 22  1  1
  3 23  1  0
  3 24  1  0
  3 25  1  0
  4 26  1  6
  5 27  1  0
  5 28  1  0
  6 29  1  0
  6 30  1  0
  7 31  1  6
 10 32  1  0
 12 33  1  0
 13 34  1  0
 15 35  1  0
 16 36  1  0
 17 37  1  0
 17 38  1  0
 18 39  1  0
 18 40  1  0
M  CHG  1   3   1
M  END
>  <meeko>  (5) 
{"is_sidechain": [false], "free_energy": -7.316, "intermolecular_energy": -8.765, "internal_energy": -0.47}

$$$$
1q8t_ligand
     RDKit          3D

 40 41  0  0  0  0  0  0  0  0999 V2000
    5.7480    9.6440    4.6170 C   0  0  0  0  0  0  0  0  0  0  0  0
    6.4660    9.1270    3.3690 C   0  0  1  0  0  0  0  0  0  0  0  0
    5.5240    9.3140    2.2250 N   0  0  0  0  0  0  0  0  0  0  0  0
    7.8080    9.8600    3.0900 C   0  0  2  0  0  0  0  0  0  0  0  0
    8.8080    9.0470    2.2380 C   0  0  0  0  0  0  0  0  0  0  0  0
    9.6770    8.1050    3.0680 C   0  0  0  0  0  0  0  0  0  0  0  0
   10.4490    8.8300    4.1840 C   0  0  1  0  0  0  0  0  0  0  0  0
   11.9650    8.7320    3.9930 C   0  0  0  0  0  0  0  0  0  0  0  0
   12.7020    9.4520    4.6590 O   0  0  0  0  0  0  0  0  0  0  0  0
   12.3650    7.7880    3.0670 N   0  0  0  0  0  0  0  0  0  0  0  0
   13.6910    7.4640    2.6970 C   0  0  0  0  0  0  0  0  0  0  0  0
   14.2700    7.8130    1.4810 C   0  0  0  0  0  0  0  0  0  0  0  0
   15.5830    7.4380    1.2420 C   0  0  0  0  0  0  0  0  0  0  0  0
   16.3420    6.7510    2.1220 N   0  0  0  0  0  0  0  0  0  0  0  0
   15.7620    6.4200    3.2910 C   0  0  0  0  0  0  0  0  0  0  0  0
   14.4560    6.7510    3.6220 C   0  0  0  0  0  0  0  0  0  0  0  0
    9.9810   10.2750    4.3940 C   0  0  0  0  0  0  0  0  0  0  0  0
    8.4560   10.3310    4.4140 C   0  0  0  0  0  0  0  0  0  0  0  0
    6.2625    9.2735    5.5159 H   0  0  0  0  0  0  0  0  0  0  0  0
    5.7574   10.7440    4.6162 H   0  0  0  0  0  0  0  0  0  0  0  0
    4.7078    9.2862    4.6162 H   0  0  0  0  0  0  0  0  0  0  0  0
    6.7336    8.0701    3.5155 H   0  0  0  0  0  0  0  0  0  0  0  0
    5.4370    8.4710    1.6440 H   0  0  0  0  0  0  0  0  0  0  0  0
    5.8090   10.0920    1.6130 H   0  0  0  0  0  0  0  0  0  0  0  0
    4.5730    9.5270    2.5570 H   0  0  0  0  0  0  0  0  0  0  0  0
    7.5516   10.7374    2.4781 H   0  0  0  0  0  0  0  0  0  0  0  0
    8.2413    8.4490    1.5092 H   0  0  0  0  0  0  0  0  0  0  0  0
    9.4807    9.7661    1.7477 H   0  0  0  0  0  0  0  0  0  0  0  0
    9.0296    7.3432    3.5269 H   0  0  0  0  0  0  0  0  0  0  0  0
   10.4190    7.6574    2.3904 H   0  0  0  0  0  0  0  0  0  0  0  0
   10.2096    8.2977    5.1164 H   0  0  0  0  0  0  0  0  0  0  0  0
   11.6440    7.2730    2.5820 H   0  0  0  0  0  0  0  0  0  0  0  0
   13.6989    8.3737    0.7264 H   0  0  0  0  0  0  0  0  0  0  0  0
   16.0332    7.7168    0.2779 H   0  0  0  0  0  0  0  0  0  0  0  0
   16.3567    5.8557    4.0245 H   0  0  0  0  0  0  0  0  0  0  0  0
   14.0318    6.4576    4.5936 H   0  0  0  0  0  0  0  0  0  0  0  0
   10.3720   10.6492    5.3516 H   0  0  0  0  0  0  0  0  0  0  0  0
   10.3549   10.8996    3.5693 H   0  0  0  0  0  0  0  0  0  0  0  0
    8.0938    9.6865    5.2285 H   0  0  0  0  0  0  0  0  0  0  0  0
    8.1708   11.3834    4.5596 H   0  0  0  0  0  0  0  0  0  0  0  0
  1  2  1  0
  2  3  1  0
  2  4  1  0
  4  5  1  0
  5  6  1  0
  6  7  1  0
  7  8  1  0
  8  9  2  0
  8 10  1  0
 10 11  1  0
 11 12  2  0
 12 13  1  0
 13 14  2  0
 14 15  1  0
 15 16  2  0
  7 17  1  0
 17 18  1  0
 18  4  1  0
 16 11  1  0
  1 19  1  0
  1 20  1  0
  1 21  1  0
  2 22  1  1
  3 23  1  0
  3 24  1  0
  3 25  1  0
  4 26  1  1
  5 27  1  0
  5 28  1  0
  6 29  1  0
  6 30  1  0
  7 31  1  6
 10 32  1  0
 12 33  1  0
 13 34  1  0
 15 35  1  0
 16 36  1  0
 17 37  1  0
 17 38  1  0
 18 39  1  0
 18 40  1  0
M  CHG  1   3   1
M  END
>  <meeko>  (6) 
{"is_sidechain": [false], "free_energy": -6.969, "intermolecular_energy": -8.354, "internal_energy": -0.463}

$$$$
1q8t_ligand
     RDKit          3D

 40 41  0  0  0  0  0  0  0  0999 V2000
   15.0760    7.6960    3.1040 C   0  0  0  0  0  0  0  0  0  0  0  0
   14.2920    8.3330    1.9550 C   0  0  1  0  0  0  0  0  0  0  0  0
   14.8650    7.7810    0.6890 N   0  0  0  0  0  0  0  0  0  0  0  0
   12.7660    8.0480    2.0250 C   0  0  2  0  0  0  0  0  0  0  0  0
   11.8790    9.2400    1.6010 C   0  0  0  0  0  0  0  0  0  0  0  0
   11.5910   10.2110    2.7440 C   0  0  0  0  0  0  0  0  0  0  0  0
   10.9530    9.5260    3.9650 C   0  0  1  0  0  0  0  0  0  0  0  0
    9.5460   10.0580    4.2540 C   0  0  0  0  0  0  0  0  0  0  0  0
    9.4170   11.1100    4.8700 O   0  0  0  0  0  0  0  0  0  0  0  0
    8.5250    9.2740    3.7510 N   0  0  0  0  0  0  0  0  0  0  0  0
    7.1350    9.5210    3.8450 C   0  0  0  0  0  0  0  0  0  0  0  0
    6.2920    9.6690    2.7480 C   0  0  0  0  0  0  0  0  0  0  0  0
    4.9450    9.9050    2.9770 C   0  0  0  0  0  0  0  0  0  0  0  0
    4.3960   10.0000    4.2060 N   0  0  0  0  0  0  0  0  0  0  0  0
    5.2290    9.8570    5.2540 C   0  0  0  0  0  0  0  0  0  0  0  0
    6.5890    9.6180    5.1260 C   0  0  0  0  0  0  0  0  0  0  0  0
   10.9910    7.9950    3.8800 C   0  0  0  0  0  0  0  0  0  0  0  0
   12.3740    7.5320    3.4310 C   0  0  0  0  0  0  0  0  0  0  0  0
   14.6594    8.0345    4.0641 H   0  0  0  0  0  0  0  0  0  0  0  0
   14.9998    6.6007    3.0370 H   0  0  0  0  0  0  0  0  0  0  0  0
   16.1325    7.9948    3.0370 H   0  0  0  0  0  0  0  0  0  0  0  0
   14.3895    9.4272    2.0121 H   0  0  0  0  0  0  0  0  0  0  0  0
   15.8590    8.0170    0.5730 H   0  0  0  0  0  0  0  0  0  0  0  0
   14.3600    8.1180   -0.1420 H   0  0  0  0  0  0  0  0  0  0  0  0
   14.8150    6.7530    0.6760 H   0  0  0  0  0  0  0  0  0  0  0  0
   12.5704    7.2621    1.2806 H   0  0  0  0  0  0  0  0  0  0  0  0
   12.3912    9.7885    0.7968 H   0  0  0  0  0  0  0  0  0  0  0  0
   10.9140    8.8285    1.2702 H   0  0  0  0  0  0  0  0  0  0  0  0
   12.5378   10.6754    3.0570 H   0  0  0  0  0  0  0  0  0  0  0  0
   10.8731   10.9563    2.3710 H   0  0  0  0  0  0  0  0  0  0  0  0
   11.5794    9.7948    4.8283 H   0  0  0  0  0  0  0  0  0  0  0  0
    8.7800    8.4230    3.2720 H   0  0  0  0  0  0  0  0  0  0  0  0
    6.6850    9.6004    1.7229 H   0  0  0  0  0  0  0  0  0  0  0  0
    4.2847   10.0217    2.1050 H   0  0  0  0  0  0  0  0  0  0  0  0
    4.8078    9.9340    6.2672 H   0  0  0  0  0  0  0  0  0  0  0  0
    7.2251    9.5070    6.0165 H   0  0  0  0  0  0  0  0  0  0  0  0
   10.7677    7.5695    4.8695 H   0  0  0  0  0  0  0  0  0  0  0  0
   10.2415    7.6549    3.1502 H   0  0  0  0  0  0  0  0  0  0  0  0
   13.1166    7.8963    4.1562 H   0  0  0  0  0  0  0  0  0  0  0  0
   12.3490    6.4335    3.3796 H   0  0  0  0  0  0  0  0  0  0  0  0
  1  2  1  0
  2  3  1  0
  2  4  1  0
  4  5  1  0
  5  6  1  0
  6  7  1  0
  7  8  1  0
  8  9  2  0
  8 10  1  0
 10 11  1  0
 11 12  2  0
 12 13  1  0
 13 14  2  0
 14 15  1  0
 15 16  2  0
  7 17  1  0
 17 18  1  0
 18  4  1  0
 16 11  1  0
  1 19  1  0
  1 20  1  0
  1 21  1  0
  2 22  1  6
  3 23  1  0
  3 24  1  0
  3 25  1  0
  4 26  1  1
  5 27  1  0
  5 28  1  0
  6 29  1  0
  6 30  1  0
  7 31  1  6
 10 32  1  0
 12 33  1  0
 13 34  1  0
 15 35  1  0
 16 36  1  0
 17 37  1  0
 17 38  1  0
 18 39  1  0
 18 40  1  0
M  CHG  1   3   1
M  END
>  <meeko>  (7) 
{"is_sidechain": [false], "free_energy": -6.882, "intermolecular_energy": -8.324, "internal_energy": -0.387}

$$$$
1q8t_ligand
     RDKit          3D

 40 41  0  0  0  0  0  0  0  0999 V2000
   16.4820    8.5330    5.1890 C   0  0  0  0  0  0  0  0  0  0  0  0
   16.2390    8.1330    3.7340 C   0  0  1  0  0  0  0  0  0  0  0  0
   17.4810    7.4450    3.2660 N   0  0  0  0  0  0  0  0  0  0  0  0
   15.0070    7.2030    3.5530 C   0  0  2  0  0  0  0  0  0  0  0  0
   14.2010    7.4630    2.2600 C   0  0  0  0  0  0  0  0  0  0  0  0
   13.1520    8.5610    2.4170 C   0  0  0  0  0  0  0  0  0  0  0  0
   12.1690    8.2900    3.5690 C   0  0  1  0  0  0  0  0  0  0  0  0
   10.7300    8.1260    3.0720 C   0  0  0  0  0  0  0  0  0  0  0  0
   10.4210    7.1140    2.4510 O   0  0  0  0  0  0  0  0  0  0  0  0
    9.8870    9.1680    3.4070 N   0  0  0  0  0  0  0  0  0  0  0  0
    8.5100    9.2830    3.1030 C   0  0  0  0  0  0  0  0  0  0  0  0
    7.4860    9.0050    4.0020 C   0  0  0  0  0  0  0  0  0  0  0  0
    6.1750    9.1610    3.5800 C   0  0  0  0  0  0  0  0  0  0  0  0
    5.8270    9.5700    2.3420 N   0  0  0  0  0  0  0  0  0  0  0  0
    6.8320    9.8320    1.4860 C   0  0  0  0  0  0  0  0  0  0  0  0
    8.1740    9.7060    1.8150 C   0  0  0  0  0  0  0  0  0  0  0  0
   12.6090    7.1310    4.4720 C   0  0  0  0  0  0  0  0  0  0  0  0
   14.0930    7.2620    4.8020 C   0  0  0  0  0  0  0  0  0  0  0  0
   16.0277    7.7852    5.8556 H   0  0  0  0  0  0  0  0  0  0  0  0
   17.5642    8.5845    5.3793 H   0  0  0  0  0  0  0  0  0  0  0  0
   16.0290    9.5172    5.3793 H   0  0  0  0  0  0  0  0  0  0  0  0
   16.0162    9.0339    3.1434 H   0  0  0  0  0  0  0  0  0  0  0  0
   17.2870    6.5310    2.8370 H   0  0  0  0  0  0  0  0  0  0  0  0
   18.1530    7.2990    4.0320 H   0  0  0  0  0  0  0  0  0  0  0  0
   17.9630    7.9990    2.5440 H   0  0  0  0  0  0  0  0  0  0  0  0
   15.4102    6.1854    3.4438 H   0  0  0  0  0  0  0  0  0  0  0  0
   14.9011    7.7592    1.4650 H   0  0  0  0  0  0  0  0  0  0  0  0
   13.6672    6.5331    2.0144 H   0  0  0  0  0  0  0  0  0  0  0  0
   13.6671    9.5132    2.6119 H   0  0  0  0  0  0  0  0  0  0  0  0
   12.5677    8.5947    1.4857 H   0  0  0  0  0  0  0  0  0  0  0  0
   12.1872    9.1886    4.2032 H   0  0  0  0  0  0  0  0  0  0  0  0
   10.2830    9.9470    3.9130 H   0  0  0  0  0  0  0  0  0  0  0  0
    7.7114    8.6689    5.0249 H   0  0  0  0  0  0  0  0  0  0  0  0
    5.3707    8.9382    4.2966 H   0  0  0  0  0  0  0  0  0  0  0  0
    6.5752   10.1644    0.4693 H   0  0  0  0  0  0  0  0  0  0  0  0
    8.9569    9.9345    1.0769 H   0  0  0  0  0  0  0  0  0  0  0  0
   12.0251    7.1532    5.4040 H   0  0  0  0  0  0  0  0  0  0  0  0
   12.4380    6.1793    3.9477 H   0  0  0  0  0  0  0  0  0  0  0  0
   14.2544    8.2257    5.3073 H   0  0  0  0  0  0  0  0  0  0  0  0
   14.3607    6.4080    5.4416 H   0  0  0  0  0  0  0  0  0  0  0  0
  1  2  1  0
  2  3  1  0
  2  4  1  0
  4  5  1  0
  5  6  1  0
  6  7  1  0
  7  8  1  0
  8  9  2  0
  8 10  1  0
 10 11  1  0
 11 12  2  0
 12 13  1  0
 13 14  2  0
 14 15  1  0
 15 16  2  0
  7 17  1  0
 17 18  1  0
 18  4  1  0
 16 11  1  0
  1 19  1  0
  1 20  1  0
  1 21  1  0
  2 22  1  6
  3 23  1  0
  3 24  1  0
  3 25  1  0
  4 26  1  1
  5 27  1  0
  5 28  1  0
  6 29  1  0
  6 30  1  0
  7 31  1  6
 10 32  1  0
 12 33  1  0
 13 34  1  0
 15 35  1  0
 16 36  1  0
 17 37  1  0
 17 38  1  0
 18 39  1  0
 18 40  1  0
M  CHG  1   3   1
M  END
>  <meeko>  (8) 
{"is_sidechain": [false], "free_energy": -6.812, "intermolecular_energy": -8.158, "internal_energy": -0.469}

$$$$
1q8t_ligand
     RDKit          3D

 40 41  0  0  0  0  0  0  0  0999 V2000
    7.1910    8.9210    4.1580 C   0  0  0  0  0  0  0  0  0  0  0  0
    8.1950   10.0580    4.3530 C   0  0  1  0  0  0  0  0  0  0  0  0
    8.6830    9.9600    5.7620 N   0  0  0  0  0  0  0  0  0  0  0  0
    9.3910    9.9940    3.3620 C   0  0  2  0  0  0  0  0  0  0  0  0
    9.7510    8.5660    2.8950 C   0  0  0  0  0  0  0  0  0  0  0  0
   10.7050    7.8460    3.8460 C   0  0  0  0  0  0  0  0  0  0  0  0
   12.0050    8.6300    4.0970 C   0  0  1  0  0  0  0  0  0  0  0  0
   13.2400    7.8730    3.6010 C   0  0  0  0  0  0  0  0  0  0  0  0
   13.4550    6.7380    4.0150 O   0  0  0  0  0  0  0  0  0  0  0  0
   14.0050    8.5670    2.6830 N   0  0  0  0  0  0  0  0  0  0  0  0
   15.1830    8.1170    2.0420 C   0  0  0  0  0  0  0  0  0  0  0  0
   16.4420    8.1140    2.6360 C   0  0  0  0  0  0  0  0  0  0  0  0
   17.5180    7.6430    1.9000 C   0  0  0  0  0  0  0  0  0  0  0  0
   17.4210    7.1830    0.6350 N   0  0  0  0  0  0  0  0  0  0  0  0
   16.1960    7.1980    0.0780 C   0  0  0  0  0  0  0  0  0  0  0  0
   15.0600    7.6490    0.7330 C   0  0  0  0  0  0  0  0  0  0  0  0
   11.9500   10.0670    3.5640 C   0  0  0  0  0  0  0  0  0  0  0  0
   10.6260   10.7170    3.9530 C   0  0  0  0  0  0  0  0  0  0  0  0
    6.8628    8.5493    5.1399 H   0  0  0  0  0  0  0  0  0  0  0  0
    6.3208    9.2924    3.5969 H   0  0  0  0  0  0  0  0  0  0  0  0
    7.6673    8.1035    3.5969 H   0  0  0  0  0  0  0  0  0  0  0  0
    7.6985   11.0187    4.1520 H   0  0  0  0  0  0  0  0  0  0  0  0
    7.9180    9.9980    6.4470 H   0  0  0  0  0  0  0  0  0  0  0  0
    9.3520   10.7090    5.9920 H   0  0  0  0  0  0  0  0  0  0  0  0
    9.1660    9.0650    5.9270 H   0  0  0  0  0  0  0  0  0  0  0  0
    9.0603   10.5207    2.4547 H   0  0  0  0  0  0  0  0  0  0  0  0
    8.8240    7.9788    2.8185 H   0  0  0  0  0  0  0  0  0  0  0  0
   10.2624    8.6577    1.9254 H   0  0  0  0  0  0  0  0  0  0  0  0
   10.1942    7.6960    4.8086 H   0  0  0  0  0  0  0  0  0  0  0  0
   10.9812    6.8906    3.3759 H   0  0  0  0  0  0  0  0  0  0  0  0
   12.1020    8.7176    5.1892 H   0  0  0  0  0  0  0  0  0  0  0  0
   13.7130    9.5030    2.4430 H   0  0  0  0  0  0  0  0  0  0  0  0
   16.5797    8.4769    3.6653 H   0  0  0  0  0  0  0  0  0  0  0  0
   18.5100    7.6442    2.3753 H   0  0  0  0  0  0  0  0  0  0  0  0
   16.0900    6.8323   -0.9540 H   0  0  0  0  0  0  0  0  0  0  0  0
   14.0814    7.6381    0.2308 H   0  0  0  0  0  0  0  0  0  0  0  0
   12.7805   10.6468    3.9931 H   0  0  0  0  0  0  0  0  0  0  0  0
   12.0352   10.0491    2.4675 H   0  0  0  0  0  0  0  0  0  0  0  0
   10.5427   10.7100    5.0498 H   0  0  0  0  0  0  0  0  0  0  0  0
   10.6321   11.7381    3.5439 H   0  0  0  0  0  0  0  0  0  0  0  0
  1  2  1  0
  2  3  1  0
  2  4  1  0
  4  5  1  0
  5  6  1  0
  6  7  1  0
  7  8  1  0
  8  9  2  0
  8 10  1  0
 10 11  1  0
 11 12  2  0
 12 13  1  0
 13 14  2  0
 14 15  1  0
 15 16  2  0
  7 17  1  0
 17 18  1  0
 18  4  1  0
 16 11  1  0
  1 19  1  0
  1 20  1  0
  1 21  1  0
  2 22  1  1
  3 23  1  0
  3 24  1  0
  3 25  1  0
  4 26  1  1
  5 27  1  0
  5 28  1  0
  6 29  1  0
  6 30  1  0
  7 31  1  6
 10 32  1  0
 12 33  1  0
 13 34  1  0
 15 35  1  0
 16 36  1  0
 17 37  1  0
 17 38  1  0
 18 39  1  0
 18 40  1  0
M  CHG  1   3   1
M  END
>  <meeko>  (9) 
{"is_sidechain": [false], "free_energy": -6.791, "intermolecular_energy": -8.06, "internal_energy": -0.541}

$$$$
