2yge_ligand
     RDKit          3D

 80 81  0  0  0  0  0  0  0  0999 V2000
   16.8720  -32.2510   -4.2470 C   0  0  0  0  0  0  0  0  0  0  0  0
   16.9610  -33.6740   -4.2540 O   0  0  0  0  0  0  0  0  0  0  0  0
   17.8980  -34.2010   -5.1390 C   0  0  0  0  0  0  0  0  0  0  0  0
   19.2020  -34.1260   -4.8200 C   0  0  0  0  0  0  0  0  0  0  0  0
   19.6910  -33.4950   -3.5300 C   0  0  0  0  0  0  0  0  0  0  0  0
   19.9280  -34.5100   -2.3830 C   0  0  2  0  0  0  0  0  0  0  0  0
   18.8430  -34.3870   -1.3130 C   0  0  0  0  0  0  0  0  0  0  0  0
   21.3550  -34.4910   -1.7950 C   0  0  0  0  0  0  0  0  0  0  0  0
   22.5610  -34.9730   -2.6500 C   0  0  2  0  0  0  0  0  0  0  0  0
   23.0200  -36.2480   -2.2130 O   0  0  0  0  0  0  0  0  0  0  0  0
   22.2380  -37.3400   -2.6820 C   0  0  0  0  0  0  0  0  0  0  0  0
   23.7040  -33.9150   -2.5750 C   0  0  2  0  0  0  0  0  0  0  0  0
   23.2430  -32.7850   -1.8160 O   0  0  0  0  0  0  0  0  0  0  0  0
   24.3140  -33.4560   -3.9280 C   0  0  1  0  0  0  0  0  0  0  0  0
   25.2840  -32.2820   -3.7880 C   0  0  0  0  0  0  0  0  0  0  0  0
   25.0390  -34.6280   -4.5710 C   0  0  0  0  0  0  0  0  0  0  0  0
   25.2040  -34.8740   -5.8890 C   0  0  0  0  0  0  0  0  0  0  0  0
   24.7870  -33.9260   -6.9830 C   0  0  0  0  0  0  0  0  0  0  0  0
   25.8360  -36.1940   -6.3460 C   0  0  2  0  0  0  0  0  0  0  0  0
   27.0440  -36.3680   -5.5780 O   0  0  0  0  0  0  0  0  0  0  0  0
   27.1730  -37.5290   -4.9120 C   0  0  0  0  0  0  0  0  0  0  0  0
   27.9620  -38.3710   -5.6150 N   0  0  0  0  0  0  0  0  0  0  0  0
   26.6670  -37.8250   -3.8420 O   0  0  0  0  0  0  0  0  0  0  0  0
   26.1120  -36.1990   -7.8930 C   0  0  1  0  0  0  0  0  0  0  0  0
   27.5280  -36.1210   -8.1350 O   0  0  0  0  0  0  0  0  0  0  0  0
   28.0150  -37.1550   -8.9780 C   0  0  0  0  0  0  0  0  0  0  0  0
   25.5780  -37.4520   -8.5460 C   0  0  0  0  0  0  0  0  0  0  0  0
   24.2950  -37.7500   -8.8060 C   0  0  0  0  0  0  0  0  0  0  0  0
   23.1550  -36.9020   -8.5480 C   0  0  0  0  0  0  0  0  0  0  0  0
   22.3890  -36.3310   -9.4960 C   0  0  0  0  0  0  0  0  0  0  0  0
   22.5030  -36.4800  -10.9780 C   0  0  0  0  0  0  0  0  0  0  0  0
   21.2100  -35.5510   -9.0300 C   0  0  0  0  0  0  0  0  0  0  0  0
   20.7090  -34.6990   -9.7520 O   0  0  0  0  0  0  0  0  0  0  0  0
   20.8270  -35.8810   -7.7530 N   0  0  0  0  0  0  0  0  0  0  0  0
   19.7960  -35.3450   -7.0010 C   0  0  0  0  0  0  0  0  0  0  0  0
   18.4960  -35.4010   -7.3030 C   0  0  0  0  0  0  0  0  0  0  0  0
   17.4650  -34.7990   -6.4420 C   0  0  0  0  0  0  0  0  0  0  0  0
   16.2960  -34.8130   -6.8120 O   0  0  0  0  0  0  0  0  0  0  0  0
   20.2360  -34.6380   -5.7590 C   0  0  0  0  0  0  0  0  0  0  0  0
   21.4390  -34.5100   -5.5510 O   0  0  0  0  0  0  0  0  0  0  0  0
   16.8494  -31.8901   -3.2081 H   0  0  0  0  0  0  0  0  0  0  0  0
   17.7453  -31.8264   -4.7637 H   0  0  0  0  0  0  0  0  0  0  0  0
   15.9526  -31.9386   -4.7637 H   0  0  0  0  0  0  0  0  0  0  0  0
   20.6397  -32.9776   -3.7357 H   0  0  0  0  0  0  0  0  0  0  0  0
   18.9002  -32.8098   -3.1907 H   0  0  0  0  0  0  0  0  0  0  0  0
   19.8454  -35.5081   -2.8379 H   0  0  0  0  0  0  0  0  0  0  0  0
   19.3040  -34.4393   -0.3156 H   0  0  0  0  0  0  0  0  0  0  0  0
   18.3233  -33.4242   -1.4267 H   0  0  0  0  0  0  0  0  0  0  0  0
   18.1210  -35.2091   -1.4267 H   0  0  0  0  0  0  0  0  0  0  0  0
   21.5657  -33.4498   -1.5095 H   0  0  0  0  0  0  0  0  0  0  0  0
   21.3039  -35.2393   -0.9904 H   0  0  0  0  0  0  0  0  0  0  0  0
   22.2376  -35.0805   -3.6959 H   0  0  0  0  0  0  0  0  0  0  0  0
   21.8374  -37.8994   -1.8238 H   0  0  0  0  0  0  0  0  0  0  0  0
   21.4058  -36.9595   -3.2924 H   0  0  0  0  0  0  0  0  0  0  0  0
   22.8662  -38.0054   -3.2924 H   0  0  0  0  0  0  0  0  0  0  0  0
   24.5424  -34.4263   -2.0793 H   0  0  0  0  0  0  0  0  0  0  0  0
   22.9270  -32.1090   -2.4400 H   0  0  0  0  0  0  0  0  0  0  0  0
   23.4794  -33.1092   -4.5550 H   0  0  0  0  0  0  0  0  0  0  0  0
   25.4561  -32.0737   -2.7217 H   0  0  0  0  0  0  0  0  0  0  0  0
   26.2392  -32.5360   -4.2708 H   0  0  0  0  0  0  0  0  0  0  0  0
   24.8544  -31.3919   -4.2708 H   0  0  0  0  0  0  0  0  0  0  0  0
   25.4813  -35.3621   -3.8815 H   0  0  0  0  0  0  0  0  0  0  0  0
   24.3823  -33.0059   -6.5363 H   0  0  0  0  0  0  0  0  0  0  0  0
   25.6593  -33.6783   -7.6058 H   0  0  0  0  0  0  0  0  0  0  0  0
   24.0150  -34.4016   -7.6058 H   0  0  0  0  0  0  0  0  0  0  0  0
   25.1497  -37.0355   -6.1704 H   0  0  0  0  0  0  0  0  0  0  0  0
   28.0580  -39.3220   -5.2960 H   0  0  0  0  0  0  0  0  0  0  0  0
   28.2310  -38.1140   -6.5510 H   0  0  0  0  0  0  0  0  0  0  0  0
   25.5986  -35.3279   -8.3261 H   0  0  0  0  0  0  0  0  0  0  0  0
   28.4030  -37.9789   -8.3610 H   0  0  0  0  0  0  0  0  0  0  0  0
   27.1970  -37.5262   -9.6130 H   0  0  0  0  0  0  0  0  0  0  0  0
   28.8221  -36.7608   -9.6130 H   0  0  0  0  0  0  0  0  0  0  0  0
   26.3238  -38.2046   -8.8416 H   0  0  0  0  0  0  0  0  0  0  0  0
   24.0933  -38.7323   -9.2580 H   0  0  0  0  0  0  0  0  0  0  0  0
   22.8929  -36.7081   -7.4974 H   0  0  0  0  0  0  0  0  0  0  0  0
   23.1562  -37.3337  -11.2115 H   0  0  0  0  0  0  0  0  0  0  0  0
   21.5051  -36.6538  -11.4069 H   0  0  0  0  0  0  0  0  0  0  0  0
   22.9317  -35.5622  -11.4069 H   0  0  0  0  0  0  0  0  0  0  0  0
   21.3850  -36.5740   -7.2530 H   0  0  0  0  0  0  0  0  0  0  0  0
   18.1858  -35.9138   -8.2254 H   0  0  0  0  0  0  0  0  0  0  0  0
  1  2  1  0
  2  3  1  0
  3  4  2  0
  4  5  1  0
  5  6  1  0
  6  7  1  0
  6  8  1  0
  8  9  1  0
  9 10  1  0
 10 11  1  0
  9 12  1  0
 12 13  1  0
 12 14  1  0
 14 15  1  0
 14 16  1  0
 16 17  2  0
 17 18  1  0
 17 19  1  0
 19 20  1  0
 20 21  1  0
 21 22  1  0
 21 23  2  0
 19 24  1  0
 24 25  1  0
 25 26  1  0
 24 27  1  0
 27 28  2  0
 28 29  1  0
 29 30  2  0
 30 31  1  0
 30 32  1  0
 32 33  2  0
 32 34  1  0
 34 35  1  0
 35 36  2  0
 36 37  1  0
 37 38  2  0
 35 39  1  0
 39 40  2  0
 37  3  1  0
 39  4  1  0
  1 41  1  0
  1 42  1  0
  1 43  1  0
  5 44  1  0
  5 45  1  0
  6 46  1  6
  7 47  1  0
  7 48  1  0
  7 49  1  0
  8 50  1  0
  8 51  1  0
  9 52  1  6
 11 53  1  0
 11 54  1  0
 11 55  1  0
 12 56  1  1
 13 57  1  0
 14 58  1  6
 15 59  1  0
 15 60  1  0
 15 61  1  0
 16 62  1  0
 18 63  1  0
 18 64  1  0
 18 65  1  0
 19 66  1  6
 22 67  1  0
 22 68  1  0
 24 69  1  6
 26 70  1  0
 26 71  1  0
 26 72  1  0
 27 73  1  0
 28 74  1  0
 29 75  1  0
 31 76  1  0
 31 77  1  0
 31 78  1  0
 34 79  1  0
 36 80  1  0
M  END
>  <meeko>  (1) 
{"is_sidechain": [false], "free_energy": -5.637, "intermolecular_energy": -11.405, "internal_energy": -2.626}

$$$$
2yge_ligand
     RDKit          3D

 80 81  0  0  0  0  0  0  0  0999 V2000
   17.1780  -34.6030   -8.0120 C   0  0  0  0  0  0  0  0  0  0  0  0
   17.9610  -35.6710   -7.4830 O   0  0  0  0  0  0  0  0  0  0  0  0
   18.9310  -35.2890   -6.5610 C   0  0  0  0  0  0  0  0  0  0  0  0
   20.1920  -35.7220   -6.7330 C   0  0  0  0  0  0  0  0  0  0  0  0
   20.5980  -36.6060   -7.8980 C   0  0  0  0  0  0  0  0  0  0  0  0
   21.0510  -35.8210   -9.1550 C   0  0  2  0  0  0  0  0  0  0  0  0
   21.0480  -36.7220  -10.3910 C   0  0  0  0  0  0  0  0  0  0  0  0
   22.3730  -35.0420   -8.9850 C   0  0  0  0  0  0  0  0  0  0  0  0
   23.7350  -35.7460   -9.2430 C   0  0  2  0  0  0  0  0  0  0  0  0
   23.9290  -36.8300   -8.3400 O   0  0  0  0  0  0  0  0  0  0  0  0
   24.1560  -38.0820   -8.9740 C   0  0  0  0  0  0  0  0  0  0  0  0
   24.8770  -34.6680   -9.0990 C   0  0  2  0  0  0  0  0  0  0  0  0
   25.5860  -34.5510  -10.3440 O   0  0  0  0  0  0  0  0  0  0  0  0
   25.8680  -34.8570   -7.9180 C   0  0  1  0  0  0  0  0  0  0  0  0
   27.3280  -34.9500   -8.3610 C   0  0  0  0  0  0  0  0  0  0  0  0
   25.7140  -33.6950   -6.9490 C   0  0  0  0  0  0  0  0  0  0  0  0
   25.5370  -33.7540   -5.6110 C   0  0  0  0  0  0  0  0  0  0  0  0
   25.5860  -35.0280   -4.8090 C   0  0  0  0  0  0  0  0  0  0  0  0
   25.2500  -32.4710   -4.8220 C   0  0  2  0  0  0  0  0  0  0  0  0
   24.8870  -31.4600   -5.7840 O   0  0  0  0  0  0  0  0  0  0  0  0
   23.6500  -30.9440   -5.6790 C   0  0  0  0  0  0  0  0  0  0  0  0
   23.7150  -29.5950   -5.7170 N   0  0  0  0  0  0  0  0  0  0  0  0
   22.6030  -31.5590   -5.5550 O   0  0  0  0  0  0  0  0  0  0  0  0
   26.4820  -32.0410   -3.9470 C   0  0  1  0  0  0  0  0  0  0  0  0
   27.1580  -30.9330   -4.5680 O   0  0  0  0  0  0  0  0  0  0  0  0
   27.1080  -29.7390   -3.8010 C   0  0  0  0  0  0  0  0  0  0  0  0
   26.0570  -31.6300   -2.5570 C   0  0  0  0  0  0  0  0  0  0  0  0
   24.9090  -31.9380   -1.9320 C   0  0  0  0  0  0  0  0  0  0  0  0
   23.8530  -32.7730   -2.4550 C   0  0  0  0  0  0  0  0  0  0  0  0
   23.6710  -34.0700   -2.1460 C   0  0  0  0  0  0  0  0  0  0  0  0
   24.4560  -34.9010   -1.1830 C   0  0  0  0  0  0  0  0  0  0  0  0
   22.4780  -34.7410   -2.7300 C   0  0  0  0  0  0  0  0  0  0  0  0
   22.0570  -35.7830   -2.2450 O   0  0  0  0  0  0  0  0  0  0  0  0
   21.9870  -34.0840   -3.8320 N   0  0  0  0  0  0  0  0  0  0  0  0
   20.9120  -34.4350   -4.6320 C   0  0  0  0  0  0  0  0  0  0  0  0
   19.6520  -34.0230   -4.4730 C   0  0  0  0  0  0  0  0  0  0  0  0
   18.5690  -34.4500   -5.3740 C   0  0  0  0  0  0  0  0  0  0  0  0
   17.4180  -34.1020   -5.1310 O   0  0  0  0  0  0  0  0  0  0  0  0
   21.2480  -35.3730   -5.7460 C   0  0  0  0  0  0  0  0  0  0  0  0
   22.3910  -35.8200   -5.8140 O   0  0  0  0  0  0  0  0  0  0  0  0
   16.7492  -34.0181   -7.1849 H   0  0  0  0  0  0  0  0  0  0  0  0
   17.8147  -33.9525   -8.6296 H   0  0  0  0  0  0  0  0  0  0  0  0
   16.3661  -35.0146   -8.6296 H   0  0  0  0  0  0  0  0  0  0  0  0
   21.4299  -37.2477   -7.5722 H   0  0  0  0  0  0  0  0  0  0  0  0
   19.7069  -37.1829   -8.1863 H   0  0  0  0  0  0  0  0  0  0  0  0
   20.3002  -35.0314   -9.3062 H   0  0  0  0  0  0  0  0  0  0  0  0
   21.0445  -37.7760  -10.0764 H   0  0  0  0  0  0  0  0  0  0  0  0
   20.1505  -36.5160  -10.9928 H   0  0  0  0  0  0  0  0  0  0  0  0
   21.9468  -36.5220  -10.9928 H   0  0  0  0  0  0  0  0  0  0  0  0
   22.3252  -34.1839   -9.6716 H   0  0  0  0  0  0  0  0  0  0  0  0
   22.4014  -34.8295   -7.9061 H   0  0  0  0  0  0  0  0  0  0  0  0
   23.7528  -36.1727  -10.2567 H   0  0  0  0  0  0  0  0  0  0  0  0
   24.2971  -38.8600   -8.2093 H   0  0  0  0  0  0  0  0  0  0  0  0
   23.2896  -38.3376   -9.6016 H   0  0  0  0  0  0  0  0  0  0  0  0
   25.0570  -38.0171   -9.6016 H   0  0  0  0  0  0  0  0  0  0  0  0
   24.3524  -33.7351   -8.8450 H   0  0  0  0  0  0  0  0  0  0  0  0
   26.3280  -33.9370  -10.2130 H   0  0  0  0  0  0  0  0  0  0  0  0
   25.6174  -35.8147   -7.4385 H   0  0  0  0  0  0  0  0  0  0  0  0
   27.9782  -34.9914   -7.4747 H   0  0  0  0  0  0  0  0  0  0  0  0
   27.4711  -35.8591   -8.9636 H   0  0  0  0  0  0  0  0  0  0  0  0
   27.5853  -34.0664   -8.9636 H   0  0  0  0  0  0  0  0  0  0  0  0
   25.7511  -32.6877   -7.3895 H   0  0  0  0  0  0  0  0  0  0  0  0
   25.5767  -34.7863   -3.7359 H   0  0  0  0  0  0  0  0  0  0  0  0
   24.7111  -35.6486   -5.0527 H   0  0  0  0  0  0  0  0  0  0  0  0
   26.5060  -35.5795   -5.0527 H   0  0  0  0  0  0  0  0  0  0  0  0
   24.4280  -32.6287   -4.1083 H   0  0  0  0  0  0  0  0  0  0  0  0
   22.8770  -29.0650   -5.5360 H   0  0  0  0  0  0  0  0  0  0  0  0
   24.6200  -29.1530   -5.6810 H   0  0  0  0  0  0  0  0  0  0  0  0
   27.1543  -32.9082   -3.8699 H   0  0  0  0  0  0  0  0  0  0  0  0
   27.1185  -29.9904   -2.7302 H   0  0  0  0  0  0  0  0  0  0  0  0
   27.9807  -29.1133   -4.0393 H   0  0  0  0  0  0  0  0  0  0  0  0
   26.1860  -29.1884   -4.0393 H   0  0  0  0  0  0  0  0  0  0  0  0
   26.7680  -31.0083   -1.9931 H   0  0  0  0  0  0  0  0  0  0  0  0
   24.7589  -31.5148   -0.9278 H   0  0  0  0  0  0  0  0  0  0  0  0
   23.1437  -32.3139   -3.1594 H   0  0  0  0  0  0  0  0  0  0  0  0
   24.1897  -34.6191   -0.1536 H   0  0  0  0  0  0  0  0  0  0  0  0
   24.2251  -35.9645   -1.3433 H   0  0  0  0  0  0  0  0  0  0  0  0
   25.5309  -34.7310   -1.3433 H   0  0  0  0  0  0  0  0  0  0  0  0
   22.4870  -33.2550   -4.1530 H   0  0  0  0  0  0  0  0  0  0  0  0
   19.4155  -33.3424   -3.6418 H   0  0  0  0  0  0  0  0  0  0  0  0
  1  2  1  0
  2  3  1  0
  3  4  2  0
  4  5  1  0
  5  6  1  0
  6  7  1  0
  6  8  1  0
  8  9  1  0
  9 10  1  0
 10 11  1  0
  9 12  1  0
 12 13  1  0
 12 14  1  0
 14 15  1  0
 14 16  1  0
 16 17  2  0
 17 18  1  0
 17 19  1  0
 19 20  1  0
 20 21  1  0
 21 22  1  0
 21 23  2  0
 19 24  1  0
 24 25  1  0
 25 26  1  0
 24 27  1  0
 27 28  2  0
 28 29  1  0
 29 30  2  0
 30 31  1  0
 30 32  1  0
 32 33  2  0
 32 34  1  0
 34 35  1  0
 35 36  2  0
 36 37  1  0
 37 38  2  0
 35 39  1  0
 39 40  2  0
 37  3  1  0
 39  4  1  0
  1 41  1  0
  1 42  1  0
  1 43  1  0
  5 44  1  0
  5 45  1  0
  6 46  1  6
  7 47  1  0
  7 48  1  0
  7 49  1  0
  8 50  1  0
  8 51  1  0
  9 52  1  6
 11 53  1  0
 11 54  1  0
 11 55  1  0
 12 56  1  1
 13 57  1  0
 14 58  1  1
 15 59  1  0
 15 60  1  0
 15 61  1  0
 16 62  1  0
 18 63  1  0
 18 64  1  0
 18 65  1  0
 19 66  1  1
 22 67  1  0
 22 68  1  0
 24 69  1  1
 26 70  1  0
 26 71  1  0
 26 72  1  0
 27 73  1  0
 28 74  1  0
 29 75  1  0
 31 76  1  0
 31 77  1  0
 31 78  1  0
 34 79  1  0
 36 80  1  0
M  END
>  <meeko>  (2) 
{"is_sidechain": [false], "free_energy": -5.05, "intermolecular_energy": -10.453, "internal_energy": -2.389}

$$$$
2yge_ligand
     RDKit          3D

 80 81  0  0  0  0  0  0  0  0999 V2000
   17.4670  -32.3840   -3.9630 C   0  0  0  0  0  0  0  0  0  0  0  0
   18.0760  -33.6660   -3.8340 O   0  0  0  0  0  0  0  0  0  0  0  0
   18.6690  -34.1570   -4.9930 C   0  0  0  0  0  0  0  0  0  0  0  0
   20.0020  -34.0470   -5.1340 C   0  0  0  0  0  0  0  0  0  0  0  0
   20.8840  -33.4140   -4.0740 C   0  0  0  0  0  0  0  0  0  0  0  0
   21.6850  -34.4360   -3.2290 C   0  0  2  0  0  0  0  0  0  0  0  0
   20.9660  -34.7430   -1.9150 C   0  0  0  0  0  0  0  0  0  0  0  0
   23.1730  -34.0770   -3.0280 C   0  0  0  0  0  0  0  0  0  0  0  0
   24.2570  -35.1920   -3.0450 C   0  0  2  0  0  0  0  0  0  0  0  0
   25.2840  -34.9200   -2.0960 O   0  0  0  0  0  0  0  0  0  0  0  0
   24.8060  -34.4520   -0.8410 C   0  0  0  0  0  0  0  0  0  0  0  0
   24.8290  -35.3010   -4.4970 C   0  0  2  0  0  0  0  0  0  0  0  0
   24.3410  -34.2110   -5.2970 O   0  0  0  0  0  0  0  0  0  0  0  0
   24.6090  -36.6570   -5.2230 C   0  0  1  0  0  0  0  0  0  0  0  0
   23.2140  -37.2430   -5.0010 C   0  0  0  0  0  0  0  0  0  0  0  0
   24.8400  -36.4670   -6.7140 C   0  0  0  0  0  0  0  0  0  0  0  0
   25.9950  -36.6190   -7.3960 C   0  0  0  0  0  0  0  0  0  0  0  0
   27.2710  -37.1400   -6.7890 C   0  0  0  0  0  0  0  0  0  0  0  0
   26.0620  -36.2330   -8.8790 C   0  0  2  0  0  0  0  0  0  0  0  0
   25.2730  -35.0360   -9.0360 O   0  0  0  0  0  0  0  0  0  0  0  0
   25.9100  -33.8660   -8.8510 C   0  0  0  0  0  0  0  0  0  0  0  0
   25.2010  -33.0940   -7.9990 N   0  0  0  0  0  0  0  0  0  0  0  0
   26.9600  -33.5100   -9.3610 O   0  0  0  0  0  0  0  0  0  0  0  0
   25.5590  -37.3990   -9.8040 C   0  0  1  0  0  0  0  0  0  0  0  0
   24.6050  -38.2080   -9.0930 O   0  0  0  0  0  0  0  0  0  0  0  0
   24.9890  -39.5710   -8.9850 C   0  0  0  0  0  0  0  0  0  0  0  0
   24.9060  -36.8690  -11.0580 C   0  0  0  0  0  0  0  0  0  0  0  0
   23.6340  -36.4630  -11.2030 C   0  0  0  0  0  0  0  0  0  0  0  0
   22.6330  -36.4110  -10.1630 C   0  0  0  0  0  0  0  0  0  0  0  0
   21.5170  -37.1620  -10.1290 C   0  0  0  0  0  0  0  0  0  0  0  0
   21.0980  -38.2240  -11.0940 C   0  0  0  0  0  0  0  0  0  0  0  0
   20.6440  -37.0190   -8.9330 C   0  0  0  0  0  0  0  0  0  0  0  0
   20.0510  -37.9890   -8.4800 O   0  0  0  0  0  0  0  0  0  0  0  0
   20.5790  -35.7240   -8.4770 N   0  0  0  0  0  0  0  0  0  0  0  0
   19.8510  -35.2260   -7.4100 C   0  0  0  0  0  0  0  0  0  0  0  0
   18.5280  -35.3170   -7.2550 C   0  0  0  0  0  0  0  0  0  0  0  0
   17.8350  -34.7550   -6.0840 C   0  0  0  0  0  0  0  0  0  0  0  0
   16.6100  -34.8000   -6.0360 O   0  0  0  0  0  0  0  0  0  0  0  0
   20.6680  -34.5180   -6.3770 C   0  0  0  0  0  0  0  0  0  0  0  0
   21.8680  -34.3570   -6.5860 O   0  0  0  0  0  0  0  0  0  0  0  0
   17.2700  -31.9694   -2.9634 H   0  0  0  0  0  0  0  0  0  0  0  0
   18.1417  -31.7112   -4.5126 H   0  0  0  0  0  0  0  0  0  0  0  0
   16.5192  -32.4819   -4.5126 H   0  0  0  0  0  0  0  0  0  0  0  0
   21.5981  -32.7429   -4.5737 H   0  0  0  0  0  0  0  0  0  0  0  0
   20.2164  -32.8813   -3.3808 H   0  0  0  0  0  0  0  0  0  0  0  0
   21.7164  -35.3611   -3.8233 H   0  0  0  0  0  0  0  0  0  0  0  0
   21.6133  -34.4666   -1.0696 H   0  0  0  0  0  0  0  0  0  0  0  0
   20.0311  -34.1656   -1.8650 H   0  0  0  0  0  0  0  0  0  0  0  0
   20.7364  -35.8176   -1.8650 H   0  0  0  0  0  0  0  0  0  0  0  0
   23.4375  -33.3665   -3.8250 H   0  0  0  0  0  0  0  0  0  0  0  0
   23.2046  -33.7132   -1.9904 H   0  0  0  0  0  0  0  0  0  0  0  0
   23.8096  -36.1547   -2.7567 H   0  0  0  0  0  0  0  0  0  0  0  0
   25.3367  -34.9716   -0.0296 H   0  0  0  0  0  0  0  0  0  0  0  0
   24.9841  -33.3694   -0.7613 H   0  0  0  0  0  0  0  0  0  0  0  0
   23.7275  -34.6530   -0.7613 H   0  0  0  0  0  0  0  0  0  0  0  0
   25.9205  -35.2433   -4.3737 H   0  0  0  0  0  0  0  0  0  0  0  0
   23.8130  -34.5820   -6.0230 H   0  0  0  0  0  0  0  0  0  0  0  0
   25.3280  -37.3711   -4.7953 H   0  0  0  0  0  0  0  0  0  0  0  0
   23.0183  -37.3252   -3.9217 H   0  0  0  0  0  0  0  0  0  0  0  0
   22.4623  -36.5846   -5.4608 H   0  0  0  0  0  0  0  0  0  0  0  0
   23.1580  -38.2407   -5.4608 H   0  0  0  0  0  0  0  0  0  0  0  0
   23.9621  -36.1707   -7.3069 H   0  0  0  0  0  0  0  0  0  0  0  0
   27.1947  -37.1088   -5.6921 H   0  0  0  0  0  0  0  0  0  0  0  0
   27.4357  -38.1774   -7.1158 H   0  0  0  0  0  0  0  0  0  0  0  0
   28.1147  -36.5143   -7.1158 H   0  0  0  0  0  0  0  0  0  0  0  0
   27.1015  -36.0460   -9.1862 H   0  0  0  0  0  0  0  0  0  0  0  0
   25.4960  -32.1410   -7.8510 H   0  0  0  0  0  0  0  0  0  0  0  0
   24.2790  -33.3940   -7.7260 H   0  0  0  0  0  0  0  0  0  0  0  0
   26.4355  -37.9992  -10.0894 H   0  0  0  0  0  0  0  0  0  0  0  0
   25.0668  -39.8470   -7.9230 H   0  0  0  0  0  0  0  0  0  0  0  0
   24.2343  -40.2044   -9.4742 H   0  0  0  0  0  0  0  0  0  0  0  0
   25.9633  -39.7173   -9.4742 H   0  0  0  0  0  0  0  0  0  0  0  0
   25.5432  -36.8087  -11.9526 H   0  0  0  0  0  0  0  0  0  0  0  0
   23.3256  -36.1397  -12.2082 H   0  0  0  0  0  0  0  0  0  0  0  0
   22.7953  -35.7039   -9.3361 H   0  0  0  0  0  0  0  0  0  0  0  0
   20.7495  -39.1073  -10.5386 H   0  0  0  0  0  0  0  0  0  0  0  0
   20.2826  -37.8435  -11.7267 H   0  0  0  0  0  0  0  0  0  0  0  0
   21.9535  -38.5027  -11.7267 H   0  0  0  0  0  0  0  0  0  0  0  0
   21.0850  -35.0090   -9.0000 H   0  0  0  0  0  0  0  0  0  0  0  0
   17.9361  -35.8290   -8.0280 H   0  0  0  0  0  0  0  0  0  0  0  0
  1  2  1  0
  2  3  1  0
  3  4  2  0
  4  5  1  0
  5  6  1  0
  6  7  1  0
  6  8  1  0
  8  9  1  0
  9 10  1  0
 10 11  1  0
  9 12  1  0
 12 13  1  0
 12 14  1  0
 14 15  1  0
 14 16  1  0
 16 17  2  0
 17 18  1  0
 17 19  1  0
 19 20  1  0
 20 21  1  0
 21 22  1  0
 21 23  2  0
 19 24  1  0
 24 25  1  0
 25 26  1  0
 24 27  1  0
 27 28  2  0
 28 29  1  0
 29 30  2  0
 30 31  1  0
 30 32  1  0
 32 33  2  0
 32 34  1  0
 34 35  1  0
 35 36  2  0
 36 37  1  0
 37 38  2  0
 35 39  1  0
 39 40  2  0
 37  3  1  0
 39  4  1  0
  1 41  1  0
  1 42  1  0
  1 43  1  0
  5 44  1  0
  5 45  1  0
  6 46  1  6
  7 47  1  0
  7 48  1  0
  7 49  1  0
  8 50  1  0
  8 51  1  0
  9 52  1  1
 11 53  1  0
 11 54  1  0
 11 55  1  0
 12 56  1  1
 13 57  1  0
 14 58  1  1
 15 59  1  0
 15 60  1  0
 15 61  1  0
 16 62  1  0
 18 63  1  0
 18 64  1  0
 18 65  1  0
 19 66  1  6
 22 67  1  0
 22 68  1  0
 24 69  1  6
 26 70  1  0
 26 71  1  0
 26 72  1  0
 27 73  1  0
 28 74  1  0
 29 75  1  0
 31 76  1  0
 31 77  1  0
 31 78  1  0
 34 79  1  0
 36 80  1  0
M  END
>  <meeko>  (3) 
{"is_sidechain": [false], "free_energy": -4.95, "intermolecular_energy": -10.7, "internal_energy": -1.939}

$$$$
2yge_ligand
     RDKit          3D

 80 81  0  0  0  0  0  0  0  0999 V2000
   26.2600  -38.3960   -9.1610 C   0  0  0  0  0  0  0  0  0  0  0  0
   25.7890  -38.7170   -7.8550 O   0  0  0  0  0  0  0  0  0  0  0  0
   24.5600  -38.1580   -7.5180 C   0  0  0  0  0  0  0  0  0  0  0  0
   24.5270  -36.8900   -7.0710 C   0  0  0  0  0  0  0  0  0  0  0  0
   25.7790  -36.0450   -6.9260 C   0  0  0  0  0  0  0  0  0  0  0  0
   26.4880  -36.2000   -5.5560 C   0  0  2  0  0  0  0  0  0  0  0  0
   25.7790  -37.2410   -4.6900 C   0  0  0  0  0  0  0  0  0  0  0  0
   26.7420  -34.8730   -4.8110 C   0  0  0  0  0  0  0  0  0  0  0  0
   25.5490  -34.0550   -4.2390 C   0  0  2  0  0  0  0  0  0  0  0  0
   25.5990  -32.7020   -4.6830 O   0  0  0  0  0  0  0  0  0  0  0  0
   26.7120  -32.4030   -5.5150 C   0  0  0  0  0  0  0  0  0  0  0  0
   25.5850  -34.1320   -2.6710 C   0  0  2  0  0  0  0  0  0  0  0  0
   26.8130  -34.7490   -2.2470 O   0  0  0  0  0  0  0  0  0  0  0  0
   24.3660  -34.8080   -1.9860 C   0  0  1  0  0  0  0  0  0  0  0  0
   24.4050  -34.7250   -0.4590 C   0  0  0  0  0  0  0  0  0  0  0  0
   23.0870  -34.1560   -2.4880 C   0  0  0  0  0  0  0  0  0  0  0  0
   21.9510  -34.7670   -2.8880 C   0  0  0  0  0  0  0  0  0  0  0  0
   21.7090  -36.2500   -2.7850 C   0  0  0  0  0  0  0  0  0  0  0  0
   20.8170  -33.9410   -3.5080 C   0  0  2  0  0  0  0  0  0  0  0  0
   21.3610  -32.6380   -3.8020 O   0  0  0  0  0  0  0  0  0  0  0  0
   21.5940  -32.3600   -5.0960 C   0  0  0  0  0  0  0  0  0  0  0  0
   22.8630  -31.9200   -5.2460 N   0  0  0  0  0  0  0  0  0  0  0  0
   20.8090  -32.4630   -6.0250 O   0  0  0  0  0  0  0  0  0  0  0  0
   19.5720  -33.8610   -2.5540 C   0  0  1  0  0  0  0  0  0  0  0  0
   19.7100  -32.7390   -1.6650 O   0  0  0  0  0  0  0  0  0  0  0  0
   18.5640  -31.9000   -1.6320 C   0  0  0  0  0  0  0  0  0  0  0  0
   18.2870  -33.7060   -3.3330 C   0  0  0  0  0  0  0  0  0  0  0  0
   18.0200  -34.1730   -4.5640 C   0  0  0  0  0  0  0  0  0  0  0  0
   18.9050  -34.9670   -5.3830 C   0  0  0  0  0  0  0  0  0  0  0  0
   18.6740  -35.3010   -6.6660 C   0  0  0  0  0  0  0  0  0  0  0  0
   17.5180  -34.8990   -7.5240 C   0  0  0  0  0  0  0  0  0  0  0  0
   19.7440  -36.0630   -7.3670 C   0  0  0  0  0  0  0  0  0  0  0  0
   19.5960  -36.4050   -8.5330 O   0  0  0  0  0  0  0  0  0  0  0  0
   20.8190  -36.3340   -6.5560 N   0  0  0  0  0  0  0  0  0  0  0  0
   21.9720  -37.0360   -6.8660 C   0  0  0  0  0  0  0  0  0  0  0  0
   22.0260  -38.2970   -7.3040 C   0  0  0  0  0  0  0  0  0  0  0  0
   23.3010  -38.9660   -7.6080 C   0  0  0  0  0  0  0  0  0  0  0  0
   23.2930  -40.1500   -7.9300 O   0  0  0  0  0  0  0  0  0  0  0  0
   23.2390  -36.2710   -6.6590 C   0  0  0  0  0  0  0  0  0  0  0  0
   23.1740  -35.1500   -6.1620 O   0  0  0  0  0  0  0  0  0  0  0  0
   27.1666  -37.7781   -9.0822 H   0  0  0  0  0  0  0  0  0  0  0  0
   26.4943  -39.3232   -9.7045 H   0  0  0  0  0  0  0  0  0  0  0  0
   25.4827  -37.8389   -9.7045 H   0  0  0  0  0  0  0  0  0  0  0  0
   26.4863  -36.3359   -7.7166 H   0  0  0  0  0  0  0  0  0  0  0  0
   25.4649  -34.9938   -7.0052 H   0  0  0  0  0  0  0  0  0  0  0  0
   27.4989  -36.5728   -5.7775 H   0  0  0  0  0  0  0  0  0  0  0  0
   25.9397  -37.0051   -3.6277 H   0  0  0  0  0  0  0  0  0  0  0  0
   24.7012  -37.2280   -4.9095 H   0  0  0  0  0  0  0  0  0  0  0  0
   26.1859  -38.2391   -4.9095 H   0  0  0  0  0  0  0  0  0  0  0  0
   27.4006  -35.1079   -3.9618 H   0  0  0  0  0  0  0  0  0  0  0  0
   27.1410  -34.2165   -5.5983 H   0  0  0  0  0  0  0  0  0  0  0  0
   24.6043  -34.4840   -4.6045 H   0  0  0  0  0  0  0  0  0  0  0  0
   27.5854  -32.1684   -4.8888 H   0  0  0  0  0  0  0  0  0  0  0  0
   26.9390  -33.2720   -6.1501 H   0  0  0  0  0  0  0  0  0  0  0  0
   26.4730  -31.5372   -6.1501 H   0  0  0  0  0  0  0  0  0  0  0  0
   25.5260  -33.0865   -2.3341 H   0  0  0  0  0  0  0  0  0  0  0  0
   26.6170  -35.6650   -1.9860 H   0  0  0  0  0  0  0  0  0  0  0  0
   24.4016  -35.8753   -2.2499 H   0  0  0  0  0  0  0  0  0  0  0  0
   23.9741  -35.6420   -0.0308 H   0  0  0  0  0  0  0  0  0  0  0  0
   25.4474  -34.6186   -0.1241 H   0  0  0  0  0  0  0  0  0  0  0  0
   23.8216  -33.8547   -0.1241 H   0  0  0  0  0  0  0  0  0  0  0  0
   23.0872  -33.0568   -2.5303 H   0  0  0  0  0  0  0  0  0  0  0  0
   21.6615  -36.5410   -1.7253 H   0  0  0  0  0  0  0  0  0  0  0  0
   20.7580  -36.5014   -3.2773 H   0  0  0  0  0  0  0  0  0  0  0  0
   22.5308  -36.7907   -3.2773 H   0  0  0  0  0  0  0  0  0  0  0  0
   20.4477  -34.4153   -4.4293 H   0  0  0  0  0  0  0  0  0  0  0  0
   23.1490  -31.5650   -6.1450 H   0  0  0  0  0  0  0  0  0  0  0  0
   23.4090  -31.7290   -4.4210 H   0  0  0  0  0  0  0  0  0  0  0  0
   19.5290  -34.8006   -1.9836 H   0  0  0  0  0  0  0  0  0  0  0  0
   18.2877  -31.6977   -0.5867 H   0  0  0  0  0  0  0  0  0  0  0  0
   18.7891  -30.9517   -2.1419 H   0  0  0  0  0  0  0  0  0  0  0  0
   17.7280  -32.4010   -2.1419 H   0  0  0  0  0  0  0  0  0  0  0  0
   17.4793  -33.1482   -2.8366 H   0  0  0  0  0  0  0  0  0  0  0  0
   17.0350  -33.9275   -4.9876 H   0  0  0  0  0  0  0  0  0  0  0  0
   19.8380  -35.3258   -4.9239 H   0  0  0  0  0  0  0  0  0  0  0  0
   16.6721  -34.6048   -6.8853 H   0  0  0  0  0  0  0  0  0  0  0  0
   17.8106  -34.0498   -8.1591 H   0  0  0  0  0  0  0  0  0  0  0  0
   17.2206  -35.7465   -8.1591 H   0  0  0  0  0  0  0  0  0  0  0  0
   20.7690  -36.0330   -5.5830 H   0  0  0  0  0  0  0  0  0  0  0  0
   21.0870  -38.8532   -7.4419 H   0  0  0  0  0  0  0  0  0  0  0  0
  1  2  1  0
  2  3  1  0
  3  4  2  0
  4  5  1  0
  5  6  1  0
  6  7  1  0
  6  8  1  0
  8  9  1  0
  9 10  1  0
 10 11  1  0
  9 12  1  0
 12 13  1  0
 12 14  1  0
 14 15  1  0
 14 16  1  0
 16 17  2  0
 17 18  1  0
 17 19  1  0
 19 20  1  0
 20 21  1  0
 21 22  1  0
 21 23  2  0
 19 24  1  0
 24 25  1  0
 25 26  1  0
 24 27  1  0
 27 28  2  0
 28 29  1  0
 29 30  2  0
 30 31  1  0
 30 32  1  0
 32 33  2  0
 32 34  1  0
 34 35  1  0
 35 36  2  0
 36 37  1  0
 37 38  2  0
 35 39  1  0
 39 40  2  0
 37  3  1  0
 39  4  1  0
  1 41  1  0
  1 42  1  0
  1 43  1  0
  5 44  1  0
  5 45  1  0
  6 46  1  6
  7 47  1  0
  7 48  1  0
  7 49  1  0
  8 50  1  0
  8 51  1  0
  9 52  1  6
 11 53  1  0
 11 54  1  0
 11 55  1  0
 12 56  1  1
 13 57  1  0
 14 58  1  1
 15 59  1  0
 15 60  1  0
 15 61  1  0
 16 62  1  0
 18 63  1  0
 18 64  1  0
 18 65  1  0
 19 66  1  6
 22 67  1  0
 22 68  1  0
 24 69  1  1
 26 70  1  0
 26 71  1  0
 26 72  1  0
 27 73  1  0
 28 74  1  0
 29 75  1  0
 31 76  1  0
 31 77  1  0
 31 78  1  0
 34 79  1  0
 36 80  1  0
M  END
>  <meeko>  (4) 
{"is_sidechain": [false], "free_energy": -4.912, "intermolecular_energy": -10.449, "internal_energy": -2.114}

$$$$
2yge_ligand
     RDKit          3D

 80 81  0  0  0  0  0  0  0  0999 V2000
   27.6020  -35.1520   -8.3840 C   0  0  0  0  0  0  0  0  0  0  0  0
   27.0630  -35.9030   -7.2990 O   0  0  0  0  0  0  0  0  0  0  0  0
   25.6800  -35.8220   -7.1570 C   0  0  0  0  0  0  0  0  0  0  0  0
   25.1640  -34.8180   -6.4260 C   0  0  0  0  0  0  0  0  0  0  0  0
   26.0300  -33.7680   -5.7570 C   0  0  0  0  0  0  0  0  0  0  0  0
   26.5230  -34.1660   -4.3430 C   0  0  2  0  0  0  0  0  0  0  0  0
   25.8690  -35.4690   -3.8830 C   0  0  0  0  0  0  0  0  0  0  0  0
   26.4260  -33.0420   -3.2890 C   0  0  0  0  0  0  0  0  0  0  0  0
   25.2410  -32.0350   -3.3250 C   0  0  2  0  0  0  0  0  0  0  0  0
   25.7130  -30.6920   -3.3520 O   0  0  0  0  0  0  0  0  0  0  0  0
   26.8700  -30.4980   -4.1560 C   0  0  0  0  0  0  0  0  0  0  0  0
   24.3550  -32.2980   -2.0690 C   0  0  2  0  0  0  0  0  0  0  0  0
   25.1630  -32.2490   -0.8800 O   0  0  0  0  0  0  0  0  0  0  0  0
   23.5000  -33.5950   -2.0990 C   0  0  1  0  0  0  0  0  0  0  0  0
   23.7530  -34.5150   -0.9050 C   0  0  0  0  0  0  0  0  0  0  0  0
   22.0270  -33.2190   -2.1370 C   0  0  0  0  0  0  0  0  0  0  0  0
   21.0050  -33.9360   -2.6530 C   0  0  0  0  0  0  0  0  0  0  0  0
   21.1440  -35.3360   -3.1910 C   0  0  0  0  0  0  0  0  0  0  0  0
   19.6030  -33.3190   -2.7330 C   0  0  2  0  0  0  0  0  0  0  0  0
   19.4210  -32.5380   -1.5340 O   0  0  0  0  0  0  0  0  0  0  0  0
   18.6310  -31.4550   -1.6340 C   0  0  0  0  0  0  0  0  0  0  0  0
   18.0030  -31.4600   -2.8310 N   0  0  0  0  0  0  0  0  0  0  0  0
   18.4800  -30.5730   -0.8050 O   0  0  0  0  0  0  0  0  0  0  0  0
   18.4950  -34.4190   -2.8980 C   0  0  1  0  0  0  0  0  0  0  0  0
   17.7760  -34.5760   -1.6620 O   0  0  0  0  0  0  0  0  0  0  0  0
   18.4050  -35.4660   -0.7510 C   0  0  0  0  0  0  0  0  0  0  0  0
   17.5130  -34.0570   -3.9860 C   0  0  0  0  0  0  0  0  0  0  0  0
   17.7570  -33.9550   -5.3030 C   0  0  0  0  0  0  0  0  0  0  0  0
   19.0180  -34.2180   -5.9570 C   0  0  0  0  0  0  0  0  0  0  0  0
   19.1600  -34.8820   -7.1190 C   0  0  0  0  0  0  0  0  0  0  0  0
   18.0830  -35.4330   -7.9960 C   0  0  0  0  0  0  0  0  0  0  0  0
   20.5370  -34.9860   -7.6720 C   0  0  0  0  0  0  0  0  0  0  0  0
   20.7550  -34.7050   -8.8430 O   0  0  0  0  0  0  0  0  0  0  0  0
   21.4460  -35.4470   -6.7500 N   0  0  0  0  0  0  0  0  0  0  0  0
   22.7980  -35.6860   -6.9230 C   0  0  0  0  0  0  0  0  0  0  0  0
   23.3320  -36.6800   -7.6370 C   0  0  0  0  0  0  0  0  0  0  0  0
   24.7870  -36.8590   -7.7660 C   0  0  0  0  0  0  0  0  0  0  0  0
   25.2180  -37.8370   -8.3680 O   0  0  0  0  0  0  0  0  0  0  0  0
   23.6940  -34.7230   -6.2130 C   0  0  0  0  0  0  0  0  0  0  0  0
   23.1870  -33.8780   -5.4810 O   0  0  0  0  0  0  0  0  0  0  0  0
   28.2009  -34.3175   -7.9905 H   0  0  0  0  0  0  0  0  0  0  0  0
   28.2402  -35.8032   -8.9994 H   0  0  0  0  0  0  0  0  0  0  0  0
   26.7808  -34.7558   -8.9994 H   0  0  0  0  0  0  0  0  0  0  0  0
   26.9098  -33.5890   -6.3925 H   0  0  0  0  0  0  0  0  0  0  0  0
   25.4058  -32.8704   -5.6357 H   0  0  0  0  0  0  0  0  0  0  0  0
   27.6045  -34.3432   -4.4379 H   0  0  0  0  0  0  0  0  0  0  0  0
   25.8521  -35.5026   -2.7836 H   0  0  0  0  0  0  0  0  0  0  0  0
   24.8394  -35.5181   -4.2672 H   0  0  0  0  0  0  0  0  0  0  0  0
   26.4449  -36.3239   -4.2672 H   0  0  0  0  0  0  0  0  0  0  0  0
   26.3945  -33.5327   -2.3050 H   0  0  0  0  0  0  0  0  0  0  0  0
   27.2980  -32.4107   -3.5152 H   0  0  0  0  0  0  0  0  0  0  0  0
   24.6475  -32.1788   -4.2399 H   0  0  0  0  0  0  0  0  0  0  0  0
   27.7465  -30.3510   -3.5078 H   0  0  0  0  0  0  0  0  0  0  0  0
   27.0277  -31.3822   -4.7910 H   0  0  0  0  0  0  0  0  0  0  0  0
   26.7307  -29.6107   -4.7910 H   0  0  0  0  0  0  0  0  0  0  0  0
   23.6115  -31.4873   -2.0714 H   0  0  0  0  0  0  0  0  0  0  0  0
   24.6500  -31.8050   -0.1840 H   0  0  0  0  0  0  0  0  0  0  0  0
   23.7938  -34.1529   -3.0003 H   0  0  0  0  0  0  0  0  0  0  0  0
   23.5989  -33.9545    0.0289 H   0  0  0  0  0  0  0  0  0  0  0  0
   23.0551  -35.3644   -0.9423 H   0  0  0  0  0  0  0  0  0  0  0  0
   24.7871  -34.8881   -0.9423 H   0  0  0  0  0  0  0  0  0  0  0  0
   21.7625  -32.2486   -1.6917 H   0  0  0  0  0  0  0  0  0  0  0  0
   21.2144  -36.0454   -2.3533 H   0  0  0  0  0  0  0  0  0  0  0  0
   20.2658  -35.5812   -3.8063 H   0  0  0  0  0  0  0  0  0  0  0  0
   22.0533  -35.4038   -3.8063 H   0  0  0  0  0  0  0  0  0  0  0  0
   19.5092  -32.6778   -3.6218 H   0  0  0  0  0  0  0  0  0  0  0  0
   17.4630  -30.6520   -3.0970 H   0  0  0  0  0  0  0  0  0  0  0  0
   18.2780  -32.1430   -3.5190 H   0  0  0  0  0  0  0  0  0  0  0  0
   18.9972  -35.3581   -3.1732 H   0  0  0  0  0  0  0  0  0  0  0  0
   18.1835  -35.1526    0.2799 H   0  0  0  0  0  0  0  0  0  0  0  0
   18.0259  -36.4857   -0.9137 H   0  0  0  0  0  0  0  0  0  0  0  0
   19.4928  -35.4490   -0.9137 H   0  0  0  0  0  0  0  0  0  0  0  0
   16.4810  -33.8538   -3.6639 H   0  0  0  0  0  0  0  0  0  0  0  0
   16.9188  -33.6422   -5.9429 H   0  0  0  0  0  0  0  0  0  0  0  0
   19.9312  -33.8475   -5.4683 H   0  0  0  0  0  0  0  0  0  0  0  0
   17.2768  -35.8454   -7.3715 H   0  0  0  0  0  0  0  0  0  0  0  0
   17.6806  -34.6300   -8.6310 H   0  0  0  0  0  0  0  0  0  0  0  0
   18.4987  -36.2292   -8.6310 H   0  0  0  0  0  0  0  0  0  0  0  0
   21.0980  -35.6980   -5.8240 H   0  0  0  0  0  0  0  0  0  0  0  0
   22.6620  -37.3887   -8.1457 H   0  0  0  0  0  0  0  0  0  0  0  0
  1  2  1  0
  2  3  1  0
  3  4  2  0
  4  5  1  0
  5  6  1  0
  6  7  1  0
  6  8  1  0
  8  9  1  0
  9 10  1  0
 10 11  1  0
  9 12  1  0
 12 13  1  0
 12 14  1  0
 14 15  1  0
 14 16  1  0
 16 17  2  0
 17 18  1  0
 17 19  1  0
 19 20  1  0
 20 21  1  0
 21 22  1  0
 21 23  2  0
 19 24  1  0
 24 25  1  0
 25 26  1  0
 24 27  1  0
 27 28  2  0
 28 29  1  0
 29 30  2  0
 30 31  1  0
 30 32  1  0
 32 33  2  0
 32 34  1  0
 34 35  1  0
 35 36  2  0
 36 37  1  0
 37 38  2  0
 35 39  1  0
 39 40  2  0
 37  3  1  0
 39  4  1  0
  1 41  1  0
  1 42  1  0
  1 43  1  0
  5 44  1  0
  5 45  1  0
  6 46  1  6
  7 47  1  0
  7 48  1  0
  7 49  1  0
  8 50  1  0
  8 51  1  0
  9 52  1  6
 11 53  1  0
 11 54  1  0
 11 55  1  0
 12 56  1  1
 13 57  1  0
 14 58  1  6
 15 59  1  0
 15 60  1  0
 15 61  1  0
 16 62  1  0
 18 63  1  0
 18 64  1  0
 18 65  1  0
 19 66  1  6
 22 67  1  0
 22 68  1  0
 24 69  1  6
 26 70  1  0
 26 71  1  0
 26 72  1  0
 27 73  1  0
 28 74  1  0
 29 75  1  0
 31 76  1  0
 31 77  1  0
 31 78  1  0
 34 79  1  0
 36 80  1  0
M  END
>  <meeko>  (5) 
{"is_sidechain": [false], "free_energy": -4.824, "intermolecular_energy": -10.838, "internal_energy": -1.548}

$$$$
2yge_ligand
     RDKit          3D

 80 81  0  0  0  0  0  0  0  0999 V2000
   26.2280  -28.3930   -4.2090 C   0  0  0  0  0  0  0  0  0  0  0  0
   27.2360  -29.3400   -4.5520 O   0  0  0  0  0  0  0  0  0  0  0  0
   26.8490  -30.3020   -5.4790 C   0  0  0  0  0  0  0  0  0  0  0  0
   26.5420  -31.5360   -5.0410 C   0  0  0  0  0  0  0  0  0  0  0  0
   26.5950  -31.9160   -3.5730 C   0  0  0  0  0  0  0  0  0  0  0  0
   25.2050  -31.9880   -2.8910 C   0  0  2  0  0  0  0  0  0  0  0  0
   25.2130  -31.2410   -1.5570 C   0  0  0  0  0  0  0  0  0  0  0  0
   24.6180  -33.4110   -2.7790 C   0  0  0  0  0  0  0  0  0  0  0  0
   23.4430  -33.6980   -1.8010 C   0  0  2  0  0  0  0  0  0  0  0  0
   23.8800  -34.4840   -0.6960 O   0  0  0  0  0  0  0  0  0  0  0  0
   25.2810  -34.7220   -0.6690 C   0  0  0  0  0  0  0  0  0  0  0  0
   22.3200  -34.4360   -2.6070 C   0  0  2  0  0  0  0  0  0  0  0  0
   21.1960  -34.7270   -1.7600 O   0  0  0  0  0  0  0  0  0  0  0  0
   22.7820  -35.7100   -3.3660 C   0  0  1  0  0  0  0  0  0  0  0  0
   22.3450  -37.0100   -2.6890 C   0  0  0  0  0  0  0  0  0  0  0  0
   22.2300  -35.6750   -4.7820 C   0  0  0  0  0  0  0  0  0  0  0  0
   22.8390  -36.0850   -5.9160 C   0  0  0  0  0  0  0  0  0  0  0  0
   24.1720  -36.7840   -5.9520 C   0  0  0  0  0  0  0  0  0  0  0  0
   22.1750  -35.8270   -7.2750 C   0  0  2  0  0  0  0  0  0  0  0  0
   20.8430  -35.3430   -7.0050 O   0  0  0  0  0  0  0  0  0  0  0  0
   20.5960  -34.0570   -7.3100 C   0  0  0  0  0  0  0  0  0  0  0  0
   20.7010  -33.8780   -8.6450 N   0  0  0  0  0  0  0  0  0  0  0  0
   20.3260  -33.1550   -6.5340 O   0  0  0  0  0  0  0  0  0  0  0  0
   22.1670  -37.1180   -8.1690 C   0  0  1  0  0  0  0  0  0  0  0  0
   20.9410  -37.8430   -7.9660 O   0  0  0  0  0  0  0  0  0  0  0  0
   21.1030  -39.0210   -7.1890 C   0  0  0  0  0  0  0  0  0  0  0  0
   22.2900  -36.7770   -9.6350 C   0  0  0  0  0  0  0  0  0  0  0  0
   23.1210  -35.8820  -10.1950 C   0  0  0  0  0  0  0  0  0  0  0  0
   24.1070  -35.0860   -9.5030 C   0  0  0  0  0  0  0  0  0  0  0  0
   25.4390  -35.2140   -9.6460 C   0  0  0  0  0  0  0  0  0  0  0  0
   26.1770  -36.1360  -10.5610 C   0  0  0  0  0  0  0  0  0  0  0  0
   26.2920  -34.2480   -8.9020 C   0  0  0  0  0  0  0  0  0  0  0  0
   27.5090  -34.3800   -8.8910 O   0  0  0  0  0  0  0  0  0  0  0  0
   25.5590  -33.2860   -8.2500 N   0  0  0  0  0  0  0  0  0  0  0  0
   26.0180  -32.2530   -7.4510 C   0  0  0  0  0  0  0  0  0  0  0  0
   26.3360  -31.0240   -7.8670 C   0  0  0  0  0  0  0  0  0  0  0  0
   26.8200  -29.9850   -6.9430 C   0  0  0  0  0  0  0  0  0  0  0  0
   27.1720  -28.9010   -7.3960 O   0  0  0  0  0  0  0  0  0  0  0  0
   26.1670  -32.6050   -6.0060 C   0  0  0  0  0  0  0  0  0  0  0  0
   25.9660  -33.7660   -5.6600 O   0  0  0  0  0  0  0  0  0  0  0  0
   26.1506  -28.3203   -3.1141 H   0  0  0  0  0  0  0  0  0  0  0  0
   26.4926  -27.4093   -4.6240 H   0  0  0  0  0  0  0  0  0  0  0  0
   25.2627  -28.7184   -4.6240 H   0  0  0  0  0  0  0  0  0  0  0  0
   27.0738  -32.9027   -3.4880 H   0  0  0  0  0  0  0  0  0  0  0  0
   27.1615  -31.1253   -3.0593 H   0  0  0  0  0  0  0  0  0  0  0  0
   24.5076  -31.4707   -3.5662 H   0  0  0  0  0  0  0  0  0  0  0  0
   25.2052  -31.9667   -0.7304 H   0  0  0  0  0  0  0  0  0  0  0  0
   26.1179  -30.6191   -1.4904 H   0  0  0  0  0  0  0  0  0  0  0  0
   24.3217  -30.5998   -1.4904 H   0  0  0  0  0  0  0  0  0  0  0  0
   24.2684  -33.6893   -3.7842 H   0  0  0  0  0  0  0  0  0  0  0  0
   25.4482  -33.9916   -2.3505 H   0  0  0  0  0  0  0  0  0  0  0  0
   23.0545  -32.7555   -1.3877 H   0  0  0  0  0  0  0  0  0  0  0  0
   25.6230  -34.7801    0.3749 H   0  0  0  0  0  0  0  0  0  0  0  0
   25.5017  -35.6705   -1.1805 H   0  0  0  0  0  0  0  0  0  0  0  0
   25.8026  -33.8996   -1.1805 H   0  0  0  0  0  0  0  0  0  0  0  0
   22.0226  -33.7288   -3.3953 H   0  0  0  0  0  0  0  0  0  0  0  0
   20.7910  -33.8840   -1.4940 H   0  0  0  0  0  0  0  0  0  0  0  0
   23.8820  -35.7022   -3.3658 H   0  0  0  0  0  0  0  0  0  0  0  0
   22.3865  -36.8865   -1.5967 H   0  0  0  0  0  0  0  0  0  0  0  0
   21.3158  -37.2530   -2.9917 H   0  0  0  0  0  0  0  0  0  0  0  0
   23.0184  -37.8254   -2.9917 H   0  0  0  0  0  0  0  0  0  0  0  0
   21.2147  -35.2677   -4.8968 H   0  0  0  0  0  0  0  0  0  0  0  0
   24.5186  -36.9657   -4.9240 H   0  0  0  0  0  0  0  0  0  0  0  0
   24.0686  -37.7439   -6.4792 H   0  0  0  0  0  0  0  0  0  0  0  0
   24.9028  -36.1531   -6.4792 H   0  0  0  0  0  0  0  0  0  0  0  0
   22.7410  -35.0793   -7.8500 H   0  0  0  0  0  0  0  0  0  0  0  0
   20.6540  -32.9410   -9.0130 H   0  0  0  0  0  0  0  0  0  0  0  0
   21.0620  -34.6330   -9.2080 H   0  0  0  0  0  0  0  0  0  0  0  0
   23.0311  -37.7320   -7.8751 H   0  0  0  0  0  0  0  0  0  0  0  0
   21.0675  -38.7631   -6.1203 H   0  0  0  0  0  0  0  0  0  0  0  0
   20.2937  -39.7285   -7.4225 H   0  0  0  0  0  0  0  0  0  0  0  0
   22.0732  -39.4837   -7.4225 H   0  0  0  0  0  0  0  0  0  0  0  0
   21.6250  -37.3222  -10.3209 H   0  0  0  0  0  0  0  0  0  0  0  0
   23.0428  -35.7425  -11.2833 H   0  0  0  0  0  0  0  0  0  0  0  0
   23.7419  -34.3169   -8.8064 H   0  0  0  0  0  0  0  0  0  0  0  0
   26.7550  -36.8582   -9.9657 H   0  0  0  0  0  0  0  0  0  0  0  0
   25.4585  -36.6756  -11.1955 H   0  0  0  0  0  0  0  0  0  0  0  0
   26.8609  -35.5531  -11.1955 H   0  0  0  0  0  0  0  0  0  0  0  0
   24.5420  -33.3440   -8.3050 H   0  0  0  0  0  0  0  0  0  0  0  0
   26.2329  -30.7804   -8.9347 H   0  0  0  0  0  0  0  0  0  0  0  0
  1  2  1  0
  2  3  1  0
  3  4  2  0
  4  5  1  0
  5  6  1  0
  6  7  1  0
  6  8  1  0
  8  9  1  0
  9 10  1  0
 10 11  1  0
  9 12  1  0
 12 13  1  0
 12 14  1  0
 14 15  1  0
 14 16  1  0
 16 17  2  0
 17 18  1  0
 17 19  1  0
 19 20  1  0
 20 21  1  0
 21 22  1  0
 21 23  2  0
 19 24  1  0
 24 25  1  0
 25 26  1  0
 24 27  1  0
 27 28  2  0
 28 29  1  0
 29 30  2  0
 30 31  1  0
 30 32  1  0
 32 33  2  0
 32 34  1  0
 34 35  1  0
 35 36  2  0
 36 37  1  0
 37 38  2  0
 35 39  1  0
 39 40  2  0
 37  3  1  0
 39  4  1  0
  1 41  1  0
  1 42  1  0
  1 43  1  0
  5 44  1  0
  5 45  1  0
  6 46  1  6
  7 47  1  0
  7 48  1  0
  7 49  1  0
  8 50  1  0
  8 51  1  0
  9 52  1  1
 11 53  1  0
 11 54  1  0
 11 55  1  0
 12 56  1  6
 13 57  1  0
 14 58  1  6
 15 59  1  0
 15 60  1  0
 15 61  1  0
 16 62  1  0
 18 63  1  0
 18 64  1  0
 18 65  1  0
 19 66  1  6
 22 67  1  0
 22 68  1  0
 24 69  1  1
 26 70  1  0
 26 71  1  0
 26 72  1  0
 27 73  1  0
 28 74  1  0
 29 75  1  0
 31 76  1  0
 31 77  1  0
 31 78  1  0
 34 79  1  0
 36 80  1  0
M  END
>  <meeko>  (6) 
{"is_sidechain": [false], "free_energy": -4.782, "intermolecular_energy": -9.868, "internal_energy": -2.432}

$$$$
2yge_ligand
     RDKit          3D

 80 81  0  0  0  0  0  0  0  0999 V2000
   22.7870  -39.0800  -11.1860 C   0  0  0  0  0  0  0  0  0  0  0  0
   22.2360  -37.7690  -11.2780 O   0  0  0  0  0  0  0  0  0  0  0  0
   21.8210  -37.2180  -10.0700 C   0  0  0  0  0  0  0  0  0  0  0  0
   22.6150  -36.3150   -9.4650 C   0  0  0  0  0  0  0  0  0  0  0  0
   23.9410  -35.8720  -10.0540 C   0  0  0  0  0  0  0  0  0  0  0  0
   25.1740  -36.5550   -9.4110 C   0  0  2  0  0  0  0  0  0  0  0  0
   24.7690  -37.8320   -8.6730 C   0  0  0  0  0  0  0  0  0  0  0  0
   26.0520  -35.6200   -8.5520 C   0  0  0  0  0  0  0  0  0  0  0  0
   26.1090  -34.0970   -8.8630 C   0  0  2  0  0  0  0  0  0  0  0  0
   27.3200  -33.7590   -9.5330 O   0  0  0  0  0  0  0  0  0  0  0  0
   27.4950  -34.4110  -10.7840 C   0  0  0  0  0  0  0  0  0  0  0  0
   25.9680  -33.3220   -7.5130 C   0  0  2  0  0  0  0  0  0  0  0  0
   26.3240  -31.9430   -7.7130 O   0  0  0  0  0  0  0  0  0  0  0  0
   26.7260  -33.9130   -6.2930 C   0  0  1  0  0  0  0  0  0  0  0  0
   28.1920  -33.4870   -6.2250 C   0  0  0  0  0  0  0  0  0  0  0  0
   26.0220  -33.4850   -5.0140 C   0  0  0  0  0  0  0  0  0  0  0  0
   24.9020  -34.0110   -4.4730 C   0  0  0  0  0  0  0  0  0  0  0  0
   24.2040  -35.2360   -5.0020 C   0  0  0  0  0  0  0  0  0  0  0  0
   24.2570  -33.3420   -3.2530 C   0  0  2  0  0  0  0  0  0  0  0  0
   25.3340  -32.8830   -2.4090 O   0  0  0  0  0  0  0  0  0  0  0  0
   25.2700  -31.6060   -1.9920 C   0  0  0  0  0  0  0  0  0  0  0  0
   26.2790  -30.8970   -2.5420 N   0  0  0  0  0  0  0  0  0  0  0  0
   24.4510  -31.1210   -1.2280 O   0  0  0  0  0  0  0  0  0  0  0  0
   23.2910  -34.3230   -2.4980 C   0  0  1  0  0  0  0  0  0  0  0  0
   23.9350  -34.8280   -1.3150 O   0  0  0  0  0  0  0  0  0  0  0  0
   24.6050  -36.0640   -1.5200 C   0  0  0  0  0  0  0  0  0  0  0  0
   22.0080  -33.6350   -2.0940 C   0  0  0  0  0  0  0  0  0  0  0  0
   20.8660  -33.5650   -2.7960 C   0  0  0  0  0  0  0  0  0  0  0  0
   20.6160  -34.1810   -4.0780 C   0  0  0  0  0  0  0  0  0  0  0  0
   19.4210  -34.2190   -4.6950 C   0  0  0  0  0  0  0  0  0  0  0  0
   18.1350  -33.6080   -4.2400 C   0  0  0  0  0  0  0  0  0  0  0  0
   19.3800  -34.8340   -6.0500 C   0  0  0  0  0  0  0  0  0  0  0  0
   18.3460  -34.8230   -6.7030 O   0  0  0  0  0  0  0  0  0  0  0  0
   20.5780  -35.4040   -6.4080 N   0  0  0  0  0  0  0  0  0  0  0  0
   20.8910  -36.0790   -7.5760 C   0  0  0  0  0  0  0  0  0  0  0  0
   20.1220  -36.9830   -8.1880 C   0  0  0  0  0  0  0  0  0  0  0  0
   20.5380  -37.6530   -9.4310 C   0  0  0  0  0  0  0  0  0  0  0  0
   19.8250  -38.5320   -9.9030 O   0  0  0  0  0  0  0  0  0  0  0  0
   22.2280  -35.7360   -8.1510 C   0  0  0  0  0  0  0  0  0  0  0  0
   22.9620  -34.9790   -7.5210 O   0  0  0  0  0  0  0  0  0  0  0  0
   22.9028  -39.3556  -10.1274 H   0  0  0  0  0  0  0  0  0  0  0  0
   22.1138  -39.7962  -11.6798 H   0  0  0  0  0  0  0  0  0  0  0  0
   23.7697  -39.1002  -11.6798 H   0  0  0  0  0  0  0  0  0  0  0  0
   23.9375  -36.1052  -11.1290 H   0  0  0  0  0  0  0  0  0  0  0  0
   24.0339  -34.7941   -9.8555 H   0  0  0  0  0  0  0  0  0  0  0  0
   25.8321  -36.8381  -10.2457 H   0  0  0  0  0  0  0  0  0  0  0  0
   24.8232  -37.6611   -7.5877 H   0  0  0  0  0  0  0  0  0  0  0  0
   23.7401  -38.1051   -8.9503 H   0  0  0  0  0  0  0  0  0  0  0  0
   25.4524  -38.6481   -8.9503 H   0  0  0  0  0  0  0  0  0  0  0  0
   25.6990  -35.7185   -7.5148 H   0  0  0  0  0  0  0  0  0  0  0  0
   27.0740  -35.9601   -8.7754 H   0  0  0  0  0  0  0  0  0  0  0  0
   25.2866  -33.8172   -9.5378 H   0  0  0  0  0  0  0  0  0  0  0  0
   27.7767  -35.4607  -10.6142 H   0  0  0  0  0  0  0  0  0  0  0  0
   26.5544  -34.3713  -11.3529 H   0  0  0  0  0  0  0  0  0  0  0  0
   28.2893  -33.9056  -11.3529 H   0  0  0  0  0  0  0  0  0  0  0  0
   24.9091  -33.4278   -7.2344 H   0  0  0  0  0  0  0  0  0  0  0  0
   26.6150  -31.8360   -8.6350 H   0  0  0  0  0  0  0  0  0  0  0  0
   26.7161  -35.0068   -6.4089 H   0  0  0  0  0  0  0  0  0  0  0  0
   28.4994  -33.3977   -5.1726 H   0  0  0  0  0  0  0  0  0  0  0  0
   28.8165  -34.2408   -6.7267 H   0  0  0  0  0  0  0  0  0  0  0  0
   28.3153  -32.5159   -6.7267 H   0  0  0  0  0  0  0  0  0  0  0  0
   26.4792  -32.6485   -4.4652 H   0  0  0  0  0  0  0  0  0  0  0  0
   23.8537  -35.8508   -4.1598 H   0  0  0  0  0  0  0  0  0  0  0  0
   23.3439  -34.9314   -5.6163 H   0  0  0  0  0  0  0  0  0  0  0  0
   24.9046  -35.8207   -5.6163 H   0  0  0  0  0  0  0  0  0  0  0  0
   23.6275  -32.4942   -3.5612 H   0  0  0  0  0  0  0  0  0  0  0  0
   26.4290  -29.9490   -2.2340 H   0  0  0  0  0  0  0  0  0  0  0  0
   26.9960  -31.3900   -3.0520 H   0  0  0  0  0  0  0  0  0  0  0  0
   23.0496  -35.1467   -3.1860 H   0  0  0  0  0  0  0  0  0  0  0  0
   24.8492  -36.5145   -0.5467 H   0  0  0  0  0  0  0  0  0  0  0  0
   23.9527  -36.7452   -2.0860 H   0  0  0  0  0  0  0  0  0  0  0  0
   25.5319  -35.8892   -2.0860 H   0  0  0  0  0  0  0  0  0  0  0  0
   22.0099  -33.1351   -1.1142 H   0  0  0  0  0  0  0  0  0  0  0  0
   20.0435  -32.9840   -2.3533 H   0  0  0  0  0  0  0  0  0  0  0  0
   21.4671  -34.6551   -4.5888 H   0  0  0  0  0  0  0  0  0  0  0  0
   18.1047  -33.5936   -3.1405 H   0  0  0  0  0  0  0  0  0  0  0  0
   18.0624  -32.5791   -4.6223 H   0  0  0  0  0  0  0  0  0  0  0  0
   17.2915  -34.2016   -4.6223 H   0  0  0  0  0  0  0  0  0  0  0  0
   21.3370  -35.3850   -5.7270 H   0  0  0  0  0  0  0  0  0  0  0  0
   19.1455  -37.2353   -7.7489 H   0  0  0  0  0  0  0  0  0  0  0  0
  1  2  1  0
  2  3  1  0
  3  4  2  0
  4  5  1  0
  5  6  1  0
  6  7  1  0
  6  8  1  0
  8  9  1  0
  9 10  1  0
 10 11  1  0
  9 12  1  0
 12 13  1  0
 12 14  1  0
 14 15  1  0
 14 16  1  0
 16 17  2  0
 17 18  1  0
 17 19  1  0
 19 20  1  0
 20 21  1  0
 21 22  1  0
 21 23  2  0
 19 24  1  0
 24 25  1  0
 25 26  1  0
 24 27  1  0
 27 28  2  0
 28 29  1  0
 29 30  2  0
 30 31  1  0
 30 32  1  0
 32 33  2  0
 32 34  1  0
 34 35  1  0
 35 36  2  0
 36 37  1  0
 37 38  2  0
 35 39  1  0
 39 40  2  0
 37  3  1  0
 39  4  1  0
  1 41  1  0
  1 42  1  0
  1 43  1  0
  5 44  1  0
  5 45  1  0
  6 46  1  6
  7 47  1  0
  7 48  1  0
  7 49  1  0
  8 50  1  0
  8 51  1  0
  9 52  1  6
 11 53  1  0
 11 54  1  0
 11 55  1  0
 12 56  1  1
 13 57  1  0
 14 58  1  6
 15 59  1  0
 15 60  1  0
 15 61  1  0
 16 62  1  0
 18 63  1  0
 18 64  1  0
 18 65  1  0
 19 66  1  6
 22 67  1  0
 22 68  1  0
 24 69  1  6
 26 70  1  0
 26 71  1  0
 26 72  1  0
 27 73  1  0
 28 74  1  0
 29 75  1  0
 31 76  1  0
 31 77  1  0
 31 78  1  0
 34 79  1  0
 36 80  1  0
M  END
>  <meeko>  (7) 
{"is_sidechain": [false], "free_energy": -4.742, "intermolecular_energy": -10.502, "internal_energy": -1.717}

$$$$
2yge_ligand
     RDKit          3D

 80 81  0  0  0  0  0  0  0  0999 V2000
   16.9820  -32.7140   -3.7680 C   0  0  0  0  0  0  0  0  0  0  0  0
   17.7840  -33.8710   -3.9900 O   0  0  0  0  0  0  0  0  0  0  0  0
   19.1550  -33.6740   -3.8540 C   0  0  0  0  0  0  0  0  0  0  0  0
   19.8930  -33.4810   -4.9620 C   0  0  0  0  0  0  0  0  0  0  0  0
   19.2870  -33.4650   -6.3520 C   0  0  0  0  0  0  0  0  0  0  0  0
   19.2820  -34.8470   -7.0530 C   0  0  2  0  0  0  0  0  0  0  0  0
   17.8530  -35.3390   -7.2820 C   0  0  0  0  0  0  0  0  0  0  0  0
   20.1820  -35.9090   -6.3850 C   0  0  0  0  0  0  0  0  0  0  0  0
   21.1470  -36.7710   -7.2460 C   0  0  2  0  0  0  0  0  0  0  0  0
   20.4420  -37.8130   -7.9140 O   0  0  0  0  0  0  0  0  0  0  0  0
   20.5870  -37.8010   -9.3280 C   0  0  0  0  0  0  0  0  0  0  0  0
   22.2550  -37.3590   -6.2930 C   0  0  2  0  0  0  0  0  0  0  0  0
   21.8410  -38.6440   -5.7990 O   0  0  0  0  0  0  0  0  0  0  0  0
   22.6950  -36.4360   -5.1230 C   0  0  1  0  0  0  0  0  0  0  0  0
   22.3950  -37.0230   -3.7430 C   0  0  0  0  0  0  0  0  0  0  0  0
   24.1870  -36.1650   -5.2360 C   0  0  0  0  0  0  0  0  0  0  0  0
   24.8610  -35.6920   -6.3070 C   0  0  0  0  0  0  0  0  0  0  0  0
   24.2030  -35.2220   -7.5780 C   0  0  0  0  0  0  0  0  0  0  0  0
   26.3930  -35.6290   -6.2770 C   0  0  2  0  0  0  0  0  0  0  0  0
   26.8120  -36.2070   -5.0240 O   0  0  0  0  0  0  0  0  0  0  0  0
   27.7770  -37.1410   -5.0840 C   0  0  0  0  0  0  0  0  0  0  0  0
   27.9460  -37.5380   -6.3640 N   0  0  0  0  0  0  0  0  0  0  0  0
   28.4210  -37.5960   -4.1530 O   0  0  0  0  0  0  0  0  0  0  0  0
   26.9150  -34.1580   -6.4550 C   0  0  1  0  0  0  0  0  0  0  0  0
   25.8000  -33.2490   -6.5100 O   0  0  0  0  0  0  0  0  0  0  0  0
   26.0240  -32.1320   -7.3590 C   0  0  0  0  0  0  0  0  0  0  0  0
   27.8160  -33.7490   -5.3140 C   0  0  0  0  0  0  0  0  0  0  0  0
   27.4470  -33.3800   -4.0770 C   0  0  0  0  0  0  0  0  0  0  0  0
   26.0960  -33.3430   -3.5670 C   0  0  0  0  0  0  0  0  0  0  0  0
   25.5570  -32.3140   -2.8880 C   0  0  0  0  0  0  0  0  0  0  0  0
   26.1900  -31.0000   -2.5630 C   0  0  0  0  0  0  0  0  0  0  0  0
   24.1230  -32.4320   -2.5110 C   0  0  0  0  0  0  0  0  0  0  0  0
   23.7480  -32.1020   -1.3940 O   0  0  0  0  0  0  0  0  0  0  0  0
   23.3530  -32.9630   -3.5180 N   0  0  0  0  0  0  0  0  0  0  0  0
   21.9950  -33.2340   -3.5080 C   0  0  0  0  0  0  0  0  0  0  0  0
   21.2460  -33.4360   -2.4210 C   0  0  0  0  0  0  0  0  0  0  0  0
   19.8040  -33.7210   -2.5050 C   0  0  0  0  0  0  0  0  0  0  0  0
   19.1850  -33.9760   -1.4770 O   0  0  0  0  0  0  0  0  0  0  0  0
   21.3670  -33.3110   -4.8620 C   0  0  0  0  0  0  0  0  0  0  0  0
   22.0900  -33.2220   -5.8510 O   0  0  0  0  0  0  0  0  0  0  0  0
   16.8677  -32.5491   -2.6865 H   0  0  0  0  0  0  0  0  0  0  0  0
   17.4678  -31.8383   -4.2231 H   0  0  0  0  0  0  0  0  0  0  0  0
   15.9915  -32.8616   -4.2231 H   0  0  0  0  0  0  0  0  0  0  0  0
   18.2476  -33.1138   -6.2722 H   0  0  0  0  0  0  0  0  0  0  0  0
   19.9130  -32.7995   -6.9646 H   0  0  0  0  0  0  0  0  0  0  0  0
   19.7486  -34.6893   -8.0366 H   0  0  0  0  0  0  0  0  0  0  0  0
   17.3633  -35.5076   -6.3115 H   0  0  0  0  0  0  0  0  0  0  0  0
   17.2913  -34.5825   -7.8496 H   0  0  0  0  0  0  0  0  0  0  0  0
   17.8761  -36.2810   -7.8496 H   0  0  0  0  0  0  0  0  0  0  0  0
   20.8034  -35.3789   -5.6482 H   0  0  0  0  0  0  0  0  0  0  0  0
   19.4593  -36.6463   -6.0053 H   0  0  0  0  0  0  0  0  0  0  0  0
   21.6128  -36.1497   -8.0252 H   0  0  0  0  0  0  0  0  0  0  0  0
   21.6525  -37.7128   -9.5866 H   0  0  0  0  0  0  0  0  0  0  0  0
   20.1844  -38.7355   -9.7458 H   0  0  0  0  0  0  0  0  0  0  0  0
   20.0363  -36.9454   -9.7458 H   0  0  0  0  0  0  0  0  0  0  0  0
   23.1553  -37.4523   -6.9181 H   0  0  0  0  0  0  0  0  0  0  0  0
   22.2920  -39.3290   -6.3220 H   0  0  0  0  0  0  0  0  0  0  0  0
   22.1121  -35.5072   -5.2102 H   0  0  0  0  0  0  0  0  0  0  0  0
   22.7489  -36.3304   -2.9651 H   0  0  0  0  0  0  0  0  0  0  0  0
   21.3104  -37.1716   -3.6357 H   0  0  0  0  0  0  0  0  0  0  0  0
   22.9099  -37.9891   -3.6357 H   0  0  0  0  0  0  0  0  0  0  0  0
   24.7883  -36.3793   -4.3402 H   0  0  0  0  0  0  0  0  0  0  0  0
   23.3308  -34.5990   -7.3307 H   0  0  0  0  0  0  0  0  0  0  0  0
   24.9209  -34.6310   -8.1657 H   0  0  0  0  0  0  0  0  0  0  0  0
   23.8768  -36.0927   -8.1657 H   0  0  0  0  0  0  0  0  0  0  0  0
   26.8226  -36.1937   -7.1176 H   0  0  0  0  0  0  0  0  0  0  0  0
   28.5580  -38.3160   -6.5520 H   0  0  0  0  0  0  0  0  0  0  0  0
   27.2880  -37.2220   -7.0600 H   0  0  0  0  0  0  0  0  0  0  0  0
   27.4904  -34.1195   -7.3917 H   0  0  0  0  0  0  0  0  0  0  0  0
   26.2037  -31.2361   -6.7465 H   0  0  0  0  0  0  0  0  0  0  0  0
   26.9015  -32.3241   -7.9939 H   0  0  0  0  0  0  0  0  0  0  0  0
   25.1403  -31.9709   -7.9939 H   0  0  0  0  0  0  0  0  0  0  0  0
   28.8966  -33.7540   -5.5197 H   0  0  0  0  0  0  0  0  0  0  0  0
   28.2486  -33.0775   -3.3872 H   0  0  0  0  0  0  0  0  0  0  0  0
   25.4600  -34.2222   -3.7473 H   0  0  0  0  0  0  0  0  0  0  0  0
   26.2474  -30.8808   -1.4710 H   0  0  0  0  0  0  0  0  0  0  0  0
   27.2034  -30.9658   -2.9894 H   0  0  0  0  0  0  0  0  0  0  0  0
   25.5851  -30.1862   -2.9894 H   0  0  0  0  0  0  0  0  0  0  0  0
   23.8230  -33.2470   -4.3770 H   0  0  0  0  0  0  0  0  0  0  0  0
   21.7220  -33.3879   -1.4305 H   0  0  0  0  0  0  0  0  0  0  0  0
  1  2  1  0
  2  3  1  0
  3  4  2  0
  4  5  1  0
  5  6  1  0
  6  7  1  0
  6  8  1  0
  8  9  1  0
  9 10  1  0
 10 11  1  0
  9 12  1  0
 12 13  1  0
 12 14  1  0
 14 15  1  0
 14 16  1  0
 16 17  2  0
 17 18  1  0
 17 19  1  0
 19 20  1  0
 20 21  1  0
 21 22  1  0
 21 23  2  0
 19 24  1  0
 24 25  1  0
 25 26  1  0
 24 27  1  0
 27 28  2  0
 28 29  1  0
 29 30  2  0
 30 31  1  0
 30 32  1  0
 32 33  2  0
 32 34  1  0
 34 35  1  0
 35 36  2  0
 36 37  1  0
 37 38  2  0
 35 39  1  0
 39 40  2  0
 37  3  1  0
 39  4  1  0
  1 41  1  0
  1 42  1  0
  1 43  1  0
  5 44  1  0
  5 45  1  0
  6 46  1  6
  7 47  1  0
  7 48  1  0
  7 49  1  0
  8 50  1  0
  8 51  1  0
  9 52  1  6
 11 53  1  0
 11 54  1  0
 11 55  1  0
 12 56  1  6
 13 57  1  0
 14 58  1  6
 15 59  1  0
 15 60  1  0
 15 61  1  0
 16 62  1  0
 18 63  1  0
 18 64  1  0
 18 65  1  0
 19 66  1  6
 22 67  1  0
 22 68  1  0
 24 69  1  6
 26 70  1  0
 26 71  1  0
 26 72  1  0
 27 73  1  0
 28 74  1  0
 29 75  1  0
 31 76  1  0
 31 77  1  0
 31 78  1  0
 34 79  1  0
 36 80  1  0
M  END
>  <meeko>  (8) 
{"is_sidechain": [false], "free_energy": -4.692, "intermolecular_energy": -11.073, "internal_energy": -1.046}

$$$$
2yge_ligand
     RDKit          3D

 80 81  0  0  0  0  0  0  0  0999 V2000
   16.9990  -32.7230   -3.9110 C   0  0  0  0  0  0  0  0  0  0  0  0
   17.6330  -33.9790   -4.1360 O   0  0  0  0  0  0  0  0  0  0  0  0
   18.9900  -34.0180   -3.8290 C   0  0  0  0  0  0  0  0  0  0  0  0
   19.8810  -33.7480   -4.8000 C   0  0  0  0  0  0  0  0  0  0  0  0
   19.4620  -33.3970   -6.2150 C   0  0  0  0  0  0  0  0  0  0  0  0
   19.4030  -34.6120   -7.1740 C   0  0  2  0  0  0  0  0  0  0  0  0
   18.0370  -35.2950   -7.1080 C   0  0  0  0  0  0  0  0  0  0  0  0
   20.5760  -35.6050   -7.0250 C   0  0  0  0  0  0  0  0  0  0  0  0
   21.2860  -36.1740   -8.2870 C   0  0  2  0  0  0  0  0  0  0  0  0
   21.4880  -37.5790   -8.1680 O   0  0  0  0  0  0  0  0  0  0  0  0
   20.2890  -38.3440   -8.2020 C   0  0  0  0  0  0  0  0  0  0  0  0
   22.6490  -35.4440   -8.4530 C   0  0  2  0  0  0  0  0  0  0  0  0
   22.9370  -35.2500   -9.8480 O   0  0  0  0  0  0  0  0  0  0  0  0
   23.8610  -36.0880   -7.7260 C   0  0  1  0  0  0  0  0  0  0  0  0
   24.9230  -36.6310   -8.6820 C   0  0  0  0  0  0  0  0  0  0  0  0
   24.4960  -35.0570   -6.8070 C   0  0  0  0  0  0  0  0  0  0  0  0
   25.3370  -34.0550   -7.1460 C   0  0  0  0  0  0  0  0  0  0  0  0
   25.7020  -33.7050   -8.5640 C   0  0  0  0  0  0  0  0  0  0  0  0
   25.9950  -33.2070   -6.0510 C   0  0  2  0  0  0  0  0  0  0  0  0
   25.4550  -31.8750   -6.1710 O   0  0  0  0  0  0  0  0  0  0  0  0
   24.6600  -31.4550   -5.1710 C   0  0  0  0  0  0  0  0  0  0  0  0
   23.5960  -30.7980   -5.6830 N   0  0  0  0  0  0  0  0  0  0  0  0
   24.8370  -31.6100   -3.9740 O   0  0  0  0  0  0  0  0  0  0  0  0
   27.5610  -33.2250   -6.1680 C   0  0  1  0  0  0  0  0  0  0  0  0
   28.0360  -31.9180   -6.5390 O   0  0  0  0  0  0  0  0  0  0  0  0
   28.9620  -31.3700   -5.6110 C   0  0  0  0  0  0  0  0  0  0  0  0
   28.2100  -33.6230   -4.8640 C   0  0  0  0  0  0  0  0  0  0  0  0
   27.6320  -34.2450   -3.8240 C   0  0  0  0  0  0  0  0  0  0  0  0
   26.2630  -34.7030   -3.7600 C   0  0  0  0  0  0  0  0  0  0  0  0
   25.4660  -34.5970   -2.6810 C   0  0  0  0  0  0  0  0  0  0  0  0
   25.7810  -33.9580   -1.3680 C   0  0  0  0  0  0  0  0  0  0  0  0
   24.0590  -35.0590   -2.8350 C   0  0  0  0  0  0  0  0  0  0  0  0
   23.8040  -36.2550   -2.8830 O   0  0  0  0  0  0  0  0  0  0  0  0
   23.1690  -34.0190   -2.9460 N   0  0  0  0  0  0  0  0  0  0  0  0
   21.7970  -34.0790   -3.1230 C   0  0  0  0  0  0  0  0  0  0  0  0
   20.8970  -34.3530   -2.1750 C   0  0  0  0  0  0  0  0  0  0  0  0
   19.4530  -34.3980   -2.4560 C   0  0  0  0  0  0  0  0  0  0  0  0
   18.6810  -34.7330   -1.5630 O   0  0  0  0  0  0  0  0  0  0  0  0
   21.3400  -33.8220   -4.5230 C   0  0  0  0  0  0  0  0  0  0  0  0
   22.1870  -33.6710   -5.4000 O   0  0  0  0  0  0  0  0  0  0  0  0
   16.9096  -32.5460   -2.8290 H   0  0  0  0  0  0  0  0  0  0  0  0
   17.6007  -31.9220   -4.3651 H   0  0  0  0  0  0  0  0  0  0  0  0
   15.9972  -32.7314   -4.3651 H   0  0  0  0  0  0  0  0  0  0  0  0
   18.4631  -32.9381   -6.1762 H   0  0  0  0  0  0  0  0  0  0  0  0
   20.2267  -32.7139   -6.6133 H   0  0  0  0  0  0  0  0  0  0  0  0
   19.5310  -34.2039   -8.1875 H   0  0  0  0  0  0  0  0  0  0  0  0
   17.7494  -35.4388   -6.0560 H   0  0  0  0  0  0  0  0  0  0  0  0
   17.2877  -34.6655   -7.6102 H   0  0  0  0  0  0  0  0  0  0  0  0
   18.0910  -36.2722   -7.6102 H   0  0  0  0  0  0  0  0  0  0  0  0
   21.3483  -35.0954   -6.4302 H   0  0  0  0  0  0  0  0  0  0  0  0
   20.0980  -36.4927   -6.5852 H   0  0  0  0  0  0  0  0  0  0  0  0
   20.6550  -36.0042   -9.1718 H   0  0  0  0  0  0  0  0  0  0  0  0
   19.9591  -38.5545   -7.1740 H   0  0  0  0  0  0  0  0  0  0  0  0
   19.5073  -37.7773   -8.7292 H   0  0  0  0  0  0  0  0  0  0  0  0
   20.4735  -39.2917   -8.7292 H   0  0  0  0  0  0  0  0  0  0  0  0
   22.5147  -34.4785   -7.9432 H   0  0  0  0  0  0  0  0  0  0  0  0
   22.0990  -35.2950  -10.3390 H   0  0  0  0  0  0  0  0  0  0  0  0
   23.4745  -36.9464   -7.1570 H   0  0  0  0  0  0  0  0  0  0  0  0
   25.7552  -37.0565   -8.1021 H   0  0  0  0  0  0  0  0  0  0  0  0
   24.4801  -37.4133   -9.3159 H   0  0  0  0  0  0  0  0  0  0  0  0
   25.2979  -35.8139   -9.3159 H   0  0  0  0  0  0  0  0  0  0  0  0
   24.2408  -35.1359   -5.7399 H   0  0  0  0  0  0  0  0  0  0  0  0
   26.4960  -32.9437   -8.5610 H   0  0  0  0  0  0  0  0  0  0  0  0
   26.0600  -34.6061   -9.0835 H   0  0  0  0  0  0  0  0  0  0  0  0
   24.8167  -33.3095   -9.0835 H   0  0  0  0  0  0  0  0  0  0  0  0
   25.7737  -33.6173   -5.0547 H   0  0  0  0  0  0  0  0  0  0  0  0
   22.9690  -30.3260   -5.0500 H   0  0  0  0  0  0  0  0  0  0  0  0
   23.5850  -30.5880   -6.6690 H   0  0  0  0  0  0  0  0  0  0  0  0
   27.8289  -33.9655   -6.9360 H   0  0  0  0  0  0  0  0  0  0  0  0
   28.6180  -31.5735   -4.5862 H   0  0  0  0  0  0  0  0  0  0  0  0
   29.9498  -31.8290   -5.7642 H   0  0  0  0  0  0  0  0  0  0  0  0
   29.0350  -30.2832   -5.7642 H   0  0  0  0  0  0  0  0  0  0  0  0
   29.2761  -33.3755   -4.7537 H   0  0  0  0  0  0  0  0  0  0  0  0
   28.2591  -34.4225   -2.9379 H   0  0  0  0  0  0  0  0  0  0  0  0
   25.8410  -35.1733   -4.6604 H   0  0  0  0  0  0  0  0  0  0  0  0
   25.4553  -34.6188   -0.5511 H   0  0  0  0  0  0  0  0  0  0  0  0
   26.8654  -33.7895   -1.2930 H   0  0  0  0  0  0  0  0  0  0  0  0
   25.2543  -32.9952   -1.2930 H   0  0  0  0  0  0  0  0  0  0  0  0
   23.5440  -33.0700   -2.9490 H   0  0  0  0  0  0  0  0  0  0  0  0
   21.2463  -34.5515   -1.1510 H   0  0  0  0  0  0  0  0  0  0  0  0
  1  2  1  0
  2  3  1  0
  3  4  2  0
  4  5  1  0
  5  6  1  0
  6  7  1  0
  6  8  1  0
  8  9  1  0
  9 10  1  0
 10 11  1  0
  9 12  1  0
 12 13  1  0
 12 14  1  0
 14 15  1  0
 14 16  1  0
 16 17  2  0
 17 18  1  0
 17 19  1  0
 19 20  1  0
 20 21  1  0
 21 22  1  0
 21 23  2  0
 19 24  1  0
 24 25  1  0
 25 26  1  0
 24 27  1  0
 27 28  2  0
 28 29  1  0
 29 30  2  0
 30 31  1  0
 30 32  1  0
 32 33  2  0
 32 34  1  0
 34 35  1  0
 35 36  2  0
 36 37  1  0
 37 38  2  0
 35 39  1  0
 39 40  2  0
 37  3  1  0
 39  4  1  0
  1 41  1  0
  1 42  1  0
  1 43  1  0
  5 44  1  0
  5 45  1  0
  6 46  1  6
  7 47  1  0
  7 48  1  0
  7 49  1  0
  8 50  1  0
  8 51  1  0
  9 52  1  6
 11 53  1  0
 11 54  1  0
 11 55  1  0
 12 56  1  1
 13 57  1  0
 14 58  1  1
 15 59  1  0
 15 60  1  0
 15 61  1  0
 16 62  1  0
 18 63  1  0
 18 64  1  0
 18 65  1  0
 19 66  1  1
 22 67  1  0
 22 68  1  0
 24 69  1  6
 26 70  1  0
 26 71  1  0
 26 72  1  0
 27 73  1  0
 28 74  1  0
 29 75  1  0
 31 76  1  0
 31 77  1  0
 31 78  1  0
 34 79  1  0
 36 80  1  0
M  END
>  <meeko>  (9) 
{"is_sidechain": [false], "free_energy": -4.67, "intermolecular_energy": -10.557, "internal_energy": -1.516}

$$$$
