4ciw_ligand
     RDKit          3D

 28 28  0  0  0  0  0  0  0  0999 V2000
    0.5890   10.9370   25.5340 O   0  0  0  0  0  0  0  0  0  0  0  0
    1.6880   11.5150   25.8120 C   0  0  0  0  0  0  0  0  0  0  0  0
    2.1110   11.9790   26.9080 O   0  0  0  0  0  0  0  0  0  0  0  0
    2.6620   11.6080   24.5710 C   0  0  2  0  0  0  0  0  0  0  0  0
    3.8130   10.7640   24.8120 O   0  0  0  0  0  0  0  0  0  0  0  0
    3.1860   13.0200   24.4540 C   0  0  0  0  0  0  0  0  0  0  0  0
    3.1620   13.7560   23.3240 C   0  0  0  0  0  0  0  0  0  0  0  0
    3.5320   15.2250   23.2750 C   0  0  0  0  0  0  0  0  0  0  0  0
    5.0120   15.5720   23.0830 C   0  0  0  0  0  0  0  0  0  0  0  0
    5.2760   15.9560   21.7390 O   0  0  0  0  0  0  0  0  0  0  0  0
    2.6760   13.1290   22.0340 C   0  0  1  0  0  0  0  0  0  0  0  0
    3.5270   13.4950   20.9370 O   0  0  0  0  0  0  0  0  0  0  0  0
    2.6320   11.5840   22.0760 C   0  0  2  0  0  0  0  0  0  0  0  0
    1.9510   11.1000   20.9050 O   0  0  0  0  0  0  0  0  0  0  0  0
    1.9240   11.1000   23.3320 C   0  0  0  0  0  0  0  0  0  0  0  0
    4.2540   10.7770   23.9260 H   0  0  0  0  0  0  0  0  0  0  0  0
    3.6179   13.4808   25.3546 H   0  0  0  0  0  0  0  0  0  0  0  0
    2.9758   15.6780   22.4411 H   0  0  0  0  0  0  0  0  0  0  0  0
    3.2786   15.6129   24.2727 H   0  0  0  0  0  0  0  0  0  0  0  0
    5.2763   16.4034   23.7530 H   0  0  0  0  0  0  0  0  0  0  0  0
    5.6137   14.6815   23.3174 H   0  0  0  0  0  0  0  0  0  0  0  0
    4.5590   15.5830   21.1840 H   0  0  0  0  0  0  0  0  0  0  0  0
    1.6530   13.5107   21.9011 H   0  0  0  0  0  0  0  0  0  0  0  0
    3.8820   12.6640   20.5800 H   0  0  0  0  0  0  0  0  0  0  0  0
    3.6607   11.1947   22.0934 H   0  0  0  0  0  0  0  0  0  0  0  0
    1.2840   10.4830   21.2580 H   0  0  0  0  0  0  0  0  0  0  0  0
    0.8923   11.4814   23.3395 H   0  0  0  0  0  0  0  0  0  0  0  0
    1.9127   10.0001   23.3415 H   0  0  0  0  0  0  0  0  0  0  0  0
  1  2  2  0
  2  3  1  0
  2  4  1  0
  4  5  1  1
  4  6  1  0
  6  7  2  0
  7  8  1  0
  8  9  1  0
  9 10  1  0
  7 11  1  0
 11 12  1  0
 11 13  1  0
 13 14  1  0
 13 15  1  0
 15  4  1  0
  5 16  1  0
  6 17  1  0
  8 18  1  0
  8 19  1  0
  9 20  1  0
  9 21  1  0
 10 22  1  0
 11 23  1  6
 12 24  1  0
 13 25  1  1
 14 26  1  0
 15 27  1  0
 15 28  1  0
M  CHG  1   3  -1
M  END
>  <meeko>  (1) 
{"is_sidechain": [false], "free_energy": -7.899, "intermolecular_energy": -10.208, "internal_energy": -0.325}

$$$$
4ciw_ligand
     RDKit          3D

 28 28  0  0  0  0  0  0  0  0999 V2000
    0.5810   11.0580   25.6580 O   0  0  0  0  0  0  0  0  0  0  0  0
    1.6990   11.6250   25.8780 C   0  0  0  0  0  0  0  0  0  0  0  0
    2.1540   12.1470   26.9350 O   0  0  0  0  0  0  0  0  0  0  0  0
    2.6510   11.6150   24.6170 C   0  0  2  0  0  0  0  0  0  0  0  0
    3.7250   10.6740   24.8460 O   0  0  0  0  0  0  0  0  0  0  0  0
    3.2980   12.9720   24.4700 C   0  0  0  0  0  0  0  0  0  0  0  0
    3.3160   13.6950   23.3320 C   0  0  0  0  0  0  0  0  0  0  0  0
    3.8160   15.1240   23.2550 C   0  0  0  0  0  0  0  0  0  0  0  0
    3.8590   15.9260   24.5600 C   0  0  0  0  0  0  0  0  0  0  0  0
    2.9720   17.0370   24.5060 O   0  0  0  0  0  0  0  0  0  0  0  0
    2.7480   13.0990   22.0600 C   0  0  1  0  0  0  0  0  0  0  0  0
    3.6050   13.3740   20.9410 O   0  0  0  0  0  0  0  0  0  0  0  0
    2.5650   11.5660   22.1230 C   0  0  2  0  0  0  0  0  0  0  0  0
    1.8190   11.1320   20.9730 O   0  0  0  0  0  0  0  0  0  0  0  0
    1.8440   11.1620   23.4000 C   0  0  0  0  0  0  0  0  0  0  0  0
    3.3410   10.1070   25.5620 H   0  0  0  0  0  0  0  0  0  0  0  0
    3.7900   13.4014   25.3552 H   0  0  0  0  0  0  0  0  0  0  0  0
    4.8390   15.0946   22.8516 H   0  0  0  0  0  0  0  0  0  0  0  0
    3.0796   15.6468   22.6270 H   0  0  0  0  0  0  0  0  0  0  0  0
    3.5653   15.2716   25.3940 H   0  0  0  0  0  0  0  0  0  0  0  0
    4.8824   16.3018   24.7064 H   0  0  0  0  0  0  0  0  0  0  0  0
    2.7700   17.2020   23.5600 H   0  0  0  0  0  0  0  0  0  0  0  0
    1.7609   13.5702   21.9431 H   0  0  0  0  0  0  0  0  0  0  0  0
    3.0700   13.2220   20.1450 H   0  0  0  0  0  0  0  0  0  0  0  0
    3.5545   11.0854   22.1242 H   0  0  0  0  0  0  0  0  0  0  0  0
    2.5010   10.9820   20.2920 H   0  0  0  0  0  0  0  0  0  0  0  0
    0.8511   11.6349   23.4238 H   0  0  0  0  0  0  0  0  0  0  0  0
    1.7345   10.0677   23.4241 H   0  0  0  0  0  0  0  0  0  0  0  0
  1  2  2  0
  2  3  1  0
  2  4  1  0
  4  5  1  1
  4  6  1  0
  6  7  2  0
  7  8  1  0
  8  9  1  0
  9 10  1  0
  7 11  1  0
 11 12  1  0
 11 13  1  0
 13 14  1  0
 13 15  1  0
 15  4  1  0
  5 16  1  0
  6 17  1  0
  8 18  1  0
  8 19  1  0
  9 20  1  0
  9 21  1  0
 10 22  1  0
 11 23  1  6
 12 24  1  0
 13 25  1  1
 14 26  1  0
 15 27  1  0
 15 28  1  0
M  CHG  1   3  -1
M  END
>  <meeko>  (2) 
{"is_sidechain": [false], "free_energy": -7.836, "intermolecular_energy": -10.294, "internal_energy": -0.158}

$$$$
4ciw_ligand
     RDKit          3D

 28 28  0  0  0  0  0  0  0  0999 V2000
    3.3220   10.4130   21.9300 O   0  0  0  0  0  0  0  0  0  0  0  0
    3.0970   11.6540   21.7590 C   0  0  0  0  0  0  0  0  0  0  0  0
    3.3570   12.4020   20.7750 O   0  0  0  0  0  0  0  0  0  0  0  0
    2.3330   12.3120   22.9760 C   0  0  2  0  0  0  0  0  0  0  0  0
    0.9430   12.4910   22.6180 O   0  0  0  0  0  0  0  0  0  0  0  0
    2.8910   13.6940   23.2250 C   0  0  0  0  0  0  0  0  0  0  0  0
    3.3030   14.1500   24.4260 C   0  0  0  0  0  0  0  0  0  0  0  0
    4.0180   15.4740   24.6170 C   0  0  0  0  0  0  0  0  0  0  0  0
    3.1500   16.7180   24.8330 C   0  0  0  0  0  0  0  0  0  0  0  0
    3.1030   17.0750   26.2100 O   0  0  0  0  0  0  0  0  0  0  0  0
    3.1200   13.2870   25.6570 C   0  0  1  0  0  0  0  0  0  0  0  0
    2.6440   14.0690   26.7620 O   0  0  0  0  0  0  0  0  0  0  0  0
    2.1150   12.1290   25.4560 C   0  0  2  0  0  0  0  0  0  0  0  0
    2.1830   11.2450   26.5880 O   0  0  0  0  0  0  0  0  0  0  0  0
    2.4210   11.3670   24.1750 C   0  0  0  0  0  0  0  0  0  0  0  0
    0.7230   11.6040   22.2360 H   0  0  0  0  0  0  0  0  0  0  0  0
    2.9667   14.3768   22.3659 H   0  0  0  0  0  0  0  0  0  0  0  0
    4.6730   15.3719   25.4948 H   0  0  0  0  0  0  0  0  0  0  0  0
    4.5367   15.6543   23.6639 H   0  0  0  0  0  0  0  0  0  0  0  0
    3.5726   17.5555   24.2586 H   0  0  0  0  0  0  0  0  0  0  0  0
    2.1276   16.4948   24.4940 H   0  0  0  0  0  0  0  0  0  0  0  0
    3.2820   18.0370   26.2670 H   0  0  0  0  0  0  0  0  0  0  0  0
    4.1155   12.8638   25.8568 H   0  0  0  0  0  0  0  0  0  0  0  0
    3.0580   14.9440   26.6740 H   0  0  0  0  0  0  0  0  0  0  0  0
    1.0997   12.5435   25.3708 H   0  0  0  0  0  0  0  0  0  0  0  0
    1.2630   10.9470   26.7090 H   0  0  0  0  0  0  0  0  0  0  0  0
    3.4354   10.9458   24.2342 H   0  0  0  0  0  0  0  0  0  0  0  0
    1.6890   10.5552   24.0519 H   0  0  0  0  0  0  0  0  0  0  0  0
  1  2  2  0
  2  3  1  0
  2  4  1  0
  4  5  1  6
  4  6  1  0
  6  7  2  0
  7  8  1  0
  8  9  1  0
  9 10  1  0
  7 11  1  0
 11 12  1  0
 11 13  1  0
 13 14  1  0
 13 15  1  0
 15  4  1  0
  5 16  1  0
  6 17  1  0
  8 18  1  0
  8 19  1  0
  9 20  1  0
  9 21  1  0
 10 22  1  0
 11 23  1  1
 12 24  1  0
 13 25  1  6
 14 26  1  0
 15 27  1  0
 15 28  1  0
M  CHG  1   3  -1
M  END
>  <meeko>  (3) 
{"is_sidechain": [false], "free_energy": -6.779, "intermolecular_energy": -8.76, "internal_energy": -0.325}

$$$$
4ciw_ligand
     RDKit          3D

 28 28  0  0  0  0  0  0  0  0999 V2000
    2.8550   17.0830   25.4990 O   0  0  0  0  0  0  0  0  0  0  0  0
    3.0020   16.4630   24.3980 C   0  0  0  0  0  0  0  0  0  0  0  0
    2.8360   16.8590   23.2100 O   0  0  0  0  0  0  0  0  0  0  0  0
    3.5130   14.9800   24.5930 C   0  0  2  0  0  0  0  0  0  0  0  0
    4.9560   14.9900   24.6980 O   0  0  0  0  0  0  0  0  0  0  0  0
    3.1800   14.1720   23.3610 C   0  0  0  0  0  0  0  0  0  0  0  0
    2.5490   12.9810   23.3710 C   0  0  0  0  0  0  0  0  0  0  0  0
    2.0730   12.2750   22.1170 C   0  0  0  0  0  0  0  0  0  0  0  0
    3.1050   11.4570   21.3340 C   0  0  0  0  0  0  0  0  0  0  0  0
    3.5360   10.3270   22.0850 O   0  0  0  0  0  0  0  0  0  0  0  0
    2.2210   12.3200   24.6950 C   0  0  1  0  0  0  0  0  0  0  0  0
    2.5150   10.9160   24.6500 O   0  0  0  0  0  0  0  0  0  0  0  0
    3.0050   12.9090   25.8900 C   0  0  2  0  0  0  0  0  0  0  0  0
    2.4640   12.3810   27.1140 O   0  0  0  0  0  0  0  0  0  0  0  0
    2.9230   14.4280   25.8910 C   0  0  0  0  0  0  0  0  0  0  0  0
    5.0880   15.4850   25.5450 H   0  0  0  0  0  0  0  0  0  0  0  0
    3.4737   14.5855   22.3849 H   0  0  0  0  0  0  0  0  0  0  0  0
    1.2635   11.5906   22.4107 H   0  0  0  0  0  0  0  0  0  0  0  0
    1.7779   13.0844   21.4331 H   0  0  0  0  0  0  0  0  0  0  0  0
    2.6517   11.1120   20.3930 H   0  0  0  0  0  0  0  0  0  0  0  0
    3.9770   12.0957   21.1300 H   0  0  0  0  0  0  0  0  0  0  0  0
    3.6480    9.5850   21.4550 H   0  0  0  0  0  0  0  0  0  0  0  0
    1.1477   12.5063   24.8474 H   0  0  0  0  0  0  0  0  0  0  0  0
    3.2530   10.7730   25.2650 H   0  0  0  0  0  0  0  0  0  0  0  0
    4.0642   12.6259   25.8014 H   0  0  0  0  0  0  0  0  0  0  0  0
    2.0540   13.1550   27.5420 H   0  0  0  0  0  0  0  0  0  0  0  0
    1.8705   14.7367   25.9739 H   0  0  0  0  0  0  0  0  0  0  0  0
    3.4934   14.8217   26.7452 H   0  0  0  0  0  0  0  0  0  0  0  0
  1  2  2  0
  2  3  1  0
  2  4  1  0
  4  5  1  1
  4  6  1  0
  6  7  2  0
  7  8  1  0
  8  9  1  0
  9 10  1  0
  7 11  1  0
 11 12  1  0
 11 13  1  0
 13 14  1  0
 13 15  1  0
 15  4  1  0
  5 16  1  0
  6 17  1  0
  8 18  1  0
  8 19  1  0
  9 20  1  0
  9 21  1  0
 10 22  1  0
 11 23  1  1
 12 24  1  0
 13 25  1  6
 14 26  1  0
 15 27  1  0
 15 28  1  0
M  CHG  1   3  -1
M  END
>  <meeko>  (4) 
{"is_sidechain": [false], "free_energy": -5.884, "intermolecular_energy": -7.533, "internal_energy": -0.396}

$$$$
