3k5v_ligand
     RDKit          3D

 40 42  0  0  0  0  0  0  0  0999 V2000
   27.4870   20.3130   61.1350 N   0  0  0  0  0  0  0  0  0  0  0  0
   26.3250   20.6070   60.4740 C   0  0  0  0  0  0  0  0  0  0  0  0
   25.6470   21.5740   60.7980 O   0  0  0  0  0  0  0  0  0  0  0  0
   25.9560   19.7380   59.3260 C   0  0  0  0  0  0  0  0  0  0  0  0
   26.7220   19.8200   58.1620 C   0  0  0  0  0  0  0  0  0  0  0  0
   26.4020   19.0270   57.0650 C   0  0  0  0  0  0  0  0  0  0  0  0
   25.3100   18.1570   57.1300 C   0  0  0  0  0  0  0  0  0  0  0  0
   24.5070   18.0570   58.2840 C   0  0  0  0  0  0  0  0  0  0  0  0
   23.3450   17.1400   58.3130 C   0  0  0  0  0  0  0  0  0  0  0  0
   22.8700   16.4810   57.1920 C   0  0  0  0  0  0  0  0  0  0  0  0
   21.7700   15.6510   57.3420 C   0  0  0  0  0  0  0  0  0  0  0  0
   21.2880   14.9870   56.1860 N   0  0  0  0  0  0  0  0  0  0  0  0
   19.9830   14.9890   55.6470 C   0  0  0  0  0  0  0  0  0  0  0  0
   19.2250   13.8270   55.4820 C   0  0  0  0  0  0  0  0  0  0  0  0
   17.9100   13.8860   55.0050 C   0  0  0  0  0  0  0  0  0  0  0  0
   17.3100   15.1100   54.7060 C   0  0  0  0  0  0  0  0  0  0  0  0
   16.0270   15.0170   54.2520 O   0  0  0  0  0  0  0  0  0  0  0  0
   15.7530   15.4920   52.9460 C   0  0  0  0  0  0  0  0  0  0  0  0
   14.6670   14.8440   52.4680 F   0  0  0  0  0  0  0  0  0  0  0  0
   16.7860   15.2500   52.1090 F   0  0  0  0  0  0  0  0  0  0  0  0
   15.4820   16.8150   52.9540 F   0  0  0  0  0  0  0  0  0  0  0  0
   18.0420   16.2790   54.9010 C   0  0  0  0  0  0  0  0  0  0  0  0
   19.3590   16.2160   55.3780 C   0  0  0  0  0  0  0  0  0  0  0  0
   21.1740   15.4940   58.5330 N   0  0  0  0  0  0  0  0  0  0  0  0
   21.6980   16.1670   59.5640 C   0  0  0  0  0  0  0  0  0  0  0  0
   22.7550   16.9860   59.5150 N   0  0  0  0  0  0  0  0  0  0  0  0
   24.8510   18.8720   59.3800 C   0  0  0  0  0  0  0  0  0  0  0  0
   27.7820   21.0080   61.8110 H   0  0  0  0  0  0  0  0  0  0  0  0
   28.2150   19.7670   60.6970 H   0  0  0  0  0  0  0  0  0  0  0  0
   27.5770   20.5103   58.1124 H   0  0  0  0  0  0  0  0  0  0  0  0
   27.0071   19.0844   56.1482 H   0  0  0  0  0  0  0  0  0  0  0  0
   25.0707   17.5330   56.2563 H   0  0  0  0  0  0  0  0  0  0  0  0
   23.3511   16.6121   56.2115 H   0  0  0  0  0  0  0  0  0  0  0  0
   21.7160   14.0700   56.1190 H   0  0  0  0  0  0  0  0  0  0  0  0
   19.6680   12.8513   55.7305 H   0  0  0  0  0  0  0  0  0  0  0  0
   17.3419   12.9547   54.8640 H   0  0  0  0  0  0  0  0  0  0  0  0
   17.5852   17.2550   54.6800 H   0  0  0  0  0  0  0  0  0  0  0  0
   19.9155   17.1501   55.5450 H   0  0  0  0  0  0  0  0  0  0  0  0
   21.2147   16.0346   60.5432 H   0  0  0  0  0  0  0  0  0  0  0  0
   24.2429   18.8297   60.2957 H   0  0  0  0  0  0  0  0  0  0  0  0
  1  2  1  0
  2  3  2  0
  2  4  1  0
  4  5  2  0
  5  6  1  0
  6  7  2  0
  7  8  1  0
  8  9  1  0
  9 10  2  0
 10 11  1  0
 11 12  1  0
 12 13  1  0
 13 14  2  0
 14 15  1  0
 15 16  2  0
 16 17  1  0
 17 18  1  0
 18 19  1  0
 18 20  1  0
 18 21  1  0
 16 22  1  0
 22 23  2  0
 11 24  2  0
 24 25  1  0
 25 26  2  0
  8 27  2  0
 27  4  1  0
 26  9  1  0
 23 13  1  0
  1 28  1  0
  1 29  1  0
  5 30  1  0
  6 31  1  0
  7 32  1  0
 10 33  1  0
 12 34  1  0
 14 35  1  0
 15 36  1  0
 22 37  1  0
 23 38  1  0
 25 39  1  0
 27 40  1  0
M  END
>  <meeko>  (1) 
{"is_sidechain": [false], "free_energy": -10.386, "intermolecular_energy": -14.029, "internal_energy": -0.982}

$$$$
3k5v_ligand
     RDKit          3D

 40 42  0  0  0  0  0  0  0  0999 V2000
   30.9400   21.6810   59.6780 N   0  0  0  0  0  0  0  0  0  0  0  0
   29.7160   22.1620   60.0570 C   0  0  0  0  0  0  0  0  0  0  0  0
   29.5040   23.3670   60.1080 O   0  0  0  0  0  0  0  0  0  0  0  0
   28.6530   21.1650   60.3480 C   0  0  0  0  0  0  0  0  0  0  0  0
   28.4450   20.7910   61.6770 C   0  0  0  0  0  0  0  0  0  0  0  0
   27.4630   19.8550   61.9870 C   0  0  0  0  0  0  0  0  0  0  0  0
   26.6950   19.2880   60.9660 C   0  0  0  0  0  0  0  0  0  0  0  0
   26.8860   19.6330   59.6140 C   0  0  0  0  0  0  0  0  0  0  0  0
   26.0680   18.9990   58.5550 C   0  0  0  0  0  0  0  0  0  0  0  0
   24.7830   18.5280   58.7670 C   0  0  0  0  0  0  0  0  0  0  0  0
   24.1170   17.9480   57.6990 C   0  0  0  0  0  0  0  0  0  0  0  0
   22.8050   17.4640   57.9300 N   0  0  0  0  0  0  0  0  0  0  0  0
   22.1930   16.2970   57.4230 C   0  0  0  0  0  0  0  0  0  0  0  0
   22.1510   15.0900   58.1260 C   0  0  0  0  0  0  0  0  0  0  0  0
   21.4750   13.9780   57.6110 C   0  0  0  0  0  0  0  0  0  0  0  0
   20.8010   14.0520   56.3910 C   0  0  0  0  0  0  0  0  0  0  0  0
   20.1860   12.8940   56.0130 O   0  0  0  0  0  0  0  0  0  0  0  0
   18.7710   12.8600   56.0360 C   0  0  0  0  0  0  0  0  0  0  0  0
   18.3390   13.4870   57.1530 F   0  0  0  0  0  0  0  0  0  0  0  0
   18.3110   11.5890   56.0640 F   0  0  0  0  0  0  0  0  0  0  0  0
   18.2490   13.5020   54.9680 F   0  0  0  0  0  0  0  0  0  0  0  0
   20.8030   15.2590   55.6970 C   0  0  0  0  0  0  0  0  0  0  0  0
   21.4820   16.3700   56.2160 C   0  0  0  0  0  0  0  0  0  0  0  0
   24.6980   17.8340   56.4960 N   0  0  0  0  0  0  0  0  0  0  0  0
   25.9410   18.3150   56.3770 C   0  0  0  0  0  0  0  0  0  0  0  0
   26.6580   18.8920   57.3480 N   0  0  0  0  0  0  0  0  0  0  0  0
   27.8870   20.5810   59.3260 C   0  0  0  0  0  0  0  0  0  0  0  0
   31.5910   22.3830   59.3460 H   0  0  0  0  0  0  0  0  0  0  0  0
   31.0430   20.7500   59.3010 H   0  0  0  0  0  0  0  0  0  0  0  0
   29.0557   21.2350   62.4769 H   0  0  0  0  0  0  0  0  0  0  0  0
   27.2915   19.5620   63.0333 H   0  0  0  0  0  0  0  0  0  0  0  0
   25.9199   18.5519   61.2257 H   0  0  0  0  0  0  0  0  0  0  0  0
   24.3050   18.6118   59.7542 H   0  0  0  0  0  0  0  0  0  0  0  0
   22.1560   18.2430   57.9550 H   0  0  0  0  0  0  0  0  0  0  0  0
   22.6572   15.0127   59.0995 H   0  0  0  0  0  0  0  0  0  0  0  0
   21.4749   13.0336   58.1749 H   0  0  0  0  0  0  0  0  0  0  0  0
   20.2700   15.3410   54.7383 H   0  0  0  0  0  0  0  0  0  0  0  0
   21.4567   17.3211   55.6640 H   0  0  0  0  0  0  0  0  0  0  0  0
   26.4174   18.2279   55.3893 H   0  0  0  0  0  0  0  0  0  0  0  0
   28.0723   20.8694   58.2808 H   0  0  0  0  0  0  0  0  0  0  0  0
  1  2  1  0
  2  3  2  0
  2  4  1  0
  4  5  2  0
  5  6  1  0
  6  7  2  0
  7  8  1  0
  8  9  1  0
  9 10  2  0
 10 11  1  0
 11 12  1  0
 12 13  1  0
 13 14  2  0
 14 15  1  0
 15 16  2  0
 16 17  1  0
 17 18  1  0
 18 19  1  0
 18 20  1  0
 18 21  1  0
 16 22  1  0
 22 23  2  0
 11 24  2  0
 24 25  1  0
 25 26  2  0
  8 27  2  0
 27  4  1  0
 26  9  1  0
 23 13  1  0
  1 28  1  0
  1 29  1  0
  5 30  1  0
  6 31  1  0
  7 32  1  0
 10 33  1  0
 12 34  1  0
 14 35  1  0
 15 36  1  0
 22 37  1  0
 23 38  1  0
 25 39  1  0
 27 40  1  0
M  END
>  <meeko>  (2) 
{"is_sidechain": [false], "free_energy": -9.657, "intermolecular_energy": -13.145, "internal_energy": -0.882}

$$$$
3k5v_ligand
     RDKit          3D

 40 42  0  0  0  0  0  0  0  0999 V2000
   26.9580   23.9420   62.2080 N   0  0  0  0  0  0  0  0  0  0  0  0
   26.1210   22.8590   62.1870 C   0  0  0  0  0  0  0  0  0  0  0  0
   24.9740   22.9450   62.6060 O   0  0  0  0  0  0  0  0  0  0  0  0
   26.6470   21.6030   61.5910 C   0  0  0  0  0  0  0  0  0  0  0  0
   27.8540   21.0960   62.0770 C   0  0  0  0  0  0  0  0  0  0  0  0
   28.3800   19.9270   61.5380 C   0  0  0  0  0  0  0  0  0  0  0  0
   27.7030   19.2690   60.5070 C   0  0  0  0  0  0  0  0  0  0  0  0
   26.4910   19.7590   59.9840 C   0  0  0  0  0  0  0  0  0  0  0  0
   25.8090   19.0480   58.8780 C   0  0  0  0  0  0  0  0  0  0  0  0
   24.4960   18.6130   58.9500 C   0  0  0  0  0  0  0  0  0  0  0  0
   23.9670   17.9540   57.8510 C   0  0  0  0  0  0  0  0  0  0  0  0
   22.6240   17.5080   57.9390 N   0  0  0  0  0  0  0  0  0  0  0  0
   22.0570   16.3130   57.4450 C   0  0  0  0  0  0  0  0  0  0  0  0
   21.9710   15.1410   58.2000 C   0  0  0  0  0  0  0  0  0  0  0  0
   21.3410   14.0000   57.6900 C   0  0  0  0  0  0  0  0  0  0  0  0
   20.7570   14.0100   56.4220 C   0  0  0  0  0  0  0  0  0  0  0  0
   20.1780   12.8300   56.0560 O   0  0  0  0  0  0  0  0  0  0  0  0
   18.7640   12.7750   56.0080 C   0  0  0  0  0  0  0  0  0  0  0  0
   18.2680   13.3760   57.1130 F   0  0  0  0  0  0  0  0  0  0  0  0
   18.3230   11.4980   55.9920 F   0  0  0  0  0  0  0  0  0  0  0  0
   18.2860   13.4290   54.9270 F   0  0  0  0  0  0  0  0  0  0  0  0
   20.8020   15.1830   55.6740 C   0  0  0  0  0  0  0  0  0  0  0  0
   21.4350   16.3240   56.1880 C   0  0  0  0  0  0  0  0  0  0  0  0
   24.7030   17.7330   56.7520 N   0  0  0  0  0  0  0  0  0  0  0  0
   25.9610   18.1860   56.7660 C   0  0  0  0  0  0  0  0  0  0  0  0
   26.5550   18.8330   57.7760 N   0  0  0  0  0  0  0  0  0  0  0  0
   25.9790   20.9450   60.5450 C   0  0  0  0  0  0  0  0  0  0  0  0
   26.5210   24.8140   62.4830 H   0  0  0  0  0  0  0  0  0  0  0  0
   27.7470   24.0060   61.5820 H   0  0  0  0  0  0  0  0  0  0  0  0
   28.3872   21.6199   62.8840 H   0  0  0  0  0  0  0  0  0  0  0  0
   29.3272   19.5207   61.9223 H   0  0  0  0  0  0  0  0  0  0  0  0
   28.1288   18.3431   60.0930 H   0  0  0  0  0  0  0  0  0  0  0  0
   23.8910   18.7853   59.8524 H   0  0  0  0  0  0  0  0  0  0  0  0
   21.9970   18.2960   57.8160 H   0  0  0  0  0  0  0  0  0  0  0  0
   22.4049   15.1144   59.2105 H   0  0  0  0  0  0  0  0  0  0  0  0
   21.3055   13.0830   58.2965 H   0  0  0  0  0  0  0  0  0  0  0  0
   20.3395   15.2151   54.6764 H   0  0  0  0  0  0  0  0  0  0  0  0
   21.4439   17.2484   55.5919 H   0  0  0  0  0  0  0  0  0  0  0  0
   26.5642   18.0105   55.8630 H   0  0  0  0  0  0  0  0  0  0  0  0
   25.0388   21.3638   60.1570 H   0  0  0  0  0  0  0  0  0  0  0  0
  1  2  1  0
  2  3  2  0
  2  4  1  0
  4  5  2  0
  5  6  1  0
  6  7  2  0
  7  8  1  0
  8  9  1  0
  9 10  2  0
 10 11  1  0
 11 12  1  0
 12 13  1  0
 13 14  2  0
 14 15  1  0
 15 16  2  0
 16 17  1  0
 17 18  1  0
 18 19  1  0
 18 20  1  0
 18 21  1  0
 16 22  1  0
 22 23  2  0
 11 24  2  0
 24 25  1  0
 25 26  2  0
  8 27  2  0
 27  4  1  0
 26  9  1  0
 23 13  1  0
  1 28  1  0
  1 29  1  0
  5 30  1  0
  6 31  1  0
  7 32  1  0
 10 33  1  0
 12 34  1  0
 14 35  1  0
 15 36  1  0
 22 37  1  0
 23 38  1  0
 25 39  1  0
 27 40  1  0
M  END
>  <meeko>  (3) 
{"is_sidechain": [false], "free_energy": -9.612, "intermolecular_energy": -13.081, "internal_energy": -0.884}

$$$$
3k5v_ligand
     RDKit          3D

 40 42  0  0  0  0  0  0  0  0999 V2000
   21.5050   12.9640   56.3740 N   0  0  0  0  0  0  0  0  0  0  0  0
   20.8300   14.1400   56.5610 C   0  0  0  0  0  0  0  0  0  0  0  0
   19.7750   14.3570   55.9800 O   0  0  0  0  0  0  0  0  0  0  0  0
   21.4050   15.1070   57.5320 C   0  0  0  0  0  0  0  0  0  0  0  0
   20.7810   15.2470   58.7740 C   0  0  0  0  0  0  0  0  0  0  0  0
   21.2880   16.1480   59.7050 C   0  0  0  0  0  0  0  0  0  0  0  0
   22.4140   16.9150   59.3910 C   0  0  0  0  0  0  0  0  0  0  0  0
   23.0610   16.8080   58.1450 C   0  0  0  0  0  0  0  0  0  0  0  0
   24.2410   17.6490   57.8370 C   0  0  0  0  0  0  0  0  0  0  0  0
   24.6930   18.6570   58.6720 C   0  0  0  0  0  0  0  0  0  0  0  0
   25.8060   19.3810   58.2740 C   0  0  0  0  0  0  0  0  0  0  0  0
   26.2560   20.4150   59.1340 N   0  0  0  0  0  0  0  0  0  0  0  0
   27.2510   20.3590   60.1340 C   0  0  0  0  0  0  0  0  0  0  0  0
   27.1350   19.5700   61.2810 C   0  0  0  0  0  0  0  0  0  0  0  0
   28.1770   19.4950   62.2130 C   0  0  0  0  0  0  0  0  0  0  0  0
   29.3710   20.1880   62.0100 C   0  0  0  0  0  0  0  0  0  0  0  0
   30.2970   20.0240   62.9980 O   0  0  0  0  0  0  0  0  0  0  0  0
   31.1010   18.8580   62.9620 C   0  0  0  0  0  0  0  0  0  0  0  0
   30.5240   17.9080   63.7310 F   0  0  0  0  0  0  0  0  0  0  0  0
   32.3370   19.1000   63.4520 F   0  0  0  0  0  0  0  0  0  0  0  0
   31.2030   18.3750   61.7050 F   0  0  0  0  0  0  0  0  0  0  0  0
   29.5140   20.9500   60.8530 C   0  0  0  0  0  0  0  0  0  0  0  0
   28.4680   21.0220   59.9220 C   0  0  0  0  0  0  0  0  0  0  0  0
   26.4240   19.1250   57.1120 N   0  0  0  0  0  0  0  0  0  0  0  0
   25.9220   18.1350   56.3660 C   0  0  0  0  0  0  0  0  0  0  0  0
   24.8580   17.3820   56.6680 N   0  0  0  0  0  0  0  0  0  0  0  0
   22.5290   15.8910   57.2180 C   0  0  0  0  0  0  0  0  0  0  0  0
   21.0120   12.2720   55.8220 H   0  0  0  0  0  0  0  0  0  0  0  0
   22.1550   12.6170   57.0640 H   0  0  0  0  0  0  0  0  0  0  0  0
   19.8914   14.6466   59.0152 H   0  0  0  0  0  0  0  0  0  0  0  0
   20.8037   16.2568   60.6866 H   0  0  0  0  0  0  0  0  0  0  0  0
   22.8052   17.6215   60.1379 H   0  0  0  0  0  0  0  0  0  0  0  0
   24.1843   18.8765   59.6223 H   0  0  0  0  0  0  0  0  0  0  0  0
   25.4660   20.9790   59.4260 H   0  0  0  0  0  0  0  0  0  0  0  0
   26.2109   18.9990   61.4545 H   0  0  0  0  0  0  0  0  0  0  0  0
   28.0528   18.8815   63.1175 H   0  0  0  0  0  0  0  0  0  0  0  0
   30.4504   21.4970   60.6690 H   0  0  0  0  0  0  0  0  0  0  0  0
   28.6054   21.6123   59.0041 H   0  0  0  0  0  0  0  0  0  0  0  0
   26.4315   17.9196   55.4152 H   0  0  0  0  0  0  0  0  0  0  0  0
   23.0015   15.7862   56.2302 H   0  0  0  0  0  0  0  0  0  0  0  0
  1  2  1  0
  2  3  2  0
  2  4  1  0
  4  5  2  0
  5  6  1  0
  6  7  2  0
  7  8  1  0
  8  9  1  0
  9 10  2  0
 10 11  1  0
 11 12  1  0
 12 13  1  0
 13 14  2  0
 14 15  1  0
 15 16  2  0
 16 17  1  0
 17 18  1  0
 18 19  1  0
 18 20  1  0
 18 21  1  0
 16 22  1  0
 22 23  2  0
 11 24  2  0
 24 25  1  0
 25 26  2  0
  8 27  2  0
 27  4  1  0
 26  9  1  0
 23 13  1  0
  1 28  1  0
  1 29  1  0
  5 30  1  0
  6 31  1  0
  7 32  1  0
 10 33  1  0
 12 34  1  0
 14 35  1  0
 15 36  1  0
 22 37  1  0
 23 38  1  0
 25 39  1  0
 27 40  1  0
M  END
>  <meeko>  (4) 
{"is_sidechain": [false], "free_energy": -9.444, "intermolecular_energy": -12.78, "internal_energy": -0.96}

$$$$
3k5v_ligand
     RDKit          3D

 40 42  0  0  0  0  0  0  0  0999 V2000
   20.7210   13.6260   56.3190 N   0  0  0  0  0  0  0  0  0  0  0  0
   21.1210   14.9240   56.1470 C   0  0  0  0  0  0  0  0  0  0  0  0
   20.9820   15.4850   55.0680 O   0  0  0  0  0  0  0  0  0  0  0  0
   21.6790   15.6270   57.3320 C   0  0  0  0  0  0  0  0  0  0  0  0
   21.0120   15.4960   58.5520 C   0  0  0  0  0  0  0  0  0  0  0  0
   21.5010   16.1450   59.6810 C   0  0  0  0  0  0  0  0  0  0  0  0
   22.6520   16.9320   59.5880 C   0  0  0  0  0  0  0  0  0  0  0  0
   23.3430   17.0960   58.3710 C   0  0  0  0  0  0  0  0  0  0  0  0
   24.5490   17.9530   58.3020 C   0  0  0  0  0  0  0  0  0  0  0  0
   25.2810   18.3260   59.4180 C   0  0  0  0  0  0  0  0  0  0  0  0
   26.3890   19.1360   59.2280 C   0  0  0  0  0  0  0  0  0  0  0  0
   27.1260   19.5160   60.3780 N   0  0  0  0  0  0  0  0  0  0  0  0
   27.2910   20.8040   60.9340 C   0  0  0  0  0  0  0  0  0  0  0  0
   26.2950   21.4500   61.6700 C   0  0  0  0  0  0  0  0  0  0  0  0
   26.5280   22.6980   62.2590 C   0  0  0  0  0  0  0  0  0  0  0  0
   27.7720   23.3210   62.1490 C   0  0  0  0  0  0  0  0  0  0  0  0
   27.8570   24.5320   62.7710 O   0  0  0  0  0  0  0  0  0  0  0  0
   27.7600   25.6950   61.9680 C   0  0  0  0  0  0  0  0  0  0  0  0
   27.6020   26.7680   62.7750 F   0  0  0  0  0  0  0  0  0  0  0  0
   26.6930   25.6320   61.1420 F   0  0  0  0  0  0  0  0  0  0  0  0
   28.8820   25.8800   61.2400 F   0  0  0  0  0  0  0  0  0  0  0  0
   28.7860   22.6710   61.4490 C   0  0  0  0  0  0  0  0  0  0  0  0
   28.5480   21.4210   60.8610 C   0  0  0  0  0  0  0  0  0  0  0  0
   26.7420   19.5580   58.0060 N   0  0  0  0  0  0  0  0  0  0  0  0
   25.9810   19.1510   56.9830 C   0  0  0  0  0  0  0  0  0  0  0  0
   24.8980   18.3700   57.0690 N   0  0  0  0  0  0  0  0  0  0  0  0
   22.8270   16.4310   57.2420 C   0  0  0  0  0  0  0  0  0  0  0  0
   20.2130   13.2290   55.5370 H   0  0  0  0  0  0  0  0  0  0  0  0
   20.5030   13.2620   57.2350 H   0  0  0  0  0  0  0  0  0  0  0  0
   20.1024   14.8812   58.6199 H   0  0  0  0  0  0  0  0  0  0  0  0
   20.9826   16.0389   60.6453 H   0  0  0  0  0  0  0  0  0  0  0  0
   23.0289   17.4373   60.4895 H   0  0  0  0  0  0  0  0  0  0  0  0
   24.9912   17.9892   60.4243 H   0  0  0  0  0  0  0  0  0  0  0  0
   27.9850   18.9790   60.4220 H   0  0  0  0  0  0  0  0  0  0  0  0
   25.3122   20.9704   61.7885 H   0  0  0  0  0  0  0  0  0  0  0  0
   25.7198   23.1945   62.8161 H   0  0  0  0  0  0  0  0  0  0  0  0
   29.7767   23.1402   61.3574 H   0  0  0  0  0  0  0  0  0  0  0  0
   29.3662   20.9124   60.3301 H   0  0  0  0  0  0  0  0  0  0  0  0
   26.2730   19.4901   55.9781 H   0  0  0  0  0  0  0  0  0  0  0  0
   23.3325   16.5434   56.2715 H   0  0  0  0  0  0  0  0  0  0  0  0
  1  2  1  0
  2  3  2  0
  2  4  1  0
  4  5  2  0
  5  6  1  0
  6  7  2  0
  7  8  1  0
  8  9  1  0
  9 10  2  0
 10 11  1  0
 11 12  1  0
 12 13  1  0
 13 14  2  0
 14 15  1  0
 15 16  2  0
 16 17  1  0
 17 18  1  0
 18 19  1  0
 18 20  1  0
 18 21  1  0
 16 22  1  0
 22 23  2  0
 11 24  2  0
 24 25  1  0
 25 26  2  0
  8 27  2  0
 27  4  1  0
 26  9  1  0
 23 13  1  0
  1 28  1  0
  1 29  1  0
  5 30  1  0
  6 31  1  0
  7 32  1  0
 10 33  1  0
 12 34  1  0
 14 35  1  0
 15 36  1  0
 22 37  1  0
 23 38  1  0
 25 39  1  0
 27 40  1  0
M  END
>  <meeko>  (5) 
{"is_sidechain": [false], "free_energy": -9.423, "intermolecular_energy": -12.774, "internal_energy": -0.937}

$$$$
3k5v_ligand
     RDKit          3D

 40 42  0  0  0  0  0  0  0  0999 V2000
   17.3510   14.3640   54.8940 N   0  0  0  0  0  0  0  0  0  0  0  0
   18.1730   15.3650   55.3350 C   0  0  0  0  0  0  0  0  0  0  0  0
   17.8350   16.5380   55.2470 O   0  0  0  0  0  0  0  0  0  0  0  0
   19.4570   14.9630   55.9660 C   0  0  0  0  0  0  0  0  0  0  0  0
   19.5750   13.6600   56.4540 C   0  0  0  0  0  0  0  0  0  0  0  0
   20.7590   13.2510   57.0580 C   0  0  0  0  0  0  0  0  0  0  0  0
   21.8250   14.1480   57.1780 C   0  0  0  0  0  0  0  0  0  0  0  0
   21.7380   15.4730   56.7080 C   0  0  0  0  0  0  0  0  0  0  0  0
   22.8780   16.4040   56.8690 C   0  0  0  0  0  0  0  0  0  0  0  0
   23.1660   17.0520   58.0590 C   0  0  0  0  0  0  0  0  0  0  0  0
   24.2580   17.9050   58.0870 C   0  0  0  0  0  0  0  0  0  0  0  0
   24.5400   18.5680   59.3090 N   0  0  0  0  0  0  0  0  0  0  0  0
   25.7180   19.2420   59.6960 C   0  0  0  0  0  0  0  0  0  0  0  0
   26.2870   19.1160   60.9650 C   0  0  0  0  0  0  0  0  0  0  0  0
   27.4940   19.7520   61.2810 C   0  0  0  0  0  0  0  0  0  0  0  0
   28.1760   20.5100   60.3280 C   0  0  0  0  0  0  0  0  0  0  0  0
   29.3360   21.0710   60.7740 O   0  0  0  0  0  0  0  0  0  0  0  0
   29.3470   22.4680   61.0050 C   0  0  0  0  0  0  0  0  0  0  0  0
   30.2530   22.7410   61.9710 F   0  0  0  0  0  0  0  0  0  0  0  0
   28.1410   22.9050   61.4270 F   0  0  0  0  0  0  0  0  0  0  0  0
   29.7060   23.1440   59.8920 F   0  0  0  0  0  0  0  0  0  0  0  0
   27.6390   20.6130   59.0470 C   0  0  0  0  0  0  0  0  0  0  0  0
   26.4300   19.9750   58.7350 C   0  0  0  0  0  0  0  0  0  0  0  0
   25.0100   18.1090   56.9960 N   0  0  0  0  0  0  0  0  0  0  0  0
   24.6620   17.4440   55.8890 C   0  0  0  0  0  0  0  0  0  0  0  0
   23.6300   16.6010   55.7690 N   0  0  0  0  0  0  0  0  0  0  0  0
   20.5270   15.8640   56.1030 C   0  0  0  0  0  0  0  0  0  0  0  0
   16.4270   14.6640   54.6070 H   0  0  0  0  0  0  0  0  0  0  0  0
   17.4320   13.4230   55.2520 H   0  0  0  0  0  0  0  0  0  0  0  0
   18.7330   12.9584   56.3608 H   0  0  0  0  0  0  0  0  0  0  0  0
   20.8567   12.2243   57.4405 H   0  0  0  0  0  0  0  0  0  0  0  0
   22.7577   13.8094   57.6528 H   0  0  0  0  0  0  0  0  0  0  0  0
   22.5469   16.8944   58.9544 H   0  0  0  0  0  0  0  0  0  0  0  0
   24.1440   18.0390   60.0790 H   0  0  0  0  0  0  0  0  0  0  0  0
   25.7793   18.5078   61.7282 H   0  0  0  0  0  0  0  0  0  0  0  0
   27.9103   19.6528   62.2943 H   0  0  0  0  0  0  0  0  0  0  0  0
   28.1652   21.1969   58.2774 H   0  0  0  0  0  0  0  0  0  0  0  0
   26.0306   20.0510   57.7129 H   0  0  0  0  0  0  0  0  0  0  0  0
   25.2816   17.6050   54.9945 H   0  0  0  0  0  0  0  0  0  0  0  0
   20.4170   16.8934   55.7311 H   0  0  0  0  0  0  0  0  0  0  0  0
  1  2  1  0
  2  3  2  0
  2  4  1  0
  4  5  2  0
  5  6  1  0
  6  7  2  0
  7  8  1  0
  8  9  1  0
  9 10  2  0
 10 11  1  0
 11 12  1  0
 12 13  1  0
 13 14  2  0
 14 15  1  0
 15 16  2  0
 16 17  1  0
 17 18  1  0
 18 19  1  0
 18 20  1  0
 18 21  1  0
 16 22  1  0
 22 23  2  0
 11 24  2  0
 24 25  1  0
 25 26  2  0
  8 27  2  0
 27  4  1  0
 26  9  1  0
 23 13  1  0
  1 28  1  0
  1 29  1  0
  5 30  1  0
  6 31  1  0
  7 32  1  0
 10 33  1  0
 12 34  1  0
 14 35  1  0
 15 36  1  0
 22 37  1  0
 23 38  1  0
 25 39  1  0
 27 40  1  0
M  END
>  <meeko>  (6) 
{"is_sidechain": [false], "free_energy": -9.344, "intermolecular_energy": -13.185, "internal_energy": -0.418}

$$$$
3k5v_ligand
     RDKit          3D

 40 42  0  0  0  0  0  0  0  0999 V2000
   30.4460   23.9320   60.0550 N   0  0  0  0  0  0  0  0  0  0  0  0
   30.9090   22.8050   60.6790 C   0  0  0  0  0  0  0  0  0  0  0  0
   32.0980   22.6790   60.9440 O   0  0  0  0  0  0  0  0  0  0  0  0
   29.9060   21.7780   61.0620 C   0  0  0  0  0  0  0  0  0  0  0  0
   29.9520   21.2590   62.3570 C   0  0  0  0  0  0  0  0  0  0  0  0
   29.0340   20.2910   62.7490 C   0  0  0  0  0  0  0  0  0  0  0  0
   28.0720   19.8360   61.8420 C   0  0  0  0  0  0  0  0  0  0  0  0
   28.0030   20.3290   60.5240 C   0  0  0  0  0  0  0  0  0  0  0  0
   26.9850   19.8110   59.5810 C   0  0  0  0  0  0  0  0  0  0  0  0
   25.8310   19.1630   59.9910 C   0  0  0  0  0  0  0  0  0  0  0  0
   24.9530   18.7180   59.0140 C   0  0  0  0  0  0  0  0  0  0  0  0
   23.7790   18.0500   59.4460 N   0  0  0  0  0  0  0  0  0  0  0  0
   22.9450   17.1730   58.7180 C   0  0  0  0  0  0  0  0  0  0  0  0
   23.1270   16.9010   57.3600 C   0  0  0  0  0  0  0  0  0  0  0  0
   22.3160   15.9730   56.6960 C   0  0  0  0  0  0  0  0  0  0  0  0
   21.3190   15.2740   57.3790 C   0  0  0  0  0  0  0  0  0  0  0  0
   20.6070   14.4030   56.6080 O   0  0  0  0  0  0  0  0  0  0  0  0
   20.8390   13.0180   56.7910 C   0  0  0  0  0  0  0  0  0  0  0  0
   22.0920   12.7280   56.3750 F   0  0  0  0  0  0  0  0  0  0  0  0
   19.9740   12.2760   56.0640 F   0  0  0  0  0  0  0  0  0  0  0  0
   20.7410   12.6740   58.0930 F   0  0  0  0  0  0  0  0  0  0  0  0
   21.1520   15.5090   58.7410 C   0  0  0  0  0  0  0  0  0  0  0  0
   21.9660   16.4400   59.4030 C   0  0  0  0  0  0  0  0  0  0  0  0
   25.2120   18.8970   57.7110 N   0  0  0  0  0  0  0  0  0  0  0  0
   26.3490   19.5330   57.4030 C   0  0  0  0  0  0  0  0  0  0  0  0
   27.2520   19.9990   58.2730 N   0  0  0  0  0  0  0  0  0  0  0  0
   28.9460   21.3060   60.1500 C   0  0  0  0  0  0  0  0  0  0  0  0
   31.1310   24.6700   59.9430 H   0  0  0  0  0  0  0  0  0  0  0  0
   29.4800   24.2150   60.1350 H   0  0  0  0  0  0  0  0  0  0  0  0
   30.7134   21.6153   63.0664 H   0  0  0  0  0  0  0  0  0  0  0  0
   29.0645   19.8840   63.7705 H   0  0  0  0  0  0  0  0  0  0  0  0
   27.3496   19.0725   62.1663 H   0  0  0  0  0  0  0  0  0  0  0  0
   25.6177   19.0063   61.0587 H   0  0  0  0  0  0  0  0  0  0  0  0
   23.2390   18.6670   60.0420 H   0  0  0  0  0  0  0  0  0  0  0  0
   23.9193   17.4237   56.8041 H   0  0  0  0  0  0  0  0  0  0  0  0
   22.4663   15.7921   55.6214 H   0  0  0  0  0  0  0  0  0  0  0  0
   20.3785   14.9623   59.3003 H   0  0  0  0  0  0  0  0  0  0  0  0
   21.8332   16.5984   60.4834 H   0  0  0  0  0  0  0  0  0  0  0  0
   26.5605   19.6868   56.3345 H   0  0  0  0  0  0  0  0  0  0  0  0
   28.9310   21.7069   59.1258 H   0  0  0  0  0  0  0  0  0  0  0  0
  1  2  1  0
  2  3  2  0
  2  4  1  0
  4  5  2  0
  5  6  1  0
  6  7  2  0
  7  8  1  0
  8  9  1  0
  9 10  2  0
 10 11  1  0
 11 12  1  0
 12 13  1  0
 13 14  2  0
 14 15  1  0
 15 16  2  0
 16 17  1  0
 17 18  1  0
 18 19  1  0
 18 20  1  0
 18 21  1  0
 16 22  1  0
 22 23  2  0
 11 24  2  0
 24 25  1  0
 25 26  2  0
  8 27  2  0
 27  4  1  0
 26  9  1  0
 23 13  1  0
  1 28  1  0
  1 29  1  0
  5 30  1  0
  6 31  1  0
  7 32  1  0
 10 33  1  0
 12 34  1  0
 14 35  1  0
 15 36  1  0
 22 37  1  0
 23 38  1  0
 25 39  1  0
 27 40  1  0
M  END
>  <meeko>  (7) 
{"is_sidechain": [false], "free_energy": -8.987, "intermolecular_energy": -12.888, "internal_energy": -0.234}

$$$$
3k5v_ligand
     RDKit          3D

 40 42  0  0  0  0  0  0  0  0999 V2000
   31.8010   17.0740   63.9510 N   0  0  0  0  0  0  0  0  0  0  0  0
   30.8040   17.9910   64.1430 C   0  0  0  0  0  0  0  0  0  0  0  0
   30.1780   18.0260   65.1940 O   0  0  0  0  0  0  0  0  0  0  0  0
   30.5560   18.9660   63.0480 C   0  0  0  0  0  0  0  0  0  0  0  0
   31.6240   19.7480   62.6050 C   0  0  0  0  0  0  0  0  0  0  0  0
   31.4270   20.6760   61.5870 C   0  0  0  0  0  0  0  0  0  0  0  0
   30.1600   20.8260   61.0180 C   0  0  0  0  0  0  0  0  0  0  0  0
   29.0570   20.0630   61.4490 C   0  0  0  0  0  0  0  0  0  0  0  0
   27.7220   20.2610   60.8380 C   0  0  0  0  0  0  0  0  0  0  0  0
   27.2260   19.4620   59.8210 C   0  0  0  0  0  0  0  0  0  0  0  0
   25.9640   19.7480   59.3250 C   0  0  0  0  0  0  0  0  0  0  0  0
   25.4700   18.9270   58.2800 N   0  0  0  0  0  0  0  0  0  0  0  0
   24.4080   17.9970   58.3170 C   0  0  0  0  0  0  0  0  0  0  0  0
   23.7140   17.6780   59.4870 C   0  0  0  0  0  0  0  0  0  0  0  0
   22.6250   16.8000   59.4620 C   0  0  0  0  0  0  0  0  0  0  0  0
   22.1850   16.2360   58.2620 C   0  0  0  0  0  0  0  0  0  0  0  0
   21.1150   15.4000   58.3870 O   0  0  0  0  0  0  0  0  0  0  0  0
   21.1130   14.2110   57.6180 C   0  0  0  0  0  0  0  0  0  0  0  0
   20.2700   13.3240   58.1910 F   0  0  0  0  0  0  0  0  0  0  0  0
   22.3420   13.6520   57.5750 F   0  0  0  0  0  0  0  0  0  0  0  0
   20.6820   14.4450   56.3590 F   0  0  0  0  0  0  0  0  0  0  0  0
   22.8450   16.5740   57.0840 C   0  0  0  0  0  0  0  0  0  0  0  0
   23.9360   17.4550   57.1130 C   0  0  0  0  0  0  0  0  0  0  0  0
   25.2440   20.7730   59.8040 N   0  0  0  0  0  0  0  0  0  0  0  0
   25.7980   21.4940   60.7850 C   0  0  0  0  0  0  0  0  0  0  0  0
   27.0050   21.2910   61.3270 N   0  0  0  0  0  0  0  0  0  0  0  0
   29.2810   19.1320   62.4820 C   0  0  0  0  0  0  0  0  0  0  0  0
   32.0410   16.5260   64.7690 H   0  0  0  0  0  0  0  0  0  0  0  0
   32.5380   17.2330   63.2780 H   0  0  0  0  0  0  0  0  0  0  0  0
   32.6189   19.6310   63.0595 H   0  0  0  0  0  0  0  0  0  0  0  0
   32.2672   21.2902   61.2310 H   0  0  0  0  0  0  0  0  0  0  0  0
   30.0197   21.5603   60.2110 H   0  0  0  0  0  0  0  0  0  0  0  0
   27.8163   18.6254   59.4190 H   0  0  0  0  0  0  0  0  0  0  0  0
   26.2450   18.5850   57.7240 H   0  0  0  0  0  0  0  0  0  0  0  0
   24.0286   18.1239   60.4421 H   0  0  0  0  0  0  0  0  0  0  0  0
   22.1080   16.5503   60.4003 H   0  0  0  0  0  0  0  0  0  0  0  0
   22.5097   16.1485   56.1266 H   0  0  0  0  0  0  0  0  0  0  0  0
   24.4326   17.7269   56.1699 H   0  0  0  0  0  0  0  0  0  0  0  0
   25.2067   22.3317   61.1834 H   0  0  0  0  0  0  0  0  0  0  0  0
   28.4424   18.5239   62.8522 H   0  0  0  0  0  0  0  0  0  0  0  0
  1  2  1  0
  2  3  2  0
  2  4  1  0
  4  5  2  0
  5  6  1  0
  6  7  2  0
  7  8  1  0
  8  9  1  0
  9 10  2  0
 10 11  1  0
 11 12  1  0
 12 13  1  0
 13 14  2  0
 14 15  1  0
 15 16  2  0
 16 17  1  0
 17 18  1  0
 18 19  1  0
 18 20  1  0
 18 21  1  0
 16 22  1  0
 22 23  2  0
 11 24  2  0
 24 25  1  0
 25 26  2  0
  8 27  2  0
 27  4  1  0
 26  9  1  0
 23 13  1  0
  1 28  1  0
  1 29  1  0
  5 30  1  0
  6 31  1  0
  7 32  1  0
 10 33  1  0
 12 34  1  0
 14 35  1  0
 15 36  1  0
 22 37  1  0
 23 38  1  0
 25 39  1  0
 27 40  1  0
M  END
>  <meeko>  (8) 
{"is_sidechain": [false], "free_energy": -8.963, "intermolecular_energy": -12.393, "internal_energy": -0.696}

$$$$
3k5v_ligand
     RDKit          3D

 40 42  0  0  0  0  0  0  0  0999 V2000
   31.4790   18.0790   63.1500 N   0  0  0  0  0  0  0  0  0  0  0  0
   30.4650   18.7540   63.7720 C   0  0  0  0  0  0  0  0  0  0  0  0
   30.2320   18.5810   64.9610 O   0  0  0  0  0  0  0  0  0  0  0  0
   29.7010   19.7350   62.9570 C   0  0  0  0  0  0  0  0  0  0  0  0
   29.8560   21.0940   63.2410 C   0  0  0  0  0  0  0  0  0  0  0  0
   29.1510   22.0400   62.5040 C   0  0  0  0  0  0  0  0  0  0  0  0
   28.2860   21.6270   61.4870 C   0  0  0  0  0  0  0  0  0  0  0  0
   28.0960   20.2650   61.1810 C   0  0  0  0  0  0  0  0  0  0  0  0
   27.1560   19.8600   60.1110 C   0  0  0  0  0  0  0  0  0  0  0  0
   26.0200   19.1030   60.3440 C   0  0  0  0  0  0  0  0  0  0  0  0
   25.2180   18.7810   59.2600 C   0  0  0  0  0  0  0  0  0  0  0  0
   24.0620   18.0000   59.5110 N   0  0  0  0  0  0  0  0  0  0  0  0
   23.3320   17.1910   58.6120 C   0  0  0  0  0  0  0  0  0  0  0  0
   22.2580   16.3900   59.0080 C   0  0  0  0  0  0  0  0  0  0  0  0
   21.5220   15.6570   58.0700 C   0  0  0  0  0  0  0  0  0  0  0  0
   21.8240   15.7260   56.7090 C   0  0  0  0  0  0  0  0  0  0  0  0
   21.0250   14.9600   55.9120 O   0  0  0  0  0  0  0  0  0  0  0  0
   19.8290   15.5400   55.4230 C   0  0  0  0  0  0  0  0  0  0  0  0
   18.8650   15.4020   56.3610 F   0  0  0  0  0  0  0  0  0  0  0  0
   19.4090   14.9240   54.2970 F   0  0  0  0  0  0  0  0  0  0  0  0
   19.9900   16.8590   55.1800 F   0  0  0  0  0  0  0  0  0  0  0  0
   22.8680   16.5500   56.2970 C   0  0  0  0  0  0  0  0  0  0  0  0
   23.6030   17.2820   57.2400 C   0  0  0  0  0  0  0  0  0  0  0  0
   25.5330   19.1790   58.0190 N   0  0  0  0  0  0  0  0  0  0  0  0
   26.6470   19.9070   57.8830 C   0  0  0  0  0  0  0  0  0  0  0  0
   27.4780   20.2680   58.8670 N   0  0  0  0  0  0  0  0  0  0  0  0
   28.8180   19.3260   61.9430 C   0  0  0  0  0  0  0  0  0  0  0  0
   32.0690   17.5330   63.7660 H   0  0  0  0  0  0  0  0  0  0  0  0
   31.9080   18.4360   62.3080 H   0  0  0  0  0  0  0  0  0  0  0  0
   30.5339   21.4153   64.0455 H   0  0  0  0  0  0  0  0  0  0  0  0
   29.2741   23.1113   62.7213 H   0  0  0  0  0  0  0  0  0  0  0  0
   27.7384   22.3863   60.9095 H   0  0  0  0  0  0  0  0  0  0  0  0
   25.7617   18.7671   61.3591 H   0  0  0  0  0  0  0  0  0  0  0  0
   23.4480   18.4990   60.1450 H   0  0  0  0  0  0  0  0  0  0  0  0
   21.9869   16.3346   60.0726 H   0  0  0  0  0  0  0  0  0  0  0  0
   20.6940   15.0176   58.4101 H   0  0  0  0  0  0  0  0  0  0  0  0
   23.1168   16.6269   55.2283 H   0  0  0  0  0  0  0  0  0  0  0  0
   24.4114   17.9433   56.8949 H   0  0  0  0  0  0  0  0  0  0  0  0
   26.9037   20.2400   56.8665 H   0  0  0  0  0  0  0  0  0  0  0  0
   28.6884   18.2526   61.7407 H   0  0  0  0  0  0  0  0  0  0  0  0
  1  2  1  0
  2  3  2  0
  2  4  1  0
  4  5  2  0
  5  6  1  0
  6  7  2  0
  7  8  1  0
  8  9  1  0
  9 10  2  0
 10 11  1  0
 11 12  1  0
 12 13  1  0
 13 14  2  0
 14 15  1  0
 15 16  2  0
 16 17  1  0
 17 18  1  0
 18 19  1  0
 18 20  1  0
 18 21  1  0
 16 22  1  0
 22 23  2  0
 11 24  2  0
 24 25  1  0
 25 26  2  0
  8 27  2  0
 27  4  1  0
 26  9  1  0
 23 13  1  0
  1 28  1  0
  1 29  1  0
  5 30  1  0
  6 31  1  0
  7 32  1  0
 10 33  1  0
 12 34  1  0
 14 35  1  0
 15 36  1  0
 22 37  1  0
 23 38  1  0
 25 39  1  0
 27 40  1  0
M  END
>  <meeko>  (9) 
{"is_sidechain": [false], "free_energy": -8.785, "intermolecular_energy": -12.657, "internal_energy": -0.191}

$$$$
