3ebp_ligand
     RDKit          3D

 49 52  0  0  0  0  0  0  0  0999 V2000
   43.1170   39.5210   26.6180 C   0  0  0  0  0  0  0  0  0  0  0  0
   42.2450   39.1460   27.7710 N   0  0  1  0  0  0  0  0  0  0  0  0
   40.7760   39.2960   27.4770 C   0  0  0  0  0  0  0  0  0  0  0  0
   39.9440   39.0390   28.7330 C   0  0  0  0  0  0  0  0  0  0  0  0
   40.3230   37.6990   29.3930 C   0  0  2  0  0  0  0  0  0  0  0  0
   39.3430   37.3180   30.5040 C   0  0  0  0  0  0  0  0  0  0  0  0
   39.1990   37.9960   31.7200 C   0  0  0  0  0  0  0  0  0  0  0  0
   39.9400   39.1170   31.9760 O   0  0  0  0  0  0  0  0  0  0  0  0
   38.2980   37.5630   32.6990 C   0  0  0  0  0  0  0  0  0  0  0  0
   37.5160   36.4290   32.4800 C   0  0  0  0  0  0  0  0  0  0  0  0
   36.6550   36.0220   33.4570 O   0  0  0  0  0  0  0  0  0  0  0  0
   37.6160   35.7280   31.2770 C   0  0  0  0  0  0  0  0  0  0  0  0
   36.8190   34.5100   30.9910 C   0  0  0  0  0  0  0  0  0  0  0  0
   35.9770   34.0380   31.7400 O   0  0  0  0  0  0  0  0  0  0  0  0
   37.0760   33.8390   29.7060 C   0  0  0  0  0  0  0  0  0  0  0  0
   37.9380   34.3850   28.8420 C   0  0  0  0  0  0  0  0  0  0  0  0
   38.2080   33.7700   27.5260 C   0  0  0  0  0  0  0  0  0  0  0  0
   37.9460   32.3970   27.3560 C   0  0  0  0  0  0  0  0  0  0  0  0
   38.1760   31.7660   26.1300 C   0  0  0  0  0  0  0  0  0  0  0  0
   38.6680   32.4950   25.0520 C   0  0  0  0  0  0  0  0  0  0  0  0
   38.9260   33.8580   25.1960 C   0  0  0  0  0  0  0  0  0  0  0  0
   38.6950   34.4950   26.4220 C   0  0  0  0  0  0  0  0  0  0  0  0
   39.0470   36.1900   26.5020 Cl  0  0  0  0  0  0  0  0  0  0  0  0
   38.6330   35.5530   29.0760 O   0  0  0  0  0  0  0  0  0  0  0  0
   38.5120   36.1820   30.2990 C   0  0  0  0  0  0  0  0  0  0  0  0
   41.8420   37.6790   29.6890 C   0  0  2  0  0  0  0  0  0  0  0  0
   42.2530   38.8530   30.4140 O   0  0  0  0  0  0  0  0  0  0  0  0
   42.5880   37.7790   28.3500 C   0  0  0  0  0  0  0  0  0  0  0  0
   44.0666   39.9294   26.9941 H   0  0  0  0  0  0  0  0  0  0  0  0
   43.3181   38.6298   26.0053 H   0  0  0  0  0  0  0  0  0  0  0  0
   42.6085   40.2800   26.0053 H   0  0  0  0  0  0  0  0  0  0  0  0
   42.4600   39.7890   28.5570 H   0  0  0  0  0  0  0  0  0  0  0  0
   40.5821   40.3177   27.1184 H   0  0  0  0  0  0  0  0  0  0  0  0
   40.4925   38.5613   26.7089 H   0  0  0  0  0  0  0  0  0  0  0  0
   40.1186   39.8538   29.4511 H   0  0  0  0  0  0  0  0  0  0  0  0
   38.8837   38.9950   28.4434 H   0  0  0  0  0  0  0  0  0  0  0  0
   40.1902   36.8485   28.7081 H   0  0  0  0  0  0  0  0  0  0  0  0
   39.3320   39.8610   32.1590 H   0  0  0  0  0  0  0  0  0  0  0  0
   38.2061   38.1185   33.6440 H   0  0  0  0  0  0  0  0  0  0  0  0
   35.8230   36.5210   33.4400 H   0  0  0  0  0  0  0  0  0  0  0  0
   36.5637   32.8974   29.4591 H   0  0  0  0  0  0  0  0  0  0  0  0
   37.5543   31.8118   28.2011 H   0  0  0  0  0  0  0  0  0  0  0  0
   37.9677   30.6918   26.0175 H   0  0  0  0  0  0  0  0  0  0  0  0
   38.8531   31.9976   24.0885 H   0  0  0  0  0  0  0  0  0  0  0  0
   39.3125   34.4353   24.3432 H   0  0  0  0  0  0  0  0  0  0  0  0
   42.0572   36.7647   30.2615 H   0  0  0  0  0  0  0  0  0  0  0  0
   42.8630   38.5240   31.1110 H   0  0  0  0  0  0  0  0  0  0  0  0
   43.6729   37.6948   28.5111 H   0  0  0  0  0  0  0  0  0  0  0  0
   42.2928   36.9695   27.6662 H   0  0  0  0  0  0  0  0  0  0  0  0
  1  2  1  0
  2  3  1  0
  3  4  1  0
  4  5  1  0
  5  6  1  0
  6  7  2  0
  7  8  1  0
  7  9  1  0
  9 10  2  0
 10 11  1  0
 10 12  1  0
 12 13  1  0
 13 14  2  0
 13 15  1  0
 15 16  2  0
 16 17  1  0
 17 18  2  0
 18 19  1  0
 19 20  2  0
 20 21  1  0
 21 22  2  0
 22 23  1  0
 16 24  1  0
 24 25  1  0
  5 26  1  0
 26 27  1  0
 26 28  1  0
 28  2  1  0
 25  6  1  0
 25 12  2  0
 22 17  1  0
  1 29  1  0
  1 30  1  0
  1 31  1  0
  2 32  1  1
  3 33  1  0
  3 34  1  0
  4 35  1  0
  4 36  1  0
  5 37  1  6
  8 38  1  0
  9 39  1  0
 11 40  1  0
 15 41  1  0
 18 42  1  0
 19 43  1  0
 20 44  1  0
 21 45  1  0
 26 46  1  1
 27 47  1  0
 28 48  1  0
 28 49  1  0
M  CHG  1   2   1
M  END
>  <meeko>  (1) 
{"is_sidechain": [false], "free_energy": -9.886, "intermolecular_energy": -11.909, "internal_energy": -0.638}

$$$$
3ebp_ligand
     RDKit          3D

 49 52  0  0  0  0  0  0  0  0999 V2000
   40.8670   42.3390   28.7440 C   0  0  0  0  0  0  0  0  0  0  0  0
   40.5440   41.0530   28.0560 N   0  0  1  0  0  0  0  0  0  0  0  0
   41.4300   39.9130   28.4840 C   0  0  0  0  0  0  0  0  0  0  0  0
   41.1490   38.6660   27.6450 C   0  0  0  0  0  0  0  0  0  0  0  0
   39.6460   38.3270   27.6290 C   0  0  2  0  0  0  0  0  0  0  0  0
   39.3800   36.9590   26.9990 C   0  0  0  0  0  0  0  0  0  0  0  0
   39.6370   36.6220   25.6650 C   0  0  0  0  0  0  0  0  0  0  0  0
   40.2050   37.5360   24.8200 O   0  0  0  0  0  0  0  0  0  0  0  0
   39.3360   35.3530   25.1580 C   0  0  0  0  0  0  0  0  0  0  0  0
   38.7630   34.3860   25.9830 C   0  0  0  0  0  0  0  0  0  0  0  0
   38.4680   33.1620   25.4590 O   0  0  0  0  0  0  0  0  0  0  0  0
   38.5000   34.6730   27.3250 C   0  0  0  0  0  0  0  0  0  0  0  0
   37.8830   33.6890   28.2480 C   0  0  0  0  0  0  0  0  0  0  0  0
   37.5960   32.5400   27.9490 O   0  0  0  0  0  0  0  0  0  0  0  0
   37.6070   34.1530   29.6170 C   0  0  0  0  0  0  0  0  0  0  0  0
   37.9840   35.3830   29.9820 C   0  0  0  0  0  0  0  0  0  0  0  0
   37.7590   35.8840   31.3540 C   0  0  0  0  0  0  0  0  0  0  0  0
   36.7910   35.2500   32.1550 C   0  0  0  0  0  0  0  0  0  0  0  0
   36.5430   35.6800   33.4610 C   0  0  0  0  0  0  0  0  0  0  0  0
   37.2600   36.7470   33.9920 C   0  0  0  0  0  0  0  0  0  0  0  0
   38.2300   37.3850   33.2190 C   0  0  0  0  0  0  0  0  0  0  0  0
   38.4830   36.9560   31.9090 C   0  0  0  0  0  0  0  0  0  0  0  0
   39.7060   37.8120   31.0290 Cl  0  0  0  0  0  0  0  0  0  0  0  0
   38.6180   36.2770   29.1470 O   0  0  0  0  0  0  0  0  0  0  0  0
   38.8210   35.9440   27.8230 C   0  0  0  0  0  0  0  0  0  0  0  0
   38.8440   39.5540   27.1310 C   0  0  2  0  0  0  0  0  0  0  0  0
   39.3680   40.0580   25.8890 O   0  0  0  0  0  0  0  0  0  0  0  0
   39.0630   40.7010   28.1290 C   0  0  0  0  0  0  0  0  0  0  0  0
   40.8299   42.1914   29.8334 H   0  0  0  0  0  0  0  0  0  0  0  0
   41.8756   42.6675   28.4526 H   0  0  0  0  0  0  0  0  0  0  0  0
   40.1334   43.1051   28.4526 H   0  0  0  0  0  0  0  0  0  0  0  0
   40.6980   41.1860   27.0380 H   0  0  0  0  0  0  0  0  0  0  0  0
   42.4825   40.2055   28.3549 H   0  0  0  0  0  0  0  0  0  0  0  0
   41.2248   39.6826   29.5398 H   0  0  0  0  0  0  0  0  0  0  0  0
   41.4867   38.8449   26.6135 H   0  0  0  0  0  0  0  0  0  0  0  0
   41.6905   37.8189   28.0912 H   0  0  0  0  0  0  0  0  0  0  0  0
   39.2491   38.1616   28.6415 H   0  0  0  0  0  0  0  0  0  0  0  0
   39.5460   38.2290   24.6170 H   0  0  0  0  0  0  0  0  0  0  0  0
   39.5521   35.1176   24.1054 H   0  0  0  0  0  0  0  0  0  0  0  0
   38.8330   32.4390   25.9950 H   0  0  0  0  0  0  0  0  0  0  0  0
   37.0951   33.4939   30.3337 H   0  0  0  0  0  0  0  0  0  0  0  0
   36.2208   34.4027   31.7465 H   0  0  0  0  0  0  0  0  0  0  0  0
   35.7796   35.1739   34.0702 H   0  0  0  0  0  0  0  0  0  0  0  0
   37.0625   37.0870   35.0193 H   0  0  0  0  0  0  0  0  0  0  0  0
   38.7984   38.2279   33.6391 H   0  0  0  0  0  0  0  0  0  0  0  0
   37.7949   39.2424   27.0201 H   0  0  0  0  0  0  0  0  0  0  0  0
   40.1950   39.5480   25.7340 H   0  0  0  0  0  0  0  0  0  0  0  0
   38.4503   41.5710   27.8501 H   0  0  0  0  0  0  0  0  0  0  0  0
   38.7714   40.4062   29.1479 H   0  0  0  0  0  0  0  0  0  0  0  0
  1  2  1  0
  2  3  1  0
  3  4  1  0
  4  5  1  0
  5  6  1  0
  6  7  2  0
  7  8  1  0
  7  9  1  0
  9 10  2  0
 10 11  1  0
 10 12  1  0
 12 13  1  0
 13 14  2  0
 13 15  1  0
 15 16  2  0
 16 17  1  0
 17 18  2  0
 18 19  1  0
 19 20  2  0
 20 21  1  0
 21 22  2  0
 22 23  1  0
 16 24  1  0
 24 25  1  0
  5 26  1  0
 26 27  1  0
 26 28  1  0
 28  2  1  0
 25  6  1  0
 25 12  2  0
 22 17  1  0
  1 29  1  0
  1 30  1  0
  1 31  1  0
  2 32  1  6
  3 33  1  0
  3 34  1  0
  4 35  1  0
  4 36  1  0
  5 37  1  1
  8 38  1  0
  9 39  1  0
 11 40  1  0
 15 41  1  0
 18 42  1  0
 19 43  1  0
 20 44  1  0
 21 45  1  0
 26 46  1  6
 27 47  1  0
 28 48  1  0
 28 49  1  0
M  CHG  1   2   1
M  END
>  <meeko>  (2) 
{"is_sidechain": [false], "free_energy": -9.782, "intermolecular_energy": -11.825, "internal_energy": -0.596}

$$$$
3ebp_ligand
     RDKit          3D

 49 52  0  0  0  0  0  0  0  0999 V2000
   42.8230   39.1350   25.8630 C   0  0  0  0  0  0  0  0  0  0  0  0
   41.7990   38.1500   26.3240 N   0  0  1  0  0  0  0  0  0  0  0  0
   42.3180   37.2040   27.3740 C   0  0  0  0  0  0  0  0  0  0  0  0
   41.2770   36.1330   27.6990 C   0  0  0  0  0  0  0  0  0  0  0  0
   39.9100   36.7620   28.0340 C   0  0  2  0  0  0  0  0  0  0  0  0
   38.9310   35.7270   28.5900 C   0  0  0  0  0  0  0  0  0  0  0  0
   38.4580   34.6080   27.8930 C   0  0  0  0  0  0  0  0  0  0  0  0
   38.9000   34.3480   26.6250 O   0  0  0  0  0  0  0  0  0  0  0  0
   37.5370   33.7240   28.4650 C   0  0  0  0  0  0  0  0  0  0  0  0
   37.0630   33.9440   29.7580 C   0  0  0  0  0  0  0  0  0  0  0  0
   36.1560   33.0730   30.2860 O   0  0  0  0  0  0  0  0  0  0  0  0
   37.5160   35.0400   30.4960 C   0  0  0  0  0  0  0  0  0  0  0  0
   37.0410   35.3310   31.8710 C   0  0  0  0  0  0  0  0  0  0  0  0
   36.2630   34.6310   32.5010 O   0  0  0  0  0  0  0  0  0  0  0  0
   37.5580   36.5560   32.5020 C   0  0  0  0  0  0  0  0  0  0  0  0
   38.4680   37.2930   31.8560 C   0  0  0  0  0  0  0  0  0  0  0  0
   39.0430   38.5130   32.4590 C   0  0  0  0  0  0  0  0  0  0  0  0
   39.5550   38.4430   33.7680 C   0  0  0  0  0  0  0  0  0  0  0  0
   40.1160   39.5660   34.3830 C   0  0  0  0  0  0  0  0  0  0  0  0
   40.1790   40.7770   33.7010 C   0  0  0  0  0  0  0  0  0  0  0  0
   39.6850   40.8660   32.4000 C   0  0  0  0  0  0  0  0  0  0  0  0
   39.1240   39.7430   31.7790 C   0  0  0  0  0  0  0  0  0  0  0  0
   38.5380   39.9550   30.1620 Cl  0  0  0  0  0  0  0  0  0  0  0  0
   38.9630   36.9900   30.6050 O   0  0  0  0  0  0  0  0  0  0  0  0
   38.4510   35.9090   29.9160 C   0  0  0  0  0  0  0  0  0  0  0  0
   39.4600   37.6740   26.8670 C   0  0  2  0  0  0  0  0  0  0  0  0
   39.5210   36.9830   25.6060 O   0  0  0  0  0  0  0  0  0  0  0  0
   40.4870   38.8080   26.7280 C   0  0  0  0  0  0  0  0  0  0  0  0
   43.3050   39.5987   26.7363 H   0  0  0  0  0  0  0  0  0  0  0  0
   43.5817   38.6185   25.2566 H   0  0  0  0  0  0  0  0  0  0  0  0
   42.3364   39.9131   25.2566 H   0  0  0  0  0  0  0  0  0  0  0  0
   41.5240   37.5690   25.5080 H   0  0  0  0  0  0  0  0  0  0  0  0
   43.2320   36.7179   27.0020 H   0  0  0  0  0  0  0  0  0  0  0  0
   42.5346   37.7755   28.2886 H   0  0  0  0  0  0  0  0  0  0  0  0
   41.1623   35.4695   26.8292 H   0  0  0  0  0  0  0  0  0  0  0  0
   41.6232   35.5683   28.5772 H   0  0  0  0  0  0  0  0  0  0  0  0
   39.9718   37.4562   28.8851 H   0  0  0  0  0  0  0  0  0  0  0  0
   38.1580   33.9860   26.1010 H   0  0  0  0  0  0  0  0  0  0  0  0
   37.1855   32.8526   27.8931 H   0  0  0  0  0  0  0  0  0  0  0  0
   35.6980   33.4460   31.0560 H   0  0  0  0  0  0  0  0  0  0  0  0
   37.1993   36.8625   33.4957 H   0  0  0  0  0  0  0  0  0  0  0  0
   39.5131   37.4899   34.3156 H   0  0  0  0  0  0  0  0  0  0  0  0
   40.5083   39.4921   35.4080 H   0  0  0  0  0  0  0  0  0  0  0  0
   40.6171   41.6615   34.1865 H   0  0  0  0  0  0  0  0  0  0  0  0
   39.7362   41.8225   31.8591 H   0  0  0  0  0  0  0  0  0  0  0  0
   38.4362   38.0125   27.0845 H   0  0  0  0  0  0  0  0  0  0  0  0
   38.8170   36.2970   25.6550 H   0  0  0  0  0  0  0  0  0  0  0  0
   40.1647   39.5210   25.9548 H   0  0  0  0  0  0  0  0  0  0  0  0
   40.5939   39.3678   27.6689 H   0  0  0  0  0  0  0  0  0  0  0  0
  1  2  1  0
  2  3  1  0
  3  4  1  0
  4  5  1  0
  5  6  1  0
  6  7  2  0
  7  8  1  0
  7  9  1  0
  9 10  2  0
 10 11  1  0
 10 12  1  0
 12 13  1  0
 13 14  2  0
 13 15  1  0
 15 16  2  0
 16 17  1  0
 17 18  2  0
 18 19  1  0
 19 20  2  0
 20 21  1  0
 21 22  2  0
 22 23  1  0
 16 24  1  0
 24 25  1  0
  5 26  1  0
 26 27  1  0
 26 28  1  0
 28  2  1  0
 25  6  1  0
 25 12  2  0
 22 17  1  0
  1 29  1  0
  1 30  1  0
  1 31  1  0
  2 32  1  6
  3 33  1  0
  3 34  1  0
  4 35  1  0
  4 36  1  0
  5 37  1  1
  8 38  1  0
  9 39  1  0
 11 40  1  0
 15 41  1  0
 18 42  1  0
 19 43  1  0
 20 44  1  0
 21 45  1  0
 26 46  1  1
 27 47  1  0
 28 48  1  0
 28 49  1  0
M  CHG  1   2   1
M  END
>  <meeko>  (3) 
{"is_sidechain": [false], "free_energy": -9.191, "intermolecular_energy": -10.755, "internal_energy": -0.955}

$$$$
3ebp_ligand
     RDKit          3D

 49 52  0  0  0  0  0  0  0  0999 V2000
   42.3440   37.9400   25.3660 C   0  0  0  0  0  0  0  0  0  0  0  0
   41.3860   37.6160   26.4650 N   0  0  1  0  0  0  0  0  0  0  0  0
   42.0190   36.8460   27.5940 C   0  0  0  0  0  0  0  0  0  0  0  0
   40.9640   36.4180   28.6150 C   0  0  0  0  0  0  0  0  0  0  0  0
   40.1050   37.6150   29.0680 C   0  0  2  0  0  0  0  0  0  0  0  0
   39.2120   37.2530   30.2560 C   0  0  0  0  0  0  0  0  0  0  0  0
   39.1520   37.9600   31.4640 C   0  0  0  0  0  0  0  0  0  0  0  0
   39.9000   39.0900   31.6390 O   0  0  0  0  0  0  0  0  0  0  0  0
   38.3280   37.5440   32.5160 C   0  0  0  0  0  0  0  0  0  0  0  0
   37.5410   36.4010   32.3810 C   0  0  0  0  0  0  0  0  0  0  0  0
   36.7570   36.0110   33.4270 O   0  0  0  0  0  0  0  0  0  0  0  0
   37.5580   35.6720   31.1900 C   0  0  0  0  0  0  0  0  0  0  0  0
   36.7520   34.4430   30.9910 C   0  0  0  0  0  0  0  0  0  0  0  0
   35.9700   33.9830   31.8110 O   0  0  0  0  0  0  0  0  0  0  0  0
   36.9190   33.7440   29.7070 C   0  0  0  0  0  0  0  0  0  0  0  0
   37.7120   34.2750   28.7700 C   0  0  0  0  0  0  0  0  0  0  0  0
   37.8890   33.6300   27.4520 C   0  0  0  0  0  0  0  0  0  0  0  0
   37.3200   34.2420   26.3190 C   0  0  0  0  0  0  0  0  0  0  0  0
   37.4640   33.6780   25.0480 C   0  0  0  0  0  0  0  0  0  0  0  0
   38.1790   32.4960   24.8860 C   0  0  0  0  0  0  0  0  0  0  0  0
   38.7570   31.8770   25.9940 C   0  0  0  0  0  0  0  0  0  0  0  0
   38.6180   32.4400   27.2690 C   0  0  0  0  0  0  0  0  0  0  0  0
   39.3720   31.5970   28.5820 Cl  0  0  0  0  0  0  0  0  0  0  0  0
   38.4120   35.4520   28.9250 O   0  0  0  0  0  0  0  0  0  0  0  0
   38.3770   36.1080   30.1390 C   0  0  0  0  0  0  0  0  0  0  0  0
   39.4720   38.2960   27.8310 C   0  0  2  0  0  0  0  0  0  0  0  0
   38.7950   37.3430   26.9930 O   0  0  0  0  0  0  0  0  0  0  0  0
   40.6110   38.8330   26.9510 C   0  0  0  0  0  0  0  0  0  0  0  0
   43.3021   38.2640   25.7984 H   0  0  0  0  0  0  0  0  0  0  0  0
   42.5055   37.0465   24.7451 H   0  0  0  0  0  0  0  0  0  0  0  0
   41.9300   38.7481   24.7451 H   0  0  0  0  0  0  0  0  0  0  0  0
   40.6400   37.0100   26.0720 H   0  0  0  0  0  0  0  0  0  0  0  0
   42.5128   35.9508   27.1882 H   0  0  0  0  0  0  0  0  0  0  0  0
   42.7538   37.4933   28.0951 H   0  0  0  0  0  0  0  0  0  0  0  0
   40.3103   35.6602   28.1585 H   0  0  0  0  0  0  0  0  0  0  0  0
   41.4796   36.0076   29.4958 H   0  0  0  0  0  0  0  0  0  0  0  0
   40.7142   38.4167   29.5109 H   0  0  0  0  0  0  0  0  0  0  0  0
   40.7850   38.9460   31.2480 H   0  0  0  0  0  0  0  0  0  0  0  0
   38.3012   38.1206   33.4524 H   0  0  0  0  0  0  0  0  0  0  0  0
   37.1800   35.3210   33.9620 H   0  0  0  0  0  0  0  0  0  0  0  0
   36.3968   32.7941   29.5196 H   0  0  0  0  0  0  0  0  0  0  0  0
   36.7537   35.1778   26.4356 H   0  0  0  0  0  0  0  0  0  0  0  0
   37.0111   34.1698   24.1745 H   0  0  0  0  0  0  0  0  0  0  0  0
   38.2883   32.0505   23.8862 H   0  0  0  0  0  0  0  0  0  0  0  0
   39.3241   30.9432   25.8662 H   0  0  0  0  0  0  0  0  0  0  0  0
   38.7765   39.0665   28.1953 H   0  0  0  0  0  0  0  0  0  0  0  0
   37.8670   37.3270   27.3200 H   0  0  0  0  0  0  0  0  0  0  0  0
   40.2011   39.3900   26.0956 H   0  0  0  0  0  0  0  0  0  0  0  0
   41.2594   39.5216   27.5126 H   0  0  0  0  0  0  0  0  0  0  0  0
  1  2  1  0
  2  3  1  0
  3  4  1  0
  4  5  1  0
  5  6  1  0
  6  7  2  0
  7  8  1  0
  7  9  1  0
  9 10  2  0
 10 11  1  0
 10 12  1  0
 12 13  1  0
 13 14  2  0
 13 15  1  0
 15 16  2  0
 16 17  1  0
 17 18  2  0
 18 19  1  0
 19 20  2  0
 20 21  1  0
 21 22  2  0
 22 23  1  0
 16 24  1  0
 24 25  1  0
  5 26  1  0
 26 27  1  0
 26 28  1  0
 28  2  1  0
 25  6  1  0
 25 12  2  0
 22 17  1  0
  1 29  1  0
  1 30  1  0
  1 31  1  0
  2 32  1  6
  3 33  1  0
  3 34  1  0
  4 35  1  0
  4 36  1  0
  5 37  1  1
  8 38  1  0
  9 39  1  0
 11 40  1  0
 15 41  1  0
 18 42  1  0
 19 43  1  0
 20 44  1  0
 21 45  1  0
 26 46  1  1
 27 47  1  0
 28 48  1  0
 28 49  1  0
M  CHG  1   2   1
M  END
>  <meeko>  (4) 
{"is_sidechain": [false], "free_energy": -8.964, "intermolecular_energy": -10.856, "internal_energy": -0.58}

$$$$
3ebp_ligand
     RDKit          3D

 49 52  0  0  0  0  0  0  0  0999 V2000
   40.5360   42.8370   31.4070 C   0  0  0  0  0  0  0  0  0  0  0  0
   40.4360   41.7910   30.3450 N   0  0  1  0  0  0  0  0  0  0  0  0
   41.3000   40.5880   30.6150 C   0  0  0  0  0  0  0  0  0  0  0  0
   41.2680   39.6230   29.4300 C   0  0  0  0  0  0  0  0  0  0  0  0
   39.8210   39.2840   29.0210 C   0  0  2  0  0  0  0  0  0  0  0  0
   39.7720   38.1440   28.0030 C   0  0  0  0  0  0  0  0  0  0  0  0
   40.2710   38.2080   26.6960 C   0  0  0  0  0  0  0  0  0  0  0  0
   40.8940   39.3410   26.2510 O   0  0  0  0  0  0  0  0  0  0  0  0
   40.1590   37.1270   25.8140 C   0  0  0  0  0  0  0  0  0  0  0  0
   39.5380   35.9480   26.2260 C   0  0  0  0  0  0  0  0  0  0  0  0
   39.4320   34.9150   25.3420 O   0  0  0  0  0  0  0  0  0  0  0  0
   39.0370   35.8330   27.5250 C   0  0  0  0  0  0  0  0  0  0  0  0
   38.3580   34.6090   28.0160 C   0  0  0  0  0  0  0  0  0  0  0  0
   38.2160   33.5840   27.3660 O   0  0  0  0  0  0  0  0  0  0  0  0
   37.8250   34.6560   29.3870 C   0  0  0  0  0  0  0  0  0  0  0  0
   38.0380   35.7420   30.1370 C   0  0  0  0  0  0  0  0  0  0  0  0
   37.5520   35.8260   31.5300 C   0  0  0  0  0  0  0  0  0  0  0  0
   36.5960   34.8920   31.9700 C   0  0  0  0  0  0  0  0  0  0  0  0
   36.1080   34.9220   33.2790 C   0  0  0  0  0  0  0  0  0  0  0  0
   36.5690   35.8830   34.1730 C   0  0  0  0  0  0  0  0  0  0  0  0
   37.5220   36.8130   33.7610 C   0  0  0  0  0  0  0  0  0  0  0  0
   38.0160   36.7860   32.4500 C   0  0  0  0  0  0  0  0  0  0  0  0
   39.1970   37.9830   32.0340 Cl  0  0  0  0  0  0  0  0  0  0  0  0
   38.7260   36.8560   29.7070 O   0  0  0  0  0  0  0  0  0  0  0  0
   39.1690   36.9190   28.4020 C   0  0  0  0  0  0  0  0  0  0  0  0
   39.0470   40.5910   28.7250 C   0  0  2  0  0  0  0  0  0  0  0  0
   39.7620   41.4280   27.7980 O   0  0  0  0  0  0  0  0  0  0  0  0
   38.9960   41.4160   30.0200 C   0  0  0  0  0  0  0  0  0  0  0  0
   40.4904   42.3598   32.3971 H   0  0  0  0  0  0  0  0  0  0  0  0
   41.4897   43.3752   31.3029 H   0  0  0  0  0  0  0  0  0  0  0  0
   39.7016   43.5461   31.3029 H   0  0  0  0  0  0  0  0  0  0  0  0
   40.7710   42.2060   29.4540 H   0  0  0  0  0  0  0  0  0  0  0  0
   42.3356   40.9179   30.7842 H   0  0  0  0  0  0  0  0  0  0  0  0
   40.9148   40.0684   31.5047 H   0  0  0  0  0  0  0  0  0  0  0  0
   41.7820   40.0878   28.5757 H   0  0  0  0  0  0  0  0  0  0  0  0
   41.7713   38.6914   29.7279 H   0  0  0  0  0  0  0  0  0  0  0  0
   39.2517   38.8373   29.8495 H   0  0  0  0  0  0  0  0  0  0  0  0
   40.4530   40.1190   26.6460 H   0  0  0  0  0  0  0  0  0  0  0  0
   40.5617   37.2074   24.7935 H   0  0  0  0  0  0  0  0  0  0  0  0
   38.5290   34.8200   24.9990 H   0  0  0  0  0  0  0  0  0  0  0  0
   37.2565   33.8053   29.7909 H   0  0  0  0  0  0  0  0  0  0  0  0
   36.2269   34.1259   31.2723 H   0  0  0  0  0  0  0  0  0  0  0  0
   35.3585   34.1849   33.6029 H   0  0  0  0  0  0  0  0  0  0  0  0
   36.1824   35.9089   35.2025 H   0  0  0  0  0  0  0  0  0  0  0  0
   37.8880   37.5717   34.4684 H   0  0  0  0  0  0  0  0  0  0  0  0
   38.0610   40.3106   28.3259 H   0  0  0  0  0  0  0  0  0  0  0  0
   40.4090   41.9250   28.3480 H   0  0  0  0  0  0  0  0  0  0  0  0
   38.3908   42.3223   29.8706 H   0  0  0  0  0  0  0  0  0  0  0  0
   38.5368   40.8447   30.8402 H   0  0  0  0  0  0  0  0  0  0  0  0
  1  2  1  0
  2  3  1  0
  3  4  1  0
  4  5  1  0
  5  6  1  0
  6  7  2  0
  7  8  1  0
  7  9  1  0
  9 10  2  0
 10 11  1  0
 10 12  1  0
 12 13  1  0
 13 14  2  0
 13 15  1  0
 15 16  2  0
 16 17  1  0
 17 18  2  0
 18 19  1  0
 19 20  2  0
 20 21  1  0
 21 22  2  0
 22 23  1  0
 16 24  1  0
 24 25  1  0
  5 26  1  0
 26 27  1  0
 26 28  1  0
 28  2  1  0
 25  6  1  0
 25 12  2  0
 22 17  1  0
  1 29  1  0
  1 30  1  0
  1 31  1  0
  2 32  1  6
  3 33  1  0
  3 34  1  0
  4 35  1  0
  4 36  1  0
  5 37  1  1
  8 38  1  0
  9 39  1  0
 11 40  1  0
 15 41  1  0
 18 42  1  0
 19 43  1  0
 20 44  1  0
 21 45  1  0
 26 46  1  6
 27 47  1  0
 28 48  1  0
 28 49  1  0
M  CHG  1   2   1
M  END
>  <meeko>  (5) 
{"is_sidechain": [false], "free_energy": -8.816, "intermolecular_energy": -10.751, "internal_energy": -0.506}

$$$$
3ebp_ligand
     RDKit          3D

 49 52  0  0  0  0  0  0  0  0999 V2000
   40.8810   41.9110   32.7900 C   0  0  0  0  0  0  0  0  0  0  0  0
   40.0830   40.6560   32.6500 N   0  0  1  0  0  0  0  0  0  0  0  0
   39.2400   40.6250   31.4030 C   0  0  0  0  0  0  0  0  0  0  0  0
   38.3410   39.3890   31.3880 C   0  0  0  0  0  0  0  0  0  0  0  0
   39.1530   38.1020   31.6350 C   0  0  2  0  0  0  0  0  0  0  0  0
   38.3150   36.8470   31.3870 C   0  0  0  0  0  0  0  0  0  0  0  0
   37.4190   36.2810   32.3030 C   0  0  0  0  0  0  0  0  0  0  0  0
   37.2080   36.8740   33.5170 O   0  0  0  0  0  0  0  0  0  0  0  0
   36.7110   35.1110   32.0080 C   0  0  0  0  0  0  0  0  0  0  0  0
   36.8880   34.4740   30.7800 C   0  0  0  0  0  0  0  0  0  0  0  0
   36.1950   33.3280   30.5250 O   0  0  0  0  0  0  0  0  0  0  0  0
   37.7610   35.0090   29.8300 C   0  0  0  0  0  0  0  0  0  0  0  0
   37.9990   34.3720   28.5120 C   0  0  0  0  0  0  0  0  0  0  0  0
   37.4290   33.3670   28.1120 O   0  0  0  0  0  0  0  0  0  0  0  0
   38.9940   35.0140   27.6380 C   0  0  0  0  0  0  0  0  0  0  0  0
   39.5700   36.1560   28.0280 C   0  0  0  0  0  0  0  0  0  0  0  0
   40.5510   36.8580   27.1750 C   0  0  0  0  0  0  0  0  0  0  0  0
   40.0820   37.5820   26.0630 C   0  0  0  0  0  0  0  0  0  0  0  0
   40.9660   38.2700   25.2260 C   0  0  0  0  0  0  0  0  0  0  0  0
   42.3330   38.2480   25.4880 C   0  0  0  0  0  0  0  0  0  0  0  0
   42.8170   37.5430   26.5880 C   0  0  0  0  0  0  0  0  0  0  0  0
   41.9350   36.8540   27.4300 C   0  0  0  0  0  0  0  0  0  0  0  0
   42.6330   36.0080   28.7710 Cl  0  0  0  0  0  0  0  0  0  0  0  0
   39.3030   36.7880   29.2240 O   0  0  0  0  0  0  0  0  0  0  0  0
   38.4530   36.1910   30.1330 C   0  0  0  0  0  0  0  0  0  0  0  0
   39.9390   38.2320   32.9620 C   0  0  2  0  0  0  0  0  0  0  0  0
   39.0800   38.6280   34.0470 O   0  0  0  0  0  0  0  0  0  0  0  0
   40.9270   39.3990   32.8160 C   0  0  0  0  0  0  0  0  0  0  0  0
   41.0247   42.1370   33.8569 H   0  0  0  0  0  0  0  0  0  0  0  0
   41.8609   41.7781   32.3081 H   0  0  0  0  0  0  0  0  0  0  0  0
   40.3451   42.7420   32.3081 H   0  0  0  0  0  0  0  0  0  0  0  0
   39.4290   40.6010   33.4550 H   0  0  0  0  0  0  0  0  0  0  0  0
   38.6127   41.5280   31.3689 H   0  0  0  0  0  0  0  0  0  0  0  0
   39.9053   40.5885   30.5277 H   0  0  0  0  0  0  0  0  0  0  0  0
   37.5805   39.4896   32.1764 H   0  0  0  0  0  0  0  0  0  0  0  0
   37.8679   39.3161   30.3976 H   0  0  0  0  0  0  0  0  0  0  0  0
   39.9467   37.9645   30.8859 H   0  0  0  0  0  0  0  0  0  0  0  0
   37.3210   36.2030   34.2190 H   0  0  0  0  0  0  0  0  0  0  0  0
   36.0123   34.6920   32.7471 H   0  0  0  0  0  0  0  0  0  0  0  0
   36.5320   32.8650   29.7420 H   0  0  0  0  0  0  0  0  0  0  0  0
   39.2613   34.5587   26.6730 H   0  0  0  0  0  0  0  0  0  0  0  0
   39.0033   37.6071   25.8490 H   0  0  0  0  0  0  0  0  0  0  0  0
   40.5811   38.8288   24.3602 H   0  0  0  0  0  0  0  0  0  0  0  0
   43.0295   38.7860   24.8281 H   0  0  0  0  0  0  0  0  0  0  0  0
   43.8970   37.5275   26.7961 H   0  0  0  0  0  0  0  0  0  0  0  0
   40.4109   37.2594   33.1652 H   0  0  0  0  0  0  0  0  0  0  0  0
   38.5790   37.8160   34.2870 H   0  0  0  0  0  0  0  0  0  0  0  0
   41.5570   39.4792   33.7141 H   0  0  0  0  0  0  0  0  0  0  0  0
   41.5964   39.2506   31.9559 H   0  0  0  0  0  0  0  0  0  0  0  0
  1  2  1  0
  2  3  1  0
  3  4  1  0
  4  5  1  0
  5  6  1  0
  6  7  2  0
  7  8  1  0
  7  9  1  0
  9 10  2  0
 10 11  1  0
 10 12  1  0
 12 13  1  0
 13 14  2  0
 13 15  1  0
 15 16  2  0
 16 17  1  0
 17 18  2  0
 18 19  1  0
 19 20  2  0
 20 21  1  0
 21 22  2  0
 22 23  1  0
 16 24  1  0
 24 25  1  0
  5 26  1  0
 26 27  1  0
 26 28  1  0
 28  2  1  0
 25  6  1  0
 25 12  2  0
 22 17  1  0
  1 29  1  0
  1 30  1  0
  1 31  1  0
  2 32  1  1
  3 33  1  0
  3 34  1  0
  4 35  1  0
  4 36  1  0
  5 37  1  6
  8 38  1  0
  9 39  1  0
 11 40  1  0
 15 41  1  0
 18 42  1  0
 19 43  1  0
 20 44  1  0
 21 45  1  0
 26 46  1  1
 27 47  1  0
 28 48  1  0
 28 49  1  0
M  CHG  1   2   1
M  END
>  <meeko>  (6) 
{"is_sidechain": [false], "free_energy": -8.779, "intermolecular_energy": -10.371, "internal_energy": -0.842}

$$$$
3ebp_ligand
     RDKit          3D

 49 52  0  0  0  0  0  0  0  0999 V2000
   42.1700   39.8950   23.7330 C   0  0  0  0  0  0  0  0  0  0  0  0
   41.6960   39.8270   25.1480 N   0  0  1  0  0  0  0  0  0  0  0  0
   40.1950   39.8470   25.2710 C   0  0  0  0  0  0  0  0  0  0  0  0
   39.7740   39.9230   26.7380 C   0  0  0  0  0  0  0  0  0  0  0  0
   40.4630   38.8280   27.5760 C   0  0  2  0  0  0  0  0  0  0  0  0
   39.8740   38.7380   28.9850 C   0  0  0  0  0  0  0  0  0  0  0  0
   39.9600   39.7400   29.9600 C   0  0  0  0  0  0  0  0  0  0  0  0
   40.5750   40.9280   29.6760 O   0  0  0  0  0  0  0  0  0  0  0  0
   39.4190   39.5670   31.2390 C   0  0  0  0  0  0  0  0  0  0  0  0
   38.7760   38.3750   31.5730 C   0  0  0  0  0  0  0  0  0  0  0  0
   38.2690   38.2290   32.8310 O   0  0  0  0  0  0  0  0  0  0  0  0
   38.6550   37.3530   30.6290 C   0  0  0  0  0  0  0  0  0  0  0  0
   37.9910   36.0610   30.9290 C   0  0  0  0  0  0  0  0  0  0  0  0
   37.4520   35.7850   31.9900 O   0  0  0  0  0  0  0  0  0  0  0  0
   37.9940   35.0530   29.8560 C   0  0  0  0  0  0  0  0  0  0  0  0
   38.5120   35.3660   28.6640 C   0  0  0  0  0  0  0  0  0  0  0  0
   38.5110   34.4020   27.5440 C   0  0  0  0  0  0  0  0  0  0  0  0
   39.0600   34.7980   26.3100 C   0  0  0  0  0  0  0  0  0  0  0  0
   39.0900   33.9240   25.2200 C   0  0  0  0  0  0  0  0  0  0  0  0
   38.5750   32.6370   25.3440 C   0  0  0  0  0  0  0  0  0  0  0  0
   38.0330   32.2210   26.5600 C   0  0  0  0  0  0  0  0  0  0  0  0
   38.0030   33.0930   27.6550 C   0  0  0  0  0  0  0  0  0  0  0  0
   37.3100   32.4840   29.1220 Cl  0  0  0  0  0  0  0  0  0  0  0  0
   39.0710   36.5890   28.3600 O   0  0  0  0  0  0  0  0  0  0  0  0
   39.1880   37.5460   29.3470 C   0  0  0  0  0  0  0  0  0  0  0  0
   41.9970   38.9340   27.4070 C   0  0  2  0  0  0  0  0  0  0  0  0
   42.4630   40.2740   27.6540 O   0  0  0  0  0  0  0  0  0  0  0  0
   42.3300   38.6830   25.9290 C   0  0  0  0  0  0  0  0  0  0  0  0
   43.2588   40.0512   23.7181 H   0  0  0  0  0  0  0  0  0  0  0  0
   41.9277   38.9529   23.2195 H   0  0  0  0  0  0  0  0  0  0  0  0
   41.6726   40.7310   23.2195 H   0  0  0  0  0  0  0  0  0  0  0  0
   42.0480   40.6670   25.6440 H   0  0  0  0  0  0  0  0  0  0  0  0
   39.8006   40.7237   24.7363 H   0  0  0  0  0  0  0  0  0  0  0  0
   39.7922   38.9209   24.8351 H   0  0  0  0  0  0  0  0  0  0  0  0
   40.0509   40.9089   27.1396 H   0  0  0  0  0  0  0  0  0  0  0  0
   38.6861   39.7709   26.7953 H   0  0  0  0  0  0  0  0  0  0  0  0
   40.2392   37.8187   27.2002 H   0  0  0  0  0  0  0  0  0  0  0  0
   39.9310   41.5190   29.2370 H   0  0  0  0  0  0  0  0  0  0  0  0
   39.5010   40.3731   31.9829 H   0  0  0  0  0  0  0  0  0  0  0  0
   38.7710   38.7380   33.4870 H   0  0  0  0  0  0  0  0  0  0  0  0
   37.5740   34.0519   30.0334 H   0  0  0  0  0  0  0  0  0  0  0  0
   39.4722   35.8121   26.2018 H   0  0  0  0  0  0  0  0  0  0  0  0
   39.5210   34.2535   24.2631 H   0  0  0  0  0  0  0  0  0  0  0  0
   38.5953   31.9497   24.4854 H   0  0  0  0  0  0  0  0  0  0  0  0
   37.6273   31.2034   26.6591 H   0  0  0  0  0  0  0  0  0  0  0  0
   42.4586   38.2194   28.1043 H   0  0  0  0  0  0  0  0  0  0  0  0
   43.4130   40.2650   27.4010 H   0  0  0  0  0  0  0  0  0  0  0  0
   43.4198   38.6777   25.7796 H   0  0  0  0  0  0  0  0  0  0  0  0
   41.9467   37.7084   25.5926 H   0  0  0  0  0  0  0  0  0  0  0  0
  1  2  1  0
  2  3  1  0
  3  4  1  0
  4  5  1  0
  5  6  1  0
  6  7  2  0
  7  8  1  0
  7  9  1  0
  9 10  2  0
 10 11  1  0
 10 12  1  0
 12 13  1  0
 13 14  2  0
 13 15  1  0
 15 16  2  0
 16 17  1  0
 17 18  2  0
 18 19  1  0
 19 20  2  0
 20 21  1  0
 21 22  2  0
 22 23  1  0
 16 24  1  0
 24 25  1  0
  5 26  1  0
 26 27  1  0
 26 28  1  0
 28  2  1  0
 25  6  1  0
 25 12  2  0
 22 17  1  0
  1 29  1  0
  1 30  1  0
  1 31  1  0
  2 32  1  1
  3 33  1  0
  3 34  1  0
  4 35  1  0
  4 36  1  0
  5 37  1  6
  8 38  1  0
  9 39  1  0
 11 40  1  0
 15 41  1  0
 18 42  1  0
 19 43  1  0
 20 44  1  0
 21 45  1  0
 26 46  1  1
 27 47  1  0
 28 48  1  0
 28 49  1  0
M  CHG  1   2   1
M  END
>  <meeko>  (7) 
{"is_sidechain": [false], "free_energy": -8.635, "intermolecular_energy": -10.745, "internal_energy": -0.295}

$$$$
3ebp_ligand
     RDKit          3D

 49 52  0  0  0  0  0  0  0  0999 V2000
   39.1030   32.6430   24.9050 C   0  0  0  0  0  0  0  0  0  0  0  0
   38.8870   33.0720   26.3200 N   0  0  1  0  0  0  0  0  0  0  0  0
   38.9250   34.5660   26.4980 C   0  0  0  0  0  0  0  0  0  0  0  0
   38.8440   34.9360   27.9790 C   0  0  0  0  0  0  0  0  0  0  0  0
   37.6480   34.2470   28.6650 C   0  0  2  0  0  0  0  0  0  0  0  0
   37.4140   34.7900   30.0760 C   0  0  0  0  0  0  0  0  0  0  0  0
   36.5330   34.2400   31.0150 C   0  0  0  0  0  0  0  0  0  0  0  0
   35.8280   33.1060   30.7190 O   0  0  0  0  0  0  0  0  0  0  0  0
   36.3530   34.8170   32.2770 C   0  0  0  0  0  0  0  0  0  0  0  0
   37.0570   35.9690   32.6280 C   0  0  0  0  0  0  0  0  0  0  0  0
   36.8530   36.5180   33.8600 O   0  0  0  0  0  0  0  0  0  0  0  0
   37.9550   36.5460   31.7280 C   0  0  0  0  0  0  0  0  0  0  0  0
   38.7230   37.7760   32.0400 C   0  0  0  0  0  0  0  0  0  0  0  0
   38.6860   38.3660   33.1100 O   0  0  0  0  0  0  0  0  0  0  0  0
   39.5860   38.3050   30.9710 C   0  0  0  0  0  0  0  0  0  0  0  0
   39.6950   37.6290   29.8220 C   0  0  0  0  0  0  0  0  0  0  0  0
   40.5720   38.1000   28.7300 C   0  0  0  0  0  0  0  0  0  0  0  0
   40.1840   39.2350   27.9940 C   0  0  0  0  0  0  0  0  0  0  0  0
   40.9800   39.7260   26.9550 C   0  0  0  0  0  0  0  0  0  0  0  0
   42.1780   39.0960   26.6360 C   0  0  0  0  0  0  0  0  0  0  0  0
   42.5850   37.9740   27.3580 C   0  0  0  0  0  0  0  0  0  0  0  0
   41.7920   37.4790   28.4010 C   0  0  0  0  0  0  0  0  0  0  0  0
   42.3830   36.0820   29.2380 Cl  0  0  0  0  0  0  0  0  0  0  0  0
   39.0350   36.4500   29.5530 O   0  0  0  0  0  0  0  0  0  0  0  0
   38.1360   35.9480   30.4730 C   0  0  0  0  0  0  0  0  0  0  0  0
   37.7410   32.7170   28.4540 C   0  0  2  0  0  0  0  0  0  0  0  0
   39.0340   32.2100   28.8310 O   0  0  0  0  0  0  0  0  0  0  0  0
   37.6510   32.4400   26.9450 C   0  0  0  0  0  0  0  0  0  0  0  0
   39.5976   31.6606   24.8911 H   0  0  0  0  0  0  0  0  0  0  0  0
   38.1330   32.5724   24.3911 H   0  0  0  0  0  0  0  0  0  0  0  0
   39.7374   33.3802   24.3911 H   0  0  0  0  0  0  0  0  0  0  0  0
   39.6590   32.6820   26.8940 H   0  0  0  0  0  0  0  0  0  0  0  0
   39.8646   34.9557   26.0793 H   0  0  0  0  0  0  0  0  0  0  0  0
   38.0628   35.0064   25.9758 H   0  0  0  0  0  0  0  0  0  0  0  0
   39.7727   34.6218   28.4779 H   0  0  0  0  0  0  0  0  0  0  0  0
   38.7085   36.0248   28.0574 H   0  0  0  0  0  0  0  0  0  0  0  0
   36.6920   34.5086   28.1879 H   0  0  0  0  0  0  0  0  0  0  0  0
   36.1090   32.3920   31.3250 H   0  0  0  0  0  0  0  0  0  0  0  0
   35.6546   34.3610   32.9941 H   0  0  0  0  0  0  0  0  0  0  0  0
   35.9810   36.2900   34.2200 H   0  0  0  0  0  0  0  0  0  0  0  0
   40.1357   39.2468   31.1157 H   0  0  0  0  0  0  0  0  0  0  0  0
   39.2401   39.7435   28.2400 H   0  0  0  0  0  0  0  0  0  0  0  0
   40.6581   40.6124   26.3887 H   0  0  0  0  0  0  0  0  0  0  0  0
   42.8028   39.4813   25.8168 H   0  0  0  0  0  0  0  0  0  0  0  0
   43.5330   37.4757   27.1071 H   0  0  0  0  0  0  0  0  0  0  0  0
   36.9435   32.2503   29.0508 H   0  0  0  0  0  0  0  0  0  0  0  0
   39.2130   31.4710   28.2070 H   0  0  0  0  0  0  0  0  0  0  0  0
   37.6408   31.3563   26.7567 H   0  0  0  0  0  0  0  0  0  0  0  0
   36.7282   32.8577   26.5162 H   0  0  0  0  0  0  0  0  0  0  0  0
  1  2  1  0
  2  3  1  0
  3  4  1  0
  4  5  1  0
  5  6  1  0
  6  7  2  0
  7  8  1  0
  7  9  1  0
  9 10  2  0
 10 11  1  0
 10 12  1  0
 12 13  1  0
 13 14  2  0
 13 15  1  0
 15 16  2  0
 16 17  1  0
 17 18  2  0
 18 19  1  0
 19 20  2  0
 20 21  1  0
 21 22  2  0
 22 23  1  0
 16 24  1  0
 24 25  1  0
  5 26  1  0
 26 27  1  0
 26 28  1  0
 28  2  1  0
 25  6  1  0
 25 12  2  0
 22 17  1  0
  1 29  1  0
  1 30  1  0
  1 31  1  0
  2 32  1  1
  3 33  1  0
  3 34  1  0
  4 35  1  0
  4 36  1  0
  5 37  1  6
  8 38  1  0
  9 39  1  0
 11 40  1  0
 15 41  1  0
 18 42  1  0
 19 43  1  0
 20 44  1  0
 21 45  1  0
 26 46  1  1
 27 47  1  0
 28 48  1  0
 28 49  1  0
M  CHG  1   2   1
M  END
>  <meeko>  (8) 
{"is_sidechain": [false], "free_energy": -8.22, "intermolecular_energy": -11.372, "internal_energy": 0.833}

$$$$
3ebp_ligand
     RDKit          3D

 49 52  0  0  0  0  0  0  0  0999 V2000
   45.2820   34.8940   33.8940 C   0  0  0  0  0  0  0  0  0  0  0  0
   45.0680   35.4240   32.5140 N   0  0  1  0  0  0  0  0  0  0  0  0
   44.6680   34.3610   31.5260 C   0  0  0  0  0  0  0  0  0  0  0  0
   44.6060   34.9330   30.1100 C   0  0  0  0  0  0  0  0  0  0  0  0
   43.7390   36.2060   30.0570 C   0  0  2  0  0  0  0  0  0  0  0  0
   43.4730   36.6510   28.6170 C   0  0  0  0  0  0  0  0  0  0  0  0
   44.4610   36.9290   27.6650 C   0  0  0  0  0  0  0  0  0  0  0  0
   45.7830   36.7730   27.9760 O   0  0  0  0  0  0  0  0  0  0  0  0
   44.1330   37.3620   26.3750 C   0  0  0  0  0  0  0  0  0  0  0  0
   42.7980   37.5280   26.0080 C   0  0  0  0  0  0  0  0  0  0  0  0
   42.5080   37.9630   24.7490 O   0  0  0  0  0  0  0  0  0  0  0  0
   41.7790   37.2510   26.9220 C   0  0  0  0  0  0  0  0  0  0  0  0
   40.3420   37.4190   26.5940 C   0  0  0  0  0  0  0  0  0  0  0  0
   39.9130   37.7600   25.5010 O   0  0  0  0  0  0  0  0  0  0  0  0
   39.3810   37.1490   27.6760 C   0  0  0  0  0  0  0  0  0  0  0  0
   39.8300   36.7010   28.8540 C   0  0  0  0  0  0  0  0  0  0  0  0
   38.9050   36.3840   29.9620 C   0  0  0  0  0  0  0  0  0  0  0  0
   38.0610   35.2650   29.8380 C   0  0  0  0  0  0  0  0  0  0  0  0
   37.1730   34.9160   30.8590 C   0  0  0  0  0  0  0  0  0  0  0  0
   37.1140   35.6760   32.0230 C   0  0  0  0  0  0  0  0  0  0  0  0
   37.9480   36.7840   32.1700 C   0  0  0  0  0  0  0  0  0  0  0  0
   38.8410   37.1370   31.1500 C   0  0  0  0  0  0  0  0  0  0  0  0
   39.8340   38.5290   31.4270 Cl  0  0  0  0  0  0  0  0  0  0  0  0
   41.1600   36.4800   29.1420 O   0  0  0  0  0  0  0  0  0  0  0  0
   42.1210   36.8040   28.2060 C   0  0  0  0  0  0  0  0  0  0  0  0
   44.2720   37.2390   31.0780 C   0  0  2  0  0  0  0  0  0  0  0  0
   45.6850   37.4580   30.9170 O   0  0  0  0  0  0  0  0  0  0  0  0
   44.1400   36.6310   32.4820 C   0  0  0  0  0  0  0  0  0  0  0  0
   44.9758   35.6524   34.6296 H   0  0  0  0  0  0  0  0  0  0  0  0
   44.6811   33.9834   34.0343 H   0  0  0  0  0  0  0  0  0  0  0  0
   46.3467   34.6559   34.0343 H   0  0  0  0  0  0  0  0  0  0  0  0
   45.9690   35.8180   32.1800 H   0  0  0  0  0  0  0  0  0  0  0  0
   45.4065   33.5462   31.5540 H   0  0  0  0  0  0  0  0  0  0  0  0
   43.6713   33.9834   31.7981 H   0  0  0  0  0  0  0  0  0  0  0  0
   45.6254   35.1798   29.7785 H   0  0  0  0  0  0  0  0  0  0  0  0
   44.1540   34.1777   29.4503 H   0  0  0  0  0  0  0  0  0  0  0  0
   42.7113   36.0204   30.4025 H   0  0  0  0  0  0  0  0  0  0  0  0
   46.2250   37.6440   27.9210 H   0  0  0  0  0  0  0  0  0  0  0  0
   44.9313   37.5721   25.6480 H   0  0  0  0  0  0  0  0  0  0  0  0
   42.0730   37.2770   24.2180 H   0  0  0  0  0  0  0  0  0  0  0  0
   38.3050   37.3139   27.5176 H   0  0  0  0  0  0  0  0  0  0  0  0
   38.1008   34.6555   28.9232 H   0  0  0  0  0  0  0  0  0  0  0  0
   36.5195   34.0389   30.7423 H   0  0  0  0  0  0  0  0  0  0  0  0
   36.4118   35.4037   32.8247 H   0  0  0  0  0  0  0  0  0  0  0  0
   37.9044   37.3836   33.0912 H   0  0  0  0  0  0  0  0  0  0  0  0
   43.7075   38.1718   30.9322 H   0  0  0  0  0  0  0  0  0  0  0  0
   45.9860   36.7530   30.3010 H   0  0  0  0  0  0  0  0  0  0  0  0
   44.4421   37.3641   33.2445 H   0  0  0  0  0  0  0  0  0  0  0  0
   43.1005   36.3419   32.6964 H   0  0  0  0  0  0  0  0  0  0  0  0
  1  2  1  0
  2  3  1  0
  3  4  1  0
  4  5  1  0
  5  6  1  0
  6  7  2  0
  7  8  1  0
  7  9  1  0
  9 10  2  0
 10 11  1  0
 10 12  1  0
 12 13  1  0
 13 14  2  0
 13 15  1  0
 15 16  2  0
 16 17  1  0
 17 18  2  0
 18 19  1  0
 19 20  2  0
 20 21  1  0
 21 22  2  0
 22 23  1  0
 16 24  1  0
 24 25  1  0
  5 26  1  0
 26 27  1  0
 26 28  1  0
 28  2  1  0
 25  6  1  0
 25 12  2  0
 22 17  1  0
  1 29  1  0
  1 30  1  0
  1 31  1  0
  2 32  1  6
  3 33  1  0
  3 34  1  0
  4 35  1  0
  4 36  1  0
  5 37  1  1
  8 38  1  0
  9 39  1  0
 11 40  1  0
 15 41  1  0
 18 42  1  0
 19 43  1  0
 20 44  1  0
 21 45  1  0
 26 46  1  1
 27 47  1  0
 28 48  1  0
 28 49  1  0
M  CHG  1   2   1
M  END
>  <meeko>  (9) 
{"is_sidechain": [false], "free_energy": -7.762, "intermolecular_energy": -8.992, "internal_energy": -0.996}

$$$$
