2yfe_ligand
     RDKit          3D

 48 49  0  0  0  0  0  0  0  0999 V2000
   13.4590   19.9470   47.6900 C   0  0  0  0  0  0  0  0  0  0  0  0
   14.7800   19.5660   47.3080 O   0  0  0  0  0  0  0  0  0  0  0  0
   15.6800   20.5370   47.6760 C   0  0  0  0  0  0  0  0  0  0  0  0
   15.2140   21.7840   48.0960 C   0  0  0  0  0  0  0  0  0  0  0  0
   16.1020   22.8090   48.4820 C   0  0  0  0  0  0  0  0  0  0  0  0
   15.4760   24.1250   48.9020 C   0  0  0  0  0  0  0  0  0  0  0  0
   15.0460   24.1160   50.3730 C   0  0  0  0  0  0  0  0  0  0  0  0
   14.7110   25.5030   50.8710 C   0  0  0  0  0  0  0  0  0  0  0  0
   14.5600   26.5750   49.9840 C   0  0  0  0  0  0  0  0  0  0  0  0
   14.2610   27.8510   50.4640 C   0  0  0  0  0  0  0  0  0  0  0  0
   14.1140   28.0650   51.8350 C   0  0  0  0  0  0  0  0  0  0  0  0
   14.2670   27.0050   52.7250 C   0  0  0  0  0  0  0  0  0  0  0  0
   14.5650   25.7290   52.2460 C   0  0  0  0  0  0  0  0  0  0  0  0
   17.4980   22.5630   48.4710 C   0  0  0  0  0  0  0  0  0  0  0  0
   18.5440   23.5980   48.8840 C   0  0  0  0  0  0  0  0  0  0  0  0
   18.7730   24.5970   48.1380 O   0  0  0  0  0  0  0  0  0  0  0  0
   19.1200   23.3810   50.0050 O   0  0  0  0  0  0  0  0  0  0  0  0
   17.9330   21.2750   48.0530 C   0  0  0  0  0  0  0  0  0  0  0  0
   19.2780   20.9710   47.9930 O   0  0  0  0  0  0  0  0  0  0  0  0
   17.0460   20.2490   47.6750 C   0  0  0  0  0  0  0  0  0  0  0  0
   17.5570   18.8920   47.2460 C   0  0  0  0  0  0  0  0  0  0  0  0
   17.8660   18.8300   45.7700 C   0  0  0  0  0  0  0  0  0  0  0  0
   17.1870   18.2030   44.7890 C   0  0  0  0  0  0  0  0  0  0  0  0
   15.9220   17.4140   44.9750 C   0  0  0  0  0  0  0  0  0  0  0  0
   17.6790   18.2620   43.3670 C   0  0  0  0  0  0  0  0  0  0  0  0
   13.3863   19.9680   48.7874 H   0  0  0  0  0  0  0  0  0  0  0  0
   13.2351   20.9463   47.2885 H   0  0  0  0  0  0  0  0  0  0  0  0
   12.7373   19.2204   47.2885 H   0  0  0  0  0  0  0  0  0  0  0  0
   14.1305   21.9711   48.1265 H   0  0  0  0  0  0  0  0  0  0  0  0
   16.2098   24.9306   48.7520 H   0  0  0  0  0  0  0  0  0  0  0  0
   14.5775   24.2838   48.2876 H   0  0  0  0  0  0  0  0  0  0  0  0
   14.1580   23.4757   50.4800 H   0  0  0  0  0  0  0  0  0  0  0  0
   15.8858   23.7327   50.9712 H   0  0  0  0  0  0  0  0  0  0  0  0
   14.6776   26.4110   48.9027 H   0  0  0  0  0  0  0  0  0  0  0  0
   14.1411   28.6885   49.7610 H   0  0  0  0  0  0  0  0  0  0  0  0
   13.8773   29.0707   52.2126 H   0  0  0  0  0  0  0  0  0  0  0  0
   14.1529   27.1738   53.8060 H   0  0  0  0  0  0  0  0  0  0  0  0
   14.6861   24.8947   52.9526 H   0  0  0  0  0  0  0  0  0  0  0  0
   19.3750   20.0800   48.4290 H   0  0  0  0  0  0  0  0  0  0  0  0
   18.4753   18.6671   47.8082 H   0  0  0  0  0  0  0  0  0  0  0  0
   16.7655   18.1566   47.4526 H   0  0  0  0  0  0  0  0  0  0  0  0
   18.7693   19.3707   45.4512 H   0  0  0  0  0  0  0  0  0  0  0  0
   15.7222   17.2894   46.0495 H   0  0  0  0  0  0  0  0  0  0  0  0
   15.0835   17.9495   44.5058 H   0  0  0  0  0  0  0  0  0  0  0  0
   16.0341   16.4254   44.5058 H   0  0  0  0  0  0  0  0  0  0  0  0
   18.7712   18.3930   43.3620 H   0  0  0  0  0  0  0  0  0  0  0  0
   17.4196   17.3263   42.8501 H   0  0  0  0  0  0  0  0  0  0  0  0
   17.2057   19.1098   42.8501 H   0  0  0  0  0  0  0  0  0  0  0  0
  1  2  1  0
  2  3  1  0
  3  4  2  0
  4  5  1  0
  5  6  1  0
  6  7  1  0
  7  8  1  0
  8  9  2  0
  9 10  1  0
 10 11  2  0
 11 12  1  0
 12 13  2  0
  5 14  2  0
 14 15  1  0
 15 16  2  0
 15 17  1  0
 14 18  1  0
 18 19  1  0
 18 20  2  0
 20 21  1  0
 21 22  1  0
 22 23  2  3
 23 24  1  0
 23 25  1  0
 20  3  1  0
 13  8  1  0
  1 26  1  0
  1 27  1  0
  1 28  1  0
  4 29  1  0
  6 30  1  0
  6 31  1  0
  7 32  1  0
  7 33  1  0
  9 34  1  0
 10 35  1  0
 11 36  1  0
 12 37  1  0
 13 38  1  0
 19 39  1  0
 21 40  1  0
 21 41  1  0
 22 42  1  0
 24 43  1  0
 24 44  1  0
 24 45  1  0
 25 46  1  0
 25 47  1  0
 25 48  1  0
M  CHG  1  17  -1
M  END
>  <meeko>  (1) 
{"is_sidechain": [false], "free_energy": -7.987, "intermolecular_energy": -11.488, "internal_energy": -1.249}

$$$$
2yfe_ligand
     RDKit          3D

 48 49  0  0  0  0  0  0  0  0999 V2000
   14.9730   22.1630   48.3050 C   0  0  0  0  0  0  0  0  0  0  0  0
   16.1970   22.7770   47.9020 O   0  0  0  0  0  0  0  0  0  0  0  0
   17.2220   21.8620   47.9370 C   0  0  0  0  0  0  0  0  0  0  0  0
   16.9380   20.5050   47.7900 C   0  0  0  0  0  0  0  0  0  0  0  0
   17.9580   19.5320   47.8200 C   0  0  0  0  0  0  0  0  0  0  0  0
   17.5230   18.0880   47.6680 C   0  0  0  0  0  0  0  0  0  0  0  0
   16.2290   17.9570   46.8570 C   0  0  0  0  0  0  0  0  0  0  0  0
   16.5040   17.7330   45.3880 C   0  0  0  0  0  0  0  0  0  0  0  0
   15.5180   17.2220   44.5360 C   0  0  0  0  0  0  0  0  0  0  0  0
   15.7950   17.0110   43.1830 C   0  0  0  0  0  0  0  0  0  0  0  0
   17.0610   17.3050   42.6750 C   0  0  0  0  0  0  0  0  0  0  0  0
   18.0500   17.8090   43.5180 C   0  0  0  0  0  0  0  0  0  0  0  0
   17.7730   18.0210   44.8690 C   0  0  0  0  0  0  0  0  0  0  0  0
   19.3070   19.9410   47.9750 C   0  0  0  0  0  0  0  0  0  0  0  0
   20.4880   18.9720   48.0040 C   0  0  0  0  0  0  0  0  0  0  0  0
   21.3710   19.0790   48.9080 O   0  0  0  0  0  0  0  0  0  0  0  0
   20.4900   18.0790   47.0890 O   0  0  0  0  0  0  0  0  0  0  0  0
   19.5580   21.3350   48.1040 C   0  0  0  0  0  0  0  0  0  0  0  0
   20.8430   21.8060   48.2810 O   0  0  0  0  0  0  0  0  0  0  0  0
   18.5390   22.3070   48.0660 C   0  0  0  0  0  0  0  0  0  0  0  0
   18.8560   23.7790   48.1990 C   0  0  0  0  0  0  0  0  0  0  0  0
   19.0150   24.2090   49.6370 C   0  0  0  0  0  0  0  0  0  0  0  0
   18.1780   24.9400   50.3990 C   0  0  0  0  0  0  0  0  0  0  0  0
   16.8510   25.4880   49.9530 C   0  0  0  0  0  0  0  0  0  0  0  0
   18.5360   25.2660   51.8250 C   0  0  0  0  0  0  0  0  0  0  0  0
   14.9203   22.1366   49.4034 H   0  0  0  0  0  0  0  0  0  0  0  0
   14.1250   22.7424   47.9111 H   0  0  0  0  0  0  0  0  0  0  0  0
   14.9304   21.1368   47.9111 H   0  0  0  0  0  0  0  0  0  0  0  0
   15.8949   20.1863   47.6474 H   0  0  0  0  0  0  0  0  0  0  0  0
   18.3204   17.5295   47.1559 H   0  0  0  0  0  0  0  0  0  0  0  0
   17.3345   17.6838   48.6735 H   0  0  0  0  0  0  0  0  0  0  0  0
   15.6513   17.1049   47.2445 H   0  0  0  0  0  0  0  0  0  0  0  0
   15.6666   18.8969   46.9588 H   0  0  0  0  0  0  0  0  0  0  0  0
   14.5201   16.9854   44.9337 H   0  0  0  0  0  0  0  0  0  0  0  0
   15.0147   16.6129   42.5178 H   0  0  0  0  0  0  0  0  0  0  0  0
   17.2784   17.1390   41.6095 H   0  0  0  0  0  0  0  0  0  0  0  0
   19.0486   18.0395   43.1183 H   0  0  0  0  0  0  0  0  0  0  0  0
   18.5568   18.4172   45.5314 H   0  0  0  0  0  0  0  0  0  0  0  0
   20.7580   22.7930   48.3990 H   0  0  0  0  0  0  0  0  0  0  0  0
   19.7935   23.9877   47.6628 H   0  0  0  0  0  0  0  0  0  0  0  0
   18.0123   24.3421   47.7734 H   0  0  0  0  0  0  0  0  0  0  0  0
   19.9414   23.8805   50.1308 H   0  0  0  0  0  0  0  0  0  0  0  0
   16.2430   25.7391   50.8346 H   0  0  0  0  0  0  0  0  0  0  0  0
   17.0124   26.3931   49.3490 H   0  0  0  0  0  0  0  0  0  0  0  0
   16.3267   24.7328   49.3490 H   0  0  0  0  0  0  0  0  0  0  0  0
   17.8971   24.6842   52.5056 H   0  0  0  0  0  0  0  0  0  0  0  0
   19.5909   25.0119   52.0055 H   0  0  0  0  0  0  0  0  0  0  0  0
   18.3815   26.3400   52.0055 H   0  0  0  0  0  0  0  0  0  0  0  0
  1  2  1  0
  2  3  1  0
  3  4  2  0
  4  5  1  0
  5  6  1  0
  6  7  1  0
  7  8  1  0
  8  9  2  0
  9 10  1  0
 10 11  2  0
 11 12  1  0
 12 13  2  0
  5 14  2  0
 14 15  1  0
 15 16  2  0
 15 17  1  0
 14 18  1  0
 18 19  1  0
 18 20  2  0
 20 21  1  0
 21 22  1  0
 22 23  2  3
 23 24  1  0
 23 25  1  0
 20  3  1  0
 13  8  1  0
  1 26  1  0
  1 27  1  0
  1 28  1  0
  4 29  1  0
  6 30  1  0
  6 31  1  0
  7 32  1  0
  7 33  1  0
  9 34  1  0
 10 35  1  0
 11 36  1  0
 12 37  1  0
 13 38  1  0
 19 39  1  0
 21 40  1  0
 21 41  1  0
 22 42  1  0
 24 43  1  0
 24 44  1  0
 24 45  1  0
 25 46  1  0
 25 47  1  0
 25 48  1  0
M  CHG  1  17  -1
M  END
>  <meeko>  (2) 
{"is_sidechain": [false], "free_energy": -7.946, "intermolecular_energy": -11.557, "internal_energy": -1.121}

$$$$
2yfe_ligand
     RDKit          3D

 48 49  0  0  0  0  0  0  0  0999 V2000
   20.8660   22.6860   47.6840 C   0  0  0  0  0  0  0  0  0  0  0  0
   19.8990   22.7900   48.7290 O   0  0  0  0  0  0  0  0  0  0  0  0
   18.7730   22.0710   48.4100 C   0  0  0  0  0  0  0  0  0  0  0  0
   18.8760   20.6990   48.1780 C   0  0  0  0  0  0  0  0  0  0  0  0
   17.7470   19.9210   47.8470 C   0  0  0  0  0  0  0  0  0  0  0  0
   17.9890   18.4450   47.6010 C   0  0  0  0  0  0  0  0  0  0  0  0
   19.4340   18.1600   47.1780 C   0  0  0  0  0  0  0  0  0  0  0  0
   19.5030   17.4840   45.8270 C   0  0  0  0  0  0  0  0  0  0  0  0
   20.5940   16.6830   45.4730 C   0  0  0  0  0  0  0  0  0  0  0  0
   20.6450   16.0760   44.2160 C   0  0  0  0  0  0  0  0  0  0  0  0
   19.6080   16.2700   43.3040 C   0  0  0  0  0  0  0  0  0  0  0  0
   18.5200   17.0710   43.6470 C   0  0  0  0  0  0  0  0  0  0  0  0
   18.4680   17.6770   44.9030 C   0  0  0  0  0  0  0  0  0  0  0  0
   16.4730   20.5390   47.7740 C   0  0  0  0  0  0  0  0  0  0  0  0
   15.1850   19.7870   47.4400 C   0  0  0  0  0  0  0  0  0  0  0  0
   15.1830   18.9160   46.5190 O   0  0  0  0  0  0  0  0  0  0  0  0
   14.1690   20.0910   48.1550 O   0  0  0  0  0  0  0  0  0  0  0  0
   16.4060   21.9360   48.0340 C   0  0  0  0  0  0  0  0  0  0  0  0
   15.2040   22.6100   47.9580 O   0  0  0  0  0  0  0  0  0  0  0  0
   17.5330   22.7100   48.3730 C   0  0  0  0  0  0  0  0  0  0  0  0
   17.4100   24.1920   48.6480 C   0  0  0  0  0  0  0  0  0  0  0  0
   17.0280   24.4850   50.0780 C   0  0  0  0  0  0  0  0  0  0  0  0
   16.0020   25.2240   50.5460 C   0  0  0  0  0  0  0  0  0  0  0  0
   14.9790   25.9250   49.6970 C   0  0  0  0  0  0  0  0  0  0  0  0
   15.8030   25.3960   52.0280 C   0  0  0  0  0  0  0  0  0  0  0  0
   21.8692   22.5781   48.1221 H   0  0  0  0  0  0  0  0  0  0  0  0
   20.6409   21.8069   47.0623 H   0  0  0  0  0  0  0  0  0  0  0  0
   20.8330   23.5929   47.0623 H   0  0  0  0  0  0  0  0  0  0  0  0
   19.8599   20.2131   48.2550 H   0  0  0  0  0  0  0  0  0  0  0  0
   17.7748   17.8914   48.5271 H   0  0  0  0  0  0  0  0  0  0  0  0
   17.3273   18.1252   46.7825 H   0  0  0  0  0  0  0  0  0  0  0  0
   19.9842   19.1112   47.1283 H   0  0  0  0  0  0  0  0  0  0  0  0
   19.8796   17.4826   47.9214 H   0  0  0  0  0  0  0  0  0  0  0  0
   21.4158   16.5304   46.1881 H   0  0  0  0  0  0  0  0  0  0  0  0
   21.5039   15.4444   43.9452 H   0  0  0  0  0  0  0  0  0  0  0  0
   19.6486   15.7912   42.3145 H   0  0  0  0  0  0  0  0  0  0  0  0
   17.7023   17.2254   42.9276 H   0  0  0  0  0  0  0  0  0  0  0  0
   17.6088   18.3102   45.1691 H   0  0  0  0  0  0  0  0  0  0  0  0
   14.4980   21.9240   48.1190 H   0  0  0  0  0  0  0  0  0  0  0  0
   18.3770   24.6715   48.4359 H   0  0  0  0  0  0  0  0  0  0  0  0
   16.6123   24.5866   48.0016 H   0  0  0  0  0  0  0  0  0  0  0  0
   17.6757   24.0336   50.8440 H   0  0  0  0  0  0  0  0  0  0  0  0
   14.2461   26.4272   50.3456 H   0  0  0  0  0  0  0  0  0  0  0  0
   15.4787   26.6713   49.0620 H   0  0  0  0  0  0  0  0  0  0  0  0
   14.4634   25.1896   49.0620 H   0  0  0  0  0  0  0  0  0  0  0  0
   16.5271   24.7702   52.5703 H   0  0  0  0  0  0  0  0  0  0  0  0
   15.9556   26.4513   52.2984 H   0  0  0  0  0  0  0  0  0  0  0  0
   14.7809   25.0923   52.2984 H   0  0  0  0  0  0  0  0  0  0  0  0
  1  2  1  0
  2  3  1  0
  3  4  2  0
  4  5  1  0
  5  6  1  0
  6  7  1  0
  7  8  1  0
  8  9  2  0
  9 10  1  0
 10 11  2  0
 11 12  1  0
 12 13  2  0
  5 14  2  0
 14 15  1  0
 15 16  2  0
 15 17  1  0
 14 18  1  0
 18 19  1  0
 18 20  2  0
 20 21  1  0
 21 22  1  0
 22 23  2  3
 23 24  1  0
 23 25  1  0
 20  3  1  0
 13  8  1  0
  1 26  1  0
  1 27  1  0
  1 28  1  0
  4 29  1  0
  6 30  1  0
  6 31  1  0
  7 32  1  0
  7 33  1  0
  9 34  1  0
 10 35  1  0
 11 36  1  0
 12 37  1  0
 13 38  1  0
 19 39  1  0
 21 40  1  0
 21 41  1  0
 22 42  1  0
 24 43  1  0
 24 44  1  0
 24 45  1  0
 25 46  1  0
 25 47  1  0
 25 48  1  0
M  CHG  1  17  -1
M  END
>  <meeko>  (3) 
{"is_sidechain": [false], "free_energy": -7.87, "intermolecular_energy": -11.42, "internal_energy": -1.15}

$$$$
2yfe_ligand
     RDKit          3D

 48 49  0  0  0  0  0  0  0  0999 V2000
   13.8410   20.5200   48.0420 C   0  0  0  0  0  0  0  0  0  0  0  0
   14.2050   21.7640   48.6400 O   0  0  0  0  0  0  0  0  0  0  0  0
   15.5450   22.0040   48.4600 C   0  0  0  0  0  0  0  0  0  0  0  0
   16.3780   20.9700   48.0320 C   0  0  0  0  0  0  0  0  0  0  0  0
   17.7600   21.1720   47.8340 C   0  0  0  0  0  0  0  0  0  0  0  0
   18.5640   19.9680   47.3850 C   0  0  0  0  0  0  0  0  0  0  0  0
   17.7580   18.6670   47.4830 C   0  0  0  0  0  0  0  0  0  0  0  0
   17.3700   18.1410   46.1210 C   0  0  0  0  0  0  0  0  0  0  0  0
   18.3150   18.0090   45.0980 C   0  0  0  0  0  0  0  0  0  0  0  0
   17.9340   17.5310   43.8420 C   0  0  0  0  0  0  0  0  0  0  0  0
   16.6040   17.1850   43.6010 C   0  0  0  0  0  0  0  0  0  0  0  0
   15.6550   17.3170   44.6130 C   0  0  0  0  0  0  0  0  0  0  0  0
   16.0360   17.7940   45.8670 C   0  0  0  0  0  0  0  0  0  0  0  0
   18.3140   22.4600   48.0470 C   0  0  0  0  0  0  0  0  0  0  0  0
   19.7920   22.7900   47.8460 C   0  0  0  0  0  0  0  0  0  0  0  0
   20.6800   22.0620   48.3840 O   0  0  0  0  0  0  0  0  0  0  0  0
   20.0350   23.8050   47.1070 O   0  0  0  0  0  0  0  0  0  0  0  0
   17.4290   23.4920   48.4660 C   0  0  0  0  0  0  0  0  0  0  0  0
   17.9010   24.7650   48.7160 O   0  0  0  0  0  0  0  0  0  0  0  0
   16.0480   23.2920   48.6550 C   0  0  0  0  0  0  0  0  0  0  0  0
   15.1460   24.4240   49.0940 C   0  0  0  0  0  0  0  0  0  0  0  0
   15.1740   24.6410   50.5870 C   0  0  0  0  0  0  0  0  0  0  0  0
   14.7330   25.6980   51.2970 C   0  0  0  0  0  0  0  0  0  0  0  0
   14.0850   26.9240   50.7180 C   0  0  0  0  0  0  0  0  0  0  0  0
   14.8650   25.7150   52.7970 C   0  0  0  0  0  0  0  0  0  0  0  0
   13.6255   19.7835   48.8301 H   0  0  0  0  0  0  0  0  0  0  0  0
   12.9465   20.6612   47.4175 H   0  0  0  0  0  0  0  0  0  0  0  0
   14.6705   20.1567   47.4175 H   0  0  0  0  0  0  0  0  0  0  0  0
   15.9476   19.9752   47.8448 H   0  0  0  0  0  0  0  0  0  0  0  0
   18.8716   20.1168   46.3394 H   0  0  0  0  0  0  0  0  0  0  0  0
   19.4365   19.8767   48.0486 H   0  0  0  0  0  0  0  0  0  0  0  0
   18.3674   17.9089   47.9967 H   0  0  0  0  0  0  0  0  0  0  0  0
   16.8349   18.8791   48.0423 H   0  0  0  0  0  0  0  0  0  0  0  0
   19.3640   18.2832   45.2837 H   0  0  0  0  0  0  0  0  0  0  0  0
   18.6827   17.4273   43.0428 H   0  0  0  0  0  0  0  0  0  0  0  0
   16.3044   16.8079   42.6120 H   0  0  0  0  0  0  0  0  0  0  0  0
   14.6062   17.0452   44.4229 H   0  0  0  0  0  0  0  0  0  0  0  0
   15.2838   17.8987   46.6628 H   0  0  0  0  0  0  0  0  0  0  0  0
   18.0560   24.8090   49.7000 H   0  0  0  0  0  0  0  0  0  0  0  0
   15.4739   25.3490   48.5971 H   0  0  0  0  0  0  0  0  0  0  0  0
   14.1160   24.1574   48.8148 H   0  0  0  0  0  0  0  0  0  0  0  0
   15.6151   23.8240   51.1769 H   0  0  0  0  0  0  0  0  0  0  0  0
   13.7402   27.5764   51.5337 H   0  0  0  0  0  0  0  0  0  0  0  0
   14.8143   27.4662   50.0982 H   0  0  0  0  0  0  0  0  0  0  0  0
   13.2262   26.6268   50.0982 H   0  0  0  0  0  0  0  0  0  0  0  0
   13.8726   25.5872   53.2539 H   0  0  0  0  0  0  0  0  0  0  0  0
   15.5241   24.8943   53.1164 H   0  0  0  0  0  0  0  0  0  0  0  0
   15.2947   26.6759   53.1164 H   0  0  0  0  0  0  0  0  0  0  0  0
  1  2  1  0
  2  3  1  0
  3  4  2  0
  4  5  1  0
  5  6  1  0
  6  7  1  0
  7  8  1  0
  8  9  2  0
  9 10  1  0
 10 11  2  0
 11 12  1  0
 12 13  2  0
  5 14  2  0
 14 15  1  0
 15 16  2  0
 15 17  1  0
 14 18  1  0
 18 19  1  0
 18 20  2  0
 20 21  1  0
 21 22  1  0
 22 23  2  3
 23 24  1  0
 23 25  1  0
 20  3  1  0
 13  8  1  0
  1 26  1  0
  1 27  1  0
  1 28  1  0
  4 29  1  0
  6 30  1  0
  6 31  1  0
  7 32  1  0
  7 33  1  0
  9 34  1  0
 10 35  1  0
 11 36  1  0
 12 37  1  0
 13 38  1  0
 19 39  1  0
 21 40  1  0
 21 41  1  0
 22 42  1  0
 24 43  1  0
 24 44  1  0
 24 45  1  0
 25 46  1  0
 25 47  1  0
 25 48  1  0
M  CHG  1  17  -1
M  END
>  <meeko>  (4) 
{"is_sidechain": [false], "free_energy": -7.773, "intermolecular_energy": -11.294, "internal_energy": -1.136}

$$$$
2yfe_ligand
     RDKit          3D

 48 49  0  0  0  0  0  0  0  0999 V2000
   14.2880   21.4100   48.3420 C   0  0  0  0  0  0  0  0  0  0  0  0
   15.2360   22.3210   47.7860 O   0  0  0  0  0  0  0  0  0  0  0  0
   16.5060   21.8070   47.8890 C   0  0  0  0  0  0  0  0  0  0  0  0
   16.7440   20.4830   47.5220 C   0  0  0  0  0  0  0  0  0  0  0  0
   18.0310   19.9140   47.6110 C   0  0  0  0  0  0  0  0  0  0  0  0
   18.1600   18.4600   47.2000 C   0  0  0  0  0  0  0  0  0  0  0  0
   17.4580   18.1720   45.8690 C   0  0  0  0  0  0  0  0  0  0  0  0
   18.4400   17.7960   44.7830 C   0  0  0  0  0  0  0  0  0  0  0  0
   18.2090   18.1410   43.4470 C   0  0  0  0  0  0  0  0  0  0  0  0
   19.1230   17.7740   42.4560 C   0  0  0  0  0  0  0  0  0  0  0  0
   20.2710   17.0590   42.7950 C   0  0  0  0  0  0  0  0  0  0  0  0
   20.5060   16.7070   44.1230 C   0  0  0  0  0  0  0  0  0  0  0  0
   19.5940   17.0740   45.1130 C   0  0  0  0  0  0  0  0  0  0  0  0
   19.1160   20.7110   48.0560 C   0  0  0  0  0  0  0  0  0  0  0  0
   20.5510   20.2000   48.1740 C   0  0  0  0  0  0  0  0  0  0  0  0
   21.5210   21.0080   48.0630 O   0  0  0  0  0  0  0  0  0  0  0  0
   20.6720   18.9470   48.4020 O   0  0  0  0  0  0  0  0  0  0  0  0
   18.8370   22.0620   48.4040 C   0  0  0  0  0  0  0  0  0  0  0  0
   19.8380   22.8910   48.8690 O   0  0  0  0  0  0  0  0  0  0  0  0
   17.5520   22.6310   48.3070 C   0  0  0  0  0  0  0  0  0  0  0  0
   17.3060   24.0760   48.6820 C   0  0  0  0  0  0  0  0  0  0  0  0
   16.7480   24.2260   50.0760 C   0  0  0  0  0  0  0  0  0  0  0  0
   15.8510   25.1200   50.5370 C   0  0  0  0  0  0  0  0  0  0  0  0
   15.1880   26.1880   49.7140 C   0  0  0  0  0  0  0  0  0  0  0  0
   15.4310   25.0990   51.9820 C   0  0  0  0  0  0  0  0  0  0  0  0
   14.3358   21.4559   49.4400 H   0  0  0  0  0  0  0  0  0  0  0  0
   13.2765   21.6837   48.0072 H   0  0  0  0  0  0  0  0  0  0  0  0
   14.5212   20.3885   48.0072 H   0  0  0  0  0  0  0  0  0  0  0  0
   15.9088   19.8685   47.1547 H   0  0  0  0  0  0  0  0  0  0  0  0
   19.2272   18.2136   47.0985 H   0  0  0  0  0  0  0  0  0  0  0  0
   17.6800   17.8452   47.9757 H   0  0  0  0  0  0  0  0  0  0  0  0
   16.7512   17.3414   46.0123 H   0  0  0  0  0  0  0  0  0  0  0  0
   16.9359   19.0876   45.5541 H   0  0  0  0  0  0  0  0  0  0  0  0
   17.3037   18.7038   43.1755 H   0  0  0  0  0  0  0  0  0  0  0  0
   18.9367   18.0494   41.4074 H   0  0  0  0  0  0  0  0  0  0  0  0
   20.9912   16.7727   42.0144 H   0  0  0  0  0  0  0  0  0  0  0  0
   21.4100   16.1402   44.3904 H   0  0  0  0  0  0  0  0  0  0  0  0
   19.7825   16.7944   46.1600 H   0  0  0  0  0  0  0  0  0  0  0  0
   19.3780   23.6150   49.3760 H   0  0  0  0  0  0  0  0  0  0  0  0
   18.2588   24.6225   48.6230 H   0  0  0  0  0  0  0  0  0  0  0  0
   16.5624   24.4809   47.9798 H   0  0  0  0  0  0  0  0  0  0  0  0
   17.1252   23.5068   50.8179 H   0  0  0  0  0  0  0  0  0  0  0  0
   14.7266   26.9313   50.3808 H   0  0  0  0  0  0  0  0  0  0  0  0
   15.9391   26.6810   49.0793 H   0  0  0  0  0  0  0  0  0  0  0  0
   14.4129   25.7336   49.0793 H   0  0  0  0  0  0  0  0  0  0  0  0
   16.3232   25.1436   52.6238 H   0  0  0  0  0  0  0  0  0  0  0  0
   14.7865   25.9660   52.1892 H   0  0  0  0  0  0  0  0  0  0  0  0
   14.8763   24.1720   52.1892 H   0  0  0  0  0  0  0  0  0  0  0  0
  1  2  1  0
  2  3  1  0
  3  4  2  0
  4  5  1  0
  5  6  1  0
  6  7  1  0
  7  8  1  0
  8  9  2  0
  9 10  1  0
 10 11  2  0
 11 12  1  0
 12 13  2  0
  5 14  2  0
 14 15  1  0
 15 16  2  0
 15 17  1  0
 14 18  1  0
 18 19  1  0
 18 20  2  0
 20 21  1  0
 21 22  1  0
 22 23  2  3
 23 24  1  0
 23 25  1  0
 20  3  1  0
 13  8  1  0
  1 26  1  0
  1 27  1  0
  1 28  1  0
  4 29  1  0
  6 30  1  0
  6 31  1  0
  7 32  1  0
  7 33  1  0
  9 34  1  0
 10 35  1  0
 11 36  1  0
 12 37  1  0
 13 38  1  0
 19 39  1  0
 21 40  1  0
 21 41  1  0
 22 42  1  0
 24 43  1  0
 24 44  1  0
 24 45  1  0
 25 46  1  0
 25 47  1  0
 25 48  1  0
M  CHG  1  17  -1
M  END
>  <meeko>  (5) 
{"is_sidechain": [false], "free_energy": -7.758, "intermolecular_energy": -11.683, "internal_energy": -0.725}

$$$$
2yfe_ligand
     RDKit          3D

 48 49  0  0  0  0  0  0  0  0999 V2000
   21.3220   22.8370   47.7600 C   0  0  0  0  0  0  0  0  0  0  0  0
   20.3240   21.8670   48.0810 O   0  0  0  0  0  0  0  0  0  0  0  0
   19.1370   22.4880   48.3820 C   0  0  0  0  0  0  0  0  0  0  0  0
   19.1430   23.6400   49.1690 C   0  0  0  0  0  0  0  0  0  0  0  0
   17.9480   24.3100   49.5040 C   0  0  0  0  0  0  0  0  0  0  0  0
   18.0820   25.5400   50.3790 C   0  0  0  0  0  0  0  0  0  0  0  0
   18.3890   25.1800   51.8370 C   0  0  0  0  0  0  0  0  0  0  0  0
   17.3720   25.7650   52.7890 C   0  0  0  0  0  0  0  0  0  0  0  0
   17.7600   26.3230   54.0120 C   0  0  0  0  0  0  0  0  0  0  0  0
   16.8030   26.8490   54.8830 C   0  0  0  0  0  0  0  0  0  0  0  0
   15.4520   26.8160   54.5390 C   0  0  0  0  0  0  0  0  0  0  0  0
   15.0560   26.2570   53.3260 C   0  0  0  0  0  0  0  0  0  0  0  0
   16.0110   25.7330   52.4540 C   0  0  0  0  0  0  0  0  0  0  0  0
   16.7130   23.8210   49.0080 C   0  0  0  0  0  0  0  0  0  0  0  0
   15.3640   24.4790   49.2960 C   0  0  0  0  0  0  0  0  0  0  0  0
   15.1460   25.6660   48.9100 O   0  0  0  0  0  0  0  0  0  0  0  0
   14.5160   23.7490   49.9140 O   0  0  0  0  0  0  0  0  0  0  0  0
   16.7490   22.6540   48.1950 C   0  0  0  0  0  0  0  0  0  0  0  0
   15.5840   22.1070   47.6970 O   0  0  0  0  0  0  0  0  0  0  0  0
   17.9440   21.9910   47.8550 C   0  0  0  0  0  0  0  0  0  0  0  0
   17.9320   20.7580   46.9790 C   0  0  0  0  0  0  0  0  0  0  0  0
   17.1800   19.6100   47.6060 C   0  0  0  0  0  0  0  0  0  0  0  0
   16.6720   18.5080   47.0190 C   0  0  0  0  0  0  0  0  0  0  0  0
   16.7680   18.1830   45.5540 C   0  0  0  0  0  0  0  0  0  0  0  0
   15.9420   17.4770   47.8380 C   0  0  0  0  0  0  0  0  0  0  0  0
   21.7454   23.2485   48.6881 H   0  0  0  0  0  0  0  0  0  0  0  0
   22.1206   22.3607   47.1723 H   0  0  0  0  0  0  0  0  0  0  0  0
   20.8687   23.6488   47.1723 H   0  0  0  0  0  0  0  0  0  0  0  0
   20.1017   24.0347   49.5366 H   0  0  0  0  0  0  0  0  0  0  0  0
   18.8983   26.1656   49.9887 H   0  0  0  0  0  0  0  0  0  0  0  0
   17.1222   26.0770   50.3576 H   0  0  0  0  0  0  0  0  0  0  0  0
   18.3847   24.0850   51.9412 H   0  0  0  0  0  0  0  0  0  0  0  0
   19.3737   25.5992   52.0911 H   0  0  0  0  0  0  0  0  0  0  0  0
   18.8243   26.3476   54.2891 H   0  0  0  0  0  0  0  0  0  0  0  0
   17.1154   27.2897   55.8412 H   0  0  0  0  0  0  0  0  0  0  0  0
   14.6992   27.2312   55.2252 H   0  0  0  0  0  0  0  0  0  0  0  0
   13.9901   26.2287   53.0555 H   0  0  0  0  0  0  0  0  0  0  0  0
   15.6939   25.2919   51.4975 H   0  0  0  0  0  0  0  0  0  0  0  0
   14.9950   21.9550   48.4870 H   0  0  0  0  0  0  0  0  0  0  0  0
   17.4545   21.0109   46.0208 H   0  0  0  0  0  0  0  0  0  0  0  0
   18.9750   20.4374   46.8395 H   0  0  0  0  0  0  0  0  0  0  0  0
   17.0248   19.6823   48.6926 H   0  0  0  0  0  0  0  0  0  0  0  0
   17.0776   17.1347   45.4305 H   0  0  0  0  0  0  0  0  0  0  0  0
   15.7869   18.3338   45.0799 H   0  0  0  0  0  0  0  0  0  0  0  0
   17.5096   18.8427   45.0799 H   0  0  0  0  0  0  0  0  0  0  0  0
   16.0902   17.6863   48.9077 H   0  0  0  0  0  0  0  0  0  0  0  0
   14.8682   17.5147   47.6024 H   0  0  0  0  0  0  0  0  0  0  0  0
   16.3342   16.4767   47.6024 H   0  0  0  0  0  0  0  0  0  0  0  0
  1  2  1  0
  2  3  1  0
  3  4  2  0
  4  5  1  0
  5  6  1  0
  6  7  1  0
  7  8  1  0
  8  9  2  0
  9 10  1  0
 10 11  2  0
 11 12  1  0
 12 13  2  0
  5 14  2  0
 14 15  1  0
 15 16  2  0
 15 17  1  0
 14 18  1  0
 18 19  1  0
 18 20  2  0
 20 21  1  0
 21 22  1  0
 22 23  2  3
 23 24  1  0
 23 25  1  0
 20  3  1  0
 13  8  1  0
  1 26  1  0
  1 27  1  0
  1 28  1  0
  4 29  1  0
  6 30  1  0
  6 31  1  0
  7 32  1  0
  7 33  1  0
  9 34  1  0
 10 35  1  0
 11 36  1  0
 12 37  1  0
 13 38  1  0
 19 39  1  0
 21 40  1  0
 21 41  1  0
 22 42  1  0
 24 43  1  0
 24 44  1  0
 24 45  1  0
 25 46  1  0
 25 47  1  0
 25 48  1  0
M  CHG  1  17  -1
M  END
>  <meeko>  (6) 
{"is_sidechain": [false], "free_energy": -7.494, "intermolecular_energy": -11.054, "internal_energy": -0.975}

$$$$
2yfe_ligand
     RDKit          3D

 48 49  0  0  0  0  0  0  0  0999 V2000
   19.6850   22.3710   48.0050 C   0  0  0  0  0  0  0  0  0  0  0  0
   19.4280   21.0100   47.6590 O   0  0  0  0  0  0  0  0  0  0  0  0
   18.0970   20.7180   47.8300 C   0  0  0  0  0  0  0  0  0  0  0  0
   17.2250   21.7140   48.2700 C   0  0  0  0  0  0  0  0  0  0  0  0
   15.8510   21.4590   48.4590 C   0  0  0  0  0  0  0  0  0  0  0  0
   15.0090   22.6170   48.9580 C   0  0  0  0  0  0  0  0  0  0  0  0
   15.7590   23.9510   48.8810 C   0  0  0  0  0  0  0  0  0  0  0  0
   15.6720   24.7220   50.1780 C   0  0  0  0  0  0  0  0  0  0  0  0
   16.8140   24.9810   50.9450 C   0  0  0  0  0  0  0  0  0  0  0  0
   16.7110   25.6860   52.1470 C   0  0  0  0  0  0  0  0  0  0  0  0
   15.4670   26.1320   52.5910 C   0  0  0  0  0  0  0  0  0  0  0  0
   14.3240   25.8740   51.8360 C   0  0  0  0  0  0  0  0  0  0  0  0
   14.4260   25.1720   50.6350 C   0  0  0  0  0  0  0  0  0  0  0  0
   15.3350   20.1700   48.1700 C   0  0  0  0  0  0  0  0  0  0  0  0
   13.8630   19.7940   48.3240 C   0  0  0  0  0  0  0  0  0  0  0  0
   13.1310   19.6720   47.2960 O   0  0  0  0  0  0  0  0  0  0  0  0
   13.4660   19.6030   49.5250 O   0  0  0  0  0  0  0  0  0  0  0  0
   16.2520   19.1870   47.7060 C   0  0  0  0  0  0  0  0  0  0  0  0
   15.8270   17.9040   47.4270 O   0  0  0  0  0  0  0  0  0  0  0  0
   17.6230   19.4450   47.5100 C   0  0  0  0  0  0  0  0  0  0  0  0
   18.5570   18.3670   47.0070 C   0  0  0  0  0  0  0  0  0  0  0  0
   18.3730   18.0800   45.5370 C   0  0  0  0  0  0  0  0  0  0  0  0
   19.1630   17.3710   44.7070 C   0  0  0  0  0  0  0  0  0  0  0  0
   20.4400   16.6830   45.1010 C   0  0  0  0  0  0  0  0  0  0  0  0
   18.7940   17.2120   43.2560 C   0  0  0  0  0  0  0  0  0  0  0  0
   19.7044   22.4736   49.1000 H   0  0  0  0  0  0  0  0  0  0  0  0
   20.6569   22.6774   47.5908 H   0  0  0  0  0  0  0  0  0  0  0  0
   18.8918   23.0107   47.5908 H   0  0  0  0  0  0  0  0  0  0  0  0
   17.6180   22.7209   48.4741 H   0  0  0  0  0  0  0  0  0  0  0  0
   14.0998   22.6854   48.3426 H   0  0  0  0  0  0  0  0  0  0  0  0
   14.7637   22.4270   50.0133 H   0  0  0  0  0  0  0  0  0  0  0  0
   16.8171   23.7516   48.6561 H   0  0  0  0  0  0  0  0  0  0  0  0
   15.2934   24.5588   48.0912 H   0  0  0  0  0  0  0  0  0  0  0  0
   17.7970   24.6279   50.5999 H   0  0  0  0  0  0  0  0  0  0  0  0
   17.6125   25.8893   52.7436 H   0  0  0  0  0  0  0  0  0  0  0  0
   15.3874   26.6875   53.5371 H   0  0  0  0  0  0  0  0  0  0  0  0
   13.3420   26.2239   52.1872 H   0  0  0  0  0  0  0  0  0  0  0  0
   13.5217   24.9701   50.0422 H   0  0  0  0  0  0  0  0  0  0  0  0
   15.4540   17.5490   48.2810 H   0  0  0  0  0  0  0  0  0  0  0  0
   19.5941   18.6926   47.1754 H   0  0  0  0  0  0  0  0  0  0  0  0
   18.3275   17.4432   47.5583 H   0  0  0  0  0  0  0  0  0  0  0  0
   17.4691   18.5088   45.0798 H   0  0  0  0  0  0  0  0  0  0  0  0
   20.5122   16.6441   46.1979 H   0  0  0  0  0  0  0  0  0  0  0  0
   20.4452   15.6600   44.6967 H   0  0  0  0  0  0  0  0  0  0  0  0
   21.2972   17.2414   44.6967 H   0  0  0  0  0  0  0  0  0  0  0  0
   17.7862   16.7778   43.1794 H   0  0  0  0  0  0  0  0  0  0  0  0
   18.8077   18.1959   42.7642 H   0  0  0  0  0  0  0  0  0  0  0  0
   19.5185   16.5462   42.7642 H   0  0  0  0  0  0  0  0  0  0  0  0
  1  2  1  0
  2  3  1  0
  3  4  2  0
  4  5  1  0
  5  6  1  0
  6  7  1  0
  7  8  1  0
  8  9  2  0
  9 10  1  0
 10 11  2  0
 11 12  1  0
 12 13  2  0
  5 14  2  0
 14 15  1  0
 15 16  2  0
 15 17  1  0
 14 18  1  0
 18 19  1  0
 18 20  2  0
 20 21  1  0
 21 22  1  0
 22 23  2  3
 23 24  1  0
 23 25  1  0
 20  3  1  0
 13  8  1  0
  1 26  1  0
  1 27  1  0
  1 28  1  0
  4 29  1  0
  6 30  1  0
  6 31  1  0
  7 32  1  0
  7 33  1  0
  9 34  1  0
 10 35  1  0
 11 36  1  0
 12 37  1  0
 13 38  1  0
 19 39  1  0
 21 40  1  0
 21 41  1  0
 22 42  1  0
 24 43  1  0
 24 44  1  0
 24 45  1  0
 25 46  1  0
 25 47  1  0
 25 48  1  0
M  CHG  1  17  -1
M  END
>  <meeko>  (7) 
{"is_sidechain": [false], "free_energy": -7.398, "intermolecular_energy": -10.788, "internal_energy": -1.103}

$$$$
2yfe_ligand
     RDKit          3D

 48 49  0  0  0  0  0  0  0  0999 V2000
   14.5910   24.2020   49.9670 C   0  0  0  0  0  0  0  0  0  0  0  0
   15.7000   24.2600   50.8640 O   0  0  0  0  0  0  0  0  0  0  0  0
   16.8800   24.2920   50.1610 C   0  0  0  0  0  0  0  0  0  0  0  0
   17.2770   23.1690   49.4340 C   0  0  0  0  0  0  0  0  0  0  0  0
   18.4800   23.1570   48.6980 C   0  0  0  0  0  0  0  0  0  0  0  0
   18.8120   21.8730   47.9630 C   0  0  0  0  0  0  0  0  0  0  0  0
   17.7440   21.5080   46.9270 C   0  0  0  0  0  0  0  0  0  0  0  0
   17.1050   20.1710   47.2240 C   0  0  0  0  0  0  0  0  0  0  0  0
   15.7140   20.0250   47.2620 C   0  0  0  0  0  0  0  0  0  0  0  0
   15.1430   18.7830   47.5490 C   0  0  0  0  0  0  0  0  0  0  0  0
   15.9590   17.6800   47.8030 C   0  0  0  0  0  0  0  0  0  0  0  0
   17.3450   17.8180   47.7710 C   0  0  0  0  0  0  0  0  0  0  0  0
   17.9170   19.0580   47.4840 C   0  0  0  0  0  0  0  0  0  0  0  0
   19.2930   24.3190   48.6720 C   0  0  0  0  0  0  0  0  0  0  0  0
   20.6040   24.4170   47.8940 C   0  0  0  0  0  0  0  0  0  0  0  0
   20.5860   24.4600   46.6270 O   0  0  0  0  0  0  0  0  0  0  0  0
   21.6650   24.4690   48.6070 O   0  0  0  0  0  0  0  0  0  0  0  0
   18.8450   25.4490   49.4110 C   0  0  0  0  0  0  0  0  0  0  0  0
   19.5950   26.6060   49.4510 O   0  0  0  0  0  0  0  0  0  0  0  0
   17.6390   25.4620   50.1390 C   0  0  0  0  0  0  0  0  0  0  0  0
   17.2010   26.6920   50.9040 C   0  0  0  0  0  0  0  0  0  0  0  0
   17.6080   26.6460   52.3560 C   0  0  0  0  0  0  0  0  0  0  0  0
   16.8270   26.5840   53.4530 C   0  0  0  0  0  0  0  0  0  0  0  0
   15.3250   26.5340   53.4470 C   0  0  0  0  0  0  0  0  0  0  0  0
   17.4450   26.5530   54.8250 C   0  0  0  0  0  0  0  0  0  0  0  0
   13.6554   24.1531   50.5434 H   0  0  0  0  0  0  0  0  0  0  0  0
   14.5846   25.1010   49.3332 H   0  0  0  0  0  0  0  0  0  0  0  0
   14.6784   23.3072   49.3332 H   0  0  0  0  0  0  0  0  0  0  0  0
   16.6378   22.2738   49.4350 H   0  0  0  0  0  0  0  0  0  0  0  0
   19.7764   21.9980   47.4490 H   0  0  0  0  0  0  0  0  0  0  0  0
   18.8562   21.0610   48.7037 H   0  0  0  0  0  0  0  0  0  0  0  0
   16.9642   22.2838   46.9316 H   0  0  0  0  0  0  0  0  0  0  0  0
   18.2316   21.4420   45.9432 H   0  0  0  0  0  0  0  0  0  0  0  0
   15.0670   20.8925   47.0649 H   0  0  0  0  0  0  0  0  0  0  0  0
   14.0487   18.6743   47.5748 H   0  0  0  0  0  0  0  0  0  0  0  0
   15.5083   16.7022   48.0283 H   0  0  0  0  0  0  0  0  0  0  0  0
   17.9887   16.9490   47.9721 H   0  0  0  0  0  0  0  0  0  0  0  0
   19.0118   19.1629   47.4616 H   0  0  0  0  0  0  0  0  0  0  0  0
   19.6350   26.9370   48.5110 H   0  0  0  0  0  0  0  0  0  0  0  0
   17.6569   27.5780   50.4380 H   0  0  0  0  0  0  0  0  0  0  0  0
   16.1025   26.7347   50.8665 H   0  0  0  0  0  0  0  0  0  0  0  0
   18.6913   26.6658   52.5457 H   0  0  0  0  0  0  0  0  0  0  0  0
   14.9544   26.5217   54.4826 H   0  0  0  0  0  0  0  0  0  0  0  0
   14.9307   27.4195   52.9270 H   0  0  0  0  0  0  0  0  0  0  0  0
   14.9905   25.6242   52.9270 H   0  0  0  0  0  0  0  0  0  0  0  0
   16.6514   26.5928   55.5856 H   0  0  0  0  0  0  0  0  0  0  0  0
   18.0227   25.6247   54.9461 H   0  0  0  0  0  0  0  0  0  0  0  0
   18.1127   27.4188   54.9461 H   0  0  0  0  0  0  0  0  0  0  0  0
  1  2  1  0
  2  3  1  0
  3  4  2  0
  4  5  1  0
  5  6  1  0
  6  7  1  0
  7  8  1  0
  8  9  2  0
  9 10  1  0
 10 11  2  0
 11 12  1  0
 12 13  2  0
  5 14  2  0
 14 15  1  0
 15 16  2  0
 15 17  1  0
 14 18  1  0
 18 19  1  0
 18 20  2  0
 20 21  1  0
 21 22  1  0
 22 23  2  3
 23 24  1  0
 23 25  1  0
 20  3  1  0
 13  8  1  0
  1 26  1  0
  1 27  1  0
  1 28  1  0
  4 29  1  0
  6 30  1  0
  6 31  1  0
  7 32  1  0
  7 33  1  0
  9 34  1  0
 10 35  1  0
 11 36  1  0
 12 37  1  0
 13 38  1  0
 19 39  1  0
 21 40  1  0
 21 41  1  0
 22 42  1  0
 24 43  1  0
 24 44  1  0
 24 45  1  0
 25 46  1  0
 25 47  1  0
 25 48  1  0
M  CHG  1  17  -1
M  END
>  <meeko>  (8) 
{"is_sidechain": [false], "free_energy": -7.293, "intermolecular_energy": -10.292, "internal_energy": -1.447}

$$$$
2yfe_ligand
     RDKit          3D

 48 49  0  0  0  0  0  0  0  0999 V2000
   20.1620   26.6250   50.1890 C   0  0  0  0  0  0  0  0  0  0  0  0
   18.9110   27.0550   49.6510 O   0  0  0  0  0  0  0  0  0  0  0  0
   18.0750   25.9790   49.4730 C   0  0  0  0  0  0  0  0  0  0  0  0
   18.5080   24.8900   48.7170 C   0  0  0  0  0  0  0  0  0  0  0  0
   17.6840   23.7640   48.5080 C   0  0  0  0  0  0  0  0  0  0  0  0
   18.2580   22.6520   47.6540 C   0  0  0  0  0  0  0  0  0  0  0  0
   19.3270   21.8450   48.3990 C   0  0  0  0  0  0  0  0  0  0  0  0
   19.2780   20.3780   48.0400 C   0  0  0  0  0  0  0  0  0  0  0  0
   20.4360   19.5910   48.0470 C   0  0  0  0  0  0  0  0  0  0  0  0
   20.3720   18.2390   47.7010 C   0  0  0  0  0  0  0  0  0  0  0  0
   19.1520   17.6670   47.3420 C   0  0  0  0  0  0  0  0  0  0  0  0
   17.9950   18.4450   47.3260 C   0  0  0  0  0  0  0  0  0  0  0  0
   18.0580   19.7950   47.6730 C   0  0  0  0  0  0  0  0  0  0  0  0
   16.3960   23.7240   49.1010 C   0  0  0  0  0  0  0  0  0  0  0  0
   15.4320   22.5490   48.9520 C   0  0  0  0  0  0  0  0  0  0  0  0
   15.0380   22.1970   47.7990 O   0  0  0  0  0  0  0  0  0  0  0  0
   15.0930   21.9720   50.0420 O   0  0  0  0  0  0  0  0  0  0  0  0
   15.9980   24.8460   49.8800 C   0  0  0  0  0  0  0  0  0  0  0  0
   14.7500   24.8880   50.4680 O   0  0  0  0  0  0  0  0  0  0  0  0
   16.8260   25.9660   50.0940 C   0  0  0  0  0  0  0  0  0  0  0  0
   16.3600   27.1320   50.9370 C   0  0  0  0  0  0  0  0  0  0  0  0
   16.8970   27.0790   52.3460 C   0  0  0  0  0  0  0  0  0  0  0  0
   16.2470   26.7840   53.4900 C   0  0  0  0  0  0  0  0  0  0  0  0
   14.7930   26.4210   53.5930 C   0  0  0  0  0  0  0  0  0  0  0  0
   16.9790   26.7960   54.8050 C   0  0  0  0  0  0  0  0  0  0  0  0
   20.1137   26.6416   51.2878 H   0  0  0  0  0  0  0  0  0  0  0  0
   20.3760   25.6017   49.8468 H   0  0  0  0  0  0  0  0  0  0  0  0
   20.9599   27.3005   49.8468 H   0  0  0  0  0  0  0  0  0  0  0  0
   19.5145   24.9094   48.2737 H   0  0  0  0  0  0  0  0  0  0  0  0
   17.4431   21.9742   47.3598 H   0  0  0  0  0  0  0  0  0  0  0  0
   18.7327   23.1115   46.7745 H   0  0  0  0  0  0  0  0  0  0  0  0
   20.3189   22.2421   48.1374 H   0  0  0  0  0  0  0  0  0  0  0  0
   19.1342   21.9384   49.4779 H   0  0  0  0  0  0  0  0  0  0  0  0
   21.4008   20.0394   48.3263 H   0  0  0  0  0  0  0  0  0  0  0  0
   21.2847   17.6252   47.7118 H   0  0  0  0  0  0  0  0  0  0  0  0
   19.1024   16.6020   47.0714 H   0  0  0  0  0  0  0  0  0  0  0  0
   17.0330   17.9947   47.0400 H   0  0  0  0  0  0  0  0  0  0  0  0
   17.1433   20.4059   47.6583 H   0  0  0  0  0  0  0  0  0  0  0  0
   14.3010   25.6960   50.0950 H   0  0  0  0  0  0  0  0  0  0  0  0
   16.6994   28.0660   50.4653 H   0  0  0  0  0  0  0  0  0  0  0  0
   15.2627   27.0835   50.9961 H   0  0  0  0  0  0  0  0  0  0  0  0
   17.9662   27.3133   52.4551 H   0  0  0  0  0  0  0  0  0  0  0  0
   14.5071   26.3496   54.6528 H   0  0  0  0  0  0  0  0  0  0  0  0
   14.1860   27.1952   53.1008 H   0  0  0  0  0  0  0  0  0  0  0  0
   14.6211   25.4524   53.1008 H   0  0  0  0  0  0  0  0  0  0  0  0
   16.2513   26.7841   55.6298 H   0  0  0  0  0  0  0  0  0  0  0  0
   17.6251   25.9083   54.8731 H   0  0  0  0  0  0  0  0  0  0  0  0
   17.5956   27.7044   54.8731 H   0  0  0  0  0  0  0  0  0  0  0  0
  1  2  1  0
  2  3  1  0
  3  4  2  0
  4  5  1  0
  5  6  1  0
  6  7  1  0
  7  8  1  0
  8  9  2  0
  9 10  1  0
 10 11  2  0
 11 12  1  0
 12 13  2  0
  5 14  2  0
 14 15  1  0
 15 16  2  0
 15 17  1  0
 14 18  1  0
 18 19  1  0
 18 20  2  0
 20 21  1  0
 21 22  1  0
 22 23  2  3
 23 24  1  0
 23 25  1  0
 20  3  1  0
 13  8  1  0
  1 26  1  0
  1 27  1  0
  1 28  1  0
  4 29  1  0
  6 30  1  0
  6 31  1  0
  7 32  1  0
  7 33  1  0
  9 34  1  0
 10 35  1  0
 11 36  1  0
 12 37  1  0
 13 38  1  0
 19 39  1  0
 21 40  1  0
 21 41  1  0
 22 42  1  0
 24 43  1  0
 24 44  1  0
 24 45  1  0
 25 46  1  0
 25 47  1  0
 25 48  1  0
M  CHG  1  17  -1
M  END
>  <meeko>  (9) 
{"is_sidechain": [false], "free_energy": -7.285, "intermolecular_energy": -10.369, "internal_energy": -1.36}

$$$$
