3d6q_ligand
     RDKit          3D

 44 46  0  0  0  0  0  0  0  0999 V2000
   33.4860   -6.3850   13.1200 O   0  0  0  0  0  0  0  0  0  0  0  0
   34.3460   -5.5370   12.9260 C   0  0  0  0  0  0  0  0  0  0  0  0
   35.5350   -5.4490   13.7840 C   0  0  0  0  0  0  0  0  0  0  0  0
   36.4390   -4.4960   13.5410 C   0  0  0  0  0  0  0  0  0  0  0  0
   36.2930   -3.5900   12.5050 N   0  0  0  0  0  0  0  0  0  0  0  0
   37.3140   -2.5630   12.3050 C   0  0  2  0  0  0  0  0  0  0  0  0
   38.4770   -2.8990   13.0860 O   0  0  0  0  0  0  0  0  0  0  0  0
   38.9810   -1.7000   13.7070 C   0  0  1  0  0  0  0  0  0  0  0  0
   40.1370   -1.1350   12.8550 C   0  0  0  0  0  0  0  0  0  0  0  0
   41.2070   -2.1940   12.5470 N   0  0  0  0  0  0  0  0  0  0  0  0
   42.5070   -1.8280   13.2330 C   0  0  0  0  0  0  0  0  0  0  0  0
   43.5340   -2.9310   13.0320 C   0  0  0  0  0  0  0  0  0  0  0  0
   43.7650   -3.2110   11.5540 C   0  0  0  0  0  0  0  0  0  0  0  0
   42.4520   -3.5360   10.8570 C   0  0  0  0  0  0  0  0  0  0  0  0
   41.4020   -2.4510   11.0660 C   0  0  0  0  0  0  0  0  0  0  0  0
   37.8150   -0.7150   13.7890 C   0  0  2  0  0  0  0  0  0  0  0  0
   37.1700   -0.8020   15.0540 O   0  0  0  0  0  0  0  0  0  0  0  0
   36.9000   -1.1150   12.6430 C   0  0  1  0  0  0  0  0  0  0  0  0
   37.2100   -0.2690   11.5210 O   0  0  0  0  0  0  0  0  0  0  0  0
   35.1940   -3.6390   11.6600 C   0  0  0  0  0  0  0  0  0  0  0  0
   35.0280   -2.8660   10.7170 O   0  0  0  0  0  0  0  0  0  0  0  0
   34.2760   -4.6200   11.9190 N   0  0  0  0  0  0  0  0  0  0  0  0
   35.6788   -6.1568   14.6137 H   0  0  0  0  0  0  0  0  0  0  0  0
   37.3282   -4.4292   14.1851 H   0  0  0  0  0  0  0  0  0  0  0  0
   37.5062   -2.5659   11.2219 H   0  0  0  0  0  0  0  0  0  0  0  0
   39.3753   -1.8938   14.7154 H   0  0  0  0  0  0  0  0  0  0  0  0
   39.7264   -0.7607   11.9056 H   0  0  0  0  0  0  0  0  0  0  0  0
   40.6168   -0.3299   13.4309 H   0  0  0  0  0  0  0  0  0  0  0  0
   40.8820   -3.0800   12.9610 H   0  0  0  0  0  0  0  0  0  0  0  0
   42.8921   -0.8904   12.8057 H   0  0  0  0  0  0  0  0  0  0  0  0
   42.3219   -1.7011   14.3099 H   0  0  0  0  0  0  0  0  0  0  0  0
   44.4850   -2.6227   13.4909 H   0  0  0  0  0  0  0  0  0  0  0  0
   43.1532   -3.8491   13.5032 H   0  0  0  0  0  0  0  0  0  0  0  0
   44.2133   -2.3233   11.0840 H   0  0  0  0  0  0  0  0  0  0  0  0
   44.4395   -4.0747   11.4587 H   0  0  0  0  0  0  0  0  0  0  0  0
   42.6409   -3.6424    9.7786 H   0  0  0  0  0  0  0  0  0  0  0  0
   42.0627   -4.4689   11.2907 H   0  0  0  0  0  0  0  0  0  0  0  0
   41.7344   -1.5237   10.5764 H   0  0  0  0  0  0  0  0  0  0  0  0
   40.4486   -2.7834   10.6295 H   0  0  0  0  0  0  0  0  0  0  0  0
   38.1320    0.3346   13.7005 H   0  0  0  0  0  0  0  0  0  0  0  0
   37.4760   -1.6140   15.5210 H   0  0  0  0  0  0  0  0  0  0  0  0
   35.8302   -1.0292   12.8842 H   0  0  0  0  0  0  0  0  0  0  0  0
   37.2630   -0.8510   10.7370 H   0  0  0  0  0  0  0  0  0  0  0  0
   33.4670   -4.6700   11.3180 H   0  0  0  0  0  0  0  0  0  0  0  0
  1  2  2  0
  2  3  1  0
  3  4  2  0
  4  5  1  0
  5  6  1  0
  6  7  1  0
  7  8  1  0
  8  9  1  0
  9 10  1  0
 10 11  1  0
 11 12  1  0
 12 13  1  0
 13 14  1  0
 14 15  1  0
  8 16  1  0
 16 17  1  0
 16 18  1  0
 18 19  1  0
  5 20  1  0
 20 21  2  0
 20 22  1  0
 22  2  1  0
 18  6  1  0
 15 10  1  0
  3 23  1  0
  4 24  1  0
  6 25  1  6
  8 26  1  1
  9 27  1  0
  9 28  1  0
 10 29  1  0
 11 30  1  0
 11 31  1  0
 12 32  1  0
 12 33  1  0
 13 34  1  0
 13 35  1  0
 14 36  1  0
 14 37  1  0
 15 38  1  0
 15 39  1  0
 16 40  1  6
 17 41  1  0
 18 42  1  1
 19 43  1  0
 22 44  1  0
M  CHG  1  10   1
M  END
>  <meeko>  (1) 
{"is_sidechain": [false], "free_energy": -6.037, "intermolecular_energy": -7.449, "internal_energy": -0.541}

$$$$
3d6q_ligand
     RDKit          3D

 44 46  0  0  0  0  0  0  0  0999 V2000
   33.0820   -6.8820   12.8390 O   0  0  0  0  0  0  0  0  0  0  0  0
   33.9820   -6.0550   12.7890 C   0  0  0  0  0  0  0  0  0  0  0  0
   35.0900   -6.0750   13.7540 C   0  0  0  0  0  0  0  0  0  0  0  0
   36.0410   -5.1410   13.6670 C   0  0  0  0  0  0  0  0  0  0  0  0
   36.0170   -4.1560   12.6960 N   0  0  0  0  0  0  0  0  0  0  0  0
   37.0830   -3.1550   12.6680 C   0  0  2  0  0  0  0  0  0  0  0  0
   38.2260   -3.6660   13.3800 O   0  0  0  0  0  0  0  0  0  0  0  0
   38.7780   -2.6100   14.1910 C   0  0  1  0  0  0  0  0  0  0  0  0
   39.9610   -1.9630   13.4430 C   0  0  0  0  0  0  0  0  0  0  0  0
   39.9900   -0.4340   13.6070 N   0  0  0  0  0  0  0  0  0  0  0  0
   40.3570    0.2180   12.2890 C   0  0  0  0  0  0  0  0  0  0  0  0
   40.2700    1.7310   12.4120 C   0  0  0  0  0  0  0  0  0  0  0  0
   41.1570    2.2480   13.5350 C   0  0  0  0  0  0  0  0  0  0  0  0
   40.8170    1.5610   14.8490 C   0  0  0  0  0  0  0  0  0  0  0  0
   40.8780    0.0410   14.7400 C   0  0  0  0  0  0  0  0  0  0  0  0
   37.6550   -1.6030   14.4370 C   0  0  2  0  0  0  0  0  0  0  0  0
   37.0000   -1.8700   15.6710 O   0  0  0  0  0  0  0  0  0  0  0  0
   36.7300   -1.7670   13.2420 C   0  0  1  0  0  0  0  0  0  0  0  0
   37.0830   -0.7610   12.2760 O   0  0  0  0  0  0  0  0  0  0  0  0
   34.9990   -4.1000   11.7550 C   0  0  0  0  0  0  0  0  0  0  0  0
   34.9430   -3.2530   10.8640 O   0  0  0  0  0  0  0  0  0  0  0  0
   34.0320   -5.0630   11.8550 N   0  0  0  0  0  0  0  0  0  0  0  0
   35.1356   -6.8473   14.5360 H   0  0  0  0  0  0  0  0  0  0  0  0
   36.8695   -5.1556   14.3904 H   0  0  0  0  0  0  0  0  0  0  0  0
   37.2810   -2.9865   11.5992 H   0  0  0  0  0  0  0  0  0  0  0  0
   39.1582   -2.9851   15.1527 H   0  0  0  0  0  0  0  0  0  0  0  0
   40.8994   -2.3789   13.8384 H   0  0  0  0  0  0  0  0  0  0  0  0
   39.8430   -2.1841   12.3719 H   0  0  0  0  0  0  0  0  0  0  0  0
   39.0310   -0.1380   13.8380 H   0  0  0  0  0  0  0  0  0  0  0  0
   41.3840   -0.0663   12.0160 H   0  0  0  0  0  0  0  0  0  0  0  0
   39.6556   -0.1208   11.5123 H   0  0  0  0  0  0  0  0  0  0  0  0
   40.5912    2.1863   11.4636 H   0  0  0  0  0  0  0  0  0  0  0  0
   39.2285    2.0007   12.6411 H   0  0  0  0  0  0  0  0  0  0  0  0
   42.2094    2.0482   13.2849 H   0  0  0  0  0  0  0  0  0  0  0  0
   40.9900    3.3294   13.6480 H   0  0  0  0  0  0  0  0  0  0  0  0
   41.5338    1.8897   15.6159 H   0  0  0  0  0  0  0  0  0  0  0  0
   39.7868    1.8382   15.1170 H   0  0  0  0  0  0  0  0  0  0  0  0
   41.9152   -0.2688   14.5442 H   0  0  0  0  0  0  0  0  0  0  0  0
   40.5276   -0.4028   15.6835 H   0  0  0  0  0  0  0  0  0  0  0  0
   38.0174   -0.5680   14.5232 H   0  0  0  0  0  0  0  0  0  0  0  0
   37.3260   -1.2410   16.3560 H   0  0  0  0  0  0  0  0  0  0  0  0
   35.6635   -1.6759   13.4955 H   0  0  0  0  0  0  0  0  0  0  0  0
   36.2540   -0.4960   11.8290 H   0  0  0  0  0  0  0  0  0  0  0  0
   33.2810   -5.0380   11.1820 H   0  0  0  0  0  0  0  0  0  0  0  0
  1  2  2  0
  2  3  1  0
  3  4  2  0
  4  5  1  0
  5  6  1  0
  6  7  1  0
  7  8  1  0
  8  9  1  0
  9 10  1  0
 10 11  1  0
 11 12  1  0
 12 13  1  0
 13 14  1  0
 14 15  1  0
  8 16  1  0
 16 17  1  0
 16 18  1  0
 18 19  1  0
  5 20  1  0
 20 21  2  0
 20 22  1  0
 22  2  1  0
 18  6  1  0
 15 10  1  0
  3 23  1  0
  4 24  1  0
  6 25  1  6
  8 26  1  1
  9 27  1  0
  9 28  1  0
 10 29  1  0
 11 30  1  0
 11 31  1  0
 12 32  1  0
 12 33  1  0
 13 34  1  0
 13 35  1  0
 14 36  1  0
 14 37  1  0
 15 38  1  0
 15 39  1  0
 16 40  1  1
 17 41  1  0
 18 42  1  1
 19 43  1  0
 22 44  1  0
M  CHG  1  10   1
M  END
>  <meeko>  (2) 
{"is_sidechain": [false], "free_energy": -5.936, "intermolecular_energy": -7.081, "internal_energy": -0.785}

$$$$
3d6q_ligand
     RDKit          3D

 44 46  0  0  0  0  0  0  0  0999 V2000
   32.7660   -7.3210   11.9280 O   0  0  0  0  0  0  0  0  0  0  0  0
   33.6690   -6.5910   12.3120 C   0  0  0  0  0  0  0  0  0  0  0  0
   34.5990   -7.0180   13.3660 C   0  0  0  0  0  0  0  0  0  0  0  0
   35.5600   -6.1780   13.7610 C   0  0  0  0  0  0  0  0  0  0  0  0
   35.7100   -4.9190   13.2060 N   0  0  0  0  0  0  0  0  0  0  0  0
   36.7750   -4.0450   13.6960 C   0  0  2  0  0  0  0  0  0  0  0  0
   36.2010   -2.7850   14.0950 O   0  0  0  0  0  0  0  0  0  0  0  0
   37.0590   -1.7200   13.6410 C   0  0  1  0  0  0  0  0  0  0  0  0
   37.9780   -1.2800   14.8000 C   0  0  0  0  0  0  0  0  0  0  0  0
   37.4180   -0.0670   15.5610 N   0  0  0  0  0  0  0  0  0  0  0  0
   37.9110    1.2150   14.9220 C   0  0  0  0  0  0  0  0  0  0  0  0
   37.2660    2.4160   15.5940 C   0  0  0  0  0  0  0  0  0  0  0  0
   37.5330    2.4240   17.0930 C   0  0  0  0  0  0  0  0  0  0  0  0
   37.0770    1.1170   17.7260 C   0  0  0  0  0  0  0  0  0  0  0  0
   37.6970   -0.1000   17.0510 C   0  0  0  0  0  0  0  0  0  0  0  0
   37.8680   -2.2690   12.4660 C   0  0  2  0  0  0  0  0  0  0  0  0
   37.2380   -1.9520   11.2300 O   0  0  0  0  0  0  0  0  0  0  0  0
   37.9330   -3.7660   12.7170 C   0  0  1  0  0  0  0  0  0  0  0  0
   39.1800   -4.0430   13.3810 O   0  0  0  0  0  0  0  0  0  0  0  0
   34.8650   -4.4730   12.2000 C   0  0  0  0  0  0  0  0  0  0  0  0
   34.9680   -3.3690   11.6670 O   0  0  0  0  0  0  0  0  0  0  0  0
   33.8860   -5.3430   11.8050 N   0  0  0  0  0  0  0  0  0  0  0  0
   34.5056   -8.0142   13.8231 H   0  0  0  0  0  0  0  0  0  0  0  0
   36.2540   -6.4972   14.5525 H   0  0  0  0  0  0  0  0  0  0  0  0
   37.2283   -4.5973   14.5324 H   0  0  0  0  0  0  0  0  0  0  0  0
   36.4852   -0.8386   13.3186 H   0  0  0  0  0  0  0  0  0  0  0  0
   38.0870   -2.1190   15.5030 H   0  0  0  0  0  0  0  0  0  0  0  0
   38.9470   -0.9884   14.3688 H   0  0  0  0  0  0  0  0  0  0  0  0
   36.3930   -0.0900   15.4510 H   0  0  0  0  0  0  0  0  0  0  0  0
   39.0035    1.2797   15.0325 H   0  0  0  0  0  0  0  0  0  0  0  0
   37.6418    1.2120   13.8554 H   0  0  0  0  0  0  0  0  0  0  0  0
   37.6763    3.3362   15.1525 H   0  0  0  0  0  0  0  0  0  0  0  0
   36.1789    2.3583   15.4364 H   0  0  0  0  0  0  0  0  0  0  0  0
   38.6114    2.5531   17.2673 H   0  0  0  0  0  0  0  0  0  0  0  0
   36.9717    3.2531   17.5485 H   0  0  0  0  0  0  0  0  0  0  0  0
   37.3660    1.1183   18.7874 H   0  0  0  0  0  0  0  0  0  0  0  0
   35.9857    1.0483   17.6067 H   0  0  0  0  0  0  0  0  0  0  0  0
   38.7842   -0.0943   17.2179 H   0  0  0  0  0  0  0  0  0  0  0  0
   37.2577   -1.0128   17.4798 H   0  0  0  0  0  0  0  0  0  0  0  0
   38.8749   -1.8318   12.3952 H   0  0  0  0  0  0  0  0  0  0  0  0
   36.8630   -2.7740   10.8350 H   0  0  0  0  0  0  0  0  0  0  0  0
   37.8617   -4.3690   11.7997 H   0  0  0  0  0  0  0  0  0  0  0  0
   39.8900   -3.8570   12.7360 H   0  0  0  0  0  0  0  0  0  0  0  0
   33.2580   -5.0370   11.0760 H   0  0  0  0  0  0  0  0  0  0  0  0
  1  2  2  0
  2  3  1  0
  3  4  2  0
  4  5  1  0
  5  6  1  0
  6  7  1  0
  7  8  1  0
  8  9  1  0
  9 10  1  0
 10 11  1  0
 11 12  1  0
 12 13  1  0
 13 14  1  0
 14 15  1  0
  8 16  1  0
 16 17  1  0
 16 18  1  0
 18 19  1  0
  5 20  1  0
 20 21  2  0
 20 22  1  0
 22  2  1  0
 18  6  1  0
 15 10  1  0
  3 23  1  0
  4 24  1  0
  6 25  1  1
  8 26  1  6
  9 27  1  0
  9 28  1  0
 10 29  1  0
 11 30  1  0
 11 31  1  0
 12 32  1  0
 12 33  1  0
 13 34  1  0
 13 35  1  0
 14 36  1  0
 14 37  1  0
 15 38  1  0
 15 39  1  0
 16 40  1  6
 17 41  1  0
 18 42  1  6
 19 43  1  0
 22 44  1  0
M  CHG  1  10   1
M  END
>  <meeko>  (3) 
{"is_sidechain": [false], "free_energy": -5.807, "intermolecular_energy": -7.622, "internal_energy": -0.084}

$$$$
3d6q_ligand
     RDKit          3D

 44 46  0  0  0  0  0  0  0  0999 V2000
   33.1670   -7.6400   12.7010 O   0  0  0  0  0  0  0  0  0  0  0  0
   34.0370   -6.8180   12.9540 C   0  0  0  0  0  0  0  0  0  0  0  0
   33.8240   -5.3850   12.7130 C   0  0  0  0  0  0  0  0  0  0  0  0
   34.8100   -4.5280   12.9910 C   0  0  0  0  0  0  0  0  0  0  0  0
   36.0270   -4.9460   13.5000 N   0  0  0  0  0  0  0  0  0  0  0  0
   37.0690   -3.9560   13.7670 C   0  0  2  0  0  0  0  0  0  0  0  0
   36.4490   -2.7240   14.1840 O   0  0  0  0  0  0  0  0  0  0  0  0
   37.1250   -1.6240   13.5420 C   0  0  1  0  0  0  0  0  0  0  0  0
   38.1660   -1.0330   14.5150 C   0  0  0  0  0  0  0  0  0  0  0  0
   37.5900    0.1170   15.3590 N   0  0  0  0  0  0  0  0  0  0  0  0
   38.3170    1.4060   15.0360 C   0  0  0  0  0  0  0  0  0  0  0  0
   37.6740    2.5680   15.7770 C   0  0  0  0  0  0  0  0  0  0  0  0
   37.6490    2.3240   17.2790 C   0  0  0  0  0  0  0  0  0  0  0  0
   36.9580    1.0070   17.5980 C   0  0  0  0  0  0  0  0  0  0  0  0
   37.5750   -0.1680   16.8480 C   0  0  0  0  0  0  0  0  0  0  0  0
   37.7900   -2.1820   12.2850 C   0  0  2  0  0  0  0  0  0  0  0  0
   36.9510   -2.0040   11.1490 O   0  0  0  0  0  0  0  0  0  0  0  0
   38.0320   -3.6490   12.6020 C   0  0  1  0  0  0  0  0  0  0  0  0
   39.3860   -3.7760   13.0730 O   0  0  0  0  0  0  0  0  0  0  0  0
   36.2740   -6.2880   13.7550 C   0  0  0  0  0  0  0  0  0  0  0  0
   37.3330   -6.7060   14.2210 O   0  0  0  0  0  0  0  0  0  0  0  0
   35.2550   -7.1550   13.4670 N   0  0  0  0  0  0  0  0  0  0  0  0
   32.8668   -5.0230   12.3096 H   0  0  0  0  0  0  0  0  0  0  0  0
   34.6494   -3.4550   12.8094 H   0  0  0  0  0  0  0  0  0  0  0  0
   37.6946   -4.4106   14.5493 H   0  0  0  0  0  0  0  0  0  0  0  0
   36.4300   -0.8167   13.2677 H   0  0  0  0  0  0  0  0  0  0  0  0
   38.5106   -1.8295   15.1909 H   0  0  0  0  0  0  0  0  0  0  0  0
   38.9947   -0.6280   13.9156 H   0  0  0  0  0  0  0  0  0  0  0  0
   36.6080    0.2390   15.0710 H   0  0  0  0  0  0  0  0  0  0  0  0
   39.3696    1.3167   15.3426 H   0  0  0  0  0  0  0  0  0  0  0  0
   38.2571    1.5918   13.9535 H   0  0  0  0  0  0  0  0  0  0  0  0
   38.2479    3.4840   15.5729 H   0  0  0  0  0  0  0  0  0  0  0  0
   36.6366    2.6705   15.4259 H   0  0  0  0  0  0  0  0  0  0  0  0
   38.6816    2.2908   17.6567 H   0  0  0  0  0  0  0  0  0  0  0  0
   37.0925    3.1413   17.7610 H   0  0  0  0  0  0  0  0  0  0  0  0
   37.0386    0.8182   18.6787 H   0  0  0  0  0  0  0  0  0  0  0  0
   35.9080    1.0933   17.2818 H   0  0  0  0  0  0  0  0  0  0  0  0
   38.6057   -0.3236   17.1994 H   0  0  0  0  0  0  0  0  0  0  0  0
   36.9760   -1.0711   17.0366 H   0  0  0  0  0  0  0  0  0  0  0  0
   38.7286   -1.6673   12.0320 H   0  0  0  0  0  0  0  0  0  0  0  0
   36.0100   -1.9820   11.4390 H   0  0  0  0  0  0  0  0  0  0  0  0
   37.8772   -4.3163   11.7413 H   0  0  0  0  0  0  0  0  0  0  0  0
   39.5250   -3.0620   13.7270 H   0  0  0  0  0  0  0  0  0  0  0  0
   35.4160   -8.1350   13.6420 H   0  0  0  0  0  0  0  0  0  0  0  0
  1  2  2  0
  2  3  1  0
  3  4  2  0
  4  5  1  0
  5  6  1  0
  6  7  1  0
  7  8  1  0
  8  9  1  0
  9 10  1  0
 10 11  1  0
 11 12  1  0
 12 13  1  0
 13 14  1  0
 14 15  1  0
  8 16  1  0
 16 17  1  0
 16 18  1  0
 18 19  1  0
  5 20  1  0
 20 21  2  0
 20 22  1  0
 22  2  1  0
 18  6  1  0
 15 10  1  0
  3 23  1  0
  4 24  1  0
  6 25  1  1
  8 26  1  6
  9 27  1  0
  9 28  1  0
 10 29  1  0
 11 30  1  0
 11 31  1  0
 12 32  1  0
 12 33  1  0
 13 34  1  0
 13 35  1  0
 14 36  1  0
 14 37  1  0
 15 38  1  0
 15 39  1  0
 16 40  1  6
 17 41  1  0
 18 42  1  6
 19 43  1  0
 22 44  1  0
M  CHG  1  10   1
M  END
>  <meeko>  (4) 
{"is_sidechain": [false], "free_energy": -5.742, "intermolecular_energy": -7.047, "internal_energy": -0.579}

$$$$
3d6q_ligand
     RDKit          3D

 44 46  0  0  0  0  0  0  0  0999 V2000
   42.1610    3.9480   10.9820 O   0  0  0  0  0  0  0  0  0  0  0  0
   41.2780    3.2890   11.5150 C   0  0  0  0  0  0  0  0  0  0  0  0
   41.3300    1.8210   11.5340 C   0  0  0  0  0  0  0  0  0  0  0  0
   40.3340    1.1460   12.1160 C   0  0  0  0  0  0  0  0  0  0  0  0
   39.2560    1.7860   12.7020 N   0  0  0  0  0  0  0  0  0  0  0  0
   38.1920    0.9850   13.3070 C   0  0  2  0  0  0  0  0  0  0  0  0
   38.6070   -0.3940   13.3440 O   0  0  0  0  0  0  0  0  0  0  0  0
   37.4920   -1.2250   12.9650 C   0  0  1  0  0  0  0  0  0  0  0  0
   36.7990   -1.7540   14.2380 C   0  0  0  0  0  0  0  0  0  0  0  0
   36.4970   -3.2590   14.1560 N   0  0  0  0  0  0  0  0  0  0  0  0
   37.7050   -3.9980   13.6170 C   0  0  0  0  0  0  0  0  0  0  0  0
   37.4560   -5.4980   13.6460 C   0  0  0  0  0  0  0  0  0  0  0  0
   36.2030   -5.8690   12.8650 C   0  0  0  0  0  0  0  0  0  0  0  0
   35.0000   -5.0920   13.3790 C   0  0  0  0  0  0  0  0  0  0  0  0
   35.2380   -3.5870   13.3770 C   0  0  0  0  0  0  0  0  0  0  0  0
   36.5480   -0.3540   12.1370 C   0  0  2  0  0  0  0  0  0  0  0  0
   36.8120   -0.5060   10.7470 O   0  0  0  0  0  0  0  0  0  0  0  0
   36.8100    1.0610   12.6260 C   0  0  1  0  0  0  0  0  0  0  0  0
   35.8180    1.3690   13.6220 O   0  0  0  0  0  0  0  0  0  0  0  0
   39.1660    3.1710   12.7190 C   0  0  0  0  0  0  0  0  0  0  0  0
   38.2350    3.7840   13.2400 O   0  0  0  0  0  0  0  0  0  0  0  0
   40.1930    3.8490   12.1220 N   0  0  0  0  0  0  0  0  0  0  0  0
   42.1752    1.2859   11.0765 H   0  0  0  0  0  0  0  0  0  0  0  0
   40.3724    0.0468   12.1296 H   0  0  0  0  0  0  0  0  0  0  0  0
   38.0478    1.4196   14.3072 H   0  0  0  0  0  0  0  0  0  0  0  0
   37.8098   -2.0960   12.3731 H   0  0  0  0  0  0  0  0  0  0  0  0
   37.4570   -1.5718   15.1005 H   0  0  0  0  0  0  0  0  0  0  0  0
   35.8409   -1.2241   14.3442 H   0  0  0  0  0  0  0  0  0  0  0  0
   36.3420   -3.5880   15.1210 H   0  0  0  0  0  0  0  0  0  0  0  0
   37.8932   -3.6804   12.5808 H   0  0  0  0  0  0  0  0  0  0  0  0
   38.5784   -3.7659   14.2442 H   0  0  0  0  0  0  0  0  0  0  0  0
   38.3204   -6.0128   13.2012 H   0  0  0  0  0  0  0  0  0  0  0  0
   37.3147   -5.8050   14.6928 H   0  0  0  0  0  0  0  0  0  0  0  0
   36.3574   -5.6339   11.8016 H   0  0  0  0  0  0  0  0  0  0  0  0
   36.0111   -6.9444   12.9938 H   0  0  0  0  0  0  0  0  0  0  0  0
   34.1351   -5.3139   12.7366 H   0  0  0  0  0  0  0  0  0  0  0  0
   34.8191   -5.4021   14.4188 H   0  0  0  0  0  0  0  0  0  0  0  0
   35.3500   -3.2375   12.3400 H   0  0  0  0  0  0  0  0  0  0  0  0
   34.3805   -3.0856   13.8496 H   0  0  0  0  0  0  0  0  0  0  0  0
   35.4902   -0.6296   12.2598 H   0  0  0  0  0  0  0  0  0  0  0  0
   37.6860   -0.1010   10.5350 H   0  0  0  0  0  0  0  0  0  0  0  0
   36.7763    1.8157   11.8264 H   0  0  0  0  0  0  0  0  0  0  0  0
   35.0530    0.7860   13.4470 H   0  0  0  0  0  0  0  0  0  0  0  0
   40.1450    4.8570   12.1200 H   0  0  0  0  0  0  0  0  0  0  0  0
  1  2  2  0
  2  3  1  0
  3  4  2  0
  4  5  1  0
  5  6  1  0
  6  7  1  0
  7  8  1  0
  8  9  1  0
  9 10  1  0
 10 11  1  0
 11 12  1  0
 12 13  1  0
 13 14  1  0
 14 15  1  0
  8 16  1  0
 16 17  1  0
 16 18  1  0
 18 19  1  0
  5 20  1  0
 20 21  2  0
 20 22  1  0
 22  2  1  0
 18  6  1  0
 15 10  1  0
  3 23  1  0
  4 24  1  0
  6 25  1  1
  8 26  1  6
  9 27  1  0
  9 28  1  0
 10 29  1  0
 11 30  1  0
 11 31  1  0
 12 32  1  0
 12 33  1  0
 13 34  1  0
 13 35  1  0
 14 36  1  0
 14 37  1  0
 15 38  1  0
 15 39  1  0
 16 40  1  6
 17 41  1  0
 18 42  1  6
 19 43  1  0
 22 44  1  0
M  CHG  1  10   1
M  END
>  <meeko>  (5) 
{"is_sidechain": [false], "free_energy": -5.694, "intermolecular_energy": -7.129, "internal_energy": -0.438}

$$$$
3d6q_ligand
     RDKit          3D

 44 46  0  0  0  0  0  0  0  0999 V2000
   33.4130   -7.4240   13.1720 O   0  0  0  0  0  0  0  0  0  0  0  0
   34.2640   -6.5460   13.2070 C   0  0  0  0  0  0  0  0  0  0  0  0
   33.9780   -5.1880   12.7240 C   0  0  0  0  0  0  0  0  0  0  0  0
   34.9450   -4.2680   12.7700 C   0  0  0  0  0  0  0  0  0  0  0  0
   36.2080   -4.5510   13.2600 N   0  0  0  0  0  0  0  0  0  0  0  0
   37.2240   -3.5000   13.2670 C   0  0  2  0  0  0  0  0  0  0  0  0
   37.1480   -2.7810   14.5130 O   0  0  0  0  0  0  0  0  0  0  0  0
   37.2880   -1.3720   14.2450 C   0  0  1  0  0  0  0  0  0  0  0  0
   38.7530   -0.9540   14.4860 C   0  0  0  0  0  0  0  0  0  0  0  0
   39.2720    0.0080   13.4050 N   0  0  0  0  0  0  0  0  0  0  0  0
   40.6910   -0.3630   13.0240 C   0  0  0  0  0  0  0  0  0  0  0  0
   41.1670    0.5080   11.8710 C   0  0  0  0  0  0  0  0  0  0  0  0
   41.0700    1.9870   12.2160 C   0  0  0  0  0  0  0  0  0  0  0  0
   39.6550    2.3490   12.6410 C   0  0  0  0  0  0  0  0  0  0  0  0
   39.1510    1.4720   13.7820 C   0  0  0  0  0  0  0  0  0  0  0  0
   36.8770   -1.1510   12.7900 C   0  0  2  0  0  0  0  0  0  0  0  0
   35.5070   -0.7770   12.7040 O   0  0  0  0  0  0  0  0  0  0  0  0
   37.1590   -2.4810   12.1100 C   0  0  1  0  0  0  0  0  0  0  0  0
   38.4570   -2.3910   11.4960 O   0  0  0  0  0  0  0  0  0  0  0  0
   36.5250   -5.8150   13.7380 C   0  0  0  0  0  0  0  0  0  0  0  0
   37.6280   -6.1100   14.1960 O   0  0  0  0  0  0  0  0  0  0  0  0
   35.5250   -6.7480   13.6870 N   0  0  0  0  0  0  0  0  0  0  0  0
   32.9829   -4.9331   12.3306 H   0  0  0  0  0  0  0  0  0  0  0  0
   34.7306   -3.2521   12.4066 H   0  0  0  0  0  0  0  0  0  0  0  0
   38.1776   -4.0318   13.1338 H   0  0  0  0  0  0  0  0  0  0  0  0
   36.6550   -0.7624   14.9066 H   0  0  0  0  0  0  0  0  0  0  0  0
   38.8222   -0.4566   15.4646 H   0  0  0  0  0  0  0  0  0  0  0  0
   39.3716   -1.8629   14.4519 H   0  0  0  0  0  0  0  0  0  0  0  0
   38.6840   -0.1320   12.5700 H   0  0  0  0  0  0  0  0  0  0  0  0
   41.3516   -0.2125   13.8906 H   0  0  0  0  0  0  0  0  0  0  0  0
   40.7164   -1.4178   12.7130 H   0  0  0  0  0  0  0  0  0  0  0  0
   42.2148    0.2612   11.6448 H   0  0  0  0  0  0  0  0  0  0  0  0
   40.5234    0.3125   11.0006 H   0  0  0  0  0  0  0  0  0  0  0  0
   41.7630    2.2116   13.0402 H   0  0  0  0  0  0  0  0  0  0  0  0
   41.3328    2.5757   11.3247 H   0  0  0  0  0  0  0  0  0  0  0  0
   39.6420    3.3987   12.9694 H   0  0  0  0  0  0  0  0  0  0  0  0
   38.9931    2.1900   11.7769 H   0  0  0  0  0  0  0  0  0  0  0  0
   39.7510    1.6667   14.6832 H   0  0  0  0  0  0  0  0  0  0  0  0
   38.0946    1.7076   13.9783 H   0  0  0  0  0  0  0  0  0  0  0  0
   37.4285   -0.3303   12.3080 H   0  0  0  0  0  0  0  0  0  0  0  0
   35.3370   -0.0210   13.3130 H   0  0  0  0  0  0  0  0  0  0  0  0
   36.4112   -2.7541   11.3509 H   0  0  0  0  0  0  0  0  0  0  0  0
   39.0680   -2.9180   12.0500 H   0  0  0  0  0  0  0  0  0  0  0  0
   35.7370   -7.6740   14.0260 H   0  0  0  0  0  0  0  0  0  0  0  0
  1  2  2  0
  2  3  1  0
  3  4  2  0
  4  5  1  0
  5  6  1  0
  6  7  1  0
  7  8  1  0
  8  9  1  0
  9 10  1  0
 10 11  1  0
 11 12  1  0
 12 13  1  0
 13 14  1  0
 14 15  1  0
  8 16  1  0
 16 17  1  0
 16 18  1  0
 18 19  1  0
  5 20  1  0
 20 21  2  0
 20 22  1  0
 22  2  1  0
 18  6  1  0
 15 10  1  0
  3 23  1  0
  4 24  1  0
  6 25  1  1
  8 26  1  1
  9 27  1  0
  9 28  1  0
 10 29  1  0
 11 30  1  0
 11 31  1  0
 12 32  1  0
 12 33  1  0
 13 34  1  0
 13 35  1  0
 14 36  1  0
 14 37  1  0
 15 38  1  0
 15 39  1  0
 16 40  1  6
 17 41  1  0
 18 42  1  6
 19 43  1  0
 22 44  1  0
M  CHG  1  10   1
M  END
>  <meeko>  (6) 
{"is_sidechain": [false], "free_energy": -5.662, "intermolecular_energy": -6.729, "internal_energy": -0.798}

$$$$
3d6q_ligand
     RDKit          3D

 44 46  0  0  0  0  0  0  0  0999 V2000
   34.2820   -4.7590   11.8290 O   0  0  0  0  0  0  0  0  0  0  0  0
   35.1320   -3.9360   12.1400 C   0  0  0  0  0  0  0  0  0  0  0  0
   35.2400   -2.6500   11.4380 C   0  0  0  0  0  0  0  0  0  0  0  0
   36.1950   -1.7910   11.8050 C   0  0  0  0  0  0  0  0  0  0  0  0
   37.0870   -2.0730   12.8250 N   0  0  0  0  0  0  0  0  0  0  0  0
   38.1190   -1.0940   13.1630 C   0  0  2  0  0  0  0  0  0  0  0  0
   37.7260   -0.3940   14.3600 O   0  0  0  0  0  0  0  0  0  0  0  0
   38.0230    1.0070   14.1960 C   0  0  1  0  0  0  0  0  0  0  0  0
   39.3770    1.3200   14.8650 C   0  0  0  0  0  0  0  0  0  0  0  0
   39.2180    1.7450   16.3350 N   0  0  0  0  0  0  0  0  0  0  0  0
   39.4740    0.5600   17.2440 C   0  0  0  0  0  0  0  0  0  0  0  0
   39.4370    1.0000   18.6990 C   0  0  0  0  0  0  0  0  0  0  0  0
   38.1140    1.6680   19.0430 C   0  0  0  0  0  0  0  0  0  0  0  0
   37.8370    2.8300   18.1010 C   0  0  0  0  0  0  0  0  0  0  0  0
   37.8910    2.4130   16.6360 C   0  0  0  0  0  0  0  0  0  0  0  0
   38.0670    1.2810   12.6930 C   0  0  2  0  0  0  0  0  0  0  0  0
   36.8060    1.7490   12.2290 O   0  0  0  0  0  0  0  0  0  0  0  0
   38.4540   -0.0530   12.0750 C   0  0  1  0  0  0  0  0  0  0  0  0
   39.8780   -0.0410   11.8670 O   0  0  0  0  0  0  0  0  0  0  0  0
   37.0210   -3.2700   13.5250 C   0  0  0  0  0  0  0  0  0  0  0  0
   37.7810   -3.5590   14.4480 O   0  0  0  0  0  0  0  0  0  0  0  0
   36.0360   -4.1390   13.1400 N   0  0  0  0  0  0  0  0  0  0  0  0
   34.5454   -2.3984   10.6230 H   0  0  0  0  0  0  0  0  0  0  0  0
   36.2750   -0.8281   11.2793 H   0  0  0  0  0  0  0  0  0  0  0  0
   39.0372   -1.6861   13.2908 H   0  0  0  0  0  0  0  0  0  0  0  0
   37.2631    1.6466   14.6687 H   0  0  0  0  0  0  0  0  0  0  0  0
   40.0085    0.4203   14.8233 H   0  0  0  0  0  0  0  0  0  0  0  0
   39.8355    2.1584   14.3202 H   0  0  0  0  0  0  0  0  0  0  0  0
   39.9520    2.4420   16.5270 H   0  0  0  0  0  0  0  0  0  0  0  0
   38.6994   -0.2025   17.0747 H   0  0  0  0  0  0  0  0  0  0  0  0
   40.4663    0.1418   17.0195 H   0  0  0  0  0  0  0  0  0  0  0  0
   39.5710    0.1184   19.3431 H   0  0  0  0  0  0  0  0  0  0  0  0
   40.2453    1.7283   18.8613 H   0  0  0  0  0  0  0  0  0  0  0  0
   37.3031    0.9300   18.9542 H   0  0  0  0  0  0  0  0  0  0  0  0
   38.1692    2.0526   20.0721 H   0  0  0  0  0  0  0  0  0  0  0  0
   36.8357    3.2303   18.3181 H   0  0  0  0  0  0  0  0  0  0  0  0
   38.6170    3.5883   18.2638 H   0  0  0  0  0  0  0  0  0  0  0  0
   37.0728    1.7079   16.4277 H   0  0  0  0  0  0  0  0  0  0  0  0
   37.7847    3.3060   16.0025 H   0  0  0  0  0  0  0  0  0  0  0  0
   38.7833    2.0703   12.4211 H   0  0  0  0  0  0  0  0  0  0  0  0
   36.8760    1.9790   11.2730 H   0  0  0  0  0  0  0  0  0  0  0  0
   37.9442   -0.2607   11.1226 H   0  0  0  0  0  0  0  0  0  0  0  0
   40.0270   -0.2680   10.9270 H   0  0  0  0  0  0  0  0  0  0  0  0
   35.9730   -5.0170   13.6340 H   0  0  0  0  0  0  0  0  0  0  0  0
  1  2  2  0
  2  3  1  0
  3  4  2  0
  4  5  1  0
  5  6  1  0
  6  7  1  0
  7  8  1  0
  8  9  1  0
  9 10  1  0
 10 11  1  0
 11 12  1  0
 12 13  1  0
 13 14  1  0
 14 15  1  0
  8 16  1  0
 16 17  1  0
 16 18  1  0
 18 19  1  0
  5 20  1  0
 20 21  2  0
 20 22  1  0
 22  2  1  0
 18  6  1  0
 15 10  1  0
  3 23  1  0
  4 24  1  0
  6 25  1  1
  8 26  1  1
  9 27  1  0
  9 28  1  0
 10 29  1  0
 11 30  1  0
 11 31  1  0
 12 32  1  0
 12 33  1  0
 13 34  1  0
 13 35  1  0
 14 36  1  0
 14 37  1  0
 15 38  1  0
 15 39  1  0
 16 40  1  1
 17 41  1  0
 18 42  1  6
 19 43  1  0
 22 44  1  0
M  CHG  1  10   1
M  END
>  <meeko>  (7) 
{"is_sidechain": [false], "free_energy": -5.658, "intermolecular_energy": -6.907, "internal_energy": -0.616}

$$$$
3d6q_ligand
     RDKit          3D

 44 46  0  0  0  0  0  0  0  0999 V2000
   33.4060   -7.3750   12.9790 O   0  0  0  0  0  0  0  0  0  0  0  0
   34.2640   -6.5070   13.0660 C   0  0  0  0  0  0  0  0  0  0  0  0
   34.0220   -5.1450   12.5720 C   0  0  0  0  0  0  0  0  0  0  0  0
   34.9950   -4.2360   12.6770 C   0  0  0  0  0  0  0  0  0  0  0  0
   36.2240   -4.5350   13.2380 N   0  0  0  0  0  0  0  0  0  0  0  0
   37.2510   -3.4960   13.3060 C   0  0  2  0  0  0  0  0  0  0  0  0
   37.1150   -2.7840   14.5510 O   0  0  0  0  0  0  0  0  0  0  0  0
   37.2850   -1.3750   14.3010 C   0  0  1  0  0  0  0  0  0  0  0  0
   38.7400   -0.9760   14.6240 C   0  0  0  0  0  0  0  0  0  0  0  0
   38.8180    0.1800   15.6350 N   0  0  0  0  0  0  0  0  0  0  0  0
   37.8320   -0.0540   16.7620 C   0  0  0  0  0  0  0  0  0  0  0  0
   37.9880    1.0220   17.8250 C   0  0  0  0  0  0  0  0  0  0  0  0
   37.8130    2.4140   17.2360 C   0  0  0  0  0  0  0  0  0  0  0  0
   38.7730    2.6320   16.0760 C   0  0  0  0  0  0  0  0  0  0  0  0
   38.6470    1.5500   15.0090 C   0  0  0  0  0  0  0  0  0  0  0  0
   36.9560   -1.1410   12.8270 C   0  0  2  0  0  0  0  0  0  0  0  0
   35.5970   -0.7500   12.6700 O   0  0  0  0  0  0  0  0  0  0  0  0
   37.2590   -2.4690   12.1550 C   0  0  1  0  0  0  0  0  0  0  0  0
   38.5900   -2.3910   11.6130 O   0  0  0  0  0  0  0  0  0  0  0  0
   36.4990   -5.8040   13.7280 C   0  0  0  0  0  0  0  0  0  0  0  0
   37.5700   -6.1140   14.2480 O   0  0  0  0  0  0  0  0  0  0  0  0
   35.4930   -6.7250   13.6160 N   0  0  0  0  0  0  0  0  0  0  0  0
   33.0543   -4.8777   12.1225 H   0  0  0  0  0  0  0  0  0  0  0  0
   34.8134   -3.2167   12.3055 H   0  0  0  0  0  0  0  0  0  0  0  0
   38.2045   -4.0376   13.2198 H   0  0  0  0  0  0  0  0  0  0  0  0
   36.6242   -0.7617   14.9313 H   0  0  0  0  0  0  0  0  0  0  0  0
   39.2611   -1.8489   15.0440 H   0  0  0  0  0  0  0  0  0  0  0  0
   39.2113   -0.6377   13.6894 H   0  0  0  0  0  0  0  0  0  0  0  0
   39.7630    0.1580   16.0460 H   0  0  0  0  0  0  0  0  0  0  0  0
   36.8079   -0.0239   16.3615 H   0  0  0  0  0  0  0  0  0  0  0  0
   38.0286   -1.0375   17.2138 H   0  0  0  0  0  0  0  0  0  0  0  0
   37.2294    0.8660   18.6062 H   0  0  0  0  0  0  0  0  0  0  0  0
   39.0019    0.9489   18.2453 H   0  0  0  0  0  0  0  0  0  0  0  0
   36.7798    2.5262   16.8756 H   0  0  0  0  0  0  0  0  0  0  0  0
   38.0278    3.1580   18.0172 H   0  0  0  0  0  0  0  0  0  0  0  0
   38.5573    3.6081   15.6171 H   0  0  0  0  0  0  0  0  0  0  0  0
   39.7973    2.5931   16.4752 H   0  0  0  0  0  0  0  0  0  0  0  0
   37.6539    1.6147   14.5405 H   0  0  0  0  0  0  0  0  0  0  0  0
   39.4289    1.6996   14.2499 H   0  0  0  0  0  0  0  0  0  0  0  0
   37.5423   -0.3244   12.3803 H   0  0  0  0  0  0  0  0  0  0  0  0
   35.4470   -0.4570   11.7410 H   0  0  0  0  0  0  0  0  0  0  0  0
   36.5496   -2.7278   11.3551 H   0  0  0  0  0  0  0  0  0  0  0  0
   39.1970   -2.7150   12.3080 H   0  0  0  0  0  0  0  0  0  0  0  0
   35.6730   -7.6550   13.9640 H   0  0  0  0  0  0  0  0  0  0  0  0
  1  2  2  0
  2  3  1  0
  3  4  2  0
  4  5  1  0
  5  6  1  0
  6  7  1  0
  7  8  1  0
  8  9  1  0
  9 10  1  0
 10 11  1  0
 11 12  1  0
 12 13  1  0
 13 14  1  0
 14 15  1  0
  8 16  1  0
 16 17  1  0
 16 18  1  0
 18 19  1  0
  5 20  1  0
 20 21  2  0
 20 22  1  0
 22  2  1  0
 18  6  1  0
 15 10  1  0
  3 23  1  0
  4 24  1  0
  6 25  1  1
  8 26  1  1
  9 27  1  0
  9 28  1  0
 10 29  1  0
 11 30  1  0
 11 31  1  0
 12 32  1  0
 12 33  1  0
 13 34  1  0
 13 35  1  0
 14 36  1  0
 14 37  1  0
 15 38  1  0
 15 39  1  0
 16 40  1  6
 17 41  1  0
 18 42  1  6
 19 43  1  0
 22 44  1  0
M  CHG  1  10   1
M  END
>  <meeko>  (8) 
{"is_sidechain": [false], "free_energy": -5.595, "intermolecular_energy": -6.83, "internal_energy": -0.614}

$$$$
3d6q_ligand
     RDKit          3D

 44 46  0  0  0  0  0  0  0  0999 V2000
   34.9510   -4.2600   11.4830 O   0  0  0  0  0  0  0  0  0  0  0  0
   35.5550   -3.2920   11.9240 C   0  0  0  0  0  0  0  0  0  0  0  0
   35.1490   -1.9210   11.5850 C   0  0  0  0  0  0  0  0  0  0  0  0
   35.8490   -0.8980   12.0800 C   0  0  0  0  0  0  0  0  0  0  0  0
   36.9460   -1.0860   12.9030 N   0  0  0  0  0  0  0  0  0  0  0  0
   37.6770    0.0800   13.3970 C   0  0  2  0  0  0  0  0  0  0  0  0
   37.4520    0.2100   14.8140 O   0  0  0  0  0  0  0  0  0  0  0  0
   37.2420    1.6020   15.1250 C   0  0  1  0  0  0  0  0  0  0  0  0
   38.5660    2.2150   15.6250 C   0  0  0  0  0  0  0  0  0  0  0  0
   39.2850    1.3070   16.6370 N   0  0  0  0  0  0  0  0  0  0  0  0
   39.2250    1.9270   18.0180 C   0  0  0  0  0  0  0  0  0  0  0  0
   39.8280    0.9800   19.0430 C   0  0  0  0  0  0  0  0  0  0  0  0
   41.2590    0.6070   18.6810 C   0  0  0  0  0  0  0  0  0  0  0  0
   41.3240    0.0250   17.2760 C   0  0  0  0  0  0  0  0  0  0  0  0
   40.7040    0.9520   16.2370 C   0  0  0  0  0  0  0  0  0  0  0  0
   36.7630    2.2780   13.8410 C   0  0  2  0  0  0  0  0  0  0  0  0
   35.3420    2.3300   13.7990 O   0  0  0  0  0  0  0  0  0  0  0  0
   37.3460    1.4280   12.7240 C   0  0  1  0  0  0  0  0  0  0  0  0
   38.5720    2.0490   12.2980 O   0  0  0  0  0  0  0  0  0  0  0  0
   37.3640   -2.3600   13.2610 C   0  0  0  0  0  0  0  0  0  0  0  0
   38.3220   -2.5770   14.0010 O   0  0  0  0  0  0  0  0  0  0  0  0
   36.6360   -3.3990   12.7490 N   0  0  0  0  0  0  0  0  0  0  0  0
   34.2814   -1.7406   10.9332 H   0  0  0  0  0  0  0  0  0  0  0  0
   35.5442    0.1279   11.8257 H   0  0  0  0  0  0  0  0  0  0  0  0
   38.7284   -0.1212   13.1441 H   0  0  0  0  0  0  0  0  0  0  0  0
   36.4928    1.7383   15.9188 H   0  0  0  0  0  0  0  0  0  0  0  0
   39.2287    2.3771   14.7621 H   0  0  0  0  0  0  0  0  0  0  0  0
   38.3278    3.1615   16.1324 H   0  0  0  0  0  0  0  0  0  0  0  0
   38.7580    0.4230   16.6750 H   0  0  0  0  0  0  0  0  0  0  0  0
   39.7902    2.8707   18.0179 H   0  0  0  0  0  0  0  0  0  0  0  0
   38.1743    2.1197   18.2805 H   0  0  0  0  0  0  0  0  0  0  0  0
   39.8241    1.4694   20.0281 H   0  0  0  0  0  0  0  0  0  0  0  0
   39.2248    0.0603   19.0614 H   0  0  0  0  0  0  0  0  0  0  0  0
   41.8898    1.5069   18.7287 H   0  0  0  0  0  0  0  0  0  0  0  0
   41.6187   -0.1493   19.3942 H   0  0  0  0  0  0  0  0  0  0  0  0
   42.3781   -0.1469   17.0127 H   0  0  0  0  0  0  0  0  0  0  0  0
   40.7513   -0.9141   17.2738 H   0  0  0  0  0  0  0  0  0  0  0  0
   41.3031    1.8718   16.1662 H   0  0  0  0  0  0  0  0  0  0  0  0
   40.6867    0.4412   15.2630 H   0  0  0  0  0  0  0  0  0  0  0  0
   37.0904    3.3249   13.7588 H   0  0  0  0  0  0  0  0  0  0  0  0
   35.0140    2.9010   14.5330 H   0  0  0  0  0  0  0  0  0  0  0  0
   36.6729    1.3127   11.8617 H   0  0  0  0  0  0  0  0  0  0  0  0
   38.3370    2.6810   11.5900 H   0  0  0  0  0  0  0  0  0  0  0  0
   36.9260   -4.3340   12.9940 H   0  0  0  0  0  0  0  0  0  0  0  0
  1  2  2  0
  2  3  1  0
  3  4  2  0
  4  5  1  0
  5  6  1  0
  6  7  1  0
  7  8  1  0
  8  9  1  0
  9 10  1  0
 10 11  1  0
 11 12  1  0
 12 13  1  0
 13 14  1  0
 14 15  1  0
  8 16  1  0
 16 17  1  0
 16 18  1  0
 18 19  1  0
  5 20  1  0
 20 21  2  0
 20 22  1  0
 22  2  1  0
 18  6  1  0
 15 10  1  0
  3 23  1  0
  4 24  1  0
  6 25  1  1
  8 26  1  1
  9 27  1  0
  9 28  1  0
 10 29  1  0
 11 30  1  0
 11 31  1  0
 12 32  1  0
 12 33  1  0
 13 34  1  0
 13 35  1  0
 14 36  1  0
 14 37  1  0
 15 38  1  0
 15 39  1  0
 16 40  1  6
 17 41  1  0
 18 42  1  6
 19 43  1  0
 22 44  1  0
M  CHG  1  10   1
M  END
>  <meeko>  (9) 
{"is_sidechain": [false], "free_energy": -5.439, "intermolecular_energy": -6.699, "internal_energy": -0.553}

$$$$
