1a30_ligand
     RDKit          3D

 49 48  0  0  0  0  0  0  0  0999 V2000
    7.8470   25.4830    8.8050 C   0  0  0  0  0  0  0  0  0  0  0  0
    9.1690   26.2040    8.5180 C   0  0  0  0  0  0  0  0  0  0  0  0
   10.3090   25.1840    8.5000 C   0  0  0  0  0  0  0  0  0  0  0  0
    9.0610   26.9790    7.1880 C   0  0  0  0  0  0  0  0  0  0  0  0
    8.4460   26.1970    6.0120 C   0  0  2  0  0  0  0  0  0  0  0  0
    9.4960   25.5970    5.1640 N   0  0  0  0  0  0  0  0  0  0  0  0
    9.2690   24.6720    4.1750 C   0  0  0  0  0  0  0  0  0  0  0  0
    8.1580   24.1960    3.9360 O   0  0  0  0  0  0  0  0  0  0  0  0
   10.5260   24.2810    3.3650 C   0  0  2  0  0  0  0  0  0  0  0  0
   10.1200   23.4970    2.1140 C   0  0  0  0  0  0  0  0  0  0  0  0
   10.3390   22.0190    2.3620 C   0  0  0  0  0  0  0  0  0  0  0  0
   11.5150   21.5960    2.1080 O   0  0  0  0  0  0  0  0  0  0  0  0
    9.3460   21.3350    2.7140 O   0  0  0  0  0  0  0  0  0  0  0  0
   11.3970   23.4800    4.2330 N   0  0  0  0  0  0  0  0  0  0  0  0
   12.4800   24.0340    4.8830 C   0  0  0  0  0  0  0  0  0  0  0  0
   12.5600   25.2250    5.1710 O   0  0  0  0  0  0  0  0  0  0  0  0
   13.6340   23.0310    5.1270 C   0  0  1  0  0  0  0  0  0  0  0  0
   14.8870   23.7700    5.4230 N   0  0  0  0  0  0  0  0  0  0  0  0
   13.3030   22.0620    6.2810 C   0  0  0  0  0  0  0  0  0  0  0  0
   12.6700   22.6460    7.5460 C   0  0  0  0  0  0  0  0  0  0  0  0
   13.6650   22.7250    8.6950 C   0  0  0  0  0  0  0  0  0  0  0  0
   14.5990   23.5590    8.4830 O   0  0  0  0  0  0  0  0  0  0  0  0
   13.4700   21.9450    9.6550 O   0  0  0  0  0  0  0  0  0  0  0  0
    7.5900   27.2500    5.2240 C   0  0  0  0  0  0  0  0  0  0  0  0
    8.2190   27.9760    4.4000 O   0  0  0  0  0  0  0  0  0  0  0  0
    6.3540   27.2470    5.5180 O   0  0  0  0  0  0  0  0  0  0  0  0
    7.7013   25.4035    9.8924 H   0  0  0  0  0  0  0  0  0  0  0  0
    7.0155   26.0526    8.3643 H   0  0  0  0  0  0  0  0  0  0  0  0
    7.8756   24.4756    8.3643 H   0  0  0  0  0  0  0  0  0  0  0  0
    9.3849   26.9364    9.3099 H   0  0  0  0  0  0  0  0  0  0  0  0
   10.5913   24.9314    9.5327 H   0  0  0  0  0  0  0  0  0  0  0  0
    9.9788   24.2743    7.9772 H   0  0  0  0  0  0  0  0  0  0  0  0
   11.1766   25.6129    7.9772 H   0  0  0  0  0  0  0  0  0  0  0  0
    8.4399   27.8696    7.3643 H   0  0  0  0  0  0  0  0  0  0  0  0
   10.0940   27.2105    6.8890 H   0  0  0  0  0  0  0  0  0  0  0  0
    7.8290   25.3529    6.3538 H   0  0  0  0  0  0  0  0  0  0  0  0
   10.3470   26.1600    5.1590 H   0  0  0  0  0  0  0  0  0  0  0  0
   11.0670   25.1790    3.0320 H   0  0  0  0  0  0  0  0  0  0  0  0
    9.0580   23.6800    1.8933 H   0  0  0  0  0  0  0  0  0  0  0  0
   10.7295   23.8233    1.2584 H   0  0  0  0  0  0  0  0  0  0  0  0
   11.3970   22.4900    4.0080 H   0  0  0  0  0  0  0  0  0  0  0  0
   13.7679   22.4326    4.2138 H   0  0  0  0  0  0  0  0  0  0  0  0
   15.0510   24.5770    4.7660 H   0  0  0  0  0  0  0  0  0  0  0  0
   14.9080   24.2140    6.3390 H   0  0  0  0  0  0  0  0  0  0  0  0
   15.7050   23.1230    5.3180 H   0  0  0  0  0  0  0  0  0  0  0  0
   12.6081   21.3066    5.8855 H   0  0  0  0  0  0  0  0  0  0  0  0
   14.2809   21.6819    6.6116 H   0  0  0  0  0  0  0  0  0  0  0  0
   12.3018   23.6586    7.3243 H   0  0  0  0  0  0  0  0  0  0  0  0
   11.8477   21.9829    7.8526 H   0  0  0  0  0  0  0  0  0  0  0  0
  1  2  1  0
  2  3  1  0
  2  4  1  0
  4  5  1  0
  5  6  1  0
  6  7  1  0
  7  8  2  0
  7  9  1  0
  9 10  1  0
 10 11  1  0
 11 12  2  0
 11 13  1  0
  9 14  1  0
 14 15  1  0
 15 16  2  0
 15 17  1  0
 17 18  1  0
 17 19  1  0
 19 20  1  0
 20 21  1  0
 21 22  2  0
 21 23  1  0
  5 24  1  0
 24 25  2  0
 24 26  1  0
  1 27  1  0
  1 28  1  0
  1 29  1  0
  2 30  1  0
  3 31  1  0
  3 32  1  0
  3 33  1  0
  4 34  1  0
  4 35  1  0
  5 36  1  1
  6 37  1  0
  9 38  1  6
 10 39  1  0
 10 40  1  0
 14 41  1  0
 17 42  1  6
 18 43  1  0
 18 44  1  0
 18 45  1  0
 19 46  1  0
 19 47  1  0
 20 48  1  0
 20 49  1  0
M  CHG  4  13  -1  18   1  23  -1  26  -1
M  END
>  <meeko>  (1) 
{"is_sidechain": [false], "free_energy": -7.079, "intermolecular_energy": -12.251, "internal_energy": -2.023}

$$$$
1a30_ligand
     RDKit          3D

 49 48  0  0  0  0  0  0  0  0999 V2000
   14.5240   18.0780    2.7510 C   0  0  0  0  0  0  0  0  0  0  0  0
   15.9750   17.8970    3.2080 C   0  0  0  0  0  0  0  0  0  0  0  0
   16.8010   17.3180    2.0590 C   0  0  0  0  0  0  0  0  0  0  0  0
   16.5360   19.2460    3.7050 C   0  0  0  0  0  0  0  0  0  0  0  0
   16.7240   19.3660    5.2290 C   0  0  2  0  0  0  0  0  0  0  0  0
   16.2300   20.6660    5.7260 N   0  0  0  0  0  0  0  0  0  0  0  0
   15.8570   20.9170    7.0240 C   0  0  0  0  0  0  0  0  0  0  0  0
   15.8360   20.0510    7.9000 O   0  0  0  0  0  0  0  0  0  0  0  0
   15.4760   22.3880    7.3060 C   0  0  2  0  0  0  0  0  0  0  0  0
   15.4800   22.6490    8.8150 C   0  0  0  0  0  0  0  0  0  0  0  0
   14.0580   22.5910    9.3320 C   0  0  0  0  0  0  0  0  0  0  0  0
   13.3960   23.6760    9.2170 O   0  0  0  0  0  0  0  0  0  0  0  0
   13.6840   21.5300    9.8890 O   0  0  0  0  0  0  0  0  0  0  0  0
   14.1490   22.6340    6.7290 N   0  0  0  0  0  0  0  0  0  0  0  0
   13.9900   23.3100    5.5380 C   0  0  0  0  0  0  0  0  0  0  0  0
   14.8570   23.3620    4.6680 O   0  0  0  0  0  0  0  0  0  0  0  0
   12.6540   24.0870    5.4400 C   0  0  1  0  0  0  0  0  0  0  0  0
   12.6630   24.9510    4.2340 N   0  0  0  0  0  0  0  0  0  0  0  0
   11.4480   23.1260    5.3970 C   0  0  0  0  0  0  0  0  0  0  0  0
   11.5270   21.9200    4.4580 C   0  0  0  0  0  0  0  0  0  0  0  0
   10.7770   22.1620    3.1560 C   0  0  0  0  0  0  0  0  0  0  0  0
   11.4030   22.9290    2.3610 O   0  0  0  0  0  0  0  0  0  0  0  0
    9.6480   21.6300    3.0570 O   0  0  0  0  0  0  0  0  0  0  0  0
   18.2660   19.1970    5.4650 C   0  0  0  0  0  0  0  0  0  0  0  0
   18.9160   20.2610    5.6820 O   0  0  0  0  0  0  0  0  0  0  0  0
   18.6780   17.9970    5.4040 O   0  0  0  0  0  0  0  0  0  0  0  0
   13.8697   18.1596    3.6315 H   0  0  0  0  0  0  0  0  0  0  0  0
   14.4414   18.9934    2.1467 H   0  0  0  0  0  0  0  0  0  0  0  0
   14.2190   17.2109    2.1467 H   0  0  0  0  0  0  0  0  0  0  0  0
   16.0251   17.1887    4.0481 H   0  0  0  0  0  0  0  0  0  0  0  0
   17.6373   16.7318    2.4677 H   0  0  0  0  0  0  0  0  0  0  0  0
   16.1645   16.6674    1.4413 H   0  0  0  0  0  0  0  0  0  0  0  0
   17.1955   18.1383    1.4413 H   0  0  0  0  0  0  0  0  0  0  0  0
   17.5158   19.4012    3.2296 H   0  0  0  0  0  0  0  0  0  0  0  0
   15.7858   20.0031    3.4332 H   0  0  0  0  0  0  0  0  0  0  0  0
   16.1486   18.6064    5.7785 H   0  0  0  0  0  0  0  0  0  0  0  0
   16.4930   21.4340    5.1070 H   0  0  0  0  0  0  0  0  0  0  0  0
   16.2061   23.0722    6.8492 H   0  0  0  0  0  0  0  0  0  0  0  0
   16.0869   21.8828    9.3197 H   0  0  0  0  0  0  0  0  0  0  0  0
   15.9078   23.6419    9.0181 H   0  0  0  0  0  0  0  0  0  0  0  0
   13.4010   22.6410    7.4160 H   0  0  0  0  0  0  0  0  0  0  0  0
   12.5535   24.7137    6.3384 H   0  0  0  0  0  0  0  0  0  0  0  0
   13.5680   24.8950    3.6980 H   0  0  0  0  0  0  0  0  0  0  0  0
   11.9670   24.7050    3.5330 H   0  0  0  0  0  0  0  0  0  0  0  0
   12.5440   25.9520    4.5230 H   0  0  0  0  0  0  0  0  0  0  0  0
   11.3011   22.7388    6.4161 H   0  0  0  0  0  0  0  0  0  0  0  0
   10.6242   23.7347    4.9959 H   0  0  0  0  0  0  0  0  0  0  0  0
   12.5834   21.7180    4.2272 H   0  0  0  0  0  0  0  0  0  0  0  0
   11.0600   21.0629    4.9652 H   0  0  0  0  0  0  0  0  0  0  0  0
  1  2  1  0
  2  3  1  0
  2  4  1  0
  4  5  1  0
  5  6  1  0
  6  7  1  0
  7  8  2  0
  7  9  1  0
  9 10  1  0
 10 11  1  0
 11 12  2  0
 11 13  1  0
  9 14  1  0
 14 15  1  0
 15 16  2  0
 15 17  1  0
 17 18  1  0
 17 19  1  0
 19 20  1  0
 20 21  1  0
 21 22  2  0
 21 23  1  0
  5 24  1  0
 24 25  2  0
 24 26  1  0
  1 27  1  0
  1 28  1  0
  1 29  1  0
  2 30  1  0
  3 31  1  0
  3 32  1  0
  3 33  1  0
  4 34  1  0
  4 35  1  0
  5 36  1  1
  6 37  1  0
  9 38  1  6
 10 39  1  0
 10 40  1  0
 14 41  1  0
 17 42  1  1
 18 43  1  0
 18 44  1  0
 18 45  1  0
 19 46  1  0
 19 47  1  0
 20 48  1  0
 20 49  1  0
M  CHG  4  13  -1  18   1  23  -1  26  -1
M  END
>  <meeko>  (2) 
{"is_sidechain": [false], "free_energy": -7.054, "intermolecular_energy": -12.323, "internal_energy": -1.909}

$$$$
1a30_ligand
     RDKit          3D

 49 48  0  0  0  0  0  0  0  0999 V2000
   14.0180   22.7630   10.2700 C   0  0  0  0  0  0  0  0  0  0  0  0
   13.9710   23.2250    8.8090 C   0  0  0  0  0  0  0  0  0  0  0  0
   15.3970   23.3450    8.2690 C   0  0  0  0  0  0  0  0  0  0  0  0
   13.1150   22.2440    7.9800 C   0  0  0  0  0  0  0  0  0  0  0  0
   12.5810   22.7940    6.6450 C   0  0  2  0  0  0  0  0  0  0  0  0
   11.4490   23.7190    6.8650 N   0  0  0  0  0  0  0  0  0  0  0  0
   11.3740   24.9950    6.3650 C   0  0  0  0  0  0  0  0  0  0  0  0
   12.2850   25.5270    5.7280 O   0  0  0  0  0  0  0  0  0  0  0  0
   10.0380   25.7170    6.6530 C   0  0  2  0  0  0  0  0  0  0  0  0
    9.0490   24.7470    7.3080 C   0  0  0  0  0  0  0  0  0  0  0  0
    8.6540   25.2840    8.6670 C   0  0  0  0  0  0  0  0  0  0  0  0
    9.5480   25.9790    9.2550 O   0  0  0  0  0  0  0  0  0  0  0  0
    7.5350   24.9430    9.1250 O   0  0  0  0  0  0  0  0  0  0  0  0
    9.5130   26.2290    5.3810 N   0  0  0  0  0  0  0  0  0  0  0  0
    8.4390   27.0920    5.3360 C   0  0  0  0  0  0  0  0  0  0  0  0
    8.1280   27.8360    6.2630 O   0  0  0  0  0  0  0  0  0  0  0  0
    7.5970   26.9640    4.0420 C   0  0  1  0  0  0  0  0  0  0  0  0
    8.1720   27.8290    2.9820 N   0  0  0  0  0  0  0  0  0  0  0  0
    7.5300   25.5020    3.5570 C   0  0  0  0  0  0  0  0  0  0  0  0
    8.2650   25.1420    2.2640 C   0  0  0  0  0  0  0  0  0  0  0  0
    9.4380   24.2070    2.5180 C   0  0  0  0  0  0  0  0  0  0  0  0
    9.4380   23.7220    3.6920 O   0  0  0  0  0  0  0  0  0  0  0  0
   10.2590   24.0760    1.5810 O   0  0  0  0  0  0  0  0  0  0  0  0
   12.1500   21.5280    5.8240 C   0  0  0  0  0  0  0  0  0  0  0  0
   11.1710   20.8710    6.2850 O   0  0  0  0  0  0  0  0  0  0  0  0
   12.8490   21.3140    4.7860 O   0  0  0  0  0  0  0  0  0  0  0  0
   13.9292   23.6358   10.9336 H   0  0  0  0  0  0  0  0  0  0  0  0
   13.1857   22.0700   10.4624 H   0  0  0  0  0  0  0  0  0  0  0  0
   14.9728   22.2518   10.4624 H   0  0  0  0  0  0  0  0  0  0  0  0
   13.4995   24.2162    8.7364 H   0  0  0  0  0  0  0  0  0  0  0  0
   16.1037   23.4045    9.1099 H   0  0  0  0  0  0  0  0  0  0  0  0
   15.6317   22.4634    7.6544 H   0  0  0  0  0  0  0  0  0  0  0  0
   15.4811   24.2534    7.6544 H   0  0  0  0  0  0  0  0  0  0  0  0
   13.7310   21.3596    7.7599 H   0  0  0  0  0  0  0  0  0  0  0  0
   12.2279   22.0258    8.5927 H   0  0  0  0  0  0  0  0  0  0  0  0
   13.3387   23.3822    6.1065 H   0  0  0  0  0  0  0  0  0  0  0  0
   10.6020   23.2220    7.1420 H   0  0  0  0  0  0  0  0  0  0  0  0
   10.1925   26.5542    7.3496 H   0  0  0  0  0  0  0  0  0  0  0  0
    8.1540   24.6508    6.6757 H   0  0  0  0  0  0  0  0  0  0  0  0
    9.5197   23.7594    7.4226 H   0  0  0  0  0  0  0  0  0  0  0  0
    9.7100   25.6280    4.5880 H   0  0  0  0  0  0  0  0  0  0  0  0
    6.5708   27.2909    4.2657 H   0  0  0  0  0  0  0  0  0  0  0  0
    7.4380   28.2410    2.3480 H   0  0  0  0  0  0  0  0  0  0  0  0
    8.6630   28.6510    3.3270 H   0  0  0  0  0  0  0  0  0  0  0  0
    8.8090   27.2580    2.3760 H   0  0  0  0  0  0  0  0  0  0  0  0
    7.9466   24.8721    4.3568 H   0  0  0  0  0  0  0  0  0  0  0  0
    6.4674   25.3367    3.3254 H   0  0  0  0  0  0  0  0  0  0  0  0
    7.5592   24.6488    1.5795 H   0  0  0  0  0  0  0  0  0  0  0  0
    8.6590   26.0712    1.8266 H   0  0  0  0  0  0  0  0  0  0  0  0
  1  2  1  0
  2  3  1  0
  2  4  1  0
  4  5  1  0
  5  6  1  0
  6  7  1  0
  7  8  2  0
  7  9  1  0
  9 10  1  0
 10 11  1  0
 11 12  2  0
 11 13  1  0
  9 14  1  0
 14 15  1  0
 15 16  2  0
 15 17  1  0
 17 18  1  0
 17 19  1  0
 19 20  1  0
 20 21  1  0
 21 22  2  0
 21 23  1  0
  5 24  1  0
 24 25  2  0
 24 26  1  0
  1 27  1  0
  1 28  1  0
  1 29  1  0
  2 30  1  0
  3 31  1  0
  3 32  1  0
  3 33  1  0
  4 34  1  0
  4 35  1  0
  5 36  1  6
  6 37  1  0
  9 38  1  1
 10 39  1  0
 10 40  1  0
 14 41  1  0
 17 42  1  1
 18 43  1  0
 18 44  1  0
 18 45  1  0
 19 46  1  0
 19 47  1  0
 20 48  1  0
 20 49  1  0
M  CHG  4  13  -1  18   1  23  -1  26  -1
M  END
>  <meeko>  (3) 
{"is_sidechain": [false], "free_energy": -7.027, "intermolecular_energy": -12.519, "internal_energy": -1.666}

$$$$
1a30_ligand
     RDKit          3D

 49 48  0  0  0  0  0  0  0  0999 V2000
   16.6970   17.3760    2.1690 C   0  0  0  0  0  0  0  0  0  0  0  0
   15.6450   18.3750    2.6640 C   0  0  0  0  0  0  0  0  0  0  0  0
   14.6730   17.6630    3.6060 C   0  0  0  0  0  0  0  0  0  0  0  0
   16.3430   19.5710    3.3430 C   0  0  0  0  0  0  0  0  0  0  0  0
   16.1430   19.6810    4.8660 C   0  0  2  0  0  0  0  0  0  0  0  0
   15.6570   21.0240    5.2440 N   0  0  0  0  0  0  0  0  0  0  0  0
   14.3340   21.3820    5.3280 C   0  0  0  0  0  0  0  0  0  0  0  0
   13.4080   20.6250    5.0290 O   0  0  0  0  0  0  0  0  0  0  0  0
   14.0920   22.8180    5.8450 C   0  0  2  0  0  0  0  0  0  0  0  0
   14.7630   23.0030    7.2090 C   0  0  0  0  0  0  0  0  0  0  0  0
   14.1980   21.9900    8.1820 C   0  0  0  0  0  0  0  0  0  0  0  0
   13.0640   22.2940    8.6820 O   0  0  0  0  0  0  0  0  0  0  0  0
   14.9110   20.9970    8.4690 O   0  0  0  0  0  0  0  0  0  0  0  0
   12.6420   23.0320    5.9350 N   0  0  0  0  0  0  0  0  0  0  0  0
   12.0770   24.2680    5.7050 C   0  0  0  0  0  0  0  0  0  0  0  0
   12.5990   25.1320    5.0030 O   0  0  0  0  0  0  0  0  0  0  0  0
   10.7660   24.5060    6.4950 C   0  0  1  0  0  0  0  0  0  0  0  0
   11.0310   24.3910    7.9510 N   0  0  0  0  0  0  0  0  0  0  0  0
   10.1590   25.8870    6.1730 C   0  0  0  0  0  0  0  0  0  0  0  0
    8.8310   26.2580    6.8380 C   0  0  0  0  0  0  0  0  0  0  0  0
    8.9980   27.3720    7.8610 C   0  0  0  0  0  0  0  0  0  0  0  0
    9.5750   26.9830    8.9240 O   0  0  0  0  0  0  0  0  0  0  0  0
    8.5160   28.4860    7.5540 O   0  0  0  0  0  0  0  0  0  0  0  0
   17.5500   19.3720    5.4870 C   0  0  0  0  0  0  0  0  0  0  0  0
   18.4680   19.0740    4.6690 O   0  0  0  0  0  0  0  0  0  0  0  0
   17.5940   19.4570    6.7540 O   0  0  0  0  0  0  0  0  0  0  0  0
   17.1915   16.9064    3.0321 H   0  0  0  0  0  0  0  0  0  0  0  0
   16.2088   16.6011    1.5598 H   0  0  0  0  0  0  0  0  0  0  0  0
   17.4457   17.9036    1.5598 H   0  0  0  0  0  0  0  0  0  0  0  0
   15.0639   18.7696    1.8175 H   0  0  0  0  0  0  0  0  0  0  0  0
   14.9553   17.8698    4.6489 H   0  0  0  0  0  0  0  0  0  0  0  0
   13.6516   18.0281    3.4233 H   0  0  0  0  0  0  0  0  0  0  0  0
   14.7131   16.5790    3.4233 H   0  0  0  0  0  0  0  0  0  0  0  0
   17.4225   19.4878    3.1485 H   0  0  0  0  0  0  0  0  0  0  0  0
   15.8818   20.4724    2.9130 H   0  0  0  0  0  0  0  0  0  0  0  0
   15.3796   18.9802    5.2349 H   0  0  0  0  0  0  0  0  0  0  0  0
   16.3680   21.5590    5.7420 H   0  0  0  0  0  0  0  0  0  0  0  0
   14.5295   23.5564    5.1570 H   0  0  0  0  0  0  0  0  0  0  0  0
   15.8480   22.8520    7.1090 H   0  0  0  0  0  0  0  0  0  0  0  0
   14.5710   24.0203    7.5809 H   0  0  0  0  0  0  0  0  0  0  0  0
   12.1690   22.3660    6.5370 H   0  0  0  0  0  0  0  0  0  0  0  0
   10.0374   23.7395    6.1925 H   0  0  0  0  0  0  0  0  0  0  0  0
   10.9320   23.4040    8.3070 H   0  0  0  0  0  0  0  0  0  0  0  0
   11.9770   24.6410    8.2290 H   0  0  0  0  0  0  0  0  0  0  0  0
   10.3360   24.9730    8.4770 H   0  0  0  0  0  0  0  0  0  0  0  0
   10.8973   26.6466    6.4694 H   0  0  0  0  0  0  0  0  0  0  0  0
    9.9268   25.8427    5.0987 H   0  0  0  0  0  0  0  0  0  0  0  0
    8.1260   26.5910    6.0621 H   0  0  0  0  0  0  0  0  0  0  0  0
    8.4533   25.3682    7.3629 H   0  0  0  0  0  0  0  0  0  0  0  0
  1  2  1  0
  2  3  1  0
  2  4  1  0
  4  5  1  0
  5  6  1  0
  6  7  1  0
  7  8  2  0
  7  9  1  0
  9 10  1  0
 10 11  1  0
 11 12  2  0
 11 13  1  0
  9 14  1  0
 14 15  1  0
 15 16  2  0
 15 17  1  0
 17 18  1  0
 17 19  1  0
 19 20  1  0
 20 21  1  0
 21 22  2  0
 21 23  1  0
  5 24  1  0
 24 25  2  0
 24 26  1  0
  1 27  1  0
  1 28  1  0
  1 29  1  0
  2 30  1  0
  3 31  1  0
  3 32  1  0
  3 33  1  0
  4 34  1  0
  4 35  1  0
  5 36  1  1
  6 37  1  0
  9 38  1  6
 10 39  1  0
 10 40  1  0
 14 41  1  0
 17 42  1  6
 18 43  1  0
 18 44  1  0
 18 45  1  0
 19 46  1  0
 19 47  1  0
 20 48  1  0
 20 49  1  0
M  CHG  4  13  -1  18   1  23  -1  26  -1
M  END
>  <meeko>  (4) 
{"is_sidechain": [false], "free_energy": -6.89, "intermolecular_energy": -11.997, "internal_energy": -1.951}

$$$$
1a30_ligand
     RDKit          3D

 49 48  0  0  0  0  0  0  0  0999 V2000
    9.2350   26.4600    6.7110 C   0  0  0  0  0  0  0  0  0  0  0  0
    9.9190   26.0270    8.0120 C   0  0  0  0  0  0  0  0  0  0  0  0
    8.9530   26.2170    9.1820 C   0  0  0  0  0  0  0  0  0  0  0  0
   10.3990   24.5660    7.8850 C   0  0  0  0  0  0  0  0  0  0  0  0
   11.6830   24.3580    7.0610 C   0  0  2  0  0  0  0  0  0  0  0  0
   11.3790   23.7690    5.7410 N   0  0  0  0  0  0  0  0  0  0  0  0
   12.0330   24.0840    4.5750 C   0  0  0  0  0  0  0  0  0  0  0  0
   12.9080   24.9490    4.5030 O   0  0  0  0  0  0  0  0  0  0  0  0
   11.5930   23.2510    3.3500 C   0  0  2  0  0  0  0  0  0  0  0  0
   10.2710   22.5380    3.6490 C   0  0  0  0  0  0  0  0  0  0  0  0
    9.5960   22.1760    2.3430 C   0  0  0  0  0  0  0  0  0  0  0  0
    8.4780   22.7540    2.1330 O   0  0  0  0  0  0  0  0  0  0  0  0
   10.1420   21.2980    1.6290 O   0  0  0  0  0  0  0  0  0  0  0  0
   12.6590   22.2860    3.0480 N   0  0  0  0  0  0  0  0  0  0  0  0
   13.1110   21.3880    3.9910 C   0  0  0  0  0  0  0  0  0  0  0  0
   12.4300   20.9980    4.9370 O   0  0  0  0  0  0  0  0  0  0  0  0
   14.5960   20.9910    3.8050 C   0  0  1  0  0  0  0  0  0  0  0  0
   15.4420   21.7480    4.7610 N   0  0  0  0  0  0  0  0  0  0  0  0
   14.8010   19.4750    4.0000 C   0  0  0  0  0  0  0  0  0  0  0  0
   15.6370   18.7250    2.9600 C   0  0  0  0  0  0  0  0  0  0  0  0
   17.1280   18.8160    3.2550 C   0  0  0  0  0  0  0  0  0  0  0  0
   17.3750   19.3150    4.3960 O   0  0  0  0  0  0  0  0  0  0  0  0
   17.9000   18.4450    2.3410 O   0  0  0  0  0  0  0  0  0  0  0  0
   12.5780   23.4070    7.9320 C   0  0  0  0  0  0  0  0  0  0  0  0
   13.3430   23.9730    8.7670 O   0  0  0  0  0  0  0  0  0  0  0  0
   12.4250   22.1710    7.6850 O   0  0  0  0  0  0  0  0  0  0  0  0
    8.3273   27.0346    6.9476 H   0  0  0  0  0  0  0  0  0  0  0  0
    9.9237   27.0870    6.1257 H   0  0  0  0  0  0  0  0  0  0  0  0
    8.9629   25.5693    6.1257 H   0  0  0  0  0  0  0  0  0  0  0  0
   10.8047   26.6505    8.2039 H   0  0  0  0  0  0  0  0  0  0  0  0
    9.5000   26.1094   10.1303 H   0  0  0  0  0  0  0  0  0  0  0  0
    8.5054   27.2204    9.1287 H   0  0  0  0  0  0  0  0  0  0  0  0
    8.1587   25.4579    9.1287 H   0  0  0  0  0  0  0  0  0  0  0  0
   10.5810   24.1800    8.8988 H   0  0  0  0  0  0  0  0  0  0  0  0
    9.6035   24.0334    7.3432 H   0  0  0  0  0  0  0  0  0  0  0  0
   12.1956   25.3073    6.8466 H   0  0  0  0  0  0  0  0  0  0  0  0
   10.8710   22.8890    5.8250 H   0  0  0  0  0  0  0  0  0  0  0  0
   11.4291   23.9011    2.4780 H   0  0  0  0  0  0  0  0  0  0  0  0
   10.4685   21.6234    4.2273 H   0  0  0  0  0  0  0  0  0  0  0  0
    9.6162   23.2017    4.2327 H   0  0  0  0  0  0  0  0  0  0  0  0
   13.2750   22.5820    2.2980 H   0  0  0  0  0  0  0  0  0  0  0  0
   14.8920   21.2413    2.7756 H   0  0  0  0  0  0  0  0  0  0  0  0
   15.8720   22.6090    4.3330 H   0  0  0  0  0  0  0  0  0  0  0  0
   14.9410   22.1190    5.5660 H   0  0  0  0  0  0  0  0  0  0  0  0
   16.2340   21.1410    5.0800 H   0  0  0  0  0  0  0  0  0  0  0  0
   15.2884   19.3333    4.9759 H   0  0  0  0  0  0  0  0  0  0  0  0
   13.7926   19.0460    3.9043 H   0  0  0  0  0  0  0  0  0  0  0  0
   15.3386   17.6662    2.9607 H   0  0  0  0  0  0  0  0  0  0  0  0
   15.4554   19.1884    1.9790 H   0  0  0  0  0  0  0  0  0  0  0  0
  1  2  1  0
  2  3  1  0
  2  4  1  0
  4  5  1  0
  5  6  1  0
  6  7  1  0
  7  8  2  0
  7  9  1  0
  9 10  1  0
 10 11  1  0
 11 12  2  0
 11 13  1  0
  9 14  1  0
 14 15  1  0
 15 16  2  0
 15 17  1  0
 17 18  1  0
 17 19  1  0
 19 20  1  0
 20 21  1  0
 21 22  2  0
 21 23  1  0
  5 24  1  0
 24 25  2  0
 24 26  1  0
  1 27  1  0
  1 28  1  0
  1 29  1  0
  2 30  1  0
  3 31  1  0
  3 32  1  0
  3 33  1  0
  4 34  1  0
  4 35  1  0
  5 36  1  6
  6 37  1  0
  9 38  1  6
 10 39  1  0
 10 40  1  0
 14 41  1  0
 17 42  1  6
 18 43  1  0
 18 44  1  0
 18 45  1  0
 19 46  1  0
 19 47  1  0
 20 48  1  0
 20 49  1  0
M  CHG  4  13  -1  18   1  23  -1  26  -1
M  END
>  <meeko>  (5) 
{"is_sidechain": [false], "free_energy": -6.883, "intermolecular_energy": -12.878, "internal_energy": -1.059}

$$$$
1a30_ligand
     RDKit          3D

 49 48  0  0  0  0  0  0  0  0999 V2000
   16.6930   17.2470    2.2740 C   0  0  0  0  0  0  0  0  0  0  0  0
   15.6500   18.3010    2.6630 C   0  0  0  0  0  0  0  0  0  0  0  0
   14.6140   17.6690    3.5940 C   0  0  0  0  0  0  0  0  0  0  0  0
   16.3520   19.5130    3.3090 C   0  0  0  0  0  0  0  0  0  0  0  0
   16.3210   19.5550    4.8480 C   0  0  2  0  0  0  0  0  0  0  0  0
   15.9990   20.9120    5.3380 N   0  0  0  0  0  0  0  0  0  0  0  0
   14.7350   21.3510    5.6470 C   0  0  0  0  0  0  0  0  0  0  0  0
   13.7230   20.6690    5.4840 O   0  0  0  0  0  0  0  0  0  0  0  0
   14.6820   22.7790    6.2370 C   0  0  2  0  0  0  0  0  0  0  0  0
   15.2740   22.7850    7.6490 C   0  0  0  0  0  0  0  0  0  0  0  0
   14.1480   22.7010    8.6590 C   0  0  0  0  0  0  0  0  0  0  0  0
   13.7070   21.5250    8.8810 O   0  0  0  0  0  0  0  0  0  0  0  0
   13.7020   23.7800    9.1230 O   0  0  0  0  0  0  0  0  0  0  0  0
   13.2800   23.2160    6.2480 N   0  0  0  0  0  0  0  0  0  0  0  0
   12.8380   24.2510    5.4520 C   0  0  0  0  0  0  0  0  0  0  0  0
   13.3860   24.5800    4.4030 O   0  0  0  0  0  0  0  0  0  0  0  0
   11.6430   25.0290    6.0560 C   0  0  1  0  0  0  0  0  0  0  0  0
   10.6510   25.3280    4.9940 N   0  0  0  0  0  0  0  0  0  0  0  0
   10.9760   24.2360    7.1990 C   0  0  0  0  0  0  0  0  0  0  0  0
   10.4450   25.0220    8.4010 C   0  0  0  0  0  0  0  0  0  0  0  0
    9.0180   25.5010    8.1810 C   0  0  0  0  0  0  0  0  0  0  0  0
    8.9480   26.5050    7.4060 O   0  0  0  0  0  0  0  0  0  0  0  0
    8.1230   24.8940    8.8130 O   0  0  0  0  0  0  0  0  0  0  0  0
   17.7520   19.0960    5.2990 C   0  0  0  0  0  0  0  0  0  0  0  0
   17.8810   17.8700    5.5850 O   0  0  0  0  0  0  0  0  0  0  0  0
   18.6170   20.0270    5.3250 O   0  0  0  0  0  0  0  0  0  0  0  0
   17.1276   16.8078    3.1841 H   0  0  0  0  0  0  0  0  0  0  0  0
   16.2115   16.4567    1.6794 H   0  0  0  0  0  0  0  0  0  0  0  0
   17.4883   17.7202    1.6794 H   0  0  0  0  0  0  0  0  0  0  0  0
   15.1210   18.6646    1.7697 H   0  0  0  0  0  0  0  0  0  0  0  0
   14.9045   17.8462    4.6400 H   0  0  0  0  0  0  0  0  0  0  0  0
   13.6285   18.1199    3.4058 H   0  0  0  0  0  0  0  0  0  0  0  0
   14.5639   16.5864    3.4058 H   0  0  0  0  0  0  0  0  0  0  0  0
   17.4051   19.5034    2.9915 H   0  0  0  0  0  0  0  0  0  0  0  0
   15.7949   20.3995    2.9717 H   0  0  0  0  0  0  0  0  0  0  0  0
   15.5402   18.9012    5.2639 H   0  0  0  0  0  0  0  0  0  0  0  0
   16.8180   21.3790    5.7270 H   0  0  0  0  0  0  0  0  0  0  0  0
   15.2774   23.4731    5.6256 H   0  0  0  0  0  0  0  0  0  0  0  0
   15.9437   21.9210    7.7713 H   0  0  0  0  0  0  0  0  0  0  0  0
   15.8454   23.7115    7.8073 H   0  0  0  0  0  0  0  0  0  0  0  0
   12.7940   23.0020    7.1120 H   0  0  0  0  0  0  0  0  0  0  0  0
   12.0236   25.9709    6.4778 H   0  0  0  0  0  0  0  0  0  0  0  0
   10.9840   26.0640    4.3190 H   0  0  0  0  0  0  0  0  0  0  0  0
   10.4340   24.5410    4.3860 H   0  0  0  0  0  0  0  0  0  0  0  0
    9.7720   25.6950    5.4330 H   0  0  0  0  0  0  0  0  0  0  0  0
   10.1269   23.6875    6.7652 H   0  0  0  0  0  0  0  0  0  0  0  0
   11.7839   23.6137    7.6113 H   0  0  0  0  0  0  0  0  0  0  0  0
   10.4692   24.3731    9.2889 H   0  0  0  0  0  0  0  0  0  0  0  0
   11.0839   25.9068    8.5385 H   0  0  0  0  0  0  0  0  0  0  0  0
  1  2  1  0
  2  3  1  0
  2  4  1  0
  4  5  1  0
  5  6  1  0
  6  7  1  0
  7  8  2  0
  7  9  1  0
  9 10  1  0
 10 11  1  0
 11 12  2  0
 11 13  1  0
  9 14  1  0
 14 15  1  0
 15 16  2  0
 15 17  1  0
 17 18  1  0
 17 19  1  0
 19 20  1  0
 20 21  1  0
 21 22  2  0
 21 23  1  0
  5 24  1  0
 24 25  2  0
 24 26  1  0
  1 27  1  0
  1 28  1  0
  1 29  1  0
  2 30  1  0
  3 31  1  0
  3 32  1  0
  3 33  1  0
  4 34  1  0
  4 35  1  0
  5 36  1  1
  6 37  1  0
  9 38  1  6
 10 39  1  0
 10 40  1  0
 14 41  1  0
 17 42  1  1
 18 43  1  0
 18 44  1  0
 18 45  1  0
 19 46  1  0
 19 47  1  0
 20 48  1  0
 20 49  1  0
M  CHG  4  13  -1  18   1  23  -1  26  -1
M  END
>  <meeko>  (6) 
{"is_sidechain": [false], "free_energy": -6.824, "intermolecular_energy": -11.914, "internal_energy": -1.92}

$$$$
1a30_ligand
     RDKit          3D

 49 48  0  0  0  0  0  0  0  0999 V2000
    8.2830   27.5700    9.4700 C   0  0  0  0  0  0  0  0  0  0  0  0
    9.0840   26.3890    8.9100 C   0  0  0  0  0  0  0  0  0  0  0  0
    8.1790   25.1590    8.8230 C   0  0  0  0  0  0  0  0  0  0  0  0
    9.6830   26.7690    7.5410 C   0  0  0  0  0  0  0  0  0  0  0  0
    9.2580   25.8780    6.3590 C   0  0  2  0  0  0  0  0  0  0  0  0
   10.4350   25.3360    5.6490 N   0  0  0  0  0  0  0  0  0  0  0  0
   11.2210   24.3090    6.1100 C   0  0  0  0  0  0  0  0  0  0  0  0
   11.0580   23.7710    7.2070 O   0  0  0  0  0  0  0  0  0  0  0  0
   12.3290   23.8630    5.1290 C   0  0  2  0  0  0  0  0  0  0  0  0
   11.7690   23.7850    3.7060 C   0  0  0  0  0  0  0  0  0  0  0  0
   11.4560   22.3410    3.3740 C   0  0  0  0  0  0  0  0  0  0  0  0
   10.3340   21.9160    3.8110 O   0  0  0  0  0  0  0  0  0  0  0  0
   12.3400   21.6750    2.7800 O   0  0  0  0  0  0  0  0  0  0  0  0
   12.8320   22.5570    5.5730 N   0  0  0  0  0  0  0  0  0  0  0  0
   14.1580   22.3640    5.9000 C   0  0  0  0  0  0  0  0  0  0  0  0
   14.8990   23.2660    6.2830 O   0  0  0  0  0  0  0  0  0  0  0  0
   14.6550   20.9200    5.6420 C   0  0  1  0  0  0  0  0  0  0  0  0
   13.5250   20.0750    5.1800 N   0  0  0  0  0  0  0  0  0  0  0  0
   15.7950   20.8950    4.6040 C   0  0  0  0  0  0  0  0  0  0  0  0
   16.7190   19.6750    4.5840 C   0  0  0  0  0  0  0  0  0  0  0  0
   16.6060   18.8970    3.2810 C   0  0  0  0  0  0  0  0  0  0  0  0
   15.4640   18.3660    3.1210 O   0  0  0  0  0  0  0  0  0  0  0  0
   17.6390   18.8400    2.5750 O   0  0  0  0  0  0  0  0  0  0  0  0
    8.3950   26.8070    5.4350 C   0  0  0  0  0  0  0  0  0  0  0  0
    8.0870   27.9380    5.9130 O   0  0  0  0  0  0  0  0  0  0  0  0
    8.1060   26.3020    4.3060 O   0  0  0  0  0  0  0  0  0  0  0  0
    8.3041   27.5389   10.5694 H   0  0  0  0  0  0  0  0  0  0  0  0
    8.7284   28.5134    9.1212 H   0  0  0  0  0  0  0  0  0  0  0  0
    7.2418   27.5051    9.1212 H   0  0  0  0  0  0  0  0  0  0  0  0
    9.9219   26.1434    9.5790 H   0  0  0  0  0  0  0  0  0  0  0  0
    7.9271   24.8166    9.8376 H   0  0  0  0  0  0  0  0  0  0  0  0
    7.2561   25.4202    8.2844 H   0  0  0  0  0  0  0  0  0  0  0  0
    8.7030   24.3556    8.2844 H   0  0  0  0  0  0  0  0  0  0  0  0
    9.3790   27.8013    7.3132 H   0  0  0  0  0  0  0  0  0  0  0  0
   10.7705   26.6379    7.6412 H   0  0  0  0  0  0  0  0  0  0  0  0
    8.6862   24.9983    6.6894 H   0  0  0  0  0  0  0  0  0  0  0  0
   10.4210   25.5700    4.6570 H   0  0  0  0  0  0  0  0  0  0  0  0
   13.1544   24.5901    5.1203 H   0  0  0  0  0  0  0  0  0  0  0  0
   10.8500   24.3858    3.6386 H   0  0  0  0  0  0  0  0  0  0  0  0
   12.5110   24.1760    2.9943 H   0  0  0  0  0  0  0  0  0  0  0  0
   12.2750   21.7740    5.2470 H   0  0  0  0  0  0  0  0  0  0  0  0
   15.0509   20.5191    6.5868 H   0  0  0  0  0  0  0  0  0  0  0  0
   13.3670   19.2330    5.7940 H   0  0  0  0  0  0  0  0  0  0  0  0
   12.6190   20.5390    5.1900 H   0  0  0  0  0  0  0  0  0  0  0  0
   13.7330   19.7140    4.2180 H   0  0  0  0  0  0  0  0  0  0  0  0
   15.3334   20.9726    3.6086 H   0  0  0  0  0  0  0  0  0  0  0  0
   16.4488   21.7314    4.8923 H   0  0  0  0  0  0  0  0  0  0  0  0
   17.7582   20.0143    4.7063 H   0  0  0  0  0  0  0  0  0  0  0  0
   16.4195   19.0078    5.4057 H   0  0  0  0  0  0  0  0  0  0  0  0
  1  2  1  0
  2  3  1  0
  2  4  1  0
  4  5  1  0
  5  6  1  0
  6  7  1  0
  7  8  2  0
  7  9  1  0
  9 10  1  0
 10 11  1  0
 11 12  2  0
 11 13  1  0
  9 14  1  0
 14 15  1  0
 15 16  2  0
 15 17  1  0
 17 18  1  0
 17 19  1  0
 19 20  1  0
 20 21  1  0
 21 22  2  0
 21 23  1  0
  5 24  1  0
 24 25  2  0
 24 26  1  0
  1 27  1  0
  1 28  1  0
  1 29  1  0
  2 30  1  0
  3 31  1  0
  3 32  1  0
  3 33  1  0
  4 34  1  0
  4 35  1  0
  5 36  1  1
  6 37  1  0
  9 38  1  6
 10 39  1  0
 10 40  1  0
 14 41  1  0
 17 42  1  1
 18 43  1  0
 18 44  1  0
 18 45  1  0
 19 46  1  0
 19 47  1  0
 20 48  1  0
 20 49  1  0
M  CHG  4  13  -1  18   1  23  -1  26  -1
M  END
>  <meeko>  (7) 
{"is_sidechain": [false], "free_energy": -6.733, "intermolecular_energy": -11.613, "internal_energy": -2.064}

$$$$
1a30_ligand
     RDKit          3D

 49 48  0  0  0  0  0  0  0  0999 V2000
    8.7120   27.6490    9.0360 C   0  0  0  0  0  0  0  0  0  0  0  0
    9.1360   26.1770    9.0650 C   0  0  0  0  0  0  0  0  0  0  0  0
    7.8910   25.2900    9.0650 C   0  0  0  0  0  0  0  0  0  0  0  0
   10.0630   25.8800    7.8680 C   0  0  0  0  0  0  0  0  0  0  0  0
    9.7360   24.6000    7.0770 C   0  0  2  0  0  0  0  0  0  0  0  0
   10.8290   23.6120    7.1870 N   0  0  0  0  0  0  0  0  0  0  0  0
   12.1370   23.8510    6.8450 C   0  0  0  0  0  0  0  0  0  0  0  0
   12.5220   24.9090    6.3430 O   0  0  0  0  0  0  0  0  0  0  0  0
   13.1020   22.6840    7.1530 C   0  0  2  0  0  0  0  0  0  0  0  0
   13.8250   22.9400    8.4790 C   0  0  0  0  0  0  0  0  0  0  0  0
   14.3140   21.6200    9.0400 C   0  0  0  0  0  0  0  0  0  0  0  0
   13.8440   21.3130   10.1850 O   0  0  0  0  0  0  0  0  0  0  0  0
   15.1800   20.9930    8.3810 O   0  0  0  0  0  0  0  0  0  0  0  0
   14.0560   22.5760    6.0420 N   0  0  0  0  0  0  0  0  0  0  0  0
   13.9470   21.5860    5.0890 C   0  0  0  0  0  0  0  0  0  0  0  0
   12.8870   21.0320    4.8050 O   0  0  0  0  0  0  0  0  0  0  0  0
   15.3060   21.1640    4.4770 C   0  0  1  0  0  0  0  0  0  0  0  0
   16.2590   20.8190    5.5610 N   0  0  0  0  0  0  0  0  0  0  0  0
   15.1420   19.9700    3.5140 C   0  0  0  0  0  0  0  0  0  0  0  0
   15.8700   18.6680    3.8570 C   0  0  0  0  0  0  0  0  0  0  0  0
   17.2430   18.5950    3.2040 C   0  0  0  0  0  0  0  0  0  0  0  0
   18.1770   18.9820    3.9730 O   0  0  0  0  0  0  0  0  0  0  0  0
   17.2710   18.2200    2.0090 O   0  0  0  0  0  0  0  0  0  0  0  0
    9.5260   25.0760    5.5960 C   0  0  0  0  0  0  0  0  0  0  0  0
    9.3570   26.3190    5.4290 O   0  0  0  0  0  0  0  0  0  0  0  0
    9.5490   24.1410    4.7360 O   0  0  0  0  0  0  0  0  0  0  0  0
    8.6051   28.0201   10.0660 H   0  0  0  0  0  0  0  0  0  0  0  0
    9.4763   28.2404    8.5106 H   0  0  0  0  0  0  0  0  0  0  0  0
    7.7502   27.7433    8.5106 H   0  0  0  0  0  0  0  0  0  0  0  0
    9.7022   25.9599    9.9828 H   0  0  0  0  0  0  0  0  0  0  0  0
    7.5924   25.0772   10.1021 H   0  0  0  0  0  0  0  0  0  0  0  0
    7.0712   25.8087    8.5465 H   0  0  0  0  0  0  0  0  0  0  0  0
    8.1135   24.3458    8.5465 H   0  0  0  0  0  0  0  0  0  0  0  0
   10.0036   26.7315    7.1741 H   0  0  0  0  0  0  0  0  0  0  0  0
   11.0650   25.7237    8.2940 H   0  0  0  0  0  0  0  0  0  0  0  0
    8.8416   24.0909    7.4654 H   0  0  0  0  0  0  0  0  0  0  0  0
   10.5940   22.8560    7.8310 H   0  0  0  0  0  0  0  0  0  0  0  0
   12.5483   21.7388    7.2536 H   0  0  0  0  0  0  0  0  0  0  0  0
   14.6822   23.6078    8.3082 H   0  0  0  0  0  0  0  0  0  0  0  0
   13.1341   23.4128    9.1926 H   0  0  0  0  0  0  0  0  0  0  0  0
   14.9630   22.9840    6.2430 H   0  0  0  0  0  0  0  0  0  0  0  0
   15.7004   22.0120    3.8979 H   0  0  0  0  0  0  0  0  0  0  0  0
   16.3070   21.5560    6.3120 H   0  0  0  0  0  0  0  0  0  0  0  0
   16.0200   19.9780    6.0820 H   0  0  0  0  0  0  0  0  0  0  0  0
   17.2240   20.7320    5.1600 H   0  0  0  0  0  0  0  0  0  0  0  0
   14.0679   19.7397    3.4577 H   0  0  0  0  0  0  0  0  0  0  0  0
   15.6065   20.3068    2.5755 H   0  0  0  0  0  0  0  0  0  0  0  0
   15.9918   18.6058    4.9485 H   0  0  0  0  0  0  0  0  0  0  0  0
   15.2671   17.8304    3.4763 H   0  0  0  0  0  0  0  0  0  0  0  0
  1  2  1  0
  2  3  1  0
  2  4  1  0
  4  5  1  0
  5  6  1  0
  6  7  1  0
  7  8  2  0
  7  9  1  0
  9 10  1  0
 10 11  1  0
 11 12  2  0
 11 13  1  0
  9 14  1  0
 14 15  1  0
 15 16  2  0
 15 17  1  0
 17 18  1  0
 17 19  1  0
 19 20  1  0
 20 21  1  0
 21 22  2  0
 21 23  1  0
  5 24  1  0
 24 25  2  0
 24 26  1  0
  1 27  1  0
  1 28  1  0
  1 29  1  0
  2 30  1  0
  3 31  1  0
  3 32  1  0
  3 33  1  0
  4 34  1  0
  4 35  1  0
  5 36  1  1
  6 37  1  0
  9 38  1  1
 10 39  1  0
 10 40  1  0
 14 41  1  0
 17 42  1  6
 18 43  1  0
 18 44  1  0
 18 45  1  0
 19 46  1  0
 19 47  1  0
 20 48  1  0
 20 49  1  0
M  CHG  4  13  -1  18   1  23  -1  26  -1
M  END
>  <meeko>  (8) 
{"is_sidechain": [false], "free_energy": -6.689, "intermolecular_energy": -12.33, "internal_energy": -1.27}

$$$$
1a30_ligand
     RDKit          3D

 49 48  0  0  0  0  0  0  0  0999 V2000
   16.2570   22.7090    8.2390 C   0  0  0  0  0  0  0  0  0  0  0  0
   15.8260   21.2850    8.6090 C   0  0  0  0  0  0  0  0  0  0  0  0
   14.5840   21.3450    9.4990 C   0  0  0  0  0  0  0  0  0  0  0  0
   15.5830   20.4660    7.3240 C   0  0  0  0  0  0  0  0  0  0  0  0
   15.2980   21.2900    6.0550 C   0  0  2  0  0  0  0  0  0  0  0  0
   13.8500   21.5360    5.8940 N   0  0  0  0  0  0  0  0  0  0  0  0
   13.3030   22.6980    5.4080 C   0  0  0  0  0  0  0  0  0  0  0  0
   13.9740   23.6900    5.1150 O   0  0  0  0  0  0  0  0  0  0  0  0
   11.7670   22.6620    5.2420 C   0  0  2  0  0  0  0  0  0  0  0  0
   11.4040   22.2500    3.8130 C   0  0  0  0  0  0  0  0  0  0  0  0
   10.5600   23.3380    3.1820 C   0  0  0  0  0  0  0  0  0  0  0  0
   11.2070   24.1900    2.4870 O   0  0  0  0  0  0  0  0  0  0  0  0
    9.3340   23.3550    3.4550 O   0  0  0  0  0  0  0  0  0  0  0  0
   11.2430   23.9960    5.5590 N   0  0  0  0  0  0  0  0  0  0  0  0
   10.9380   24.3670    6.8510 C   0  0  0  0  0  0  0  0  0  0  0  0
   11.4610   23.8620    7.8420 O   0  0  0  0  0  0  0  0  0  0  0  0
    9.7990   25.4130    6.9430 C   0  0  1  0  0  0  0  0  0  0  0  0
    8.7710   25.1270    5.9120 N   0  0  0  0  0  0  0  0  0  0  0  0
    9.1570   25.4230    8.3450 C   0  0  0  0  0  0  0  0  0  0  0  0
    8.1530   26.5330    8.6650 C   0  0  0  0  0  0  0  0  0  0  0  0
    8.6690   27.9040    8.2520 C   0  0  0  0  0  0  0  0  0  0  0  0
    9.5360   28.3670    9.0560 O   0  0  0  0  0  0  0  0  0  0  0  0
    8.1530   28.4080    7.2280 O   0  0  0  0  0  0  0  0  0  0  0  0
   15.8800   20.4370    4.8740 C   0  0  0  0  0  0  0  0  0  0  0  0
   17.0220   19.9260    5.0650 O   0  0  0  0  0  0  0  0  0  0  0  0
   15.1240   20.3670    3.8550 O   0  0  0  0  0  0  0  0  0  0  0  0
   16.4326   23.2891    9.1569 H   0  0  0  0  0  0  0  0  0  0  0  0
   17.1835   22.6696    7.6473 H   0  0  0  0  0  0  0  0  0  0  0  0
   15.4642   23.1900    7.6473 H   0  0  0  0  0  0  0  0  0  0  0  0
   16.6211   20.7800    9.1772 H   0  0  0  0  0  0  0  0  0  0  0  0
   14.8891   21.3303   10.5557 H   0  0  0  0  0  0  0  0  0  0  0  0
   14.0281   22.2710    9.2907 H   0  0  0  0  0  0  0  0  0  0  0  0
   13.9414   20.4769    9.2907 H   0  0  0  0  0  0  0  0  0  0  0  0
   16.4787   19.8554    7.1372 H   0  0  0  0  0  0  0  0  0  0  0  0
   14.6738   19.8756    7.5104 H   0  0  0  0  0  0  0  0  0  0  0  0
   15.7612   22.2869    6.0960 H   0  0  0  0  0  0  0  0  0  0  0  0
   13.3170   20.6660    5.8700 H   0  0  0  0  0  0  0  0  0  0  0  0
   11.3208   21.9222    5.9228 H   0  0  0  0  0  0  0  0  0  0  0  0
   12.3233   22.1098    3.2254 H   0  0  0  0  0  0  0  0  0  0  0  0
   10.8384   21.3067    3.8319 H   0  0  0  0  0  0  0  0  0  0  0  0
   10.7650   24.4410    4.7810 H   0  0  0  0  0  0  0  0  0  0  0  0
   10.2311   26.4086    6.7639 H   0  0  0  0  0  0  0  0  0  0  0  0
    9.1870   24.8080    4.9970 H   0  0  0  0  0  0  0  0  0  0  0  0
    8.1340   24.3680    6.1490 H   0  0  0  0  0  0  0  0  0  0  0  0
    8.2290   26.0010    5.7090 H   0  0  0  0  0  0  0  0  0  0  0  0
    8.6358   24.4629    8.4735 H   0  0  0  0  0  0  0  0  0  0  0  0
    9.9969   25.6044    9.0317 H   0  0  0  0  0  0  0  0  0  0  0  0
    7.2152   26.3296    8.1273 H   0  0  0  0  0  0  0  0  0  0  0  0
    7.9931   26.5435    9.7533 H   0  0  0  0  0  0  0  0  0  0  0  0
  1  2  1  0
  2  3  1  0
  2  4  1  0
  4  5  1  0
  5  6  1  0
  6  7  1  0
  7  8  2  0
  7  9  1  0
  9 10  1  0
 10 11  1  0
 11 12  2  0
 11 13  1  0
  9 14  1  0
 14 15  1  0
 15 16  2  0
 15 17  1  0
 17 18  1  0
 17 19  1  0
 19 20  1  0
 20 21  1  0
 21 22  2  0
 21 23  1  0
  5 24  1  0
 24 25  2  0
 24 26  1  0
  1 27  1  0
  1 28  1  0
  1 29  1  0
  2 30  1  0
  3 31  1  0
  3 32  1  0
  3 33  1  0
  4 34  1  0
  4 35  1  0
  5 36  1  1
  6 37  1  0
  9 38  1  1
 10 39  1  0
 10 40  1  0
 14 41  1  0
 17 42  1  6
 18 43  1  0
 18 44  1  0
 18 45  1  0
 19 46  1  0
 19 47  1  0
 20 48  1  0
 20 49  1  0
M  CHG  4  13  -1  18   1  23  -1  26  -1
M  END
>  <meeko>  (9) 
{"is_sidechain": [false], "free_energy": -6.618, "intermolecular_energy": -11.659, "internal_energy": -1.819}

$$$$
