2qnq_ligand
     RDKit          3D

 71 75  0  0  0  0  0  0  0  0999 V2000
  -17.9160   22.5920   -5.9200 O   0  0  0  0  0  0  0  0  0  0  0  0
  -18.0060   22.1060   -4.5630 S   0  0  0  0  0  0  0  0  0  0  0  0
  -19.1660   22.3760   -3.7430 O   0  0  0  0  0  0  0  0  0  0  0  0
  -16.5830   22.6960   -3.6880 C   0  0  0  0  0  0  0  0  0  0  0  0
  -16.6270   23.0050   -2.3220 C   0  0  0  0  0  0  0  0  0  0  0  0
  -15.4890   23.4960   -1.6740 C   0  0  0  0  0  0  0  0  0  0  0  0
  -14.3050   23.6750   -2.3800 C   0  0  0  0  0  0  0  0  0  0  0  0
  -14.2510   23.3570   -3.7360 C   0  0  0  0  0  0  0  0  0  0  0  0
  -15.3850   22.8660   -4.3960 C   0  0  0  0  0  0  0  0  0  0  0  0
  -15.1930   22.4810   -6.0690 Cl  0  0  0  0  0  0  0  0  0  0  0  0
  -17.9190   20.3880   -4.6620 N   0  0  0  0  0  0  0  0  0  0  0  0
  -17.9570   19.6970   -3.3350 C   0  0  0  0  0  0  0  0  0  0  0  0
  -19.2970   19.0530   -3.0560 C   0  0  0  0  0  0  0  0  0  0  0  0
  -19.4760   18.2220   -1.9380 C   0  0  0  0  0  0  0  0  0  0  0  0
  -20.7080   17.6120   -1.6980 C   0  0  0  0  0  0  0  0  0  0  0  0
  -21.7800   17.8420   -2.5570 C   0  0  0  0  0  0  0  0  0  0  0  0
  -21.6280   18.6970   -3.6450 C   0  0  0  0  0  0  0  0  0  0  0  0
  -20.3970   19.3070   -3.8880 C   0  0  0  0  0  0  0  0  0  0  0  0
  -17.1570   19.7620   -5.8170 C   0  0  1  0  0  0  0  0  0  0  0  0
  -15.9380   18.9170   -5.3770 C   0  0  0  0  0  0  0  0  0  0  0  0
  -16.4910   17.5790   -4.9790 N   0  0  0  0  0  0  0  0  0  0  0  0
  -17.9080   17.5330   -5.4690 C   0  0  0  0  0  0  0  0  0  0  0  0
  -17.9770   18.6420   -6.5360 C   0  0  2  0  0  0  0  0  0  0  0  0
  -17.3170   18.3330   -7.9070 N   0  0  0  0  0  0  0  0  0  0  0  0
  -17.1120   19.6200   -8.6760 C   0  0  0  0  0  0  0  0  0  0  0  0
  -15.6600   20.0200   -8.7720 C   0  0  0  0  0  0  0  0  0  0  0  0
  -14.6580   19.1940   -8.2430 C   0  0  0  0  0  0  0  0  0  0  0  0
  -13.3180   19.5790   -8.2950 C   0  0  0  0  0  0  0  0  0  0  0  0
  -12.9630   20.7950   -8.8730 C   0  0  0  0  0  0  0  0  0  0  0  0
  -13.9470   21.6300   -9.3940 C   0  0  0  0  0  0  0  0  0  0  0  0
  -15.2880   21.2490   -9.3380 C   0  0  0  0  0  0  0  0  0  0  0  0
  -18.0690   17.1110   -8.8570 S   0  0  0  0  0  0  0  0  0  0  0  0
  -18.3690   17.7160  -10.1420 O   0  0  0  0  0  0  0  0  0  0  0  0
  -17.1700   15.9800   -8.7950 O   0  0  0  0  0  0  0  0  0  0  0  0
  -19.5870   16.7080   -8.0540 C   0  0  0  0  0  0  0  0  0  0  0  0
  -19.6680   15.4830   -7.3710 C   0  0  0  0  0  0  0  0  0  0  0  0
  -20.8500   15.1120   -6.7340 C   0  0  0  0  0  0  0  0  0  0  0  0
  -21.9580   15.9540   -6.7830 C   0  0  0  0  0  0  0  0  0  0  0  0
  -21.8850   17.1650   -7.4730 C   0  0  0  0  0  0  0  0  0  0  0  0
  -20.7010   17.5480   -8.1160 C   0  0  0  0  0  0  0  0  0  0  0  0
  -20.7220   19.0670   -8.9340 Cl  0  0  0  0  0  0  0  0  0  0  0  0
  -17.5599   22.8609   -1.7573 H   0  0  0  0  0  0  0  0  0  0  0  0
  -15.5310   23.7413   -0.6025 H   0  0  0  0  0  0  0  0  0  0  0  0
  -13.4127   24.0667   -1.8697 H   0  0  0  0  0  0  0  0  0  0  0  0
  -13.3115   23.4925   -4.2918 H   0  0  0  0  0  0  0  0  0  0  0  0
  -17.1811   18.9174   -3.3207 H   0  0  0  0  0  0  0  0  0  0  0  0
  -17.7822   20.4555   -2.5578 H   0  0  0  0  0  0  0  0  0  0  0  0
  -18.6383   18.0506   -1.2460 H   0  0  0  0  0  0  0  0  0  0  0  0
  -20.8326   16.9487   -0.8294 H   0  0  0  0  0  0  0  0  0  0  0  0
  -22.7462   17.3483   -2.3758 H   0  0  0  0  0  0  0  0  0  0  0  0
  -22.4793   18.8919   -4.3138 H   0  0  0  0  0  0  0  0  0  0  0  0
  -20.2882   19.9938   -4.7404 H   0  0  0  0  0  0  0  0  0  0  0  0
  -16.9095   20.6451   -6.4244 H   0  0  0  0  0  0  0  0  0  0  0  0
  -15.2281   18.8059   -6.2099 H   0  0  0  0  0  0  0  0  0  0  0  0
  -15.3929   19.3929   -4.5485 H   0  0  0  0  0  0  0  0  0  0  0  0
  -15.9660   16.8290   -5.4750 H   0  0  0  0  0  0  0  0  0  0  0  0
  -16.4390   17.4000   -3.9670 H   0  0  0  0  0  0  0  0  0  0  0  0
  -18.1359   16.5519   -5.9112 H   0  0  0  0  0  0  0  0  0  0  0  0
  -18.6380   17.6820   -4.6597 H   0  0  0  0  0  0  0  0  0  0  0  0
  -19.0188   18.8541   -6.8184 H   0  0  0  0  0  0  0  0  0  0  0  0
  -17.5080   19.4880   -9.6937 H   0  0  0  0  0  0  0  0  0  0  0  0
  -17.6396   20.4177   -8.1326 H   0  0  0  0  0  0  0  0  0  0  0  0
  -14.9311   18.2331   -7.7825 H   0  0  0  0  0  0  0  0  0  0  0  0
  -12.5409   18.9210   -7.8788 H   0  0  0  0  0  0  0  0  0  0  0  0
  -11.9058   21.0954   -8.9178 H   0  0  0  0  0  0  0  0  0  0  0  0
  -13.6673   22.5910   -9.8503 H   0  0  0  0  0  0  0  0  0  0  0  0
  -16.0616   21.9188   -9.7416 H   0  0  0  0  0  0  0  0  0  0  0  0
  -18.7950   14.8145   -7.3391 H   0  0  0  0  0  0  0  0  0  0  0  0
  -20.9080   14.1558   -6.1934 H   0  0  0  0  0  0  0  0  0  0  0  0
  -22.8912   15.6646   -6.2777 H   0  0  0  0  0  0  0  0  0  0  0  0
  -22.7647   17.8242   -7.5122 H   0  0  0  0  0  0  0  0  0  0  0  0
  1  2  2  0
  2  3  2  0
  2  4  1  0
  4  5  2  0
  5  6  1  0
  6  7  2  0
  7  8  1  0
  8  9  2  0
  9 10  1  0
  2 11  1  0
 11 12  1  0
 12 13  1  0
 13 14  2  0
 14 15  1  0
 15 16  2  0
 16 17  1  0
 17 18  2  0
 11 19  1  0
 19 20  1  0
 20 21  1  0
 21 22  1  0
 22 23  1  0
 23 24  1  0
 24 25  1  0
 25 26  1  0
 26 27  2  0
 27 28  1  0
 28 29  2  0
 29 30  1  0
 30 31  2  0
 24 32  1  0
 32 33  2  0
 32 34  2  0
 32 35  1  0
 35 36  2  0
 36 37  1  0
 37 38  2  0
 38 39  1  0
 39 40  2  0
 40 41  1  0
  9  4  1  0
 18 13  1  0
 23 19  1  0
 31 26  1  0
 40 35  1  0
  5 42  1  0
  6 43  1  0
  7 44  1  0
  8 45  1  0
 12 46  1  0
 12 47  1  0
 14 48  1  0
 15 49  1  0
 16 50  1  0
 17 51  1  0
 18 52  1  0
 19 53  1  6
 20 54  1  0
 20 55  1  0
 21 56  1  0
 21 57  1  0
 22 58  1  0
 22 59  1  0
 23 60  1  6
 25 61  1  0
 25 62  1  0
 27 63  1  0
 28 64  1  0
 29 65  1  0
 30 66  1  0
 31 67  1  0
 36 68  1  0
 37 69  1  0
 38 70  1  0
 39 71  1  0
M  CHG  1  21   1
M  END
>  <meeko>  (1) 
{"is_sidechain": [false], "free_energy": -10.917, "intermolecular_energy": -17.299, "internal_energy": -0.065}

$$$$
2qnq_ligand
     RDKit          3D

 71 75  0  0  0  0  0  0  0  0999 V2000
  -18.6200   17.8560  -10.1940 O   0  0  0  0  0  0  0  0  0  0  0  0
  -18.2240   17.0560   -9.0590 S   0  0  0  0  0  0  0  0  0  0  0  0
  -17.3680   15.9010   -9.2150 O   0  0  0  0  0  0  0  0  0  0  0  0
  -19.7030   16.5190   -8.2420 C   0  0  0  0  0  0  0  0  0  0  0  0
  -19.8100   15.2490   -7.6610 C   0  0  0  0  0  0  0  0  0  0  0  0
  -21.0040   14.8520   -7.0510 C   0  0  0  0  0  0  0  0  0  0  0  0
  -22.0910   15.7180   -7.0120 C   0  0  0  0  0  0  0  0  0  0  0  0
  -21.9860   16.9880   -7.5770 C   0  0  0  0  0  0  0  0  0  0  0  0
  -20.7950   17.3960   -8.1910 C   0  0  0  0  0  0  0  0  0  0  0  0
  -20.7720   19.0000   -8.8330 Cl  0  0  0  0  0  0  0  0  0  0  0  0
  -17.3630   18.1110   -8.0040 N   0  0  0  0  0  0  0  0  0  0  0  0
  -15.8750   17.9700   -8.0790 C   0  0  0  0  0  0  0  0  0  0  0  0
  -15.2010   19.2180   -8.6050 C   0  0  0  0  0  0  0  0  0  0  0  0
  -15.9010   20.1250   -9.4150 C   0  0  0  0  0  0  0  0  0  0  0  0
  -15.2680   21.2640   -9.9160 C   0  0  0  0  0  0  0  0  0  0  0  0
  -13.9360   21.5190   -9.5960 C   0  0  0  0  0  0  0  0  0  0  0  0
  -13.2420   20.6490   -8.7600 C   0  0  0  0  0  0  0  0  0  0  0  0
  -13.8740   19.5100   -8.2580 C   0  0  0  0  0  0  0  0  0  0  0  0
  -18.0150   18.5260   -6.6960 C   0  0  1  0  0  0  0  0  0  0  0  0
  -17.8100   17.5140   -5.5450 C   0  0  0  0  0  0  0  0  0  0  0  0
  -16.4450   17.8000   -4.9880 N   0  0  0  0  0  0  0  0  0  0  0  0
  -16.0110   19.1160   -5.5610 C   0  0  0  0  0  0  0  0  0  0  0  0
  -17.3190   19.7680   -6.0500 C   0  0  2  0  0  0  0  0  0  0  0  0
  -18.2520   20.3610   -4.9600 N   0  0  0  0  0  0  0  0  0  0  0  0
  -19.6610   19.8510   -5.1630 C   0  0  0  0  0  0  0  0  0  0  0  0
  -20.2140   19.1560   -3.9420 C   0  0  0  0  0  0  0  0  0  0  0  0
  -19.4310   19.0180   -2.7870 C   0  0  0  0  0  0  0  0  0  0  0  0
  -19.9240   18.3420   -1.6700 C   0  0  0  0  0  0  0  0  0  0  0  0
  -21.2040   17.7940   -1.6950 C   0  0  0  0  0  0  0  0  0  0  0  0
  -21.9900   17.9150   -2.8370 C   0  0  0  0  0  0  0  0  0  0  0  0
  -21.4960   18.5850   -3.9570 C   0  0  0  0  0  0  0  0  0  0  0  0
  -18.1930   22.0690   -4.7530 S   0  0  0  0  0  0  0  0  0  0  0  0
  -18.2860   22.6460   -6.0820 O   0  0  0  0  0  0  0  0  0  0  0  0
  -19.2140   22.3650   -3.7740 O   0  0  0  0  0  0  0  0  0  0  0  0
  -16.6030   22.4430   -4.0870 C   0  0  0  0  0  0  0  0  0  0  0  0
  -16.4840   22.5590   -2.6920 C   0  0  0  0  0  0  0  0  0  0  0  0
  -15.2520   22.8690   -2.1170 C   0  0  0  0  0  0  0  0  0  0  0  0
  -14.1400   23.0740   -2.9290 C   0  0  0  0  0  0  0  0  0  0  0  0
  -14.2590   22.9740   -4.3160 C   0  0  0  0  0  0  0  0  0  0  0  0
  -15.4920   22.6620   -4.9030 C   0  0  0  0  0  0  0  0  0  0  0  0
  -15.5230   22.5590   -6.6260 Cl  0  0  0  0  0  0  0  0  0  0  0  0
  -18.9517   14.5614   -7.6847 H   0  0  0  0  0  0  0  0  0  0  0  0
  -21.0835   13.8516   -6.6007 H   0  0  0  0  0  0  0  0  0  0  0  0
  -23.0312   15.4019   -6.5366 H   0  0  0  0  0  0  0  0  0  0  0  0
  -22.8446   17.6747   -7.5404 H   0  0  0  0  0  0  0  0  0  0  0  0
  -15.4893   17.7590   -7.0707 H   0  0  0  0  0  0  0  0  0  0  0  0
  -15.6516   17.1498   -8.7771 H   0  0  0  0  0  0  0  0  0  0  0  0
  -16.9574   19.9370   -9.6573 H   0  0  0  0  0  0  0  0  0  0  0  0
  -15.8209   21.9604  -10.5636 H   0  0  0  0  0  0  0  0  0  0  0  0
  -13.4329   22.4080  -10.0041 H   0  0  0  0  0  0  0  0  0  0  0  0
  -12.1953   20.8590   -8.4948 H   0  0  0  0  0  0  0  0  0  0  0  0
  -13.3260   18.8352   -7.5839 H   0  0  0  0  0  0  0  0  0  0  0  0
  -19.0618   18.6645   -7.0044 H   0  0  0  0  0  0  0  0  0  0  0  0
  -18.5775   17.6549   -4.7697 H   0  0  0  0  0  0  0  0  0  0  0  0
  -17.8939   16.4758   -5.8986 H   0  0  0  0  0  0  0  0  0  0  0  0
  -16.5120   17.9170   -3.9560 H   0  0  0  0  0  0  0  0  0  0  0  0
  -15.7580   17.0600   -5.1890 H   0  0  0  0  0  0  0  0  0  0  0  0
  -15.5303   19.7369   -4.7907 H   0  0  0  0  0  0  0  0  0  0  0  0
  -15.2720   19.0001   -6.3675 H   0  0  0  0  0  0  0  0  0  0  0  0
  -17.1124   20.6425   -6.6845 H   0  0  0  0  0  0  0  0  0  0  0  0
  -20.3116   20.7038   -5.4067 H   0  0  0  0  0  0  0  0  0  0  0  0
  -19.6317   19.1135   -5.9786 H   0  0  0  0  0  0  0  0  0  0  0  0
  -18.4183   19.4467   -2.7611 H   0  0  0  0  0  0  0  0  0  0  0  0
  -19.3009   18.2419   -0.7690 H   0  0  0  0  0  0  0  0  0  0  0  0
  -21.5936   17.2657   -0.8124 H   0  0  0  0  0  0  0  0  0  0  0  0
  -23.0011   17.4823   -2.8568 H   0  0  0  0  0  0  0  0  0  0  0  0
  -22.1177   18.6664   -4.8608 H   0  0  0  0  0  0  0  0  0  0  0  0
  -17.3650   22.4049   -2.0516 H   0  0  0  0  0  0  0  0  0  0  0  0
  -15.1590   22.9514   -1.0240 H   0  0  0  0  0  0  0  0  0  0  0  0
  -13.1666   23.3150   -2.4770 H   0  0  0  0  0  0  0  0  0  0  0  0
  -13.3780   23.1414   -4.9530 H   0  0  0  0  0  0  0  0  0  0  0  0
  1  2  2  0
  2  3  2  0
  2  4  1  0
  4  5  2  0
  5  6  1  0
  6  7  2  0
  7  8  1  0
  8  9  2  0
  9 10  1  0
  2 11  1  0
 11 12  1  0
 12 13  1  0
 13 14  2  0
 14 15  1  0
 15 16  2  0
 16 17  1  0
 17 18  2  0
 11 19  1  0
 19 20  1  0
 20 21  1  0
 21 22  1  0
 22 23  1  0
 23 24  1  0
 24 25  1  0
 25 26  1  0
 26 27  2  0
 27 28  1  0
 28 29  2  0
 29 30  1  0
 30 31  2  0
 24 32  1  0
 32 33  2  0
 32 34  2  0
 32 35  1  0
 35 36  2  0
 36 37  1  0
 37 38  2  0
 38 39  1  0
 39 40  2  0
 40 41  1  0
  9  4  1  0
 18 13  1  0
 23 19  1  0
 31 26  1  0
 40 35  1  0
  5 42  1  0
  6 43  1  0
  7 44  1  0
  8 45  1  0
 12 46  1  0
 12 47  1  0
 14 48  1  0
 15 49  1  0
 16 50  1  0
 17 51  1  0
 18 52  1  0
 19 53  1  6
 20 54  1  0
 20 55  1  0
 21 56  1  0
 21 57  1  0
 22 58  1  0
 22 59  1  0
 23 60  1  6
 25 61  1  0
 25 62  1  0
 27 63  1  0
 28 64  1  0
 29 65  1  0
 30 66  1  0
 31 67  1  0
 36 68  1  0
 37 69  1  0
 38 70  1  0
 39 71  1  0
M  CHG  1  21   1
M  END
>  <meeko>  (2) 
{"is_sidechain": [false], "free_energy": -10.825, "intermolecular_energy": -17.462, "internal_energy": 0.244}

$$$$
2qnq_ligand
     RDKit          3D

 71 75  0  0  0  0  0  0  0  0999 V2000
  -17.0950   21.0600   -7.5800 O   0  0  0  0  0  0  0  0  0  0  0  0
  -16.1790   21.6020   -6.6050 S   0  0  0  0  0  0  0  0  0  0  0  0
  -16.3240   22.9510   -6.1040 O   0  0  0  0  0  0  0  0  0  0  0  0
  -14.5420   21.4510   -7.2690 C   0  0  0  0  0  0  0  0  0  0  0  0
  -13.6080   22.4920   -7.1830 C   0  0  0  0  0  0  0  0  0  0  0  0
  -12.3370   22.3450   -7.7440 C   0  0  0  0  0  0  0  0  0  0  0  0
  -11.9890   21.1620   -8.3880 C   0  0  0  0  0  0  0  0  0  0  0  0
  -12.9100   20.1180   -8.4650 C   0  0  0  0  0  0  0  0  0  0  0  0
  -14.1860   20.2550   -7.9070 C   0  0  0  0  0  0  0  0  0  0  0  0
  -15.2330   18.8880   -8.0390 Cl  0  0  0  0  0  0  0  0  0  0  0  0
  -16.3050   20.5930   -5.2140 N   0  0  0  0  0  0  0  0  0  0  0  0
  -15.0800   20.5820   -4.3540 C   0  0  0  0  0  0  0  0  0  0  0  0
  -14.9000   21.8730   -3.5870 C   0  0  0  0  0  0  0  0  0  0  0  0
  -15.8390   22.2730   -2.6230 C   0  0  0  0  0  0  0  0  0  0  0  0
  -15.6810   23.4760   -1.9340 C   0  0  0  0  0  0  0  0  0  0  0  0
  -14.5730   24.2820   -2.1830 C   0  0  0  0  0  0  0  0  0  0  0  0
  -13.6120   23.8780   -3.1060 C   0  0  0  0  0  0  0  0  0  0  0  0
  -13.7690   22.6760   -3.7970 C   0  0  0  0  0  0  0  0  0  0  0  0
  -17.1850   19.3580   -5.2870 C   0  0  1  0  0  0  0  0  0  0  0  0
  -16.8430   18.2820   -4.2310 C   0  0  0  0  0  0  0  0  0  0  0  0
  -17.5170   18.7230   -2.9640 N   0  0  0  0  0  0  0  0  0  0  0  0
  -18.4710   19.8180   -3.3400 C   0  0  0  0  0  0  0  0  0  0  0  0
  -18.6600   19.6510   -4.8600 C   0  0  2  0  0  0  0  0  0  0  0  0
  -19.5640   18.4770   -5.3250 N   0  0  0  0  0  0  0  0  0  0  0  0
  -20.0460   18.7320   -6.7360 C   0  0  0  0  0  0  0  0  0  0  0  0
  -19.2080   18.0280   -7.7760 C   0  0  0  0  0  0  0  0  0  0  0  0
  -19.2710   18.4160   -9.1210 C   0  0  0  0  0  0  0  0  0  0  0  0
  -18.5280   17.7430  -10.0920 C   0  0  0  0  0  0  0  0  0  0  0  0
  -17.7160   16.6710   -9.7300 C   0  0  0  0  0  0  0  0  0  0  0  0
  -17.6510   16.2670   -8.3990 C   0  0  0  0  0  0  0  0  0  0  0  0
  -18.3970   16.9360   -7.4290 C   0  0  0  0  0  0  0  0  0  0  0  0
  -20.8440   18.0330   -4.2620 S   0  0  0  0  0  0  0  0  0  0  0  0
  -20.2320   17.3050   -3.1660 O   0  0  0  0  0  0  0  0  0  0  0  0
  -21.5530   19.2640   -3.9920 O   0  0  0  0  0  0  0  0  0  0  0  0
  -21.8870   16.9300   -5.1600 C   0  0  0  0  0  0  0  0  0  0  0  0
  -21.2780   15.9730   -5.9880 C   0  0  0  0  0  0  0  0  0  0  0  0
  -22.0590   15.0890   -6.7300 C   0  0  0  0  0  0  0  0  0  0  0  0
  -23.4470   15.1610   -6.6570 C   0  0  0  0  0  0  0  0  0  0  0  0
  -24.0550   16.1210   -5.8460 C   0  0  0  0  0  0  0  0  0  0  0  0
  -23.2800   17.0130   -5.0960 C   0  0  0  0  0  0  0  0  0  0  0  0
  -24.1360   18.1540   -4.1240 Cl  0  0  0  0  0  0  0  0  0  0  0  0
  -13.8765   23.4283   -6.6719 H   0  0  0  0  0  0  0  0  0  0  0  0
  -11.6093   23.1671   -7.6763 H   0  0  0  0  0  0  0  0  0  0  0  0
  -10.9902   21.0506   -8.8352 H   0  0  0  0  0  0  0  0  0  0  0  0
  -12.6316   19.1801   -8.9679 H   0  0  0  0  0  0  0  0  0  0  0  0
  -15.1607   19.7530   -3.6355 H   0  0  0  0  0  0  0  0  0  0  0  0
  -14.2087   20.4610   -5.0144 H   0  0  0  0  0  0  0  0  0  0  0  0
  -16.7071   21.6322   -2.4089 H   0  0  0  0  0  0  0  0  0  0  0  0
  -16.4323   23.7880   -1.1935 H   0  0  0  0  0  0  0  0  0  0  0  0
  -14.4570   25.2376   -1.6506 H   0  0  0  0  0  0  0  0  0  0  0  0
  -12.7285   24.5068   -3.2906 H   0  0  0  0  0  0  0  0  0  0  0  0
  -12.9985   22.3549   -4.5134 H   0  0  0  0  0  0  0  0  0  0  0  0
  -17.0368   19.0414   -6.3300 H   0  0  0  0  0  0  0  0  0  0  0  0
  -17.2258   17.3003   -4.5467 H   0  0  0  0  0  0  0  0  0  0  0  0
  -15.7562   18.1782   -4.0963 H   0  0  0  0  0  0  0  0  0  0  0  0
  -18.0820   17.9360   -2.5830 H   0  0  0  0  0  0  0  0  0  0  0  0
  -16.8590   19.0340   -2.2360 H   0  0  0  0  0  0  0  0  0  0  0  0
  -19.4289   19.6987   -2.8126 H   0  0  0  0  0  0  0  0  0  0  0  0
  -18.0943   20.8155   -3.0699 H   0  0  0  0  0  0  0  0  0  0  0  0
  -19.1670   20.5256   -5.2936 H   0  0  0  0  0  0  0  0  0  0  0  0
  -21.0839   18.3781   -6.8223 H   0  0  0  0  0  0  0  0  0  0  0  0
  -19.9670   19.8131   -6.9230 H   0  0  0  0  0  0  0  0  0  0  0  0
  -19.9127   19.2598   -9.4146 H   0  0  0  0  0  0  0  0  0  0  0  0
  -18.5838   18.0595  -11.1440 H   0  0  0  0  0  0  0  0  0  0  0  0
  -17.1266   16.1440  -10.4947 H   0  0  0  0  0  0  0  0  0  0  0  0
  -17.0108   15.4196   -8.1125 H   0  0  0  0  0  0  0  0  0  0  0  0
  -18.3494   16.6046   -6.3812 H   0  0  0  0  0  0  0  0  0  0  0  0
  -20.1810   15.9210   -6.0510 H   0  0  0  0  0  0  0  0  0  0  0  0
  -21.5793   14.3357   -7.3722 H   0  0  0  0  0  0  0  0  0  0  0  0
  -24.0652   14.4612   -7.2385 H   0  0  0  0  0  0  0  0  0  0  0  0
  -25.1524   16.1768   -5.7960 H   0  0  0  0  0  0  0  0  0  0  0  0
  1  2  2  0
  2  3  2  0
  2  4  1  0
  4  5  2  0
  5  6  1  0
  6  7  2  0
  7  8  1  0
  8  9  2  0
  9 10  1  0
  2 11  1  0
 11 12  1  0
 12 13  1  0
 13 14  2  0
 14 15  1  0
 15 16  2  0
 16 17  1  0
 17 18  2  0
 11 19  1  0
 19 20  1  0
 20 21  1  0
 21 22  1  0
 22 23  1  0
 23 24  1  0
 24 25  1  0
 25 26  1  0
 26 27  2  0
 27 28  1  0
 28 29  2  0
 29 30  1  0
 30 31  2  0
 24 32  1  0
 32 33  2  0
 32 34  2  0
 32 35  1  0
 35 36  2  0
 36 37  1  0
 37 38  2  0
 38 39  1  0
 39 40  2  0
 40 41  1  0
  9  4  1  0
 18 13  1  0
 23 19  1  0
 31 26  1  0
 40 35  1  0
  5 42  1  0
  6 43  1  0
  7 44  1  0
  8 45  1  0
 12 46  1  0
 12 47  1  0
 14 48  1  0
 15 49  1  0
 16 50  1  0
 17 51  1  0
 18 52  1  0
 19 53  1  6
 20 54  1  0
 20 55  1  0
 21 56  1  0
 21 57  1  0
 22 58  1  0
 22 59  1  0
 23 60  1  6
 25 61  1  0
 25 62  1  0
 27 63  1  0
 28 64  1  0
 29 65  1  0
 30 66  1  0
 31 67  1  0
 36 68  1  0
 37 69  1  0
 38 70  1  0
 39 71  1  0
M  CHG  1  21   1
M  END
>  <meeko>  (3) 
{"is_sidechain": [false], "free_energy": -10.663, "intermolecular_energy": -15.58, "internal_energy": -1.382}

$$$$
2qnq_ligand
     RDKit          3D

 71 75  0  0  0  0  0  0  0  0999 V2000
  -17.6390   22.7070   -5.4100 O   0  0  0  0  0  0  0  0  0  0  0  0
  -17.0560   22.2460   -4.1720 S   0  0  0  0  0  0  0  0  0  0  0  0
  -17.8630   22.0430   -2.9900 O   0  0  0  0  0  0  0  0  0  0  0  0
  -15.7540   23.3700   -3.7440 C   0  0  0  0  0  0  0  0  0  0  0  0
  -15.5100   24.5370   -4.4800 C   0  0  0  0  0  0  0  0  0  0  0  0
  -14.4540   25.3830   -4.1270 C   0  0  0  0  0  0  0  0  0  0  0  0
  -13.6430   25.0740   -3.0410 C   0  0  0  0  0  0  0  0  0  0  0  0
  -13.8890   23.9210   -2.2980 C   0  0  0  0  0  0  0  0  0  0  0  0
  -14.9430   23.0660   -2.6430 C   0  0  0  0  0  0  0  0  0  0  0  0
  -15.1690   21.6810   -1.6350 Cl  0  0  0  0  0  0  0  0  0  0  0  0
  -16.3650   20.7050   -4.5120 N   0  0  0  0  0  0  0  0  0  0  0  0
  -14.9160   20.7530   -4.8830 C   0  0  0  0  0  0  0  0  0  0  0  0
  -14.7030   20.7510   -6.3810 C   0  0  0  0  0  0  0  0  0  0  0  0
  -15.0320   21.8750   -7.1550 C   0  0  0  0  0  0  0  0  0  0  0  0
  -14.8550   21.8590   -8.5400 C   0  0  0  0  0  0  0  0  0  0  0  0
  -14.3270   20.7310   -9.1630 C   0  0  0  0  0  0  0  0  0  0  0  0
  -13.9560   19.6250   -8.4020 C   0  0  0  0  0  0  0  0  0  0  0  0
  -14.1330   19.6390   -7.0180 C   0  0  0  0  0  0  0  0  0  0  0  0
  -17.2560   19.6180   -5.0890 C   0  0  1  0  0  0  0  0  0  0  0  0
  -16.7480   18.1830   -4.8170 C   0  0  0  0  0  0  0  0  0  0  0  0
  -17.1950   17.8490   -3.4230 N   0  0  0  0  0  0  0  0  0  0  0  0
  -18.1890   18.8980   -3.0240 C   0  0  0  0  0  0  0  0  0  0  0  0
  -18.6350   19.5270   -4.3580 C   0  0  2  0  0  0  0  0  0  0  0  0
  -19.6140   18.6930   -5.2290 N   0  0  0  0  0  0  0  0  0  0  0  0
  -20.0020   19.4840   -6.4580 C   0  0  0  0  0  0  0  0  0  0  0  0
  -19.4080   18.9220   -7.7270 C   0  0  0  0  0  0  0  0  0  0  0  0
  -20.2110   18.2280   -8.6420 C   0  0  0  0  0  0  0  0  0  0  0  0
  -19.6580   17.6740   -9.7980 C   0  0  0  0  0  0  0  0  0  0  0  0
  -18.2940   17.8050  -10.0500 C   0  0  0  0  0  0  0  0  0  0  0  0
  -17.4820   18.4830   -9.1460 C   0  0  0  0  0  0  0  0  0  0  0  0
  -18.0330   19.0330   -7.9880 C   0  0  0  0  0  0  0  0  0  0  0  0
  -20.9770   18.0260   -4.4160 S   0  0  0  0  0  0  0  0  0  0  0  0
  -20.4520   17.1200   -3.4110 O   0  0  0  0  0  0  0  0  0  0  0  0
  -21.7660   19.1660   -4.0060 O   0  0  0  0  0  0  0  0  0  0  0  0
  -21.8680   17.0850   -5.6130 C   0  0  0  0  0  0  0  0  0  0  0  0
  -23.2330   17.3670   -5.7900 C   0  0  0  0  0  0  0  0  0  0  0  0
  -23.9850   16.6400   -6.7120 C   0  0  0  0  0  0  0  0  0  0  0  0
  -23.3840   15.6260   -7.4520 C   0  0  0  0  0  0  0  0  0  0  0  0
  -22.0310   15.3340   -7.2670 C   0  0  0  0  0  0  0  0  0  0  0  0
  -21.2670   16.0590   -6.3440 C   0  0  0  0  0  0  0  0  0  0  0  0
  -19.6050   15.6170   -6.2020 Cl  0  0  0  0  0  0  0  0  0  0  0  0
  -16.1509   24.7884   -5.3379 H   0  0  0  0  0  0  0  0  0  0  0  0
  -14.2644   26.2960   -4.7105 H   0  0  0  0  0  0  0  0  0  0  0  0
  -12.8092   25.7379   -2.7689 H   0  0  0  0  0  0  0  0  0  0  0  0
  -13.2510   23.6809   -1.4347 H   0  0  0  0  0  0  0  0  0  0  0  0
  -14.4746   21.6697   -4.4648 H   0  0  0  0  0  0  0  0  0  0  0  0
  -14.4356   19.8514   -4.4751 H   0  0  0  0  0  0  0  0  0  0  0  0
  -15.4324   22.7756   -6.6665 H   0  0  0  0  0  0  0  0  0  0  0  0
  -15.1329   22.7383   -9.1396 H   0  0  0  0  0  0  0  0  0  0  0  0
  -14.2030   20.7135  -10.2558 H   0  0  0  0  0  0  0  0  0  0  0  0
  -13.5234   18.7403   -8.8921 H   0  0  0  0  0  0  0  0  0  0  0  0
  -13.8224   18.7692   -6.4205 H   0  0  0  0  0  0  0  0  0  0  0  0
  -17.2902   19.8992   -6.1519 H   0  0  0  0  0  0  0  0  0  0  0  0
  -17.1860   17.4782   -5.5391 H   0  0  0  0  0  0  0  0  0  0  0  0
  -15.6550   18.1139   -4.9195 H   0  0  0  0  0  0  0  0  0  0  0  0
  -17.6940   16.9350   -3.4310 H   0  0  0  0  0  0  0  0  0  0  0  0
  -16.4210   17.7910   -2.7470 H   0  0  0  0  0  0  0  0  0  0  0  0
  -19.0445   18.4454   -2.5013 H   0  0  0  0  0  0  0  0  0  0  0  0
  -17.7629   19.6390   -2.3317 H   0  0  0  0  0  0  0  0  0  0  0  0
  -19.2011   20.4547   -4.1880 H   0  0  0  0  0  0  0  0  0  0  0  0
  -21.0982   19.4761   -6.5495 H   0  0  0  0  0  0  0  0  0  0  0  0
  -19.6104   20.5042   -6.3325 H   0  0  0  0  0  0  0  0  0  0  0  0
  -21.2881   18.1186   -8.4474 H   0  0  0  0  0  0  0  0  0  0  0  0
  -20.2993   17.1339  -10.5100 H   0  0  0  0  0  0  0  0  0  0  0  0
  -17.8592   17.3726  -10.9632 H   0  0  0  0  0  0  0  0  0  0  0  0
  -16.4049   18.5855   -9.3444 H   0  0  0  0  0  0  0  0  0  0  0  0
  -17.3836   19.5588   -7.2725 H   0  0  0  0  0  0  0  0  0  0  0  0
  -23.7097   18.1634   -5.1996 H   0  0  0  0  0  0  0  0  0  0  0  0
  -25.0518   16.8676   -6.8543 H   0  0  0  0  0  0  0  0  0  0  0  0
  -23.9749   15.0544   -8.1828 H   0  0  0  0  0  0  0  0  0  0  0  0
  -21.5617   14.5284   -7.8507 H   0  0  0  0  0  0  0  0  0  0  0  0
  1  2  2  0
  2  3  2  0
  2  4  1  0
  4  5  2  0
  5  6  1  0
  6  7  2  0
  7  8  1  0
  8  9  2  0
  9 10  1  0
  2 11  1  0
 11 12  1  0
 12 13  1  0
 13 14  2  0
 14 15  1  0
 15 16  2  0
 16 17  1  0
 17 18  2  0
 11 19  1  0
 19 20  1  0
 20 21  1  0
 21 22  1  0
 22 23  1  0
 23 24  1  0
 24 25  1  0
 25 26  1  0
 26 27  2  0
 27 28  1  0
 28 29  2  0
 29 30  1  0
 30 31  2  0
 24 32  1  0
 32 33  2  0
 32 34  2  0
 32 35  1  0
 35 36  2  0
 36 37  1  0
 37 38  2  0
 38 39  1  0
 39 40  2  0
 40 41  1  0
  9  4  1  0
 18 13  1  0
 23 19  1  0
 31 26  1  0
 40 35  1  0
  5 42  1  0
  6 43  1  0
  7 44  1  0
  8 45  1  0
 12 46  1  0
 12 47  1  0
 14 48  1  0
 15 49  1  0
 16 50  1  0
 17 51  1  0
 18 52  1  0
 19 53  1  6
 20 54  1  0
 20 55  1  0
 21 56  1  0
 21 57  1  0
 22 58  1  0
 22 59  1  0
 23 60  1  1
 25 61  1  0
 25 62  1  0
 27 63  1  0
 28 64  1  0
 29 65  1  0
 30 66  1  0
 31 67  1  0
 36 68  1  0
 37 69  1  0
 38 70  1  0
 39 71  1  0
M  CHG  1  21   1
M  END
>  <meeko>  (4) 
{"is_sidechain": [false], "free_energy": -10.652, "intermolecular_energy": -15.366, "internal_energy": -1.579}

$$$$
2qnq_ligand
     RDKit          3D

 71 75  0  0  0  0  0  0  0  0999 V2000
  -18.9300   21.0460   -5.2320 O   0  0  0  0  0  0  0  0  0  0  0  0
  -19.4250   19.7740   -5.7030 S   0  0  0  0  0  0  0  0  0  0  0  0
  -20.3120   19.6870   -6.8420 O   0  0  0  0  0  0  0  0  0  0  0  0
  -20.2250   18.9740   -4.3390 C   0  0  0  0  0  0  0  0  0  0  0  0
  -21.5000   18.4060   -4.4570 C   0  0  0  0  0  0  0  0  0  0  0  0
  -22.1100   17.8090   -3.3490 C   0  0  0  0  0  0  0  0  0  0  0  0
  -21.4520   17.7710   -2.1250 C   0  0  0  0  0  0  0  0  0  0  0  0
  -20.1780   18.3230   -2.0050 C   0  0  0  0  0  0  0  0  0  0  0  0
  -19.5580   18.9240   -3.1070 C   0  0  0  0  0  0  0  0  0  0  0  0
  -17.9700   19.5510   -2.8490 Cl  0  0  0  0  0  0  0  0  0  0  0  0
  -18.0380   18.8530   -6.1470 N   0  0  0  0  0  0  0  0  0  0  0  0
  -18.1680   17.3860   -5.8790 C   0  0  0  0  0  0  0  0  0  0  0  0
  -18.9620   16.6700   -6.9500 C   0  0  0  0  0  0  0  0  0  0  0  0
  -20.0040   15.7950   -6.6070 C   0  0  0  0  0  0  0  0  0  0  0  0
  -20.7180   15.1200   -7.5980 C   0  0  0  0  0  0  0  0  0  0  0  0
  -20.4130   15.3270   -8.9420 C   0  0  0  0  0  0  0  0  0  0  0  0
  -19.4090   16.2230   -9.2970 C   0  0  0  0  0  0  0  0  0  0  0  0
  -18.6940   16.8990   -8.3070 C   0  0  0  0  0  0  0  0  0  0  0  0
  -16.6730   19.5130   -6.0790 C   0  0  1  0  0  0  0  0  0  0  0  0
  -15.4930   18.5320   -6.2710 C   0  0  0  0  0  0  0  0  0  0  0  0
  -15.3580   18.3400   -7.7540 N   0  0  0  0  0  0  0  0  0  0  0  0
  -16.1940   19.4010   -8.4050 C   0  0  0  0  0  0  0  0  0  0  0  0
  -16.4030   20.4530   -7.2990 C   0  0  2  0  0  0  0  0  0  0  0  0
  -15.1940   21.3710   -6.9720 N   0  0  0  0  0  0  0  0  0  0  0  0
  -15.6880   22.6730   -6.3810 C   0  0  0  0  0  0  0  0  0  0  0  0
  -15.3700   22.8060   -4.9110 C   0  0  0  0  0  0  0  0  0  0  0  0
  -15.3180   21.6720   -4.0900 C   0  0  0  0  0  0  0  0  0  0  0  0
  -15.0630   21.7940   -2.7230 C   0  0  0  0  0  0  0  0  0  0  0  0
  -14.8610   23.0520   -2.1610 C   0  0  0  0  0  0  0  0  0  0  0  0
  -14.9190   24.1880   -2.9620 C   0  0  0  0  0  0  0  0  0  0  0  0
  -15.1790   24.0680   -4.3270 C   0  0  0  0  0  0  0  0  0  0  0  0
  -14.0570   21.6130   -8.2410 S   0  0  0  0  0  0  0  0  0  0  0  0
  -13.5350   20.3010   -8.5800 O   0  0  0  0  0  0  0  0  0  0  0  0
  -14.7660   22.3790   -9.2420 O   0  0  0  0  0  0  0  0  0  0  0  0
  -12.7460   22.5840   -7.5680 C   0  0  0  0  0  0  0  0  0  0  0  0
  -12.5290   22.5270   -6.1820 C   0  0  0  0  0  0  0  0  0  0  0  0
  -11.5160   23.2870   -5.5990 C   0  0  0  0  0  0  0  0  0  0  0  0
  -10.7250   24.1120   -6.3930 C   0  0  0  0  0  0  0  0  0  0  0  0
  -10.9480   24.1820   -7.7690 C   0  0  0  0  0  0  0  0  0  0  0  0
  -11.9630   23.4220   -8.3640 C   0  0  0  0  0  0  0  0  0  0  0  0
  -12.1470   23.5810  -10.0720 Cl  0  0  0  0  0  0  0  0  0  0  0  0
  -22.0232   18.4296   -5.4243 H   0  0  0  0  0  0  0  0  0  0  0  0
  -23.1132   17.3683   -3.4464 H   0  0  0  0  0  0  0  0  0  0  0  0
  -21.9358   17.3063   -1.2532 H   0  0  0  0  0  0  0  0  0  0  0  0
  -19.6558   18.2862   -1.0375 H   0  0  0  0  0  0  0  0  0  0  0  0
  -17.1612   16.9453   -5.8321 H   0  0  0  0  0  0  0  0  0  0  0  0
  -18.7063   17.2662   -4.9272 H   0  0  0  0  0  0  0  0  0  0  0  0
  -20.2601   15.6399   -5.5485 H   0  0  0  0  0  0  0  0  0  0  0  0
  -21.5224   14.4238   -7.3180 H   0  0  0  0  0  0  0  0  0  0  0  0
  -20.9655   14.7825   -9.7219 H   0  0  0  0  0  0  0  0  0  0  0  0
  -19.1788   16.3985  -10.3582 H   0  0  0  0  0  0  0  0  0  0  0  0
  -17.9128   17.6182   -8.5942 H   0  0  0  0  0  0  0  0  0  0  0  0
  -16.7107   19.9992   -5.0930 H   0  0  0  0  0  0  0  0  0  0  0  0
  -14.5686   18.9584   -5.8542 H   0  0  0  0  0  0  0  0  0  0  0  0
  -15.6715   17.5778   -5.7537 H   0  0  0  0  0  0  0  0  0  0  0  0
  -14.3690   18.5080   -8.0340 H   0  0  0  0  0  0  0  0  0  0  0  0
  -15.6330   17.4000   -8.0720 H   0  0  0  0  0  0  0  0  0  0  0  0
  -15.6667   19.8394   -9.2651 H   0  0  0  0  0  0  0  0  0  0  0  0
  -17.1440   19.0070   -8.7951 H   0  0  0  0  0  0  0  0  0  0  0  0
  -17.1792   21.1782   -7.5847 H   0  0  0  0  0  0  0  0  0  0  0  0
  -15.2134   23.5062   -6.9201 H   0  0  0  0  0  0  0  0  0  0  0  0
  -16.7828   22.6901   -6.4860 H   0  0  0  0  0  0  0  0  0  0  0  0
  -15.4797   20.6755   -4.5269 H   0  0  0  0  0  0  0  0  0  0  0  0
  -15.0216   20.8958   -2.0893 H   0  0  0  0  0  0  0  0  0  0  0  0
  -14.6557   23.1474   -1.0845 H   0  0  0  0  0  0  0  0  0  0  0  0
  -14.7596   25.1819   -2.5183 H   0  0  0  0  0  0  0  0  0  0  0  0
  -15.2349   24.9714   -4.9521 H   0  0  0  0  0  0  0  0  0  0  0  0
  -13.1601   21.8808   -5.5543 H   0  0  0  0  0  0  0  0  0  0  0  0
  -11.3424   23.2347   -4.5140 H   0  0  0  0  0  0  0  0  0  0  0  0
   -9.9229   24.7098   -5.9355 H   0  0  0  0  0  0  0  0  0  0  0  0
  -10.3220   24.8389   -8.3908 H   0  0  0  0  0  0  0  0  0  0  0  0
  1  2  2  0
  2  3  2  0
  2  4  1  0
  4  5  2  0
  5  6  1  0
  6  7  2  0
  7  8  1  0
  8  9  2  0
  9 10  1  0
  2 11  1  0
 11 12  1  0
 12 13  1  0
 13 14  2  0
 14 15  1  0
 15 16  2  0
 16 17  1  0
 17 18  2  0
 11 19  1  0
 19 20  1  0
 20 21  1  0
 21 22  1  0
 22 23  1  0
 23 24  1  0
 24 25  1  0
 25 26  1  0
 26 27  2  0
 27 28  1  0
 28 29  2  0
 29 30  1  0
 30 31  2  0
 24 32  1  0
 32 33  2  0
 32 34  2  0
 32 35  1  0
 35 36  2  0
 36 37  1  0
 37 38  2  0
 38 39  1  0
 39 40  2  0
 40 41  1  0
  9  4  1  0
 18 13  1  0
 23 19  1  0
 31 26  1  0
 40 35  1  0
  5 42  1  0
  6 43  1  0
  7 44  1  0
  8 45  1  0
 12 46  1  0
 12 47  1  0
 14 48  1  0
 15 49  1  0
 16 50  1  0
 17 51  1  0
 18 52  1  0
 19 53  1  1
 20 54  1  0
 20 55  1  0
 21 56  1  0
 21 57  1  0
 22 58  1  0
 22 59  1  0
 23 60  1  6
 25 61  1  0
 25 62  1  0
 27 63  1  0
 28 64  1  0
 29 65  1  0
 30 66  1  0
 31 67  1  0
 36 68  1  0
 37 69  1  0
 38 70  1  0
 39 71  1  0
M  CHG  1  21   1
M  END
>  <meeko>  (5) 
{"is_sidechain": [false], "free_energy": -10.548, "intermolecular_energy": -15.407, "internal_energy": -1.372}

$$$$
2qnq_ligand
     RDKit          3D

 71 75  0  0  0  0  0  0  0  0999 V2000
  -15.9700   20.0610  -10.1310 O   0  0  0  0  0  0  0  0  0  0  0  0
  -15.6990   20.3750   -8.7480 S   0  0  0  0  0  0  0  0  0  0  0  0
  -16.3700   21.4680   -8.0790 O   0  0  0  0  0  0  0  0  0  0  0  0
  -13.9540   20.6420   -8.5930 C   0  0  0  0  0  0  0  0  0  0  0  0
  -13.0960   19.6600   -8.0830 C   0  0  0  0  0  0  0  0  0  0  0  0
  -11.7280   19.9190   -7.9500 C   0  0  0  0  0  0  0  0  0  0  0  0
  -11.2110   21.1540   -8.3270 C   0  0  0  0  0  0  0  0  0  0  0  0
  -12.0580   22.1310   -8.8460 C   0  0  0  0  0  0  0  0  0  0  0  0
  -13.4300   21.8820   -8.9840 C   0  0  0  0  0  0  0  0  0  0  0  0
  -14.3770   23.1550   -9.6640 Cl  0  0  0  0  0  0  0  0  0  0  0  0
  -16.1250   18.9710   -7.8440 N   0  0  0  0  0  0  0  0  0  0  0  0
  -16.2660   17.7320   -8.6710 C   0  0  0  0  0  0  0  0  0  0  0  0
  -17.7090   17.3070   -8.8350 C   0  0  0  0  0  0  0  0  0  0  0  0
  -18.7200   18.2600   -9.0400 C   0  0  0  0  0  0  0  0  0  0  0  0
  -20.0520   17.8650   -9.1670 C   0  0  0  0  0  0  0  0  0  0  0  0
  -20.3870   16.5140   -9.1130 C   0  0  0  0  0  0  0  0  0  0  0  0
  -19.3900   15.5550   -8.9540 C   0  0  0  0  0  0  0  0  0  0  0  0
  -18.0570   15.9490   -8.8250 C   0  0  0  0  0  0  0  0  0  0  0  0
  -16.9620   19.1390   -6.5880 C   0  0  1  0  0  0  0  0  0  0  0  0
  -16.8610   17.9480   -5.6060 C   0  0  0  0  0  0  0  0  0  0  0  0
  -15.5960   18.1670   -4.8260 N   0  0  0  0  0  0  0  0  0  0  0  0
  -15.1540   19.5730   -5.1050 C   0  0  0  0  0  0  0  0  0  0  0  0
  -16.4160   20.2670   -5.6540 C   0  0  2  0  0  0  0  0  0  0  0  0
  -17.5110   20.6400   -4.6190 N   0  0  0  0  0  0  0  0  0  0  0  0
  -18.8250   20.0020   -5.0130 C   0  0  0  0  0  0  0  0  0  0  0  0
  -19.5080   19.3070   -3.8600 C   0  0  0  0  0  0  0  0  0  0  0  0
  -18.7740   18.9110   -2.7340 C   0  0  0  0  0  0  0  0  0  0  0  0
  -19.3950   18.2340   -1.6820 C   0  0  0  0  0  0  0  0  0  0  0  0
  -20.7550   17.9420   -1.7470 C   0  0  0  0  0  0  0  0  0  0  0  0
  -21.4950   18.3210   -2.8640 C   0  0  0  0  0  0  0  0  0  0  0  0
  -20.8750   18.9920   -3.9170 C   0  0  0  0  0  0  0  0  0  0  0  0
  -17.6760   22.3140   -4.2530 S   0  0  0  0  0  0  0  0  0  0  0  0
  -17.7170   23.0100   -5.5270 O   0  0  0  0  0  0  0  0  0  0  0  0
  -18.8100   22.3950   -3.3610 O   0  0  0  0  0  0  0  0  0  0  0  0
  -16.2100   22.7920   -3.3970 C   0  0  0  0  0  0  0  0  0  0  0  0
  -16.2640   22.8830   -1.9960 C   0  0  0  0  0  0  0  0  0  0  0  0
  -15.1370   23.2720   -1.2750 C   0  0  0  0  0  0  0  0  0  0  0  0
  -13.9560   23.5790   -1.9450 C   0  0  0  0  0  0  0  0  0  0  0  0
  -13.9040   23.5040   -3.3380 C   0  0  0  0  0  0  0  0  0  0  0  0
  -15.0310   23.1140   -4.0720 C   0  0  0  0  0  0  0  0  0  0  0  0
  -14.8510   23.0490   -5.7870 Cl  0  0  0  0  0  0  0  0  0  0  0  0
  -13.4995   18.6808   -7.7857 H   0  0  0  0  0  0  0  0  0  0  0  0
  -11.0595   19.1443   -7.5464 H   0  0  0  0  0  0  0  0  0  0  0  0
  -10.1360   21.3589   -8.2157 H   0  0  0  0  0  0  0  0  0  0  0  0
  -11.6466   23.1049   -9.1496 H   0  0  0  0  0  0  0  0  0  0  0  0
  -15.8386   17.9217   -9.6667 H   0  0  0  0  0  0  0  0  0  0  0  0
  -15.7352   16.9207   -8.1514 H   0  0  0  0  0  0  0  0  0  0  0  0
  -18.4594   19.3270   -9.1010 H   0  0  0  0  0  0  0  0  0  0  0  0
  -20.8382   18.6209   -9.3099 H   0  0  0  0  0  0  0  0  0  0  0  0
  -21.4393   16.2047   -9.1960 H   0  0  0  0  0  0  0  0  0  0  0  0
  -19.6527   14.4871   -8.9300 H   0  0  0  0  0  0  0  0  0  0  0  0
  -17.2720   15.1864   -8.7144 H   0  0  0  0  0  0  0  0  0  0  0  0
  -17.9648   19.3039   -7.0089 H   0  0  0  0  0  0  0  0  0  0  0  0
  -17.7295   17.9333   -4.9311 H   0  0  0  0  0  0  0  0  0  0  0  0
  -16.8474   16.9850   -6.1375 H   0  0  0  0  0  0  0  0  0  0  0  0
  -15.8040   18.1030   -3.8080 H   0  0  0  0  0  0  0  0  0  0  0  0
  -14.8550   17.4900   -5.0510 H   0  0  0  0  0  0  0  0  0  0  0  0
  -14.8096   20.0635   -4.1826 H   0  0  0  0  0  0  0  0  0  0  0  0
  -14.3103   19.6164   -5.8095 H   0  0  0  0  0  0  0  0  0  0  0  0
  -16.1690   21.2421   -6.0992 H   0  0  0  0  0  0  0  0  0  0  0  0
  -19.4946   20.7855   -5.3973 H   0  0  0  0  0  0  0  0  0  0  0  0
  -18.6071   19.2403   -5.7761 H   0  0  0  0  0  0  0  0  0  0  0  0
  -17.6986   19.1354   -2.6781 H   0  0  0  0  0  0  0  0  0  0  0  0
  -18.8093   17.9312   -0.8015 H   0  0  0  0  0  0  0  0  0  0  0  0
  -21.2444   17.4123   -0.9164 H   0  0  0  0  0  0  0  0  0  0  0  0
  -22.5694   18.0908   -2.9156 H   0  0  0  0  0  0  0  0  0  0  0  0
  -21.4629   19.2776   -4.8017 H   0  0  0  0  0  0  0  0  0  0  0  0
  -17.1988   22.6464   -1.4668 H   0  0  0  0  0  0  0  0  0  0  0  0
  -15.1804   23.3364   -0.1777 H   0  0  0  0  0  0  0  0  0  0  0  0
  -13.0638   23.8807   -1.3768 H   0  0  0  0  0  0  0  0  0  0  0  0
  -12.9702   23.7533   -3.8633 H   0  0  0  0  0  0  0  0  0  0  0  0
  1  2  2  0
  2  3  2  0
  2  4  1  0
  4  5  2  0
  5  6  1  0
  6  7  2  0
  7  8  1  0
  8  9  2  0
  9 10  1  0
  2 11  1  0
 11 12  1  0
 12 13  1  0
 13 14  2  0
 14 15  1  0
 15 16  2  0
 16 17  1  0
 17 18  2  0
 11 19  1  0
 19 20  1  0
 20 21  1  0
 21 22  1  0
 22 23  1  0
 23 24  1  0
 24 25  1  0
 25 26  1  0
 26 27  2  0
 27 28  1  0
 28 29  2  0
 29 30  1  0
 30 31  2  0
 24 32  1  0
 32 33  2  0
 32 34  2  0
 32 35  1  0
 35 36  2  0
 36 37  1  0
 37 38  2  0
 38 39  1  0
 39 40  2  0
 40 41  1  0
  9  4  1  0
 18 13  1  0
 23 19  1  0
 31 26  1  0
 40 35  1  0
  5 42  1  0
  6 43  1  0
  7 44  1  0
  8 45  1  0
 12 46  1  0
 12 47  1  0
 14 48  1  0
 15 49  1  0
 16 50  1  0
 17 51  1  0
 18 52  1  0
 19 53  1  6
 20 54  1  0
 20 55  1  0
 21 56  1  0
 21 57  1  0
 22 58  1  0
 22 59  1  0
 23 60  1  6
 25 61  1  0
 25 62  1  0
 27 63  1  0
 28 64  1  0
 29 65  1  0
 30 66  1  0
 31 67  1  0
 36 68  1  0
 37 69  1  0
 38 70  1  0
 39 71  1  0
M  CHG  1  21   1
M  END
>  <meeko>  (6) 
{"is_sidechain": [false], "free_energy": -10.364, "intermolecular_energy": -16.228, "internal_energy": -0.26}

$$$$
2qnq_ligand
     RDKit          3D

 71 75  0  0  0  0  0  0  0  0999 V2000
  -17.2610   17.4100   -5.3560 O   0  0  0  0  0  0  0  0  0  0  0  0
  -18.3700   18.1010   -4.7400 S   0  0  0  0  0  0  0  0  0  0  0  0
  -18.4060   18.3460   -3.3150 O   0  0  0  0  0  0  0  0  0  0  0  0
  -19.8500   17.2270   -5.1700 C   0  0  0  0  0  0  0  0  0  0  0  0
  -19.8250   16.0700   -5.9600 C   0  0  0  0  0  0  0  0  0  0  0  0
  -21.0170   15.4250   -6.3020 C   0  0  0  0  0  0  0  0  0  0  0  0
  -22.2350   15.9250   -5.8560 C   0  0  0  0  0  0  0  0  0  0  0  0
  -22.2660   17.0680   -5.0590 C   0  0  0  0  0  0  0  0  0  0  0  0
  -21.0780   17.7230   -4.7110 C   0  0  0  0  0  0  0  0  0  0  0  0
  -21.2350   19.1130   -3.6990 Cl  0  0  0  0  0  0  0  0  0  0  0  0
  -18.4220   19.6640   -5.4620 N   0  0  0  0  0  0  0  0  0  0  0  0
  -19.3260   19.7580   -6.6510 C   0  0  0  0  0  0  0  0  0  0  0  0
  -18.8300   18.9380   -7.8210 C   0  0  0  0  0  0  0  0  0  0  0  0
  -19.7270   18.2250   -8.6310 C   0  0  0  0  0  0  0  0  0  0  0  0
  -19.2610   17.4510   -9.6960 C   0  0  0  0  0  0  0  0  0  0  0  0
  -17.8980   17.3990   -9.9760 C   0  0  0  0  0  0  0  0  0  0  0  0
  -17.0000   18.1350   -9.2070 C   0  0  0  0  0  0  0  0  0  0  0  0
  -17.4640   18.9080   -8.1420 C   0  0  0  0  0  0  0  0  0  0  0  0
  -17.1890   20.5460   -5.3820 C   0  0  1  0  0  0  0  0  0  0  0  0
  -17.2650   21.8110   -6.2680 C   0  0  0  0  0  0  0  0  0  0  0  0
  -18.0660   22.8120   -5.4850 N   0  0  0  0  0  0  0  0  0  0  0  0
  -18.1710   22.2810   -4.0860 C   0  0  0  0  0  0  0  0  0  0  0  0
  -17.0400   21.2390   -3.9890 C   0  0  2  0  0  0  0  0  0  0  0  0
  -15.5950   21.7900   -3.8490 N   0  0  0  0  0  0  0  0  0  0  0  0
  -14.6010   20.7150   -4.2310 C   0  0  0  0  0  0  0  0  0  0  0  0
  -13.9870   20.9430   -5.5920 C   0  0  0  0  0  0  0  0  0  0  0  0
  -13.9810   19.9200   -6.5500 C   0  0  0  0  0  0  0  0  0  0  0  0
  -13.3800   20.1140   -7.7940 C   0  0  0  0  0  0  0  0  0  0  0  0
  -12.7740   21.3320   -8.0950 C   0  0  0  0  0  0  0  0  0  0  0  0
  -12.7630   22.3540   -7.1500 C   0  0  0  0  0  0  0  0  0  0  0  0
  -13.3590   22.1590   -5.9040 C   0  0  0  0  0  0  0  0  0  0  0  0
  -15.2070   22.5430   -2.3510 S   0  0  0  0  0  0  0  0  0  0  0  0
  -16.4080   23.2340   -1.9170 O   0  0  0  0  0  0  0  0  0  0  0  0
  -14.6560   21.4880   -1.5300 O   0  0  0  0  0  0  0  0  0  0  0  0
  -13.9600   23.7420   -2.6950 C   0  0  0  0  0  0  0  0  0  0  0  0
  -12.8050   23.7410   -1.8950 C   0  0  0  0  0  0  0  0  0  0  0  0
  -11.7980   24.6780   -2.1160 C   0  0  0  0  0  0  0  0  0  0  0  0
  -11.9410   25.6240   -3.1270 C   0  0  0  0  0  0  0  0  0  0  0  0
  -13.0940   25.6370   -3.9140 C   0  0  0  0  0  0  0  0  0  0  0  0
  -14.1110   24.6990   -3.7000 C   0  0  0  0  0  0  0  0  0  0  0  0
  -15.4890   24.8040   -4.7350 Cl  0  0  0  0  0  0  0  0  0  0  0  0
  -18.8637   15.6678   -6.3124 H   0  0  0  0  0  0  0  0  0  0  0  0
  -20.9912   14.5193   -6.9257 H   0  0  0  0  0  0  0  0  0  0  0  0
  -23.1724   15.4196   -6.1315 H   0  0  0  0  0  0  0  0  0  0  0  0
  -23.2301   17.4583   -4.7009 H   0  0  0  0  0  0  0  0  0  0  0  0
  -20.3245   19.3962   -6.3646 H   0  0  0  0  0  0  0  0  0  0  0  0
  -19.3533   20.8110   -6.9681 H   0  0  0  0  0  0  0  0  0  0  0  0
  -20.8064   18.2761   -8.4254 H   0  0  0  0  0  0  0  0  0  0  0  0
  -19.9712   16.8821  -10.3140 H   0  0  0  0  0  0  0  0  0  0  0  0
  -17.5304   16.7763  -10.8049 H   0  0  0  0  0  0  0  0  0  0  0  0
  -15.9251   18.1070   -9.4391 H   0  0  0  0  0  0  0  0  0  0  0  0
  -16.7520   19.4998   -7.5480 H   0  0  0  0  0  0  0  0  0  0  0  0
  -16.3929   19.8388   -5.6580 H   0  0  0  0  0  0  0  0  0  0  0  0
  -16.2556   22.2000   -6.4675 H   0  0  0  0  0  0  0  0  0  0  0  0
  -17.7278   21.5955   -7.2424 H   0  0  0  0  0  0  0  0  0  0  0  0
  -17.5420   23.7100   -5.4380 H   0  0  0  0  0  0  0  0  0  0  0  0
  -18.9960   22.9960   -5.8850 H   0  0  0  0  0  0  0  0  0  0  0  0
  -18.0231   23.0862   -3.3513 H   0  0  0  0  0  0  0  0  0  0  0  0
  -19.1600   21.8491   -3.8733 H   0  0  0  0  0  0  0  0  0  0  0  0
  -17.1461   20.6232   -3.0837 H   0  0  0  0  0  0  0  0  0  0  0  0
  -13.7966   20.6975   -3.4809 H   0  0  0  0  0  0  0  0  0  0  0  0
  -15.1445   19.7594   -4.2686 H   0  0  0  0  0  0  0  0  0  0  0  0
  -14.4548   18.9546   -6.3188 H   0  0  0  0  0  0  0  0  0  0  0  0
  -13.3846   19.3041   -8.5384 H   0  0  0  0  0  0  0  0  0  0  0  0
  -12.3049   21.4857   -9.0780 H   0  0  0  0  0  0  0  0  0  0  0  0
  -12.2841   23.3158   -7.3859 H   0  0  0  0  0  0  0  0  0  0  0  0
  -13.3366   22.9669   -5.1578 H   0  0  0  0  0  0  0  0  0  0  0  0
  -12.6955   22.9978   -1.0914 H   0  0  0  0  0  0  0  0  0  0  0  0
  -10.8916   24.6703   -1.4927 H   0  0  0  0  0  0  0  0  0  0  0  0
  -11.1450   26.3618   -3.3060 H   0  0  0  0  0  0  0  0  0  0  0  0
  -13.2042   26.3900   -4.7083 H   0  0  0  0  0  0  0  0  0  0  0  0
  1  2  2  0
  2  3  2  0
  2  4  1  0
  4  5  2  0
  5  6  1  0
  6  7  2  0
  7  8  1  0
  8  9  2  0
  9 10  1  0
  2 11  1  0
 11 12  1  0
 12 13  1  0
 13 14  2  0
 14 15  1  0
 15 16  2  0
 16 17  1  0
 17 18  2  0
 11 19  1  0
 19 20  1  0
 20 21  1  0
 21 22  1  0
 22 23  1  0
 23 24  1  0
 24 25  1  0
 25 26  1  0
 26 27  2  0
 27 28  1  0
 28 29  2  0
 29 30  1  0
 30 31  2  0
 24 32  1  0
 32 33  2  0
 32 34  2  0
 32 35  1  0
 35 36  2  0
 36 37  1  0
 37 38  2  0
 38 39  1  0
 39 40  2  0
 40 41  1  0
  9  4  1  0
 18 13  1  0
 23 19  1  0
 31 26  1  0
 40 35  1  0
  5 42  1  0
  6 43  1  0
  7 44  1  0
  8 45  1  0
 12 46  1  0
 12 47  1  0
 14 48  1  0
 15 49  1  0
 16 50  1  0
 17 51  1  0
 18 52  1  0
 19 53  1  6
 20 54  1  0
 20 55  1  0
 21 56  1  0
 21 57  1  0
 22 58  1  0
 22 59  1  0
 23 60  1  1
 25 61  1  0
 25 62  1  0
 27 63  1  0
 28 64  1  0
 29 65  1  0
 30 66  1  0
 31 67  1  0
 36 68  1  0
 37 69  1  0
 38 70  1  0
 39 71  1  0
M  CHG  1  21   1
M  END
>  <meeko>  (7) 
{"is_sidechain": [false], "free_energy": -10.196, "intermolecular_energy": -15.243, "internal_energy": -0.978}

$$$$
2qnq_ligand
     RDKit          3D

 71 75  0  0  0  0  0  0  0  0999 V2000
  -13.5520   21.2620   -4.4350 O   0  0  0  0  0  0  0  0  0  0  0  0
  -14.2200   21.1560   -5.7110 S   0  0  0  0  0  0  0  0  0  0  0  0
  -14.4880   19.8690   -6.3140 O   0  0  0  0  0  0  0  0  0  0  0  0
  -13.2950   22.1130   -6.8800 C   0  0  0  0  0  0  0  0  0  0  0  0
  -12.1110   22.7730   -6.5260 C   0  0  0  0  0  0  0  0  0  0  0  0
  -11.4240   23.5420   -7.4700 C   0  0  0  0  0  0  0  0  0  0  0  0
  -11.9100   23.6530   -8.7690 C   0  0  0  0  0  0  0  0  0  0  0  0
  -13.0810   22.9890   -9.1300 C   0  0  0  0  0  0  0  0  0  0  0  0
  -13.7770   22.2160   -8.1920 C   0  0  0  0  0  0  0  0  0  0  0  0
  -15.1990   21.4170   -8.7590 Cl  0  0  0  0  0  0  0  0  0  0  0  0
  -15.7680   21.8830   -5.5040 N   0  0  0  0  0  0  0  0  0  0  0  0
  -15.7180   23.3410   -5.1690 C   0  0  0  0  0  0  0  0  0  0  0  0
  -15.0230   23.6090   -3.8530 C   0  0  0  0  0  0  0  0  0  0  0  0
  -13.9050   24.4550   -3.7910 C   0  0  0  0  0  0  0  0  0  0  0  0
  -13.2520   24.6800   -2.5770 C   0  0  0  0  0  0  0  0  0  0  0  0
  -13.7220   24.0810   -1.4110 C   0  0  0  0  0  0  0  0  0  0  0  0
  -14.8550   23.2730   -1.4510 C   0  0  0  0  0  0  0  0  0  0  0  0
  -15.5080   23.0460   -2.6630 C   0  0  0  0  0  0  0  0  0  0  0  0
  -16.9120   21.0290   -4.9850 C   0  0  1  0  0  0  0  0  0  0  0  0
  -18.2010   21.8270   -4.6810 C   0  0  0  0  0  0  0  0  0  0  0  0
  -18.8940   22.0030   -6.0020 N   0  0  0  0  0  0  0  0  0  0  0  0
  -18.2190   21.0780   -6.9710 C   0  0  0  0  0  0  0  0  0  0  0  0
  -17.4800   20.0650   -6.0770 C   0  0  2  0  0  0  0  0  0  0  0  0
  -18.3490   18.9780   -5.3880 N   0  0  0  0  0  0  0  0  0  0  0  0
  -18.2590   19.1290   -3.8860 C   0  0  0  0  0  0  0  0  0  0  0  0
  -19.5500   18.7840   -3.1840 C   0  0  0  0  0  0  0  0  0  0  0  0
  -19.5350   18.0800   -1.9720 C   0  0  0  0  0  0  0  0  0  0  0  0
  -20.7280   17.7250   -1.3400 C   0  0  0  0  0  0  0  0  0  0  0  0
  -21.9500   18.0670   -1.9150 C   0  0  0  0  0  0  0  0  0  0  0  0
  -21.9810   18.7580   -3.1230 C   0  0  0  0  0  0  0  0  0  0  0  0
  -20.7900   19.1080   -3.7580 C   0  0  0  0  0  0  0  0  0  0  0  0
  -18.0910   17.3560   -5.9040 S   0  0  0  0  0  0  0  0  0  0  0  0
  -16.7210   17.0270   -5.5520 O   0  0  0  0  0  0  0  0  0  0  0  0
  -19.1770   16.5990   -5.3240 O   0  0  0  0  0  0  0  0  0  0  0  0
  -18.2370   17.3550   -7.6620 C   0  0  0  0  0  0  0  0  0  0  0  0
  -17.1050   17.0080   -8.4180 C   0  0  0  0  0  0  0  0  0  0  0  0
  -17.1650   17.0080   -9.8100 C   0  0  0  0  0  0  0  0  0  0  0  0
  -18.3470   17.3610  -10.4540 C   0  0  0  0  0  0  0  0  0  0  0  0
  -19.4690   17.7200   -9.7060 C   0  0  0  0  0  0  0  0  0  0  0  0
  -19.4200   17.7230   -8.3060 C   0  0  0  0  0  0  0  0  0  0  0  0
  -20.8670   18.1780   -7.4830 Cl  0  0  0  0  0  0  0  0  0  0  0  0
  -11.7204   22.6858   -5.5014 H   0  0  0  0  0  0  0  0  0  0  0  0
  -10.4968   24.0607   -7.1850 H   0  0  0  0  0  0  0  0  0  0  0  0
  -11.3715   24.2632   -9.5090 H   0  0  0  0  0  0  0  0  0  0  0  0
  -13.4613   23.0726  -10.1588 H   0  0  0  0  0  0  0  0  0  0  0  0
  -15.1761   23.8682   -5.9680 H   0  0  0  0  0  0  0  0  0  0  0  0
  -16.7542   23.6991   -5.0789 H   0  0  0  0  0  0  0  0  0  0  0  0
  -13.5400   24.9448   -4.7058 H   0  0  0  0  0  0  0  0  0  0  0  0
  -12.3659   25.3308   -2.5419 H   0  0  0  0  0  0  0  0  0  0  0  0
  -13.1979   24.2463   -0.4581 H   0  0  0  0  0  0  0  0  0  0  0  0
  -15.2355   22.8134   -0.5269 H   0  0  0  0  0  0  0  0  0  0  0  0
  -16.4119   22.4195   -2.6857 H   0  0  0  0  0  0  0  0  0  0  0  0
  -16.4510   20.5494   -4.1089 H   0  0  0  0  0  0  0  0  0  0  0  0
  -18.8421   21.2680   -3.9835 H   0  0  0  0  0  0  0  0  0  0  0  0
  -17.9763   22.7950   -4.2093 H   0  0  0  0  0  0  0  0  0  0  0  0
  -19.8840   21.6930   -5.9140 H   0  0  0  0  0  0  0  0  0  0  0  0
  -18.8850   22.9740   -6.3430 H   0  0  0  0  0  0  0  0  0  0  0  0
  -18.9600   20.5699   -7.6056 H   0  0  0  0  0  0  0  0  0  0  0  0
  -17.5406   21.6082   -7.6556 H   0  0  0  0  0  0  0  0  0  0  0  0
  -16.7716   19.4633   -6.6653 H   0  0  0  0  0  0  0  0  0  0  0  0
  -17.4673   18.4627   -3.5128 H   0  0  0  0  0  0  0  0  0  0  0  0
  -18.0384   20.1853   -3.6724 H   0  0  0  0  0  0  0  0  0  0  0  0
  -18.5735   17.8045   -1.5143 H   0  0  0  0  0  0  0  0  0  0  0  0
  -20.7032   17.1750   -0.3877 H   0  0  0  0  0  0  0  0  0  0  0  0
  -22.8900   17.7911   -1.4146 H   0  0  0  0  0  0  0  0  0  0  0  0
  -22.9458   19.0281   -3.5770 H   0  0  0  0  0  0  0  0  0  0  0  0
  -20.8221   19.6434   -4.7184 H   0  0  0  0  0  0  0  0  0  0  0  0
  -16.1684   16.7355   -7.9095 H   0  0  0  0  0  0  0  0  0  0  0  0
  -16.2790   16.7293  -10.3993 H   0  0  0  0  0  0  0  0  0  0  0  0
  -18.3969   17.3570  -11.5529 H   0  0  0  0  0  0  0  0  0  0  0  0
  -20.3995   18.0029  -10.2199 H   0  0  0  0  0  0  0  0  0  0  0  0
  1  2  2  0
  2  3  2  0
  2  4  1  0
  4  5  2  0
  5  6  1  0
  6  7  2  0
  7  8  1  0
  8  9  2  0
  9 10  1  0
  2 11  1  0
 11 12  1  0
 12 13  1  0
 13 14  2  0
 14 15  1  0
 15 16  2  0
 16 17  1  0
 17 18  2  0
 11 19  1  0
 19 20  1  0
 20 21  1  0
 21 22  1  0
 22 23  1  0
 23 24  1  0
 24 25  1  0
 25 26  1  0
 26 27  2  0
 27 28  1  0
 28 29  2  0
 29 30  1  0
 30 31  2  0
 24 32  1  0
 32 33  2  0
 32 34  2  0
 32 35  1  0
 35 36  2  0
 36 37  1  0
 37 38  2  0
 38 39  1  0
 39 40  2  0
 40 41  1  0
  9  4  1  0
 18 13  1  0
 23 19  1  0
 31 26  1  0
 40 35  1  0
  5 42  1  0
  6 43  1  0
  7 44  1  0
  8 45  1  0
 12 46  1  0
 12 47  1  0
 14 48  1  0
 15 49  1  0
 16 50  1  0
 17 51  1  0
 18 52  1  0
 19 53  1  1
 20 54  1  0
 20 55  1  0
 21 56  1  0
 21 57  1  0
 22 58  1  0
 22 59  1  0
 23 60  1  6
 25 61  1  0
 25 62  1  0
 27 63  1  0
 28 64  1  0
 29 65  1  0
 30 66  1  0
 31 67  1  0
 36 68  1  0
 37 69  1  0
 38 70  1  0
 39 71  1  0
M  CHG  1  21   1
M  END
>  <meeko>  (8) 
{"is_sidechain": [false], "free_energy": -10.055, "intermolecular_energy": -15.561, "internal_energy": -0.436}

$$$$
2qnq_ligand
     RDKit          3D

 71 75  0  0  0  0  0  0  0  0999 V2000
  -16.0170   20.5820   -3.6240 O   0  0  0  0  0  0  0  0  0  0  0  0
  -14.8270   21.0330   -4.3060 S   0  0  0  0  0  0  0  0  0  0  0  0
  -13.6340   20.2170   -4.3550 O   0  0  0  0  0  0  0  0  0  0  0  0
  -14.3750   22.5990   -3.6110 C   0  0  0  0  0  0  0  0  0  0  0  0
  -13.0760   23.1130   -3.7220 C   0  0  0  0  0  0  0  0  0  0  0  0
  -12.7520   24.3400   -3.1350 C   0  0  0  0  0  0  0  0  0  0  0  0
  -13.7180   25.0600   -2.4410 C   0  0  0  0  0  0  0  0  0  0  0  0
  -15.0150   24.5600   -2.3380 C   0  0  0  0  0  0  0  0  0  0  0  0
  -15.3510   23.3320   -2.9220 C   0  0  0  0  0  0  0  0  0  0  0  0
  -16.9930   22.8250   -2.7530 Cl  0  0  0  0  0  0  0  0  0  0  0  0
  -15.2750   21.2690   -5.9520 N   0  0  0  0  0  0  0  0  0  0  0  0
  -14.8890   22.6040   -6.5050 C   0  0  0  0  0  0  0  0  0  0  0  0
  -13.7350   22.5150   -7.4800 C   0  0  0  0  0  0  0  0  0  0  0  0
  -12.5230   21.9150   -7.1060 C   0  0  0  0  0  0  0  0  0  0  0  0
  -11.4540   21.8560   -8.0010 C   0  0  0  0  0  0  0  0  0  0  0  0
  -11.5910   22.3760   -9.2860 C   0  0  0  0  0  0  0  0  0  0  0  0
  -12.8020   22.9360   -9.6850 C   0  0  0  0  0  0  0  0  0  0  0  0
  -13.8710   22.9960   -8.7900 C   0  0  0  0  0  0  0  0  0  0  0  0
  -16.5140   20.5650   -6.4780 C   0  0  1  0  0  0  0  0  0  0  0  0
  -16.9930   21.0850   -7.8530 C   0  0  0  0  0  0  0  0  0  0  0  0
  -16.1340   20.3950   -8.8730 N   0  0  0  0  0  0  0  0  0  0  0  0
  -15.4170   19.2890   -8.1580 C   0  0  0  0  0  0  0  0  0  0  0  0
  -16.2350   19.0780   -6.8690 C   0  0  2  0  0  0  0  0  0  0  0  0
  -17.5880   18.3310   -7.0170 N   0  0  0  0  0  0  0  0  0  0  0  0
  -17.8460   17.4930   -5.7840 C   0  0  0  0  0  0  0  0  0  0  0  0
  -19.1160   17.8820   -5.0670 C   0  0  0  0  0  0  0  0  0  0  0  0
  -20.0900   16.9170   -4.7720 C   0  0  0  0  0  0  0  0  0  0  0  0
  -21.2830   17.2790   -4.1450 C   0  0  0  0  0  0  0  0  0  0  0  0
  -21.5180   18.6090   -3.8070 C   0  0  0  0  0  0  0  0  0  0  0  0
  -20.5650   19.5800   -4.1020 C   0  0  0  0  0  0  0  0  0  0  0  0
  -19.3750   19.2210   -4.7340 C   0  0  0  0  0  0  0  0  0  0  0  0
  -17.8140   17.4440   -8.4750 S   0  0  0  0  0  0  0  0  0  0  0  0
  -17.9160   18.4250   -9.5400 O   0  0  0  0  0  0  0  0  0  0  0  0
  -16.7400   16.4760   -8.4970 O   0  0  0  0  0  0  0  0  0  0  0  0
  -19.3620   16.6110   -8.3250 C   0  0  0  0  0  0  0  0  0  0  0  0
  -19.3530   15.2080   -8.2630 C   0  0  0  0  0  0  0  0  0  0  0  0
  -20.5500   14.5030   -8.1610 C   0  0  0  0  0  0  0  0  0  0  0  0
  -21.7600   15.1910   -8.1300 C   0  0  0  0  0  0  0  0  0  0  0  0
  -21.7730   16.5850   -8.2070 C   0  0  0  0  0  0  0  0  0  0  0  0
  -20.5750   17.3030   -8.3090 C   0  0  0  0  0  0  0  0  0  0  0  0
  -20.7090   19.0210   -8.3920 Cl  0  0  0  0  0  0  0  0  0  0  0  0
  -12.3087   22.5493   -4.2728 H   0  0  0  0  0  0  0  0  0  0  0  0
  -11.7298   24.7368   -3.2225 H   0  0  0  0  0  0  0  0  0  0  0  0
  -13.4593   26.0219   -1.9743 H   0  0  0  0  0  0  0  0  0  0  0  0
  -15.7800   25.1338   -1.7943 H   0  0  0  0  0  0  0  0  0  0  0  0
  -15.7574   23.0353   -7.0245 H   0  0  0  0  0  0  0  0  0  0  0  0
  -14.5676   23.2347   -5.6630 H   0  0  0  0  0  0  0  0  0  0  0  0
  -12.4146   21.4873   -6.0984 H   0  0  0  0  0  0  0  0  0  0  0  0
  -10.5026   21.3986   -7.6916 H   0  0  0  0  0  0  0  0  0  0  0  0
  -10.7427   22.3443   -9.9855 H   0  0  0  0  0  0  0  0  0  0  0  0
  -12.9159   23.3309  -10.7053 H   0  0  0  0  0  0  0  0  0  0  0  0
  -14.8301   23.4250   -9.1156 H   0  0  0  0  0  0  0  0  0  0  0  0
  -17.2251   20.7227   -5.6537 H   0  0  0  0  0  0  0  0  0  0  0  0
  -18.0520   20.8326   -8.0103 H   0  0  0  0  0  0  0  0  0  0  0  0
  -16.9067   22.1793   -7.9245 H   0  0  0  0  0  0  0  0  0  0  0  0
  -16.7420   19.9560   -9.5950 H   0  0  0  0  0  0  0  0  0  0  0  0
  -15.4710   21.0260   -9.3440 H   0  0  0  0  0  0  0  0  0  0  0  0
  -15.4064   18.3733   -8.7674 H   0  0  0  0  0  0  0  0  0  0  0  0
  -14.3642   19.5332   -7.9532 H   0  0  0  0  0  0  0  0  0  0  0  0
  -15.6912   18.4418   -6.1552 H   0  0  0  0  0  0  0  0  0  0  0  0
  -17.9220   16.4379   -6.0858 H   0  0  0  0  0  0  0  0  0  0  0  0
  -17.0095   17.6598   -5.0895 H   0  0  0  0  0  0  0  0  0  0  0  0
  -19.9118   15.8645   -5.0374 H   0  0  0  0  0  0  0  0  0  0  0  0
  -22.0386   16.5126   -3.9175 H   0  0  0  0  0  0  0  0  0  0  0  0
  -22.4560   18.8924   -3.3072 H   0  0  0  0  0  0  0  0  0  0  0  0
  -20.7509   20.6311   -3.8364 H   0  0  0  0  0  0  0  0  0  0  0  0
  -18.6313   19.9951   -4.9742 H   0  0  0  0  0  0  0  0  0  0  0  0
  -18.3975   14.6640   -8.2951 H   0  0  0  0  0  0  0  0  0  0  0  0
  -20.5393   13.4045   -8.1050 H   0  0  0  0  0  0  0  0  0  0  0  0
  -22.7060   14.6362   -8.0448 H   0  0  0  0  0  0  0  0  0  0  0  0
  -22.7319   17.1236   -8.1874 H   0  0  0  0  0  0  0  0  0  0  0  0
  1  2  2  0
  2  3  2  0
  2  4  1  0
  4  5  2  0
  5  6  1  0
  6  7  2  0
  7  8  1  0
  8  9  2  0
  9 10  1  0
  2 11  1  0
 11 12  1  0
 12 13  1  0
 13 14  2  0
 14 15  1  0
 15 16  2  0
 16 17  1  0
 17 18  2  0
 11 19  1  0
 19 20  1  0
 20 21  1  0
 21 22  1  0
 22 23  1  0
 23 24  1  0
 24 25  1  0
 25 26  1  0
 26 27  2  0
 27 28  1  0
 28 29  2  0
 29 30  1  0
 30 31  2  0
 24 32  1  0
 32 33  2  0
 32 34  2  0
 32 35  1  0
 35 36  2  0
 36 37  1  0
 37 38  2  0
 38 39  1  0
 39 40  2  0
 40 41  1  0
  9  4  1  0
 18 13  1  0
 23 19  1  0
 31 26  1  0
 40 35  1  0
  5 42  1  0
  6 43  1  0
  7 44  1  0
  8 45  1  0
 12 46  1  0
 12 47  1  0
 14 48  1  0
 15 49  1  0
 16 50  1  0
 17 51  1  0
 18 52  1  0
 19 53  1  1
 20 54  1  0
 20 55  1  0
 21 56  1  0
 21 57  1  0
 22 58  1  0
 22 59  1  0
 23 60  1  1
 25 61  1  0
 25 62  1  0
 27 63  1  0
 28 64  1  0
 29 65  1  0
 30 66  1  0
 31 67  1  0
 36 68  1  0
 37 69  1  0
 38 70  1  0
 39 71  1  0
M  CHG  1  21   1
M  END
>  <meeko>  (9) 
{"is_sidechain": [false], "free_energy": -10.033, "intermolecular_energy": -14.281, "internal_energy": -1.682}

$$$$
