3e92_ligand
     RDKit          3D

 47 50  0  0  0  0  0  0  0  0999 V2000
   48.7380   34.8060   30.3180 C   0  0  0  0  0  0  0  0  0  0  0  0
   47.5340   34.8150   31.1620 C   0  0  0  0  0  0  0  0  0  0  0  0
   47.2050   35.6140   32.1520 N   0  0  0  0  0  0  0  0  0  0  0  0
   45.9730   35.1860   32.6020 N   0  0  0  0  0  0  0  0  0  0  0  0
   45.6350   34.1540   31.8540 C   0  0  0  0  0  0  0  0  0  0  0  0
   44.4400   33.3190   31.8900 C   0  0  0  0  0  0  0  0  0  0  0  0
   43.3740   33.6760   32.7240 C   0  0  0  0  0  0  0  0  0  0  0  0
   42.2180   32.8920   32.7780 C   0  0  0  0  0  0  0  0  0  0  0  0
   42.0900   31.7310   31.9970 C   0  0  0  0  0  0  0  0  0  0  0  0
   40.8540   30.9350   32.0970 C   0  0  0  0  0  0  0  0  0  0  0  0
   40.6840   30.0790   33.2000 C   0  0  0  0  0  0  0  0  0  0  0  0
   39.5230   29.3100   33.3480 C   0  0  0  0  0  0  0  0  0  0  0  0
   39.4110   28.4180   34.5340 C   0  0  0  0  0  0  0  0  0  0  0  0
   40.2670   28.4550   35.4110 O   0  0  0  0  0  0  0  0  0  0  0  0
   38.2920   27.6080   34.5780 N   0  0  0  0  0  0  0  0  0  0  0  0
   38.0340   26.7380   35.6810 C   0  0  0  0  0  0  0  0  0  0  0  0
   36.6890   26.0850   35.8340 C   0  0  0  0  0  0  0  0  0  0  0  0
   37.1100   27.1610   36.7910 C   0  0  0  0  0  0  0  0  0  0  0  0
   38.5230   29.3740   32.3750 C   0  0  0  0  0  0  0  0  0  0  0  0
   38.6760   30.2200   31.2750 C   0  0  0  0  0  0  0  0  0  0  0  0
   39.8310   31.0050   31.1250 C   0  0  0  0  0  0  0  0  0  0  0  0
   39.9530   31.9030   29.9210 C   0  0  0  0  0  0  0  0  0  0  0  0
   43.1570   31.3630   31.1510 C   0  0  0  0  0  0  0  0  0  0  0  0
   43.0920   30.1220   30.2990 C   0  0  0  0  0  0  0  0  0  0  0  0
   44.3190   32.1590   31.1100 C   0  0  0  0  0  0  0  0  0  0  0  0
   46.5860   33.8590   30.9080 O   0  0  0  0  0  0  0  0  0  0  0  0
   49.6335   34.7993   30.9568 H   0  0  0  0  0  0  0  0  0  0  0  0
   48.7339   33.9079   29.6829 H   0  0  0  0  0  0  0  0  0  0  0  0
   48.7473   35.7041   29.6829 H   0  0  0  0  0  0  0  0  0  0  0  0
   43.4467   34.5824   33.3430 H   0  0  0  0  0  0  0  0  0  0  0  0
   41.3941   33.1891   33.4435 H   0  0  0  0  0  0  0  0  0  0  0  0
   41.4768   30.0124   33.9596 H   0  0  0  0  0  0  0  0  0  0  0  0
   37.5430   27.7690   33.9170 H   0  0  0  0  0  0  0  0  0  0  0  0
   39.0733   26.3814   35.6285 H   0  0  0  0  0  0  0  0  0  0  0  0
   35.8950   26.2831   35.0989 H   0  0  0  0  0  0  0  0  0  0  0  0
   36.3358   25.0483   35.9369 H   0  0  0  0  0  0  0  0  0  0  0  0
   36.6251   28.1478   36.7570 H   0  0  0  0  0  0  0  0  0  0  0  0
   37.1936   27.2397   37.8850 H   0  0  0  0  0  0  0  0  0  0  0  0
   37.6165   28.7590   32.4752 H   0  0  0  0  0  0  0  0  0  0  0  0
   37.8816   30.2725   30.5159 H   0  0  0  0  0  0  0  0  0  0  0  0
   40.0942   32.9426   30.2517 H   0  0  0  0  0  0  0  0  0  0  0  0
   40.8169   31.5901   29.3162 H   0  0  0  0  0  0  0  0  0  0  0  0
   39.0369   31.8319   29.3162 H   0  0  0  0  0  0  0  0  0  0  0  0
   43.0455   29.2344   30.9470 H   0  0  0  0  0  0  0  0  0  0  0  0
   42.1946   30.1598   29.6640 H   0  0  0  0  0  0  0  0  0  0  0  0
   43.9884   30.0658   29.6640 H   0  0  0  0  0  0  0  0  0  0  0  0
   45.1497   31.8644   30.4519 H   0  0  0  0  0  0  0  0  0  0  0  0
  1  2  1  0
  2  3  2  0
  3  4  1  0
  4  5  2  0
  5  6  1  0
  6  7  2  0
  7  8  1  0
  8  9  2  0
  9 10  1  0
 10 11  2  0
 11 12  1  0
 12 13  1  0
 13 14  2  0
 13 15  1  0
 15 16  1  0
 16 17  1  0
 17 18  1  0
 12 19  2  0
 19 20  1  0
 20 21  2  0
 21 22  1  0
  9 23  1  0
 23 24  1  0
 23 25  2  0
  5 26  1  0
 26  2  1  0
 25  6  1  0
 21 10  1  0
 18 16  1  0
  1 27  1  0
  1 28  1  0
  1 29  1  0
  7 30  1  0
  8 31  1  0
 11 32  1  0
 15 33  1  0
 16 34  1  0
 17 35  1  0
 17 36  1  0
 18 37  1  0
 18 38  1  0
 19 39  1  0
 20 40  1  0
 22 41  1  0
 22 42  1  0
 22 43  1  0
 24 44  1  0
 24 45  1  0
 24 46  1  0
 25 47  1  0
M  END
>  <meeko>  (1) 
{"is_sidechain": [false], "free_energy": -12.812, "intermolecular_energy": -15.808, "internal_energy": -0.969}

$$$$
