3myg_ligand
     RDKit          3D

 57 60  0  0  0  0  0  0  0  0999 V2000
    1.3720   35.4620   84.9490 C   0  0  0  0  0  0  0  0  0  0  0  0
    0.1230   35.2060   85.7760 C   0  0  0  0  0  0  0  0  0  0  0  0
   -0.8980   34.4110   84.9900 N   0  0  2  0  0  0  0  0  0  0  0  0
   -1.5900   35.2910   83.9280 C   0  0  0  0  0  0  0  0  0  0  0  0
   -1.3820   34.7370   82.5430 C   0  0  0  0  0  0  0  0  0  0  0  0
   -2.3130   33.9570   81.7900 C   0  0  0  0  0  0  0  0  0  0  0  0
   -1.8020   33.6090   80.5500 C   0  0  0  0  0  0  0  0  0  0  0  0
   -2.4380   32.8730   79.6040 N   0  0  0  0  0  0  0  0  0  0  0  0
   -3.4450   31.9250   79.7150 C   0  0  0  0  0  0  0  0  0  0  0  0
   -3.9700   31.5550   80.8590 N   0  0  0  0  0  0  0  0  0  0  0  0
   -4.9750   30.5980   80.8780 C   0  0  0  0  0  0  0  0  0  0  0  0
   -5.5030   30.2520   82.2420 C   0  0  0  0  0  0  0  0  0  0  0  0
   -5.4590   30.0100   79.7670 C   0  0  0  0  0  0  0  0  0  0  0  0
   -4.9330   30.3710   78.5400 N   0  0  0  0  0  0  0  0  0  0  0  0
   -5.1710   29.9940   77.2370 C   0  0  0  0  0  0  0  0  0  0  0  0
   -6.1790   28.9670   76.6590 C   0  0  0  0  0  0  0  0  0  0  0  0
   -6.0430   28.2160   75.4700 C   0  0  0  0  0  0  0  0  0  0  0  0
   -7.0880   27.4160   75.2490 N   0  0  0  0  0  0  0  0  0  0  0  0
   -7.8940   27.6530   76.2940 N   0  0  0  0  0  0  0  0  0  0  0  0
   -7.3930   28.5780   77.1700 C   0  0  0  0  0  0  0  0  0  0  0  0
   -4.2890   30.7510   76.4840 C   0  0  0  0  0  0  0  0  0  0  0  0
   -3.5200   31.5730   77.2710 N   0  0  0  0  0  0  0  0  0  0  0  0
   -3.9390   31.3130   78.4900 C   0  0  0  0  0  0  0  0  0  0  0  0
   -0.2230   34.2840   80.4470 S   0  0  0  0  0  0  0  0  0  0  0  0
   -0.2140   34.9920   81.9470 N   0  0  0  0  0  0  0  0  0  0  0  0
   -1.8460   33.5130   85.8330 C   0  0  0  0  0  0  0  0  0  0  0  0
   -1.7570   33.9200   87.3190 C   0  0  0  0  0  0  0  0  0  0  0  0
   -3.2970   33.7810   85.3840 C   0  0  0  0  0  0  0  0  0  0  0  0
   -1.5000   32.0100   85.6430 C   0  0  0  0  0  0  0  0  0  0  0  0
   -1.3870   31.6690   84.2630 O   0  0  0  0  0  0  0  0  0  0  0  0
    2.2262   35.6371   85.6195 H   0  0  0  0  0  0  0  0  0  0  0  0
    1.5773   34.5873   84.3144 H   0  0  0  0  0  0  0  0  0  0  0  0
    1.2166   36.3470   84.3144 H   0  0  0  0  0  0  0  0  0  0  0  0
    0.3995   34.6421   86.6791 H   0  0  0  0  0  0  0  0  0  0  0  0
   -0.3217   36.1751   86.0462 H   0  0  0  0  0  0  0  0  0  0  0  0
   -0.3640   33.7520   84.3940 H   0  0  0  0  0  0  0  0  0  0  0  0
   -2.6685   35.3294   84.1410 H   0  0  0  0  0  0  0  0  0  0  0  0
   -1.1506   36.2986   83.9701 H   0  0  0  0  0  0  0  0  0  0  0  0
   -3.3116   33.6686   82.1502 H   0  0  0  0  0  0  0  0  0  0  0  0
   -2.1710   33.0000   78.6280 H   0  0  0  0  0  0  0  0  0  0  0  0
   -4.8446   30.6835   83.0103 H   0  0  0  0  0  0  0  0  0  0  0  0
   -6.5177   30.6609   82.3570 H   0  0  0  0  0  0  0  0  0  0  0  0
   -5.5331   29.1584   82.3570 H   0  0  0  0  0  0  0  0  0  0  0  0
   -6.2578   29.2567   79.8344 H   0  0  0  0  0  0  0  0  0  0  0  0
   -5.1725   28.2833   74.8009 H   0  0  0  0  0  0  0  0  0  0  0  0
   -8.7740   27.1480   76.3470 H   0  0  0  0  0  0  0  0  0  0  0  0
   -7.8667   28.9370   78.0956 H   0  0  0  0  0  0  0  0  0  0  0  0
   -4.2134   30.7001   75.3878 H   0  0  0  0  0  0  0  0  0  0  0  0
   -1.9492   33.0412   87.9520 H   0  0  0  0  0  0  0  0  0  0  0  0
   -0.7518   34.3126   87.5321 H   0  0  0  0  0  0  0  0  0  0  0  0
   -2.5066   34.6963   87.5321 H   0  0  0  0  0  0  0  0  0  0  0  0
   -3.9388   33.8995   86.2694 H   0  0  0  0  0  0  0  0  0  0  0  0
   -3.3304   34.7005   84.7812 H   0  0  0  0  0  0  0  0  0  0  0  0
   -3.6566   32.9341   84.7812 H   0  0  0  0  0  0  0  0  0  0  0  0
   -0.5434   31.7977   86.1429 H   0  0  0  0  0  0  0  0  0  0  0  0
   -2.3125   31.4113   86.0805 H   0  0  0  0  0  0  0  0  0  0  0  0
   -0.9690   30.7870   84.2180 H   0  0  0  0  0  0  0  0  0  0  0  0
  1  2  1  0
  2  3  1  0
  3  4  1  0
  4  5  1  0
  5  6  1  0
  6  7  2  0
  7  8  1  0
  8  9  1  0
  9 10  2  0
 10 11  1  0
 11 12  1  0
 11 13  2  0
 13 14  1  0
 14 15  1  0
 15 16  1  0
 16 17  1  0
 17 18  2  0
 18 19  1  0
 19 20  1  0
 15 21  2  0
 21 22  1  0
 22 23  2  0
  7 24  1  0
 24 25  1  0
  3 26  1  0
 26 27  1  0
 26 28  1  0
 26 29  1  0
 29 30  1  0
 25  5  2  0
 23  9  1  0
 23 14  1  0
 20 16  2  0
  1 31  1  0
  1 32  1  0
  1 33  1  0
  2 34  1  0
  2 35  1  0
  3 36  1  6
  4 37  1  0
  4 38  1  0
  6 39  1  0
  8 40  1  0
 12 41  1  0
 12 42  1  0
 12 43  1  0
 13 44  1  0
 17 45  1  0
 19 46  1  0
 20 47  1  0
 21 48  1  0
 27 49  1  0
 27 50  1  0
 27 51  1  0
 28 52  1  0
 28 53  1  0
 28 54  1  0
 29 55  1  0
 29 56  1  0
 30 57  1  0
M  CHG  1   3   1
M  END
>  <meeko>  (1) 
{"is_sidechain": [false], "free_energy": -7.693, "intermolecular_energy": -11.515, "internal_energy": -0.63}

$$$$
3myg_ligand
     RDKit          3D

 57 60  0  0  0  0  0  0  0  0999 V2000
   -1.4850   34.5340   82.0980 C   0  0  0  0  0  0  0  0  0  0  0  0
   -1.5770   35.2450   83.4380 C   0  0  0  0  0  0  0  0  0  0  0  0
   -2.0170   34.2940   84.5310 N   0  0  2  0  0  0  0  0  0  0  0  0
   -3.5080   34.4940   84.8750 C   0  0  0  0  0  0  0  0  0  0  0  0
   -4.2970   33.2370   84.6260 C   0  0  0  0  0  0  0  0  0  0  0  0
   -4.4450   32.5580   83.3770 C   0  0  0  0  0  0  0  0  0  0  0  0
   -5.2400   31.4300   83.4990 C   0  0  0  0  0  0  0  0  0  0  0  0
   -5.5690   30.5750   82.4980 N   0  0  0  0  0  0  0  0  0  0  0  0
   -5.2310   30.5760   81.1530 C   0  0  0  0  0  0  0  0  0  0  0  0
   -4.2540   31.2940   80.6520 N   0  0  0  0  0  0  0  0  0  0  0  0
   -3.9820   31.2350   79.2920 C   0  0  0  0  0  0  0  0  0  0  0  0
   -2.8420   32.0980   78.8290 C   0  0  0  0  0  0  0  0  0  0  0  0
   -4.6770   30.4650   78.4320 C   0  0  0  0  0  0  0  0  0  0  0  0
   -5.7150   29.6930   78.9180 N   0  0  0  0  0  0  0  0  0  0  0  0
   -6.6140   28.8150   78.3540 C   0  0  0  0  0  0  0  0  0  0  0  0
   -6.7820   28.3610   76.8810 C   0  0  0  0  0  0  0  0  0  0  0  0
   -7.8940   27.6990   76.3150 C   0  0  0  0  0  0  0  0  0  0  0  0
   -7.7290   27.4440   75.0150 N   0  0  0  0  0  0  0  0  0  0  0  0
   -6.5130   27.9410   74.7470 N   0  0  0  0  0  0  0  0  0  0  0  0
   -5.9020   28.5020   75.8360 C   0  0  0  0  0  0  0  0  0  0  0  0
   -7.3940   28.3810   79.4130 C   0  0  0  0  0  0  0  0  0  0  0  0
   -7.0120   28.9560   80.6000 N   0  0  0  0  0  0  0  0  0  0  0  0
   -6.0060   29.7320   80.2560 C   0  0  0  0  0  0  0  0  0  0  0  0
   -5.7210   31.3280   85.1480 S   0  0  0  0  0  0  0  0  0  0  0  0
   -4.9290   32.6890   85.6680 N   0  0  0  0  0  0  0  0  0  0  0  0
   -1.0590   34.1820   85.7500 C   0  0  0  0  0  0  0  0  0  0  0  0
    0.2690   34.8980   85.4320 C   0  0  0  0  0  0  0  0  0  0  0  0
   -1.6960   34.9310   86.9390 C   0  0  0  0  0  0  0  0  0  0  0  0
   -0.8170   32.6940   86.1280 C   0  0  0  0  0  0  0  0  0  0  0  0
   -1.1970   31.8160   85.0700 O   0  0  0  0  0  0  0  0  0  0  0  0
   -1.3455   33.4556   82.2639 H   0  0  0  0  0  0  0  0  0  0  0  0
   -2.4122   34.7006   81.5301 H   0  0  0  0  0  0  0  0  0  0  0  0
   -0.6308   34.9312   81.5301 H   0  0  0  0  0  0  0  0  0  0  0  0
   -0.5895   35.6557   83.6953 H   0  0  0  0  0  0  0  0  0  0  0  0
   -2.3214   36.0506   83.3555 H   0  0  0  0  0  0  0  0  0  0  0  0
   -2.0290   33.3470   84.1110 H   0  0  0  0  0  0  0  0  0  0  0  0
   -3.5976   34.7697   85.9361 H   0  0  0  0  0  0  0  0  0  0  0  0
   -3.9101   35.2909   84.2321 H   0  0  0  0  0  0  0  0  0  0  0  0
   -3.9844   32.8902   82.4349 H   0  0  0  0  0  0  0  0  0  0  0  0
   -6.1650   29.7770   82.7170 H   0  0  0  0  0  0  0  0  0  0  0  0
   -2.3091   32.5014   79.7027 H   0  0  0  0  0  0  0  0  0  0  0  0
   -2.1491   31.4960   78.2227 H   0  0  0  0  0  0  0  0  0  0  0  0
   -3.2333   32.9282   78.2227 H   0  0  0  0  0  0  0  0  0  0  0  0
   -4.4226   30.4512   77.3619 H   0  0  0  0  0  0  0  0  0  0  0  0
   -8.7955   27.4242   76.8822 H   0  0  0  0  0  0  0  0  0  0  0  0
   -6.1600   27.8630   73.7980 H   0  0  0  0  0  0  0  0  0  0  0  0
   -4.9074   28.9709   75.8677 H   0  0  0  0  0  0  0  0  0  0  0  0
   -8.2205   27.6618   79.3149 H   0  0  0  0  0  0  0  0  0  0  0  0
    0.7731   35.1698   86.3712 H   0  0  0  0  0  0  0  0  0  0  0  0
    0.9169   34.2270   84.8490 H   0  0  0  0  0  0  0  0  0  0  0  0
    0.0644   35.8081   84.8490 H   0  0  0  0  0  0  0  0  0  0  0  0
   -1.3296   34.5002   87.8825 H   0  0  0  0  0  0  0  0  0  0  0  0
   -1.4221   35.9953   86.8911 H   0  0  0  0  0  0  0  0  0  0  0  0
   -2.7904   34.8315   86.8911 H   0  0  0  0  0  0  0  0  0  0  0  0
    0.2517   32.5499   86.3453 H   0  0  0  0  0  0  0  0  0  0  0  0
   -1.4318   32.4580   87.0091 H   0  0  0  0  0  0  0  0  0  0  0  0
   -1.3210   32.3660   84.2720 H   0  0  0  0  0  0  0  0  0  0  0  0
  1  2  1  0
  2  3  1  0
  3  4  1  0
  4  5  1  0
  5  6  1  0
  6  7  2  0
  7  8  1  0
  8  9  1  0
  9 10  2  0
 10 11  1  0
 11 12  1  0
 11 13  2  0
 13 14  1  0
 14 15  1  0
 15 16  1  0
 16 17  1  0
 17 18  2  0
 18 19  1  0
 19 20  1  0
 15 21  2  0
 21 22  1  0
 22 23  2  0
  7 24  1  0
 24 25  1  0
  3 26  1  0
 26 27  1  0
 26 28  1  0
 26 29  1  0
 29 30  1  0
 25  5  2  0
 23  9  1  0
 23 14  1  0
 20 16  2  0
  1 31  1  0
  1 32  1  0
  1 33  1  0
  2 34  1  0
  2 35  1  0
  3 36  1  6
  4 37  1  0
  4 38  1  0
  6 39  1  0
  8 40  1  0
 12 41  1  0
 12 42  1  0
 12 43  1  0
 13 44  1  0
 17 45  1  0
 19 46  1  0
 20 47  1  0
 21 48  1  0
 27 49  1  0
 27 50  1  0
 27 51  1  0
 28 52  1  0
 28 53  1  0
 28 54  1  0
 29 55  1  0
 29 56  1  0
 30 57  1  0
M  CHG  1   3   1
M  END
>  <meeko>  (2) 
{"is_sidechain": [false], "free_energy": -7.661, "intermolecular_energy": -11.321, "internal_energy": -0.776}

$$$$
3myg_ligand
     RDKit          3D

 57 60  0  0  0  0  0  0  0  0999 V2000
   -2.0350   33.0390   81.5760 C   0  0  0  0  0  0  0  0  0  0  0  0
   -2.1990   34.2440   82.4880 C   0  0  0  0  0  0  0  0  0  0  0  0
   -2.6020   33.8200   83.8840 N   0  0  2  0  0  0  0  0  0  0  0  0
   -4.0610   34.2210   84.1870 C   0  0  0  0  0  0  0  0  0  0  0  0
   -4.9250   33.0080   84.4040 C   0  0  0  0  0  0  0  0  0  0  0  0
   -4.8710   31.7820   83.6710 C   0  0  0  0  0  0  0  0  0  0  0  0
   -5.8080   30.8700   84.1290 C   0  0  0  0  0  0  0  0  0  0  0  0
   -6.0070   29.6200   83.6420 N   0  0  0  0  0  0  0  0  0  0  0  0
   -6.8130   29.1640   82.6090 C   0  0  0  0  0  0  0  0  0  0  0  0
   -8.0340   28.7170   82.7860 N   0  0  0  0  0  0  0  0  0  0  0  0
   -8.7710   28.2780   81.6940 C   0  0  0  0  0  0  0  0  0  0  0  0
  -10.1560   27.7890   82.0130 C   0  0  0  0  0  0  0  0  0  0  0  0
   -8.3000   28.2830   80.4320 C   0  0  0  0  0  0  0  0  0  0  0  0
   -7.0170   28.7450   80.2020 N   0  0  0  0  0  0  0  0  0  0  0  0
   -6.2290   28.8920   79.0830 C   0  0  0  0  0  0  0  0  0  0  0  0
   -6.5270   28.5680   77.5970 C   0  0  0  0  0  0  0  0  0  0  0  0
   -7.6300   27.8470   77.0860 C   0  0  0  0  0  0  0  0  0  0  0  0
   -7.5980   27.7390   75.7570 N   0  0  0  0  0  0  0  0  0  0  0  0
   -6.4770   28.3890   75.4130 N   0  0  0  0  0  0  0  0  0  0  0  0
   -5.7970   28.9050   76.4840 C   0  0  0  0  0  0  0  0  0  0  0  0
   -5.0380   29.4190   79.5580 C   0  0  0  0  0  0  0  0  0  0  0  0
   -5.0650   29.6000   80.9190 N   0  0  0  0  0  0  0  0  0  0  0  0
   -6.2660   29.1840   81.2610 C   0  0  0  0  0  0  0  0  0  0  0  0
   -6.6590   31.6270   85.4200 S   0  0  0  0  0  0  0  0  0  0  0  0
   -5.8400   33.0680   85.3760 N   0  0  0  0  0  0  0  0  0  0  0  0
   -1.5760   34.1390   85.0070 C   0  0  0  0  0  0  0  0  0  0  0  0
   -0.3950   34.9380   84.4170 C   0  0  0  0  0  0  0  0  0  0  0  0
   -2.2580   35.0530   86.0450 C   0  0  0  0  0  0  0  0  0  0  0  0
   -1.0820   32.8340   85.6910 C   0  0  0  0  0  0  0  0  0  0  0  0
   -1.3270   31.6890   84.8770 O   0  0  0  0  0  0  0  0  0  0  0  0
   -1.9115   32.1318   82.1857 H   0  0  0  0  0  0  0  0  0  0  0  0
   -2.9273   32.9355   80.9412 H   0  0  0  0  0  0  0  0  0  0  0  0
   -1.1475   33.1777   80.9412 H   0  0  0  0  0  0  0  0  0  0  0  0
   -1.2445   34.7882   82.5393 H   0  0  0  0  0  0  0  0  0  0  0  0
   -2.9899   34.8884   82.0766 H   0  0  0  0  0  0  0  0  0  0  0  0
   -2.6730   32.7860   83.8700 H   0  0  0  0  0  0  0  0  0  0  0  0
   -4.0812   34.8428   85.0941 H   0  0  0  0  0  0  0  0  0  0  0  0
   -4.4549   34.7795   83.3251 H   0  0  0  0  0  0  0  0  0  0  0  0
   -4.1715   31.5867   82.8448 H   0  0  0  0  0  0  0  0  0  0  0  0
   -5.5020   28.8450   84.0720 H   0  0  0  0  0  0  0  0  0  0  0  0
  -10.2863   27.7430   83.1043 H   0  0  0  0  0  0  0  0  0  0  0  0
  -10.8967   28.4800   81.5841 H   0  0  0  0  0  0  0  0  0  0  0  0
  -10.2986   26.7862   81.5841 H   0  0  0  0  0  0  0  0  0  0  0  0
   -8.9244   27.9262   79.5997 H   0  0  0  0  0  0  0  0  0  0  0  0
   -8.4264   27.4221   77.7146 H   0  0  0  0  0  0  0  0  0  0  0  0
   -6.2340   28.4430   74.4290 H   0  0  0  0  0  0  0  0  0  0  0  0
   -4.8562   29.4743   76.4578 H   0  0  0  0  0  0  0  0  0  0  0  0
   -4.1749   29.6629   78.9211 H   0  0  0  0  0  0  0  0  0  0  0  0
    0.2140   35.3500   85.2351 H   0  0  0  0  0  0  0  0  0  0  0  0
    0.2247   34.2729   83.7977 H   0  0  0  0  0  0  0  0  0  0  0  0
   -0.7819   35.7606   83.7977 H   0  0  0  0  0  0  0  0  0  0  0  0
   -2.0027   34.7108   87.0588 H   0  0  0  0  0  0  0  0  0  0  0  0
   -1.9091   36.0872   85.9083 H   0  0  0  0  0  0  0  0  0  0  0  0
   -3.3487   35.0130   85.9083 H   0  0  0  0  0  0  0  0  0  0  0  0
   -0.0008   32.9154   85.8763 H   0  0  0  0  0  0  0  0  0  0  0  0
   -1.6342   32.7099   86.6342 H   0  0  0  0  0  0  0  0  0  0  0  0
   -0.9230   31.8660   84.0040 H   0  0  0  0  0  0  0  0  0  0  0  0
  1  2  1  0
  2  3  1  0
  3  4  1  0
  4  5  1  0
  5  6  1  0
  6  7  2  0
  7  8  1  0
  8  9  1  0
  9 10  2  0
 10 11  1  0
 11 12  1  0
 11 13  2  0
 13 14  1  0
 14 15  1  0
 15 16  1  0
 16 17  1  0
 17 18  2  0
 18 19  1  0
 19 20  1  0
 15 21  2  0
 21 22  1  0
 22 23  2  0
  7 24  1  0
 24 25  1  0
  3 26  1  0
 26 27  1  0
 26 28  1  0
 26 29  1  0
 29 30  1  0
 25  5  2  0
 23  9  1  0
 23 14  1  0
 20 16  2  0
  1 31  1  0
  1 32  1  0
  1 33  1  0
  2 34  1  0
  2 35  1  0
  3 36  1  6
  4 37  1  0
  4 38  1  0
  6 39  1  0
  8 40  1  0
 12 41  1  0
 12 42  1  0
 12 43  1  0
 13 44  1  0
 17 45  1  0
 19 46  1  0
 20 47  1  0
 21 48  1  0
 27 49  1  0
 27 50  1  0
 27 51  1  0
 28 52  1  0
 28 53  1  0
 28 54  1  0
 29 55  1  0
 29 56  1  0
 30 57  1  0
M  CHG  1   3   1
M  END
>  <meeko>  (3) 
{"is_sidechain": [false], "free_energy": -7.622, "intermolecular_energy": -10.894, "internal_energy": -1.146}

$$$$
3myg_ligand
     RDKit          3D

 57 60  0  0  0  0  0  0  0  0999 V2000
    2.4400   36.3430   83.1910 C   0  0  0  0  0  0  0  0  0  0  0  0
    1.2640   36.5610   84.1290 C   0  0  0  0  0  0  0  0  0  0  0  0
   -0.0370   36.6560   83.3610 N   0  0  2  0  0  0  0  0  0  0  0  0
    0.1180   36.0870   81.9340 C   0  0  0  0  0  0  0  0  0  0  0  0
   -0.8050   34.9190   81.7110 C   0  0  0  0  0  0  0  0  0  0  0  0
   -1.2690   34.4300   80.4510 C   0  0  0  0  0  0  0  0  0  0  0  0
   -2.1080   33.3390   80.6040 C   0  0  0  0  0  0  0  0  0  0  0  0
   -2.7110   32.6500   79.6020 N   0  0  0  0  0  0  0  0  0  0  0  0
   -3.6870   31.6650   79.6350 C   0  0  0  0  0  0  0  0  0  0  0  0
   -4.2040   31.1930   80.7440 N   0  0  0  0  0  0  0  0  0  0  0  0
   -5.1780   30.2060   80.6860 C   0  0  0  0  0  0  0  0  0  0  0  0
   -5.6980   29.7410   82.0170 C   0  0  0  0  0  0  0  0  0  0  0  0
   -5.6390   29.6890   79.5300 C   0  0  0  0  0  0  0  0  0  0  0  0
   -5.1210   30.1580   78.3370 N   0  0  0  0  0  0  0  0  0  0  0  0
   -5.3420   29.8730   77.0080 C   0  0  0  0  0  0  0  0  0  0  0  0
   -6.3140   28.8610   76.3490 C   0  0  0  0  0  0  0  0  0  0  0  0
   -6.0890   28.1010   75.1800 C   0  0  0  0  0  0  0  0  0  0  0  0
   -7.1250   27.3190   74.8710 N   0  0  0  0  0  0  0  0  0  0  0  0
   -8.0150   27.5770   75.8410 N   0  0  0  0  0  0  0  0  0  0  0  0
   -7.5750   28.4970   76.7530 C   0  0  0  0  0  0  0  0  0  0  0  0
   -4.4820   30.7120   76.3200 C   0  0  0  0  0  0  0  0  0  0  0  0
   -3.7430   31.4970   77.1710 N   0  0  0  0  0  0  0  0  0  0  0  0
   -4.1580   31.1320   78.3650 C   0  0  0  0  0  0  0  0  0  0  0  0
   -2.2340   33.0320   82.2930 S   0  0  0  0  0  0  0  0  0  0  0  0
   -1.2430   34.2640   82.7900 N   0  0  0  0  0  0  0  0  0  0  0  0
   -0.7800   38.0170   83.4600 C   0  0  0  0  0  0  0  0  0  0  0  0
   -0.0510   38.9320   84.4660 C   0  0  0  0  0  0  0  0  0  0  0  0
   -0.7030   38.7150   82.0870 C   0  0  0  0  0  0  0  0  0  0  0  0
   -2.2650   37.8090   83.8680 C   0  0  0  0  0  0  0  0  0  0  0  0
   -2.4950   36.4870   84.3520 O   0  0  0  0  0  0  0  0  0  0  0  0
    3.3530   36.1738   83.7808 H   0  0  0  0  0  0  0  0  0  0  0  0
    2.2453   35.4656   82.5567 H   0  0  0  0  0  0  0  0  0  0  0  0
    2.5728   37.2318   82.5567 H   0  0  0  0  0  0  0  0  0  0  0  0
    1.2048   35.7175   84.8326 H   0  0  0  0  0  0  0  0  0  0  0  0
    1.4197   37.5062   84.6697 H   0  0  0  0  0  0  0  0  0  0  0  0
   -0.6830   35.9650   83.7870 H   0  0  0  0  0  0  0  0  0  0  0  0
   -0.1192   36.8761   81.2053 H   0  0  0  0  0  0  0  0  0  0  0  0
    1.1545   35.7413   81.8073 H   0  0  0  0  0  0  0  0  0  0  0  0
   -0.9937   34.8663   79.4795 H   0  0  0  0  0  0  0  0  0  0  0  0
   -2.4390   32.8530   78.6400 H   0  0  0  0  0  0  0  0  0  0  0  0
   -5.1401   30.2398   82.8232 H   0  0  0  0  0  0  0  0  0  0  0  0
   -6.7659   29.9909   82.1010 H   0  0  0  0  0  0  0  0  0  0  0  0
   -5.5686   28.6519   82.1010 H   0  0  0  0  0  0  0  0  0  0  0  0
   -6.4135   28.9079   79.5355 H   0  0  0  0  0  0  0  0  0  0  0  0
   -5.1621   28.1485   74.5896 H   0  0  0  0  0  0  0  0  0  0  0  0
   -8.9050   27.0880   75.8190 H   0  0  0  0  0  0  0  0  0  0  0  0
   -8.1210   28.8698   77.6322 H   0  0  0  0  0  0  0  0  0  0  0  0
   -4.4004   30.7458   75.2236 H   0  0  0  0  0  0  0  0  0  0  0  0
   -0.2991   38.6206   85.4914 H   0  0  0  0  0  0  0  0  0  0  0  0
    1.0354   38.8542   84.3119 H   0  0  0  0  0  0  0  0  0  0  0  0
   -0.3695   39.9735   84.3119 H   0  0  0  0  0  0  0  0  0  0  0  0
   -0.5834   39.7987   82.2328 H   0  0  0  0  0  0  0  0  0  0  0  0
    0.1574   38.3236   81.5244 H   0  0  0  0  0  0  0  0  0  0  0  0
   -1.6280   38.5206   81.5244 H   0  0  0  0  0  0  0  0  0  0  0  0
   -2.5223   38.5288   84.6590 H   0  0  0  0  0  0  0  0  0  0  0  0
   -2.8920   37.9640   82.9776 H   0  0  0  0  0  0  0  0  0  0  0  0
   -3.4170   36.2550   84.1260 H   0  0  0  0  0  0  0  0  0  0  0  0
  1  2  1  0
  2  3  1  0
  3  4  1  0
  4  5  1  0
  5  6  1  0
  6  7  2  0
  7  8  1  0
  8  9  1  0
  9 10  2  0
 10 11  1  0
 11 12  1  0
 11 13  2  0
 13 14  1  0
 14 15  1  0
 15 16  1  0
 16 17  1  0
 17 18  2  0
 18 19  1  0
 19 20  1  0
 15 21  2  0
 21 22  1  0
 22 23  2  0
  7 24  1  0
 24 25  1  0
  3 26  1  0
 26 27  1  0
 26 28  1  0
 26 29  1  0
 29 30  1  0
 25  5  2  0
 23  9  1  0
 23 14  1  0
 20 16  2  0
  1 31  1  0
  1 32  1  0
  1 33  1  0
  2 34  1  0
  2 35  1  0
  3 36  1  1
  4 37  1  0
  4 38  1  0
  6 39  1  0
  8 40  1  0
 12 41  1  0
 12 42  1  0
 12 43  1  0
 13 44  1  0
 17 45  1  0
 19 46  1  0
 20 47  1  0
 21 48  1  0
 27 49  1  0
 27 50  1  0
 27 51  1  0
 28 52  1  0
 28 53  1  0
 28 54  1  0
 29 55  1  0
 29 56  1  0
 30 57  1  0
M  CHG  1   3   1
M  END
>  <meeko>  (4) 
{"is_sidechain": [false], "free_energy": -7.563, "intermolecular_energy": -11.108, "internal_energy": -0.843}

$$$$
3myg_ligand
     RDKit          3D

 57 60  0  0  0  0  0  0  0  0999 V2000
   -8.2230   30.8220   85.2330 C   0  0  0  0  0  0  0  0  0  0  0  0
   -9.4070   29.9730   85.6700 C   0  0  0  0  0  0  0  0  0  0  0  0
   -9.0280   28.5100   85.7530 N   0  0  2  0  0  0  0  0  0  0  0  0
  -10.0240   27.6320   84.9660 C   0  0  0  0  0  0  0  0  0  0  0  0
   -9.4270   27.1620   83.6670 C   0  0  0  0  0  0  0  0  0  0  0  0
   -9.7000   27.6860   82.3660 C   0  0  0  0  0  0  0  0  0  0  0  0
   -8.9800   27.0220   81.3860 C   0  0  0  0  0  0  0  0  0  0  0  0
   -9.0180   27.2830   80.0550 N   0  0  0  0  0  0  0  0  0  0  0  0
   -8.0660   27.8300   79.2080 C   0  0  0  0  0  0  0  0  0  0  0  0
   -7.9530   27.5080   77.9410 N   0  0  0  0  0  0  0  0  0  0  0  0
   -6.9710   28.1050   77.1630 C   0  0  0  0  0  0  0  0  0  0  0  0
   -6.9350   27.6620   75.7270 C   0  0  0  0  0  0  0  0  0  0  0  0
   -6.1020   29.0170   77.6400 C   0  0  0  0  0  0  0  0  0  0  0  0
   -6.1850   29.3840   78.9700 N   0  0  0  0  0  0  0  0  0  0  0  0
   -5.4880   30.2540   79.7790 C   0  0  0  0  0  0  0  0  0  0  0  0
   -4.2920   31.1850   79.4530 C   0  0  0  0  0  0  0  0  0  0  0  0
   -3.5240   31.9380   80.3690 C   0  0  0  0  0  0  0  0  0  0  0  0
   -2.5600   32.6410   79.7710 N   0  0  0  0  0  0  0  0  0  0  0  0
   -2.7100   32.3420   78.4720 N   0  0  0  0  0  0  0  0  0  0  0  0
   -3.7380   31.4710   78.2300 C   0  0  0  0  0  0  0  0  0  0  0  0
   -6.0920   30.1410   81.0210 C   0  0  0  0  0  0  0  0  0  0  0  0
   -7.1260   29.2380   81.0070 N   0  0  0  0  0  0  0  0  0  0  0  0
   -7.1450   28.8110   79.7620 C   0  0  0  0  0  0  0  0  0  0  0  0
   -8.0400   25.8180   82.1790 S   0  0  0  0  0  0  0  0  0  0  0  0
   -8.5530   26.1530   83.7200 N   0  0  0  0  0  0  0  0  0  0  0  0
   -8.6550   27.9910   87.1700 C   0  0  0  0  0  0  0  0  0  0  0  0
   -9.0190   29.0570   88.2230 C   0  0  0  0  0  0  0  0  0  0  0  0
   -9.5170   26.7490   87.4760 C   0  0  0  0  0  0  0  0  0  0  0  0
   -7.1470   27.6220   87.2450 C   0  0  0  0  0  0  0  0  0  0  0  0
   -6.7660   26.7540   86.1790 O   0  0  0  0  0  0  0  0  0  0  0  0
   -7.6955   31.2003   86.1210 H   0  0  0  0  0  0  0  0  0  0  0  0
   -7.5353   30.2100   84.6310 H   0  0  0  0  0  0  0  0  0  0  0  0
   -8.5820   31.6697   84.6310 H   0  0  0  0  0  0  0  0  0  0  0  0
   -9.7468   30.3127   86.6595 H   0  0  0  0  0  0  0  0  0  0  0  0
  -10.2097   30.0841   84.9262 H   0  0  0  0  0  0  0  0  0  0  0  0
   -8.1650   28.3960   85.1890 H   0  0  0  0  0  0  0  0  0  0  0  0
  -10.2901   26.7563   85.5762 H   0  0  0  0  0  0  0  0  0  0  0  0
  -10.9168   28.2341   84.7413 H   0  0  0  0  0  0  0  0  0  0  0  0
  -10.3959   28.5143   82.1670 H   0  0  0  0  0  0  0  0  0  0  0  0
   -9.8680   27.0560   79.5390 H   0  0  0  0  0  0  0  0  0  0  0  0
   -6.8460   26.5665   75.6834 H   0  0  0  0  0  0  0  0  0  0  0  0
   -7.8615   27.9749   75.2234 H   0  0  0  0  0  0  0  0  0  0  0  0
   -6.0711   28.1204   75.2234 H   0  0  0  0  0  0  0  0  0  0  0  0
   -5.3401   29.4617   76.9829 H   0  0  0  0  0  0  0  0  0  0  0  0
   -3.7009   31.9442   81.4547 H   0  0  0  0  0  0  0  0  0  0  0  0
   -2.0750   32.7680   77.8050 H   0  0  0  0  0  0  0  0  0  0  0  0
   -4.0560   31.0793   77.2526 H   0  0  0  0  0  0  0  0  0  0  0  0
   -5.7804   30.7069   81.9113 H   0  0  0  0  0  0  0  0  0  0  0  0
   -8.8767   28.6403   89.2310 H   0  0  0  0  0  0  0  0  0  0  0  0
   -8.3700   29.9358   88.0946 H   0  0  0  0  0  0  0  0  0  0  0  0
  -10.0699   29.3554   88.0946 H   0  0  0  0  0  0  0  0  0  0  0  0
   -9.6046   26.6228   88.5652 H   0  0  0  0  0  0  0  0  0  0  0  0
  -10.5184   26.8813   87.0405 H   0  0  0  0  0  0  0  0  0  0  0  0
   -9.0427   25.8572   87.0405 H   0  0  0  0  0  0  0  0  0  0  0  0
   -6.5503   28.5442   87.1853 H   0  0  0  0  0  0  0  0  0  0  0  0
   -6.9672   27.0991   88.1959 H   0  0  0  0  0  0  0  0  0  0  0  0
   -5.7910   26.7780   86.1240 H   0  0  0  0  0  0  0  0  0  0  0  0
  1  2  1  0
  2  3  1  0
  3  4  1  0
  4  5  1  0
  5  6  1  0
  6  7  2  0
  7  8  1  0
  8  9  1  0
  9 10  2  0
 10 11  1  0
 11 12  1  0
 11 13  2  0
 13 14  1  0
 14 15  1  0
 15 16  1  0
 16 17  1  0
 17 18  2  0
 18 19  1  0
 19 20  1  0
 15 21  2  0
 21 22  1  0
 22 23  2  0
  7 24  1  0
 24 25  1  0
  3 26  1  0
 26 27  1  0
 26 28  1  0
 26 29  1  0
 29 30  1  0
 25  5  2  0
 23  9  1  0
 23 14  1  0
 20 16  2  0
  1 31  1  0
  1 32  1  0
  1 33  1  0
  2 34  1  0
  2 35  1  0
  3 36  1  6
  4 37  1  0
  4 38  1  0
  6 39  1  0
  8 40  1  0
 12 41  1  0
 12 42  1  0
 12 43  1  0
 13 44  1  0
 17 45  1  0
 19 46  1  0
 20 47  1  0
 21 48  1  0
 27 49  1  0
 27 50  1  0
 27 51  1  0
 28 52  1  0
 28 53  1  0
 28 54  1  0
 29 55  1  0
 29 56  1  0
 30 57  1  0
M  CHG  1   3   1
M  END
>  <meeko>  (5) 
{"is_sidechain": [false], "free_energy": -7.53, "intermolecular_energy": -11.231, "internal_energy": -0.67}

$$$$
3myg_ligand
     RDKit          3D

 57 60  0  0  0  0  0  0  0  0999 V2000
   -8.4530   29.6550   88.2120 C   0  0  0  0  0  0  0  0  0  0  0  0
   -7.8310   28.6500   87.2560 C   0  0  0  0  0  0  0  0  0  0  0  0
   -7.7590   29.2070   85.8500 N   0  0  2  0  0  0  0  0  0  0  0  0
   -7.9880   30.7340   85.8450 C   0  0  0  0  0  0  0  0  0  0  0  0
   -6.7760   31.4640   85.3330 C   0  0  0  0  0  0  0  0  0  0  0  0
   -5.7300   30.9170   84.5280 C   0  0  0  0  0  0  0  0  0  0  0  0
   -4.7630   31.8640   84.2330 C   0  0  0  0  0  0  0  0  0  0  0  0
   -3.6460   31.6590   83.4910 N   0  0  0  0  0  0  0  0  0  0  0  0
   -3.3700   31.9490   82.1630 C   0  0  0  0  0  0  0  0  0  0  0  0
   -2.4940   32.8490   81.7850 N   0  0  0  0  0  0  0  0  0  0  0  0
   -2.2800   33.0770   80.4320 C   0  0  0  0  0  0  0  0  0  0  0  0
   -1.2550   34.1290   80.1150 C   0  0  0  0  0  0  0  0  0  0  0  0
   -2.9320   32.4130   79.4580 C   0  0  0  0  0  0  0  0  0  0  0  0
   -3.8640   31.4560   79.8130 N   0  0  0  0  0  0  0  0  0  0  0  0
   -4.6950   30.6090   79.1130 C   0  0  0  0  0  0  0  0  0  0  0  0
   -4.8820   30.4250   77.5860 C   0  0  0  0  0  0  0  0  0  0  0  0
   -5.5750   29.3820   76.9310 C   0  0  0  0  0  0  0  0  0  0  0  0
   -5.5560   29.5100   75.6030 N   0  0  0  0  0  0  0  0  0  0  0  0
   -4.8510   30.6340   75.4040 N   0  0  0  0  0  0  0  0  0  0  0  0
   -4.4240   31.2210   76.5650 C   0  0  0  0  0  0  0  0  0  0  0  0
   -5.3790   29.9020   80.0890 C   0  0  0  0  0  0  0  0  0  0  0  0
   -5.0030   30.2810   81.3540 N   0  0  0  0  0  0  0  0  0  0  0  0
   -4.0970   31.2110   81.1410 C   0  0  0  0  0  0  0  0  0  0  0  0
   -5.2510   33.3340   84.9840 S   0  0  0  0  0  0  0  0  0  0  0  0
   -6.6510   32.7540   85.6570 N   0  0  0  0  0  0  0  0  0  0  0  0
   -8.5430   28.4110   84.7710 C   0  0  0  0  0  0  0  0  0  0  0  0
   -9.5010   27.4150   85.4560 C   0  0  0  0  0  0  0  0  0  0  0  0
   -9.4220   29.4000   83.9780 C   0  0  0  0  0  0  0  0  0  0  0  0
   -7.5690   27.6770   83.8070 C   0  0  0  0  0  0  0  0  0  0  0  0
   -7.3590   28.4200   82.6080 O   0  0  0  0  0  0  0  0  0  0  0  0
   -8.2598   29.3428   89.2489 H   0  0  0  0  0  0  0  0  0  0  0  0
   -8.0109   30.6474   88.0394 H   0  0  0  0  0  0  0  0  0  0  0  0
   -9.5384   29.7020   88.0394 H   0  0  0  0  0  0  0  0  0  0  0  0
   -6.8141   28.4093   87.5995 H   0  0  0  0  0  0  0  0  0  0  0  0
   -8.4585   27.7467   87.2420 H   0  0  0  0  0  0  0  0  0  0  0  0
   -6.7660   29.1490   85.5590 H   0  0  0  0  0  0  0  0  0  0  0  0
   -8.8467   30.9660   85.1978 H   0  0  0  0  0  0  0  0  0  0  0  0
   -8.1812   31.0607   86.8774 H   0  0  0  0  0  0  0  0  0  0  0  0
   -5.6967   29.8725   84.1847 H   0  0  0  0  0  0  0  0  0  0  0  0
   -2.8400   31.2200   83.9370 H   0  0  0  0  0  0  0  0  0  0  0  0
   -0.8522   34.5424   81.0514 H   0  0  0  0  0  0  0  0  0  0  0  0
   -0.4379   33.6806   79.5308 H   0  0  0  0  0  0  0  0  0  0  0  0
   -1.7245   34.9341   79.5308 H   0  0  0  0  0  0  0  0  0  0  0  0
   -2.7264   32.6285   78.3991 H   0  0  0  0  0  0  0  0  0  0  0  0
   -6.0749   28.5558   77.4578 H   0  0  0  0  0  0  0  0  0  0  0  0
   -4.6990   30.9440   74.4490 H   0  0  0  0  0  0  0  0  0  0  0  0
   -3.8333   32.1440   76.6606 H   0  0  0  0  0  0  0  0  0  0  0  0
   -6.1328   29.1298   79.8759 H   0  0  0  0  0  0  0  0  0  0  0  0
   -9.4094   27.5102   86.5480 H   0  0  0  0  0  0  0  0  0  0  0  0
  -10.5357   27.6349   85.1542 H   0  0  0  0  0  0  0  0  0  0  0  0
   -9.2411   26.3896   85.1542 H   0  0  0  0  0  0  0  0  0  0  0  0
   -9.9851   30.0336   84.6791 H   0  0  0  0  0  0  0  0  0  0  0  0
   -8.7825   30.0325   83.3447 H   0  0  0  0  0  0  0  0  0  0  0  0
  -10.1252   28.8392   83.3447 H   0  0  0  0  0  0  0  0  0  0  0  0
   -6.6029   27.5367   84.3140 H   0  0  0  0  0  0  0  0  0  0  0  0
   -8.0155   26.7083   83.5381 H   0  0  0  0  0  0  0  0  0  0  0  0
   -7.1300   27.7780   81.9090 H   0  0  0  0  0  0  0  0  0  0  0  0
  1  2  1  0
  2  3  1  0
  3  4  1  0
  4  5  1  0
  5  6  1  0
  6  7  2  0
  7  8  1  0
  8  9  1  0
  9 10  2  0
 10 11  1  0
 11 12  1  0
 11 13  2  0
 13 14  1  0
 14 15  1  0
 15 16  1  0
 16 17  1  0
 17 18  2  0
 18 19  1  0
 19 20  1  0
 15 21  2  0
 21 22  1  0
 22 23  2  0
  7 24  1  0
 24 25  1  0
  3 26  1  0
 26 27  1  0
 26 28  1  0
 26 29  1  0
 29 30  1  0
 25  5  2  0
 23  9  1  0
 23 14  1  0
 20 16  2  0
  1 31  1  0
  1 32  1  0
  1 33  1  0
  2 34  1  0
  2 35  1  0
  3 36  1  6
  4 37  1  0
  4 38  1  0
  6 39  1  0
  8 40  1  0
 12 41  1  0
 12 42  1  0
 12 43  1  0
 13 44  1  0
 17 45  1  0
 19 46  1  0
 20 47  1  0
 21 48  1  0
 27 49  1  0
 27 50  1  0
 27 51  1  0
 28 52  1  0
 28 53  1  0
 28 54  1  0
 29 55  1  0
 29 56  1  0
 30 57  1  0
M  CHG  1   3   1
M  END
>  <meeko>  (6) 
{"is_sidechain": [false], "free_energy": -7.476, "intermolecular_energy": -10.715, "internal_energy": -1.106}

$$$$
3myg_ligand
     RDKit          3D

 57 60  0  0  0  0  0  0  0  0999 V2000
  -11.5120   25.8880   86.0230 C   0  0  0  0  0  0  0  0  0  0  0  0
  -11.2350   27.3820   85.9780 C   0  0  0  0  0  0  0  0  0  0  0  0
   -9.9760   27.6800   85.1910 N   0  0  2  0  0  0  0  0  0  0  0  0
   -9.1700   26.3910   84.9240 C   0  0  0  0  0  0  0  0  0  0  0  0
   -8.9700   26.1700   83.4490 C   0  0  0  0  0  0  0  0  0  0  0  0
   -9.2270   27.1110   82.4040 C   0  0  0  0  0  0  0  0  0  0  0  0
   -8.9350   26.5840   81.1570 C   0  0  0  0  0  0  0  0  0  0  0  0
   -9.0710   27.2240   79.9690 N   0  0  0  0  0  0  0  0  0  0  0  0
   -8.1220   27.7470   79.1030 C   0  0  0  0  0  0  0  0  0  0  0  0
   -8.0140   27.3900   77.8450 N   0  0  0  0  0  0  0  0  0  0  0  0
   -7.0350   27.9640   77.0480 C   0  0  0  0  0  0  0  0  0  0  0  0
   -7.0030   27.4810   75.6250 C   0  0  0  0  0  0  0  0  0  0  0  0
   -6.1640   28.8900   77.4960 C   0  0  0  0  0  0  0  0  0  0  0  0
   -6.2430   29.2940   78.8160 N   0  0  0  0  0  0  0  0  0  0  0  0
   -5.5440   30.1880   79.5960 C   0  0  0  0  0  0  0  0  0  0  0  0
   -4.3490   31.1090   79.2400 C   0  0  0  0  0  0  0  0  0  0  0  0
   -3.5260   31.8240   80.1390 C   0  0  0  0  0  0  0  0  0  0  0  0
   -2.5800   32.5290   79.5160 N   0  0  0  0  0  0  0  0  0  0  0  0
   -2.7960   32.2690   78.2180 N   0  0  0  0  0  0  0  0  0  0  0  0
   -3.8490   31.4210   78.0000 C   0  0  0  0  0  0  0  0  0  0  0  0
   -6.1430   30.1100   80.8430 C   0  0  0  0  0  0  0  0  0  0  0  0
   -7.1770   29.2060   80.8580 N   0  0  0  0  0  0  0  0  0  0  0  0
   -7.2000   28.7440   79.6260 C   0  0  0  0  0  0  0  0  0  0  0  0
   -8.3710   24.9770   81.4080 S   0  0  0  0  0  0  0  0  0  0  0  0
   -8.5060   24.9780   83.0610 N   0  0  0  0  0  0  0  0  0  0  0  0
   -9.1450   28.8960   85.6850 C   0  0  0  0  0  0  0  0  0  0  0  0
   -9.8310   29.5260   86.9150 C   0  0  0  0  0  0  0  0  0  0  0  0
   -7.7680   28.3860   86.1560 C   0  0  0  0  0  0  0  0  0  0  0  0
   -8.9640   29.9410   84.5490 C   0  0  0  0  0  0  0  0  0  0  0  0
   -9.5610   31.1920   84.8870 O   0  0  0  0  0  0  0  0  0  0  0  0
  -11.5732   25.5578   87.0705 H   0  0  0  0  0  0  0  0  0  0  0  0
  -12.4647   25.6763   85.5155 H   0  0  0  0  0  0  0  0  0  0  0  0
  -10.6985   25.3488   85.5155 H   0  0  0  0  0  0  0  0  0  0  0  0
  -12.0856   27.8908   85.5010 H   0  0  0  0  0  0  0  0  0  0  0  0
  -11.0966   27.7427   87.0079 H   0  0  0  0  0  0  0  0  0  0  0  0
  -10.2800   27.9330   84.2330 H   0  0  0  0  0  0  0  0  0  0  0  0
   -8.1871   26.4751   85.4107 H   0  0  0  0  0  0  0  0  0  0  0  0
   -9.7326   25.5378   85.3309 H   0  0  0  0  0  0  0  0  0  0  0  0
   -9.6097   28.1288   82.5700 H   0  0  0  0  0  0  0  0  0  0  0  0
  -10.0110   27.3720   79.6020 H   0  0  0  0  0  0  0  0  0  0  0  0
   -6.9303   26.3835   75.6119 H   0  0  0  0  0  0  0  0  0  0  0  0
   -7.9238   27.7936   75.1109 H   0  0  0  0  0  0  0  0  0  0  0  0
   -6.1315   27.9124   75.1109 H   0  0  0  0  0  0  0  0  0  0  0  0
   -5.4046   29.3163   76.8241 H   0  0  0  0  0  0  0  0  0  0  0  0
   -3.6514   31.8018   81.2316 H   0  0  0  0  0  0  0  0  0  0  0  0
   -2.1870   32.7050   77.5330 H   0  0  0  0  0  0  0  0  0  0  0  0
   -4.2192   31.0624   77.0282 H   0  0  0  0  0  0  0  0  0  0  0  0
   -5.8283   30.7009   81.7158 H   0  0  0  0  0  0  0  0  0  0  0  0
   -9.3851   29.1165   87.8334 H   0  0  0  0  0  0  0  0  0  0  0  0
   -9.6910   30.6169   86.8943 H   0  0  0  0  0  0  0  0  0  0  0  0
  -10.9060   29.2938   86.8943 H   0  0  0  0  0  0  0  0  0  0  0  0
   -7.7376   28.3748   87.2555 H   0  0  0  0  0  0  0  0  0  0  0  0
   -7.6040   27.3675   85.7742 H   0  0  0  0  0  0  0  0  0  0  0  0
   -6.9801   29.0520   85.7742 H   0  0  0  0  0  0  0  0  0  0  0  0
   -7.8891   30.0943   84.3728 H   0  0  0  0  0  0  0  0  0  0  0  0
   -9.4590   29.5563   83.6451 H   0  0  0  0  0  0  0  0  0  0  0  0
   -9.1280   31.5050   85.7050 H   0  0  0  0  0  0  0  0  0  0  0  0
  1  2  1  0
  2  3  1  0
  3  4  1  0
  4  5  1  0
  5  6  1  0
  6  7  2  0
  7  8  1  0
  8  9  1  0
  9 10  2  0
 10 11  1  0
 11 12  1  0
 11 13  2  0
 13 14  1  0
 14 15  1  0
 15 16  1  0
 16 17  1  0
 17 18  2  0
 18 19  1  0
 19 20  1  0
 15 21  2  0
 21 22  1  0
 22 23  2  0
  7 24  1  0
 24 25  1  0
  3 26  1  0
 26 27  1  0
 26 28  1  0
 26 29  1  0
 29 30  1  0
 25  5  2  0
 23  9  1  0
 23 14  1  0
 20 16  2  0
  1 31  1  0
  1 32  1  0
  1 33  1  0
  2 34  1  0
  2 35  1  0
  3 36  1  6
  4 37  1  0
  4 38  1  0
  6 39  1  0
  8 40  1  0
 12 41  1  0
 12 42  1  0
 12 43  1  0
 13 44  1  0
 17 45  1  0
 19 46  1  0
 20 47  1  0
 21 48  1  0
 27 49  1  0
 27 50  1  0
 27 51  1  0
 28 52  1  0
 28 53  1  0
 28 54  1  0
 29 55  1  0
 29 56  1  0
 30 57  1  0
M  CHG  1   3   1
M  END
>  <meeko>  (7) 
{"is_sidechain": [false], "free_energy": -7.461, "intermolecular_energy": -11.101, "internal_energy": -0.697}

$$$$
3myg_ligand
     RDKit          3D

 57 60  0  0  0  0  0  0  0  0999 V2000
   -3.7270   37.7010   84.0480 C   0  0  0  0  0  0  0  0  0  0  0  0
   -2.4940   37.3330   84.8580 C   0  0  0  0  0  0  0  0  0  0  0  0
   -1.7580   36.1670   84.2320 N   0  0  2  0  0  0  0  0  0  0  0  0
   -1.9460   34.8810   85.0650 C   0  0  0  0  0  0  0  0  0  0  0  0
   -2.9120   33.9380   84.3990 C   0  0  0  0  0  0  0  0  0  0  0  0
   -2.6660   33.1500   83.2330 C   0  0  0  0  0  0  0  0  0  0  0  0
   -3.7720   32.3910   82.8860 C   0  0  0  0  0  0  0  0  0  0  0  0
   -3.8560   31.5420   81.8310 N   0  0  0  0  0  0  0  0  0  0  0  0
   -4.8740   30.6910   81.4270 C   0  0  0  0  0  0  0  0  0  0  0  0
   -5.7420   30.1560   82.2540 N   0  0  0  0  0  0  0  0  0  0  0  0
   -6.7310   29.3140   81.7640 C   0  0  0  0  0  0  0  0  0  0  0  0
   -7.6680   28.7590   82.8000 C   0  0  0  0  0  0  0  0  0  0  0  0
   -6.8600   29.0040   80.4590 C   0  0  0  0  0  0  0  0  0  0  0  0
   -5.9660   29.5460   79.5550 N   0  0  0  0  0  0  0  0  0  0  0  0
   -5.7960   29.4560   78.1910 C   0  0  0  0  0  0  0  0  0  0  0  0
   -6.6020   28.6630   77.1310 C   0  0  0  0  0  0  0  0  0  0  0  0
   -6.1470   28.2220   75.8680 C   0  0  0  0  0  0  0  0  0  0  0  0
   -7.0870   27.5620   75.1880 N   0  0  0  0  0  0  0  0  0  0  0  0
   -8.1450   27.5810   76.0120 N   0  0  0  0  0  0  0  0  0  0  0  0
   -7.9040   28.2310   77.1920 C   0  0  0  0  0  0  0  0  0  0  0  0
   -4.7000   30.2580   77.9190 C   0  0  0  0  0  0  0  0  0  0  0  0
   -4.1920   30.8340   79.0570 N   0  0  0  0  0  0  0  0  0  0  0  0
   -4.9790   30.3810   80.0090 C   0  0  0  0  0  0  0  0  0  0  0  0
   -5.0010   32.7340   84.0400 S   0  0  0  0  0  0  0  0  0  0  0  0
   -4.1270   33.8170   84.9420 N   0  0  0  0  0  0  0  0  0  0  0  0
   -0.3030   36.4590   83.7730 C   0  0  0  0  0  0  0  0  0  0  0  0
    0.0330   37.9420   84.0300 C   0  0  0  0  0  0  0  0  0  0  0  0
    0.6590   35.6270   84.6450 C   0  0  0  0  0  0  0  0  0  0  0  0
   -0.1120   36.0930   82.2740 C   0  0  0  0  0  0  0  0  0  0  0  0
   -1.2910   36.3550   81.5170 O   0  0  0  0  0  0  0  0  0  0  0  0
   -4.5538   37.9478   84.7303 H   0  0  0  0  0  0  0  0  0  0  0  0
   -3.5028   38.5714   83.4138 H   0  0  0  0  0  0  0  0  0  0  0  0
   -4.0165   36.8501   83.4138 H   0  0  0  0  0  0  0  0  0  0  0  0
   -1.8203   38.2015   84.9013 H   0  0  0  0  0  0  0  0  0  0  0  0
   -2.8146   37.0414   85.8690 H   0  0  0  0  0  0  0  0  0  0  0  0
   -2.2710   35.9260   83.3650 H   0  0  0  0  0  0  0  0  0  0  0  0
   -0.9732   34.3795   85.1754 H   0  0  0  0  0  0  0  0  0  0  0  0
   -2.3525   35.1591   86.0486 H   0  0  0  0  0  0  0  0  0  0  0  0
   -1.7157   33.1463   82.6790 H   0  0  0  0  0  0  0  0  0  0  0  0
   -3.0630   31.4800   81.1920 H   0  0  0  0  0  0  0  0  0  0  0  0
   -7.2815   28.9879   83.8041 H   0  0  0  0  0  0  0  0  0  0  0  0
   -8.6618   29.2142   82.6770 H   0  0  0  0  0  0  0  0  0  0  0  0
   -7.7464   27.6687   82.6770 H   0  0  0  0  0  0  0  0  0  0  0  0
   -7.6620   28.3320   80.1195 H   0  0  0  0  0  0  0  0  0  0  0  0
   -5.1309   28.4026   75.4874 H   0  0  0  0  0  0  0  0  0  0  0  0
   -9.0010   27.1300   75.7050 H   0  0  0  0  0  0  0  0  0  0  0  0
   -8.6108   28.3778   78.0220 H   0  0  0  0  0  0  0  0  0  0  0  0
   -4.2862   30.4147   76.9119 H   0  0  0  0  0  0  0  0  0  0  0  0
    0.0747   38.1260   85.1137 H   0  0  0  0  0  0  0  0  0  0  0  0
    1.0079   38.1804   83.5798 H   0  0  0  0  0  0  0  0  0  0  0  0
   -0.7440   38.5773   83.5798 H   0  0  0  0  0  0  0  0  0  0  0  0
    0.4442   35.8128   85.7077 H   0  0  0  0  0  0  0  0  0  0  0  0
    0.5220   34.5580   84.4247 H   0  0  0  0  0  0  0  0  0  0  0  0
    1.6970   35.9167   84.4247 H   0  0  0  0  0  0  0  0  0  0  0  0
    0.7161   36.6893   81.8634 H   0  0  0  0  0  0  0  0  0  0  0  0
    0.1086   35.0174   82.2072 H   0  0  0  0  0  0  0  0  0  0  0  0
   -2.0320   35.9160   81.9780 H   0  0  0  0  0  0  0  0  0  0  0  0
  1  2  1  0
  2  3  1  0
  3  4  1  0
  4  5  1  0
  5  6  1  0
  6  7  2  0
  7  8  1  0
  8  9  1  0
  9 10  2  0
 10 11  1  0
 11 12  1  0
 11 13  2  0
 13 14  1  0
 14 15  1  0
 15 16  1  0
 16 17  1  0
 17 18  2  0
 18 19  1  0
 19 20  1  0
 15 21  2  0
 21 22  1  0
 22 23  2  0
  7 24  1  0
 24 25  1  0
  3 26  1  0
 26 27  1  0
 26 28  1  0
 26 29  1  0
 29 30  1  0
 25  5  2  0
 23  9  1  0
 23 14  1  0
 20 16  2  0
  1 31  1  0
  1 32  1  0
  1 33  1  0
  2 34  1  0
  2 35  1  0
  3 36  1  6
  4 37  1  0
  4 38  1  0
  6 39  1  0
  8 40  1  0
 12 41  1  0
 12 42  1  0
 12 43  1  0
 13 44  1  0
 17 45  1  0
 19 46  1  0
 20 47  1  0
 21 48  1  0
 27 49  1  0
 27 50  1  0
 27 51  1  0
 28 52  1  0
 28 53  1  0
 28 54  1  0
 29 55  1  0
 29 56  1  0
 30 57  1  0
M  CHG  1   3   1
M  END
>  <meeko>  (8) 
{"is_sidechain": [false], "free_energy": -7.452, "intermolecular_energy": -11.049, "internal_energy": -0.735}

$$$$
3myg_ligand
     RDKit          3D

 57 60  0  0  0  0  0  0  0  0999 V2000
  -11.4920   26.6210   85.1430 C   0  0  0  0  0  0  0  0  0  0  0  0
  -10.6390   27.1020   86.3070 C   0  0  0  0  0  0  0  0  0  0  0  0
   -9.4910   27.9610   85.8230 N   0  0  2  0  0  0  0  0  0  0  0  0
   -8.2460   27.1020   85.5150 C   0  0  0  0  0  0  0  0  0  0  0  0
   -7.9860   27.0330   84.0340 C   0  0  0  0  0  0  0  0  0  0  0  0
   -8.1500   28.0930   83.0900 C   0  0  0  0  0  0  0  0  0  0  0  0
   -7.8220   27.6900   81.8060 C   0  0  0  0  0  0  0  0  0  0  0  0
   -7.8730   28.4620   80.6910 N   0  0  0  0  0  0  0  0  0  0  0  0
   -6.8630   29.0600   79.9530 C   0  0  0  0  0  0  0  0  0  0  0  0
   -6.6930   28.8650   78.6660 N   0  0  0  0  0  0  0  0  0  0  0  0
   -5.6550   29.5050   78.0030 C   0  0  0  0  0  0  0  0  0  0  0  0
   -5.5560   29.2100   76.5330 C   0  0  0  0  0  0  0  0  0  0  0  0
   -4.7870   30.3340   78.6140 C   0  0  0  0  0  0  0  0  0  0  0  0
   -4.9290   30.5660   79.9700 N   0  0  0  0  0  0  0  0  0  0  0  0
   -4.2510   31.3260   80.8970 C   0  0  0  0  0  0  0  0  0  0  0  0
   -3.0140   32.2450   80.7290 C   0  0  0  0  0  0  0  0  0  0  0  0
   -2.1410   32.6940   81.7450 C   0  0  0  0  0  0  0  0  0  0  0  0
   -1.1680   33.4760   81.2730 N   0  0  0  0  0  0  0  0  0  0  0  0
   -1.4150   33.5290   79.9560 N   0  0  0  0  0  0  0  0  0  0  0  0
   -2.5140   32.8060   79.5790 C   0  0  0  0  0  0  0  0  0  0  0  0
   -4.9220   31.1070   82.0890 C   0  0  0  0  0  0  0  0  0  0  0  0
   -5.9790   30.2450   81.9310 N   0  0  0  0  0  0  0  0  0  0  0  0
   -5.9450   29.9480   80.6500 C   0  0  0  0  0  0  0  0  0  0  0  0
   -7.3460   26.0390   81.9020 S   0  0  0  0  0  0  0  0  0  0  0  0
   -7.5590   25.8680   83.5370 N   0  0  0  0  0  0  0  0  0  0  0  0
   -9.2240   29.2530   86.6450 C   0  0  0  0  0  0  0  0  0  0  0  0
   -9.3310   30.4840   85.7220 C   0  0  0  0  0  0  0  0  0  0  0  0
  -10.3370   29.3930   87.7050 C   0  0  0  0  0  0  0  0  0  0  0  0
   -7.8350   29.1910   87.3380 C   0  0  0  0  0  0  0  0  0  0  0  0
   -6.9520   30.1900   86.8320 O   0  0  0  0  0  0  0  0  0  0  0  0
  -12.3889   26.1153   85.5301 H   0  0  0  0  0  0  0  0  0  0  0  0
  -11.7931   27.4823   84.5286 H   0  0  0  0  0  0  0  0  0  0  0  0
  -10.9108   25.9176   84.5286 H   0  0  0  0  0  0  0  0  0  0  0  0
  -11.2656   27.6924   86.9917 H   0  0  0  0  0  0  0  0  0  0  0  0
  -10.2245   26.2233   86.8228 H   0  0  0  0  0  0  0  0  0  0  0  0
   -9.7490   28.2940   84.8760 H   0  0  0  0  0  0  0  0  0  0  0  0
   -7.3714   27.5462   86.0127 H   0  0  0  0  0  0  0  0  0  0  0  0
   -8.4259   26.0819   85.8853 H   0  0  0  0  0  0  0  0  0  0  0  0
   -8.4944   29.1046   83.3508 H   0  0  0  0  0  0  0  0  0  0  0  0
   -8.7850   28.6670   80.2830 H   0  0  0  0  0  0  0  0  0  0  0  0
   -5.2090   28.1761   76.3891 H   0  0  0  0  0  0  0  0  0  0  0  0
   -6.5447   29.3332   76.0669 H   0  0  0  0  0  0  0  0  0  0  0  0
   -4.8418   29.9047   76.0669 H   0  0  0  0  0  0  0  0  0  0  0  0
   -3.9796   30.8178   78.0447 H   0  0  0  0  0  0  0  0  0  0  0  0
   -2.2510   32.4286   82.8068 H   0  0  0  0  0  0  0  0  0  0  0  0
   -0.7930   34.0790   79.3720 H   0  0  0  0  0  0  0  0  0  0  0  0
   -2.9158   32.6962   78.5609 H   0  0  0  0  0  0  0  0  0  0  0  0
   -4.6416   31.5684   83.0473 H   0  0  0  0  0  0  0  0  0  0  0  0
   -9.4102   31.3950   86.3334 H   0  0  0  0  0  0  0  0  0  0  0  0
   -8.4348   30.5453   85.0871 H   0  0  0  0  0  0  0  0  0  0  0  0
  -10.2243   30.3897   85.0871 H   0  0  0  0  0  0  0  0  0  0  0  0
   -9.8947   29.3374   88.7106 H   0  0  0  0  0  0  0  0  0  0  0  0
  -10.8427   30.3618   87.5799 H   0  0  0  0  0  0  0  0  0  0  0  0
  -11.0669   28.5796   87.5799 H   0  0  0  0  0  0  0  0  0  0  0  0
   -7.9679   29.3460   88.4189 H   0  0  0  0  0  0  0  0  0  0  0  0
   -7.3922   28.2048   87.1347 H   0  0  0  0  0  0  0  0  0  0  0  0
   -6.0410   29.8870   87.0150 H   0  0  0  0  0  0  0  0  0  0  0  0
  1  2  1  0
  2  3  1  0
  3  4  1  0
  4  5  1  0
  5  6  1  0
  6  7  2  0
  7  8  1  0
  8  9  1  0
  9 10  2  0
 10 11  1  0
 11 12  1  0
 11 13  2  0
 13 14  1  0
 14 15  1  0
 15 16  1  0
 16 17  1  0
 17 18  2  0
 18 19  1  0
 19 20  1  0
 15 21  2  0
 21 22  1  0
 22 23  2  0
  7 24  1  0
 24 25  1  0
  3 26  1  0
 26 27  1  0
 26 28  1  0
 26 29  1  0
 29 30  1  0
 25  5  2  0
 23  9  1  0
 23 14  1  0
 20 16  2  0
  1 31  1  0
  1 32  1  0
  1 33  1  0
  2 34  1  0
  2 35  1  0
  3 36  1  6
  4 37  1  0
  4 38  1  0
  6 39  1  0
  8 40  1  0
 12 41  1  0
 12 42  1  0
 12 43  1  0
 13 44  1  0
 17 45  1  0
 19 46  1  0
 20 47  1  0
 21 48  1  0
 27 49  1  0
 27 50  1  0
 27 51  1  0
 28 52  1  0
 28 53  1  0
 28 54  1  0
 29 55  1  0
 29 56  1  0
 30 57  1  0
M  CHG  1   3   1
M  END
>  <meeko>  (9) 
{"is_sidechain": [false], "free_energy": -7.438, "intermolecular_energy": -11.02, "internal_energy": -0.743}

$$$$
