4ih5_ligand
     RDKit          3D

 27 29  0  0  0  0  0  0  0  0999 V2000
  -37.9640   -8.8930   13.9260 C   0  0  0  0  0  0  0  0  0  0  0  0
  -38.0060   -9.5590   12.7030 C   0  0  0  0  0  0  0  0  0  0  0  0
  -36.9700  -10.4240   12.3420 C   0  0  0  0  0  0  0  0  0  0  0  0
  -35.8680  -10.6160   13.1840 C   0  0  0  0  0  0  0  0  0  0  0  0
  -34.8390  -11.5320   12.8690 N   0  0  0  0  0  0  0  0  0  0  0  0
  -33.6920  -11.1390   12.2310 N   0  0  0  0  0  0  0  0  0  0  0  0
  -32.5940  -10.5950   12.9130 C   0  0  0  0  0  0  0  0  0  0  0  0
  -31.6670  -11.4410   13.4510 N   0  0  0  0  0  0  0  0  0  0  0  0
  -30.5850  -10.9190   14.1160 C   0  0  0  0  0  0  0  0  0  0  0  0
  -30.2350   -9.6300   14.3570 N   0  0  0  0  0  0  0  0  0  0  0  0
  -31.1530   -8.7820   13.8390 C   0  0  0  0  0  0  0  0  0  0  0  0
  -31.1370   -7.4470   13.9000 N   0  0  0  0  0  0  0  0  0  0  0  0
  -32.2710   -7.0850   13.2660 N   0  0  0  0  0  0  0  0  0  0  0  0
  -33.0040   -8.1330   12.7850 C   0  0  0  0  0  0  0  0  0  0  0  0
  -32.2930   -9.2510   13.1380 C   0  0  0  0  0  0  0  0  0  0  0  0
  -35.8570   -9.9660   14.4260 C   0  0  0  0  0  0  0  0  0  0  0  0
  -36.8920   -9.1010   14.7900 C   0  0  0  0  0  0  0  0  0  0  0  0
  -38.7748   -8.2053   14.2081 H   0  0  0  0  0  0  0  0  0  0  0  0
  -38.8552   -9.4037   12.0213 H   0  0  0  0  0  0  0  0  0  0  0  0
  -37.0208  -10.9613   11.3835 H   0  0  0  0  0  0  0  0  0  0  0  0
  -34.7060  -12.2290   13.6040 H   0  0  0  0  0  0  0  0  0  0  0  0
  -33.8150  -10.6200   11.3590 H   0  0  0  0  0  0  0  0  0  0  0  0
  -29.8878  -11.6681   14.5194 H   0  0  0  0  0  0  0  0  0  0  0  0
  -32.4840   -6.0960   13.2020 H   0  0  0  0  0  0  0  0  0  0  0  0
  -33.9557   -8.0894   12.2352 H   0  0  0  0  0  0  0  0  0  0  0  0
  -35.0233  -10.1391   15.1224 H   0  0  0  0  0  0  0  0  0  0  0  0
  -36.8600   -8.5837   15.7602 H   0  0  0  0  0  0  0  0  0  0  0  0
  1  2  2  0
  2  3  1  0
  3  4  2  0
  4  5  1  0
  5  6  1  0
  6  7  1  0
  7  8  2  0
  8  9  1  0
  9 10  2  0
 10 11  1  0
 11 12  2  0
 12 13  1  0
 13 14  1  0
 14 15  2  0
  4 16  1  0
 16 17  2  0
 17  1  1  0
 15  7  1  0
 15 11  1  0
  1 18  1  0
  2 19  1  0
  3 20  1  0
  5 21  1  0
  6 22  1  0
  9 23  1  0
 13 24  1  0
 14 25  1  0
 16 26  1  0
 17 27  1  0
M  END
>  <meeko>  (1) 
{"is_sidechain": [false], "free_energy": -6.749, "intermolecular_energy": -7.932, "internal_energy": -0.484}

$$$$
4ih5_ligand
     RDKit          3D

 27 29  0  0  0  0  0  0  0  0999 V2000
  -24.4410  -14.4450   -2.0360 C   0  0  0  0  0  0  0  0  0  0  0  0
  -23.5120  -13.6550   -1.3630 C   0  0  0  0  0  0  0  0  0  0  0  0
  -23.8180  -12.3270   -1.0530 C   0  0  0  0  0  0  0  0  0  0  0  0
  -25.0430  -11.7650   -1.4310 C   0  0  0  0  0  0  0  0  0  0  0  0
  -25.3990  -10.4450   -1.0750 N   0  0  0  0  0  0  0  0  0  0  0  0
  -25.8130  -10.1240    0.1910 N   0  0  0  0  0  0  0  0  0  0  0  0
  -26.9880   -9.4020    0.4430 C   0  0  0  0  0  0  0  0  0  0  0  0
  -26.8890   -8.1210    0.9040 N   0  0  0  0  0  0  0  0  0  0  0  0
  -28.0340   -7.4030    1.1490 C   0  0  0  0  0  0  0  0  0  0  0  0
  -29.3390   -7.7480    1.0090 N   0  0  0  0  0  0  0  0  0  0  0  0
  -29.4510   -9.0210    0.5640 C   0  0  0  0  0  0  0  0  0  0  0  0
  -30.5820   -9.6930    0.3290 N   0  0  0  0  0  0  0  0  0  0  0  0
  -30.1530  -10.9090   -0.0660 N   0  0  0  0  0  0  0  0  0  0  0  0
  -28.7940  -11.0390   -0.1100 C   0  0  0  0  0  0  0  0  0  0  0  0
  -28.3120   -9.8190    0.2890 C   0  0  0  0  0  0  0  0  0  0  0  0
  -25.9810  -12.5830   -2.0760 C   0  0  0  0  0  0  0  0  0  0  0  0
  -25.6780  -13.9110   -2.3880 C   0  0  0  0  0  0  0  0  0  0  0  0
  -24.1983  -15.4877   -2.2887 H   0  0  0  0  0  0  0  0  0  0  0  0
  -22.5374  -14.0763   -1.0755 H   0  0  0  0  0  0  0  0  0  0  0  0
  -23.0865  -11.7153   -0.5047 H   0  0  0  0  0  0  0  0  0  0  0  0
  -24.7970   -9.7500   -1.5210 H   0  0  0  0  0  0  0  0  0  0  0  0
  -25.0900   -9.7910    0.8310 H   0  0  0  0  0  0  0  0  0  0  0  0
  -27.8656   -6.3810    1.5193 H   0  0  0  0  0  0  0  0  0  0  0  0
  -30.8530  -11.6100   -0.2890 H   0  0  0  0  0  0  0  0  0  0  0  0
  -28.2139  -11.9270   -0.4014 H   0  0  0  0  0  0  0  0  0  0  0  0
  -26.9677  -12.1745   -2.3398 H   0  0  0  0  0  0  0  0  0  0  0  0
  -26.4170  -14.5349   -2.9120 H   0  0  0  0  0  0  0  0  0  0  0  0
  1  2  2  0
  2  3  1  0
  3  4  2  0
  4  5  1  0
  5  6  1  0
  6  7  1  0
  7  8  2  0
  8  9  1  0
  9 10  2  0
 10 11  1  0
 11 12  2  0
 12 13  1  0
 13 14  1  0
 14 15  2  0
  4 16  1  0
 16 17  2  0
 17  1  1  0
 15  7  1  0
 15 11  1  0
  1 18  1  0
  2 19  1  0
  3 20  1  0
  5 21  1  0
  6 22  1  0
  9 23  1  0
 13 24  1  0
 14 25  1  0
 16 26  1  0
 17 27  1  0
M  END
>  <meeko>  (2) 
{"is_sidechain": [false], "free_energy": -6.659, "intermolecular_energy": -7.933, "internal_energy": -0.378}

$$$$
4ih5_ligand
     RDKit          3D

 27 29  0  0  0  0  0  0  0  0999 V2000
  -23.9600  -14.2300   -1.8430 C   0  0  0  0  0  0  0  0  0  0  0  0
  -23.2050  -13.2170   -1.2570 C   0  0  0  0  0  0  0  0  0  0  0  0
  -23.7680  -11.9530   -1.0560 C   0  0  0  0  0  0  0  0  0  0  0  0
  -25.0810  -11.6790   -1.4590 C   0  0  0  0  0  0  0  0  0  0  0  0
  -25.6910  -10.4290   -1.2110 N   0  0  0  0  0  0  0  0  0  0  0  0
  -26.1840  -10.0970    0.0230 N   0  0  0  0  0  0  0  0  0  0  0  0
  -27.5340   -9.7850    0.2410 C   0  0  0  0  0  0  0  0  0  0  0  0
  -28.4790  -10.7390   -0.0030 N   0  0  0  0  0  0  0  0  0  0  0  0
  -29.8030  -10.4470    0.2120 C   0  0  0  0  0  0  0  0  0  0  0  0
  -30.3950   -9.3070    0.6540 N   0  0  0  0  0  0  0  0  0  0  0  0
  -29.4690   -8.3490    0.8880 C   0  0  0  0  0  0  0  0  0  0  0  0
  -29.6930   -7.1030    1.3160 N   0  0  0  0  0  0  0  0  0  0  0  0
  -28.4620   -6.5550    1.3590 N   0  0  0  0  0  0  0  0  0  0  0  0
  -27.4560   -7.4040    0.9940 C   0  0  0  0  0  0  0  0  0  0  0  0
  -28.0840   -8.5830    0.6890 C   0  0  0  0  0  0  0  0  0  0  0  0
  -25.8380  -12.7200   -2.0150 C   0  0  0  0  0  0  0  0  0  0  0  0
  -25.2780  -13.9840   -2.2170 C   0  0  0  0  0  0  0  0  0  0  0  0
  -23.5157  -15.2224   -2.0099 H   0  0  0  0  0  0  0  0  0  0  0  0
  -22.1660  -13.4112   -0.9524 H   0  0  0  0  0  0  0  0  0  0  0  0
  -23.1719  -11.1635   -0.5751 H   0  0  0  0  0  0  0  0  0  0  0  0
  -25.2250   -9.6680   -1.7080 H   0  0  0  0  0  0  0  0  0  0  0  0
  -25.6150   -9.4570    0.5790 H   0  0  0  0  0  0  0  0  0  0  0  0
  -30.4979  -11.2704   -0.0098 H   0  0  0  0  0  0  0  0  0  0  0  0
  -28.3840   -5.5850    1.6470 H   0  0  0  0  0  0  0  0  0  0  0  0
  -26.3781   -7.1884    0.9538 H   0  0  0  0  0  0  0  0  0  0  0  0
  -26.8861  -12.5393   -2.2957 H   0  0  0  0  0  0  0  0  0  0  0  0
  -25.8790  -14.7852   -2.6718 H   0  0  0  0  0  0  0  0  0  0  0  0
  1  2  2  0
  2  3  1  0
  3  4  2  0
  4  5  1  0
  5  6  1  0
  6  7  1  0
  7  8  2  0
  8  9  1  0
  9 10  2  0
 10 11  1  0
 11 12  2  0
 12 13  1  0
 13 14  1  0
 14 15  2  0
  4 16  1  0
 16 17  2  0
 17  1  1  0
 15  7  1  0
 15 11  1  0
  1 18  1  0
  2 19  1  0
  3 20  1  0
  5 21  1  0
  6 22  1  0
  9 23  1  0
 13 24  1  0
 14 25  1  0
 16 26  1  0
 17 27  1  0
M  END
>  <meeko>  (3) 
{"is_sidechain": [false], "free_energy": -6.624, "intermolecular_energy": -7.964, "internal_energy": -0.306}

$$$$
4ih5_ligand
     RDKit          3D

 27 29  0  0  0  0  0  0  0  0999 V2000
  -38.0160   -8.9210   13.9180 C   0  0  0  0  0  0  0  0  0  0  0  0
  -38.0620   -9.5690   12.6860 C   0  0  0  0  0  0  0  0  0  0  0  0
  -37.0080  -10.3990   12.2930 C   0  0  0  0  0  0  0  0  0  0  0  0
  -35.8860  -10.5730   13.1120 C   0  0  0  0  0  0  0  0  0  0  0  0
  -34.8380  -11.4540   12.7640 N   0  0  0  0  0  0  0  0  0  0  0  0
  -33.5810  -11.0010   12.4650 N   0  0  0  0  0  0  0  0  0  0  0  0
  -33.3510   -9.9360   11.5820 C   0  0  0  0  0  0  0  0  0  0  0  0
  -33.4160  -10.1670   10.2380 N   0  0  0  0  0  0  0  0  0  0  0  0
  -33.1970   -9.1310    9.3650 C   0  0  0  0  0  0  0  0  0  0  0  0
  -32.9100   -7.8250    9.5990 N   0  0  0  0  0  0  0  0  0  0  0  0
  -32.8310   -7.5850   10.9280 C   0  0  0  0  0  0  0  0  0  0  0  0
  -32.5520   -6.4190   11.5180 N   0  0  0  0  0  0  0  0  0  0  0  0
  -32.5680   -6.7150   12.8340 N   0  0  0  0  0  0  0  0  0  0  0  0
  -32.8630   -8.0200   13.1110 C   0  0  0  0  0  0  0  0  0  0  0  0
  -33.0470   -8.6070   11.8860 C   0  0  0  0  0  0  0  0  0  0  0  0
  -35.8720   -9.9420   14.3640 C   0  0  0  0  0  0  0  0  0  0  0  0
  -36.9230   -9.1120   14.7600 C   0  0  0  0  0  0  0  0  0  0  0  0
  -38.8402   -8.2605   14.2251 H   0  0  0  0  0  0  0  0  0  0  0  0
  -38.9277   -9.4277   12.0222 H   0  0  0  0  0  0  0  0  0  0  0  0
  -37.0610  -10.9225   11.3270 H   0  0  0  0  0  0  0  0  0  0  0  0
  -34.8660  -12.3190   13.3080 H   0  0  0  0  0  0  0  0  0  0  0  0
  -32.8720  -11.7150   12.2950 H   0  0  0  0  0  0  0  0  0  0  0  0
  -33.2652   -9.4035    8.3015 H   0  0  0  0  0  0  0  0  0  0  0  0
  -32.3620   -5.9700   13.4910 H   0  0  0  0  0  0  0  0  0  0  0  0
  -32.9367   -8.4954   14.1002 H   0  0  0  0  0  0  0  0  0  0  0  0
  -35.0219  -10.1028   15.0433 H   0  0  0  0  0  0  0  0  0  0  0  0
  -36.8876   -8.6088   15.7375 H   0  0  0  0  0  0  0  0  0  0  0  0
  1  2  2  0
  2  3  1  0
  3  4  2  0
  4  5  1  0
  5  6  1  0
  6  7  1  0
  7  8  2  0
  8  9  1  0
  9 10  2  0
 10 11  1  0
 11 12  2  0
 12 13  1  0
 13 14  1  0
 14 15  2  0
  4 16  1  0
 16 17  2  0
 17  1  1  0
 15  7  1  0
 15 11  1  0
  1 18  1  0
  2 19  1  0
  3 20  1  0
  5 21  1  0
  6 22  1  0
  9 23  1  0
 13 24  1  0
 14 25  1  0
 16 26  1  0
 17 27  1  0
M  END
>  <meeko>  (4) 
{"is_sidechain": [false], "free_energy": -6.549, "intermolecular_energy": -7.624, "internal_energy": -0.557}

$$$$
4ih5_ligand
     RDKit          3D

 27 29  0  0  0  0  0  0  0  0999 V2000
  -25.5510  -12.8790   -2.0420 C   0  0  0  0  0  0  0  0  0  0  0  0
  -26.7590  -13.4800   -2.3880 C   0  0  0  0  0  0  0  0  0  0  0  0
  -27.9150  -13.1970   -1.6560 C   0  0  0  0  0  0  0  0  0  0  0  0
  -27.8760  -12.3310   -0.5570 C   0  0  0  0  0  0  0  0  0  0  0  0
  -29.0430  -11.9820    0.1590 N   0  0  0  0  0  0  0  0  0  0  0  0
  -29.9410  -11.0660   -0.3230 N   0  0  0  0  0  0  0  0  0  0  0  0
  -30.2560   -9.8830    0.3600 C   0  0  0  0  0  0  0  0  0  0  0  0
  -31.5090   -9.7350    0.8820 N   0  0  0  0  0  0  0  0  0  0  0  0
  -31.8260   -8.5830    1.5580 C   0  0  0  0  0  0  0  0  0  0  0  0
  -31.0770   -7.4830    1.8270 N   0  0  0  0  0  0  0  0  0  0  0  0
  -29.8360   -7.6110    1.3040 C   0  0  0  0  0  0  0  0  0  0  0  0
  -28.8440   -6.7190    1.3630 N   0  0  0  0  0  0  0  0  0  0  0  0
  -27.8440   -7.3070    0.6760 N   0  0  0  0  0  0  0  0  0  0  0  0
  -28.1490   -8.5490    0.1940 C   0  0  0  0  0  0  0  0  0  0  0  0
  -29.4400   -8.7740    0.5960 C   0  0  0  0  0  0  0  0  0  0  0  0
  -26.6610  -11.7070   -0.2440 C   0  0  0  0  0  0  0  0  0  0  0  0
  -25.5030  -11.9880   -0.9740 C   0  0  0  0  0  0  0  0  0  0  0  0
  -24.6379  -13.1079   -2.6111 H   0  0  0  0  0  0  0  0  0  0  0  0
  -26.8029  -14.1774   -3.2375 H   0  0  0  0  0  0  0  0  0  0  0  0
  -28.8688  -13.6611   -1.9474 H   0  0  0  0  0  0  0  0  0  0  0  0
  -29.4600  -12.7860    0.6310 H   0  0  0  0  0  0  0  0  0  0  0  0
  -30.8030  -11.4440   -0.7200 H   0  0  0  0  0  0  0  0  0  0  0  0
  -32.8550   -8.5449    1.9450 H   0  0  0  0  0  0  0  0  0  0  0  0
  -26.9740   -6.7960    0.5720 H   0  0  0  0  0  0  0  0  0  0  0  0
  -27.5010   -9.2204   -0.3885 H   0  0  0  0  0  0  0  0  0  0  0  0
  -26.6182  -10.9871    0.5866 H   0  0  0  0  0  0  0  0  0  0  0  0
  -24.5525  -11.5044   -0.7042 H   0  0  0  0  0  0  0  0  0  0  0  0
  1  2  2  0
  2  3  1  0
  3  4  2  0
  4  5  1  0
  5  6  1  0
  6  7  1  0
  7  8  2  0
  8  9  1  0
  9 10  2  0
 10 11  1  0
 11 12  2  0
 12 13  1  0
 13 14  1  0
 14 15  2  0
  4 16  1  0
 16 17  2  0
 17  1  1  0
 15  7  1  0
 15 11  1  0
  1 18  1  0
  2 19  1  0
  3 20  1  0
  5 21  1  0
  6 22  1  0
  9 23  1  0
 13 24  1  0
 14 25  1  0
 16 26  1  0
 17 27  1  0
M  END
>  <meeko>  (5) 
{"is_sidechain": [false], "free_energy": -6.447, "intermolecular_energy": -7.726, "internal_energy": -0.336}

$$$$
4ih5_ligand
     RDKit          3D

 27 29  0  0  0  0  0  0  0  0999 V2000
  -33.5580   -7.4680    3.1950 C   0  0  0  0  0  0  0  0  0  0  0  0
  -33.3480   -8.6830    3.8430 C   0  0  0  0  0  0  0  0  0  0  0  0
  -32.5680   -9.6720    3.2380 C   0  0  0  0  0  0  0  0  0  0  0  0
  -32.0080   -9.4700    1.9700 C   0  0  0  0  0  0  0  0  0  0  0  0
  -31.1650  -10.4300    1.3660 N   0  0  0  0  0  0  0  0  0  0  0  0
  -30.3900  -10.1290    0.2770 N   0  0  0  0  0  0  0  0  0  0  0  0
  -29.0070   -9.9160    0.3680 C   0  0  0  0  0  0  0  0  0  0  0  0
  -28.1620  -10.9630    0.1340 N   0  0  0  0  0  0  0  0  0  0  0  0
  -26.8060  -10.7640    0.2140 C   0  0  0  0  0  0  0  0  0  0  0  0
  -26.0930   -9.6450    0.5010 N   0  0  0  0  0  0  0  0  0  0  0  0
  -26.9200   -8.6030    0.7460 C   0  0  0  0  0  0  0  0  0  0  0  0
  -26.5660   -7.3570    1.0730 N   0  0  0  0  0  0  0  0  0  0  0  0
  -27.7450   -6.7220    1.2340 N   0  0  0  0  0  0  0  0  0  0  0  0
  -28.8400   -7.5060    1.0070 C   0  0  0  0  0  0  0  0  0  0  0  0
  -28.3300   -8.7360    0.6790 C   0  0  0  0  0  0  0  0  0  0  0  0
  -32.1990   -8.2300    1.3470 C   0  0  0  0  0  0  0  0  0  0  0  0
  -32.9800   -7.2390    1.9490 C   0  0  0  0  0  0  0  0  0  0  0  0
  -34.1787   -6.6916    3.6662 H   0  0  0  0  0  0  0  0  0  0  0  0
  -33.7962   -8.8640    4.8311 H   0  0  0  0  0  0  0  0  0  0  0  0
  -32.3914  -10.6216    3.7644 H   0  0  0  0  0  0  0  0  0  0  0  0
  -30.7210  -11.0410    2.0550 H   0  0  0  0  0  0  0  0  0  0  0  0
  -30.7760   -9.4460   -0.3760 H   0  0  0  0  0  0  0  0  0  0  0  0
  -26.1974  -11.6579    0.0125 H   0  0  0  0  0  0  0  0  0  0  0  0
  -27.7250   -5.7450    1.5070 H   0  0  0  0  0  0  0  0  0  0  0  0
  -29.8987   -7.2148    1.0728 H   0  0  0  0  0  0  0  0  0  0  0  0
  -31.7287   -8.0336    0.3722 H   0  0  0  0  0  0  0  0  0  0  0  0
  -33.1380   -6.2778    1.4381 H   0  0  0  0  0  0  0  0  0  0  0  0
  1  2  2  0
  2  3  1  0
  3  4  2  0
  4  5  1  0
  5  6  1  0
  6  7  1  0
  7  8  2  0
  8  9  1  0
  9 10  2  0
 10 11  1  0
 11 12  2  0
 12 13  1  0
 13 14  1  0
 14 15  2  0
  4 16  1  0
 16 17  2  0
 17  1  1  0
 15  7  1  0
 15 11  1  0
  1 18  1  0
  2 19  1  0
  3 20  1  0
  5 21  1  0
  6 22  1  0
  9 23  1  0
 13 24  1  0
 14 25  1  0
 16 26  1  0
 17 27  1  0
M  END
>  <meeko>  (6) 
{"is_sidechain": [false], "free_energy": -6.436, "intermolecular_energy": -7.674, "internal_energy": -0.375}

$$$$
4ih5_ligand
     RDKit          3D

 27 29  0  0  0  0  0  0  0  0999 V2000
  -21.8060    1.5080    0.6030 C   0  0  0  0  0  0  0  0  0  0  0  0
  -23.1230    1.0540    0.6340 C   0  0  0  0  0  0  0  0  0  0  0  0
  -23.4600   -0.0600    1.4060 C   0  0  0  0  0  0  0  0  0  0  0  0
  -22.4850   -0.7500    2.1380 C   0  0  0  0  0  0  0  0  0  0  0  0
  -22.8120   -1.8400    2.9740 N   0  0  0  0  0  0  0  0  0  0  0  0
  -22.9100   -1.7050    4.3330 N   0  0  0  0  0  0  0  0  0  0  0  0
  -23.3870   -0.5380    4.9460 C   0  0  0  0  0  0  0  0  0  0  0  0
  -22.4870    0.3770    5.4140 N   0  0  0  0  0  0  0  0  0  0  0  0
  -22.9430    1.5260    6.0100 C   0  0  0  0  0  0  0  0  0  0  0  0
  -24.2100    1.9590    6.2390 N   0  0  0  0  0  0  0  0  0  0  0  0
  -25.1110    1.0560    5.7900 C   0  0  0  0  0  0  0  0  0  0  0  0
  -26.4420    1.1460    5.8620 N   0  0  0  0  0  0  0  0  0  0  0  0
  -26.8700   -0.0060    5.3070 N   0  0  0  0  0  0  0  0  0  0  0  0
  -25.8680   -0.8240    4.8670 C   0  0  0  0  0  0  0  0  0  0  0  0
  -24.7110   -0.1510    5.1630 C   0  0  0  0  0  0  0  0  0  0  0  0
  -21.1710   -0.2600    2.1230 C   0  0  0  0  0  0  0  0  0  0  0  0
  -20.8310    0.8540    1.3510 C   0  0  0  0  0  0  0  0  0  0  0  0
  -21.5376    2.3805   -0.0107 H   0  0  0  0  0  0  0  0  0  0  0  0
  -23.8975    1.5731    0.0503 H   0  0  0  0  0  0  0  0  0  0  0  0
  -24.5055   -0.4003    1.4397 H   0  0  0  0  0  0  0  0  0  0  0  0
  -23.5110   -2.4540    2.5510 H   0  0  0  0  0  0  0  0  0  0  0  0
  -22.1190   -2.0520    4.8790 H   0  0  0  0  0  0  0  0  0  0  0  0
  -22.1535    2.2077    6.3593 H   0  0  0  0  0  0  0  0  0  0  0  0
  -27.8710   -0.1700    5.2660 H   0  0  0  0  0  0  0  0  0  0  0  0
  -25.9677   -1.8063    4.3820 H   0  0  0  0  0  0  0  0  0  0  0  0
  -20.3984   -0.7589    2.7265 H   0  0  0  0  0  0  0  0  0  0  0  0
  -19.7919    1.2145    1.3343 H   0  0  0  0  0  0  0  0  0  0  0  0
  1  2  2  0
  2  3  1  0
  3  4  2  0
  4  5  1  0
  5  6  1  0
  6  7  1  0
  7  8  2  0
  8  9  1  0
  9 10  2  0
 10 11  1  0
 11 12  2  0
 12 13  1  0
 13 14  1  0
 14 15  2  0
  4 16  1  0
 16 17  2  0
 17  1  1  0
 15  7  1  0
 15 11  1  0
  1 18  1  0
  2 19  1  0
  3 20  1  0
  5 21  1  0
  6 22  1  0
  9 23  1  0
 13 24  1  0
 14 25  1  0
 16 26  1  0
 17 27  1  0
M  END
>  <meeko>  (7) 
{"is_sidechain": [false], "free_energy": -6.397, "intermolecular_energy": -7.595, "internal_energy": -0.408}

$$$$
4ih5_ligand
     RDKit          3D

 27 29  0  0  0  0  0  0  0  0999 V2000
  -37.9580   -9.2070   13.4150 C   0  0  0  0  0  0  0  0  0  0  0  0
  -37.1050   -9.2100   14.5150 C   0  0  0  0  0  0  0  0  0  0  0  0
  -35.8050   -9.7080   14.3890 C   0  0  0  0  0  0  0  0  0  0  0  0
  -35.3490  -10.2290   13.1720 C   0  0  0  0  0  0  0  0  0  0  0  0
  -34.0210  -10.6800   13.0040 N   0  0  0  0  0  0  0  0  0  0  0  0
  -33.0960   -9.9590   12.2960 N   0  0  0  0  0  0  0  0  0  0  0  0
  -32.5970   -8.7250   12.7390 C   0  0  0  0  0  0  0  0  0  0  0  0
  -33.0590   -7.5800   12.1580 N   0  0  0  0  0  0  0  0  0  0  0  0
  -32.5820   -6.3660   12.5880 C   0  0  0  0  0  0  0  0  0  0  0  0
  -31.6740   -6.0660   13.5520 N   0  0  0  0  0  0  0  0  0  0  0  0
  -31.1990   -7.1940   14.1280 C   0  0  0  0  0  0  0  0  0  0  0  0
  -30.2860   -7.2770   15.0990 N   0  0  0  0  0  0  0  0  0  0  0  0
  -30.1460   -8.6040   15.2940 N   0  0  0  0  0  0  0  0  0  0  0  0
  -30.9460   -9.3750   14.4990 C   0  0  0  0  0  0  0  0  0  0  0  0
  -31.6490   -8.4800   13.7350 C   0  0  0  0  0  0  0  0  0  0  0  0
  -36.2090  -10.1850   12.0660 C   0  0  0  0  0  0  0  0  0  0  0  0
  -37.5090   -9.6890   12.1880 C   0  0  0  0  0  0  0  0  0  0  0  0
  -38.9846   -8.8247   13.5147 H   0  0  0  0  0  0  0  0  0  0  0  0
  -37.4538   -8.8207   15.4829 H   0  0  0  0  0  0  0  0  0  0  0  0
  -35.1308   -9.6903   15.2580 H   0  0  0  0  0  0  0  0  0  0  0  0
  -33.6600  -11.1350   13.8450 H   0  0  0  0  0  0  0  0  0  0  0  0
  -33.2460   -9.8990   11.2880 H   0  0  0  0  0  0  0  0  0  0  0  0
  -33.0044   -5.4945   12.0664 H   0  0  0  0  0  0  0  0  0  0  0  0
  -29.4760   -8.9140   15.9900 H   0  0  0  0  0  0  0  0  0  0  0  0
  -31.0116  -10.4728   14.4769 H   0  0  0  0  0  0  0  0  0  0  0  0
  -35.8554  -10.5459   11.0889 H   0  0  0  0  0  0  0  0  0  0  0  0
  -38.1781   -9.6791   11.3150 H   0  0  0  0  0  0  0  0  0  0  0  0
  1  2  2  0
  2  3  1  0
  3  4  2  0
  4  5  1  0
  5  6  1  0
  6  7  1  0
  7  8  2  0
  8  9  1  0
  9 10  2  0
 10 11  1  0
 11 12  2  0
 12 13  1  0
 13 14  1  0
 14 15  2  0
  4 16  1  0
 16 17  2  0
 17  1  1  0
 15  7  1  0
 15 11  1  0
  1 18  1  0
  2 19  1  0
  3 20  1  0
  5 21  1  0
  6 22  1  0
  9 23  1  0
 13 24  1  0
 14 25  1  0
 16 26  1  0
 17 27  1  0
M  END
>  <meeko>  (8) 
{"is_sidechain": [false], "free_energy": -6.383, "intermolecular_energy": -7.548, "internal_energy": -0.438}

$$$$
4ih5_ligand
     RDKit          3D

 27 29  0  0  0  0  0  0  0  0999 V2000
  -36.6410   -9.6290   12.3700 C   0  0  0  0  0  0  0  0  0  0  0  0
  -35.4430   -9.5150   11.6680 C   0  0  0  0  0  0  0  0  0  0  0  0
  -34.2440   -9.3220   12.3590 C   0  0  0  0  0  0  0  0  0  0  0  0
  -34.2280   -9.2190   13.7560 C   0  0  0  0  0  0  0  0  0  0  0  0
  -33.0220   -9.0860   14.4800 N   0  0  0  0  0  0  0  0  0  0  0  0
  -31.9200   -8.4750   13.9430 N   0  0  0  0  0  0  0  0  0  0  0  0
  -30.6490   -9.0680   13.9440 C   0  0  0  0  0  0  0  0  0  0  0  0
  -30.4850  -10.2760   13.3290 N   0  0  0  0  0  0  0  0  0  0  0  0
  -29.2440  -10.8630   13.3180 C   0  0  0  0  0  0  0  0  0  0  0  0
  -28.0630  -10.4410   13.8390 N   0  0  0  0  0  0  0  0  0  0  0  0
  -28.2150   -9.2500   14.4620 C   0  0  0  0  0  0  0  0  0  0  0  0
  -27.2710   -8.5500   15.0970 N   0  0  0  0  0  0  0  0  0  0  0  0
  -27.9320   -7.4690   15.5590 N   0  0  0  0  0  0  0  0  0  0  0  0
  -29.2580   -7.4400   15.2320 C   0  0  0  0  0  0  0  0  0  0  0  0
  -29.4670   -8.5860   14.5100 C   0  0  0  0  0  0  0  0  0  0  0  0
  -35.4360   -9.3710   14.4490 C   0  0  0  0  0  0  0  0  0  0  0  0
  -36.6370   -9.5630   13.7610 C   0  0  0  0  0  0  0  0  0  0  0  0
  -37.5872   -9.7707   11.8272 H   0  0  0  0  0  0  0  0  0  0  0  0
  -35.4410   -9.5769   10.5697 H   0  0  0  0  0  0  0  0  0  0  0  0
  -33.3002   -9.2500   11.7986 H   0  0  0  0  0  0  0  0  0  0  0  0
  -33.1860   -8.8880   15.4690 H   0  0  0  0  0  0  0  0  0  0  0  0
  -31.8080   -7.4810   14.1530 H   0  0  0  0  0  0  0  0  0  0  0  0
  -29.1989  -11.8339   12.8030 H   0  0  0  0  0  0  0  0  0  0  0  0
  -27.4090   -6.7880   16.0990 H   0  0  0  0  0  0  0  0  0  0  0  0
  -29.9960   -6.6666   15.4913 H   0  0  0  0  0  0  0  0  0  0  0  0
  -35.4391   -9.3388   15.5485 H   0  0  0  0  0  0  0  0  0  0  0  0
  -37.5800   -9.6621   14.3186 H   0  0  0  0  0  0  0  0  0  0  0  0
  1  2  2  0
  2  3  1  0
  3  4  2  0
  4  5  1  0
  5  6  1  0
  6  7  1  0
  7  8  2  0
  8  9  1  0
  9 10  2  0
 10 11  1  0
 11 12  2  0
 12 13  1  0
 13 14  1  0
 14 15  2  0
  4 16  1  0
 16 17  2  0
 17  1  1  0
 15  7  1  0
 15 11  1  0
  1 18  1  0
  2 19  1  0
  3 20  1  0
  5 21  1  0
  6 22  1  0
  9 23  1  0
 13 24  1  0
 14 25  1  0
 16 26  1  0
 17 27  1  0
M  END
>  <meeko>  (9) 
{"is_sidechain": [false], "free_energy": -6.222, "intermolecular_energy": -7.495, "internal_energy": -0.303}

$$$$
