1y6r_ligand
     RDKit          3D

 38 40  0  0  0  0  0  0  0  0999 V2000
   56.0670   68.8190   22.6220 C   0  0  0  0  0  0  0  0  0  0  0  0
   56.1550   70.5720   22.1670 S   0  0  0  0  0  0  0  0  0  0  0  0
   57.9730   70.7570   22.1330 C   0  0  0  0  0  0  0  0  0  0  0  0
   58.3570   72.2280   21.9330 C   0  0  1  0  0  0  0  0  0  0  0  0
   58.4400   72.6030   20.4740 N   0  0  0  0  0  0  0  0  0  0  0  0
   57.8820   73.9950   20.2990 C   0  0  1  0  0  0  0  0  0  0  0  0
   56.6580   74.0480   19.4430 C   0  0  0  0  0  0  0  0  0  0  0  0
   56.5230   73.5980   18.1400 C   0  0  0  0  0  0  0  0  0  0  0  0
   55.2270   73.8240   17.7310 N   0  0  0  0  0  0  0  0  0  0  0  0
   54.5210   74.4210   18.7440 C   0  0  0  0  0  0  0  0  0  0  0  0
   53.2040   74.8330   18.8560 C   0  0  0  0  0  0  0  0  0  0  0  0
   52.2750   74.7400   17.8390 N   0  0  0  0  0  0  0  0  0  0  0  0
   52.8180   75.3460   20.0340 N   0  0  0  0  0  0  0  0  0  0  0  0
   53.7170   75.4360   21.0300 C   0  0  0  0  0  0  0  0  0  0  0  0
   55.0170   75.0730   21.0100 N   0  0  0  0  0  0  0  0  0  0  0  0
   55.3840   74.5550   19.8160 C   0  0  0  0  0  0  0  0  0  0  0  0
   57.6360   74.4900   21.7440 C   0  0  2  0  0  0  0  0  0  0  0  0
   58.8350   75.0540   22.3060 O   0  0  0  0  0  0  0  0  0  0  0  0
   57.3250   73.2020   22.5060 C   0  0  2  0  0  0  0  0  0  0  0  0
   57.4760   73.3760   23.9070 O   0  0  0  0  0  0  0  0  0  0  0  0
   56.0623   68.7244   23.7179 H   0  0  0  0  0  0  0  0  0  0  0  0
   55.1457   68.3796   22.2121 H   0  0  0  0  0  0  0  0  0  0  0  0
   56.9397   68.2895   22.2121 H   0  0  0  0  0  0  0  0  0  0  0  0
   58.3916   70.3994   23.0853 H   0  0  0  0  0  0  0  0  0  0  0  0
   58.3762   70.1662   21.2973 H   0  0  0  0  0  0  0  0  0  0  0  0
   59.3256   72.3107   22.4477 H   0  0  0  0  0  0  0  0  0  0  0  0
   59.4070   72.5180   20.1390 H   0  0  0  0  0  0  0  0  0  0  0  0
   57.8880   71.9230   19.9160 H   0  0  0  0  0  0  0  0  0  0  0  0
   58.5802   74.6452   19.7514 H   0  0  0  0  0  0  0  0  0  0  0  0
   57.3170   73.1376   17.5337 H   0  0  0  0  0  0  0  0  0  0  0  0
   54.8330   73.5640   16.8330 H   0  0  0  0  0  0  0  0  0  0  0  0
   51.8060   73.8390   17.8670 H   0  0  0  0  0  0  0  0  0  0  0  0
   51.6580   75.5280   17.7140 H   0  0  0  0  0  0  0  0  0  0  0  0
   53.3479   75.8569   21.9769 H   0  0  0  0  0  0  0  0  0  0  0  0
   56.8500   75.2582   21.7888 H   0  0  0  0  0  0  0  0  0  0  0  0
   58.7390   75.0700   23.2790 H   0  0  0  0  0  0  0  0  0  0  0  0
   56.2879   72.8556   22.3861 H   0  0  0  0  0  0  0  0  0  0  0  0
   57.6040   72.4910   24.3080 H   0  0  0  0  0  0  0  0  0  0  0  0
  1  2  1  0
  2  3  1  0
  3  4  1  0
  4  5  1  0
  5  6  1  0
  6  7  1  0
  7  8  2  0
  8  9  1  0
  9 10  1  0
 10 11  2  0
 11 12  1  0
 11 13  1  0
 13 14  2  0
 14 15  1  0
 15 16  2  0
  6 17  1  0
 17 18  1  0
 17 19  1  0
 19 20  1  0
 19  4  1  0
 16  7  1  0
 16 10  1  0
  1 21  1  0
  1 22  1  0
  1 23  1  0
  3 24  1  0
  3 25  1  0
  4 26  1  1
  5 27  1  0
  5 28  1  0
  6 29  1  6
  8 30  1  0
  9 31  1  0
 12 32  1  0
 12 33  1  0
 14 34  1  0
 17 35  1  6
 18 36  1  0
 19 37  1  1
 20 38  1  0
M  CHG  1   5   1
M  END
>  <meeko>  (1) 
{"is_sidechain": [false], "free_energy": -8.934, "intermolecular_energy": -11.284, "internal_energy": 0.35}

$$$$
