2x00_ligand
     RDKit          3D

 85 89  0  0  0  0  0  0  0  0999 V2000
    3.0180   25.9890   -8.2770 C   0  0  0  0  0  0  0  0  0  0  0  0
    4.1050   25.4970   -7.3370 C   0  0  0  0  0  0  0  0  0  0  0  0
    5.2320   24.8850   -7.7880 C   0  0  0  0  0  0  0  0  0  0  0  0
    5.6920   24.8400   -9.2500 C   0  0  2  0  0  0  0  0  0  0  0  0
    6.6290   23.6900   -9.5910 C   0  0  0  0  0  0  0  0  0  0  0  0
    7.3040   24.1920  -10.8520 C   0  0  2  0  0  0  0  0  0  0  0  0
    8.6660   23.5630  -11.0790 C   0  0  0  0  0  0  0  0  0  0  0  0
    7.3790   25.6640  -10.5620 C   0  0  0  0  0  0  0  0  0  0  0  0
    8.1240   26.4690  -11.0950 O   0  0  0  0  0  0  0  0  0  0  0  0
    6.4610   25.9930   -9.6070 O   0  0  0  0  0  0  0  0  0  0  0  0
    6.1250   24.1000   -6.8460 C   0  0  0  0  0  0  0  0  0  0  0  0
    5.5220   23.8520   -5.4630 C   0  0  0  0  0  0  0  0  0  0  0  0
    4.8680   25.1160   -4.8500 C   0  0  2  0  0  0  0  0  0  0  0  0
    5.9560   26.2240   -4.6420 C   0  0  0  0  0  0  0  0  0  0  0  0
    6.7890   25.9890   -3.3910 C   0  0  0  0  0  0  0  0  0  0  0  0
    5.8700   26.0470   -2.1890 C   0  0  0  0  0  0  0  0  0  0  0  0
    4.7470   25.1130   -2.3940 N   0  0  0  0  0  0  0  0  0  0  0  0
    4.2490   24.6720   -3.4990 C   0  0  0  0  0  0  0  0  0  0  0  0
    3.1780   23.5810   -3.3840 C   0  0  0  0  0  0  0  0  0  0  0  0
    2.4620   23.4240   -2.0320 C   0  0  0  0  0  0  0  0  0  0  0  0
    1.6580   24.6450   -1.7090 C   0  0  0  0  0  0  0  0  0  0  0  0
    1.4960   25.2580   -0.5170 C   0  0  0  0  0  0  0  0  0  0  0  0
    1.9980   24.7450    0.8060 C   0  0  0  0  0  0  0  0  0  0  0  0
    0.8400   26.6270   -0.4920 C   0  0  2  0  0  0  0  0  0  0  0  0
    1.1000   27.2220   -1.7810 O   0  0  0  0  0  0  0  0  0  0  0  0
    1.1160   28.6540   -1.6090 C   0  0  1  0  0  0  0  0  0  0  0  0
    0.1740   29.3920   -2.5770 C   0  0  0  0  0  0  0  0  0  0  0  0
    0.1550   28.8430   -4.0080 C   0  0  0  0  0  0  0  0  0  0  0  0
    1.5420   28.7240   -4.6880 C   0  0  2  0  0  0  0  0  0  0  0  0
    1.6310   29.5780   -5.8250 O   0  0  0  0  0  0  0  0  0  0  0  0
    1.8670   27.2870   -5.0910 C   0  0  0  0  0  0  0  0  0  0  0  0
    0.6550   26.3900   -5.1300 C   0  0  0  0  0  0  0  0  0  0  0  0
    3.1300   26.9190   -5.4130 C   0  0  0  0  0  0  0  0  0  0  0  0
    3.7480   25.5970   -5.8510 C   0  0  1  0  0  0  0  0  0  0  0  0
    0.8230   28.9340   -0.1370 C   0  0  0  0  0  0  0  0  0  0  0  0
    1.3130   27.6580    0.5280 C   0  0  1  0  0  0  0  0  0  0  0  0
    0.7610   27.4400    1.9250 C   0  0  0  0  0  0  0  0  0  0  0  0
    2.1709   26.3724   -7.6893 H   0  0  0  0  0  0  0  0  0  0  0  0
    3.4183   26.7937   -8.9112 H   0  0  0  0  0  0  0  0  0  0  0  0
    2.6776   25.1572   -8.9112 H   0  0  0  0  0  0  0  0  0  0  0  0
    4.7365   24.7510   -9.7877 H   0  0  0  0  0  0  0  0  0  0  0  0
    7.3606   23.5197   -8.7875 H   0  0  0  0  0  0  0  0  0  0  0  0
    6.1166   22.7250   -9.7180 H   0  0  0  0  0  0  0  0  0  0  0  0
    6.7707   23.9433  -11.7814 H   0  0  0  0  0  0  0  0  0  0  0  0
    9.1360   23.3459  -10.1084 H   0  0  0  0  0  0  0  0  0  0  0  0
    8.5481   22.6281  -11.6466 H   0  0  0  0  0  0  0  0  0  0  0  0
    9.3013   24.2589  -11.6466 H   0  0  0  0  0  0  0  0  0  0  0  0
    6.3391   23.1248   -7.3078 H   0  0  0  0  0  0  0  0  0  0  0  0
    7.0280   24.7084   -6.6899 H   0  0  0  0  0  0  0  0  0  0  0  0
    4.7550   23.0684   -5.5508 H   0  0  0  0  0  0  0  0  0  0  0  0
    6.3433   23.5511   -4.7960 H   0  0  0  0  0  0  0  0  0  0  0  0
    6.6244   26.2316   -5.5156 H   0  0  0  0  0  0  0  0  0  0  0  0
    5.4370   27.1867   -4.5242 H   0  0  0  0  0  0  0  0  0  0  0  0
    7.2694   25.0009   -3.4444 H   0  0  0  0  0  0  0  0  0  0  0  0
    7.5712   26.7578   -3.3070 H   0  0  0  0  0  0  0  0  0  0  0  0
    6.4274   25.7600   -1.2851 H   0  0  0  0  0  0  0  0  0  0  0  0
    5.4837   27.0697   -2.0671 H   0  0  0  0  0  0  0  0  0  0  0  0
    4.3020   24.8300   -1.5150 H   0  0  0  0  0  0  0  0  0  0  0  0
    2.4087   23.7944   -4.1407 H   0  0  0  0  0  0  0  0  0  0  0  0
    3.7259   22.6370   -3.5205 H   0  0  0  0  0  0  0  0  0  0  0  0
    1.7917   22.5531   -2.0783 H   0  0  0  0  0  0  0  0  0  0  0  0
    3.2197   23.2839   -1.2469 H   0  0  0  0  0  0  0  0  0  0  0  0
    1.1282   25.1043   -2.5566 H   0  0  0  0  0  0  0  0  0  0  0  0
    1.4827   25.2716    1.6228 H   0  0  0  0  0  0  0  0  0  0  0  0
    1.7971   23.6661    0.8810 H   0  0  0  0  0  0  0  0  0  0  0  0
    3.0810   24.9224    0.8810 H   0  0  0  0  0  0  0  0  0  0  0  0
   -0.2045   26.4159   -0.2192 H   0  0  0  0  0  0  0  0  0  0  0  0
    2.1062   29.0548   -1.8714 H   0  0  0  0  0  0  0  0  0  0  0  0
   -0.8474   29.3286   -2.1737 H   0  0  0  0  0  0  0  0  0  0  0  0
    0.5526   30.4223   -2.6483 H   0  0  0  0  0  0  0  0  0  0  0  0
   -0.2982   27.8410   -3.9820 H   0  0  0  0  0  0  0  0  0  0  0  0
   -0.4163   29.5687   -4.6055 H   0  0  0  0  0  0  0  0  0  0  0  0
    2.2850   29.0411   -3.9414 H   0  0  0  0  0  0  0  0  0  0  0  0
    2.4780   29.3610   -6.2550 H   0  0  0  0  0  0  0  0  0  0  0  0
    0.3388   26.1560   -4.1027 H   0  0  0  0  0  0  0  0  0  0  0  0
   -0.1632   26.9019   -5.6579 H   0  0  0  0  0  0  0  0  0  0  0  0
    0.9054   25.4580   -5.6579 H   0  0  0  0  0  0  0  0  0  0  0  0
    3.8572   27.7415   -5.3444 H   0  0  0  0  0  0  0  0  0  0  0  0
    2.9423   24.8515   -5.7788 H   0  0  0  0  0  0  0  0  0  0  0  0
    1.3803   29.8118    0.2220 H   0  0  0  0  0  0  0  0  0  0  0  0
   -0.2321   29.1664    0.0700 H   0  0  0  0  0  0  0  0  0  0  0  0
    2.3942   27.6363    0.7296 H   0  0  0  0  0  0  0  0  0  0  0  0
    1.5155   27.7380    2.6680 H   0  0  0  0  0  0  0  0  0  0  0  0
   -0.1462   28.0474    2.0597 H   0  0  0  0  0  0  0  0  0  0  0  0
    0.5137   26.3767    2.0597 H   0  0  0  0  0  0  0  0  0  0  0  0
  1  2  1  0
  2  3  2  0
  3  4  1  0
  4  5  1  0
  5  6  1  0
  6  7  1  0
  6  8  1  0
  8  9  2  0
  8 10  1  0
  3 11  1  0
 11 12  1  0
 13 12  1  6
 13 14  1  0
 14 15  1  0
 15 16  1  0
 16 17  1  0
 17 18  2  0
 18 19  1  0
 19 20  1  0
 20 21  1  0
 21 22  2  0
 22 23  1  0
 22 24  1  0
 24 25  1  0
 25 26  1  0
 26 27  1  0
 27 28  1  0
 28 29  1  0
 29 30  1  0
 29 31  1  0
 31 32  1  0
 31 33  2  0
 33 34  1  0
 26 35  1  0
 35 36  1  0
 36 37  1  0
 34  2  1  0
 10  4  1  0
 18 13  1  0
 36 24  1  0
 34 13  1  0
  1 38  1  0
  1 39  1  0
  1 40  1  0
  4 41  1  6
  5 42  1  0
  5 43  1  0
  6 44  1  6
  7 45  1  0
  7 46  1  0
  7 47  1  0
 11 48  1  0
 11 49  1  0
 12 50  1  0
 12 51  1  0
 14 52  1  0
 14 53  1  0
 15 54  1  0
 15 55  1  0
 16 56  1  0
 16 57  1  0
 17 58  1  0
 19 59  1  0
 19 60  1  0
 20 61  1  0
 20 62  1  0
 21 63  1  0
 23 64  1  0
 23 65  1  0
 23 66  1  0
 24 67  1  1
 26 68  1  6
 27 69  1  0
 27 70  1  0
 28 71  1  0
 28 72  1  0
 29 73  1  1
 30 74  1  0
 32 75  1  0
 32 76  1  0
 32 77  1  0
 33 78  1  0
 34 79  1  6
 35 80  1  0
 35 81  1  0
 36 82  1  1
 37 83  1  0
 37 84  1  0
 37 85  1  0
M  CHG  1  17   1
M  END
>  <meeko>  (1) 
{"is_sidechain": [false], "free_energy": -8.718, "intermolecular_energy": -13.56, "internal_energy": -0.47}

$$$$
2x00_ligand
     RDKit          3D

 85 89  0  0  0  0  0  0  0  0999 V2000
    2.9460   27.7020   -1.9740 C   0  0  0  0  0  0  0  0  0  0  0  0
    2.3230   26.5930   -2.8060 C   0  0  0  0  0  0  0  0  0  0  0  0
    2.0820   25.3550   -2.3000 C   0  0  0  0  0  0  0  0  0  0  0  0
    2.1420   24.9770   -0.8150 C   0  0  2  0  0  0  0  0  0  0  0  0
    1.4950   23.6430   -0.4680 C   0  0  0  0  0  0  0  0  0  0  0  0
    1.2300   23.7940    1.0160 C   0  0  2  0  0  0  0  0  0  0  0  0
    0.0940   22.9140    1.5030 C   0  0  0  0  0  0  0  0  0  0  0  0
    0.9110   25.2600    1.0960 C   0  0  0  0  0  0  0  0  0  0  0  0
    0.3070   25.8210    1.9950 O   0  0  0  0  0  0  0  0  0  0  0  0
    1.4210   25.9020    0.0050 O   0  0  0  0  0  0  0  0  0  0  0  0
    1.7930   24.1800   -3.2150 C   0  0  0  0  0  0  0  0  0  0  0  0
    2.0520   24.4540   -4.6970 C   0  0  0  0  0  0  0  0  0  0  0  0
    1.4810   25.8140   -5.1720 C   0  0  2  0  0  0  0  0  0  0  0  0
   -0.0760   25.8170   -5.0100 C   0  0  0  0  0  0  0  0  0  0  0  0
   -0.7760   25.0740   -6.1380 C   0  0  0  0  0  0  0  0  0  0  0  0
   -0.4700   25.7850   -7.4390 C   0  0  0  0  0  0  0  0  0  0  0  0
    0.9910   25.9300   -7.5790 N   0  0  0  0  0  0  0  0  0  0  0  0
    1.8960   25.9610   -6.6590 C   0  0  0  0  0  0  0  0  0  0  0  0
    3.3540   25.9630   -7.1300 C   0  0  0  0  0  0  0  0  0  0  0  0
    3.7030   26.7990   -8.3720 C   0  0  0  0  0  0  0  0  0  0  0  0
    3.1480   28.1850   -8.2550 C   0  0  0  0  0  0  0  0  0  0  0  0
    2.2970   28.8270   -9.0840 C   0  0  0  0  0  0  0  0  0  0  0  0
    1.8180   28.3120  -10.4150 C   0  0  0  0  0  0  0  0  0  0  0  0
    1.6810   30.1320   -8.6170 C   0  0  2  0  0  0  0  0  0  0  0  0
    0.4750   29.7790   -7.9060 O   0  0  0  0  0  0  0  0  0  0  0  0
   -0.4450   30.8830   -8.0230 C   0  0  1  0  0  0  0  0  0  0  0  0
   -0.9850   31.3710   -6.6680 C   0  0  0  0  0  0  0  0  0  0  0  0
   -1.0080   30.3120   -5.5600 C   0  0  0  0  0  0  0  0  0  0  0  0
    0.1590   30.3970   -4.5500 C   0  0  2  0  0  0  0  0  0  0  0  0
    1.2990   31.0220   -5.1320 O   0  0  0  0  0  0  0  0  0  0  0  0
    0.5370   29.0120   -4.0280 C   0  0  0  0  0  0  0  0  0  0  0  0
   -0.3560   28.5320   -2.9100 C   0  0  0  0  0  0  0  0  0  0  0  0
    1.5550   28.3100   -4.5780 C   0  0  0  0  0  0  0  0  0  0  0  0
    2.1490   26.9370   -4.2880 C   0  0  1  0  0  0  0  0  0  0  0  0
    0.2580   31.9710   -8.8310 C   0  0  0  0  0  0  0  0  0  0  0  0
    1.2450   31.1620   -9.6550 C   0  0  1  0  0  0  0  0  0  0  0  0
    2.3880   31.9810  -10.2280 C   0  0  0  0  0  0  0  0  0  0  0  0
    2.8182   27.4746   -0.9054 H   0  0  0  0  0  0  0  0  0  0  0  0
    4.0184   27.7771   -2.2072 H   0  0  0  0  0  0  0  0  0  0  0  0
    2.4523   28.6569   -2.2072 H   0  0  0  0  0  0  0  0  0  0  0  0
    3.2257   24.9582   -0.6275 H   0  0  0  0  0  0  0  0  0  0  0  0
    0.5595   23.4957   -1.0275 H   0  0  0  0  0  0  0  0  0  0  0  0
    2.1169   22.7712   -0.7196 H   0  0  0  0  0  0  0  0  0  0  0  0
    2.0652   23.4794    1.6591 H   0  0  0  0  0  0  0  0  0  0  0  0
    0.0826   22.9052    2.6029 H   0  0  0  0  0  0  0  0  0  0  0  0
   -0.8621   23.3094    1.1296 H   0  0  0  0  0  0  0  0  0  0  0  0
    0.2379   21.8894    1.1296 H   0  0  0  0  0  0  0  0  0  0  0  0
    2.4290   23.3379   -2.9047 H   0  0  0  0  0  0  0  0  0  0  0  0
    0.7186   23.9645   -3.1190 H   0  0  0  0  0  0  0  0  0  0  0  0
    3.1385   24.4511   -4.8690 H   0  0  0  0  0  0  0  0  0  0  0  0
    1.5424   23.6657   -5.2705 H   0  0  0  0  0  0  0  0  0  0  0  0
   -0.3331   25.3343   -4.0556 H   0  0  0  0  0  0  0  0  0  0  0  0
   -0.4147   26.8633   -5.0356 H   0  0  0  0  0  0  0  0  0  0  0  0
   -0.4086   24.0382   -6.1851 H   0  0  0  0  0  0  0  0  0  0  0  0
   -1.8618   25.0561   -5.9628 H   0  0  0  0  0  0  0  0  0  0  0  0
   -0.8640   25.1973   -8.2812 H   0  0  0  0  0  0  0  0  0  0  0  0
   -0.9421   26.7786   -7.4377 H   0  0  0  0  0  0  0  0  0  0  0  0
    1.2840   26.0600   -8.5510 H   0  0  0  0  0  0  0  0  0  0  0  0
    3.9674   26.3391   -6.2980 H   0  0  0  0  0  0  0  0  0  0  0  0
    3.5502   24.9233   -7.4308 H   0  0  0  0  0  0  0  0  0  0  0  0
    4.7969   26.8561   -8.4722 H   0  0  0  0  0  0  0  0  0  0  0  0
    3.2614   26.3166   -9.2565 H   0  0  0  0  0  0  0  0  0  0  0  0
    3.4780   28.7571   -7.3753 H   0  0  0  0  0  0  0  0  0  0  0  0
    1.0768   27.5151  -10.2547 H   0  0  0  0  0  0  0  0  0  0  0  0
    1.3559   29.1340  -10.9815 H   0  0  0  0  0  0  0  0  0  0  0  0
    2.6712   27.9106  -10.9815 H   0  0  0  0  0  0  0  0  0  0  0  0
    2.4914   30.6193   -8.0551 H   0  0  0  0  0  0  0  0  0  0  0  0
   -1.3553   30.5612   -8.5501 H   0  0  0  0  0  0  0  0  0  0  0  0
   -0.3532   32.2053   -6.3294 H   0  0  0  0  0  0  0  0  0  0  0  0
   -2.0328   31.6583   -6.8402 H   0  0  0  0  0  0  0  0  0  0  0  0
   -1.9501   30.4217   -5.0028 H   0  0  0  0  0  0  0  0  0  0  0  0
   -0.9085   29.3389   -6.0631 H   0  0  0  0  0  0  0  0  0  0  0  0
   -0.1847   31.0108   -3.7044 H   0  0  0  0  0  0  0  0  0  0  0  0
    2.0290   30.8850   -4.5020 H   0  0  0  0  0  0  0  0  0  0  0  0
    0.1037   28.7791   -1.9417 H   0  0  0  0  0  0  0  0  0  0  0  0
   -1.3365   29.0246   -2.9867 H   0  0  0  0  0  0  0  0  0  0  0  0
   -0.4861   27.4424   -2.9867 H   0  0  0  0  0  0  0  0  0  0  0  0
    2.0558   28.8384   -5.4026 H   0  0  0  0  0  0  0  0  0  0  0  0
    3.1983   26.9902   -4.6137 H   0  0  0  0  0  0  0  0  0  0  0  0
   -0.4510   32.5125   -9.4745 H   0  0  0  0  0  0  0  0  0  0  0  0
    0.7287   32.7494   -8.2126 H   0  0  0  0  0  0  0  0  0  0  0  0
    0.8222   30.7304  -10.5742 H   0  0  0  0  0  0  0  0  0  0  0  0
    2.9821   32.4067   -9.4060 H   0  0  0  0  0  0  0  0  0  0  0  0
    3.0281   31.3347  -10.8466 H   0  0  0  0  0  0  0  0  0  0  0  0
    1.9818   32.7949  -10.8466 H   0  0  0  0  0  0  0  0  0  0  0  0
  1  2  1  0
  2  3  2  0
  3  4  1  0
  4  5  1  0
  5  6  1  0
  6  7  1  0
  6  8  1  0
  8  9  2  0
  8 10  1  0
  3 11  1  0
 11 12  1  0
 13 12  1  1
 13 14  1  0
 14 15  1  0
 15 16  1  0
 16 17  1  0
 17 18  2  0
 18 19  1  0
 19 20  1  0
 20 21  1  0
 21 22  2  0
 22 23  1  0
 22 24  1  0
 24 25  1  0
 25 26  1  0
 26 27  1  0
 27 28  1  0
 28 29  1  0
 29 30  1  0
 29 31  1  0
 31 32  1  0
 31 33  2  0
 33 34  1  0
 26 35  1  0
 35 36  1  0
 36 37  1  0
 34  2  1  0
 10  4  1  0
 18 13  1  0
 36 24  1  0
 34 13  1  0
  1 38  1  0
  1 39  1  0
  1 40  1  0
  4 41  1  1
  5 42  1  0
  5 43  1  0
  6 44  1  1
  7 45  1  0
  7 46  1  0
  7 47  1  0
 11 48  1  0
 11 49  1  0
 12 50  1  0
 12 51  1  0
 14 52  1  0
 14 53  1  0
 15 54  1  0
 15 55  1  0
 16 56  1  0
 16 57  1  0
 17 58  1  0
 19 59  1  0
 19 60  1  0
 20 61  1  0
 20 62  1  0
 21 63  1  0
 23 64  1  0
 23 65  1  0
 23 66  1  0
 24 67  1  1
 26 68  1  6
 27 69  1  0
 27 70  1  0
 28 71  1  0
 28 72  1  0
 29 73  1  1
 30 74  1  0
 32 75  1  0
 32 76  1  0
 32 77  1  0
 33 78  1  0
 34 79  1  6
 35 80  1  0
 35 81  1  0
 36 82  1  6
 37 83  1  0
 37 84  1  0
 37 85  1  0
M  CHG  1  17   1
M  END
>  <meeko>  (2) 
{"is_sidechain": [false], "free_energy": -7.968, "intermolecular_energy": -11.501, "internal_energy": -1.361}

$$$$
2x00_ligand
     RDKit          3D

 85 89  0  0  0  0  0  0  0  0999 V2000
    5.5730   25.8820   -4.8330 C   0  0  0  0  0  0  0  0  0  0  0  0
    4.4720   26.0840   -5.8590 C   0  0  0  0  0  0  0  0  0  0  0  0
    4.6820   25.9150   -7.1910 C   0  0  0  0  0  0  0  0  0  0  0  0
    5.9210   25.2640   -7.8180 C   0  0  2  0  0  0  0  0  0  0  0  0
    6.5280   26.0320   -8.9840 C   0  0  0  0  0  0  0  0  0  0  0  0
    7.3220   24.9560   -9.6960 C   0  0  2  0  0  0  0  0  0  0  0  0
    7.5340   25.2580  -11.1680 C   0  0  0  0  0  0  0  0  0  0  0  0
    6.4430   23.7590   -9.4650 C   0  0  0  0  0  0  0  0  0  0  0  0
    6.4500   22.7220  -10.1060 O   0  0  0  0  0  0  0  0  0  0  0  0
    5.6240   23.9890   -8.3970 O   0  0  0  0  0  0  0  0  0  0  0  0
    3.6950   26.4480   -8.2120 C   0  0  0  0  0  0  0  0  0  0  0  0
    2.6310   27.3810   -7.6350 C   0  0  0  0  0  0  0  0  0  0  0  0
    1.9990   26.8450   -6.3250 C   0  0  2  0  0  0  0  0  0  0  0  0
    1.2620   25.4930   -6.6110 C   0  0  0  0  0  0  0  0  0  0  0  0
   -0.1060   25.7020   -7.2420 C   0  0  0  0  0  0  0  0  0  0  0  0
   -0.9690   26.4730   -6.2660 C   0  0  0  0  0  0  0  0  0  0  0  0
   -0.2600   27.6990   -5.8580 N   0  0  0  0  0  0  0  0  0  0  0  0
    1.0090   27.9380   -5.8440 C   0  0  0  0  0  0  0  0  0  0  0  0
    1.4350   29.3720   -5.5140 C   0  0  0  0  0  0  0  0  0  0  0  0
    0.6430   30.1220   -4.4300 C   0  0  0  0  0  0  0  0  0  0  0  0
    1.0010   29.6190   -3.0650 C   0  0  0  0  0  0  0  0  0  0  0  0
    0.1810   29.2890   -2.0450 C   0  0  0  0  0  0  0  0  0  0  0  0
   -1.3110   29.4910   -2.0210 C   0  0  0  0  0  0  0  0  0  0  0  0
    0.7710   28.5630   -0.8500 C   0  0  2  0  0  0  0  0  0  0  0  0
    0.8220   27.1660   -1.2100 O   0  0  0  0  0  0  0  0  0  0  0  0
    0.7250   26.3940    0.0040 C   0  0  1  0  0  0  0  0  0  0  0  0
    1.8560   25.3630    0.1610 C   0  0  0  0  0  0  0  0  0  0  0  0
    2.7230   25.1570   -1.0870 C   0  0  0  0  0  0  0  0  0  0  0  0
    2.0530   24.3450   -2.2120 C   0  0  2  0  0  0  0  0  0  0  0  0
    2.1700   22.9420   -1.9940 O   0  0  0  0  0  0  0  0  0  0  0  0
    2.6180   24.7060   -3.5850 C   0  0  0  0  0  0  0  0  0  0  0  0
    3.0350   23.5020   -4.3930 C   0  0  0  0  0  0  0  0  0  0  0  0
    2.6780   25.9930   -4.0020 C   0  0  0  0  0  0  0  0  0  0  0  0
    3.1690   26.6490   -5.2860 C   0  0  1  0  0  0  0  0  0  0  0  0
    0.6350   27.3860    1.1610 C   0  0  0  0  0  0  0  0  0  0  0  0
    0.0330   28.6050    0.4840 C   0  0  1  0  0  0  0  0  0  0  0  0
    0.2260   29.8980    1.2550 C   0  0  0  0  0  0  0  0  0  0  0  0
    5.1496   25.9597   -3.8207 H   0  0  0  0  0  0  0  0  0  0  0  0
    6.0214   24.8866   -4.9675 H   0  0  0  0  0  0  0  0  0  0  0  0
    6.3456   26.6534   -4.9675 H   0  0  0  0  0  0  0  0  0  0  0  0
    6.6127   25.2211   -6.9638 H   0  0  0  0  0  0  0  0  0  0  0  0
    5.7470   26.4493   -9.6366 H   0  0  0  0  0  0  0  0  0  0  0  0
    7.1335   26.8972   -8.6760 H   0  0  0  0  0  0  0  0  0  0  0  0
    8.3517   24.8362   -9.3281 H   0  0  0  0  0  0  0  0  0  0  0  0
    8.1632   26.1543  -11.2715 H   0  0  0  0  0  0  0  0  0  0  0  0
    8.0313   24.4033  -11.6497 H   0  0  0  0  0  0  0  0  0  0  0  0
    6.5611   25.4353  -11.6497 H   0  0  0  0  0  0  0  0  0  0  0  0
    4.2579   27.0007   -8.9786 H   0  0  0  0  0  0  0  0  0  0  0  0
    3.1610   25.5758   -8.6172 H   0  0  0  0  0  0  0  0  0  0  0  0
    3.0960   28.3558   -7.4262 H   0  0  0  0  0  0  0  0  0  0  0  0
    1.8253   27.4604   -8.3797 H   0  0  0  0  0  0  0  0  0  0  0  0
    1.8789   24.8920   -7.2953 H   0  0  0  0  0  0  0  0  0  0  0  0
    1.1134   24.9813   -5.6487 H   0  0  0  0  0  0  0  0  0  0  0  0
   -0.0009   26.2728   -8.1764 H   0  0  0  0  0  0  0  0  0  0  0  0
   -0.5692   24.7309   -7.4710 H   0  0  0  0  0  0  0  0  0  0  0  0
   -1.9206   26.7412   -6.7482 H   0  0  0  0  0  0  0  0  0  0  0  0
   -1.1731   25.8517   -5.3815 H   0  0  0  0  0  0  0  0  0  0  0  0
   -0.8920   28.4240   -5.5060 H   0  0  0  0  0  0  0  0  0  0  0  0
    2.4849   29.3359   -5.1878 H   0  0  0  0  0  0  0  0  0  0  0  0
    1.2453   29.9377   -6.4381 H   0  0  0  0  0  0  0  0  0  0  0  0
    0.8757   31.1954   -4.4912 H   0  0  0  0  0  0  0  0  0  0  0  0
   -0.4309   29.9526   -4.5975 H   0  0  0  0  0  0  0  0  0  0  0  0
    2.0769   29.5030   -2.8675 H   0  0  0  0  0  0  0  0  0  0  0  0
   -1.6579   29.5380   -0.9782 H   0  0  0  0  0  0  0  0  0  0  0  0
   -1.5620   30.4313   -2.5336 H   0  0  0  0  0  0  0  0  0  0  0  0
   -1.8030   28.6513   -2.5336 H   0  0  0  0  0  0  0  0  0  0  0  0
    1.7207   29.0868   -0.6661 H   0  0  0  0  0  0  0  0  0  0  0  0
   -0.1791   25.7678   -0.0179 H   0  0  0  0  0  0  0  0  0  0  0  0
    2.5104   25.6964    0.9799 H   0  0  0  0  0  0  0  0  0  0  0  0
    1.3668   24.3977    0.3583 H   0  0  0  0  0  0  0  0  0  0  0  0
    2.9851   26.1469   -1.4888 H   0  0  0  0  0  0  0  0  0  0  0  0
    3.5982   24.5744   -0.7635 H   0  0  0  0  0  0  0  0  0  0  0  0
    0.9859   24.6116   -2.1935 H   0  0  0  0  0  0  0  0  0  0  0  0
    1.4260   22.7000   -1.4130 H   0  0  0  0  0  0  0  0  0  0  0  0
    3.3181   22.6846   -3.7135 H   0  0  0  0  0  0  0  0  0  0  0  0
    2.1968   23.1779   -5.0273 H   0  0  0  0  0  0  0  0  0  0  0  0
    3.8941   23.7657   -5.0273 H   0  0  0  0  0  0  0  0  0  0  0  0
    2.2938   26.7111   -3.2626 H   0  0  0  0  0  0  0  0  0  0  0  0
    3.4892   27.6620   -5.0009 H   0  0  0  0  0  0  0  0  0  0  0  0
   -0.0191   27.0090    1.9610 H   0  0  0  0  0  0  0  0  0  0  0  0
    1.5988   27.5823    1.6535 H   0  0  0  0  0  0  0  0  0  0  0  0
   -1.0634   28.5813    0.3980 H   0  0  0  0  0  0  0  0  0  0  0  0
    0.1948   29.6893    2.3346 H   0  0  0  0  0  0  0  0  0  0  0  0
    1.1998   30.3383    0.9946 H   0  0  0  0  0  0  0  0  0  0  0  0
   -0.5768   30.6035    0.9946 H   0  0  0  0  0  0  0  0  0  0  0  0
  1  2  1  0
  2  3  2  0
  3  4  1  0
  4  5  1  0
  5  6  1  0
  6  7  1  0
  6  8  1  0
  8  9  2  0
  8 10  1  0
  3 11  1  0
 11 12  1  0
 13 12  1  6
 13 14  1  0
 14 15  1  0
 15 16  1  0
 16 17  1  0
 17 18  2  0
 18 19  1  0
 19 20  1  0
 20 21  1  0
 21 22  2  0
 22 23  1  0
 22 24  1  0
 24 25  1  0
 25 26  1  0
 26 27  1  0
 27 28  1  0
 28 29  1  0
 29 30  1  0
 29 31  1  0
 31 32  1  0
 31 33  2  0
 33 34  1  0
 26 35  1  0
 35 36  1  0
 36 37  1  0
 34  2  1  0
 10  4  1  0
 18 13  1  0
 36 24  1  0
 34 13  1  0
  1 38  1  0
  1 39  1  0
  1 40  1  0
  4 41  1  1
  5 42  1  0
  5 43  1  0
  6 44  1  1
  7 45  1  0
  7 46  1  0
  7 47  1  0
 11 48  1  0
 11 49  1  0
 12 50  1  0
 12 51  1  0
 14 52  1  0
 14 53  1  0
 15 54  1  0
 15 55  1  0
 16 56  1  0
 16 57  1  0
 17 58  1  0
 19 59  1  0
 19 60  1  0
 20 61  1  0
 20 62  1  0
 21 63  1  0
 23 64  1  0
 23 65  1  0
 23 66  1  0
 24 67  1  1
 26 68  1  6
 27 69  1  0
 27 70  1  0
 28 71  1  0
 28 72  1  0
 29 73  1  6
 30 74  1  0
 32 75  1  0
 32 76  1  0
 32 77  1  0
 33 78  1  0
 34 79  1  1
 35 80  1  0
 35 81  1  0
 36 82  1  6
 37 83  1  0
 37 84  1  0
 37 85  1  0
M  CHG  1  17   1
M  END
>  <meeko>  (3) 
{"is_sidechain": [false], "free_energy": -7.831, "intermolecular_energy": -11.513, "internal_energy": -1.137}

$$$$
2x00_ligand
     RDKit          3D

 85 89  0  0  0  0  0  0  0  0999 V2000
    5.9430   25.8460   -6.7190 C   0  0  0  0  0  0  0  0  0  0  0  0
    4.5490   26.2230   -7.1900 C   0  0  0  0  0  0  0  0  0  0  0  0
    4.2390   26.3550   -8.5070 C   0  0  0  0  0  0  0  0  0  0  0  0
    5.1230   25.9040   -9.6750 C   0  0  2  0  0  0  0  0  0  0  0  0
    5.5440   24.4420   -9.6320 C   0  0  0  0  0  0  0  0  0  0  0  0
    6.7660   24.4340  -10.5280 C   0  0  2  0  0  0  0  0  0  0  0  0
    7.7200   23.2970  -10.2120 C   0  0  0  0  0  0  0  0  0  0  0  0
    7.3450   25.7870  -10.2220 C   0  0  0  0  0  0  0  0  0  0  0  0
    8.4940   26.1420  -10.4190 O   0  0  0  0  0  0  0  0  0  0  0  0
    6.3770   26.5940   -9.6980 O   0  0  0  0  0  0  0  0  0  0  0  0
    2.9680   27.0600   -8.9440 C   0  0  0  0  0  0  0  0  0  0  0  0
    2.2410   27.8040   -7.8240 C   0  0  0  0  0  0  0  0  0  0  0  0
    2.1190   26.9730   -6.5220 C   0  0  2  0  0  0  0  0  0  0  0  0
    1.2670   25.6880   -6.7950 C   0  0  0  0  0  0  0  0  0  0  0  0
   -0.2270   25.9770   -6.8080 C   0  0  0  0  0  0  0  0  0  0  0  0
   -0.6270   26.4840   -5.4390 C   0  0  0  0  0  0  0  0  0  0  0  0
    0.2400   27.6190   -5.0710 N   0  0  0  0  0  0  0  0  0  0  0  0
    1.4320   27.8960   -5.4820 C   0  0  0  0  0  0  0  0  0  0  0  0
    2.0170   29.2410   -5.0350 C   0  0  0  0  0  0  0  0  0  0  0  0
    1.8840   29.6200   -3.5510 C   0  0  0  0  0  0  0  0  0  0  0  0
    2.3290   28.4930   -2.6700 C   0  0  0  0  0  0  0  0  0  0  0  0
    1.9030   28.1710   -1.4300 C   0  0  0  0  0  0  0  0  0  0  0  0
    0.9550   28.9860   -0.5920 C   0  0  0  0  0  0  0  0  0  0  0  0
    2.3230   26.8340   -0.8470 C   0  0  2  0  0  0  0  0  0  0  0  0
    1.6710   25.8230   -1.6440 O   0  0  0  0  0  0  0  0  0  0  0  0
    1.4730   24.6640   -0.8090 C   0  0  1  0  0  0  0  0  0  0  0  0
    2.0270   23.3690   -1.4270 C   0  0  0  0  0  0  0  0  0  0  0  0
    2.2670   23.4230   -2.9400 C   0  0  0  0  0  0  0  0  0  0  0  0
    3.7440   23.6620   -3.3540 C   0  0  2  0  0  0  0  0  0  0  0  0
    4.4410   24.4280   -2.3760 O   0  0  0  0  0  0  0  0  0  0  0  0
    3.8460   24.3450   -4.7180 C   0  0  0  0  0  0  0  0  0  0  0  0
    4.2230   23.3990   -5.8310 C   0  0  0  0  0  0  0  0  0  0  0  0
    3.5750   25.6630   -4.8630 C   0  0  0  0  0  0  0  0  0  0  0  0
    3.5810   26.6010   -6.0640 C   0  0  1  0  0  0  0  0  0  0  0  0
    2.0640   24.9910    0.5610 C   0  0  0  0  0  0  0  0  0  0  0  0
    1.9550   26.5050    0.5970 C   0  0  1  0  0  0  0  0  0  0  0  0
    2.8530   27.1650    1.6270 C   0  0  0  0  0  0  0  0  0  0  0  0
    5.9691   25.8390   -5.6193 H   0  0  0  0  0  0  0  0  0  0  0  0
    6.2002   24.8460   -7.0983 H   0  0  0  0  0  0  0  0  0  0  0  0
    6.6692   26.5800   -7.0983 H   0  0  0  0  0  0  0  0  0  0  0  0
    4.4782   26.1104  -10.5420 H   0  0  0  0  0  0  0  0  0  0  0  0
    5.7981   24.1301   -8.6082 H   0  0  0  0  0  0  0  0  0  0  0  0
    4.7556   23.7459   -9.9544 H   0  0  0  0  0  0  0  0  0  0  0  0
    6.5458   24.2683  -11.5929 H   0  0  0  0  0  0  0  0  0  0  0  0
    7.8117   23.1877   -9.1213 H   0  0  0  0  0  0  0  0  0  0  0  0
    7.3319   22.3622  -10.6428 H   0  0  0  0  0  0  0  0  0  0  0  0
    8.7080   23.5168  -10.6428 H   0  0  0  0  0  0  0  0  0  0  0  0
    3.2298   27.7873   -9.7266 H   0  0  0  0  0  0  0  0  0  0  0  0
    2.2810   26.2773   -9.2981 H   0  0  0  0  0  0  0  0  0  0  0  0
    2.7954   28.7272   -7.5995 H   0  0  0  0  0  0  0  0  0  0  0  0
    1.2203   28.0123   -8.1771 H   0  0  0  0  0  0  0  0  0  0  0  0
    1.5555   25.2734   -7.7722 H   0  0  0  0  0  0  0  0  0  0  0  0
    1.4644   24.9745   -5.9814 H   0  0  0  0  0  0  0  0  0  0  0  0
   -0.4511   26.7408   -7.5672 H   0  0  0  0  0  0  0  0  0  0  0  0
   -0.7871   25.0619   -7.0509 H   0  0  0  0  0  0  0  0  0  0  0  0
   -1.6761   26.8141   -5.4608 H   0  0  0  0  0  0  0  0  0  0  0  0
   -0.5155   25.6780   -4.6988 H   0  0  0  0  0  0  0  0  0  0  0  0
   -0.1800   28.2260   -4.3610 H   0  0  0  0  0  0  0  0  0  0  0  0
    3.0902   29.2290   -5.2761 H   0  0  0  0  0  0  0  0  0  0  0  0
    1.4204   29.9951   -5.5692 H   0  0  0  0  0  0  0  0  0  0  0  0
    2.5067   30.5037   -3.3477 H   0  0  0  0  0  0  0  0  0  0  0  0
    0.8272   29.8375   -3.3369 H   0  0  0  0  0  0  0  0  0  0  0  0
    3.1079   27.8397   -3.0901 H   0  0  0  0  0  0  0  0  0  0  0  0
    1.1619   28.8081    0.4736 H   0  0  0  0  0  0  0  0  0  0  0  0
    1.0906   30.0538   -0.8186 H   0  0  0  0  0  0  0  0  0  0  0  0
   -0.0804   28.6917   -0.8186 H   0  0  0  0  0  0  0  0  0  0  0  0
    3.4222   26.8740   -0.8582 H   0  0  0  0  0  0  0  0  0  0  0  0
    0.3988   24.4504   -0.7071 H   0  0  0  0  0  0  0  0  0  0  0  0
    2.9853   23.1404   -0.9377 H   0  0  0  0  0  0  0  0  0  0  0  0
    1.2586   22.5986   -1.2654 H   0  0  0  0  0  0  0  0  0  0  0  0
    1.9402   22.4662   -3.3732 H   0  0  0  0  0  0  0  0  0  0  0  0
    1.6957   24.2851   -3.3148 H   0  0  0  0  0  0  0  0  0  0  0  0
    4.2158   22.6710   -3.4269 H   0  0  0  0  0  0  0  0  0  0  0  0
    4.2590   23.9980   -1.5210 H   0  0  0  0  0  0  0  0  0  0  0  0
    4.5979   22.4583   -5.4014 H   0  0  0  0  0  0  0  0  0  0  0  0
    3.3387   23.1920   -6.4516 H   0  0  0  0  0  0  0  0  0  0  0  0
    5.0073   23.8570   -6.4516 H   0  0  0  0  0  0  0  0  0  0  0  0
    3.2929   26.1581   -3.9221 H   0  0  0  0  0  0  0  0  0  0  0  0
    4.0301   27.5400   -5.7082 H   0  0  0  0  0  0  0  0  0  0  0  0
    1.4789   24.5286    1.3696 H   0  0  0  0  0  0  0  0  0  0  0  0
    3.0882   24.6160    0.7038 H   0  0  0  0  0  0  0  0  0  0  0  0
    0.9713   26.8819    0.9137 H   0  0  0  0  0  0  0  0  0  0  0  0
    2.5028   26.9076    2.6375 H   0  0  0  0  0  0  0  0  0  0  0  0
    3.8855   26.8092    1.4951 H   0  0  0  0  0  0  0  0  0  0  0  0
    2.8217   28.2566    1.4951 H   0  0  0  0  0  0  0  0  0  0  0  0
  1  2  1  0
  2  3  2  0
  3  4  1  0
  4  5  1  0
  5  6  1  0
  6  7  1  0
  6  8  1  0
  8  9  2  0
  8 10  1  0
  3 11  1  0
 11 12  1  0
 13 12  1  6
 13 14  1  0
 14 15  1  0
 15 16  1  0
 16 17  1  0
 17 18  2  0
 18 19  1  0
 19 20  1  0
 20 21  1  0
 21 22  2  0
 22 23  1  0
 22 24  1  0
 24 25  1  0
 25 26  1  0
 26 27  1  0
 27 28  1  0
 28 29  1  0
 29 30  1  0
 29 31  1  0
 31 32  1  0
 31 33  2  0
 33 34  1  0
 26 35  1  0
 35 36  1  0
 36 37  1  0
 34  2  1  0
 10  4  1  0
 18 13  1  0
 36 24  1  0
 34 13  1  0
  1 38  1  0
  1 39  1  0
  1 40  1  0
  4 41  1  6
  5 42  1  0
  5 43  1  0
  6 44  1  6
  7 45  1  0
  7 46  1  0
  7 47  1  0
 11 48  1  0
 11 49  1  0
 12 50  1  0
 12 51  1  0
 14 52  1  0
 14 53  1  0
 15 54  1  0
 15 55  1  0
 16 56  1  0
 16 57  1  0
 17 58  1  0
 19 59  1  0
 19 60  1  0
 20 61  1  0
 20 62  1  0
 21 63  1  0
 23 64  1  0
 23 65  1  0
 23 66  1  0
 24 67  1  1
 26 68  1  1
 27 69  1  0
 27 70  1  0
 28 71  1  0
 28 72  1  0
 29 73  1  6
 30 74  1  0
 32 75  1  0
 32 76  1  0
 32 77  1  0
 33 78  1  0
 34 79  1  1
 35 80  1  0
 35 81  1  0
 36 82  1  1
 37 83  1  0
 37 84  1  0
 37 85  1  0
M  CHG  1  17   1
M  END
>  <meeko>  (4) 
{"is_sidechain": [false], "free_energy": -7.478, "intermolecular_energy": -11.348, "internal_energy": -0.753}

$$$$
2x00_ligand
     RDKit          3D

 85 89  0  0  0  0  0  0  0  0999 V2000
    2.8370   28.5480   -2.0140 C   0  0  0  0  0  0  0  0  0  0  0  0
    2.2990   27.3080   -2.7080 C   0  0  0  0  0  0  0  0  0  0  0  0
    2.0800   26.1420   -2.0450 C   0  0  0  0  0  0  0  0  0  0  0  0
    2.0800   25.9770   -0.5200 C   0  0  2  0  0  0  0  0  0  0  0  0
    0.9060   26.6300    0.1950 C   0  0  0  0  0  0  0  0  0  0  0  0
    1.4340   26.7740    1.6080 C   0  0  2  0  0  0  0  0  0  0  0  0
    0.7560   27.8910    2.3780 C   0  0  0  0  0  0  0  0  0  0  0  0
    2.8870   27.0450    1.3390 C   0  0  0  0  0  0  0  0  0  0  0  0
    3.6800   27.5610    2.1070 O   0  0  0  0  0  0  0  0  0  0  0  0
    3.2130   26.6060    0.0880 O   0  0  0  0  0  0  0  0  0  0  0  0
    1.8820   24.8400   -2.7970 C   0  0  0  0  0  0  0  0  0  0  0  0
    2.2040   24.9170   -4.2900 C   0  0  0  0  0  0  0  0  0  0  0  0
    1.6060   26.1710   -4.9760 C   0  0  2  0  0  0  0  0  0  0  0  0
    0.0440   26.1270   -4.8840 C   0  0  0  0  0  0  0  0  0  0  0  0
   -0.5710   25.2050   -5.9260 C   0  0  0  0  0  0  0  0  0  0  0  0
   -0.2280   25.7420   -7.3000 C   0  0  0  0  0  0  0  0  0  0  0  0
    1.2320   25.9300   -7.3950 N   0  0  0  0  0  0  0  0  0  0  0  0
    2.0880   26.1290   -6.4500 C   0  0  0  0  0  0  0  0  0  0  0  0
    3.5670   26.1310   -6.8510 C   0  0  0  0  0  0  0  0  0  0  0  0
    3.9480   26.8190   -8.1720 C   0  0  0  0  0  0  0  0  0  0  0  0
    3.3740   28.2010   -8.2390 C   0  0  0  0  0  0  0  0  0  0  0  0
    2.7090   28.7910   -9.2550 C   0  0  0  0  0  0  0  0  0  0  0  0
    2.5180   28.2090  -10.6300 C   0  0  0  0  0  0  0  0  0  0  0  0
    2.0040   30.1080   -8.9880 C   0  0  2  0  0  0  0  0  0  0  0  0
    0.7600   29.7750   -8.3360 O   0  0  0  0  0  0  0  0  0  0  0  0
   -0.1930   30.8110   -8.6480 C   0  0  1  0  0  0  0  0  0  0  0  0
   -0.8610   31.4180   -7.4020 C   0  0  0  0  0  0  0  0  0  0  0  0
   -0.9760   30.4710   -6.2030 C   0  0  0  0  0  0  0  0  0  0  0  0
    0.0690   30.7220   -5.0770 C   0  0  2  0  0  0  0  0  0  0  0  0
    1.2310   31.3680   -5.5900 O   0  0  0  0  0  0  0  0  0  0  0  0
    0.4670   29.4350   -4.3560 C   0  0  0  0  0  0  0  0  0  0  0  0
   -0.4890   29.0500   -3.2530 C   0  0  0  0  0  0  0  0  0  0  0  0
    1.5560   28.7260   -4.7360 C   0  0  0  0  0  0  0  0  0  0  0  0
    2.1860   27.4350   -4.2310 C   0  0  1  0  0  0  0  0  0  0  0  0
    0.5290   31.8380   -9.5180 C   0  0  0  0  0  0  0  0  0  0  0  0
    1.6120   30.9940  -10.1670 C   0  0  1  0  0  0  0  0  0  0  0  0
    2.7630   31.8000  -10.7400 C   0  0  0  0  0  0  0  0  0  0  0  0
    2.7783   28.4127   -0.9239 H   0  0  0  0  0  0  0  0  0  0  0  0
    3.8850   28.7070   -2.3078 H   0  0  0  0  0  0  0  0  0  0  0  0
    2.2372   29.4220   -2.3078 H   0  0  0  0  0  0  0  0  0  0  0  0
    2.0575   24.8829   -0.4083 H   0  0  0  0  0  0  0  0  0  0  0  0
    0.6667   27.6100   -0.2435 H   0  0  0  0  0  0  0  0  0  0  0  0
   -0.0284   26.0533    0.1287 H   0  0  0  0  0  0  0  0  0  0  0  0
    1.2514   25.8999    2.2503 H   0  0  0  0  0  0  0  0  0  0  0  0
    0.8653   27.7109    3.4576 H   0  0  0  0  0  0  0  0  0  0  0  0
    1.2233   28.8521    2.1174 H   0  0  0  0  0  0  0  0  0  0  0  0
   -0.3123   27.9201    2.1174 H   0  0  0  0  0  0  0  0  0  0  0  0
    2.5334   24.0784   -2.3435 H   0  0  0  0  0  0  0  0  0  0  0  0
    0.8132   24.5920   -2.7190 H   0  0  0  0  0  0  0  0  0  0  0  0
    3.2970   24.9388   -4.4119 H   0  0  0  0  0  0  0  0  0  0  0  0
    1.7541   24.0348   -4.7689 H   0  0  0  0  0  0  0  0  0  0  0  0
   -0.2413   25.7699   -3.8835 H   0  0  0  0  0  0  0  0  0  0  0  0
   -0.3324   27.1436   -5.0707 H   0  0  0  0  0  0  0  0  0  0  0  0
   -0.1631   24.1899   -5.8112 H   0  0  0  0  0  0  0  0  0  0  0  0
   -1.6627   25.1638   -5.7976 H   0  0  0  0  0  0  0  0  0  0  0  0
   -0.5579   25.0267   -8.0678 H   0  0  0  0  0  0  0  0  0  0  0  0
   -0.7363   26.7045   -7.4588 H   0  0  0  0  0  0  0  0  0  0  0  0
    1.5680   25.9380   -8.3620 H   0  0  0  0  0  0  0  0  0  0  0  0
    4.1249   26.6325   -6.0465 H   0  0  0  0  0  0  0  0  0  0  0  0
    3.8140   25.0707   -7.0083 H   0  0  0  0  0  0  0  0  0  0  0  0
    5.0440   26.8802   -8.2433 H   0  0  0  0  0  0  0  0  0  0  0  0
    3.5415   26.2284   -9.0062 H   0  0  0  0  0  0  0  0  0  0  0  0
    3.5131   28.8182   -7.3392 H   0  0  0  0  0  0  0  0  0  0  0  0
    2.1761   27.1671  -10.5429 H   0  0  0  0  0  0  0  0  0  0  0  0
    1.7658   28.7973  -11.1759 H   0  0  0  0  0  0  0  0  0  0  0  0
    3.4725   28.2372  -11.1759 H   0  0  0  0  0  0  0  0  0  0  0  0
    2.7449   30.6947   -8.4252 H   0  0  0  0  0  0  0  0  0  0  0  0
   -1.0431   30.3876   -9.2030 H   0  0  0  0  0  0  0  0  0  0  0  0
   -0.2713   32.2928   -7.0906 H   0  0  0  0  0  0  0  0  0  0  0  0
   -1.8910   31.6680   -7.6963 H   0  0  0  0  0  0  0  0  0  0  0  0
   -1.9808   30.5855   -5.7704 H   0  0  0  0  0  0  0  0  0  0  0  0
   -0.7844   29.4579   -6.5862 H   0  0  0  0  0  0  0  0  0  0  0  0
   -0.4164   31.3823   -4.3432 H   0  0  0  0  0  0  0  0  0  0  0  0
    1.9880   30.8330   -5.2880 H   0  0  0  0  0  0  0  0  0  0  0  0
   -0.0183   29.2396   -2.2770 H   0  0  0  0  0  0  0  0  0  0  0  0
   -1.4082   29.6481   -3.3391 H   0  0  0  0  0  0  0  0  0  0  0  0
   -0.7372   27.9818   -3.3391 H   0  0  0  0  0  0  0  0  0  0  0  0
    2.0962   29.1743   -5.5829 H   0  0  0  0  0  0  0  0  0  0  0  0
    3.2471   27.4893   -4.5159 H   0  0  0  0  0  0  0  0  0  0  0  0
   -0.1466   32.2698  -10.2711 H   0  0  0  0  0  0  0  0  0  0  0  0
    0.9154   32.7019   -8.9573 H   0  0  0  0  0  0  0  0  0  0  0  0
    1.2834   30.4436  -11.0609 H   0  0  0  0  0  0  0  0  0  0  0  0
    3.3619   32.2194   -9.9181 H   0  0  0  0  0  0  0  0  0  0  0  0
    3.3959   31.1467  -11.3586 H   0  0  0  0  0  0  0  0  0  0  0  0
    2.3655   32.6181  -11.3586 H   0  0  0  0  0  0  0  0  0  0  0  0
  1  2  1  0
  2  3  2  0
  3  4  1  0
  4  5  1  0
  5  6  1  0
  6  7  1  0
  6  8  1  0
  8  9  2  0
  8 10  1  0
  3 11  1  0
 11 12  1  0
 13 12  1  1
 13 14  1  0
 14 15  1  0
 15 16  1  0
 16 17  1  0
 17 18  2  0
 18 19  1  0
 19 20  1  0
 20 21  1  0
 21 22  2  0
 22 23  1  0
 22 24  1  0
 24 25  1  0
 25 26  1  0
 26 27  1  0
 27 28  1  0
 28 29  1  0
 29 30  1  0
 29 31  1  0
 31 32  1  0
 31 33  2  0
 33 34  1  0
 26 35  1  0
 35 36  1  0
 36 37  1  0
 34  2  1  0
 10  4  1  0
 18 13  1  0
 36 24  1  0
 34 13  1  0
  1 38  1  0
  1 39  1  0
  1 40  1  0
  4 41  1  6
  5 42  1  0
  5 43  1  0
  6 44  1  1
  7 45  1  0
  7 46  1  0
  7 47  1  0
 11 48  1  0
 11 49  1  0
 12 50  1  0
 12 51  1  0
 14 52  1  0
 14 53  1  0
 15 54  1  0
 15 55  1  0
 16 56  1  0
 16 57  1  0
 17 58  1  0
 19 59  1  0
 19 60  1  0
 20 61  1  0
 20 62  1  0
 21 63  1  0
 23 64  1  0
 23 65  1  0
 23 66  1  0
 24 67  1  1
 26 68  1  6
 27 69  1  0
 27 70  1  0
 28 71  1  0
 28 72  1  0
 29 73  1  1
 30 74  1  0
 32 75  1  0
 32 76  1  0
 32 77  1  0
 33 78  1  0
 34 79  1  6
 35 80  1  0
 35 81  1  0
 36 82  1  6
 37 83  1  0
 37 84  1  0
 37 85  1  0
M  CHG  1  17   1
M  END
>  <meeko>  (5) 
{"is_sidechain": [false], "free_energy": -7.447, "intermolecular_energy": -10.84, "internal_energy": -1.212}

$$$$
2x00_ligand
     RDKit          3D

 85 89  0  0  0  0  0  0  0  0999 V2000
    1.5670   29.2550   -6.1120 C   0  0  0  0  0  0  0  0  0  0  0  0
    2.3900   28.0810   -6.6120 C   0  0  0  0  0  0  0  0  0  0  0  0
    2.6580   27.8920   -7.9310 C   0  0  0  0  0  0  0  0  0  0  0  0
    2.4190   28.9220   -9.0410 C   0  0  2  0  0  0  0  0  0  0  0  0
    3.6690   29.3520   -9.7960 C   0  0  0  0  0  0  0  0  0  0  0  0
    3.2430   30.6780  -10.3920 C   0  0  2  0  0  0  0  0  0  0  0  0
    4.4140   31.5980  -10.6800 C   0  0  0  0  0  0  0  0  0  0  0  0
    2.3430   31.1970   -9.3060 C   0  0  0  0  0  0  0  0  0  0  0  0
    2.0120   32.3570   -9.1350 O   0  0  0  0  0  0  0  0  0  0  0  0
    1.9190   30.1600   -8.5260 O   0  0  0  0  0  0  0  0  0  0  0  0
    3.1700   26.5580   -8.4410 C   0  0  0  0  0  0  0  0  0  0  0  0
    3.1020   25.4220   -7.4200 C   0  0  0  0  0  0  0  0  0  0  0  0
    3.6210   25.8340   -6.0190 C   0  0  2  0  0  0  0  0  0  0  0  0
    5.1340   26.2260   -6.1130 C   0  0  0  0  0  0  0  0  0  0  0  0
    6.0460   25.0090   -6.1460 C   0  0  0  0  0  0  0  0  0  0  0  0
    5.8710   24.2460   -4.8500 C   0  0  0  0  0  0  0  0  0  0  0  0
    4.4380   23.9660   -4.6440 N   0  0  0  0  0  0  0  0  0  0  0  0
    3.4110   24.6020   -5.1010 C   0  0  0  0  0  0  0  0  0  0  0  0
    2.0400   23.9700   -4.8400 C   0  0  0  0  0  0  0  0  0  0  0  0
    1.8360   23.2260   -3.5100 C   0  0  0  0  0  0  0  0  0  0  0  0
    1.5770   24.1890   -2.3940 C   0  0  0  0  0  0  0  0  0  0  0  0
    1.3890   23.9310   -1.0820 C   0  0  0  0  0  0  0  0  0  0  0  0
    1.2650   22.5620   -0.4690 C   0  0  0  0  0  0  0  0  0  0  0  0
    1.3980   25.0960   -0.1090 C   0  0  2  0  0  0  0  0  0  0  0  0
    2.6020   25.8430   -0.3840 O   0  0  0  0  0  0  0  0  0  0  0  0
    3.0030   26.4980    0.8370 C   0  0  1  0  0  0  0  0  0  0  0  0
    3.2230   28.0110    0.6720 C   0  0  0  0  0  0  0  0  0  0  0  0
    2.5900   28.6250   -0.5820 C   0  0  0  0  0  0  0  0  0  0  0  0
    3.4510   28.5270   -1.8830 C   0  0  2  0  0  0  0  0  0  0  0  0
    3.9720   29.8030   -2.2470 O   0  0  0  0  0  0  0  0  0  0  0  0
    2.6570   27.9400   -3.0490 C   0  0  0  0  0  0  0  0  0  0  0  0
    1.1830   27.8030   -2.7570 C   0  0  0  0  0  0  0  0  0  0  0  0
    3.2590   27.6290   -4.2210 C   0  0  0  0  0  0  0  0  0  0  0  0
    2.7450   27.0520   -5.5340 C   0  0  1  0  0  0  0  0  0  0  0  0
    1.9650   26.1420    1.9000 C   0  0  0  0  0  0  0  0  0  0  0  0
    1.4370   24.8120    1.3900 C   0  0  1  0  0  0  0  0  0  0  0  0
    0.0950   24.4150    1.9760 C   0  0  0  0  0  0  0  0  0  0  0  0
    1.5643   29.2589   -5.0120 H   0  0  0  0  0  0  0  0  0  0  0  0
    2.0057   30.1939   -6.4809 H   0  0  0  0  0  0  0  0  0  0  0  0
    0.5348   29.1628   -6.4809 H   0  0  0  0  0  0  0  0  0  0  0  0
    1.7165   28.3896   -9.6991 H   0  0  0  0  0  0  0  0  0  0  0  0
    4.5233   29.4772   -9.1144 H   0  0  0  0  0  0  0  0  0  0  0  0
    4.0065   28.6198  -10.5443 H   0  0  0  0  0  0  0  0  0  0  0  0
    2.7598   30.5966  -11.3768 H   0  0  0  0  0  0  0  0  0  0  0  0
    4.8519   31.9421   -9.7314 H   0  0  0  0  0  0  0  0  0  0  0  0
    5.1745   31.0533  -11.2587 H   0  0  0  0  0  0  0  0  0  0  0  0
    4.0648   32.4658  -11.2587 H   0  0  0  0  0  0  0  0  0  0  0  0
    2.5683   26.2705   -9.3158 H   0  0  0  0  0  0  0  0  0  0  0  0
    4.2341   26.7013   -8.6800 H   0  0  0  0  0  0  0  0  0  0  0  0
    2.0549   25.0988   -7.3246 H   0  0  0  0  0  0  0  0  0  0  0  0
    3.7505   24.6122   -7.7857 H   0  0  0  0  0  0  0  0  0  0  0  0
    5.2913   26.8106   -7.0314 H   0  0  0  0  0  0  0  0  0  0  0  0
    5.3860   26.8104   -5.2158 H   0  0  0  0  0  0  0  0  0  0  0  0
    5.7756   24.3650   -6.9958 H   0  0  0  0  0  0  0  0  0  0  0  0
    7.0935   25.3245   -6.2606 H   0  0  0  0  0  0  0  0  0  0  0  0
    6.4275   23.2986   -4.9024 H   0  0  0  0  0  0  0  0  0  0  0  0
    6.2553   24.8462   -4.0121 H   0  0  0  0  0  0  0  0  0  0  0  0
    4.2750   23.1740   -4.0140 H   0  0  0  0  0  0  0  0  0  0  0  0
    1.2932   24.7765   -4.8828 H   0  0  0  0  0  0  0  0  0  0  0  0
    1.9420   23.1917   -5.6111 H   0  0  0  0  0  0  0  0  0  0  0  0
    0.9766   22.5460   -3.6058 H   0  0  0  0  0  0  0  0  0  0  0  0
    2.7504   22.6593   -3.2803 H   0  0  0  0  0  0  0  0  0  0  0  0
    1.5340   25.2499   -2.6813 H   0  0  0  0  0  0  0  0  0  0  0  0
    1.2729   22.6492    0.6275 H   0  0  0  0  0  0  0  0  0  0  0  0
    0.3213   22.0992   -0.7933 H   0  0  0  0  0  0  0  0  0  0  0  0
    2.1102   21.9371   -0.7933 H   0  0  0  0  0  0  0  0  0  0  0  0
    0.4302   25.5902   -0.2798 H   0  0  0  0  0  0  0  0  0  0  0  0
    3.9936   26.1370    1.1508 H   0  0  0  0  0  0  0  0  0  0  0  0
    2.7966   28.5157    1.5515 H   0  0  0  0  0  0  0  0  0  0  0  0
    4.3088   28.1543    0.5698 H   0  0  0  0  0  0  0  0  0  0  0  0
    1.6354   28.1107   -0.7670 H   0  0  0  0  0  0  0  0  0  0  0  0
    2.4794   29.6990   -0.3714 H   0  0  0  0  0  0  0  0  0  0  0  0
    4.2869   27.8469   -1.6622 H   0  0  0  0  0  0  0  0  0  0  0  0
    4.1160   30.2800   -1.4090 H   0  0  0  0  0  0  0  0  0  0  0  0
    1.0247   27.7883   -1.6686 H   0  0  0  0  0  0  0  0  0  0  0  0
    0.6418   28.6547   -3.1948 H   0  0  0  0  0  0  0  0  0  0  0  0
    0.8080   26.8661   -3.1948 H   0  0  0  0  0  0  0  0  0  0  0  0
    4.3396   27.8349   -4.2264 H   0  0  0  0  0  0  0  0  0  0  0  0
    1.7523   26.6347   -5.3096 H   0  0  0  0  0  0  0  0  0  0  0  0
    2.4287   26.0346    2.8917 H   0  0  0  0  0  0  0  0  0  0  0  0
    1.1862   26.9071    2.0343 H   0  0  0  0  0  0  0  0  0  0  0  0
    2.0485   23.9425    1.6729 H   0  0  0  0  0  0  0  0  0  0  0  0
    0.1548   24.4327    3.0742 H   0  0  0  0  0  0  0  0  0  0  0  0
   -0.6762   25.1235    1.6393 H   0  0  0  0  0  0  0  0  0  0  0  0
   -0.1666   23.4010    1.6393 H   0  0  0  0  0  0  0  0  0  0  0  0
  1  2  1  0
  2  3  2  0
  3  4  1  0
  4  5  1  0
  5  6  1  0
  6  7  1  0
  6  8  1  0
  8  9  2  0
  8 10  1  0
  3 11  1  0
 11 12  1  0
 13 12  1  6
 13 14  1  0
 14 15  1  0
 15 16  1  0
 16 17  1  0
 17 18  2  0
 18 19  1  0
 19 20  1  0
 20 21  1  0
 21 22  2  0
 22 23  1  0
 22 24  1  0
 24 25  1  0
 25 26  1  0
 26 27  1  0
 27 28  1  0
 28 29  1  0
 29 30  1  0
 29 31  1  0
 31 32  1  0
 31 33  2  0
 33 34  1  0
 26 35  1  0
 35 36  1  0
 36 37  1  0
 34  2  1  0
 10  4  1  0
 18 13  1  0
 36 24  1  0
 34 13  1  0
  1 38  1  0
  1 39  1  0
  1 40  1  0
  4 41  1  6
  5 42  1  0
  5 43  1  0
  6 44  1  6
  7 45  1  0
  7 46  1  0
  7 47  1  0
 11 48  1  0
 11 49  1  0
 12 50  1  0
 12 51  1  0
 14 52  1  0
 14 53  1  0
 15 54  1  0
 15 55  1  0
 16 56  1  0
 16 57  1  0
 17 58  1  0
 19 59  1  0
 19 60  1  0
 20 61  1  0
 20 62  1  0
 21 63  1  0
 23 64  1  0
 23 65  1  0
 23 66  1  0
 24 67  1  1
 26 68  1  1
 27 69  1  0
 27 70  1  0
 28 71  1  0
 28 72  1  0
 29 73  1  1
 30 74  1  0
 32 75  1  0
 32 76  1  0
 32 77  1  0
 33 78  1  0
 34 79  1  1
 35 80  1  0
 35 81  1  0
 36 82  1  6
 37 83  1  0
 37 84  1  0
 37 85  1  0
M  CHG  1  17   1
M  END
>  <meeko>  (6) 
{"is_sidechain": [false], "free_energy": -6.886, "intermolecular_energy": -11.069, "internal_energy": -0.111}

$$$$
2x00_ligand
     RDKit          3D

 85 89  0  0  0  0  0  0  0  0999 V2000
    0.3200   27.5720   -6.3670 C   0  0  0  0  0  0  0  0  0  0  0  0
    1.7850   27.1830   -6.2640 C   0  0  0  0  0  0  0  0  0  0  0  0
    2.6360   27.2750   -7.3200 C   0  0  0  0  0  0  0  0  0  0  0  0
    2.3390   28.0020   -8.6370 C   0  0  2  0  0  0  0  0  0  0  0  0
    3.3380   27.7370   -9.7540 C   0  0  0  0  0  0  0  0  0  0  0  0
    3.1230   28.9280  -10.6650 C   0  0  2  0  0  0  0  0  0  0  0  0
    4.3400   29.2490  -11.5120 C   0  0  0  0  0  0  0  0  0  0  0  0
    2.8100   29.9980   -9.6580 C   0  0  0  0  0  0  0  0  0  0  0  0
    2.8870   31.2020   -9.8350 O   0  0  0  0  0  0  0  0  0  0  0  0
    2.3980   29.4250   -8.4900 O   0  0  0  0  0  0  0  0  0  0  0  0
    3.9790   26.5690   -7.3050 C   0  0  0  0  0  0  0  0  0  0  0  0
    4.1580   25.5750   -6.1570 C   0  0  0  0  0  0  0  0  0  0  0  0
    3.6950   26.1380   -4.7890 C   0  0  2  0  0  0  0  0  0  0  0  0
    4.5660   27.3820   -4.4090 C   0  0  0  0  0  0  0  0  0  0  0  0
    5.9210   26.9880   -3.8420 C   0  0  0  0  0  0  0  0  0  0  0  0
    5.6950   26.2060   -2.5660 C   0  0  0  0  0  0  0  0  0  0  0  0
    4.7670   25.0920   -2.8390 N   0  0  0  0  0  0  0  0  0  0  0  0
    3.8740   24.9880   -3.7650 C   0  0  0  0  0  0  0  0  0  0  0  0
    3.1690   23.6330   -3.8900 C   0  0  0  0  0  0  0  0  0  0  0  0
    2.6230   22.9900   -2.6040 C   0  0  0  0  0  0  0  0  0  0  0  0
    1.8980   24.0000   -1.7700 C   0  0  0  0  0  0  0  0  0  0  0  0
    1.2840   23.8270   -0.5790 C   0  0  0  0  0  0  0  0  0  0  0  0
    1.0790   22.5080    0.1160 C   0  0  0  0  0  0  0  0  0  0  0  0
    0.8400   25.0580    0.1890 C   0  0  2  0  0  0  0  0  0  0  0  0
    1.7530   26.1150   -0.1780 O   0  0  0  0  0  0  0  0  0  0  0  0
    1.8260   27.0380    0.9270 C   0  0  1  0  0  0  0  0  0  0  0  0
    1.5540   28.4960    0.5200 C   0  0  0  0  0  0  0  0  0  0  0  0
    2.0580   28.8840   -0.8750 C   0  0  0  0  0  0  0  0  0  0  0  0
    0.9590   28.9260   -1.9700 C   0  0  2  0  0  0  0  0  0  0  0  0
   -0.1580   28.1010   -1.6530 O   0  0  0  0  0  0  0  0  0  0  0  0
    1.5310   28.5260   -3.3290 C   0  0  0  0  0  0  0  0  0  0  0  0
    1.9700   29.7050   -4.1620 C   0  0  0  0  0  0  0  0  0  0  0  0
    1.6480   27.2250   -3.6840 C   0  0  0  0  0  0  0  0  0  0  0  0
    2.1740   26.5300   -4.9340 C   0  0  1  0  0  0  0  0  0  0  0  0
    0.8830   26.5180    2.0100 C   0  0  0  0  0  0  0  0  0  0  0  0
    0.8560   25.0280    1.7140 C   0  0  1  0  0  0  0  0  0  0  0  0
   -0.3250   24.2980    2.3280 C   0  0  0  0  0  0  0  0  0  0  0  0
   -0.1015   27.6839   -5.3572 H   0  0  0  0  0  0  0  0  0  0  0  0
    0.2309   28.5249   -6.9092 H   0  0  0  0  0  0  0  0  0  0  0  0
   -0.2301   26.7888   -6.9092 H   0  0  0  0  0  0  0  0  0  0  0  0
    1.3413   27.6151   -8.8917 H   0  0  0  0  0  0  0  0  0  0  0  0
    4.3682   27.7099   -9.3695 H   0  0  0  0  0  0  0  0  0  0  0  0
    3.1948   26.7675  -10.2536 H   0  0  0  0  0  0  0  0  0  0  0  0
    2.3403   28.7816  -11.4239 H   0  0  0  0  0  0  0  0  0  0  0  0
    5.1940   29.4743  -10.8563 H   0  0  0  0  0  0  0  0  0  0  0  0
    4.5833   28.3843  -12.1469 H   0  0  0  0  0  0  0  0  0  0  0  0
    4.1251   30.1212  -12.1469 H   0  0  0  0  0  0  0  0  0  0  0  0
    4.0911   26.0230   -8.2533 H   0  0  0  0  0  0  0  0  0  0  0  0
    4.7419   27.3492   -7.1662 H   0  0  0  0  0  0  0  0  0  0  0  0
    3.5712   24.6719   -6.3809 H   0  0  0  0  0  0  0  0  0  0  0  0
    5.2331   25.3572   -6.0757 H   0  0  0  0  0  0  0  0  0  0  0  0
    4.7239   27.9917   -5.3108 H   0  0  0  0  0  0  0  0  0  0  0  0
    4.0274   27.9445   -3.6321 H   0  0  0  0  0  0  0  0  0  0  0  0
    6.4611   26.3642   -4.5694 H   0  0  0  0  0  0  0  0  0  0  0  0
    6.5198   27.8869   -3.6337 H   0  0  0  0  0  0  0  0  0  0  0  0
    6.6539   25.8062   -2.2046 H   0  0  0  0  0  0  0  0  0  0  0  0
    5.2649   26.8663   -1.7986 H   0  0  0  0  0  0  0  0  0  0  0  0
    4.8470   24.3340   -2.1550 H   0  0  0  0  0  0  0  0  0  0  0  0
    2.3200   23.7665   -4.5766 H   0  0  0  0  0  0  0  0  0  0  0  0
    3.9527   22.9426   -4.2350 H   0  0  0  0  0  0  0  0  0  0  0  0
    1.9294   22.1796   -2.8726 H   0  0  0  0  0  0  0  0  0  0  0  0
    3.4682   22.5940   -2.0219 H   0  0  0  0  0  0  0  0  0  0  0  0
    1.8601   25.0192   -2.1820 H   0  0  0  0  0  0  0  0  0  0  0  0
    1.1026   22.6599    1.2052 H   0  0  0  0  0  0  0  0  0  0  0  0
    0.1048   22.0879   -0.1746 H   0  0  0  0  0  0  0  0  0  0  0  0
    1.8798   21.8121   -0.1746 H   0  0  0  0  0  0  0  0  0  0  0  0
   -0.2201   25.1702   -0.0824 H   0  0  0  0  0  0  0  0  0  0  0  0
    2.8532   27.0778    1.3185 H   0  0  0  0  0  0  0  0  0  0  0  0
    0.4668   28.6610    0.5482 H   0  0  0  0  0  0  0  0  0  0  0  0
    2.1095   29.1230    1.2330 H   0  0  0  0  0  0  0  0  0  0  0  0
    2.5153   29.8823   -0.8093 H   0  0  0  0  0  0  0  0  0  0  0  0
    2.7703   28.1024   -1.1778 H   0  0  0  0  0  0  0  0  0  0  0  0
    0.6018   29.9654   -2.0162 H   0  0  0  0  0  0  0  0  0  0  0  0
   -0.9480   28.6210   -1.8860 H   0  0  0  0  0  0  0  0  0  0  0  0
    2.2765   30.5281   -3.4997 H   0  0  0  0  0  0  0  0  0  0  0  0
    2.8185   29.4098   -4.7968 H   0  0  0  0  0  0  0  0  0  0  0  0
    1.1351   30.0366   -4.7968 H   0  0  0  0  0  0  0  0  0  0  0  0
    1.2904   26.5270   -2.9127 H   0  0  0  0  0  0  0  0  0  0  0  0
    1.6259   25.5786   -5.0000 H   0  0  0  0  0  0  0  0  0  0  0  0
    1.2799   26.7188    3.0161 H   0  0  0  0  0  0  0  0  0  0  0  0
   -0.1100   26.9911    1.9990 H   0  0  0  0  0  0  0  0  0  0  0  0
    1.6937   24.4633    2.1493 H   0  0  0  0  0  0  0  0  0  0  0  0
   -0.2534   24.3422    3.4248 H   0  0  0  0  0  0  0  0  0  0  0  0
   -1.2609   24.7754    2.0021 H   0  0  0  0  0  0  0  0  0  0  0  0
   -0.3164   23.2474    2.0021 H   0  0  0  0  0  0  0  0  0  0  0  0
  1  2  1  0
  2  3  2  0
  3  4  1  0
  4  5  1  0
  5  6  1  0
  6  7  1  0
  6  8  1  0
  8  9  2  0
  8 10  1  0
  3 11  1  0
 11 12  1  0
 13 12  1  6
 13 14  1  0
 14 15  1  0
 15 16  1  0
 16 17  1  0
 17 18  2  0
 18 19  1  0
 19 20  1  0
 20 21  1  0
 21 22  2  0
 22 23  1  0
 22 24  1  0
 24 25  1  0
 25 26  1  0
 26 27  1  0
 27 28  1  0
 28 29  1  0
 29 30  1  0
 29 31  1  0
 31 32  1  0
 31 33  2  0
 33 34  1  0
 26 35  1  0
 35 36  1  0
 36 37  1  0
 34  2  1  0
 10  4  1  0
 18 13  1  0
 36 24  1  0
 34 13  1  0
  1 38  1  0
  1 39  1  0
  1 40  1  0
  4 41  1  6
  5 42  1  0
  5 43  1  0
  6 44  1  6
  7 45  1  0
  7 46  1  0
  7 47  1  0
 11 48  1  0
 11 49  1  0
 12 50  1  0
 12 51  1  0
 14 52  1  0
 14 53  1  0
 15 54  1  0
 15 55  1  0
 16 56  1  0
 16 57  1  0
 17 58  1  0
 19 59  1  0
 19 60  1  0
 20 61  1  0
 20 62  1  0
 21 63  1  0
 23 64  1  0
 23 65  1  0
 23 66  1  0
 24 67  1  1
 26 68  1  1
 27 69  1  0
 27 70  1  0
 28 71  1  0
 28 72  1  0
 29 73  1  6
 30 74  1  0
 32 75  1  0
 32 76  1  0
 32 77  1  0
 33 78  1  0
 34 79  1  6
 35 80  1  0
 35 81  1  0
 36 82  1  6
 37 83  1  0
 37 84  1  0
 37 85  1  0
M  CHG  1  17   1
M  END
>  <meeko>  (7) 
{"is_sidechain": [false], "free_energy": -6.829, "intermolecular_energy": -9.855, "internal_energy": -1.237}

$$$$
2x00_ligand
     RDKit          3D

 85 89  0  0  0  0  0  0  0  0999 V2000
    1.9000   26.3640   -1.2190 C   0  0  0  0  0  0  0  0  0  0  0  0
    1.2100   27.4270   -2.0560 C   0  0  0  0  0  0  0  0  0  0  0  0
    0.2570   28.2500   -1.5430 C   0  0  0  0  0  0  0  0  0  0  0  0
   -0.0630   28.4150   -0.0530 C   0  0  2  0  0  0  0  0  0  0  0  0
   -0.9210   29.6250    0.2880 C   0  0  0  0  0  0  0  0  0  0  0  0
   -0.6200   29.8250    1.7600 C   0  0  2  0  0  0  0  0  0  0  0  0
   -0.8430   31.2540    2.2170 C   0  0  0  0  0  0  0  0  0  0  0  0
    0.8240   29.4110    1.8100 C   0  0  0  0  0  0  0  0  0  0  0  0
    1.6280   29.6990    2.6790 O   0  0  0  0  0  0  0  0  0  0  0  0
    1.1160   28.6310    0.7290 O   0  0  0  0  0  0  0  0  0  0  0  0
   -0.6550   29.0520   -2.4520 C   0  0  0  0  0  0  0  0  0  0  0  0
   -0.5810   28.6590   -3.9280 C   0  0  0  0  0  0  0  0  0  0  0  0
    0.8720   28.4880   -4.4380 C   0  0  2  0  0  0  0  0  0  0  0  0
    1.6330   29.8520   -4.3270 C   0  0  0  0  0  0  0  0  0  0  0  0
    1.2930   30.7990   -5.4680 C   0  0  0  0  0  0  0  0  0  0  0  0
    1.7320   30.1570   -6.7680 C   0  0  0  0  0  0  0  0  0  0  0  0
    1.1470   28.8070   -6.8620 N   0  0  0  0  0  0  0  0  0  0  0  0
    0.7610   28.0210   -5.9130 C   0  0  0  0  0  0  0  0  0  0  0  0
    0.0430   26.7340   -6.3360 C   0  0  0  0  0  0  0  0  0  0  0  0
    0.2640   26.2320   -7.7720 C   0  0  0  0  0  0  0  0  0  0  0  0
    1.5840   25.5350   -7.8960 C   0  0  0  0  0  0  0  0  0  0  0  0
    2.6830   25.9240   -8.5780 C   0  0  0  0  0  0  0  0  0  0  0  0
    2.7680   27.1130   -9.4970 C   0  0  0  0  0  0  0  0  0  0  0  0
    3.9810   25.1730   -8.3420 C   0  0  2  0  0  0  0  0  0  0  0  0
    4.6960   25.9120   -7.3280 O   0  0  0  0  0  0  0  0  0  0  0  0
    6.1060   25.6830   -7.5290 C   0  0  1  0  0  0  0  0  0  0  0  0
    6.8290   25.1960   -6.2620 C   0  0  0  0  0  0  0  0  0  0  0  0
    5.9320   25.0170   -5.0320 C   0  0  0  0  0  0  0  0  0  0  0  0
    5.2980   26.3210   -4.4780 C   0  0  2  0  0  0  0  0  0  0  0  0
    5.9600   26.7380   -3.2880 O   0  0  0  0  0  0  0  0  0  0  0  0
    3.8020   26.1630   -4.2120 C   0  0  0  0  0  0  0  0  0  0  0  0
    3.3240   24.7370   -4.3230 C   0  0  0  0  0  0  0  0  0  0  0  0
    3.0350   27.2260   -3.8740 C   0  0  0  0  0  0  0  0  0  0  0  0
    1.5550   27.3800   -3.5480 C   0  0  1  0  0  0  0  0  0  0  0  0
    6.2430   24.7330   -8.7170 C   0  0  0  0  0  0  0  0  0  0  0  0
    4.9690   25.0170   -9.4940 C   0  0  1  0  0  0  0  0  0  0  0  0
    4.5940   23.9280  -10.4830 C   0  0  0  0  0  0  0  0  0  0  0  0
    1.7554   26.5868   -0.1515 H   0  0  0  0  0  0  0  0  0  0  0  0
    1.4688   25.3787   -1.4496 H   0  0  0  0  0  0  0  0  0  0  0  0
    2.9755   26.3567   -1.4496 H   0  0  0  0  0  0  0  0  0  0  0  0
   -0.5885   27.4754    0.1729 H   0  0  0  0  0  0  0  0  0  0  0  0
   -0.6241   30.5040   -0.3030 H   0  0  0  0  0  0  0  0  0  0  0  0
   -1.9901   29.4841    0.0707 H   0  0  0  0  0  0  0  0  0  0  0  0
   -1.2743   29.2563    2.4371 H   0  0  0  0  0  0  0  0  0  0  0  0
   -0.8487   31.2907    3.3164 H   0  0  0  0  0  0  0  0  0  0  0  0
   -0.0336   31.8923    1.8330 H   0  0  0  0  0  0  0  0  0  0  0  0
   -1.8084   31.6153    1.8330 H   0  0  0  0  0  0  0  0  0  0  0  0
   -1.6911   28.9117   -2.1102 H   0  0  0  0  0  0  0  0  0  0  0  0
   -0.3202   30.0979   -2.3887 H   0  0  0  0  0  0  0  0  0  0  0  0
   -1.1144   27.7067   -4.0641 H   0  0  0  0  0  0  0  0  0  0  0  0
   -1.0391   29.4735   -4.5082 H   0  0  0  0  0  0  0  0  0  0  0  0
    1.3604   30.3324   -3.3757 H   0  0  0  0  0  0  0  0  0  0  0  0
    2.7113   29.6400   -4.3764 H   0  0  0  0  0  0  0  0  0  0  0  0
    0.2081   30.9795   -5.4904 H   0  0  0  0  0  0  0  0  0  0  0  0
    1.8085   31.7606   -5.3279 H   0  0  0  0  0  0  0  0  0  0  0  0
    1.3867   30.7677   -7.6152 H   0  0  0  0  0  0  0  0  0  0  0  0
    2.8295   30.0876   -6.7945 H   0  0  0  0  0  0  0  0  0  0  0  0
    1.0930   28.4650   -7.8260 H   0  0  0  0  0  0  0  0  0  0  0  0
    0.3713   25.9354   -5.6545 H   0  0  0  0  0  0  0  0  0  0  0  0
   -1.0271   26.9846   -6.2904 H   0  0  0  0  0  0  0  0  0  0  0  0
   -0.5405   25.5299   -8.0361 H   0  0  0  0  0  0  0  0  0  0  0  0
    0.2572   27.0965   -8.4521 H   0  0  0  0  0  0  0  0  0  0  0  0
    1.6698   24.5783   -7.3599 H   0  0  0  0  0  0  0  0  0  0  0  0
    2.8339   28.0342   -8.8995 H   0  0  0  0  0  0  0  0  0  0  0  0
    3.6620   27.0228  -10.1315 H   0  0  0  0  0  0  0  0  0  0  0  0
    1.8703   27.1509  -10.1315 H   0  0  0  0  0  0  0  0  0  0  0  0
    3.6553   24.1492   -8.1060 H   0  0  0  0  0  0  0  0  0  0  0  0
    6.6142   26.6321   -7.7545 H   0  0  0  0  0  0  0  0  0  0  0  0
    7.2964   24.2261   -6.4874 H   0  0  0  0  0  0  0  0  0  0  0  0
    7.5545   25.9807   -6.0015 H   0  0  0  0  0  0  0  0  0  0  0  0
    5.1160   24.3311   -5.3034 H   0  0  0  0  0  0  0  0  0  0  0  0
    6.5837   24.6326   -4.2336 H   0  0  0  0  0  0  0  0  0  0  0  0
    5.4237   27.0925   -5.2519 H   0  0  0  0  0  0  0  0  0  0  0  0
    5.4960   26.2930   -2.5550 H   0  0  0  0  0  0  0  0  0  0  0  0
    3.1835   24.3179   -3.3157 H   0  0  0  0  0  0  0  0  0  0  0  0
    2.3683   24.7119   -4.8671 H   0  0  0  0  0  0  0  0  0  0  0  0
    4.0715   24.1410   -4.8671 H   0  0  0  0  0  0  0  0  0  0  0  0
    3.5948   28.1716   -3.8247 H   0  0  0  0  0  0  0  0  0  0  0  0
    1.0844   26.4301   -3.8415 H   0  0  0  0  0  0  0  0  0  0  0  0
    7.1365   24.9661   -9.3147 H   0  0  0  0  0  0  0  0  0  0  0  0
    6.3630   23.6777   -8.4306 H   0  0  0  0  0  0  0  0  0  0  0  0
    5.0298   25.8885  -10.1624 H   0  0  0  0  0  0  0  0  0  0  0  0
    4.2835   23.0262   -9.9351 H   0  0  0  0  0  0  0  0  0  0  0  0
    3.7642   24.2768  -11.1153 H   0  0  0  0  0  0  0  0  0  0  0  0
    5.4626   23.6920  -11.1153 H   0  0  0  0  0  0  0  0  0  0  0  0
  1  2  1  0
  2  3  2  0
  3  4  1  0
  4  5  1  0
  5  6  1  0
  6  7  1  0
  6  8  1  0
  8  9  2  0
  8 10  1  0
  3 11  1  0
 11 12  1  0
 13 12  1  1
 13 14  1  0
 14 15  1  0
 15 16  1  0
 16 17  1  0
 17 18  2  0
 18 19  1  0
 19 20  1  0
 20 21  1  0
 21 22  2  0
 22 23  1  0
 22 24  1  0
 24 25  1  0
 25 26  1  0
 26 27  1  0
 27 28  1  0
 28 29  1  0
 29 30  1  0
 29 31  1  0
 31 32  1  0
 31 33  2  0
 33 34  1  0
 26 35  1  0
 35 36  1  0
 36 37  1  0
 34  2  1  0
 10  4  1  0
 18 13  1  0
 36 24  1  0
 34 13  1  0
  1 38  1  0
  1 39  1  0
  1 40  1  0
  4 41  1  1
  5 42  1  0
  5 43  1  0
  6 44  1  1
  7 45  1  0
  7 46  1  0
  7 47  1  0
 11 48  1  0
 11 49  1  0
 12 50  1  0
 12 51  1  0
 14 52  1  0
 14 53  1  0
 15 54  1  0
 15 55  1  0
 16 56  1  0
 16 57  1  0
 17 58  1  0
 19 59  1  0
 19 60  1  0
 20 61  1  0
 20 62  1  0
 21 63  1  0
 23 64  1  0
 23 65  1  0
 23 66  1  0
 24 67  1  1
 26 68  1  6
 27 69  1  0
 27 70  1  0
 28 71  1  0
 28 72  1  0
 29 73  1  6
 30 74  1  0
 32 75  1  0
 32 76  1  0
 32 77  1  0
 33 78  1  0
 34 79  1  6
 35 80  1  0
 35 81  1  0
 36 82  1  6
 37 83  1  0
 37 84  1  0
 37 85  1  0
M  CHG  1  17   1
M  END
>  <meeko>  (8) 
{"is_sidechain": [false], "free_energy": -6.055, "intermolecular_energy": -9.343, "internal_energy": -0.545}

$$$$
2x00_ligand
     RDKit          3D

 85 89  0  0  0  0  0  0  0  0999 V2000
    2.9610   28.8800   -1.4100 C   0  0  0  0  0  0  0  0  0  0  0  0
    2.8420   27.3680   -1.5020 C   0  0  0  0  0  0  0  0  0  0  0  0
    2.5400   26.5970   -0.4250 C   0  0  0  0  0  0  0  0  0  0  0  0
    2.0310   27.1190    0.9240 C   0  0  2  0  0  0  0  0  0  0  0  0
    0.6040   27.6500    0.9090 C   0  0  0  0  0  0  0  0  0  0  0  0
    0.5810   28.5400    2.1350 C   0  0  2  0  0  0  0  0  0  0  0  0
   -0.4670   29.6330    2.0490 C   0  0  0  0  0  0  0  0  0  0  0  0
    1.9860   29.0720    2.1210 C   0  0  0  0  0  0  0  0  0  0  0  0
    2.3850   30.0750    2.6880 O   0  0  0  0  0  0  0  0  0  0  0  0
    2.7840   28.2460    1.3830 O   0  0  0  0  0  0  0  0  0  0  0  0
    2.7640   25.0970   -0.4500 C   0  0  0  0  0  0  0  0  0  0  0  0
    3.5720   24.5980   -1.6480 C   0  0  0  0  0  0  0  0  0  0  0  0
    3.1110   25.2180   -2.9910 C   0  0  2  0  0  0  0  0  0  0  0  0
    1.6290   24.8030   -3.2810 C   0  0  0  0  0  0  0  0  0  0  0  0
    1.5230   23.3920   -3.8400 C   0  0  0  0  0  0  0  0  0  0  0  0
    2.2570   23.3460   -5.1630 C   0  0  0  0  0  0  0  0  0  0  0  0
    3.6280   23.8560   -4.9730 N   0  0  0  0  0  0  0  0  0  0  0  0
    4.0750   24.6680   -4.0750 C   0  0  0  0  0  0  0  0  0  0  0  0
    5.5910   24.8890   -4.0420 C   0  0  0  0  0  0  0  0  0  0  0  0
    6.3350   24.9410   -5.3860 C   0  0  0  0  0  0  0  0  0  0  0  0
    5.6650   25.8910   -6.3300 C   0  0  0  0  0  0  0  0  0  0  0  0
    5.4260   25.7430   -7.6500 C   0  0  0  0  0  0  0  0  0  0  0  0
    5.9190   24.6070   -8.5060 C   0  0  0  0  0  0  0  0  0  0  0  0
    4.5050   26.7370   -8.3330 C   0  0  2  0  0  0  0  0  0  0  0  0
    3.1970   26.5400   -7.7550 O   0  0  0  0  0  0  0  0  0  0  0  0
    2.2170   26.9180   -8.7430 C   0  0  1  0  0  0  0  0  0  0  0  0
    1.1910   27.9390   -8.2210 C   0  0  0  0  0  0  0  0  0  0  0  0
    0.6740   27.6720   -6.8030 C   0  0  0  0  0  0  0  0  0  0  0  0
    1.1950   28.6600   -5.7320 C   0  0  2  0  0  0  0  0  0  0  0  0
    2.3750   29.3250   -6.1740 O   0  0  0  0  0  0  0  0  0  0  0  0
    1.4600   27.9680   -4.3950 C   0  0  0  0  0  0  0  0  0  0  0  0
    0.2240   27.8330   -3.5400 C   0  0  0  0  0  0  0  0  0  0  0  0
    2.6910   27.5050   -4.0780 C   0  0  0  0  0  0  0  0  0  0  0  0
    3.2490   26.7830   -2.8580 C   0  0  1  0  0  0  0  0  0  0  0  0
    2.9820   27.3930   -9.9760 C   0  0  0  0  0  0  0  0  0  0  0  0
    4.2940   26.6400   -9.8410 C   0  0  1  0  0  0  0  0  0  0  0  0
    5.4290   27.2250  -10.6610 C   0  0  0  0  0  0  0  0  0  0  0  0
    2.9848   29.1823   -0.3526 H   0  0  0  0  0  0  0  0  0  0  0  0
    3.8876   29.2057   -1.9054 H   0  0  0  0  0  0  0  0  0  0  0  0
    2.0968   29.3466   -1.9054 H   0  0  0  0  0  0  0  0  0  0  0  0
    2.1196   26.2270    1.5616 H   0  0  0  0  0  0  0  0  0  0  0  0
    0.4024   28.2262   -0.0060 H   0  0  0  0  0  0  0  0  0  0  0  0
   -0.1613   26.8600    0.9223 H   0  0  0  0  0  0  0  0  0  0  0  0
    0.3053   28.0219    3.0654 H   0  0  0  0  0  0  0  0  0  0  0  0
   -0.7611   29.9397    3.0636 H   0  0  0  0  0  0  0  0  0  0  0  0
   -0.0517   30.4976    1.5105 H   0  0  0  0  0  0  0  0  0  0  0  0
   -1.3483   29.2544    1.5105 H   0  0  0  0  0  0  0  0  0  0  0  0
    3.2998   24.8140    0.4680 H   0  0  0  0  0  0  0  0  0  0  0  0
    1.7697   24.6328   -0.5272 H   0  0  0  0  0  0  0  0  0  0  0  0
    4.6297   24.8545   -1.4885 H   0  0  0  0  0  0  0  0  0  0  0  0
    3.4185   23.5110   -1.7180 H   0  0  0  0  0  0  0  0  0  0  0  0
    1.0569   24.8557   -2.3429 H   0  0  0  0  0  0  0  0  0  0  0  0
    1.2275   25.4950   -4.0360 H   0  0  0  0  0  0  0  0  0  0  0  0
    1.9786   22.6788   -3.1373 H   0  0  0  0  0  0  0  0  0  0  0  0
    0.4667   23.1209   -3.9841 H   0  0  0  0  0  0  0  0  0  0  0  0
    2.2971   22.3084   -5.5260 H   0  0  0  0  0  0  0  0  0  0  0  0
    1.7294   23.9681   -5.9010 H   0  0  0  0  0  0  0  0  0  0  0  0
    4.2750   23.5310   -5.6970 H   0  0  0  0  0  0  0  0  0  0  0  0
    5.7725   25.8449   -3.5288 H   0  0  0  0  0  0  0  0  0  0  0  0
    5.9910   23.9973   -3.5372 H   0  0  0  0  0  0  0  0  0  0  0  0
    7.3689   25.2742   -5.2129 H   0  0  0  0  0  0  0  0  0  0  0  0
    6.3256   23.9358   -5.8326 H   0  0  0  0  0  0  0  0  0  0  0  0
    5.3211   26.8376   -5.8877 H   0  0  0  0  0  0  0  0  0  0  0  0
    6.2738   23.7894   -7.8614 H   0  0  0  0  0  0  0  0  0  0  0  0
    5.0978   24.2432   -9.1411 H   0  0  0  0  0  0  0  0  0  0  0  0
    6.7456   24.9583   -9.1411 H   0  0  0  0  0  0  0  0  0  0  0  0
    5.0009   27.7063   -8.1767 H   0  0  0  0  0  0  0  0  0  0  0  0
    1.5923   26.0518   -9.0066 H   0  0  0  0  0  0  0  0  0  0  0  0
    1.6633   28.9324   -8.2304 H   0  0  0  0  0  0  0  0  0  0  0  0
    0.3176   27.8638   -8.8855 H   0  0  0  0  0  0  0  0  0  0  0  0
   -0.4242   27.7327   -6.8209 H   0  0  0  0  0  0  0  0  0  0  0  0
    1.0459   26.6770   -6.5172 H   0  0  0  0  0  0  0  0  0  0  0  0
    0.4009   29.4058   -5.5795 H   0  0  0  0  0  0  0  0  0  0  0  0
    3.1030   28.9590   -5.6390 H   0  0  0  0  0  0  0  0  0  0  0  0
    0.5078   27.8640   -2.4777 H   0  0  0  0  0  0  0  0  0  0  0  0
   -0.4659   28.6611   -3.7595 H   0  0  0  0  0  0  0  0  0  0  0  0
   -0.2709   26.8755   -3.7595 H   0  0  0  0  0  0  0  0  0  0  0  0
    3.4422   27.6869   -4.8607 H   0  0  0  0  0  0  0  0  0  0  0  0
    4.3296   26.9885   -2.8581 H   0  0  0  0  0  0  0  0  0  0  0  0
    2.4569   27.1186  -10.9028 H   0  0  0  0  0  0  0  0  0  0  0  0
    3.1004   28.4852  -10.0318 H   0  0  0  0  0  0  0  0  0  0  0  0
    4.2697   25.6120  -10.2317 H   0  0  0  0  0  0  0  0  0  0  0  0
    6.2014   27.6231   -9.9865 H   0  0  0  0  0  0  0  0  0  0  0  0
    5.8657   26.4396  -11.2955 H   0  0  0  0  0  0  0  0  0  0  0  0
    5.0427   28.0363  -11.2955 H   0  0  0  0  0  0  0  0  0  0  0  0
  1  2  1  0
  2  3  2  0
  3  4  1  0
  4  5  1  0
  5  6  1  0
  6  7  1  0
  6  8  1  0
  8  9  2  0
  8 10  1  0
  3 11  1  0
 11 12  1  0
 13 12  1  1
 13 14  1  0
 14 15  1  0
 15 16  1  0
 16 17  1  0
 17 18  2  0
 18 19  1  0
 19 20  1  0
 20 21  1  0
 21 22  2  0
 22 23  1  0
 22 24  1  0
 24 25  1  0
 25 26  1  0
 26 27  1  0
 27 28  1  0
 28 29  1  0
 29 30  1  0
 29 31  1  0
 31 32  1  0
 31 33  2  0
 33 34  1  0
 26 35  1  0
 35 36  1  0
 36 37  1  0
 34  2  1  0
 10  4  1  0
 18 13  1  0
 36 24  1  0
 34 13  1  0
  1 38  1  0
  1 39  1  0
  1 40  1  0
  4 41  1  1
  5 42  1  0
  5 43  1  0
  6 44  1  1
  7 45  1  0
  7 46  1  0
  7 47  1  0
 11 48  1  0
 11 49  1  0
 12 50  1  0
 12 51  1  0
 14 52  1  0
 14 53  1  0
 15 54  1  0
 15 55  1  0
 16 56  1  0
 16 57  1  0
 17 58  1  0
 19 59  1  0
 19 60  1  0
 20 61  1  0
 20 62  1  0
 21 63  1  0
 23 64  1  0
 23 65  1  0
 23 66  1  0
 24 67  1  6
 26 68  1  6
 27 69  1  0
 27 70  1  0
 28 71  1  0
 28 72  1  0
 29 73  1  1
 30 74  1  0
 32 75  1  0
 32 76  1  0
 32 77  1  0
 33 78  1  0
 34 79  1  6
 35 80  1  0
 35 81  1  0
 36 82  1  6
 37 83  1  0
 37 84  1  0
 37 85  1  0
M  CHG  1  17   1
M  END
>  <meeko>  (9) 
{"is_sidechain": [false], "free_energy": -5.943, "intermolecular_energy": -8.752, "internal_energy": -0.961}

$$$$
