2weg_ligand
     RDKit          3D

 17 17  0  0  0  0  0  0  0  0999 V2000
   13.7280    2.7050   16.9290 N   0  0  0  0  0  0  0  0  0  0  0  0
   15.4130    2.7160   16.9280 S   0  0  0  0  0  0  0  0  0  0  0  0
   15.8250    2.8760   18.3020 O   0  0  0  0  0  0  0  0  0  0  0  0
   15.8330    1.5890   16.1270 O   0  0  0  0  0  0  0  0  0  0  0  0
   15.8200    4.1880   16.0560 C   0  0  0  0  0  0  0  0  0  0  0  0
   14.8250    5.1110   15.7220 C   0  0  0  0  0  0  0  0  0  0  0  0
   15.1680    6.2660   15.0170 C   0  0  0  0  0  0  0  0  0  0  0  0
   16.4960    6.4960   14.6510 C   0  0  0  0  0  0  0  0  0  0  0  0
   17.4840    5.5710   14.9910 C   0  0  0  0  0  0  0  0  0  0  0  0
   17.1410    4.4180   15.6920 C   0  0  0  0  0  0  0  0  0  0  0  0
   18.1110    3.5610   16.0360 F   0  0  0  0  0  0  0  0  0  0  0  0
   13.3200    2.5920   16.0020 H   0  0  0  0  0  0  0  0  0  0  0  0
   13.4020    3.5660   17.3750 H   0  0  0  0  0  0  0  0  0  0  0  0
   13.7798    4.9287   16.0124 H   0  0  0  0  0  0  0  0  0  0  0  0
   14.3905    6.9966   14.7491 H   0  0  0  0  0  0  0  0  0  0  0  0
   16.7632    7.4065   14.0946 H   0  0  0  0  0  0  0  0  0  0  0  0
   18.5308    5.7523   14.7060 H   0  0  0  0  0  0  0  0  0  0  0  0
  1  2  1  0
  2  3  2  0
  2  4  2  0
  2  5  1  0
  5  6  2  0
  6  7  1  0
  7  8  2  0
  8  9  1  0
  9 10  2  0
 10 11  1  0
 10  5  1  0
  1 12  1  0
  1 13  1  0
  6 14  1  0
  7 15  1  0
  8 16  1  0
  9 17  1  0
M  END
>  <meeko>  (1) 
{"is_sidechain": [false], "free_energy": -6.159, "intermolecular_energy": -6.699, "internal_energy": -0.072}

$$$$
2weg_ligand
     RDKit          3D

 17 17  0  0  0  0  0  0  0  0999 V2000
   15.9280    1.9070   16.7300 N   0  0  0  0  0  0  0  0  0  0  0  0
   16.8730    2.7520   15.6200 S   0  0  0  0  0  0  0  0  0  0  0  0
   18.1690    2.9270   16.2310 O   0  0  0  0  0  0  0  0  0  0  0  0
   16.7080    2.0870   14.3480 O   0  0  0  0  0  0  0  0  0  0  0  0
   16.0940    4.3250   15.5210 C   0  0  0  0  0  0  0  0  0  0  0  0
   14.9450    4.5930   16.2700 C   0  0  0  0  0  0  0  0  0  0  0  0
   14.3340    5.8440   16.1660 C   0  0  0  0  0  0  0  0  0  0  0  0
   14.8690    6.8180   15.3190 C   0  0  0  0  0  0  0  0  0  0  0  0
   16.0190    6.5420   14.5770 C   0  0  0  0  0  0  0  0  0  0  0  0
   16.6260    5.2940   14.6800 C   0  0  0  0  0  0  0  0  0  0  0  0
   17.7460    5.0640   13.9830 F   0  0  0  0  0  0  0  0  0  0  0  0
   14.9370    1.8910   16.4940 H   0  0  0  0  0  0  0  0  0  0  0  0
   16.0820    2.3120   17.6570 H   0  0  0  0  0  0  0  0  0  0  0  0
   14.5255    3.8246   16.9360 H   0  0  0  0  0  0  0  0  0  0  0  0
   13.4294    6.0634   16.7522 H   0  0  0  0  0  0  0  0  0  0  0  0
   14.3842    7.8020   15.2368 H   0  0  0  0  0  0  0  0  0  0  0  0
   16.4441    7.3089   13.9128 H   0  0  0  0  0  0  0  0  0  0  0  0
  1  2  1  0
  2  3  2  0
  2  4  2  0
  2  5  1  0
  5  6  2  0
  6  7  1  0
  7  8  2  0
  8  9  1  0
  9 10  2  0
 10 11  1  0
 10  5  1  0
  1 12  1  0
  1 13  1  0
  6 14  1  0
  7 15  1  0
  8 16  1  0
  9 17  1  0
M  END
>  <meeko>  (2) 
{"is_sidechain": [false], "free_energy": -5.92, "intermolecular_energy": -6.409, "internal_energy": -0.102}

$$$$
2weg_ligand
     RDKit          3D

 17 17  0  0  0  0  0  0  0  0999 V2000
   17.4700    3.3250   13.8640 N   0  0  0  0  0  0  0  0  0  0  0  0
   17.1640    2.8530   15.4530 S   0  0  0  0  0  0  0  0  0  0  0  0
   16.5890    1.5310   15.3860 O   0  0  0  0  0  0  0  0  0  0  0  0
   18.3660    3.1310   16.2040 O   0  0  0  0  0  0  0  0  0  0  0  0
   15.9160    3.9700   15.9860 C   0  0  0  0  0  0  0  0  0  0  0  0
   15.6030    5.0990   15.2230 C   0  0  0  0  0  0  0  0  0  0  0  0
   14.6180    5.9810   15.6730 C   0  0  0  0  0  0  0  0  0  0  0  0
   13.9510    5.7330   16.8750 C   0  0  0  0  0  0  0  0  0  0  0  0
   14.2660    4.6010   17.6290 C   0  0  0  0  0  0  0  0  0  0  0  0
   15.2510    3.7240   17.1800 C   0  0  0  0  0  0  0  0  0  0  0  0
   15.5130    2.6280   17.9040 F   0  0  0  0  0  0  0  0  0  0  0  0
   16.7080    3.1110   13.2210 H   0  0  0  0  0  0  0  0  0  0  0  0
   18.3440    2.8870   13.5610 H   0  0  0  0  0  0  0  0  0  0  0  0
   16.1283    5.2911   14.2758 H   0  0  0  0  0  0  0  0  0  0  0  0
   14.3670    6.8726   15.0797 H   0  0  0  0  0  0  0  0  0  0  0  0
   13.1768    6.4303   17.2278 H   0  0  0  0  0  0  0  0  0  0  0  0
   13.7386    4.4024   18.5737 H   0  0  0  0  0  0  0  0  0  0  0  0
  1  2  1  0
  2  3  2  0
  2  4  2  0
  2  5  1  0
  5  6  2  0
  6  7  1  0
  7  8  2  0
  8  9  1  0
  9 10  2  0
 10 11  1  0
 10  5  1  0
  1 12  1  0
  1 13  1  0
  6 14  1  0
  7 15  1  0
  8 16  1  0
  9 17  1  0
M  END
>  <meeko>  (3) 
{"is_sidechain": [false], "free_energy": -5.869, "intermolecular_energy": -6.413, "internal_energy": -0.044}

$$$$
2weg_ligand
     RDKit          3D

 17 17  0  0  0  0  0  0  0  0999 V2000
   15.8540    1.6490   16.4500 N   0  0  0  0  0  0  0  0  0  0  0  0
   15.0180    2.9680   17.0830 S   0  0  0  0  0  0  0  0  0  0  0  0
   13.6130    2.6900   16.9040 O   0  0  0  0  0  0  0  0  0  0  0  0
   15.5880    3.2340   18.3830 O   0  0  0  0  0  0  0  0  0  0  0  0
   15.4570    4.2930   16.0130 C   0  0  0  0  0  0  0  0  0  0  0  0
   16.5030    4.1450   15.0970 C   0  0  0  0  0  0  0  0  0  0  0  0
   16.8440    5.2140   14.2660 C   0  0  0  0  0  0  0  0  0  0  0  0
   16.1430    6.4200   14.3510 C   0  0  0  0  0  0  0  0  0  0  0  0
   15.0990    6.5580   15.2660 C   0  0  0  0  0  0  0  0  0  0  0  0
   14.7610    5.4910   16.0950 C   0  0  0  0  0  0  0  0  0  0  0  0
   13.7330    5.6360   16.9430 F   0  0  0  0  0  0  0  0  0  0  0  0
   15.8590    1.6190   15.4310 H   0  0  0  0  0  0  0  0  0  0  0  0
   15.4520    0.7950   16.8440 H   0  0  0  0  0  0  0  0  0  0  0  0
   17.0526    3.1944   15.0316 H   0  0  0  0  0  0  0  0  0  0  0  0
   17.6660    5.1067   13.5430 H   0  0  0  0  0  0  0  0  0  0  0  0
   16.4146    7.2610   13.6960 H   0  0  0  0  0  0  0  0  0  0  0  0
   14.5449    7.5059   15.3325 H   0  0  0  0  0  0  0  0  0  0  0  0
  1  2  1  0
  2  3  2  0
  2  4  2  0
  2  5  1  0
  5  6  2  0
  6  7  1  0
  7  8  2  0
  8  9  1  0
  9 10  2  0
 10 11  1  0
 10  5  1  0
  1 12  1  0
  1 13  1  0
  6 14  1  0
  7 15  1  0
  8 16  1  0
  9 17  1  0
M  END
>  <meeko>  (4) 
{"is_sidechain": [false], "free_energy": -5.786, "intermolecular_energy": -6.322, "internal_energy": -0.044}

$$$$
2weg_ligand
     RDKit          3D

 17 17  0  0  0  0  0  0  0  0999 V2000
   16.3130    2.0750   15.1440 N   0  0  0  0  0  0  0  0  0  0  0  0
   16.8750    3.2740   16.1870 S   0  0  0  0  0  0  0  0  0  0  0  0
   16.0910    3.1690   17.3950 O   0  0  0  0  0  0  0  0  0  0  0  0
   18.3150    3.1720   16.1950 O   0  0  0  0  0  0  0  0  0  0  0  0
   16.4370    4.7710   15.3750 C   0  0  0  0  0  0  0  0  0  0  0  0
   17.4240    5.5840   14.8110 C   0  0  0  0  0  0  0  0  0  0  0  0
   17.0560    6.7760   14.1830 C   0  0  0  0  0  0  0  0  0  0  0  0
   15.7110    7.1490   14.1200 C   0  0  0  0  0  0  0  0  0  0  0  0
   14.7320    6.3290   14.6830 C   0  0  0  0  0  0  0  0  0  0  0  0
   15.1010    5.1420   15.3110 C   0  0  0  0  0  0  0  0  0  0  0  0
   14.1400    4.3560   15.8150 F   0  0  0  0  0  0  0  0  0  0  0  0
   15.7770    2.4370   14.3560 H   0  0  0  0  0  0  0  0  0  0  0  0
   15.7630    1.4070   15.6900 H   0  0  0  0  0  0  0  0  0  0  0  0
   18.4821    5.2875   14.8613 H   0  0  0  0  0  0  0  0  0  0  0  0
   17.8264    7.4223   13.7372 H   0  0  0  0  0  0  0  0  0  0  0  0
   15.4236    8.0892   13.6265 H   0  0  0  0  0  0  0  0  0  0  0  0
   13.6723    6.6193   14.6309 H   0  0  0  0  0  0  0  0  0  0  0  0
  1  2  1  0
  2  3  2  0
  2  4  2  0
  2  5  1  0
  5  6  2  0
  6  7  1  0
  7  8  2  0
  8  9  1  0
  9 10  2  0
 10 11  1  0
 10  5  1  0
  1 12  1  0
  1 13  1  0
  6 14  1  0
  7 15  1  0
  8 16  1  0
  9 17  1  0
M  END
>  <meeko>  (5) 
{"is_sidechain": [false], "free_energy": -5.634, "intermolecular_energy": -6.272, "internal_energy": 0.071}

$$$$
2weg_ligand
     RDKit          3D

 17 17  0  0  0  0  0  0  0  0999 V2000
   16.1540    5.6790   13.1330 N   0  0  0  0  0  0  0  0  0  0  0  0
   16.7330    4.1820   13.6470 S   0  0  0  0  0  0  0  0  0  0  0  0
   16.2700    3.2090   12.6860 O   0  0  0  0  0  0  0  0  0  0  0  0
   18.1350    4.3610   13.9430 O   0  0  0  0  0  0  0  0  0  0  0  0
   15.8850    3.9050   15.1620 C   0  0  0  0  0  0  0  0  0  0  0  0
   15.0340    4.8820   15.6860 C   0  0  0  0  0  0  0  0  0  0  0  0
   14.3820    4.6470   16.8980 C   0  0  0  0  0  0  0  0  0  0  0  0
   14.5790    3.4440   17.5790 C   0  0  0  0  0  0  0  0  0  0  0  0
   15.4280    2.4720   17.0470 C   0  0  0  0  0  0  0  0  0  0  0  0
   16.0790    2.7080   15.8390 C   0  0  0  0  0  0  0  0  0  0  0  0
   16.8640    1.7470   15.3330 F   0  0  0  0  0  0  0  0  0  0  0  0
   15.2530    5.6270   12.6580 H   0  0  0  0  0  0  0  0  0  0  0  0
   16.8630    6.1090   12.5350 H   0  0  0  0  0  0  0  0  0  0  0  0
   14.8791    5.8287   15.1477 H   0  0  0  0  0  0  0  0  0  0  0  0
   13.7114    5.4114   17.3175 H   0  0  0  0  0  0  0  0  0  0  0  0
   14.0653    3.2623   18.5345 H   0  0  0  0  0  0  0  0  0  0  0  0
   15.5823    1.5225   17.5805 H   0  0  0  0  0  0  0  0  0  0  0  0
  1  2  1  0
  2  3  2  0
  2  4  2  0
  2  5  1  0
  5  6  2  0
  6  7  1  0
  7  8  2  0
  8  9  1  0
  9 10  2  0
 10 11  1  0
 10  5  1  0
  1 12  1  0
  1 13  1  0
  6 14  1  0
  7 15  1  0
  8 16  1  0
  9 17  1  0
M  END
>  <meeko>  (6) 
{"is_sidechain": [false], "free_energy": -5.563, "intermolecular_energy": -6.03, "internal_energy": -0.093}

$$$$
2weg_ligand
     RDKit          3D

 17 17  0  0  0  0  0  0  0  0999 V2000
   17.7470    3.7790   13.4110 N   0  0  0  0  0  0  0  0  0  0  0  0
   17.5340    4.9280   14.6240 S   0  0  0  0  0  0  0  0  0  0  0  0
   18.7570    4.9490   15.3920 O   0  0  0  0  0  0  0  0  0  0  0  0
   17.0100    6.1120   13.9840 O   0  0  0  0  0  0  0  0  0  0  0  0
   16.2650    4.2430   15.6300 C   0  0  0  0  0  0  0  0  0  0  0  0
   15.0600    4.9280   15.8130 C   0  0  0  0  0  0  0  0  0  0  0  0
   14.0710    4.3720   16.6270 C   0  0  0  0  0  0  0  0  0  0  0  0
   14.2860    3.1400   17.2500 C   0  0  0  0  0  0  0  0  0  0  0  0
   15.4900    2.4610   17.0590 C   0  0  0  0  0  0  0  0  0  0  0  0
   16.4770    3.0180   16.2480 C   0  0  0  0  0  0  0  0  0  0  0  0
   17.6110    2.3320   16.0540 F   0  0  0  0  0  0  0  0  0  0  0  0
   18.6500    3.3080   13.4480 H   0  0  0  0  0  0  0  0  0  0  0  0
   17.6050    4.2360   12.5070 H   0  0  0  0  0  0  0  0  0  0  0  0
   14.8924    5.8969   15.3198 H   0  0  0  0  0  0  0  0  0  0  0  0
   13.1207    4.9050   16.7781 H   0  0  0  0  0  0  0  0  0  0  0  0
   13.5055    2.7050   17.8916 H   0  0  0  0  0  0  0  0  0  0  0  0
   15.6594    1.4897   17.5468 H   0  0  0  0  0  0  0  0  0  0  0  0
  1  2  1  0
  2  3  2  0
  2  4  2  0
  2  5  1  0
  5  6  2  0
  6  7  1  0
  7  8  2  0
  8  9  1  0
  9 10  2  0
 10 11  1  0
 10  5  1  0
  1 12  1  0
  1 13  1  0
  6 14  1  0
  7 15  1  0
  8 16  1  0
  9 17  1  0
M  END
>  <meeko>  (7) 
{"is_sidechain": [false], "free_energy": -5.543, "intermolecular_energy": -6.141, "internal_energy": 0.039}

$$$$
2weg_ligand
     RDKit          3D

 17 17  0  0  0  0  0  0  0  0999 V2000
   17.0150    2.4100   13.1650 N   0  0  0  0  0  0  0  0  0  0  0  0
   16.7760    3.9810   13.7250 S   0  0  0  0  0  0  0  0  0  0  0  0
   18.0830    4.5150   14.0230 O   0  0  0  0  0  0  0  0  0  0  0  0
   15.8810    4.6210   12.7890 O   0  0  0  0  0  0  0  0  0  0  0  0
   15.9140    3.7570   15.2410 C   0  0  0  0  0  0  0  0  0  0  0  0
   16.0800    2.5830   15.9820 C   0  0  0  0  0  0  0  0  0  0  0  0
   15.3740    2.4200   17.1760 C   0  0  0  0  0  0  0  0  0  0  0  0
   14.5120    3.4230   17.6240 C   0  0  0  0  0  0  0  0  0  0  0  0
   14.3540    4.5930   16.8790 C   0  0  0  0  0  0  0  0  0  0  0  0
   15.0560    4.7540   15.6870 C   0  0  0  0  0  0  0  0  0  0  0  0
   14.9140    5.8980   15.0060 F   0  0  0  0  0  0  0  0  0  0  0  0
   16.1750    1.9810   12.7790 H   0  0  0  0  0  0  0  0  0  0  0  0
   17.3980    1.8510   13.9310 H   0  0  0  0  0  0  0  0  0  0  0  0
   16.7606    1.7948   15.6277 H   0  0  0  0  0  0  0  0  0  0  0  0
   15.4973    1.4992   17.7649 H   0  0  0  0  0  0  0  0  0  0  0  0
   13.9571    3.2912   18.5646 H   0  0  0  0  0  0  0  0  0  0  0  0
   13.6773    5.3850   17.2323 H   0  0  0  0  0  0  0  0  0  0  0  0
  1  2  1  0
  2  3  2  0
  2  4  2  0
  2  5  1  0
  5  6  2  0
  6  7  1  0
  7  8  2  0
  8  9  1  0
  9 10  2  0
 10 11  1  0
 10  5  1  0
  1 12  1  0
  1 13  1  0
  6 14  1  0
  7 15  1  0
  8 16  1  0
  9 17  1  0
M  END
>  <meeko>  (8) 
{"is_sidechain": [false], "free_energy": -5.528, "intermolecular_energy": -6.196, "internal_energy": 0.111}

$$$$
2weg_ligand
     RDKit          3D

 17 17  0  0  0  0  0  0  0  0999 V2000
   15.2840    3.1370   16.0230 N   0  0  0  0  0  0  0  0  0  0  0  0
   16.7820    2.7970   15.3300 S   0  0  0  0  0  0  0  0  0  0  0  0
   17.7040    2.5950   16.4220 O   0  0  0  0  0  0  0  0  0  0  0  0
   16.5510    1.7890   14.3220 O   0  0  0  0  0  0  0  0  0  0  0  0
   17.2130    4.2950   14.5160 C   0  0  0  0  0  0  0  0  0  0  0  0
   18.1490    5.1650   15.0830 C   0  0  0  0  0  0  0  0  0  0  0  0
   18.4660    6.3560   14.4270 C   0  0  0  0  0  0  0  0  0  0  0  0
   17.8530    6.6710   13.2120 C   0  0  0  0  0  0  0  0  0  0  0  0
   16.9220    5.7960   12.6510 C   0  0  0  0  0  0  0  0  0  0  0  0
   16.6050    4.6100   13.3080 C   0  0  0  0  0  0  0  0  0  0  0  0
   15.7330    3.7700   12.7330 F   0  0  0  0  0  0  0  0  0  0  0  0
   14.5530    3.3330   15.3410 H   0  0  0  0  0  0  0  0  0  0  0  0
   15.4010    3.9170   16.6750 H   0  0  0  0  0  0  0  0  0  0  0  0
   18.6320    4.9131   16.0386 H   0  0  0  0  0  0  0  0  0  0  0  0
   19.1995    7.0473   14.8676 H   0  0  0  0  0  0  0  0  0  0  0  0
   18.1045    7.6098   12.6969 H   0  0  0  0  0  0  0  0  0  0  0  0
   16.4403    6.0423   11.6932 H   0  0  0  0  0  0  0  0  0  0  0  0
  1  2  1  0
  2  3  2  0
  2  4  2  0
  2  5  1  0
  5  6  2  0
  6  7  1  0
  7  8  2  0
  8  9  1  0
  9 10  2  0
 10 11  1  0
 10  5  1  0
  1 12  1  0
  1 13  1  0
  6 14  1  0
  7 15  1  0
  8 16  1  0
  9 17  1  0
M  END
>  <meeko>  (9) 
{"is_sidechain": [false], "free_energy": -4.643, "intermolecular_energy": -5.282, "internal_energy": 0.159}

$$$$
