4f3c_ligand
     RDKit          3D

 49 51  0  0  0  0  0  0  0  0999 V2000
  -12.0990  -14.8250   20.8200 C   0  0  0  0  0  0  0  0  0  0  0  0
  -10.8620  -14.4680   20.0090 C   0  0  0  0  0  0  0  0  0  0  0  0
  -11.1580  -13.3510   19.0060 C   0  0  0  0  0  0  0  0  0  0  0  0
  -12.6090  -13.3250   18.5210 C   0  0  0  0  0  0  0  0  0  0  0  0
  -13.0990  -11.7790   17.6750 S   0  0  0  0  0  0  0  0  0  0  0  0
  -11.6220  -11.4570   16.6580 C   0  0  0  0  0  0  0  0  0  0  0  0
  -10.9190  -10.1530   17.0590 C   0  0  1  0  0  0  0  0  0  0  0  0
   -9.6820   -9.8620   16.1840 C   0  0  0  0  0  0  0  0  0  0  0  0
   -9.9920   -8.5620   15.4770 N   0  0  1  0  0  0  0  0  0  0  0  0
   -9.2450   -8.2880   14.2110 C   0  0  0  0  0  0  0  0  0  0  0  0
   -8.9480   -9.4640   13.3550 C   0  0  0  0  0  0  0  0  0  0  0  0
   -7.7750  -10.2020   13.2920 C   0  0  0  0  0  0  0  0  0  0  0  0
   -7.9510  -11.2150   12.3760 N   0  0  0  0  0  0  0  0  0  0  0  0
   -9.2170  -11.1520   11.8530 C   0  0  0  0  0  0  0  0  0  0  0  0
   -9.8750  -11.9150   10.9050 C   0  0  0  0  0  0  0  0  0  0  0  0
   -9.3170  -13.0110   10.2710 N   0  0  0  0  0  0  0  0  0  0  0  0
  -11.1290  -11.5590   10.5850 N   0  0  0  0  0  0  0  0  0  0  0  0
  -11.6780  -10.5010   11.2100 C   0  0  0  0  0  0  0  0  0  0  0  0
  -11.1180   -9.7130   12.1450 N   0  0  0  0  0  0  0  0  0  0  0  0
   -9.8530  -10.0760   12.4450 C   0  0  0  0  0  0  0  0  0  0  0  0
  -11.4920   -8.4680   15.4350 C   0  0  0  0  0  0  0  0  0  0  0  0
  -11.8320   -8.9390   16.8470 C   0  0  2  0  0  0  0  0  0  0  0  0
  -11.4190   -7.9050   17.7510 O   0  0  0  0  0  0  0  0  0  0  0  0
  -11.8660  -14.7578   21.8929 H   0  0  0  0  0  0  0  0  0  0  0  0
  -12.9117  -14.1247   20.5767 H   0  0  0  0  0  0  0  0  0  0  0  0
  -12.4136  -15.8506   20.5767 H   0  0  0  0  0  0  0  0  0  0  0  0
  -10.0687  -14.1337   20.6938 H   0  0  0  0  0  0  0  0  0  0  0  0
  -10.5435  -15.3606   19.4506 H   0  0  0  0  0  0  0  0  0  0  0  0
  -10.9353  -12.3864   19.4855 H   0  0  0  0  0  0  0  0  0  0  0  0
  -10.5285  -13.5378   18.1235 H   0  0  0  0  0  0  0  0  0  0  0  0
  -12.7518  -14.1604   17.8198 H   0  0  0  0  0  0  0  0  0  0  0  0
  -13.2401  -13.4038   19.4185 H   0  0  0  0  0  0  0  0  0  0  0  0
  -10.9172  -12.2925   16.7813 H   0  0  0  0  0  0  0  0  0  0  0  0
  -11.9457  -11.3597   15.6112 H   0  0  0  0  0  0  0  0  0  0  0  0
  -10.6443  -10.2955   18.1146 H   0  0  0  0  0  0  0  0  0  0  0  0
   -8.7835   -9.7559   16.8097 H   0  0  0  0  0  0  0  0  0  0  0  0
   -9.4802  -10.6776   15.4740 H   0  0  0  0  0  0  0  0  0  0  0  0
   -9.7150   -7.8250   16.1440 H   0  0  0  0  0  0  0  0  0  0  0  0
   -9.8425   -7.5822   13.6153 H   0  0  0  0  0  0  0  0  0  0  0  0
   -8.2653   -7.9000   14.5266 H   0  0  0  0  0  0  0  0  0  0  0  0
   -6.8613  -10.0108   13.8738 H   0  0  0  0  0  0  0  0  0  0  0  0
   -7.2560  -11.9030   12.1100 H   0  0  0  0  0  0  0  0  0  0  0  0
   -9.5330  -13.9040   10.6910 H   0  0  0  0  0  0  0  0  0  0  0  0
   -9.5300  -12.9680    9.2770 H   0  0  0  0  0  0  0  0  0  0  0  0
  -12.7094  -10.2505   10.9212 H   0  0  0  0  0  0  0  0  0  0  0  0
  -11.8307   -7.4367   15.2569 H   0  0  0  0  0  0  0  0  0  0  0  0
  -11.9681   -9.0455   14.6289 H   0  0  0  0  0  0  0  0  0  0  0  0
  -12.8973   -9.1682   16.9975 H   0  0  0  0  0  0  0  0  0  0  0  0
  -11.6590   -7.0430   17.3570 H   0  0  0  0  0  0  0  0  0  0  0  0
  1  2  1  0
  2  3  1  0
  3  4  1  0
  4  5  1  0
  5  6  1  0
  6  7  1  0
  7  8  1  0
  8  9  1  0
  9 10  1  0
 10 11  1  0
 11 12  2  0
 12 13  1  0
 13 14  1  0
 14 15  2  0
 15 16  1  0
 15 17  1  0
 17 18  2  0
 18 19  1  0
 19 20  2  0
  9 21  1  0
 21 22  1  0
 22 23  1  0
 22  7  1  0
 20 11  1  0
 20 14  1  0
  1 24  1  0
  1 25  1  0
  1 26  1  0
  2 27  1  0
  2 28  1  0
  3 29  1  0
  3 30  1  0
  4 31  1  0
  4 32  1  0
  6 33  1  0
  6 34  1  0
  7 35  1  1
  8 36  1  0
  8 37  1  0
  9 38  1  1
 10 39  1  0
 10 40  1  0
 12 41  1  0
 13 42  1  0
 16 43  1  0
 16 44  1  0
 18 45  1  0
 21 46  1  0
 21 47  1  0
 22 48  1  6
 23 49  1  0
M  CHG  1   9   1
M  END
>  <meeko>  (1) 
{"is_sidechain": [false], "free_energy": -9.449, "intermolecular_energy": -13.869, "internal_energy": -0.649}

$$$$
4f3c_ligand
     RDKit          3D

 49 51  0  0  0  0  0  0  0  0999 V2000
  -12.1560  -10.2420   10.5520 C   0  0  0  0  0  0  0  0  0  0  0  0
  -11.1950  -11.3520   10.9510 C   0  0  0  0  0  0  0  0  0  0  0  0
   -9.7400  -10.8840   10.8710 C   0  0  0  0  0  0  0  0  0  0  0  0
   -8.7940  -11.6460   11.8010 C   0  0  0  0  0  0  0  0  0  0  0  0
   -8.2130  -10.6860   13.2460 S   0  0  0  0  0  0  0  0  0  0  0  0
   -8.9830   -9.0680   12.9190 C   0  0  0  0  0  0  0  0  0  0  0  0
  -10.2870   -8.8810   13.7050 C   0  0  1  0  0  0  0  0  0  0  0  0
  -10.5890  -10.0770   14.6310 C   0  0  0  0  0  0  0  0  0  0  0  0
  -10.5790   -9.5080   16.0320 N   0  0  1  0  0  0  0  0  0  0  0  0
  -10.3300  -10.4710   17.1490 C   0  0  0  0  0  0  0  0  0  0  0  0
  -11.4480  -11.3850   17.4910 C   0  0  0  0  0  0  0  0  0  0  0  0
  -12.7090  -11.4470   16.9160 C   0  0  0  0  0  0  0  0  0  0  0  0
  -13.4150  -12.4560   17.5300 N   0  0  0  0  0  0  0  0  0  0  0  0
  -12.6330  -13.0560   18.4830 C   0  0  0  0  0  0  0  0  0  0  0  0
  -12.8690  -14.0900   19.3720 C   0  0  0  0  0  0  0  0  0  0  0  0
  -14.0570  -14.7940   19.4400 N   0  0  0  0  0  0  0  0  0  0  0  0
  -11.8800  -14.4180   20.2170 N   0  0  0  0  0  0  0  0  0  0  0  0
  -10.7180  -13.7420   20.1430 C   0  0  0  0  0  0  0  0  0  0  0  0
  -10.4000  -12.7360   19.3100 N   0  0  0  0  0  0  0  0  0  0  0  0
  -11.4100  -12.4090   18.4770 C   0  0  0  0  0  0  0  0  0  0  0  0
   -9.7140   -8.2800   15.9670 C   0  0  0  0  0  0  0  0  0  0  0  0
  -10.2010   -7.6770   14.6510 C   0  0  2  0  0  0  0  0  0  0  0  0
  -11.5300   -7.1860   14.8740 O   0  0  0  0  0  0  0  0  0  0  0  0
  -12.5656   -9.7689   11.4566 H   0  0  0  0  0  0  0  0  0  0  0  0
  -11.6196   -9.4894    9.9554 H   0  0  0  0  0  0  0  0  0  0  0  0
  -12.9776  -10.6652    9.9554 H   0  0  0  0  0  0  0  0  0  0  0  0
  -11.4152  -11.6627   11.9830 H   0  0  0  0  0  0  0  0  0  0  0  0
  -11.3278  -12.1929   10.2544 H   0  0  0  0  0  0  0  0  0  0  0  0
   -9.3898  -11.0156    9.8366 H   0  0  0  0  0  0  0  0  0  0  0  0
   -9.7241   -9.8315   11.1904 H   0  0  0  0  0  0  0  0  0  0  0  0
   -9.3207  -12.5382   12.1707 H   0  0  0  0  0  0  0  0  0  0  0  0
   -7.9004  -11.8887   11.2073 H   0  0  0  0  0  0  0  0  0  0  0  0
   -8.2778   -8.2746   13.2076 H   0  0  0  0  0  0  0  0  0  0  0  0
   -9.2232   -9.0173   11.8467 H   0  0  0  0  0  0  0  0  0  0  0  0
  -11.0630   -8.7584   12.9351 H   0  0  0  0  0  0  0  0  0  0  0  0
  -11.5740  -10.5069   14.3966 H   0  0  0  0  0  0  0  0  0  0  0  0
   -9.8527  -10.8853   14.5109 H   0  0  0  0  0  0  0  0  0  0  0  0
  -11.5300   -9.1360   16.1740 H   0  0  0  0  0  0  0  0  0  0  0  0
   -9.4642  -11.0900   16.8710 H   0  0  0  0  0  0  0  0  0  0  0  0
  -10.1756   -9.8492   18.0432 H   0  0  0  0  0  0  0  0  0  0  0  0
  -13.0808  -10.8003   16.1076 H   0  0  0  0  0  0  0  0  0  0  0  0
  -14.3720  -12.7230   17.3270 H   0  0  0  0  0  0  0  0  0  0  0  0
  -14.3530  -15.2200   18.5730 H   0  0  0  0  0  0  0  0  0  0  0  0
  -14.0160  -15.4480   20.2190 H   0  0  0  0  0  0  0  0  0  0  0  0
   -9.9337  -14.0503   20.8500 H   0  0  0  0  0  0  0  0  0  0  0  0
   -9.8981   -7.6063   16.8168 H   0  0  0  0  0  0  0  0  0  0  0  0
   -8.6323   -8.4741   16.0137 H   0  0  0  0  0  0  0  0  0  0  0  0
   -9.5611   -6.8697   14.2652 H   0  0  0  0  0  0  0  0  0  0  0  0
  -11.4620   -6.2960   15.2730 H   0  0  0  0  0  0  0  0  0  0  0  0
  1  2  1  0
  2  3  1  0
  3  4  1  0
  4  5  1  0
  5  6  1  0
  6  7  1  0
  7  8  1  0
  8  9  1  0
  9 10  1  0
 10 11  1  0
 11 12  2  0
 12 13  1  0
 13 14  1  0
 14 15  2  0
 15 16  1  0
 15 17  1  0
 17 18  2  0
 18 19  1  0
 19 20  2  0
  9 21  1  0
 21 22  1  0
 22 23  1  0
 22  7  1  0
 20 11  1  0
 20 14  1  0
  1 24  1  0
  1 25  1  0
  1 26  1  0
  2 27  1  0
  2 28  1  0
  3 29  1  0
  3 30  1  0
  4 31  1  0
  4 32  1  0
  6 33  1  0
  6 34  1  0
  7 35  1  6
  8 36  1  0
  8 37  1  0
  9 38  1  1
 10 39  1  0
 10 40  1  0
 12 41  1  0
 13 42  1  0
 16 43  1  0
 16 44  1  0
 18 45  1  0
 21 46  1  0
 21 47  1  0
 22 48  1  6
 23 49  1  0
M  CHG  1   9   1
M  END
>  <meeko>  (2) 
{"is_sidechain": [false], "free_energy": -7.175, "intermolecular_energy": -10.499, "internal_energy": -0.68}

$$$$
