3jvr_ligand
     RDKit          3D

 36 38  0  0  0  0  0  0  0  0999 V2000
   30.6560   -5.7360   16.5820 C   0  0  0  0  0  0  0  0  0  0  0  0
   30.9850   -5.0650   17.9100 C   0  0  2  0  0  0  0  0  0  0  0  0
   29.7530   -4.5320   18.4390 O   0  0  0  0  0  0  0  0  0  0  0  0
   29.4260   -4.9280   19.6950 C   0  0  0  0  0  0  0  0  0  0  0  0
   29.4970   -6.0840   20.0870 O   0  0  0  0  0  0  0  0  0  0  0  0
   29.0380   -3.8240   20.3980 N   0  0  0  0  0  0  0  0  0  0  0  0
   28.6150   -3.7410   21.7350 C   0  0  0  0  0  0  0  0  0  0  0  0
   29.5840   -3.9470   22.7250 C   0  0  0  0  0  0  0  0  0  0  0  0
   29.2430   -3.8820   24.0790 C   0  0  0  0  0  0  0  0  0  0  0  0
   27.9280   -3.6090   24.4590 C   0  0  0  0  0  0  0  0  0  0  0  0
   27.5760   -3.5440   26.1490 Cl  0  0  0  0  0  0  0  0  0  0  0  0
   26.9550   -3.4020   23.4770 C   0  0  0  0  0  0  0  0  0  0  0  0
   25.3070   -3.0580   23.8720 Cl  0  0  0  0  0  0  0  0  0  0  0  0
   27.3000   -3.4660   22.1200 C   0  0  0  0  0  0  0  0  0  0  0  0
   31.9490   -3.9300   17.7380 C   0  0  0  0  0  0  0  0  0  0  0  0
   33.2560   -3.9910   17.5660 N   0  0  0  0  0  0  0  0  0  0  0  0
   33.6800   -2.6890   17.4620 C   0  0  0  0  0  0  0  0  0  0  0  0
   34.9720   -2.1780   17.2700 C   0  0  0  0  0  0  0  0  0  0  0  0
   35.1400   -0.7890   17.1910 C   0  0  0  0  0  0  0  0  0  0  0  0
   34.0450    0.0710   17.3010 C   0  0  0  0  0  0  0  0  0  0  0  0
   32.7480   -0.4200   17.4930 C   0  0  0  0  0  0  0  0  0  0  0  0
   32.6100   -1.8080   17.5710 C   0  0  0  0  0  0  0  0  0  0  0  0
   31.5230   -2.6210   17.7480 N   0  0  0  0  0  0  0  0  0  0  0  0
   30.1789   -6.7090   16.7711 H   0  0  0  0  0  0  0  0  0  0  0  0
   29.9694   -5.0963   16.0081 H   0  0  0  0  0  0  0  0  0  0  0  0
   31.5822   -5.8871   16.0081 H   0  0  0  0  0  0  0  0  0  0  0  0
   31.4460   -5.8063   18.5793 H   0  0  0  0  0  0  0  0  0  0  0  0
   29.0950   -2.9690   19.8600 H   0  0  0  0  0  0  0  0  0  0  0  0
   30.6229   -4.1619   22.4344 H   0  0  0  0  0  0  0  0  0  0  0  0
   30.0130   -4.0464   24.8471 H   0  0  0  0  0  0  0  0  0  0  0  0
   26.5301   -3.2985   21.3524 H   0  0  0  0  0  0  0  0  0  0  0  0
   35.8357   -2.8537   17.1832 H   0  0  0  0  0  0  0  0  0  0  0  0
   36.1463   -0.3710   17.0406 H   0  0  0  0  0  0  0  0  0  0  0  0
   34.2051    1.1573   17.2354 H   0  0  0  0  0  0  0  0  0  0  0  0
   31.8819    0.2528   17.5781 H   0  0  0  0  0  0  0  0  0  0  0  0
   30.5570   -2.3270   17.8270 H   0  0  0  0  0  0  0  0  0  0  0  0
  1  2  1  0
  2  3  1  0
  3  4  1  0
  4  5  2  0
  4  6  1  0
  6  7  1  0
  7  8  2  0
  8  9  1  0
  9 10  2  0
 10 11  1  0
 10 12  1  0
 12 13  1  0
 12 14  2  0
  2 15  1  0
 15 16  2  0
 16 17  1  0
 17 18  2  0
 18 19  1  0
 19 20  2  0
 20 21  1  0
 21 22  2  0
 22 23  1  0
 14  7  1  0
 23 15  1  0
 22 17  1  0
  1 24  1  0
  1 25  1  0
  1 26  1  0
  2 27  1  1
  6 28  1  0
  8 29  1  0
  9 30  1  0
 14 31  1  0
 18 32  1  0
 19 33  1  0
 20 34  1  0
 21 35  1  0
 23 36  1  0
M  END
>  <meeko>  (1) 
{"is_sidechain": [false], "free_energy": -7.67, "intermolecular_energy": -9.464, "internal_energy": -0.559}

$$$$
3jvr_ligand
     RDKit          3D

 36 38  0  0  0  0  0  0  0  0999 V2000
   30.3350   -5.8440   16.4280 C   0  0  0  0  0  0  0  0  0  0  0  0
   30.7720   -5.3370   17.7970 C   0  0  2  0  0  0  0  0  0  0  0  0
   29.6230   -4.7170   18.4120 O   0  0  0  0  0  0  0  0  0  0  0  0
   29.3990   -5.0390   19.7110 C   0  0  0  0  0  0  0  0  0  0  0  0
   29.5920   -6.1500   20.1830 O   0  0  0  0  0  0  0  0  0  0  0  0
   28.9530   -3.9190   20.3520 N   0  0  0  0  0  0  0  0  0  0  0  0
   28.5940   -3.7670   21.7020 C   0  0  0  0  0  0  0  0  0  0  0  0
   29.6080   -3.9330   22.6540 C   0  0  0  0  0  0  0  0  0  0  0  0
   29.3320   -3.7990   24.0180 C   0  0  0  0  0  0  0  0  0  0  0  0
   28.0400   -3.4960   24.4460 C   0  0  0  0  0  0  0  0  0  0  0  0
   27.7690   -3.3450   26.1450 Cl  0  0  0  0  0  0  0  0  0  0  0  0
   27.0220   -3.3290   23.5020 C   0  0  0  0  0  0  0  0  0  0  0  0
   25.3970   -2.9520   23.9570 Cl  0  0  0  0  0  0  0  0  0  0  0  0
   27.3010   -3.4630   22.1350 C   0  0  0  0  0  0  0  0  0  0  0  0
   31.8580   -4.3100   17.6930 C   0  0  0  0  0  0  0  0  0  0  0  0
   31.7320   -3.0020   17.5740 N   0  0  0  0  0  0  0  0  0  0  0  0
   33.0130   -2.5080   17.5140 C   0  0  0  0  0  0  0  0  0  0  0  0
   33.4600   -1.1840   17.3890 C   0  0  0  0  0  0  0  0  0  0  0  0
   34.8400   -0.9420   17.3590 C   0  0  0  0  0  0  0  0  0  0  0  0
   35.7530   -1.9940   17.4520 C   0  0  0  0  0  0  0  0  0  0  0  0
   35.3260   -3.3220   17.5770 C   0  0  0  0  0  0  0  0  0  0  0  0
   33.9460   -3.5350   17.6020 C   0  0  0  0  0  0  0  0  0  0  0  0
   33.1870   -4.6680   17.7120 N   0  0  0  0  0  0  0  0  0  0  0  0
   29.6216   -6.6717   16.5541 H   0  0  0  0  0  0  0  0  0  0  0  0
   29.8537   -5.0268   15.8708 H   0  0  0  0  0  0  0  0  0  0  0  0
   31.2143   -6.1995   15.8708 H   0  0  0  0  0  0  0  0  0  0  0  0
   31.1594   -6.1834   18.3830 H   0  0  0  0  0  0  0  0  0  0  0  0
   28.9060   -3.1080   19.7500 H   0  0  0  0  0  0  0  0  0  0  0  0
   30.6305   -4.1709   22.3255 H   0  0  0  0  0  0  0  0  0  0  0  0
   30.1367   -3.9330   24.7559 H   0  0  0  0  0  0  0  0  0  0  0  0
   26.4960   -3.3278   21.3977 H   0  0  0  0  0  0  0  0  0  0  0  0
   32.7424   -0.3535   17.3161 H   0  0  0  0  0  0  0  0  0  0  0  0
   35.2084    0.0898   17.2609 H   0  0  0  0  0  0  0  0  0  0  0  0
   36.8307   -1.7752   17.4266 H   0  0  0  0  0  0  0  0  0  0  0  0
   36.0410   -4.1546   17.6517 H   0  0  0  0  0  0  0  0  0  0  0  0
   33.5300   -5.6140   17.8350 H   0  0  0  0  0  0  0  0  0  0  0  0
  1  2  1  0
  2  3  1  0
  3  4  1  0
  4  5  2  0
  4  6  1  0
  6  7  1  0
  7  8  2  0
  8  9  1  0
  9 10  2  0
 10 11  1  0
 10 12  1  0
 12 13  1  0
 12 14  2  0
  2 15  1  0
 15 16  2  0
 16 17  1  0
 17 18  2  0
 18 19  1  0
 19 20  2  0
 20 21  1  0
 21 22  2  0
 22 23  1  0
 14  7  1  0
 23 15  1  0
 22 17  1  0
  1 24  1  0
  1 25  1  0
  1 26  1  0
  2 27  1  1
  6 28  1  0
  8 29  1  0
  9 30  1  0
 14 31  1  0
 18 32  1  0
 19 33  1  0
 20 34  1  0
 21 35  1  0
 23 36  1  0
M  END
>  <meeko>  (2) 
{"is_sidechain": [false], "free_energy": -7.012, "intermolecular_energy": -8.7, "internal_energy": -0.511}

$$$$
3jvr_ligand
     RDKit          3D

 36 38  0  0  0  0  0  0  0  0999 V2000
   29.2370   -4.9580   17.1810 C   0  0  0  0  0  0  0  0  0  0  0  0
   30.0000   -4.2350   18.2850 C   0  0  2  0  0  0  0  0  0  0  0  0
   31.3710   -4.6820   18.2240 O   0  0  0  0  0  0  0  0  0  0  0  0
   32.2080   -3.9290   17.4680 C   0  0  0  0  0  0  0  0  0  0  0  0
   32.6290   -4.2680   16.3710 O   0  0  0  0  0  0  0  0  0  0  0  0
   32.4570   -2.7680   18.1410 N   0  0  0  0  0  0  0  0  0  0  0  0
   33.2630   -1.6850   17.7520 C   0  0  0  0  0  0  0  0  0  0  0  0
   34.6460   -1.8970   17.7250 C   0  0  0  0  0  0  0  0  0  0  0  0
   35.5170   -0.8690   17.3500 C   0  0  0  0  0  0  0  0  0  0  0  0
   35.0120    0.3830   16.9970 C   0  0  0  0  0  0  0  0  0  0  0  0
   36.1430    1.6080   16.5430 Cl  0  0  0  0  0  0  0  0  0  0  0  0
   33.6320    0.6020   17.0210 C   0  0  0  0  0  0  0  0  0  0  0  0
   32.9340    2.1260   16.5940 Cl  0  0  0  0  0  0  0  0  0  0  0  0
   32.7620   -0.4300   17.3960 C   0  0  0  0  0  0  0  0  0  0  0  0
   29.4610   -4.5640   19.6440 C   0  0  0  0  0  0  0  0  0  0  0  0
   29.6030   -5.6850   20.3270 N   0  0  0  0  0  0  0  0  0  0  0  0
   28.9260   -5.4910   21.5060 C   0  0  0  0  0  0  0  0  0  0  0  0
   28.7550   -6.3570   22.5960 C   0  0  0  0  0  0  0  0  0  0  0  0
   28.0150   -5.9100   23.6990 C   0  0  0  0  0  0  0  0  0  0  0  0
   27.4580   -4.6290   23.7150 C   0  0  0  0  0  0  0  0  0  0  0  0
   27.6180   -3.7500   22.6370 C   0  0  0  0  0  0  0  0  0  0  0  0
   28.3580   -4.2230   21.5510 C   0  0  0  0  0  0  0  0  0  0  0  0
   28.7100   -3.6560   20.3560 N   0  0  0  0  0  0  0  0  0  0  0  0
   28.5083   -5.6485   17.6306 H   0  0  0  0  0  0  0  0  0  0  0  0
   28.7083   -4.2217   16.5579 H   0  0  0  0  0  0  0  0  0  0  0  0
   29.9438   -5.5255   16.5579 H   0  0  0  0  0  0  0  0  0  0  0  0
   29.9030   -3.1498   18.1332 H   0  0  0  0  0  0  0  0  0  0  0  0
   31.9640   -2.7070   19.0230 H   0  0  0  0  0  0  0  0  0  0  0  0
   35.0518   -2.8814   18.0013 H   0  0  0  0  0  0  0  0  0  0  0  0
   36.6022   -1.0478   17.3333 H   0  0  0  0  0  0  0  0  0  0  0  0
   31.6767   -0.2512   17.4103 H   0  0  0  0  0  0  0  0  0  0  0  0
   29.1927   -7.3661   22.5853 H   0  0  0  0  0  0  0  0  0  0  0  0
   27.8710   -6.5759   24.5626 H   0  0  0  0  0  0  0  0  0  0  0  0
   26.8813   -4.3039   24.5935 H   0  0  0  0  0  0  0  0  0  0  0  0
   27.1835   -2.7395   22.6450 H   0  0  0  0  0  0  0  0  0  0  0  0
   28.5020   -2.7120   20.0510 H   0  0  0  0  0  0  0  0  0  0  0  0
  1  2  1  0
  2  3  1  0
  3  4  1  0
  4  5  2  0
  4  6  1  0
  6  7  1  0
  7  8  2  0
  8  9  1  0
  9 10  2  0
 10 11  1  0
 10 12  1  0
 12 13  1  0
 12 14  2  0
  2 15  1  0
 15 16  2  0
 16 17  1  0
 17 18  2  0
 18 19  1  0
 19 20  2  0
 20 21  1  0
 21 22  2  0
 22 23  1  0
 14  7  1  0
 23 15  1  0
 22 17  1  0
  1 24  1  0
  1 25  1  0
  1 26  1  0
  2 27  1  6
  6 28  1  0
  8 29  1  0
  9 30  1  0
 14 31  1  0
 18 32  1  0
 19 33  1  0
 20 34  1  0
 21 35  1  0
 23 36  1  0
M  END
>  <meeko>  (3) 
{"is_sidechain": [false], "free_energy": -6.294, "intermolecular_energy": -7.819, "internal_energy": -0.505}

$$$$
3jvr_ligand
     RDKit          3D

 36 38  0  0  0  0  0  0  0  0999 V2000
   30.6730   -6.7810   27.1710 C   0  0  0  0  0  0  0  0  0  0  0  0
   29.4410   -7.3250   26.4560 C   0  0  2  0  0  0  0  0  0  0  0  0
   29.9040   -8.0760   25.3140 O   0  0  0  0  0  0  0  0  0  0  0  0
   30.3870   -7.3450   24.2780 C   0  0  0  0  0  0  0  0  0  0  0  0
   31.5300   -6.9170   24.2200 O   0  0  0  0  0  0  0  0  0  0  0  0
   29.3900   -7.2110   23.3550 N   0  0  0  0  0  0  0  0  0  0  0  0
   29.4230   -6.5400   22.1210 C   0  0  0  0  0  0  0  0  0  0  0  0
   28.9620   -5.2180   22.1010 C   0  0  0  0  0  0  0  0  0  0  0  0
   28.9600   -4.4820   20.9120 C   0  0  0  0  0  0  0  0  0  0  0  0
   29.4230   -5.0600   19.7300 C   0  0  0  0  0  0  0  0  0  0  0  0
   29.3950   -4.0950   18.2980 Cl  0  0  0  0  0  0  0  0  0  0  0  0
   29.8860   -6.3790   19.7410 C   0  0  0  0  0  0  0  0  0  0  0  0
   30.4750   -7.1610   18.3160 Cl  0  0  0  0  0  0  0  0  0  0  0  0
   29.8870   -7.1140   20.9350 C   0  0  0  0  0  0  0  0  0  0  0  0
   28.5510   -6.2240   25.9620 C   0  0  0  0  0  0  0  0  0  0  0  0
   27.3290   -6.3230   25.4740 N   0  0  0  0  0  0  0  0  0  0  0  0
   26.9460   -5.0410   25.1640 C   0  0  0  0  0  0  0  0  0  0  0  0
   25.7440   -4.5700   24.6170 C   0  0  0  0  0  0  0  0  0  0  0  0
   25.5980   -3.1930   24.4020 C   0  0  0  0  0  0  0  0  0  0  0  0
   26.6270   -2.3060   24.7240 C   0  0  0  0  0  0  0  0  0  0  0  0
   27.8350   -2.7570   25.2710 C   0  0  0  0  0  0  0  0  0  0  0  0
   27.9540   -4.1340   25.4720 C   0  0  0  0  0  0  0  0  0  0  0  0
   28.9620   -4.9100   25.9750 N   0  0  0  0  0  0  0  0  0  0  0  0
   30.5244   -6.8466   28.2589 H   0  0  0  0  0  0  0  0  0  0  0  0
   31.5545   -7.3736   26.8849 H   0  0  0  0  0  0  0  0  0  0  0  0
   30.8289   -5.7304   26.8849 H   0  0  0  0  0  0  0  0  0  0  0  0
   28.8628   -7.9414   27.1601 H   0  0  0  0  0  0  0  0  0  0  0  0
   28.5370   -7.6860   23.6190 H   0  0  0  0  0  0  0  0  0  0  0  0
   28.5979   -4.7540   23.0295 H   0  0  0  0  0  0  0  0  0  0  0  0
   28.5926   -3.4452   20.9088 H   0  0  0  0  0  0  0  0  0  0  0  0
   30.2559   -8.1503   20.9378 H   0  0  0  0  0  0  0  0  0  0  0  0
   24.9322   -5.2671   24.3619 H   0  0  0  0  0  0  0  0  0  0  0  0
   24.6613   -2.8062   23.9743 H   0  0  0  0  0  0  0  0  0  0  0  0
   26.4860   -1.2300   24.5443 H   0  0  0  0  0  0  0  0  0  0  0  0
   28.6481   -2.0625   25.5290 H   0  0  0  0  0  0  0  0  0  0  0  0
   29.8490   -4.5850   26.3420 H   0  0  0  0  0  0  0  0  0  0  0  0
  1  2  1  0
  2  3  1  0
  3  4  1  0
  4  5  2  0
  4  6  1  0
  6  7  1  0
  7  8  2  0
  8  9  1  0
  9 10  2  0
 10 11  1  0
 10 12  1  0
 12 13  1  0
 12 14  2  0
  2 15  1  0
 15 16  2  0
 16 17  1  0
 17 18  2  0
 18 19  1  0
 19 20  2  0
 20 21  1  0
 21 22  2  0
 22 23  1  0
 14  7  1  0
 23 15  1  0
 22 17  1  0
  1 24  1  0
  1 25  1  0
  1 26  1  0
  2 27  1  1
  6 28  1  0
  8 29  1  0
  9 30  1  0
 14 31  1  0
 18 32  1  0
 19 33  1  0
 20 34  1  0
 21 35  1  0
 23 36  1  0
M  END
>  <meeko>  (4) 
{"is_sidechain": [false], "free_energy": -6.275, "intermolecular_energy": -7.757, "internal_energy": -0.543}

$$$$
3jvr_ligand
     RDKit          3D

 36 38  0  0  0  0  0  0  0  0999 V2000
   31.6310   -5.6080   18.6330 C   0  0  0  0  0  0  0  0  0  0  0  0
   30.1410   -5.3100   18.5150 C   0  0  2  0  0  0  0  0  0  0  0  0
   30.0060   -4.0770   17.7790 O   0  0  0  0  0  0  0  0  0  0  0  0
   31.1280   -3.6270   17.1630 C   0  0  0  0  0  0  0  0  0  0  0  0
   31.5180   -4.0290   16.0760 O   0  0  0  0  0  0  0  0  0  0  0  0
   31.6910   -2.6700   17.9570 N   0  0  0  0  0  0  0  0  0  0  0  0
   32.8590   -1.9210   17.7330 C   0  0  0  0  0  0  0  0  0  0  0  0
   32.6980   -0.5640   17.4330 C   0  0  0  0  0  0  0  0  0  0  0  0
   33.8110    0.2500   17.1960 C   0  0  0  0  0  0  0  0  0  0  0  0
   35.0970   -0.2860   17.2580 C   0  0  0  0  0  0  0  0  0  0  0  0
   36.4260    0.7740   16.9540 Cl  0  0  0  0  0  0  0  0  0  0  0  0
   35.2660   -1.6410   17.5580 C   0  0  0  0  0  0  0  0  0  0  0  0
   36.8290   -2.3750   17.6540 Cl  0  0  0  0  0  0  0  0  0  0  0  0
   34.1490   -2.4540   17.7960 C   0  0  0  0  0  0  0  0  0  0  0  0
   29.5010   -5.1270   19.8580 C   0  0  0  0  0  0  0  0  0  0  0  0
   29.5360   -5.9420   20.8950 N   0  0  0  0  0  0  0  0  0  0  0  0
   28.7980   -5.3280   21.8780 C   0  0  0  0  0  0  0  0  0  0  0  0
   28.5100   -5.7530   23.1830 C   0  0  0  0  0  0  0  0  0  0  0  0
   27.7300   -4.9250   24.0010 C   0  0  0  0  0  0  0  0  0  0  0  0
   27.2480   -3.7020   23.5300 C   0  0  0  0  0  0  0  0  0  0  0  0
   27.5250   -3.2610   22.2300 C   0  0  0  0  0  0  0  0  0  0  0  0
   28.3020   -4.1060   21.4360 C   0  0  0  0  0  0  0  0  0  0  0  0
   28.7600   -4.0040   20.1500 N   0  0  0  0  0  0  0  0  0  0  0  0
   31.9107   -5.6639   19.6954 H   0  0  0  0  0  0  0  0  0  0  0  0
   31.8527   -6.5683   18.1444 H   0  0  0  0  0  0  0  0  0  0  0  0
   32.2050   -4.8069   18.1444 H   0  0  0  0  0  0  0  0  0  0  0  0
   29.6466   -6.1553   18.0140 H   0  0  0  0  0  0  0  0  0  0  0  0
   31.1600   -2.4890   18.7990 H   0  0  0  0  0  0  0  0  0  0  0  0
   31.6871   -0.1331   17.3830 H   0  0  0  0  0  0  0  0  0  0  0  0
   33.6714    1.3153   16.9602 H   0  0  0  0  0  0  0  0  0  0  0  0
   34.2891   -3.5188   18.0340 H   0  0  0  0  0  0  0  0  0  0  0  0
   28.8884   -6.7160   23.5565 H   0  0  0  0  0  0  0  0  0  0  0  0
   27.4943   -5.2425   25.0275 H   0  0  0  0  0  0  0  0  0  0  0  0
   26.6380   -3.0718   24.1939 H   0  0  0  0  0  0  0  0  0  0  0  0
   27.1494   -2.2979   21.8539 H   0  0  0  0  0  0  0  0  0  0  0  0
   28.6250   -3.2200   19.5230 H   0  0  0  0  0  0  0  0  0  0  0  0
  1  2  1  0
  2  3  1  0
  3  4  1  0
  4  5  2  0
  4  6  1  0
  6  7  1  0
  7  8  2  0
  8  9  1  0
  9 10  2  0
 10 11  1  0
 10 12  1  0
 12 13  1  0
 12 14  2  0
  2 15  1  0
 15 16  2  0
 16 17  1  0
 17 18  2  0
 18 19  1  0
 19 20  2  0
 20 21  1  0
 21 22  2  0
 22 23  1  0
 14  7  1  0
 23 15  1  0
 22 17  1  0
  1 24  1  0
  1 25  1  0
  1 26  1  0
  2 27  1  6
  6 28  1  0
  8 29  1  0
  9 30  1  0
 14 31  1  0
 18 32  1  0
 19 33  1  0
 20 34  1  0
 21 35  1  0
 23 36  1  0
M  END
>  <meeko>  (5) 
{"is_sidechain": [false], "free_energy": -6.195, "intermolecular_energy": -8.251, "internal_energy": 0.048}

$$$$
3jvr_ligand
     RDKit          3D

 36 38  0  0  0  0  0  0  0  0999 V2000
   27.5540   -3.1000   26.1040 C   0  0  0  0  0  0  0  0  0  0  0  0
   28.0660   -4.0530   25.0320 C   0  0  2  0  0  0  0  0  0  0  0  0
   28.2300   -3.2890   23.8190 O   0  0  0  0  0  0  0  0  0  0  0  0
   29.1650   -3.7460   22.9500 C   0  0  0  0  0  0  0  0  0  0  0  0
   30.3690   -3.5970   23.1020 O   0  0  0  0  0  0  0  0  0  0  0  0
   28.5190   -4.3880   21.9330 N   0  0  0  0  0  0  0  0  0  0  0  0
   29.0710   -5.0230   20.8070 C   0  0  0  0  0  0  0  0  0  0  0  0
   29.4810   -6.3520   20.9630 C   0  0  0  0  0  0  0  0  0  0  0  0
   30.0410   -7.0550   19.8910 C   0  0  0  0  0  0  0  0  0  0  0  0
   30.1950   -6.4350   18.6510 C   0  0  0  0  0  0  0  0  0  0  0  0
   30.8930   -7.3600   17.3700 Cl  0  0  0  0  0  0  0  0  0  0  0  0
   29.7870   -5.1080   18.4870 C   0  0  0  0  0  0  0  0  0  0  0  0
   29.9440   -4.2750   16.9800 Cl  0  0  0  0  0  0  0  0  0  0  0  0
   29.2250   -4.4060   19.5630 C   0  0  0  0  0  0  0  0  0  0  0  0
   27.0940   -5.1610   24.7580 C   0  0  0  0  0  0  0  0  0  0  0  0
   27.3570   -6.4030   24.3970 N   0  0  0  0  0  0  0  0  0  0  0  0
   26.1360   -7.0200   24.2700 C   0  0  0  0  0  0  0  0  0  0  0  0
   25.8300   -8.3410   23.9100 C   0  0  0  0  0  0  0  0  0  0  0  0
   24.4850   -8.7290   23.8610 C   0  0  0  0  0  0  0  0  0  0  0  0
   23.4670   -7.8220   24.1640 C   0  0  0  0  0  0  0  0  0  0  0  0
   23.7520   -6.4990   24.5250 C   0  0  0  0  0  0  0  0  0  0  0  0
   25.1010   -6.1390   24.5630 C   0  0  0  0  0  0  0  0  0  0  0  0
   25.7360   -4.9660   24.8670 N   0  0  0  0  0  0  0  0  0  0  0  0
   27.7762   -3.5136   27.0988 H   0  0  0  0  0  0  0  0  0  0  0  0
   28.0492   -2.1240   25.9938 H   0  0  0  0  0  0  0  0  0  0  0  0
   26.4668   -2.9741   25.9938 H   0  0  0  0  0  0  0  0  0  0  0  0
   29.0082   -4.5032   25.3777 H   0  0  0  0  0  0  0  0  0  0  0  0
   27.5150   -4.4050   22.0490 H   0  0  0  0  0  0  0  0  0  0  0  0
   29.3618   -6.8483   21.9374 H   0  0  0  0  0  0  0  0  0  0  0  0
   30.3605   -8.0988   20.0262 H   0  0  0  0  0  0  0  0  0  0  0  0
   28.9034   -3.3629   19.4267 H   0  0  0  0  0  0  0  0  0  0  0  0
   26.6299   -9.0573   23.6711 H   0  0  0  0  0  0  0  0  0  0  0  0
   24.2273   -9.7609   23.5804 H   0  0  0  0  0  0  0  0  0  0  0  0
   22.4192   -8.1537   24.1182 H   0  0  0  0  0  0  0  0  0  0  0  0
   22.9546   -5.7806   24.7661 H   0  0  0  0  0  0  0  0  0  0  0  0
   25.2980   -4.1040   25.1700 H   0  0  0  0  0  0  0  0  0  0  0  0
  1  2  1  0
  2  3  1  0
  3  4  1  0
  4  5  2  0
  4  6  1  0
  6  7  1  0
  7  8  2  0
  8  9  1  0
  9 10  2  0
 10 11  1  0
 10 12  1  0
 12 13  1  0
 12 14  2  0
  2 15  1  0
 15 16  2  0
 16 17  1  0
 17 18  2  0
 18 19  1  0
 19 20  2  0
 20 21  1  0
 21 22  2  0
 22 23  1  0
 14  7  1  0
 23 15  1  0
 22 17  1  0
  1 24  1  0
  1 25  1  0
  1 26  1  0
  2 27  1  1
  6 28  1  0
  8 29  1  0
  9 30  1  0
 14 31  1  0
 18 32  1  0
 19 33  1  0
 20 34  1  0
 21 35  1  0
 23 36  1  0
M  END
>  <meeko>  (6) 
{"is_sidechain": [false], "free_energy": -6.027, "intermolecular_energy": -7.311, "internal_energy": -0.683}

$$$$
3jvr_ligand
     RDKit          3D

 36 38  0  0  0  0  0  0  0  0999 V2000
   31.4550   -4.9590   16.1570 C   0  0  0  0  0  0  0  0  0  0  0  0
   31.7270   -4.4040   17.5500 C   0  0  2  0  0  0  0  0  0  0  0  0
   30.4500   -4.1210   18.1570 O   0  0  0  0  0  0  0  0  0  0  0  0
   30.1780   -4.7870   19.3070 C   0  0  0  0  0  0  0  0  0  0  0  0
   30.7530   -5.8090   19.6560 O   0  0  0  0  0  0  0  0  0  0  0  0
   29.1960   -4.1070   19.9680 N   0  0  0  0  0  0  0  0  0  0  0  0
   28.5940   -4.4150   21.1990 C   0  0  0  0  0  0  0  0  0  0  0  0
   27.7660   -3.4380   21.7660 C   0  0  0  0  0  0  0  0  0  0  0  0
   27.1310   -3.6660   22.9900 C   0  0  0  0  0  0  0  0  0  0  0  0
   27.3150   -4.8750   23.6610 C   0  0  0  0  0  0  0  0  0  0  0  0
   26.5010   -5.0910   25.1690 Cl  0  0  0  0  0  0  0  0  0  0  0  0
   28.1390   -5.8560   23.1020 C   0  0  0  0  0  0  0  0  0  0  0  0
   28.4140   -7.3780   23.8750 Cl  0  0  0  0  0  0  0  0  0  0  0  0
   28.7750   -5.6250   21.8740 C   0  0  0  0  0  0  0  0  0  0  0  0
   32.5130   -3.1280   17.4990 C   0  0  0  0  0  0  0  0  0  0  0  0
   32.0590   -1.8900   17.5460 N   0  0  0  0  0  0  0  0  0  0  0  0
   33.1670   -1.0830   17.4630 C   0  0  0  0  0  0  0  0  0  0  0  0
   33.2610    0.3170   17.4680 C   0  0  0  0  0  0  0  0  0  0  0  0
   34.5300    0.9040   17.3780 C   0  0  0  0  0  0  0  0  0  0  0  0
   35.6790    0.1160   17.2840 C   0  0  0  0  0  0  0  0  0  0  0  0
   35.6050   -1.2830   17.2770 C   0  0  0  0  0  0  0  0  0  0  0  0
   34.3280   -1.8410   17.3660 C   0  0  0  0  0  0  0  0  0  0  0  0
   33.8850   -3.1360   17.3880 N   0  0  0  0  0  0  0  0  0  0  0  0
   30.9724   -5.9438   16.2425 H   0  0  0  0  0  0  0  0  0  0  0  0
   30.7916   -4.2717   15.6115 H   0  0  0  0  0  0  0  0  0  0  0  0
   32.4046   -5.0622   15.6115 H   0  0  0  0  0  0  0  0  0  0  0  0
   32.3105   -5.1422   18.1197 H   0  0  0  0  0  0  0  0  0  0  0  0
   28.9030   -3.2670   19.4870 H   0  0  0  0  0  0  0  0  0  0  0  0
   27.6140   -2.4823   21.2431 H   0  0  0  0  0  0  0  0  0  0  0  0
   26.4844   -2.8899   23.4254 H   0  0  0  0  0  0  0  0  0  0  0  0
   29.4210   -6.4018   21.4389 H   0  0  0  0  0  0  0  0  0  0  0  0
   32.3576    0.9404   17.5410 H   0  0  0  0  0  0  0  0  0  0  0  0
   34.6224    2.0001   17.3814 H   0  0  0  0  0  0  0  0  0  0  0  0
   36.6625    0.6038   17.2140 H   0  0  0  0  0  0  0  0  0  0  0  0
   36.5063   -1.9095   17.2051 H   0  0  0  0  0  0  0  0  0  0  0  0
   34.4600   -3.9700   17.3740 H   0  0  0  0  0  0  0  0  0  0  0  0
  1  2  1  0
  2  3  1  0
  3  4  1  0
  4  5  2  0
  4  6  1  0
  6  7  1  0
  7  8  2  0
  8  9  1  0
  9 10  2  0
 10 11  1  0
 10 12  1  0
 12 13  1  0
 12 14  2  0
  2 15  1  0
 15 16  2  0
 16 17  1  0
 17 18  2  0
 18 19  1  0
 19 20  2  0
 20 21  1  0
 21 22  2  0
 22 23  1  0
 14  7  1  0
 23 15  1  0
 22 17  1  0
  1 24  1  0
  1 25  1  0
  1 26  1  0
  2 27  1  1
  6 28  1  0
  8 29  1  0
  9 30  1  0
 14 31  1  0
 18 32  1  0
 19 33  1  0
 20 34  1  0
 21 35  1  0
 23 36  1  0
M  END
>  <meeko>  (7) 
{"is_sidechain": [false], "free_energy": -5.914, "intermolecular_energy": -7.705, "internal_energy": -0.151}

$$$$
3jvr_ligand
     RDKit          3D

 36 38  0  0  0  0  0  0  0  0999 V2000
   29.9460   -8.1670   24.4660 C   0  0  0  0  0  0  0  0  0  0  0  0
   29.4070   -7.7290   23.1100 C   0  0  2  0  0  0  0  0  0  0  0  0
   30.5400   -7.3630   22.2950 O   0  0  0  0  0  0  0  0  0  0  0  0
   30.3330   -7.3620   20.9550 C   0  0  0  0  0  0  0  0  0  0  0  0
   29.9260   -8.3290   20.3270 O   0  0  0  0  0  0  0  0  0  0  0  0
   30.6390   -6.1190   20.4800 N   0  0  0  0  0  0  0  0  0  0  0  0
   30.5770   -5.6460   19.1590 C   0  0  0  0  0  0  0  0  0  0  0  0
   29.4430   -4.9070   18.7990 C   0  0  0  0  0  0  0  0  0  0  0  0
   29.3050   -4.4020   17.5020 C   0  0  0  0  0  0  0  0  0  0  0  0
   30.3000   -4.6290   16.5510 C   0  0  0  0  0  0  0  0  0  0  0  0
   30.0650   -3.9770   14.9700 Cl  0  0  0  0  0  0  0  0  0  0  0  0
   31.4350   -5.3660   16.9030 C   0  0  0  0  0  0  0  0  0  0  0  0
   32.7090   -5.6860   15.7790 Cl  0  0  0  0  0  0  0  0  0  0  0  0
   31.5720   -5.8700   18.2040 C   0  0  0  0  0  0  0  0  0  0  0  0
   28.5090   -6.5340   23.2250 C   0  0  0  0  0  0  0  0  0  0  0  0
   28.5650   -5.4050   22.5450 N   0  0  0  0  0  0  0  0  0  0  0  0
   27.5310   -4.6340   23.0170 C   0  0  0  0  0  0  0  0  0  0  0  0
   27.1310   -3.3420   22.6440 C   0  0  0  0  0  0  0  0  0  0  0  0
   26.0220   -2.7720   23.2830 C   0  0  0  0  0  0  0  0  0  0  0  0
   25.3280   -3.4730   24.2720 C   0  0  0  0  0  0  0  0  0  0  0  0
   25.7120   -4.7630   24.6580 C   0  0  0  0  0  0  0  0  0  0  0  0
   26.8220   -5.3050   24.0070 C   0  0  0  0  0  0  0  0  0  0  0  0
   27.4640   -6.5080   24.1220 N   0  0  0  0  0  0  0  0  0  0  0  0
   29.3594   -7.6903   25.2651 H   0  0  0  0  0  0  0  0  0  0  0  0
   29.8675   -9.2605   24.5560 H   0  0  0  0  0  0  0  0  0  0  0  0
   31.0003   -7.8665   24.5560 H   0  0  0  0  0  0  0  0  0  0  0  0
   28.8233   -8.5540   22.6756 H   0  0  0  0  0  0  0  0  0  0  0  0
   30.9260   -5.4760   21.2060 H   0  0  0  0  0  0  0  0  0  0  0  0
   28.6540   -4.7221   19.5428 H   0  0  0  0  0  0  0  0  0  0  0  0
   28.4091   -3.8241   17.2310 H   0  0  0  0  0  0  0  0  0  0  0  0
   32.4692   -6.4459   18.4749 H   0  0  0  0  0  0  0  0  0  0  0  0
   27.6767   -2.7880   21.8660 H   0  0  0  0  0  0  0  0  0  0  0  0
   25.6939   -1.7602   23.0025 H   0  0  0  0  0  0  0  0  0  0  0  0
   24.4612   -3.0015   24.7580 H   0  0  0  0  0  0  0  0  0  0  0  0
   25.1673   -5.3207   25.4341 H   0  0  0  0  0  0  0  0  0  0  0  0
   27.2000   -7.2780   24.7250 H   0  0  0  0  0  0  0  0  0  0  0  0
  1  2  1  0
  2  3  1  0
  3  4  1  0
  4  5  2  0
  4  6  1  0
  6  7  1  0
  7  8  2  0
  8  9  1  0
  9 10  2  0
 10 11  1  0
 10 12  1  0
 12 13  1  0
 12 14  2  0
  2 15  1  0
 15 16  2  0
 16 17  1  0
 17 18  2  0
 18 19  1  0
 19 20  2  0
 20 21  1  0
 21 22  2  0
 22 23  1  0
 14  7  1  0
 23 15  1  0
 22 17  1  0
  1 24  1  0
  1 25  1  0
  1 26  1  0
  2 27  1  6
  6 28  1  0
  8 29  1  0
  9 30  1  0
 14 31  1  0
 18 32  1  0
 19 33  1  0
 20 34  1  0
 21 35  1  0
 23 36  1  0
M  END
>  <meeko>  (8) 
{"is_sidechain": [false], "free_energy": -5.857, "intermolecular_energy": -7.223, "internal_energy": -0.562}

$$$$
3jvr_ligand
     RDKit          3D

 36 38  0  0  0  0  0  0  0  0999 V2000
   27.5570   -3.0070   25.6970 C   0  0  0  0  0  0  0  0  0  0  0  0
   27.9460   -4.1030   24.7130 C   0  0  2  0  0  0  0  0  0  0  0  0
   28.1050   -3.4830   23.4200 O   0  0  0  0  0  0  0  0  0  0  0  0
   29.1690   -3.8990   22.6880 C   0  0  0  0  0  0  0  0  0  0  0  0
   30.3330   -3.7390   23.0250 O   0  0  0  0  0  0  0  0  0  0  0  0
   28.6950   -4.5140   21.5660 N   0  0  0  0  0  0  0  0  0  0  0  0
   29.4210   -5.1040   20.5170 C   0  0  0  0  0  0  0  0  0  0  0  0
   29.4080   -4.4450   19.2820 C   0  0  0  0  0  0  0  0  0  0  0  0
   30.1050   -4.9680   18.1890 C   0  0  0  0  0  0  0  0  0  0  0  0
   30.8240   -6.1560   18.3190 C   0  0  0  0  0  0  0  0  0  0  0  0
   31.6620   -6.7450   16.9280 Cl  0  0  0  0  0  0  0  0  0  0  0  0
   30.8430   -6.8200   19.5490 C   0  0  0  0  0  0  0  0  0  0  0  0
   31.7130   -8.2950   19.7860 Cl  0  0  0  0  0  0  0  0  0  0  0  0
   30.1440   -6.2930   20.6440 C   0  0  0  0  0  0  0  0  0  0  0  0
   26.8840   -5.1550   24.5990 C   0  0  0  0  0  0  0  0  0  0  0  0
   25.5830   -5.0200   24.7750 N   0  0  0  0  0  0  0  0  0  0  0  0
   25.0470   -6.2670   24.5620 C   0  0  0  0  0  0  0  0  0  0  0  0
   23.7120   -6.6920   24.6170 C   0  0  0  0  0  0  0  0  0  0  0  0
   23.4230   -8.0360   24.3470 C   0  0  0  0  0  0  0  0  0  0  0  0
   24.4420   -8.9370   24.0300 C   0  0  0  0  0  0  0  0  0  0  0  0
   25.7810   -8.5320   23.9700 C   0  0  0  0  0  0  0  0  0  0  0  0
   26.0400   -7.1880   24.2460 C   0  0  0  0  0  0  0  0  0  0  0  0
   27.1970   -6.4570   24.2790 N   0  0  0  0  0  0  0  0  0  0  0  0
   27.6874   -3.3745   26.7256 H   0  0  0  0  0  0  0  0  0  0  0  0
   28.1978   -2.1271   25.5380 H   0  0  0  0  0  0  0  0  0  0  0  0
   26.5049   -2.7280   25.5380 H   0  0  0  0  0  0  0  0  0  0  0  0
   28.8688   -4.5868   25.0658 H   0  0  0  0  0  0  0  0  0  0  0  0
   27.6850   -4.5490   21.5270 H   0  0  0  0  0  0  0  0  0  0  0  0
   28.8442   -3.5071   19.1707 H   0  0  0  0  0  0  0  0  0  0  0  0
   30.0864   -4.4411   17.2236 H   0  0  0  0  0  0  0  0  0  0  0  0
   30.1648   -6.8191   21.6098 H   0  0  0  0  0  0  0  0  0  0  0  0
   22.9078   -5.9844   24.8671 H   0  0  0  0  0  0  0  0  0  0  0  0
   22.3808   -8.3859   24.3851 H   0  0  0  0  0  0  0  0  0  0  0  0
   24.1873   -9.9869   23.8231 H   0  0  0  0  0  0  0  0  0  0  0  0
   26.5875   -9.2365   23.7183 H   0  0  0  0  0  0  0  0  0  0  0  0
   28.1280   -6.7910   24.0610 H   0  0  0  0  0  0  0  0  0  0  0  0
  1  2  1  0
  2  3  1  0
  3  4  1  0
  4  5  2  0
  4  6  1  0
  6  7  1  0
  7  8  2  0
  8  9  1  0
  9 10  2  0
 10 11  1  0
 10 12  1  0
 12 13  1  0
 12 14  2  0
  2 15  1  0
 15 16  2  0
 16 17  1  0
 17 18  2  0
 18 19  1  0
 19 20  2  0
 20 21  1  0
 21 22  2  0
 22 23  1  0
 14  7  1  0
 23 15  1  0
 22 17  1  0
  1 24  1  0
  1 25  1  0
  1 26  1  0
  2 27  1  1
  6 28  1  0
  8 29  1  0
  9 30  1  0
 14 31  1  0
 18 32  1  0
 19 33  1  0
 20 34  1  0
 21 35  1  0
 23 36  1  0
M  END
>  <meeko>  (9) 
{"is_sidechain": [false], "free_energy": -5.759, "intermolecular_energy": -7.029, "internal_energy": -0.636}

$$$$
