4f9w_ligand
     RDKit          3D

 43 46  0  0  0  0  0  0  0  0999 V2000
    1.0400    4.4530   22.8540 C   0  0  0  0  0  0  0  0  0  0  0  0
    0.1180    3.5300   23.5200 N   0  0  0  0  0  0  0  0  0  0  0  0
    0.7800    2.5470   24.3800 C   0  0  0  0  0  0  0  0  0  0  0  0
   -0.7950    2.9370   22.6180 C   0  0  0  0  0  0  0  0  0  0  0  0
   -1.2360    1.6340   22.8290 C   0  0  0  0  0  0  0  0  0  0  0  0
   -2.1540    1.0180   21.9590 C   0  0  0  0  0  0  0  0  0  0  0  0
   -2.5530   -0.3780   22.2160 C   0  0  0  0  0  0  0  0  0  0  0  0
   -2.2120   -1.4070   21.3310 C   0  0  0  0  0  0  0  0  0  0  0  0
   -2.6120   -2.7030   21.6220 C   0  0  0  0  0  0  0  0  0  0  0  0
   -3.3110   -3.0420   22.7240 N   0  0  0  0  0  0  0  0  0  0  0  0
   -3.6270   -2.0420   23.5720 C   0  0  0  0  0  0  0  0  0  0  0  0
   -3.2750   -0.7180   23.3670 C   0  0  0  0  0  0  0  0  0  0  0  0
   -2.6170    1.7770   20.8760 C   0  0  0  0  0  0  0  0  0  0  0  0
   -3.5850    1.3150   19.8670 C   0  0  0  0  0  0  0  0  0  0  0  0
   -4.9050    0.9790   20.2020 C   0  0  0  0  0  0  0  0  0  0  0  0
   -5.8050    0.5260   19.2320 C   0  0  0  0  0  0  0  0  0  0  0  0
   -5.4140    0.4100   17.8910 C   0  0  0  0  0  0  0  0  0  0  0  0
   -6.3040   -0.0430   16.9050 C   0  0  0  0  0  0  0  0  0  0  0  0
   -5.9000   -0.1460   15.5730 C   0  0  0  0  0  0  0  0  0  0  0  0
   -4.6030    0.2040   15.2110 C   0  0  0  0  0  0  0  0  0  0  0  0
   -3.7060    0.6570   16.1810 C   0  0  0  0  0  0  0  0  0  0  0  0
   -4.0970    0.7640   17.5260 C   0  0  0  0  0  0  0  0  0  0  0  0
   -3.2050    1.2140   18.5150 C   0  0  0  0  0  0  0  0  0  0  0  0
   -2.1780    3.0410   20.6860 N   0  0  0  0  0  0  0  0  0  0  0  0
   -1.2800    3.6170   21.5620 N   0  0  0  0  0  0  0  0  0  0  0  0
    1.6040    5.0177   23.6110 H   0  0  0  0  0  0  0  0  0  0  0  0
    1.7396    3.8825   22.2254 H   0  0  0  0  0  0  0  0  0  0  0  0
    0.4687    5.1520   22.2254 H   0  0  0  0  0  0  0  0  0  0  0  0
    0.6055    2.8061   25.4347 H   0  0  0  0  0  0  0  0  0  0  0  0
    0.3709    1.5465   24.1757 H   0  0  0  0  0  0  0  0  0  0  0  0
    1.8609    2.5499   24.1757 H   0  0  0  0  0  0  0  0  0  0  0  0
   -0.8580    1.0727   23.6962 H   0  0  0  0  0  0  0  0  0  0  0  0
   -1.6359   -1.1916   20.4190 H   0  0  0  0  0  0  0  0  0  0  0  0
   -2.3435   -3.4999   20.9129 H   0  0  0  0  0  0  0  0  0  0  0  0
   -4.1972   -2.2922   24.4788 H   0  0  0  0  0  0  0  0  0  0  0  0
   -3.5582    0.0546   24.0970 H   0  0  0  0  0  0  0  0  0  0  0  0
   -5.2382    1.0735   21.2461 H   0  0  0  0  0  0  0  0  0  0  0  0
   -6.8309    0.2578   19.5247 H   0  0  0  0  0  0  0  0  0  0  0  0
   -7.3311   -0.3199   17.1850 H   0  0  0  0  0  0  0  0  0  0  0  0
   -6.6067   -0.5037   14.8098 H   0  0  0  0  0  0  0  0  0  0  0  0
   -4.2842    0.1240   14.1613 H   0  0  0  0  0  0  0  0  0  0  0  0
   -2.6821    0.9330   15.8885 H   0  0  0  0  0  0  0  0  0  0  0  0
   -2.1819    1.4950   18.2246 H   0  0  0  0  0  0  0  0  0  0  0  0
  1  2  1  0
  2  3  1  0
  2  4  1  0
  4  5  2  0
  5  6  1  0
  6  7  1  0
  7  8  2  0
  8  9  1  0
  9 10  2  0
 10 11  1  0
 11 12  2  0
  6 13  2  0
 13 14  1  0
 14 15  2  0
 15 16  1  0
 16 17  2  0
 17 18  1  0
 18 19  2  0
 19 20  1  0
 20 21  2  0
 21 22  1  0
 22 23  2  0
 13 24  1  0
 24 25  2  0
 25  4  1  0
 12  7  1  0
 23 14  1  0
 22 17  1  0
  1 26  1  0
  1 27  1  0
  1 28  1  0
  3 29  1  0
  3 30  1  0
  3 31  1  0
  5 32  1  0
  8 33  1  0
  9 34  1  0
 11 35  1  0
 12 36  1  0
 15 37  1  0
 16 38  1  0
 18 39  1  0
 19 40  1  0
 20 41  1  0
 21 42  1  0
 23 43  1  0
M  END
>  <meeko>  (1) 
{"is_sidechain": [false], "free_energy": -10.482, "intermolecular_energy": -12.32, "internal_energy": -0.931}

$$$$
4f9w_ligand
     RDKit          3D

 43 46  0  0  0  0  0  0  0  0999 V2000
   -0.5230   -1.5410   25.6880 C   0  0  0  0  0  0  0  0  0  0  0  0
    0.1550   -1.4420   24.3940 N   0  0  0  0  0  0  0  0  0  0  0  0
    1.4060   -0.6820   24.4340 C   0  0  0  0  0  0  0  0  0  0  0  0
   -0.7120   -1.0100   23.3640 C   0  0  0  0  0  0  0  0  0  0  0  0
   -0.7920    0.3430   23.0430 C   0  0  0  0  0  0  0  0  0  0  0  0
   -1.6330    0.8060   22.0150 C   0  0  0  0  0  0  0  0  0  0  0  0
   -1.7020    2.2540   21.7490 C   0  0  0  0  0  0  0  0  0  0  0  0
   -2.6360    3.0700   22.3990 C   0  0  0  0  0  0  0  0  0  0  0  0
   -2.6560    4.4270   22.1120 C   0  0  0  0  0  0  0  0  0  0  0  0
   -1.8160    5.0220   21.2410 N   0  0  0  0  0  0  0  0  0  0  0  0
   -0.9170    4.2260   20.6280 C   0  0  0  0  0  0  0  0  0  0  0  0
   -0.8210    2.8620   20.8450 C   0  0  0  0  0  0  0  0  0  0  0  0
   -2.3790   -0.1530   21.3170 C   0  0  0  0  0  0  0  0  0  0  0  0
   -3.3020    0.1310   20.2060 C   0  0  0  0  0  0  0  0  0  0  0  0
   -4.6800    0.2970   20.4080 C   0  0  0  0  0  0  0  0  0  0  0  0
   -5.5440    0.5500   19.3380 C   0  0  0  0  0  0  0  0  0  0  0  0
   -5.0500    0.6580   18.0300 C   0  0  0  0  0  0  0  0  0  0  0  0
   -5.9030    0.9090   16.9440 C   0  0  0  0  0  0  0  0  0  0  0  0
   -5.3940    1.0210   15.6490 C   0  0  0  0  0  0  0  0  0  0  0  0
   -4.0270    0.8840   15.4250 C   0  0  0  0  0  0  0  0  0  0  0  0
   -3.1670    0.6330   16.4960 C   0  0  0  0  0  0  0  0  0  0  0  0
   -3.6640    0.5160   17.8040 C   0  0  0  0  0  0  0  0  0  0  0  0
   -2.8110    0.2590   18.8930 C   0  0  0  0  0  0  0  0  0  0  0  0
   -2.2890   -1.4620   21.6430 N   0  0  0  0  0  0  0  0  0  0  0  0
   -1.4490   -1.8840   22.6540 N   0  0  0  0  0  0  0  0  0  0  0  0
    0.2141   -1.4334   26.4974 H   0  0  0  0  0  0  0  0  0  0  0  0
   -1.2760   -0.7433   25.7694 H   0  0  0  0  0  0  0  0  0  0  0  0
   -1.0165   -2.5207   25.7694 H   0  0  0  0  0  0  0  0  0  0  0  0
    1.6950   -0.5064   25.4807 H   0  0  0  0  0  0  0  0  0  0  0  0
    2.1977   -1.2519   23.9257 H   0  0  0  0  0  0  0  0  0  0  0  0
    1.2650    0.2833   23.9257 H   0  0  0  0  0  0  0  0  0  0  0  0
   -0.1836    1.0659   23.6063 H   0  0  0  0  0  0  0  0  0  0  0  0
   -3.3424    2.6419   23.1254 H   0  0  0  0  0  0  0  0  0  0  0  0
   -3.4003    5.0541   22.6247 H   0  0  0  0  0  0  0  0  0  0  0  0
   -0.2190    4.6872   19.9137 H   0  0  0  0  0  0  0  0  0  0  0  0
   -0.0643    2.2645   20.3155 H   0  0  0  0  0  0  0  0  0  0  0  0
   -5.0886    0.2269   21.4269 H   0  0  0  0  0  0  0  0  0  0  0  0
   -6.6220    0.6655   19.5242 H   0  0  0  0  0  0  0  0  0  0  0  0
   -6.9841    1.0186   17.1152 H   0  0  0  0  0  0  0  0  0  0  0  0
   -6.0728    1.2174   14.8060 H   0  0  0  0  0  0  0  0  0  0  0  0
   -3.6246    0.9734   14.4052 H   0  0  0  0  0  0  0  0  0  0  0  0
   -2.0877    0.5257   16.3129 H   0  0  0  0  0  0  0  0  0  0  0  0
   -1.7307    0.1552   18.7134 H   0  0  0  0  0  0  0  0  0  0  0  0
  1  2  1  0
  2  3  1  0
  2  4  1  0
  4  5  2  0
  5  6  1  0
  6  7  1  0
  7  8  2  0
  8  9  1  0
  9 10  2  0
 10 11  1  0
 11 12  2  0
  6 13  2  0
 13 14  1  0
 14 15  2  0
 15 16  1  0
 16 17  2  0
 17 18  1  0
 18 19  2  0
 19 20  1  0
 20 21  2  0
 21 22  1  0
 22 23  2  0
 13 24  1  0
 24 25  2  0
 25  4  1  0
 12  7  1  0
 23 14  1  0
 22 17  1  0
  1 26  1  0
  1 27  1  0
  1 28  1  0
  3 29  1  0
  3 30  1  0
  3 31  1  0
  5 32  1  0
  8 33  1  0
  9 34  1  0
 11 35  1  0
 12 36  1  0
 15 37  1  0
 16 38  1  0
 18 39  1  0
 19 40  1  0
 20 41  1  0
 21 42  1  0
 23 43  1  0
M  END
>  <meeko>  (2) 
{"is_sidechain": [false], "free_energy": -9.972, "intermolecular_energy": -11.449, "internal_energy": -1.202}

$$$$
4f9w_ligand
     RDKit          3D

 43 46  0  0  0  0  0  0  0  0999 V2000
    0.2560    0.8170   26.3590 C   0  0  0  0  0  0  0  0  0  0  0  0
   -1.1090    0.3190   26.1760 N   0  0  0  0  0  0  0  0  0  0  0  0
   -1.3190   -1.0390   26.6840 C   0  0  0  0  0  0  0  0  0  0  0  0
   -1.5660    0.4800   24.8480 C   0  0  0  0  0  0  0  0  0  0  0  0
   -1.4780    1.7230   24.2270 C   0  0  0  0  0  0  0  0  0  0  0  0
   -1.9110    1.9150   22.9020 C   0  0  0  0  0  0  0  0  0  0  0  0
   -1.8270    3.2640   22.3150 C   0  0  0  0  0  0  0  0  0  0  0  0
   -0.6810    3.6930   21.6340 C   0  0  0  0  0  0  0  0  0  0  0  0
   -0.6560    4.9720   21.1000 C   0  0  0  0  0  0  0  0  0  0  0  0
   -1.6840    5.8410   21.1870 N   0  0  0  0  0  0  0  0  0  0  0  0
   -2.7840    5.4140   21.8390 C   0  0  0  0  0  0  0  0  0  0  0  0
   -2.9030    4.1570   22.4080 C   0  0  0  0  0  0  0  0  0  0  0  0
   -2.4230    0.8000   22.2280 C   0  0  0  0  0  0  0  0  0  0  0  0
   -2.9130    0.7960   20.8390 C   0  0  0  0  0  0  0  0  0  0  0  0
   -2.0750    1.0970   19.7550 C   0  0  0  0  0  0  0  0  0  0  0  0
   -2.5630    1.1050   18.4440 C   0  0  0  0  0  0  0  0  0  0  0  0
   -3.9050    0.7980   18.1770 C   0  0  0  0  0  0  0  0  0  0  0  0
   -4.4110    0.8030   16.8690 C   0  0  0  0  0  0  0  0  0  0  0  0
   -5.7480    0.4880   16.6210 C   0  0  0  0  0  0  0  0  0  0  0  0
   -6.5940    0.1630   17.6770 C   0  0  0  0  0  0  0  0  0  0  0  0
   -6.1040    0.1540   18.9840 C   0  0  0  0  0  0  0  0  0  0  0  0
   -4.7620    0.4710   19.2500 C   0  0  0  0  0  0  0  0  0  0  0  0
   -4.2540    0.4710   20.5620 C   0  0  0  0  0  0  0  0  0  0  0  0
   -2.5010   -0.4000   22.8470 N   0  0  0  0  0  0  0  0  0  0  0  0
   -2.0620   -0.5560   24.1460 N   0  0  0  0  0  0  0  0  0  0  0  0
    0.4760    0.8973   27.4338 H   0  0  0  0  0  0  0  0  0  0  0  0
    0.9665    0.1201   25.8903 H   0  0  0  0  0  0  0  0  0  0  0  0
    0.3508    1.8076   25.8903 H   0  0  0  0  0  0  0  0  0  0  0  0
   -1.3166   -1.0235   27.7839 H   0  0  0  0  0  0  0  0  0  0  0  0
   -2.2866   -1.4193   26.3248 H   0  0  0  0  0  0  0  0  0  0  0  0
   -0.5114   -1.6938   26.3248 H   0  0  0  0  0  0  0  0  0  0  0  0
   -1.0605    2.5742   24.7848 H   0  0  0  0  0  0  0  0  0  0  0  0
    0.1862    3.0252   21.5245 H   0  0  0  0  0  0  0  0  0  0  0  0
    0.2545    5.2969   20.5752 H   0  0  0  0  0  0  0  0  0  0  0  0
   -3.6365    6.1040   21.9240 H   0  0  0  0  0  0  0  0  0  0  0  0
   -3.8285    3.8639   22.9253 H   0  0  0  0  0  0  0  0  0  0  0  0
   -1.0160    1.3307   19.9390 H   0  0  0  0  0  0  0  0  0  0  0  0
   -1.8865    1.3549   17.6134 H   0  0  0  0  0  0  0  0  0  0  0  0
   -3.7472    1.0579   16.0297 H   0  0  0  0  0  0  0  0  0  0  0  0
   -6.1330    0.4967   15.5906 H   0  0  0  0  0  0  0  0  0  0  0  0
   -7.6474   -0.0865   17.4820 H   0  0  0  0  0  0  0  0  0  0  0  0
   -6.7767   -0.1043   19.8151 H   0  0  0  0  0  0  0  0  0  0  0  0
   -4.9237    0.2097   21.3946 H   0  0  0  0  0  0  0  0  0  0  0  0
  1  2  1  0
  2  3  1  0
  2  4  1  0
  4  5  2  0
  5  6  1  0
  6  7  1  0
  7  8  2  0
  8  9  1  0
  9 10  2  0
 10 11  1  0
 11 12  2  0
  6 13  2  0
 13 14  1  0
 14 15  2  0
 15 16  1  0
 16 17  2  0
 17 18  1  0
 18 19  2  0
 19 20  1  0
 20 21  2  0
 21 22  1  0
 22 23  2  0
 13 24  1  0
 24 25  2  0
 25  4  1  0
 12  7  1  0
 23 14  1  0
 22 17  1  0
  1 26  1  0
  1 27  1  0
  1 28  1  0
  3 29  1  0
  3 30  1  0
  3 31  1  0
  5 32  1  0
  8 33  1  0
  9 34  1  0
 11 35  1  0
 12 36  1  0
 15 37  1  0
 16 38  1  0
 18 39  1  0
 19 40  1  0
 20 41  1  0
 21 42  1  0
 23 43  1  0
M  END
>  <meeko>  (3) 
{"is_sidechain": [false], "free_energy": -8.63, "intermolecular_energy": -10.124, "internal_energy": -0.95}

$$$$
4f9w_ligand
     RDKit          3D

 43 46  0  0  0  0  0  0  0  0999 V2000
   -0.0980   -1.8450   24.6470 C   0  0  0  0  0  0  0  0  0  0  0  0
    0.5270   -0.5890   25.0660 N   0  0  0  0  0  0  0  0  0  0  0  0
    0.6330   -0.4340   26.5190 C   0  0  0  0  0  0  0  0  0  0  0  0
   -0.0540    0.5370   24.4400 C   0  0  0  0  0  0  0  0  0  0  0  0
   -0.9280    0.3650   23.3690 C   0  0  0  0  0  0  0  0  0  0  0  0
   -1.5350    1.4620   22.7320 C   0  0  0  0  0  0  0  0  0  0  0  0
   -2.4210    1.2160   21.5800 C   0  0  0  0  0  0  0  0  0  0  0  0
   -3.7140    0.7090   21.7500 C   0  0  0  0  0  0  0  0  0  0  0  0
   -4.5050    0.4970   20.6310 C   0  0  0  0  0  0  0  0  0  0  0  0
   -4.1060    0.7600   19.3700 N   0  0  0  0  0  0  0  0  0  0  0  0
   -2.8600    1.2540   19.2200 C   0  0  0  0  0  0  0  0  0  0  0  0
   -1.9960    1.4960   20.2740 C   0  0  0  0  0  0  0  0  0  0  0  0
   -1.2350    2.7370   23.2280 C   0  0  0  0  0  0  0  0  0  0  0  0
   -1.7770    4.0020   22.7060 C   0  0  0  0  0  0  0  0  0  0  0  0
   -3.0230    4.5020   23.1140 C   0  0  0  0  0  0  0  0  0  0  0  0
   -3.5290    5.6970   22.5950 C   0  0  0  0  0  0  0  0  0  0  0  0
   -2.7950    6.4380   21.6570 C   0  0  0  0  0  0  0  0  0  0  0  0
   -3.2880    7.6390   21.1240 C   0  0  0  0  0  0  0  0  0  0  0  0
   -2.5410    8.3670   20.1970 C   0  0  0  0  0  0  0  0  0  0  0  0
   -1.2920    7.9050   19.7940 C   0  0  0  0  0  0  0  0  0  0  0  0
   -0.7890    6.7120   20.3150 C   0  0  0  0  0  0  0  0  0  0  0  0
   -1.5290    5.9670   21.2470 C   0  0  0  0  0  0  0  0  0  0  0  0
   -1.0380    4.7610   21.7790 C   0  0  0  0  0  0  0  0  0  0  0  0
   -0.3840    2.8850   24.2690 N   0  0  0  0  0  0  0  0  0  0  0  0
    0.1910    1.7870   24.8750 N   0  0  0  0  0  0  0  0  0  0  0  0
   -0.3867   -2.4252   25.5358 H   0  0  0  0  0  0  0  0  0  0  0  0
   -0.9925   -1.6266   24.0452 H   0  0  0  0  0  0  0  0  0  0  0  0
    0.6157   -2.4268   24.0452 H   0  0  0  0  0  0  0  0  0  0  0  0
    0.0789   -1.2442   27.0156 H   0  0  0  0  0  0  0  0  0  0  0  0
    1.6912   -0.4777   26.8162 H   0  0  0  0  0  0  0  0  0  0  0  0
    0.2085    0.5363   26.8162 H   0  0  0  0  0  0  0  0  0  0  0  0
   -1.1484   -0.6523   23.0134 H   0  0  0  0  0  0  0  0  0  0  0  0
   -4.0971    0.4821   22.7558 H   0  0  0  0  0  0  0  0  0  0  0  0
   -5.5163    0.0909   20.7806 H   0  0  0  0  0  0  0  0  0  0  0  0
   -2.5102    1.4775   18.2013 H   0  0  0  0  0  0  0  0  0  0  0  0
   -0.9905    1.9021   20.0894 H   0  0  0  0  0  0  0  0  0  0  0  0
   -3.6123    3.9432   23.8559 H   0  0  0  0  0  0  0  0  0  0  0  0
   -4.5132    6.0603   22.9256 H   0  0  0  0  0  0  0  0  0  0  0  0
   -4.2739    8.0105   21.4404 H   0  0  0  0  0  0  0  0  0  0  0  0
   -2.9395    9.3059   19.7850 H   0  0  0  0  0  0  0  0  0  0  0  0
   -0.7014    8.4796   19.0653 H   0  0  0  0  0  0  0  0  0  0  0  0
    0.1986    6.3512   19.9917 H   0  0  0  0  0  0  0  0  0  0  0  0
   -0.0483    4.4007   21.4616 H   0  0  0  0  0  0  0  0  0  0  0  0
  1  2  1  0
  2  3  1  0
  2  4  1  0
  4  5  2  0
  5  6  1  0
  6  7  1  0
  7  8  2  0
  8  9  1  0
  9 10  2  0
 10 11  1  0
 11 12  2  0
  6 13  2  0
 13 14  1  0
 14 15  2  0
 15 16  1  0
 16 17  2  0
 17 18  1  0
 18 19  2  0
 19 20  1  0
 20 21  2  0
 21 22  1  0
 22 23  2  0
 13 24  1  0
 24 25  2  0
 25  4  1  0
 12  7  1  0
 23 14  1  0
 22 17  1  0
  1 26  1  0
  1 27  1  0
  1 28  1  0
  3 29  1  0
  3 30  1  0
  3 31  1  0
  5 32  1  0
  8 33  1  0
  9 34  1  0
 11 35  1  0
 12 36  1  0
 15 37  1  0
 16 38  1  0
 18 39  1  0
 19 40  1  0
 20 41  1  0
 21 42  1  0
 23 43  1  0
M  END
>  <meeko>  (4) 
{"is_sidechain": [false], "free_energy": -8.108, "intermolecular_energy": -9.321, "internal_energy": -1.139}

$$$$
4f9w_ligand
     RDKit          3D

 43 46  0  0  0  0  0  0  0  0999 V2000
   -2.8470    8.2590   20.7440 C   0  0  0  0  0  0  0  0  0  0  0  0
   -2.0090    7.7950   21.8510 N   0  0  0  0  0  0  0  0  0  0  0  0
   -0.6090    8.2140   21.7540 C   0  0  0  0  0  0  0  0  0  0  0  0
   -2.1470    6.4070   22.0850 C   0  0  0  0  0  0  0  0  0  0  0  0
   -1.4380    5.8010   23.1180 C   0  0  0  0  0  0  0  0  0  0  0  0
   -1.5620    4.4250   23.3870 C   0  0  0  0  0  0  0  0  0  0  0  0
   -0.7550    3.8360   24.4700 C   0  0  0  0  0  0  0  0  0  0  0  0
    0.4050    3.1010   24.1980 C   0  0  0  0  0  0  0  0  0  0  0  0
    1.1270    2.5690   25.2560 C   0  0  0  0  0  0  0  0  0  0  0  0
    0.7850    2.7250   26.5510 N   0  0  0  0  0  0  0  0  0  0  0  0
   -0.3310    3.4410   26.8000 C   0  0  0  0  0  0  0  0  0  0  0  0
   -1.1190    4.0080   25.8130 C   0  0  0  0  0  0  0  0  0  0  0  0
   -2.4400    3.6920   22.5790 C   0  0  0  0  0  0  0  0  0  0  0  0
   -2.7140    2.2510   22.7100 C   0  0  0  0  0  0  0  0  0  0  0  0
   -3.2740    1.7040   23.8740 C   0  0  0  0  0  0  0  0  0  0  0  0
   -3.5110    0.3310   23.9870 C   0  0  0  0  0  0  0  0  0  0  0  0
   -3.2070   -0.5380   22.9290 C   0  0  0  0  0  0  0  0  0  0  0  0
   -3.4370   -1.9190   23.0250 C   0  0  0  0  0  0  0  0  0  0  0  0
   -3.1350   -2.7680   21.9590 C   0  0  0  0  0  0  0  0  0  0  0  0
   -2.6010   -2.2460   20.7850 C   0  0  0  0  0  0  0  0  0  0  0  0
   -2.3670   -0.8750   20.6740 C   0  0  0  0  0  0  0  0  0  0  0  0
   -2.6630   -0.0080   21.7390 C   0  0  0  0  0  0  0  0  0  0  0  0
   -2.4280    1.3760   21.6450 C   0  0  0  0  0  0  0  0  0  0  0  0
   -3.1210    4.2980   21.5800 N   0  0  0  0  0  0  0  0  0  0  0  0
   -2.9800    5.6500   21.3460 N   0  0  0  0  0  0  0  0  0  0  0  0
   -3.7430    8.7551   21.1453 H   0  0  0  0  0  0  0  0  0  0  0  0
   -2.2788    8.9710   20.1274 H   0  0  0  0  0  0  0  0  0  0  0  0
   -3.1489    7.3995   20.1274 H   0  0  0  0  0  0  0  0  0  0  0  0
   -0.1927    8.3386   22.7645 H   0  0  0  0  0  0  0  0  0  0  0  0
   -0.0339    7.4486   21.2123 H   0  0  0  0  0  0  0  0  0  0  0  0
   -0.5489    9.1695   21.2123 H   0  0  0  0  0  0  0  0  0  0  0  0
   -0.7653    6.4114   23.7384 H   0  0  0  0  0  0  0  0  0  0  0  0
    0.7387    2.9478   23.1611 H   0  0  0  0  0  0  0  0  0  0  0  0
    2.0309    1.9861   25.0254 H   0  0  0  0  0  0  0  0  0  0  0  0
   -0.6324    3.5825   27.8484 H   0  0  0  0  0  0  0  0  0  0  0  0
   -2.0172    4.5848   26.0785 H   0  0  0  0  0  0  0  0  0  0  0  0
   -3.5313    2.3674   24.7129 H   0  0  0  0  0  0  0  0  0  0  0  0
   -3.9406   -0.0722   24.9159 H   0  0  0  0  0  0  0  0  0  0  0  0
   -3.8599   -2.3370   23.9504 H   0  0  0  0  0  0  0  0  0  0  0  0
   -3.3190   -3.8489   22.0470 H   0  0  0  0  0  0  0  0  0  0  0  0
   -2.3633   -2.9143   19.9442 H   0  0  0  0  0  0  0  0  0  0  0  0
   -1.9462   -0.4686   19.7425 H   0  0  0  0  0  0  0  0  0  0  0  0
   -2.0093    1.7855   20.7139 H   0  0  0  0  0  0  0  0  0  0  0  0
  1  2  1  0
  2  3  1  0
  2  4  1  0
  4  5  2  0
  5  6  1  0
  6  7  1  0
  7  8  2  0
  8  9  1  0
  9 10  2  0
 10 11  1  0
 11 12  2  0
  6 13  2  0
 13 14  1  0
 14 15  2  0
 15 16  1  0
 16 17  2  0
 17 18  1  0
 18 19  2  0
 19 20  1  0
 20 21  2  0
 21 22  1  0
 22 23  2  0
 13 24  1  0
 24 25  2  0
 25  4  1  0
 12  7  1  0
 23 14  1  0
 22 17  1  0
  1 26  1  0
  1 27  1  0
  1 28  1  0
  3 29  1  0
  3 30  1  0
  3 31  1  0
  5 32  1  0
  8 33  1  0
  9 34  1  0
 11 35  1  0
 12 36  1  0
 15 37  1  0
 16 38  1  0
 18 39  1  0
 19 40  1  0
 20 41  1  0
 21 42  1  0
 23 43  1  0
M  END
>  <meeko>  (5) 
{"is_sidechain": [false], "free_energy": -7.873, "intermolecular_energy": -9.202, "internal_energy": -0.983}

$$$$
4f9w_ligand
     RDKit          3D

 43 46  0  0  0  0  0  0  0  0999 V2000
   -1.6890   -1.4450   27.9780 C   0  0  0  0  0  0  0  0  0  0  0  0
   -1.0220   -0.2650   27.4240 N   0  0  0  0  0  0  0  0  0  0  0  0
   -1.0650    0.9080   28.3000 C   0  0  0  0  0  0  0  0  0  0  0  0
   -1.4450    0.0240   26.1060 C   0  0  0  0  0  0  0  0  0  0  0  0
   -1.7340    1.3350   25.7390 C   0  0  0  0  0  0  0  0  0  0  0  0
   -2.1440    1.6600   24.4330 C   0  0  0  0  0  0  0  0  0  0  0  0
   -2.4730    3.0620   24.1180 C   0  0  0  0  0  0  0  0  0  0  0  0
   -3.5910    3.6920   24.6770 C   0  0  0  0  0  0  0  0  0  0  0  0
   -3.8540    5.0130   24.3470 C   0  0  0  0  0  0  0  0  0  0  0  0
   -3.0840    5.7450   23.5160 N   0  0  0  0  0  0  0  0  0  0  0  0
   -2.0050    5.1290   22.9900 C   0  0  0  0  0  0  0  0  0  0  0  0
   -1.6630    3.8140   23.2570 C   0  0  0  0  0  0  0  0  0  0  0  0
   -2.2370    0.6090   23.5120 C   0  0  0  0  0  0  0  0  0  0  0  0
   -2.6350    0.7480   22.1010 C   0  0  0  0  0  0  0  0  0  0  0  0
   -1.7560    1.2420   21.1260 C   0  0  0  0  0  0  0  0  0  0  0  0
   -2.1570    1.3820   19.7940 C   0  0  0  0  0  0  0  0  0  0  0  0
   -3.4510    1.0190   19.3940 C   0  0  0  0  0  0  0  0  0  0  0  0
   -3.8710    1.1540   18.0610 C   0  0  0  0  0  0  0  0  0  0  0  0
   -5.1610    0.7810   17.6790 C   0  0  0  0  0  0  0  0  0  0  0  0
   -6.0440    0.2670   18.6240 C   0  0  0  0  0  0  0  0  0  0  0  0
   -5.6400    0.1260   19.9520 C   0  0  0  0  0  0  0  0  0  0  0  0
   -4.3470    0.4990   20.3530 C   0  0  0  0  0  0  0  0  0  0  0  0
   -3.9260    0.3680   21.6890 C   0  0  0  0  0  0  0  0  0  0  0  0
   -1.9520   -0.6580   23.8860 N   0  0  0  0  0  0  0  0  0  0  0  0
   -1.5470   -0.9420   25.1750 N   0  0  0  0  0  0  0  0  0  0  0  0
   -1.6629   -1.3989   29.0767 H   0  0  0  0  0  0  0  0  0  0  0  0
   -2.7344   -1.4693   27.6367 H   0  0  0  0  0  0  0  0  0  0  0  0
   -1.1707   -2.3532   27.6367 H   0  0  0  0  0  0  0  0  0  0  0  0
   -1.0530    0.5818   29.3504 H   0  0  0  0  0  0  0  0  0  0  0  0
   -0.1896    1.5445   28.1037 H   0  0  0  0  0  0  0  0  0  0  0  0
   -1.9847    1.4787   28.1037 H   0  0  0  0  0  0  0  0  0  0  0  0
   -1.6397    2.1356   26.4874 H   0  0  0  0  0  0  0  0  0  0  0  0
   -4.2513    3.1473   25.3679 H   0  0  0  0  0  0  0  0  0  0  0  0
   -4.7411    5.4911   24.7881 H   0  0  0  0  0  0  0  0  0  0  0  0
   -1.3598    5.7045   22.3099 H   0  0  0  0  0  0  0  0  0  0  0  0
   -0.7683    3.3663   22.7997 H   0  0  0  0  0  0  0  0  0  0  0  0
   -0.7328    1.5243   21.4145 H   0  0  0  0  0  0  0  0  0  0  0  0
   -1.4499    1.7811   19.0519 H   0  0  0  0  0  0  0  0  0  0  0  0
   -3.1763    1.5579   17.3098 H   0  0  0  0  0  0  0  0  0  0  0  0
   -5.4792    0.8933   16.6320 H   0  0  0  0  0  0  0  0  0  0  0  0
   -7.0603   -0.0281   18.3240 H   0  0  0  0  0  0  0  0  0  0  0  0
   -6.3426   -0.2821   20.6935 H   0  0  0  0  0  0  0  0  0  0  0  0
   -4.6252   -0.0428   22.4322 H   0  0  0  0  0  0  0  0  0  0  0  0
  1  2  1  0
  2  3  1  0
  2  4  1  0
  4  5  2  0
  5  6  1  0
  6  7  1  0
  7  8  2  0
  8  9  1  0
  9 10  2  0
 10 11  1  0
 11 12  2  0
  6 13  2  0
 13 14  1  0
 14 15  2  0
 15 16  1  0
 16 17  2  0
 17 18  1  0
 18 19  2  0
 19 20  1  0
 20 21  2  0
 21 22  1  0
 22 23  2  0
 13 24  1  0
 24 25  2  0
 25  4  1  0
 12  7  1  0
 23 14  1  0
 22 17  1  0
  1 26  1  0
  1 27  1  0
  1 28  1  0
  3 29  1  0
  3 30  1  0
  3 31  1  0
  5 32  1  0
  8 33  1  0
  9 34  1  0
 11 35  1  0
 12 36  1  0
 15 37  1  0
 16 38  1  0
 18 39  1  0
 19 40  1  0
 20 41  1  0
 21 42  1  0
 23 43  1  0
M  END
>  <meeko>  (6) 
{"is_sidechain": [false], "free_energy": -7.578, "intermolecular_energy": -8.977, "internal_energy": -0.861}

$$$$
4f9w_ligand
     RDKit          3D

 43 46  0  0  0  0  0  0  0  0999 V2000
   -0.1860    8.0420   18.7190 C   0  0  0  0  0  0  0  0  0  0  0  0
    0.3020    7.6510   20.0440 N   0  0  0  0  0  0  0  0  0  0  0  0
    1.7570    7.7340   20.1890 C   0  0  0  0  0  0  0  0  0  0  0  0
   -0.2170    6.4040   20.4620 C   0  0  0  0  0  0  0  0  0  0  0  0
   -0.7250    6.2580   21.7500 C   0  0  0  0  0  0  0  0  0  0  0  0
   -1.2610    5.0350   22.1940 C   0  0  0  0  0  0  0  0  0  0  0  0
   -1.7480    4.9330   23.5810 C   0  0  0  0  0  0  0  0  0  0  0  0
   -3.0980    5.1320   23.8960 C   0  0  0  0  0  0  0  0  0  0  0  0
   -3.5020    5.0230   25.2180 C   0  0  0  0  0  0  0  0  0  0  0  0
   -2.6680    4.7250   26.2350 N   0  0  0  0  0  0  0  0  0  0  0  0
   -1.3720    4.5300   25.9180 C   0  0  0  0  0  0  0  0  0  0  0  0
   -0.8730    4.6190   24.6290 C   0  0  0  0  0  0  0  0  0  0  0  0
   -1.2750    3.9730   21.2810 C   0  0  0  0  0  0  0  0  0  0  0  0
   -1.8040    2.6250   21.5520 C   0  0  0  0  0  0  0  0  0  0  0  0
   -3.1050    2.2510   21.1880 C   0  0  0  0  0  0  0  0  0  0  0  0
   -3.5950    0.9710   21.4690 C   0  0  0  0  0  0  0  0  0  0  0  0
   -2.7890    0.0210   22.1130 C   0  0  0  0  0  0  0  0  0  0  0  0
   -3.2650   -1.2670   22.4030 C   0  0  0  0  0  0  0  0  0  0  0  0
   -2.4470   -2.2020   23.0390 C   0  0  0  0  0  0  0  0  0  0  0  0
   -1.1440   -1.8620   23.3890 C   0  0  0  0  0  0  0  0  0  0  0  0
   -0.6570   -0.5850   23.1060 C   0  0  0  0  0  0  0  0  0  0  0  0
   -1.4690    0.3680   22.4690 C   0  0  0  0  0  0  0  0  0  0  0  0
   -0.9940    1.6610   22.1810 C   0  0  0  0  0  0  0  0  0  0  0  0
   -0.7770    4.1330   20.0340 N   0  0  0  0  0  0  0  0  0  0  0  0
   -0.2630    5.3480   19.6280 N   0  0  0  0  0  0  0  0  0  0  0  0
   -1.0401    8.7263   18.8300 H   0  0  0  0  0  0  0  0  0  0  0  0
    0.6194    8.5475   18.1661 H   0  0  0  0  0  0  0  0  0  0  0  0
   -0.5038    7.1457   18.1661 H   0  0  0  0  0  0  0  0  0  0  0  0
    2.0188    7.7489   21.2573 H   0  0  0  0  0  0  0  0  0  0  0  0
    2.2237    6.8610   19.7093 H   0  0  0  0  0  0  0  0  0  0  0  0
    2.1214    8.6544   19.7093 H   0  0  0  0  0  0  0  0  0  0  0  0
   -0.7070    7.1178   22.4358 H   0  0  0  0  0  0  0  0  0  0  0  0
   -3.8264    5.3710   23.1071 H   0  0  0  0  0  0  0  0  0  0  0  0
   -4.5642    5.1892   25.4506 H   0  0  0  0  0  0  0  0  0  0  0  0
   -0.6708    4.2862   26.7297 H   0  0  0  0  0  0  0  0  0  0  0  0
    0.1951    4.4456   24.4310 H   0  0  0  0  0  0  0  0  0  0  0  0
   -3.7518    2.9763   20.6726 H   0  0  0  0  0  0  0  0  0  0  0  0
   -4.6235    0.7069   21.1817 H   0  0  0  0  0  0  0  0  0  0  0  0
   -4.2934   -1.5424   22.1262 H   0  0  0  0  0  0  0  0  0  0  0  0
   -2.8323   -3.2075   23.2635 H   0  0  0  0  0  0  0  0  0  0  0  0
   -0.4981   -2.5992   23.8884 H   0  0  0  0  0  0  0  0  0  0  0  0
    0.3740   -0.3219   23.3848 H   0  0  0  0  0  0  0  0  0  0  0  0
    0.0380    1.9254   22.4548 H   0  0  0  0  0  0  0  0  0  0  0  0
  1  2  1  0
  2  3  1  0
  2  4  1  0
  4  5  2  0
  5  6  1  0
  6  7  1  0
  7  8  2  0
  8  9  1  0
  9 10  2  0
 10 11  1  0
 11 12  2  0
  6 13  2  0
 13 14  1  0
 14 15  2  0
 15 16  1  0
 16 17  2  0
 17 18  1  0
 18 19  2  0
 19 20  1  0
 20 21  2  0
 21 22  1  0
 22 23  2  0
 13 24  1  0
 24 25  2  0
 25  4  1  0
 12  7  1  0
 23 14  1  0
 22 17  1  0
  1 26  1  0
  1 27  1  0
  1 28  1  0
  3 29  1  0
  3 30  1  0
  3 31  1  0
  5 32  1  0
  8 33  1  0
  9 34  1  0
 11 35  1  0
 12 36  1  0
 15 37  1  0
 16 38  1  0
 18 39  1  0
 19 40  1  0
 20 41  1  0
 21 42  1  0
 23 43  1  0
M  END
>  <meeko>  (7) 
{"is_sidechain": [false], "free_energy": -7.568, "intermolecular_energy": -8.641, "internal_energy": -1.185}

$$$$
