4u4s_ligand
     RDKit          3D

 26 27  0  0  0  0  0  0  0  0999 V2000
  -18.2230   43.4240   -3.6520 C   0  0  0  0  0  0  0  0  0  0  0  0
  -17.6360   44.8240   -3.5610 C   0  0  0  0  0  0  0  0  0  0  0  0
  -16.5560   44.9890   -4.5520 N   0  0  0  0  0  0  0  0  0  0  0  0
  -16.6350   44.0730   -5.6890 C   0  0  0  0  0  0  0  0  0  0  0  0
  -15.3180   43.8260   -6.2050 N   0  0  0  0  0  0  0  0  0  0  0  0
  -14.6210   45.1580   -6.8920 S   0  0  0  0  0  0  0  0  0  0  0  0
  -15.3730   45.5730   -8.0500 O   0  0  0  0  0  0  0  0  0  0  0  0
  -13.1920   44.9490   -6.9220 O   0  0  0  0  0  0  0  0  0  0  0  0
  -14.9030   46.3800   -5.6810 C   0  0  0  0  0  0  0  0  0  0  0  0
  -14.1320   47.5340   -5.7820 C   0  0  0  0  0  0  0  0  0  0  0  0
  -14.2640   48.4880   -4.8490 N   0  0  0  0  0  0  0  0  0  0  0  0
  -15.1100   48.3500   -3.8170 C   0  0  0  0  0  0  0  0  0  0  0  0
  -15.8850   47.1920   -3.6990 C   0  0  0  0  0  0  0  0  0  0  0  0
  -15.8160   46.1610   -4.6490 C   0  0  0  0  0  0  0  0  0  0  0  0
  -18.3885   43.0292   -2.6387 H   0  0  0  0  0  0  0  0  0  0  0  0
  -19.1808   43.4624   -4.1916 H   0  0  0  0  0  0  0  0  0  0  0  0
  -17.5242   42.7678   -4.1916 H   0  0  0  0  0  0  0  0  0  0  0  0
  -18.4265   45.5630   -3.7586 H   0  0  0  0  0  0  0  0  0  0  0  0
  -17.2239   44.9755   -2.5524 H   0  0  0  0  0  0  0  0  0  0  0  0
  -17.0837   43.1232   -5.3627 H   0  0  0  0  0  0  0  0  0  0  0  0
  -17.2560   44.5239   -6.4771 H   0  0  0  0  0  0  0  0  0  0  0  0
  -14.6980   43.2770   -5.6160 H   0  0  0  0  0  0  0  0  0  0  0  0
  -13.4248   47.6617   -6.6148 H   0  0  0  0  0  0  0  0  0  0  0  0
  -13.6980   49.3370   -4.9220 H   0  0  0  0  0  0  0  0  0  0  0  0
  -15.1940   49.1474   -3.0640 H   0  0  0  0  0  0  0  0  0  0  0  0
  -16.5652   47.0865   -2.8409 H   0  0  0  0  0  0  0  0  0  0  0  0
  1  2  1  0
  2  3  1  0
  3  4  1  0
  4  5  1  0
  5  6  1  0
  6  7  2  0
  6  8  2  0
  6  9  1  0
  9 10  2  0
 10 11  1  0
 11 12  2  0
 12 13  1  0
 13 14  2  0
 14  3  1  0
 14  9  1  0
  1 15  1  0
  1 16  1  0
  1 17  1  0
  2 18  1  0
  2 19  1  0
  4 20  1  0
  4 21  1  0
  5 22  1  0
 10 23  1  0
 11 24  1  0
 12 25  1  0
 13 26  1  0
M  CHG  1  11   1
M  END
>  <meeko>  (1) 
{"is_sidechain": [false], "free_energy": -6.476, "intermolecular_energy": -6.854, "internal_energy": -0.098}

$$$$
4u4s_ligand
     RDKit          3D

 26 27  0  0  0  0  0  0  0  0999 V2000
  -14.6720   49.4300   -3.9600 C   0  0  0  0  0  0  0  0  0  0  0  0
  -15.1890   48.1050   -3.4200 C   0  0  0  0  0  0  0  0  0  0  0  0
  -15.2660   47.1080   -4.5050 N   0  0  0  0  0  0  0  0  0  0  0  0
  -14.1520   47.1580   -5.4510 C   0  0  0  0  0  0  0  0  0  0  0  0
  -14.5870   46.6920   -6.7370 N   0  0  0  0  0  0  0  0  0  0  0  0
  -14.9770   45.0870   -6.7590 S   0  0  0  0  0  0  0  0  0  0  0  0
  -13.8100   44.2860   -6.4800 O   0  0  0  0  0  0  0  0  0  0  0  0
  -15.8330   44.8490   -7.8980 O   0  0  0  0  0  0  0  0  0  0  0  0
  -15.9980   44.9420   -5.3530 C   0  0  0  0  0  0  0  0  0  0  0  0
  -16.7860   43.7990   -5.2800 C   0  0  0  0  0  0  0  0  0  0  0  0
  -17.6320   43.6560   -4.2500 N   0  0  0  0  0  0  0  0  0  0  0  0
  -17.7450   44.5930   -3.2980 C   0  0  0  0  0  0  0  0  0  0  0  0
  -16.9640   45.7530   -3.3620 C   0  0  0  0  0  0  0  0  0  0  0  0
  -16.0420   45.9610   -4.3990 C   0  0  0  0  0  0  0  0  0  0  0  0
  -14.4136   50.0923   -3.1206 H   0  0  0  0  0  0  0  0  0  0  0  0
  -13.7776   49.2514   -4.5749 H   0  0  0  0  0  0  0  0  0  0  0  0
  -15.4510   49.9044   -4.5749 H   0  0  0  0  0  0  0  0  0  0  0  0
  -14.5062   47.7398   -2.6387 H   0  0  0  0  0  0  0  0  0  0  0  0
  -16.1941   48.2563   -2.9995 H   0  0  0  0  0  0  0  0  0  0  0  0
  -13.7941   48.1943   -5.5397 H   0  0  0  0  0  0  0  0  0  0  0  0
  -13.3368   46.5150   -5.0876 H   0  0  0  0  0  0  0  0  0  0  0  0
  -15.2340   47.2940   -7.2390 H   0  0  0  0  0  0  0  0  0  0  0  0
  -16.7163   43.0229   -6.0564 H   0  0  0  0  0  0  0  0  0  0  0  0
  -18.2120   42.8140   -4.1950 H   0  0  0  0  0  0  0  0  0  0  0  0
  -18.4512   44.4504   -2.4668 H   0  0  0  0  0  0  0  0  0  0  0  0
  -17.0758   46.5195   -2.5809 H   0  0  0  0  0  0  0  0  0  0  0  0
  1  2  1  0
  2  3  1  0
  3  4  1  0
  4  5  1  0
  5  6  1  0
  6  7  2  0
  6  8  2  0
  6  9  1  0
  9 10  2  0
 10 11  1  0
 11 12  2  0
 12 13  1  0
 13 14  2  0
 14  3  1  0
 14  9  1  0
  1 15  1  0
  1 16  1  0
  1 17  1  0
  2 18  1  0
  2 19  1  0
  4 20  1  0
  4 21  1  0
  5 22  1  0
 10 23  1  0
 11 24  1  0
 12 25  1  0
 13 26  1  0
M  CHG  1  11   1
M  END
>  <meeko>  (2) 
{"is_sidechain": [false], "free_energy": -6.22, "intermolecular_energy": -6.579, "internal_energy": -0.102}

$$$$
4u4s_ligand
     RDKit          3D

 26 27  0  0  0  0  0  0  0  0999 V2000
  -15.5990   49.5860   -1.7260 C   0  0  0  0  0  0  0  0  0  0  0  0
  -16.4690   48.4980   -2.3370 C   0  0  0  0  0  0  0  0  0  0  0  0
  -15.8440   47.9770   -3.5680 N   0  0  0  0  0  0  0  0  0  0  0  0
  -14.6050   48.6550   -3.9490 C   0  0  0  0  0  0  0  0  0  0  0  0
  -14.4350   48.5900   -5.3730 N   0  0  0  0  0  0  0  0  0  0  0  0
  -14.1680   47.0580   -5.9340 S   0  0  0  0  0  0  0  0  0  0  0  0
  -12.9240   46.5470   -5.4140 O   0  0  0  0  0  0  0  0  0  0  0  0
  -14.4960   47.0330   -7.3400 O   0  0  0  0  0  0  0  0  0  0  0  0
  -15.4240   46.1540   -5.1310 C   0  0  0  0  0  0  0  0  0  0  0  0
  -15.7090   44.8980   -5.6570 C   0  0  0  0  0  0  0  0  0  0  0  0
  -16.7020   44.1770   -5.1170 N   0  0  0  0  0  0  0  0  0  0  0  0
  -17.4330   44.6420   -4.0940 C   0  0  0  0  0  0  0  0  0  0  0  0
  -17.1630   45.9070   -3.5600 C   0  0  0  0  0  0  0  0  0  0  0  0
  -16.1260   46.7090   -4.0600 C   0  0  0  0  0  0  0  0  0  0  0  0
  -15.6494   49.5229   -0.6290 H   0  0  0  0  0  0  0  0  0  0  0  0
  -14.5578   49.4500   -2.0536 H   0  0  0  0  0  0  0  0  0  0  0  0
  -15.9607   50.5718   -2.0536 H   0  0  0  0  0  0  0  0  0  0  0  0
  -16.5862   47.6776   -1.6137 H   0  0  0  0  0  0  0  0  0  0  0  0
  -17.4527   48.9226   -2.5859 H   0  0  0  0  0  0  0  0  0  0  0  0
  -14.6529   49.7079   -3.6343 H   0  0  0  0  0  0  0  0  0  0  0  0
  -13.7538   48.1606   -3.4580 H   0  0  0  0  0  0  0  0  0  0  0  0
  -15.0820   49.1410   -5.9300 H   0  0  0  0  0  0  0  0  0  0  0  0
  -15.1283   44.5024   -6.5033 H   0  0  0  0  0  0  0  0  0  0  0  0
  -16.9110   43.2520   -5.5020 H   0  0  0  0  0  0  0  0  0  0  0  0
  -18.2447   44.0295   -3.6745 H   0  0  0  0  0  0  0  0  0  0  0  0
  -17.7783   46.2814   -2.7286 H   0  0  0  0  0  0  0  0  0  0  0  0
  1  2  1  0
  2  3  1  0
  3  4  1  0
  4  5  1  0
  5  6  1  0
  6  7  2  0
  6  8  2  0
  6  9  1  0
  9 10  2  0
 10 11  1  0
 11 12  2  0
 12 13  1  0
 13 14  2  0
 14  3  1  0
 14  9  1  0
  1 15  1  0
  1 16  1  0
  1 17  1  0
  2 18  1  0
  2 19  1  0
  4 20  1  0
  4 21  1  0
  5 22  1  0
 10 23  1  0
 11 24  1  0
 12 25  1  0
 13 26  1  0
M  CHG  1  11   1
M  END
>  <meeko>  (3) 
{"is_sidechain": [false], "free_energy": -6.211, "intermolecular_energy": -6.575, "internal_energy": -0.097}

$$$$
4u4s_ligand
     RDKit          3D

 26 27  0  0  0  0  0  0  0  0999 V2000
  -12.3310   45.9860   -6.0260 C   0  0  0  0  0  0  0  0  0  0  0  0
  -13.5210   46.8510   -6.4120 C   0  0  0  0  0  0  0  0  0  0  0  0
  -14.4690   46.9450   -5.2860 N   0  0  0  0  0  0  0  0  0  0  0  0
  -14.5660   48.2770   -4.6870 C   0  0  0  0  0  0  0  0  0  0  0  0
  -14.9300   48.1610   -3.3040 N   0  0  0  0  0  0  0  0  0  0  0  0
  -16.4580   47.5750   -3.0720 S   0  0  0  0  0  0  0  0  0  0  0  0
  -17.4310   48.4940   -3.6090 O   0  0  0  0  0  0  0  0  0  0  0  0
  -16.5370   47.0500   -1.7290 O   0  0  0  0  0  0  0  0  0  0  0  0
  -16.4790   46.1900   -4.1310 C   0  0  0  0  0  0  0  0  0  0  0  0
  -17.4920   45.2630   -3.9100 C   0  0  0  0  0  0  0  0  0  0  0  0
  -17.5300   44.1500   -4.6560 N   0  0  0  0  0  0  0  0  0  0  0  0
  -16.6090   43.9040   -5.5990 C   0  0  0  0  0  0  0  0  0  0  0  0
  -15.5800   44.8240   -5.8280 C   0  0  0  0  0  0  0  0  0  0  0  0
  -15.4890   46.0200   -5.1000 C   0  0  0  0  0  0  0  0  0  0  0  0
  -12.2570   45.9322   -4.9298 H   0  0  0  0  0  0  0  0  0  0  0  0
  -12.4658   44.9736   -6.4345 H   0  0  0  0  0  0  0  0  0  0  0  0
  -11.4096   46.4266   -6.4345 H   0  0  0  0  0  0  0  0  0  0  0  0
  -13.1675   47.8590   -6.6745 H   0  0  0  0  0  0  0  0  0  0  0  0
  -14.0312   46.3957   -7.2736 H   0  0  0  0  0  0  0  0  0  0  0  0
  -13.5940   48.7857   -4.7677 H   0  0  0  0  0  0  0  0  0  0  0  0
  -15.3335   48.8596   -5.2176 H   0  0  0  0  0  0  0  0  0  0  0  0
  -14.2250   47.7710   -2.6830 H   0  0  0  0  0  0  0  0  0  0  0  0
  -18.2512   45.4407   -3.1341 H   0  0  0  0  0  0  0  0  0  0  0  0
  -18.2760   43.4680   -4.4950 H   0  0  0  0  0  0  0  0  0  0  0  0
  -16.6624   42.9793   -6.1923 H   0  0  0  0  0  0  0  0  0  0  0  0
  -14.8246   44.6045   -6.5969 H   0  0  0  0  0  0  0  0  0  0  0  0
  1  2  1  0
  2  3  1  0
  3  4  1  0
  4  5  1  0
  5  6  1  0
  6  7  2  0
  6  8  2  0
  6  9  1  0
  9 10  2  0
 10 11  1  0
 11 12  2  0
 12 13  1  0
 13 14  2  0
 14  3  1  0
 14  9  1  0
  1 15  1  0
  1 16  1  0
  1 17  1  0
  2 18  1  0
  2 19  1  0
  4 20  1  0
  4 21  1  0
  5 22  1  0
 10 23  1  0
 11 24  1  0
 12 25  1  0
 13 26  1  0
M  CHG  1  11   1
M  END
>  <meeko>  (4) 
{"is_sidechain": [false], "free_energy": -6.144, "intermolecular_energy": -6.607, "internal_energy": 0.005}

$$$$
4u4s_ligand
     RDKit          3D

 26 27  0  0  0  0  0  0  0  0999 V2000
  -14.7460   49.3260   -3.3840 C   0  0  0  0  0  0  0  0  0  0  0  0
  -14.5150   48.1450   -4.3160 C   0  0  0  0  0  0  0  0  0  0  0  0
  -15.4470   47.0490   -3.9910 N   0  0  0  0  0  0  0  0  0  0  0  0
  -16.4430   47.3860   -2.9730 C   0  0  0  0  0  0  0  0  0  0  0  0
  -16.8310   46.2000   -2.2640 N   0  0  0  0  0  0  0  0  0  0  0  0
  -17.6560   45.1150   -3.1990 S   0  0  0  0  0  0  0  0  0  0  0  0
  -18.9090   45.6820   -3.6330 O   0  0  0  0  0  0  0  0  0  0  0  0
  -17.5630   43.8190   -2.5680 O   0  0  0  0  0  0  0  0  0  0  0  0
  -16.6560   45.0290   -4.6240 C   0  0  0  0  0  0  0  0  0  0  0  0
  -16.8710   43.9400   -5.4610 C   0  0  0  0  0  0  0  0  0  0  0  0
  -16.0960   43.7880   -6.5450 N   0  0  0  0  0  0  0  0  0  0  0  0
  -15.1130   44.6540   -6.8320 C   0  0  0  0  0  0  0  0  0  0  0  0
  -14.8790   45.7500   -5.9950 C   0  0  0  0  0  0  0  0  0  0  0  0
  -15.6640   45.9840   -4.8550 C   0  0  0  0  0  0  0  0  0  0  0  0
  -14.6797   48.9873   -2.3395 H   0  0  0  0  0  0  0  0  0  0  0  0
  -13.9812   50.0945   -3.5695 H   0  0  0  0  0  0  0  0  0  0  0  0
  -15.7440   49.7497   -3.5695 H   0  0  0  0  0  0  0  0  0  0  0  0
  -14.6791   48.4651   -5.3555 H   0  0  0  0  0  0  0  0  0  0  0  0
  -13.4825   47.7866   -4.1916 H   0  0  0  0  0  0  0  0  0  0  0  0
  -16.0124   48.1102   -2.2659 H   0  0  0  0  0  0  0  0  0  0  0  0
  -17.3266   47.8249   -3.4594 H   0  0  0  0  0  0  0  0  0  0  0  0
  -16.1300   45.7890   -1.6540 H   0  0  0  0  0  0  0  0  0  0  0  0
  -17.6657   43.2131   -5.2373 H   0  0  0  0  0  0  0  0  0  0  0  0
  -16.2550   42.9880   -7.1620 H   0  0  0  0  0  0  0  0  0  0  0  0
  -14.4904   44.5023   -7.7261 H   0  0  0  0  0  0  0  0  0  0  0  0
  -14.0608   46.4447   -6.2357 H   0  0  0  0  0  0  0  0  0  0  0  0
  1  2  1  0
  2  3  1  0
  3  4  1  0
  4  5  1  0
  5  6  1  0
  6  7  2  0
  6  8  2  0
  6  9  1  0
  9 10  2  0
 10 11  1  0
 11 12  2  0
 12 13  1  0
 13 14  2  0
 14  3  1  0
 14  9  1  0
  1 15  1  0
  1 16  1  0
  1 17  1  0
  2 18  1  0
  2 19  1  0
  4 20  1  0
  4 21  1  0
  5 22  1  0
 10 23  1  0
 11 24  1  0
 12 25  1  0
 13 26  1  0
M  CHG  1  11   1
M  END
>  <meeko>  (5) 
{"is_sidechain": [false], "free_energy": -5.873, "intermolecular_energy": -6.217, "internal_energy": -0.097}

$$$$
4u4s_ligand
     RDKit          3D

 26 27  0  0  0  0  0  0  0  0999 V2000
  -16.2090   44.1770   -7.9730 C   0  0  0  0  0  0  0  0  0  0  0  0
  -15.8260   43.7200   -6.5740 C   0  0  0  0  0  0  0  0  0  0  0  0
  -16.2390   44.7270   -5.5780 N   0  0  0  0  0  0  0  0  0  0  0  0
  -17.1000   44.2080   -4.5160 C   0  0  0  0  0  0  0  0  0  0  0  0
  -17.9510   45.2560   -4.0270 N   0  0  0  0  0  0  0  0  0  0  0  0
  -17.1320   46.4570   -3.2410 S   0  0  0  0  0  0  0  0  0  0  0  0
  -16.5060   45.9370   -2.0500 O   0  0  0  0  0  0  0  0  0  0  0  0
  -17.9650   47.6370   -3.2350 O   0  0  0  0  0  0  0  0  0  0  0  0
  -15.8300   46.7940   -4.3510 C   0  0  0  0  0  0  0  0  0  0  0  0
  -15.1600   47.9980   -4.1650 C   0  0  0  0  0  0  0  0  0  0  0  0
  -14.1850   48.3400   -5.0200 N   0  0  0  0  0  0  0  0  0  0  0  0
  -13.8510   47.5550   -6.0550 C   0  0  0  0  0  0  0  0  0  0  0  0
  -14.5220   46.3450   -6.2590 C   0  0  0  0  0  0  0  0  0  0  0  0
  -15.5380   45.9120   -5.3930 C   0  0  0  0  0  0  0  0  0  0  0  0
  -16.9142   45.0184   -7.9037 H   0  0  0  0  0  0  0  0  0  0  0  0
  -15.3066   44.4985   -8.5136 H   0  0  0  0  0  0  0  0  0  0  0  0
  -16.6833   43.3447   -8.5136 H   0  0  0  0  0  0  0  0  0  0  0  0
  -16.3259   42.7652   -6.3541 H   0  0  0  0  0  0  0  0  0  0  0  0
  -14.7345   43.5927   -6.5243 H   0  0  0  0  0  0  0  0  0  0  0  0
  -17.7188   43.3903   -4.9139 H   0  0  0  0  0  0  0  0  0  0  0  0
  -16.4756   43.8317   -3.6922 H   0  0  0  0  0  0  0  0  0  0  0  0
  -18.6770   45.5790   -4.6610 H   0  0  0  0  0  0  0  0  0  0  0  0
  -15.4259   48.6608   -3.3283 H   0  0  0  0  0  0  0  0  0  0  0  0
  -13.6910   49.2250   -4.8830 H   0  0  0  0  0  0  0  0  0  0  0  0
  -13.0498   47.8627   -6.7430 H   0  0  0  0  0  0  0  0  0  0  0  0
  -14.2467   45.7173   -7.1193 H   0  0  0  0  0  0  0  0  0  0  0  0
  1  2  1  0
  2  3  1  0
  3  4  1  0
  4  5  1  0
  5  6  1  0
  6  7  2  0
  6  8  2  0
  6  9  1  0
  9 10  2  0
 10 11  1  0
 11 12  2  0
 12 13  1  0
 13 14  2  0
 14  3  1  0
 14  9  1  0
  1 15  1  0
  1 16  1  0
  1 17  1  0
  2 18  1  0
  2 19  1  0
  4 20  1  0
  4 21  1  0
  5 22  1  0
 10 23  1  0
 11 24  1  0
 12 25  1  0
 13 26  1  0
M  CHG  1  11   1
M  END
>  <meeko>  (6) 
{"is_sidechain": [false], "free_energy": -5.851, "intermolecular_energy": -6.474, "internal_energy": 0.183}

$$$$
4u4s_ligand
     RDKit          3D

 26 27  0  0  0  0  0  0  0  0999 V2000
  -13.0540   44.6850   -6.7310 C   0  0  0  0  0  0  0  0  0  0  0  0
  -14.3850   45.3890   -6.9460 C   0  0  0  0  0  0  0  0  0  0  0  0
  -14.7800   46.1170   -5.7260 N   0  0  0  0  0  0  0  0  0  0  0  0
  -14.3070   47.5000   -5.6680 C   0  0  0  0  0  0  0  0  0  0  0  0
  -14.1360   47.8980   -4.3000 N   0  0  0  0  0  0  0  0  0  0  0  0
  -15.5560   47.9910   -3.4590 S   0  0  0  0  0  0  0  0  0  0  0  0
  -16.3970   49.0220   -4.0150 O   0  0  0  0  0  0  0  0  0  0  0  0
  -15.2490   47.9090   -2.0500 O   0  0  0  0  0  0  0  0  0  0  0  0
  -16.3220   46.4810   -3.8730 C   0  0  0  0  0  0  0  0  0  0  0  0
  -17.3730   46.0800   -3.0540 C   0  0  0  0  0  0  0  0  0  0  0  0
  -17.9670   44.9010   -3.2880 N   0  0  0  0  0  0  0  0  0  0  0  0
  -17.5650   44.0960   -4.2820 C   0  0  0  0  0  0  0  0  0  0  0  0
  -16.5040   44.4820   -5.1090 C   0  0  0  0  0  0  0  0  0  0  0  0
  -15.8490   45.7110   -4.9370 C   0  0  0  0  0  0  0  0  0  0  0  0
  -12.8627   44.5838   -5.6525 H   0  0  0  0  0  0  0  0  0  0  0  0
  -13.0883   43.6871   -7.1925 H   0  0  0  0  0  0  0  0  0  0  0  0
  -12.2484   45.2749   -7.1925 H   0  0  0  0  0  0  0  0  0  0  0  0
  -14.2888   46.1012   -7.7788 H   0  0  0  0  0  0  0  0  0  0  0  0
  -15.1540   44.6382   -7.1803 H   0  0  0  0  0  0  0  0  0  0  0  0
  -13.3444   47.5792   -6.1945 H   0  0  0  0  0  0  0  0  0  0  0  0
  -15.0469   48.1575   -6.1479 H   0  0  0  0  0  0  0  0  0  0  0  0
  -13.3710   47.4590   -3.7950 H   0  0  0  0  0  0  0  0  0  0  0  0
  -17.7116   46.7209   -2.2266 H   0  0  0  0  0  0  0  0  0  0  0  0
  -18.7400   44.6060   -2.6870 H   0  0  0  0  0  0  0  0  0  0  0  0
  -18.0690   43.1324   -4.4475 H   0  0  0  0  0  0  0  0  0  0  0  0
  -16.1759   43.8062   -5.9125 H   0  0  0  0  0  0  0  0  0  0  0  0
  1  2  1  0
  2  3  1  0
  3  4  1  0
  4  5  1  0
  5  6  1  0
  6  7  2  0
  6  8  2  0
  6  9  1  0
  9 10  2  0
 10 11  1  0
 11 12  2  0
 12 13  1  0
 13 14  2  0
 14  3  1  0
 14  9  1  0
  1 15  1  0
  1 16  1  0
  1 17  1  0
  2 18  1  0
  2 19  1  0
  4 20  1  0
  4 21  1  0
  5 22  1  0
 10 23  1  0
 11 24  1  0
 12 25  1  0
 13 26  1  0
M  CHG  1  11   1
M  END
>  <meeko>  (7) 
{"is_sidechain": [false], "free_energy": -5.615, "intermolecular_energy": -5.928, "internal_energy": -0.114}

$$$$
4u4s_ligand
     RDKit          3D

 26 27  0  0  0  0  0  0  0  0999 V2000
  -13.1420   45.2810   -6.4870 C   0  0  0  0  0  0  0  0  0  0  0  0
  -13.5150   46.6760   -6.0080 C   0  0  0  0  0  0  0  0  0  0  0  0
  -14.7370   46.6230   -5.1840 N   0  0  0  0  0  0  0  0  0  0  0  0
  -15.3200   45.2870   -5.0550 C   0  0  0  0  0  0  0  0  0  0  0  0
  -16.7370   45.3940   -4.8530 N   0  0  0  0  0  0  0  0  0  0  0  0
  -17.1460   46.0830   -3.4080 S   0  0  0  0  0  0  0  0  0  0  0  0
  -16.7050   45.2500   -2.3160 O   0  0  0  0  0  0  0  0  0  0  0  0
  -18.4990   46.5780   -3.5150 O   0  0  0  0  0  0  0  0  0  0  0  0
  -16.1200   47.4920   -3.3740 C   0  0  0  0  0  0  0  0  0  0  0  0
  -16.4680   48.4830   -2.4630 C   0  0  0  0  0  0  0  0  0  0  0  0
  -15.7490   49.6150   -2.4270 N   0  0  0  0  0  0  0  0  0  0  0  0
  -14.7140   49.8170   -3.2550 C   0  0  0  0  0  0  0  0  0  0  0  0
  -14.3580   48.8320   -4.1820 C   0  0  0  0  0  0  0  0  0  0  0  0
  -15.0510   47.6140   -4.2630 C   0  0  0  0  0  0  0  0  0  0  0  0
  -12.9678   44.6294   -5.6181 H   0  0  0  0  0  0  0  0  0  0  0  0
  -13.9619   44.8705   -7.0946 H   0  0  0  0  0  0  0  0  0  0  0  0
  -12.2266   45.3345   -7.0946 H   0  0  0  0  0  0  0  0  0  0  0  0
  -12.6897   47.0866   -5.4077 H   0  0  0  0  0  0  0  0  0  0  0  0
  -13.6997   47.3177   -6.8822 H   0  0  0  0  0  0  0  0  0  0  0  0
  -15.1240   44.7126   -5.9724 H   0  0  0  0  0  0  0  0  0  0  0  0
  -14.8673   44.7741   -4.1936 H   0  0  0  0  0  0  0  0  0  0  0  0
  -17.2820   45.7170   -5.6480 H   0  0  0  0  0  0  0  0  0  0  0  0
  -17.3201   48.3410   -1.7820 H   0  0  0  0  0  0  0  0  0  0  0  0
  -16.0030   50.3440   -1.7560 H   0  0  0  0  0  0  0  0  0  0  0  0
  -14.1450   50.7571   -3.2053 H   0  0  0  0  0  0  0  0  0  0  0  0
  -13.5148   49.0162   -4.8639 H   0  0  0  0  0  0  0  0  0  0  0  0
  1  2  1  0
  2  3  1  0
  3  4  1  0
  4  5  1  0
  5  6  1  0
  6  7  2  0
  6  8  2  0
  6  9  1  0
  9 10  2  0
 10 11  1  0
 11 12  2  0
 12 13  1  0
 13 14  2  0
 14  3  1  0
 14  9  1  0
  1 15  1  0
  1 16  1  0
  1 17  1  0
  2 18  1  0
  2 19  1  0
  4 20  1  0
  4 21  1  0
  5 22  1  0
 10 23  1  0
 11 24  1  0
 12 25  1  0
 13 26  1  0
M  CHG  1  11   1
M  END
>  <meeko>  (8) 
{"is_sidechain": [false], "free_energy": -5.349, "intermolecular_energy": -5.663, "internal_energy": -0.097}

$$$$
4u4s_ligand
     RDKit          3D

 26 27  0  0  0  0  0  0  0  0999 V2000
  -17.5610   44.5400   -2.6770 C   0  0  0  0  0  0  0  0  0  0  0  0
  -17.8280   45.2580   -3.9910 C   0  0  0  0  0  0  0  0  0  0  0  0
  -16.7840   46.2690   -4.2410 N   0  0  0  0  0  0  0  0  0  0  0  0
  -16.7660   47.3690   -3.2770 C   0  0  0  0  0  0  0  0  0  0  0  0
  -16.2510   48.5540   -3.9030 N   0  0  0  0  0  0  0  0  0  0  0  0
  -14.6540   48.4390   -4.3140 S   0  0  0  0  0  0  0  0  0  0  0  0
  -13.8440   48.2940   -3.1300 O   0  0  0  0  0  0  0  0  0  0  0  0
  -14.3820   49.4280   -5.3310 O   0  0  0  0  0  0  0  0  0  0  0  0
  -14.5970   46.8940   -5.1190 C   0  0  0  0  0  0  0  0  0  0  0  0
  -13.4750   46.6510   -5.9040 C   0  0  0  0  0  0  0  0  0  0  0  0
  -13.3980   45.5030   -6.5920 N   0  0  0  0  0  0  0  0  0  0  0  0
  -14.3800   44.5920   -6.5510 C   0  0  0  0  0  0  0  0  0  0  0  0
  -15.5190   44.8250   -5.7720 C   0  0  0  0  0  0  0  0  0  0  0  0
  -15.6590   45.9950   -5.0090 C   0  0  0  0  0  0  0  0  0  0  0  0
  -17.8089   45.2067   -1.8379 H   0  0  0  0  0  0  0  0  0  0  0  0
  -18.1823   43.6340   -2.6214 H   0  0  0  0  0  0  0  0  0  0  0  0
  -16.4987   44.2601   -2.6214 H   0  0  0  0  0  0  0  0  0  0  0  0
  -17.8282   44.5255   -4.8116 H   0  0  0  0  0  0  0  0  0  0  0  0
  -18.8058   45.7587   -3.9338 H   0  0  0  0  0  0  0  0  0  0  0  0
  -17.7891   47.5592   -2.9204 H   0  0  0  0  0  0  0  0  0  0  0  0
  -16.1225   47.0975   -2.4271 H   0  0  0  0  0  0  0  0  0  0  0  0
  -16.8420   48.9850   -4.6080 H   0  0  0  0  0  0  0  0  0  0  0  0
  -12.6623   47.3902   -5.9596 H   0  0  0  0  0  0  0  0  0  0  0  0
  -12.5720   45.3230   -7.1690 H   0  0  0  0  0  0  0  0  0  0  0  0
  -14.2907   43.6609   -7.1298 H   0  0  0  0  0  0  0  0  0  0  0  0
  -16.3229   44.0743   -5.7572 H   0  0  0  0  0  0  0  0  0  0  0  0
  1  2  1  0
  2  3  1  0
  3  4  1  0
  4  5  1  0
  5  6  1  0
  6  7  2  0
  6  8  2  0
  6  9  1  0
  9 10  2  0
 10 11  1  0
 11 12  2  0
 12 13  1  0
 13 14  2  0
 14  3  1  0
 14  9  1  0
  1 15  1  0
  1 16  1  0
  1 17  1  0
  2 18  1  0
  2 19  1  0
  4 20  1  0
  4 21  1  0
  5 22  1  0
 10 23  1  0
 11 24  1  0
 12 25  1  0
 13 26  1  0
M  CHG  1  11   1
M  END
>  <meeko>  (9) 
{"is_sidechain": [false], "free_energy": -5.062, "intermolecular_energy": -5.357, "internal_energy": -0.099}

$$$$
