4eky_ligand
     RDKit          3D

 44 45  0  0  0  0  0  0  0  0999 V2000
   39.1850   25.2890   32.3880 C   0  0  0  0  0  0  0  0  0  0  0  0
   39.6530   23.8930   32.0010 C   0  0  0  0  0  0  0  0  0  0  0  0
   39.3490   23.5430   30.5440 C   0  0  0  0  0  0  0  0  0  0  0  0
   37.9290   23.7270   30.2120 C   0  0  0  0  0  0  0  0  0  0  0  0
   36.7650   23.8730   29.9570 C   0  0  0  0  0  0  0  0  0  0  0  0
   35.3850   24.0510   29.6600 C   0  0  0  0  0  0  0  0  0  0  0  0
   34.9080   23.8230   28.4300 C   0  0  0  0  0  0  0  0  0  0  0  0
   33.5730   23.9820   28.1000 N   0  0  0  0  0  0  0  0  0  0  0  0
   33.0900   23.7870   26.7280 C   0  0  2  0  0  0  0  0  0  0  0  0
   31.7000   23.4350   26.7460 O   0  0  0  0  0  0  0  0  0  0  0  0
   31.3320   22.3660   25.8700 C   0  0  2  0  0  0  0  0  0  0  0  0
   29.8290   22.1180   26.0610 C   0  0  0  0  0  0  0  0  0  0  0  0
   29.5840   20.8750   26.7140 O   0  0  0  0  0  0  0  0  0  0  0  0
   32.1560   21.1170   26.2110 C   0  0  1  0  0  0  0  0  0  0  0  0
   31.7890   19.9590   25.4570 O   0  0  0  0  0  0  0  0  0  0  0  0
   33.6560   21.3780   25.9920 C   0  0  2  0  0  0  0  0  0  0  0  0
   34.3930   20.7590   27.0580 O   0  0  0  0  0  0  0  0  0  0  0  0
   34.0220   22.8650   25.8950 C   0  0  1  0  0  0  0  0  0  0  0  0
   33.9460   23.2560   24.5050 O   0  0  0  0  0  0  0  0  0  0  0  0
   32.6460   24.4310   29.0300 C   0  0  0  0  0  0  0  0  0  0  0  0
   31.4650   24.6500   28.7660 O   0  0  0  0  0  0  0  0  0  0  0  0
   33.1250   24.6360   30.2950 N   0  0  0  0  0  0  0  0  0  0  0  0
   34.4240   24.5010   30.7020 C   0  0  0  0  0  0  0  0  0  0  0  0
   34.7580   24.7420   31.8580 O   0  0  0  0  0  0  0  0  0  0  0  0
   39.1561   25.3753   33.4842 H   0  0  0  0  0  0  0  0  0  0  0  0
   39.8819   26.0357   31.9797 H   0  0  0  0  0  0  0  0  0  0  0  0
   38.1788   25.4647   31.9797 H   0  0  0  0  0  0  0  0  0  0  0  0
   40.7403   23.8322   32.1565 H   0  0  0  0  0  0  0  0  0  0  0  0
   39.1070   23.1764   32.6321 H   0  0  0  0  0  0  0  0  0  0  0  0
   39.9520   24.1910   29.8910 H   0  0  0  0  0  0  0  0  0  0  0  0
   39.5955   22.4815   30.3938 H   0  0  0  0  0  0  0  0  0  0  0  0
   35.6077   23.4949   27.6472 H   0  0  0  0  0  0  0  0  0  0  0  0
   33.1440   24.7365   26.1752 H   0  0  0  0  0  0  0  0  0  0  0  0
   31.5346   22.6160   24.8181 H   0  0  0  0  0  0  0  0  0  0  0  0
   29.4070   22.9311   26.6700 H   0  0  0  0  0  0  0  0  0  0  0  0
   29.3554   22.0860   25.0687 H   0  0  0  0  0  0  0  0  0  0  0  0
   28.8270   20.4590   26.2610 H   0  0  0  0  0  0  0  0  0  0  0  0
   31.9405   20.9109   27.2698 H   0  0  0  0  0  0  0  0  0  0  0  0
   32.3550   19.2170   25.7650 H   0  0  0  0  0  0  0  0  0  0  0  0
   33.9210   20.9411   25.0179 H   0  0  0  0  0  0  0  0  0  0  0  0
   35.3350   20.8690   26.8260 H   0  0  0  0  0  0  0  0  0  0  0  0
   35.0352   22.9845   26.3064 H   0  0  0  0  0  0  0  0  0  0  0  0
   34.2350   24.1880   24.4630 H   0  0  0  0  0  0  0  0  0  0  0  0
   32.4670   24.9640   30.9860 H   0  0  0  0  0  0  0  0  0  0  0  0
  1  2  1  0
  2  3  1  0
  3  4  1  0
  4  5  3  0
  5  6  1  0
  6  7  2  0
  7  8  1  0
  8  9  1  0
  9 10  1  0
 10 11  1  0
 11 12  1  0
 12 13  1  0
 11 14  1  0
 14 15  1  0
 14 16  1  0
 16 17  1  0
 16 18  1  0
 18 19  1  0
  8 20  1  0
 20 21  2  0
 20 22  1  0
 22 23  1  0
 23 24  2  0
 23  6  1  0
 18  9  1  0
  1 25  1  0
  1 26  1  0
  1 27  1  0
  2 28  1  0
  2 29  1  0
  3 30  1  0
  3 31  1  0
  7 32  1  0
  9 33  1  6
 11 34  1  6
 12 35  1  0
 12 36  1  0
 13 37  1  0
 14 38  1  1
 15 39  1  0
 16 40  1  6
 17 41  1  0
 18 42  1  1
 19 43  1  0
 22 44  1  0
M  END
>  <meeko>  (1) 
{"is_sidechain": [false], "free_energy": -9.321, "intermolecular_energy": -12.59, "internal_energy": 0.047}

$$$$
4eky_ligand
     RDKit          3D

 44 45  0  0  0  0  0  0  0  0999 V2000
   41.4940   23.5380   32.8400 C   0  0  0  0  0  0  0  0  0  0  0  0
   40.0670   23.9140   32.4650 C   0  0  0  0  0  0  0  0  0  0  0  0
   39.8960   24.2010   30.9730 C   0  0  0  0  0  0  0  0  0  0  0  0
   38.4850   24.1690   30.5590 C   0  0  0  0  0  0  0  0  0  0  0  0
   37.3300   24.1320   30.2330 C   0  0  0  0  0  0  0  0  0  0  0  0
   35.9610   24.0930   29.8500 C   0  0  0  0  0  0  0  0  0  0  0  0
   35.5820   23.5420   28.6900 C   0  0  0  0  0  0  0  0  0  0  0  0
   34.2610   23.4820   28.2820 N   0  0  0  0  0  0  0  0  0  0  0  0
   33.8830   22.9300   26.9760 C   0  0  2  0  0  0  0  0  0  0  0  0
   32.6110   23.4580   26.5740 O   0  0  0  0  0  0  0  0  0  0  0  0
   31.7010   22.5010   26.0270 C   0  0  2  0  0  0  0  0  0  0  0  0
   30.4000   23.2470   25.6960 C   0  0  0  0  0  0  0  0  0  0  0  0
   30.6020   24.6570   25.6610 O   0  0  0  0  0  0  0  0  0  0  0  0
   31.4630   21.3790   27.0460 C   0  0  1  0  0  0  0  0  0  0  0  0
   30.4830   20.4220   26.6340 O   0  0  0  0  0  0  0  0  0  0  0  0
   32.7720   20.6290   27.3470 C   0  0  2  0  0  0  0  0  0  0  0  0
   32.8260   20.3410   28.7530 O   0  0  0  0  0  0  0  0  0  0  0  0
   34.0350   21.3850   26.9170 C   0  0  1  0  0  0  0  0  0  0  0  0
   34.3490   20.9990   25.5590 O   0  0  0  0  0  0  0  0  0  0  0  0
   33.2420   24.0330   29.0460 C   0  0  0  0  0  0  0  0  0  0  0  0
   32.0640   24.0620   28.6930 O   0  0  0  0  0  0  0  0  0  0  0  0
   33.6220   24.5700   30.2460 N   0  0  0  0  0  0  0  0  0  0  0  0
   34.9010   24.6670   30.7210 C   0  0  0  0  0  0  0  0  0  0  0  0
   35.1390   25.1990   31.8010 O   0  0  0  0  0  0  0  0  0  0  0  0
   41.5906   23.5125   33.9355 H   0  0  0  0  0  0  0  0  0  0  0  0
   41.7323   22.5464   32.4277 H   0  0  0  0  0  0  0  0  0  0  0  0
   42.1900   24.2834   32.4277 H   0  0  0  0  0  0  0  0  0  0  0  0
   39.4018   23.0823   32.7402 H   0  0  0  0  0  0  0  0  0  0  0  0
   39.8171   24.8375   33.0079 H   0  0  0  0  0  0  0  0  0  0  0  0
   40.3067   25.1978   30.7547 H   0  0  0  0  0  0  0  0  0  0  0  0
   40.4294   23.4172   30.4151 H   0  0  0  0  0  0  0  0  0  0  0  0
   36.3550   23.1182   28.0321 H   0  0  0  0  0  0  0  0  0  0  0  0
   34.5959   23.2659   26.2085 H   0  0  0  0  0  0  0  0  0  0  0  0
   32.1023   22.0357   25.1146 H   0  0  0  0  0  0  0  0  0  0  0  0
   30.0366   22.9133   24.7128 H   0  0  0  0  0  0  0  0  0  0  0  0
   29.6637   23.0228   26.4818 H   0  0  0  0  0  0  0  0  0  0  0  0
   31.1440   24.8480   24.8720 H   0  0  0  0  0  0  0  0  0  0  0  0
   31.0815   21.8846   27.9454 H   0  0  0  0  0  0  0  0  0  0  0  0
   29.9860   20.8160   25.8830 H   0  0  0  0  0  0  0  0  0  0  0  0
   32.7598   19.7046   26.7510 H   0  0  0  0  0  0  0  0  0  0  0  0
   32.7030   21.2000   29.2030 H   0  0  0  0  0  0  0  0  0  0  0  0
   34.8357   21.1183   27.6225 H   0  0  0  0  0  0  0  0  0  0  0  0
   34.3320   21.8180   25.0270 H   0  0  0  0  0  0  0  0  0  0  0  0
   32.8950   24.9770   30.8150 H   0  0  0  0  0  0  0  0  0  0  0  0
  1  2  1  0
  2  3  1  0
  3  4  1  0
  4  5  3  0
  5  6  1  0
  6  7  2  0
  7  8  1  0
  8  9  1  0
  9 10  1  0
 10 11  1  0
 11 12  1  0
 12 13  1  0
 11 14  1  0
 14 15  1  0
 14 16  1  0
 16 17  1  0
 16 18  1  0
 18 19  1  0
  8 20  1  0
 20 21  2  0
 20 22  1  0
 22 23  1  0
 23 24  2  0
 23  6  1  0
 18  9  1  0
  1 25  1  0
  1 26  1  0
  1 27  1  0
  2 28  1  0
  2 29  1  0
  3 30  1  0
  3 31  1  0
  7 32  1  0
  9 33  1  6
 11 34  1  6
 12 35  1  0
 12 36  1  0
 13 37  1  0
 14 38  1  1
 15 39  1  0
 16 40  1  6
 17 41  1  0
 18 42  1  1
 19 43  1  0
 22 44  1  0
M  END
>  <meeko>  (2) 
{"is_sidechain": [false], "free_energy": -9.049, "intermolecular_energy": -12.812, "internal_energy": 0.635}

$$$$
4eky_ligand
     RDKit          3D

 44 45  0  0  0  0  0  0  0  0999 V2000
   42.0080   23.5160   31.1060 C   0  0  0  0  0  0  0  0  0  0  0  0
   40.5300   23.8790   31.0500 C   0  0  0  0  0  0  0  0  0  0  0  0
   39.8110   23.2750   29.8430 C   0  0  0  0  0  0  0  0  0  0  0  0
   38.3610   23.5170   29.8820 C   0  0  0  0  0  0  0  0  0  0  0  0
   37.1780   23.7130   29.9310 C   0  0  0  0  0  0  0  0  0  0  0  0
   35.7770   23.9520   29.9910 C   0  0  0  0  0  0  0  0  0  0  0  0
   34.9280   23.2950   29.1900 C   0  0  0  0  0  0  0  0  0  0  0  0
   33.5590   23.4970   29.2180 N   0  0  0  0  0  0  0  0  0  0  0  0
   32.6600   22.8100   28.2840 C   0  0  2  0  0  0  0  0  0  0  0  0
   33.3030   21.6390   27.7620 O   0  0  0  0  0  0  0  0  0  0  0  0
   33.1530   21.4400   26.3540 C   0  0  2  0  0  0  0  0  0  0  0  0
   33.9340   20.1690   25.9890 C   0  0  0  0  0  0  0  0  0  0  0  0
   33.5310   19.0600   26.7880 O   0  0  0  0  0  0  0  0  0  0  0  0
   33.6890   22.6660   25.6030 C   0  0  1  0  0  0  0  0  0  0  0  0
   33.6790   22.5210   24.1800 O   0  0  0  0  0  0  0  0  0  0  0  0
   32.8800   23.9220   25.9650 C   0  0  2  0  0  0  0  0  0  0  0  0
   33.7840   25.0310   26.0970 O   0  0  0  0  0  0  0  0  0  0  0  0
   32.0380   23.7760   27.2390 C   0  0  1  0  0  0  0  0  0  0  0  0
   30.7350   23.2780   26.8600 O   0  0  0  0  0  0  0  0  0  0  0  0
   32.9830   24.4350   30.0650 C   0  0  0  0  0  0  0  0  0  0  0  0
   31.7810   24.6950   30.0780 O   0  0  0  0  0  0  0  0  0  0  0  0
   33.8440   25.0850   30.9050 N   0  0  0  0  0  0  0  0  0  0  0  0
   35.2040   24.9430   30.9410 C   0  0  0  0  0  0  0  0  0  0  0  0
   35.8930   25.6020   31.7140 O   0  0  0  0  0  0  0  0  0  0  0  0
   42.3268   23.4377   32.1559 H   0  0  0  0  0  0  0  0  0  0  0  0
   42.1681   22.5518   30.6013 H   0  0  0  0  0  0  0  0  0  0  0  0
   42.5966   24.2963   30.6013 H   0  0  0  0  0  0  0  0  0  0  0  0
   40.0443   23.5128   31.9665 H   0  0  0  0  0  0  0  0  0  0  0  0
   40.4635   24.9732   30.9586 H   0  0  0  0  0  0  0  0  0  0  0  0
   40.2205   23.7234   28.9258 H   0  0  0  0  0  0  0  0  0  0  0  0
   39.9725   22.1871   29.8633 H   0  0  0  0  0  0  0  0  0  0  0  0
   35.3368   22.5625   28.4785 H   0  0  0  0  0  0  0  0  0  0  0  0
   31.7733   22.4424   28.8212 H   0  0  0  0  0  0  0  0  0  0  0  0
   32.0969   21.3187   26.0714 H   0  0  0  0  0  0  0  0  0  0  0  0
   33.7541   19.9307   24.9303 H   0  0  0  0  0  0  0  0  0  0  0  0
   35.0023   20.3561   26.1726 H   0  0  0  0  0  0  0  0  0  0  0  0
   32.6180   18.8350   26.5250 H   0  0  0  0  0  0  0  0  0  0  0  0
   34.7367   22.7649   25.9234 H   0  0  0  0  0  0  0  0  0  0  0  0
   34.0190   23.3610   23.7980 H   0  0  0  0  0  0  0  0  0  0  0  0
   32.1603   24.0886   25.1500 H   0  0  0  0  0  0  0  0  0  0  0  0
   34.6080   24.6560   26.4630 H   0  0  0  0  0  0  0  0  0  0  0  0
   31.9835   24.7658   27.7159 H   0  0  0  0  0  0  0  0  0  0  0  0
   30.1500   23.4190   27.6300 H   0  0  0  0  0  0  0  0  0  0  0  0
   33.4450   25.7720   31.5270 H   0  0  0  0  0  0  0  0  0  0  0  0
  1  2  1  0
  2  3  1  0
  3  4  1  0
  4  5  3  0
  5  6  1  0
  6  7  2  0
  7  8  1  0
  8  9  1  0
  9 10  1  0
 10 11  1  0
 11 12  1  0
 12 13  1  0
 11 14  1  0
 14 15  1  0
 14 16  1  0
 16 17  1  0
 16 18  1  0
 18 19  1  0
  8 20  1  0
 20 21  2  0
 20 22  1  0
 22 23  1  0
 23 24  2  0
 23  6  1  0
 18  9  1  0
  1 25  1  0
  1 26  1  0
  1 27  1  0
  2 28  1  0
  2 29  1  0
  3 30  1  0
  3 31  1  0
  7 32  1  0
  9 33  1  1
 11 34  1  1
 12 35  1  0
 12 36  1  0
 13 37  1  0
 14 38  1  1
 15 39  1  0
 16 40  1  6
 17 41  1  0
 18 42  1  1
 19 43  1  0
 22 44  1  0
M  END
>  <meeko>  (3) 
{"is_sidechain": [false], "free_energy": -9.013, "intermolecular_energy": -11.721, "internal_energy": -0.407}

$$$$
4eky_ligand
     RDKit          3D

 44 45  0  0  0  0  0  0  0  0999 V2000
   38.3340   27.3360   35.9340 C   0  0  0  0  0  0  0  0  0  0  0  0
   37.8710   26.9440   34.5370 C   0  0  0  0  0  0  0  0  0  0  0  0
   36.5450   26.1840   34.5370 C   0  0  0  0  0  0  0  0  0  0  0  0
   36.2360   25.6050   33.2210 C   0  0  0  0  0  0  0  0  0  0  0  0
   35.9920   25.1450   32.1390 C   0  0  0  0  0  0  0  0  0  0  0  0
   35.7090   24.5970   30.8570 C   0  0  0  0  0  0  0  0  0  0  0  0
   34.4480   24.3800   30.4610 C   0  0  0  0  0  0  0  0  0  0  0  0
   34.1300   23.8500   29.2220 N   0  0  0  0  0  0  0  0  0  0  0  0
   32.7430   23.5620   28.8410 C   0  0  2  0  0  0  0  0  0  0  0  0
   32.6380   22.2120   28.3680 O   0  0  0  0  0  0  0  0  0  0  0  0
   31.8550   22.0420   27.1840 C   0  0  2  0  0  0  0  0  0  0  0  0
   31.8950   20.5500   26.8230 C   0  0  0  0  0  0  0  0  0  0  0  0
   31.0540   20.2600   25.7090 O   0  0  0  0  0  0  0  0  0  0  0  0
   32.4330   22.9100   26.0580 C   0  0  1  0  0  0  0  0  0  0  0  0
   31.7800   22.7310   24.7980 O   0  0  0  0  0  0  0  0  0  0  0  0
   32.3630   24.4000   26.4290 C   0  0  2  0  0  0  0  0  0  0  0  0
   33.5730   25.0410   25.9950 O   0  0  0  0  0  0  0  0  0  0  0  0
   32.1390   24.6600   27.9240 C   0  0  1  0  0  0  0  0  0  0  0  0
   30.7130   24.7310   28.1580 O   0  0  0  0  0  0  0  0  0  0  0  0
   35.1170   23.4730   28.3220 C   0  0  0  0  0  0  0  0  0  0  0  0
   34.8840   22.9390   27.2380 O   0  0  0  0  0  0  0  0  0  0  0  0
   36.4050   23.7220   28.7110 N   0  0  0  0  0  0  0  0  0  0  0  0
   36.8010   24.2410   29.9130 C   0  0  0  0  0  0  0  0  0  0  0  0
   37.9890   24.3950   30.1780 O   0  0  0  0  0  0  0  0  0  0  0  0
   37.7195   26.8157   36.6834 H   0  0  0  0  0  0  0  0  0  0  0  0
   39.3888   27.0522   36.0638 H   0  0  0  0  0  0  0  0  0  0  0  0
   38.2281   28.4232   36.0638 H   0  0  0  0  0  0  0  0  0  0  0  0
   37.7503   27.8590   33.9384 H   0  0  0  0  0  0  0  0  0  0  0  0
   38.6338   26.2735   34.1144 H   0  0  0  0  0  0  0  0  0  0  0  0
   36.6023   25.3718   35.2766 H   0  0  0  0  0  0  0  0  0  0  0  0
   35.7467   26.8982   34.7873 H   0  0  0  0  0  0  0  0  0  0  0  0
   33.6292   24.6340   31.1503 H   0  0  0  0  0  0  0  0  0  0  0  0
   32.0941   23.6127   29.7278 H   0  0  0  0  0  0  0  0  0  0  0  0
   30.8124   22.3570   27.3382 H   0  0  0  0  0  0  0  0  0  0  0  0
   32.9290   20.2702   26.5728 H   0  0  0  0  0  0  0  0  0  0  0  0
   31.5327   19.9754   27.6882 H   0  0  0  0  0  0  0  0  0  0  0  0
   30.6200   19.4050   25.8940 H   0  0  0  0  0  0  0  0  0  0  0  0
   33.4761   22.5792   25.9462 H   0  0  0  0  0  0  0  0  0  0  0  0
   32.4800   22.5920   24.1230 H   0  0  0  0  0  0  0  0  0  0  0  0
   31.4837   24.8191   25.9180 H   0  0  0  0  0  0  0  0  0  0  0  0
   33.3580   25.9910   25.9250 H   0  0  0  0  0  0  0  0  0  0  0  0
   32.6510   25.6002   28.1767 H   0  0  0  0  0  0  0  0  0  0  0  0
   30.5600   25.5350   28.6920 H   0  0  0  0  0  0  0  0  0  0  0  0
   37.1360   23.4530   28.0710 H   0  0  0  0  0  0  0  0  0  0  0  0
  1  2  1  0
  2  3  1  0
  3  4  1  0
  4  5  3  0
  5  6  1  0
  6  7  2  0
  7  8  1  0
  8  9  1  0
  9 10  1  0
 10 11  1  0
 11 12  1  0
 12 13  1  0
 11 14  1  0
 14 15  1  0
 14 16  1  0
 16 17  1  0
 16 18  1  0
 18 19  1  0
  8 20  1  0
 20 21  2  0
 20 22  1  0
 22 23  1  0
 23 24  2  0
 23  6  1  0
 18  9  1  0
  1 25  1  0
  1 26  1  0
  1 27  1  0
  2 28  1  0
  2 29  1  0
  3 30  1  0
  3 31  1  0
  7 32  1  0
  9 33  1  1
 11 34  1  1
 12 35  1  0
 12 36  1  0
 13 37  1  0
 14 38  1  6
 15 39  1  0
 16 40  1  6
 17 41  1  0
 18 42  1  1
 19 43  1  0
 22 44  1  0
M  END
>  <meeko>  (4) 
{"is_sidechain": [false], "free_energy": -8.129, "intermolecular_energy": -11.9, "internal_energy": 0.967}

$$$$
4eky_ligand
     RDKit          3D

 44 45  0  0  0  0  0  0  0  0999 V2000
   33.6090   21.0850   25.8770 C   0  0  0  0  0  0  0  0  0  0  0  0
   33.5420   22.3760   25.0720 C   0  0  0  0  0  0  0  0  0  0  0  0
   34.5820   23.4080   25.5090 C   0  0  0  0  0  0  0  0  0  0  0  0
   34.5370   23.6640   26.9560 C   0  0  0  0  0  0  0  0  0  0  0  0
   34.4840   23.8700   28.1380 C   0  0  0  0  0  0  0  0  0  0  0  0
   34.4140   24.1120   29.5380 C   0  0  0  0  0  0  0  0  0  0  0  0
   35.5170   24.0980   30.2980 C   0  0  0  0  0  0  0  0  0  0  0  0
   35.4930   24.3300   31.6620 N   0  0  0  0  0  0  0  0  0  0  0  0
   36.7080   24.2450   32.4790 C   0  0  2  0  0  0  0  0  0  0  0  0
   36.7490   25.3380   33.4070 O   0  0  0  0  0  0  0  0  0  0  0  0
   38.0180   25.9850   33.5290 C   0  0  2  0  0  0  0  0  0  0  0  0
   37.8470   27.1380   34.5300 C   0  0  0  0  0  0  0  0  0  0  0  0
   37.5950   28.3730   33.8650 O   0  0  0  0  0  0  0  0  0  0  0  0
   38.4670   26.4960   32.1530 C   0  0  1  0  0  0  0  0  0  0  0  0
   39.6810   27.2520   32.1860 O   0  0  0  0  0  0  0  0  0  0  0  0
   38.6540   25.3270   31.1730 C   0  0  2  0  0  0  0  0  0  0  0  0
   38.1500   25.7190   29.8860 O   0  0  0  0  0  0  0  0  0  0  0  0
   37.9850   24.0220   31.6240 C   0  0  1  0  0  0  0  0  0  0  0  0
   38.9450   23.2730   32.4030 O   0  0  0  0  0  0  0  0  0  0  0  0
   34.3010   24.5550   32.3370 C   0  0  0  0  0  0  0  0  0  0  0  0
   34.2240   24.7010   33.5560 O   0  0  0  0  0  0  0  0  0  0  0  0
   33.1760   24.6000   31.5590 N   0  0  0  0  0  0  0  0  0  0  0  0
   33.1150   24.3830   30.2100 C   0  0  0  0  0  0  0  0  0  0  0  0
   32.0460   24.4140   29.6080 O   0  0  0  0  0  0  0  0  0  0  0  0
   33.5967   21.3216   26.9512 H   0  0  0  0  0  0  0  0  0  0  0  0
   32.7424   20.4539   25.6306 H   0  0  0  0  0  0  0  0  0  0  0  0
   34.5363   20.5470   25.6306 H   0  0  0  0  0  0  0  0  0  0  0  0
   33.7099   22.1368   24.0115 H   0  0  0  0  0  0  0  0  0  0  0  0
   32.5490   22.8179   25.2415 H   0  0  0  0  0  0  0  0  0  0  0  0
   35.5830   23.0352   25.2463 H   0  0  0  0  0  0  0  0  0  0  0  0
   34.3579   24.3527   24.9920 H   0  0  0  0  0  0  0  0  0  0  0  0
   36.4846   23.8930   29.8166 H   0  0  0  0  0  0  0  0  0  0  0  0
   36.6778   23.3362   33.0980 H   0  0  0  0  0  0  0  0  0  0  0  0
   38.7927   25.2932   33.8912 H   0  0  0  0  0  0  0  0  0  0  0  0
   37.0011   26.9112   35.1956 H   0  0  0  0  0  0  0  0  0  0  0  0
   38.7801   27.2387   35.1037 H   0  0  0  0  0  0  0  0  0  0  0  0
   38.1620   29.0460   34.2870 H   0  0  0  0  0  0  0  0  0  0  0  0
   37.6622   27.1670   31.8183 H   0  0  0  0  0  0  0  0  0  0  0  0
   39.5010   28.1140   31.7480 H   0  0  0  0  0  0  0  0  0  0  0  0
   39.7316   25.1100   31.1305 H   0  0  0  0  0  0  0  0  0  0  0  0
   37.1850   25.8140   29.9990 H   0  0  0  0  0  0  0  0  0  0  0  0
   37.6692   23.4810   30.7198 H   0  0  0  0  0  0  0  0  0  0  0  0
   39.7350   23.8410   32.4920 H   0  0  0  0  0  0  0  0  0  0  0  0
   32.3000   24.7610   32.0320 H   0  0  0  0  0  0  0  0  0  0  0  0
  1  2  1  0
  2  3  1  0
  3  4  1  0
  4  5  3  0
  5  6  1  0
  6  7  2  0
  7  8  1  0
  8  9  1  0
  9 10  1  0
 10 11  1  0
 11 12  1  0
 12 13  1  0
 11 14  1  0
 14 15  1  0
 14 16  1  0
 16 17  1  0
 16 18  1  0
 18 19  1  0
  8 20  1  0
 20 21  2  0
 20 22  1  0
 22 23  1  0
 23 24  2  0
 23  6  1  0
 18  9  1  0
  1 25  1  0
  1 26  1  0
  1 27  1  0
  2 28  1  0
  2 29  1  0
  3 30  1  0
  3 31  1  0
  7 32  1  0
  9 33  1  1
 11 34  1  1
 12 35  1  0
 12 36  1  0
 13 37  1  0
 14 38  1  6
 15 39  1  0
 16 40  1  6
 17 41  1  0
 18 42  1  6
 19 43  1  0
 22 44  1  0
M  END
>  <meeko>  (5) 
{"is_sidechain": [false], "free_energy": -7.984, "intermolecular_energy": -10.642, "internal_energy": -0.096}

$$$$
4eky_ligand
     RDKit          3D

 44 45  0  0  0  0  0  0  0  0999 V2000
   40.0580   30.5860   39.9800 C   0  0  0  0  0  0  0  0  0  0  0  0
   39.2970   29.4530   39.3040 C   0  0  0  0  0  0  0  0  0  0  0  0
   40.0830   28.7980   38.1680 C   0  0  0  0  0  0  0  0  0  0  0  0
   39.2060   28.1060   37.2130 C   0  0  0  0  0  0  0  0  0  0  0  0
   38.4790   27.5370   36.4460 C   0  0  0  0  0  0  0  0  0  0  0  0
   37.6120   26.8630   35.5400 C   0  0  0  0  0  0  0  0  0  0  0  0
   37.9240   26.7440   34.2440 C   0  0  0  0  0  0  0  0  0  0  0  0
   37.1100   26.0960   33.3310 N   0  0  0  0  0  0  0  0  0  0  0  0
   37.4470   26.0370   31.9040 C   0  0  2  0  0  0  0  0  0  0  0  0
   36.3740   25.4220   31.1760 O   0  0  0  0  0  0  0  0  0  0  0  0
   36.7780   24.4600   30.1980 C   0  0  2  0  0  0  0  0  0  0  0  0
   35.4990   23.8960   29.5610 C   0  0  0  0  0  0  0  0  0  0  0  0
   35.5440   23.9810   28.1390 O   0  0  0  0  0  0  0  0  0  0  0  0
   37.6030   23.3570   30.8740 C   0  0  1  0  0  0  0  0  0  0  0  0
   37.9670   22.2880   29.9970 O   0  0  0  0  0  0  0  0  0  0  0  0
   38.8890   23.9370   31.4860 C   0  0  2  0  0  0  0  0  0  0  0  0
   39.1200   23.3070   32.7570 O   0  0  0  0  0  0  0  0  0  0  0  0
   38.8670   25.4620   31.6520 C   0  0  1  0  0  0  0  0  0  0  0  0
   39.4020   26.0520   30.4450 O   0  0  0  0  0  0  0  0  0  0  0  0
   35.8860   25.5580   33.7070 C   0  0  0  0  0  0  0  0  0  0  0  0
   35.1010   25.0320   32.9190 O   0  0  0  0  0  0  0  0  0  0  0  0
   35.5790   25.6520   35.0370 N   0  0  0  0  0  0  0  0  0  0  0  0
   36.3260   26.2730   36.0000 C   0  0  0  0  0  0  0  0  0  0  0  0
   35.9440   26.3300   37.1640 O   0  0  0  0  0  0  0  0  0  0  0  0
   39.9846   30.4766   41.0721 H   0  0  0  0  0  0  0  0  0  0  0  0
   41.1151   30.5490   39.6781 H   0  0  0  0  0  0  0  0  0  0  0  0
   39.6239   31.5506   39.6781 H   0  0  0  0  0  0  0  0  0  0  0  0
   39.0673   28.6863   40.0585 H   0  0  0  0  0  0  0  0  0  0  0  0
   38.3853   29.8852   38.8659 H   0  0  0  0  0  0  0  0  0  0  0  0
   40.6461   29.5763   37.6321 H   0  0  0  0  0  0  0  0  0  0  0  0
   40.7567   28.0498   38.6111 H   0  0  0  0  0  0  0  0  0  0  0  0
   38.8691   27.1804   33.8886 H   0  0  0  0  0  0  0  0  0  0  0  0
   37.5312   27.0556   31.4974 H   0  0  0  0  0  0  0  0  0  0  0  0
   37.4106   24.9129   29.4204 H   0  0  0  0  0  0  0  0  0  0  0  0
   35.3891   22.8412   29.8530 H   0  0  0  0  0  0  0  0  0  0  0  0
   34.6446   24.4909   29.9161 H   0  0  0  0  0  0  0  0  0  0  0  0
   34.9230   23.3120   27.7930 H   0  0  0  0  0  0  0  0  0  0  0  0
   36.9460   22.9432   31.6531 H   0  0  0  0  0  0  0  0  0  0  0  0
   37.5770   21.4630   30.3630 H   0  0  0  0  0  0  0  0  0  0  0  0
   39.7067   23.7254   30.7813 H   0  0  0  0  0  0  0  0  0  0  0  0
   38.4520   23.6830   33.3620 H   0  0  0  0  0  0  0  0  0  0  0  0
   39.4696   25.7071   32.5390 H   0  0  0  0  0  0  0  0  0  0  0  0
   39.0900   26.9770   30.4270 H   0  0  0  0  0  0  0  0  0  0  0  0
   34.6930   25.2680   35.3290 H   0  0  0  0  0  0  0  0  0  0  0  0
  1  2  1  0
  2  3  1  0
  3  4  1  0
  4  5  3  0
  5  6  1  0
  6  7  2  0
  7  8  1  0
  8  9  1  0
  9 10  1  0
 10 11  1  0
 11 12  1  0
 12 13  1  0
 11 14  1  0
 14 15  1  0
 14 16  1  0
 16 17  1  0
 16 18  1  0
 18 19  1  0
  8 20  1  0
 20 21  2  0
 20 22  1  0
 22 23  1  0
 23 24  2  0
 23  6  1  0
 18  9  1  0
  1 25  1  0
  1 26  1  0
  1 27  1  0
  2 28  1  0
  2 29  1  0
  3 30  1  0
  3 31  1  0
  7 32  1  0
  9 33  1  6
 11 34  1  6
 12 35  1  0
 12 36  1  0
 13 37  1  0
 14 38  1  1
 15 39  1  0
 16 40  1  6
 17 41  1  0
 18 42  1  1
 19 43  1  0
 22 44  1  0
M  END
>  <meeko>  (6) 
{"is_sidechain": [false], "free_energy": -7.079, "intermolecular_energy": -10.098, "internal_energy": 0.582}

$$$$
4eky_ligand
     RDKit          3D

 44 45  0  0  0  0  0  0  0  0999 V2000
   33.1900   21.1900   27.9270 C   0  0  0  0  0  0  0  0  0  0  0  0
   33.7760   22.5480   27.5640 C   0  0  0  0  0  0  0  0  0  0  0  0
   33.5840   23.5950   28.6610 C   0  0  0  0  0  0  0  0  0  0  0  0
   34.8150   23.8270   29.4300 C   0  0  0  0  0  0  0  0  0  0  0  0
   35.8250   24.0000   30.0570 C   0  0  0  0  0  0  0  0  0  0  0  0
   37.0250   24.2000   30.7940 C   0  0  0  0  0  0  0  0  0  0  0  0
   37.2090   25.3060   31.5270 C   0  0  0  0  0  0  0  0  0  0  0  0
   38.3610   25.5390   32.2600 N   0  0  0  0  0  0  0  0  0  0  0  0
   38.5620   26.7890   33.0010 C   0  0  2  0  0  0  0  0  0  0  0  0
   39.6130   26.6210   33.9630 O   0  0  0  0  0  0  0  0  0  0  0  0
   39.3450   27.1660   35.2570 C   0  0  2  0  0  0  0  0  0  0  0  0
   40.5610   26.8550   36.1420 C   0  0  0  0  0  0  0  0  0  0  0  0
   40.2460   25.8880   37.1410 O   0  0  0  0  0  0  0  0  0  0  0  0
   38.0630   26.5400   35.8220 C   0  0  1  0  0  0  0  0  0  0  0  0
   37.7640   26.9440   37.1610 O   0  0  0  0  0  0  0  0  0  0  0  0
   36.8540   26.8820   34.9350 C   0  0  2  0  0  0  0  0  0  0  0  0
   36.0150   25.7200   34.8310 O   0  0  0  0  0  0  0  0  0  0  0  0
   37.2300   27.3840   33.5350 C   0  0  1  0  0  0  0  0  0  0  0  0
   37.3530   28.8240   33.5930 O   0  0  0  0  0  0  0  0  0  0  0  0
   39.4210   24.6430   32.2460 C   0  0  0  0  0  0  0  0  0  0  0  0
   40.4870   24.8380   32.8280 O   0  0  0  0  0  0  0  0  0  0  0  0
   39.2230   23.4980   31.5230 N   0  0  0  0  0  0  0  0  0  0  0  0
   38.1190   23.1930   30.7750 C   0  0  0  0  0  0  0  0  0  0  0  0
   38.0540   22.1490   30.1340 O   0  0  0  0  0  0  0  0  0  0  0  0
   33.1469   21.0900   29.0216 H   0  0  0  0  0  0  0  0  0  0  0  0
   32.1753   21.1054   27.5108 H   0  0  0  0  0  0  0  0  0  0  0  0
   33.8246   20.3937   27.5108 H   0  0  0  0  0  0  0  0  0  0  0  0
   34.8537   22.4267   27.3802 H   0  0  0  0  0  0  0  0  0  0  0  0
   33.2444   22.9070   26.6704 H   0  0  0  0  0  0  0  0  0  0  0  0
   33.2732   24.5422   28.1959 H   0  0  0  0  0  0  0  0  0  0  0  0
   32.8182   23.2192   29.3555 H   0  0  0  0  0  0  0  0  0  0  0  0
   36.4104   26.0622   31.5477 H   0  0  0  0  0  0  0  0  0  0  0  0
   38.9135   27.5759   32.3175 H   0  0  0  0  0  0  0  0  0  0  0  0
   39.1873   28.2538   35.2140 H   0  0  0  0  0  0  0  0  0  0  0  0
   41.3726   26.4650   35.5102 H   0  0  0  0  0  0  0  0  0  0  0  0
   40.8685   27.7836   36.6451 H   0  0  0  0  0  0  0  0  0  0  0  0
   40.8670   25.1450   37.0250 H   0  0  0  0  0  0  0  0  0  0  0  0
   38.2525   25.4565   35.8323 H   0  0  0  0  0  0  0  0  0  0  0  0
   36.8040   26.7910   37.3050 H   0  0  0  0  0  0  0  0  0  0  0  0
   36.3240   27.7158   35.4187 H   0  0  0  0  0  0  0  0  0  0  0  0
   35.3220   25.8350   35.5100 H   0  0  0  0  0  0  0  0  0  0  0  0
   36.4382   27.0600   32.8436 H   0  0  0  0  0  0  0  0  0  0  0  0
   36.7570   29.1800   32.9070 H   0  0  0  0  0  0  0  0  0  0  0  0
   39.9830   22.8350   31.4990 H   0  0  0  0  0  0  0  0  0  0  0  0
  1  2  1  0
  2  3  1  0
  3  4  1  0
  4  5  3  0
  5  6  1  0
  6  7  2  0
  7  8  1  0
  8  9  1  0
  9 10  1  0
 10 11  1  0
 11 12  1  0
 12 13  1  0
 11 14  1  0
 14 15  1  0
 14 16  1  0
 16 17  1  0
 16 18  1  0
 18 19  1  0
  8 20  1  0
 20 21  2  0
 20 22  1  0
 22 23  1  0
 23 24  2  0
 23  6  1  0
 18  9  1  0
  1 25  1  0
  1 26  1  0
  1 27  1  0
  2 28  1  0
  2 29  1  0
  3 30  1  0
  3 31  1  0
  7 32  1  0
  9 33  1  6
 11 34  1  6
 12 35  1  0
 12 36  1  0
 13 37  1  0
 14 38  1  1
 15 39  1  0
 16 40  1  1
 17 41  1  0
 18 42  1  6
 19 43  1  0
 22 44  1  0
M  END
>  <meeko>  (7) 
{"is_sidechain": [false], "free_energy": -6.483, "intermolecular_energy": -8.883, "internal_energy": 0.172}

$$$$
