4wiv_ligand
     RDKit          3D

 50 53  0  0  0  0  0  0  0  0999 V2000
   14.5160   -8.5570   -9.7020 C   0  0  0  0  0  0  0  0  0  0  0  0
   13.2980   -8.0880  -10.4040 C   0  0  0  0  0  0  0  0  0  0  0  0
   12.3240   -8.9550  -10.7070 N   0  0  0  0  0  0  0  0  0  0  0  0
   11.3490   -8.2170  -11.3490 O   0  0  0  0  0  0  0  0  0  0  0  0
   11.7350   -6.9150  -11.4240 C   0  0  0  0  0  0  0  0  0  0  0  0
   10.7790   -5.9920  -12.0680 C   0  0  0  0  0  0  0  0  0  0  0  0
   12.9780   -6.7770  -10.8450 C   0  0  0  0  0  0  0  0  0  0  0  0
   13.7070   -5.5340  -10.7310 C   0  0  0  0  0  0  0  0  0  0  0  0
   13.9910   -5.0010   -9.4680 C   0  0  0  0  0  0  0  0  0  0  0  0
   14.7030   -3.8030   -9.3540 C   0  0  0  0  0  0  0  0  0  0  0  0
   15.1530   -3.1330  -10.4970 C   0  0  0  0  0  0  0  0  0  0  0  0
   15.8940   -1.8940  -10.3510 C   0  0  0  0  0  0  0  0  0  0  0  0
   16.4400   -1.5110   -9.1420 N   0  0  0  0  0  0  0  0  0  0  0  0
   16.9760   -0.3400   -9.3920 C   0  0  0  0  0  0  0  0  0  0  0  0
   17.6370    0.5520   -8.4800 C   0  0  0  0  0  0  0  0  0  0  0  0
   18.0760    1.7250   -8.8580 N   0  0  0  0  0  0  0  0  0  0  0  0
   17.8690    2.0880  -10.1800 C   0  0  0  0  0  0  0  0  0  0  0  0
   17.2710    1.3030  -11.0930 C   0  0  0  0  0  0  0  0  0  0  0  0
   16.8300    0.0510  -10.6980 N   0  0  0  0  0  0  0  0  0  0  0  0
   16.2020   -0.9870  -11.3640 C   0  0  0  0  0  0  0  0  0  0  0  0
   15.9420   -0.9440  -12.7130 N   0  0  0  0  0  0  0  0  0  0  0  0
   17.0010   -1.3580  -13.6790 C   0  0  0  0  0  0  0  0  0  0  0  0
   16.3030   -2.2190  -14.7510 C   0  0  0  0  0  0  0  0  0  0  0  0
   17.6670   -0.1670  -14.3780 C   0  0  0  0  0  0  0  0  0  0  0  0
   18.0680   -2.2150  -12.9790 C   0  0  0  0  0  0  0  0  0  0  0  0
   14.8540   -3.6570  -11.7590 C   0  0  0  0  0  0  0  0  0  0  0  0
   14.1400   -4.8560  -11.8760 C   0  0  0  0  0  0  0  0  0  0  0  0
   14.3589   -8.4965   -8.6150 H   0  0  0  0  0  0  0  0  0  0  0  0
   14.7238   -9.5995   -9.9850 H   0  0  0  0  0  0  0  0  0  0  0  0
   15.3693   -7.9231   -9.9850 H   0  0  0  0  0  0  0  0  0  0  0  0
   10.2162   -5.4487  -11.2946 H   0  0  0  0  0  0  0  0  0  0  0  0
   11.3281   -5.2738  -12.6945 H   0  0  0  0  0  0  0  0  0  0  0  0
   10.0805   -6.5660  -12.6945 H   0  0  0  0  0  0  0  0  0  0  0  0
   13.6530   -5.5263   -8.5625 H   0  0  0  0  0  0  0  0  0  0  0  0
   14.9109   -3.3841   -8.3583 H   0  0  0  0  0  0  0  0  0  0  0  0
   17.7779    0.2399   -7.4347 H   0  0  0  0  0  0  0  0  0  0  0  0
   18.2159    3.0809  -10.5021 H   0  0  0  0  0  0  0  0  0  0  0  0
   17.1352    1.6469  -12.1290 H   0  0  0  0  0  0  0  0  0  0  0  0
   15.1120   -1.4870  -12.9580 H   0  0  0  0  0  0  0  0  0  0  0  0
   15.6830   -2.9838  -14.2604 H   0  0  0  0  0  0  0  0  0  0  0  0
   15.6664   -1.5781  -15.3786 H   0  0  0  0  0  0  0  0  0  0  0  0
   17.0617   -2.7093  -15.3786 H   0  0  0  0  0  0  0  0  0  0  0  0
   18.0570    0.5305  -13.6221 H   0  0  0  0  0  0  0  0  0  0  0  0
   18.4948   -0.5269  -15.0067 H   0  0  0  0  0  0  0  0  0  0  0  0
   16.9270    0.3498  -15.0067 H   0  0  0  0  0  0  0  0  0  0  0  0
   17.9543   -2.1237  -11.8887 H   0  0  0  0  0  0  0  0  0  0  0  0
   17.9442   -3.2675  -13.2737 H   0  0  0  0  0  0  0  0  0  0  0  0
   19.0690   -1.8670  -13.2737 H   0  0  0  0  0  0  0  0  0  0  0  0
   15.1814   -3.1245  -12.6642 H   0  0  0  0  0  0  0  0  0  0  0  0
   13.9186   -5.2666  -12.8722 H   0  0  0  0  0  0  0  0  0  0  0  0
  1  2  1  0
  2  3  2  0
  3  4  1  0
  4  5  1  0
  5  6  1  0
  5  7  2  0
  7  8  1  0
  8  9  2  0
  9 10  1  0
 10 11  2  0
 11 12  1  0
 12 13  1  0
 13 14  2  0
 14 15  1  0
 15 16  2  0
 16 17  1  0
 17 18  2  0
 18 19  1  0
 19 20  1  0
 20 21  1  0
 21 22  1  0
 22 23  1  0
 22 24  1  0
 22 25  1  0
 11 26  1  0
 26 27  2  0
  7  2  1  0
 27  8  1  0
 20 12  2  0
 19 14  1  0
  1 28  1  0
  1 29  1  0
  1 30  1  0
  6 31  1  0
  6 32  1  0
  6 33  1  0
  9 34  1  0
 10 35  1  0
 15 36  1  0
 17 37  1  0
 18 38  1  0
 21 39  1  0
 23 40  1  0
 23 41  1  0
 23 42  1  0
 24 43  1  0
 24 44  1  0
 24 45  1  0
 25 46  1  0
 25 47  1  0
 25 48  1  0
 26 49  1  0
 27 50  1  0
M  END
>  <meeko>  (1) 
{"is_sidechain": [false], "free_energy": -8.229, "intermolecular_energy": -10.153, "internal_energy": -0.748}

$$$$
4wiv_ligand
     RDKit          3D

 50 53  0  0  0  0  0  0  0  0999 V2000
   10.5550   -7.1080  -11.4350 C   0  0  0  0  0  0  0  0  0  0  0  0
   11.6620   -8.0680  -11.2120 C   0  0  0  0  0  0  0  0  0  0  0  0
   11.5030   -9.3590  -11.5290 N   0  0  0  0  0  0  0  0  0  0  0  0
   12.6950   -9.9760  -11.2020 O   0  0  0  0  0  0  0  0  0  0  0  0
   13.5630   -9.0580  -10.6970 C   0  0  0  0  0  0  0  0  0  0  0  0
   14.8970   -9.5670  -10.3220 C   0  0  0  0  0  0  0  0  0  0  0  0
   12.9520   -7.8230  -10.6710 C   0  0  0  0  0  0  0  0  0  0  0  0
   13.5690   -6.6010  -10.2070 C   0  0  0  0  0  0  0  0  0  0  0  0
   14.0680   -6.5190   -8.9020 C   0  0  0  0  0  0  0  0  0  0  0  0
   14.6720   -5.3420   -8.4520 C   0  0  0  0  0  0  0  0  0  0  0  0
   14.7980   -4.2380   -9.3040 C   0  0  0  0  0  0  0  0  0  0  0  0
   15.4330   -3.0290   -8.8140 C   0  0  0  0  0  0  0  0  0  0  0  0
   15.9710   -2.0900   -9.6720 N   0  0  0  0  0  0  0  0  0  0  0  0
   16.4850   -1.1860   -8.8720 C   0  0  0  0  0  0  0  0  0  0  0  0
   17.2240   -0.0040   -9.2200 C   0  0  0  0  0  0  0  0  0  0  0  0
   17.7340    0.7840   -8.3090 N   0  0  0  0  0  0  0  0  0  0  0  0
   17.5450    0.4310   -6.9820 C   0  0  0  0  0  0  0  0  0  0  0  0
   16.8550   -0.6510   -6.5800 C   0  0  0  0  0  0  0  0  0  0  0  0
   16.2940   -1.4710   -7.5450 N   0  0  0  0  0  0  0  0  0  0  0  0
   15.5340   -2.6250   -7.4830 C   0  0  0  0  0  0  0  0  0  0  0  0
   15.1170   -3.1680   -6.2910 N   0  0  0  0  0  0  0  0  0  0  0  0
   13.7470   -2.8630   -5.7830 C   0  0  0  0  0  0  0  0  0  0  0  0
   13.9190   -1.8240   -4.6590 C   0  0  0  0  0  0  0  0  0  0  0  0
   12.8350   -2.2610   -6.8590 C   0  0  0  0  0  0  0  0  0  0  0  0
   13.0950   -4.1230   -5.1930 C   0  0  0  0  0  0  0  0  0  0  0  0
   14.2820   -4.3140  -10.6020 C   0  0  0  0  0  0  0  0  0  0  0  0
   13.6760   -5.4920  -11.0540 C   0  0  0  0  0  0  0  0  0  0  0  0
   10.1633   -6.7683  -10.4649 H   0  0  0  0  0  0  0  0  0  0  0  0
   10.9285   -6.2431  -12.0028 H   0  0  0  0  0  0  0  0  0  0  0  0
    9.7516   -7.6002  -12.0028 H   0  0  0  0  0  0  0  0  0  0  0  0
   14.9822   -9.5995   -9.2258 H   0  0  0  0  0  0  0  0  0  0  0  0
   15.0312  -10.5795  -10.7304 H   0  0  0  0  0  0  0  0  0  0  0  0
   15.6716   -8.9012  -10.7304 H   0  0  0  0  0  0  0  0  0  0  0  0
   13.9844   -7.3843   -8.2280 H   0  0  0  0  0  0  0  0  0  0  0  0
   15.0512   -5.2823   -7.4211 H   0  0  0  0  0  0  0  0  0  0  0  0
   17.3648    0.2452  -10.2821 H   0  0  0  0  0  0  0  0  0  0  0  0
   17.9873    1.0766   -6.2090 H   0  0  0  0  0  0  0  0  0  0  0  0
   16.7389   -0.8794   -5.5102 H   0  0  0  0  0  0  0  0  0  0  0  0
   15.1950   -4.1870   -6.2880 H   0  0  0  0  0  0  0  0  0  0  0  0
   13.8363   -2.3233   -3.6823 H   0  0  0  0  0  0  0  0  0  0  0  0
   14.9078   -1.3500   -4.7460 H   0  0  0  0  0  0  0  0  0  0  0  0
   13.1357   -1.0567   -4.7460 H   0  0  0  0  0  0  0  0  0  0  0  0
   12.0097   -1.7162   -6.3773 H   0  0  0  0  0  0  0  0  0  0  0  0
   13.4154   -1.5679   -7.4858 H   0  0  0  0  0  0  0  0  0  0  0  0
   12.4258   -3.0671   -7.4858 H   0  0  0  0  0  0  0  0  0  0  0  0
   13.1224   -4.0700   -4.0946 H   0  0  0  0  0  0  0  0  0  0  0  0
   12.0502   -4.1878   -5.5310 H   0  0  0  0  0  0  0  0  0  0  0  0
   13.6456   -5.0133   -5.5310 H   0  0  0  0  0  0  0  0  0  0  0  0
   14.3528   -3.4436  -11.2709 H   0  0  0  0  0  0  0  0  0  0  0  0
   13.2821   -5.5464  -12.0796 H   0  0  0  0  0  0  0  0  0  0  0  0
  1  2  1  0
  2  3  2  0
  3  4  1  0
  4  5  1  0
  5  6  1  0
  5  7  2  0
  7  8  1  0
  8  9  2  0
  9 10  1  0
 10 11  2  0
 11 12  1  0
 12 13  1  0
 13 14  2  0
 14 15  1  0
 15 16  2  0
 16 17  1  0
 17 18  2  0
 18 19  1  0
 19 20  1  0
 20 21  1  0
 21 22  1  0
 22 23  1  0
 22 24  1  0
 22 25  1  0
 11 26  1  0
 26 27  2  0
  7  2  1  0
 27  8  1  0
 20 12  2  0
 19 14  1  0
  1 28  1  0
  1 29  1  0
  1 30  1  0
  6 31  1  0
  6 32  1  0
  6 33  1  0
  9 34  1  0
 10 35  1  0
 15 36  1  0
 17 37  1  0
 18 38  1  0
 21 39  1  0
 23 40  1  0
 23 41  1  0
 23 42  1  0
 24 43  1  0
 24 44  1  0
 24 45  1  0
 25 46  1  0
 25 47  1  0
 25 48  1  0
 26 49  1  0
 27 50  1  0
M  END
>  <meeko>  (2) 
{"is_sidechain": [false], "free_energy": -8.116, "intermolecular_energy": -9.992, "internal_energy": -0.77}

$$$$
4wiv_ligand
     RDKit          3D

 50 53  0  0  0  0  0  0  0  0999 V2000
   14.7440   -9.6340  -10.3950 C   0  0  0  0  0  0  0  0  0  0  0  0
   13.4290   -9.1100  -10.8330 C   0  0  0  0  0  0  0  0  0  0  0  0
   12.5160   -9.9400  -11.3530 N   0  0  0  0  0  0  0  0  0  0  0  0
   11.4230   -9.1530  -11.6580 O   0  0  0  0  0  0  0  0  0  0  0  0
   11.6790   -7.8610  -11.3170 C   0  0  0  0  0  0  0  0  0  0  0  0
   10.5870   -6.8990  -11.5640 C   0  0  0  0  0  0  0  0  0  0  0  0
   12.9510   -7.7740  -10.7950 C   0  0  0  0  0  0  0  0  0  0  0  0
   13.5690   -6.5590  -10.3150 C   0  0  0  0  0  0  0  0  0  0  0  0
   14.0510   -6.4880   -9.0030 C   0  0  0  0  0  0  0  0  0  0  0  0
   14.6570   -5.3170   -8.5390 C   0  0  0  0  0  0  0  0  0  0  0  0
   14.8030   -4.2090   -9.3810 C   0  0  0  0  0  0  0  0  0  0  0  0
   15.4390   -3.0070   -8.8760 C   0  0  0  0  0  0  0  0  0  0  0  0
   15.9660   -2.0520   -9.7220 N   0  0  0  0  0  0  0  0  0  0  0  0
   16.4860   -1.1610   -8.9110 C   0  0  0  0  0  0  0  0  0  0  0  0
   17.2180    0.0300   -9.2440 C   0  0  0  0  0  0  0  0  0  0  0  0
   17.7350    0.8020   -8.3240 N   0  0  0  0  0  0  0  0  0  0  0  0
   17.5600    0.4240   -7.0020 C   0  0  0  0  0  0  0  0  0  0  0  0
   16.8770   -0.6670   -6.6130 C   0  0  0  0  0  0  0  0  0  0  0  0
   16.3090   -1.4710   -7.5880 N   0  0  0  0  0  0  0  0  0  0  0  0
   15.5530   -2.6280   -7.5390 C   0  0  0  0  0  0  0  0  0  0  0  0
   15.1500   -3.1950   -6.3530 N   0  0  0  0  0  0  0  0  0  0  0  0
   13.7850   -2.9010   -5.8250 C   0  0  0  0  0  0  0  0  0  0  0  0
   13.9680   -1.8840   -4.6820 C   0  0  0  0  0  0  0  0  0  0  0  0
   12.8610   -2.2800   -6.8790 C   0  0  0  0  0  0  0  0  0  0  0  0
   13.1410   -4.1740   -5.2520 C   0  0  0  0  0  0  0  0  0  0  0  0
   14.3040   -4.2740  -10.6870 C   0  0  0  0  0  0  0  0  0  0  0  0
   13.6960   -5.4450  -11.1540 C   0  0  0  0  0  0  0  0  0  0  0  0
   14.7846   -9.6502   -9.2959 H   0  0  0  0  0  0  0  0  0  0  0  0
   14.8793  -10.6547  -10.7820 H   0  0  0  0  0  0  0  0  0  0  0  0
   15.5443   -8.9861  -10.7820 H   0  0  0  0  0  0  0  0  0  0  0  0
   10.1855   -6.5453  -10.6029 H   0  0  0  0  0  0  0  0  0  0  0  0
   10.9746   -6.0435  -12.1366 H   0  0  0  0  0  0  0  0  0  0  0  0
    9.7872   -7.3913  -12.1366 H   0  0  0  0  0  0  0  0  0  0  0  0
   13.9526   -7.3563   -8.3349 H   0  0  0  0  0  0  0  0  0  0  0  0
   15.0224   -5.2660   -7.5027 H   0  0  0  0  0  0  0  0  0  0  0  0
   17.3470    0.2998  -10.3026 H   0  0  0  0  0  0  0  0  0  0  0  0
   18.0082    1.0566   -6.2217 H   0  0  0  0  0  0  0  0  0  0  0  0
   16.7718   -0.9152   -5.5465 H   0  0  0  0  0  0  0  0  0  0  0  0
   15.2300   -4.2130   -6.3700 H   0  0  0  0  0  0  0  0  0  0  0  0
   13.8753   -2.3991   -3.7145 H   0  0  0  0  0  0  0  0  0  0  0  0
   14.9636   -1.4225   -4.7578 H   0  0  0  0  0  0  0  0  0  0  0  0
   13.1957   -1.1044   -4.7578 H   0  0  0  0  0  0  0  0  0  0  0  0
   12.0482   -1.7338   -6.3780 H   0  0  0  0  0  0  0  0  0  0  0  0
   13.4369   -1.5849   -7.5076 H   0  0  0  0  0  0  0  0  0  0  0  0
   12.4349   -3.0758   -7.5076 H   0  0  0  0  0  0  0  0  0  0  0  0
   13.1619   -4.1327   -4.1530 H   0  0  0  0  0  0  0  0  0  0  0  0
   12.0987   -4.2446   -5.5965 H   0  0  0  0  0  0  0  0  0  0  0  0
   13.7016   -5.0555   -5.5965 H   0  0  0  0  0  0  0  0  0  0  0  0
   14.3901   -3.4003  -11.3498 H   0  0  0  0  0  0  0  0  0  0  0  0
   13.3160   -5.4905  -12.1853 H   0  0  0  0  0  0  0  0  0  0  0  0
  1  2  1  0
  2  3  2  0
  3  4  1  0
  4  5  1  0
  5  6  1  0
  5  7  2  0
  7  8  1  0
  8  9  2  0
  9 10  1  0
 10 11  2  0
 11 12  1  0
 12 13  1  0
 13 14  2  0
 14 15  1  0
 15 16  2  0
 16 17  1  0
 17 18  2  0
 18 19  1  0
 19 20  1  0
 20 21  1  0
 21 22  1  0
 22 23  1  0
 22 24  1  0
 22 25  1  0
 11 26  1  0
 26 27  2  0
  7  2  1  0
 27  8  1  0
 20 12  2  0
 19 14  1  0
  1 28  1  0
  1 29  1  0
  1 30  1  0
  6 31  1  0
  6 32  1  0
  6 33  1  0
  9 34  1  0
 10 35  1  0
 15 36  1  0
 17 37  1  0
 18 38  1  0
 21 39  1  0
 23 40  1  0
 23 41  1  0
 23 42  1  0
 24 43  1  0
 24 44  1  0
 24 45  1  0
 25 46  1  0
 25 47  1  0
 25 48  1  0
 26 49  1  0
 27 50  1  0
M  END
>  <meeko>  (3) 
{"is_sidechain": [false], "free_energy": -8.014, "intermolecular_energy": -9.891, "internal_energy": -0.745}

$$$$
4wiv_ligand
     RDKit          3D

 50 53  0  0  0  0  0  0  0  0999 V2000
   15.0220   -7.4080   -9.1080 C   0  0  0  0  0  0  0  0  0  0  0  0
   13.7720   -7.3230   -9.9000 C   0  0  0  0  0  0  0  0  0  0  0  0
   12.8960   -8.3350   -9.8810 N   0  0  0  0  0  0  0  0  0  0  0  0
   11.8590   -7.9510  -10.7090 O   0  0  0  0  0  0  0  0  0  0  0  0
   12.1120   -6.7140  -11.2160 C   0  0  0  0  0  0  0  0  0  0  0  0
   11.0750   -6.1570  -12.1070 C   0  0  0  0  0  0  0  0  0  0  0  0
   13.3260   -6.2690  -10.7400 C   0  0  0  0  0  0  0  0  0  0  0  0
   13.9220   -4.9910  -11.0560 C   0  0  0  0  0  0  0  0  0  0  0  0
   14.4180   -4.7460  -12.3410 C   0  0  0  0  0  0  0  0  0  0  0  0
   14.9890   -3.5080  -12.6520 C   0  0  0  0  0  0  0  0  0  0  0  0
   15.0580   -2.4960  -11.6880 C   0  0  0  0  0  0  0  0  0  0  0  0
   15.6510   -1.2190  -12.0370 C   0  0  0  0  0  0  0  0  0  0  0  0
   15.0580   -0.3650  -12.9470 N   0  0  0  0  0  0  0  0  0  0  0  0
   15.8970    0.6390  -13.0330 C   0  0  0  0  0  0  0  0  0  0  0  0
   15.8170    1.7990  -13.8770 C   0  0  0  0  0  0  0  0  0  0  0  0
   16.7640    2.7010  -13.9030 N   0  0  0  0  0  0  0  0  0  0  0  0
   17.8650    2.4940  -13.0870 C   0  0  0  0  0  0  0  0  0  0  0  0
   18.0050    1.4410  -12.2620 C   0  0  0  0  0  0  0  0  0  0  0  0
   16.9900    0.4990  -12.2170 N   0  0  0  0  0  0  0  0  0  0  0  0
   16.8090   -0.6650  -11.4930 C   0  0  0  0  0  0  0  0  0  0  0  0
   17.7050   -1.0840  -10.5380 N   0  0  0  0  0  0  0  0  0  0  0  0
   17.6320   -0.5140   -9.1610 C   0  0  0  0  0  0  0  0  0  0  0  0
   19.0510   -0.6170   -8.5690 C   0  0  0  0  0  0  0  0  0  0  0  0
   17.2130    0.9620   -9.1500 C   0  0  0  0  0  0  0  0  0  0  0  0
   16.6730   -1.3340   -8.2840 C   0  0  0  0  0  0  0  0  0  0  0  0
   14.5780   -2.7470  -10.3980 C   0  0  0  0  0  0  0  0  0  0  0  0
   14.0080   -3.9870  -10.0850 C   0  0  0  0  0  0  0  0  0  0  0  0
   14.7783   -7.3914   -8.0355 H   0  0  0  0  0  0  0  0  0  0  0  0
   15.5467   -8.3439   -9.3504 H   0  0  0  0  0  0  0  0  0  0  0  0
   15.6686   -6.5517   -9.3504 H   0  0  0  0  0  0  0  0  0  0  0  0
   10.2660   -5.7225  -11.5014 H   0  0  0  0  0  0  0  0  0  0  0  0
   11.5181   -5.3755  -12.7418 H   0  0  0  0  0  0  0  0  0  0  0  0
   10.6682   -6.9580  -12.7418 H   0  0  0  0  0  0  0  0  0  0  0  0
   14.3586   -5.5304  -13.1099 H   0  0  0  0  0  0  0  0  0  0  0  0
   15.3868   -3.3284  -13.6617 H   0  0  0  0  0  0  0  0  0  0  0  0
   14.9342    1.9324  -14.5196 H   0  0  0  0  0  0  0  0  0  0  0  0
   18.6751    3.2375  -13.1159 H   0  0  0  0  0  0  0  0  0  0  0  0
   18.9040    1.3303  -11.6378 H   0  0  0  0  0  0  0  0  0  0  0  0
   17.6900   -2.0990  -10.4210 H   0  0  0  0  0  0  0  0  0  0  0  0
   18.9913   -0.6127   -7.4706 H   0  0  0  0  0  0  0  0  0  0  0  0
   19.5223   -1.5517   -8.9069 H   0  0  0  0  0  0  0  0  0  0  0  0
   19.6524    0.2399   -8.9069 H   0  0  0  0  0  0  0  0  0  0  0  0
   17.1149    1.3076   -8.1103 H   0  0  0  0  0  0  0  0  0  0  0  0
   17.9759    1.5636   -9.6659 H   0  0  0  0  0  0  0  0  0  0  0  0
   16.2478    1.0730   -9.6659 H   0  0  0  0  0  0  0  0  0  0  0  0
   16.8940   -1.1450   -7.2231 H   0  0  0  0  0  0  0  0  0  0  0  0
   15.6355   -1.0394   -8.5005 H   0  0  0  0  0  0  0  0  0  0  0  0
   16.8029   -2.4046   -8.5005 H   0  0  0  0  0  0  0  0  0  0  0  0
   14.6488   -1.9665   -9.6261 H   0  0  0  0  0  0  0  0  0  0  0  0
   13.6258   -4.1729   -9.0704 H   0  0  0  0  0  0  0  0  0  0  0  0
  1  2  1  0
  2  3  2  0
  3  4  1  0
  4  5  1  0
  5  6  1  0
  5  7  2  0
  7  8  1  0
  8  9  2  0
  9 10  1  0
 10 11  2  0
 11 12  1  0
 12 13  1  0
 13 14  2  0
 14 15  1  0
 15 16  2  0
 16 17  1  0
 17 18  2  0
 18 19  1  0
 19 20  1  0
 20 21  1  0
 21 22  1  0
 22 23  1  0
 22 24  1  0
 22 25  1  0
 11 26  1  0
 26 27  2  0
  7  2  1  0
 27  8  1  0
 20 12  2  0
 19 14  1  0
  1 28  1  0
  1 29  1  0
  1 30  1  0
  6 31  1  0
  6 32  1  0
  6 33  1  0
  9 34  1  0
 10 35  1  0
 15 36  1  0
 17 37  1  0
 18 38  1  0
 21 39  1  0
 23 40  1  0
 23 41  1  0
 23 42  1  0
 24 43  1  0
 24 44  1  0
 24 45  1  0
 25 46  1  0
 25 47  1  0
 25 48  1  0
 26 49  1  0
 27 50  1  0
M  END
>  <meeko>  (4) 
{"is_sidechain": [false], "free_energy": -7.809, "intermolecular_energy": -9.891, "internal_energy": -0.492}

$$$$
4wiv_ligand
     RDKit          3D

 50 53  0  0  0  0  0  0  0  0999 V2000
   11.0980   -6.1320  -12.2830 C   0  0  0  0  0  0  0  0  0  0  0  0
   12.0810   -6.6850  -11.3230 C   0  0  0  0  0  0  0  0  0  0  0  0
   11.8280   -7.8400  -10.6950 N   0  0  0  0  0  0  0  0  0  0  0  0
   12.9190   -8.0730   -9.8810 O   0  0  0  0  0  0  0  0  0  0  0  0
   13.8230   -7.0660  -10.0250 C   0  0  0  0  0  0  0  0  0  0  0  0
   15.0600   -7.1880   -9.2310 C   0  0  0  0  0  0  0  0  0  0  0  0
   13.3340   -6.1460  -10.9270 C   0  0  0  0  0  0  0  0  0  0  0  0
   14.0210   -4.9440  -11.3410 C   0  0  0  0  0  0  0  0  0  0  0  0
   14.6110   -4.8740  -12.6080 C   0  0  0  0  0  0  0  0  0  0  0  0
   15.2690   -3.7090  -13.0140 C   0  0  0  0  0  0  0  0  0  0  0  0
   15.3340   -2.5970  -12.1670 C   0  0  0  0  0  0  0  0  0  0  0  0
   16.0200   -1.3990  -12.6150 C   0  0  0  0  0  0  0  0  0  0  0  0
   15.5620   -0.6550  -13.6840 N   0  0  0  0  0  0  0  0  0  0  0  0
   16.4530    0.3000  -13.8110 C   0  0  0  0  0  0  0  0  0  0  0  0
   16.5130    1.3380  -14.8020 C   0  0  0  0  0  0  0  0  0  0  0  0
   17.5000    2.1950  -14.8450 N   0  0  0  0  0  0  0  0  0  0  0  0
   18.5030    2.0610  -13.8980 C   0  0  0  0  0  0  0  0  0  0  0  0
   18.5090    1.1240  -12.9330 C   0  0  0  0  0  0  0  0  0  0  0  0
   17.4510    0.2320  -12.8740 N   0  0  0  0  0  0  0  0  0  0  0  0
   17.1430   -0.8180  -12.0280 C   0  0  0  0  0  0  0  0  0  0  0  0
   17.9180   -1.1370  -10.9380 N   0  0  0  0  0  0  0  0  0  0  0  0
   17.7930   -0.3340   -9.6870 C   0  0  0  0  0  0  0  0  0  0  0  0
   19.2240   -0.1360   -9.1490 C   0  0  0  0  0  0  0  0  0  0  0  0
   17.1730    1.0490   -9.9270 C   0  0  0  0  0  0  0  0  0  0  0  0
   16.9730   -1.0960   -8.6330 C   0  0  0  0  0  0  0  0  0  0  0  0
   14.7600   -2.6740  -10.8940 C   0  0  0  0  0  0  0  0  0  0  0  0
   14.1010   -3.8400  -10.4840 C   0  0  0  0  0  0  0  0  0  0  0  0
   10.2688   -5.6655  -11.7309 H   0  0  0  0  0  0  0  0  0  0  0  0
   11.5879   -5.3771  -12.9155 H   0  0  0  0  0  0  0  0  0  0  0  0
   10.7072   -6.9427  -12.9155 H   0  0  0  0  0  0  0  0  0  0  0  0
   14.8119   -7.1635   -8.1596 H   0  0  0  0  0  0  0  0  0  0  0  0
   15.5572   -8.1395   -9.4706 H   0  0  0  0  0  0  0  0  0  0  0  0
   15.7335   -6.3519   -9.4706 H   0  0  0  0  0  0  0  0  0  0  0  0
   14.5570   -5.7381  -13.2866 H   0  0  0  0  0  0  0  0  0  0  0  0
   15.7394   -3.6662  -14.0074 H   0  0  0  0  0  0  0  0  0  0  0  0
   15.7061    1.4143  -15.5457 H   0  0  0  0  0  0  0  0  0  0  0  0
   19.3472    2.7651  -13.9381 H   0  0  0  0  0  0  0  0  0  0  0  0
   19.3344    1.0675  -12.2080 H   0  0  0  0  0  0  0  0  0  0  0  0
   17.7990   -2.1120  -10.6580 H   0  0  0  0  0  0  0  0  0  0  0  0
   19.2058   -0.1385   -8.0492 H   0  0  0  0  0  0  0  0  0  0  0  0
   19.8667   -0.9538   -9.5070 H   0  0  0  0  0  0  0  0  0  0  0  0
   19.6205    0.8256   -9.5070 H   0  0  0  0  0  0  0  0  0  0  0  0
   16.9585    1.5275   -8.9600 H   0  0  0  0  0  0  0  0  0  0  0  0
   17.8776    1.6729  -10.4965 H   0  0  0  0  0  0  0  0  0  0  0  0
   16.2385    0.9381  -10.4965 H   0  0  0  0  0  0  0  0  0  0  0  0
   17.2982   -0.7938   -7.6266 H   0  0  0  0  0  0  0  0  0  0  0  0
   15.9057   -0.8618   -8.7592 H   0  0  0  0  0  0  0  0  0  0  0  0
   17.1284   -2.1776   -8.7592 H   0  0  0  0  0  0  0  0  0  0  0  0
   14.8264   -1.8142  -10.2111 H   0  0  0  0  0  0  0  0  0  0  0  0
   13.6444   -3.8884   -9.4844 H   0  0  0  0  0  0  0  0  0  0  0  0
  1  2  1  0
  2  3  2  0
  3  4  1  0
  4  5  1  0
  5  6  1  0
  5  7  2  0
  7  8  1  0
  8  9  2  0
  9 10  1  0
 10 11  2  0
 11 12  1  0
 12 13  1  0
 13 14  2  0
 14 15  1  0
 15 16  2  0
 16 17  1  0
 17 18  2  0
 18 19  1  0
 19 20  1  0
 20 21  1  0
 21 22  1  0
 22 23  1  0
 22 24  1  0
 22 25  1  0
 11 26  1  0
 26 27  2  0
  7  2  1  0
 27  8  1  0
 20 12  2  0
 19 14  1  0
  1 28  1  0
  1 29  1  0
  1 30  1  0
  6 31  1  0
  6 32  1  0
  6 33  1  0
  9 34  1  0
 10 35  1  0
 15 36  1  0
 17 37  1  0
 18 38  1  0
 21 39  1  0
 23 40  1  0
 23 41  1  0
 23 42  1  0
 24 43  1  0
 24 44  1  0
 24 45  1  0
 25 46  1  0
 25 47  1  0
 25 48  1  0
 26 49  1  0
 27 50  1  0
M  END
>  <meeko>  (5) 
{"is_sidechain": [false], "free_energy": -7.646, "intermolecular_energy": -9.529, "internal_energy": -0.652}

$$$$
4wiv_ligand
     RDKit          3D

 50 53  0  0  0  0  0  0  0  0999 V2000
    9.9160   -6.6970  -14.4620 C   0  0  0  0  0  0  0  0  0  0  0  0
   10.2460   -8.0060  -13.8510 C   0  0  0  0  0  0  0  0  0  0  0  0
    9.6980   -9.1280  -14.3350 N   0  0  0  0  0  0  0  0  0  0  0  0
   10.1970  -10.1560  -13.5580 O   0  0  0  0  0  0  0  0  0  0  0  0
   11.0430   -9.6510  -12.6200 C   0  0  0  0  0  0  0  0  0  0  0  0
   11.6770  -10.6380  -11.7230 C   0  0  0  0  0  0  0  0  0  0  0  0
   11.1040   -8.2820  -12.7540 C   0  0  0  0  0  0  0  0  0  0  0  0
   11.9080   -7.4020  -11.9360 C   0  0  0  0  0  0  0  0  0  0  0  0
   13.0600   -7.8870  -11.3080 C   0  0  0  0  0  0  0  0  0  0  0  0
   13.8450   -7.0370  -10.5220 C   0  0  0  0  0  0  0  0  0  0  0  0
   13.4970   -5.6900  -10.3680 C   0  0  0  0  0  0  0  0  0  0  0  0
   14.3300   -4.8280   -9.5510 C   0  0  0  0  0  0  0  0  0  0  0  0
   14.9480   -5.2870   -8.4050 N   0  0  0  0  0  0  0  0  0  0  0  0
   15.5570   -4.2280   -7.9260 C   0  0  0  0  0  0  0  0  0  0  0  0
   16.3160   -4.1070   -6.7120 C   0  0  0  0  0  0  0  0  0  0  0  0
   16.8230   -2.9650   -6.3260 N   0  0  0  0  0  0  0  0  0  0  0  0
   16.5930   -1.8610   -7.1310 C   0  0  0  0  0  0  0  0  0  0  0  0
   15.9060   -1.8990   -8.2860 C   0  0  0  0  0  0  0  0  0  0  0  0
   15.3900   -3.1140   -8.7070 N   0  0  0  0  0  0  0  0  0  0  0  0
   14.6640   -3.5010   -9.8180 C   0  0  0  0  0  0  0  0  0  0  0  0
   14.3570   -2.6300  -10.8370 N   0  0  0  0  0  0  0  0  0  0  0  0
   15.2510   -2.5480  -12.0290 C   0  0  0  0  0  0  0  0  0  0  0  0
   14.7510   -1.3570  -12.8690 C   0  0  0  0  0  0  0  0  0  0  0  0
   16.7160   -2.2920  -11.6560 C   0  0  0  0  0  0  0  0  0  0  0  0
   15.1440   -3.8270  -12.8750 C   0  0  0  0  0  0  0  0  0  0  0  0
   12.3350   -5.2100  -10.9820 C   0  0  0  0  0  0  0  0  0  0  0  0
   11.5470   -6.0600  -11.7680 C   0  0  0  0  0  0  0  0  0  0  0  0
    9.7298   -5.9584  -13.6684 H   0  0  0  0  0  0  0  0  0  0  0  0
   10.7575   -6.3609  -15.0856 H   0  0  0  0  0  0  0  0  0  0  0  0
    9.0157   -6.8000  -15.0856 H   0  0  0  0  0  0  0  0  0  0  0  0
   11.4940  -10.3530  -10.6764 H   0  0  0  0  0  0  0  0  0  0  0  0
   11.2490  -11.6335  -11.9122 H   0  0  0  0  0  0  0  0  0  0  0  0
   12.7603  -10.6627  -11.9122 H   0  0  0  0  0  0  0  0  0  0  0  0
   13.3497   -8.9408  -11.4327 H   0  0  0  0  0  0  0  0  0  0  0  0
   14.7422   -7.4299  -10.0213 H   0  0  0  0  0  0  0  0  0  0  0  0
   16.4751   -5.0001   -6.0898 H   0  0  0  0  0  0  0  0  0  0  0  0
   16.9982   -0.8919   -6.8043 H   0  0  0  0  0  0  0  0  0  0  0  0
   15.7571   -0.9870   -8.8827 H   0  0  0  0  0  0  0  0  0  0  0  0
   13.4160   -2.7890  -11.2030 H   0  0  0  0  0  0  0  0  0  0  0  0
   14.4132   -0.5523  -12.1995 H   0  0  0  0  0  0  0  0  0  0  0  0
   15.5696   -0.9866  -13.5036 H   0  0  0  0  0  0  0  0  0  0  0  0
   13.9133   -1.6819  -13.5036 H   0  0  0  0  0  0  0  0  0  0  0  0
   16.8178   -2.2742  -10.5609 H   0  0  0  0  0  0  0  0  0  0  0  0
   17.3452   -3.0938  -12.0698 H   0  0  0  0  0  0  0  0  0  0  0  0
   17.0360   -1.3243  -12.0698 H   0  0  0  0  0  0  0  0  0  0  0  0
   15.0709   -4.7008  -12.2109 H   0  0  0  0  0  0  0  0  0  0  0  0
   14.2473   -3.7728  -13.5097 H   0  0  0  0  0  0  0  0  0  0  0  0
   16.0373   -3.9226  -13.5097 H   0  0  0  0  0  0  0  0  0  0  0  0
   12.0388   -4.1593  -10.8466 H   0  0  0  0  0  0  0  0  0  0  0  0
   10.6406   -5.6715  -12.2554 H   0  0  0  0  0  0  0  0  0  0  0  0
  1  2  1  0
  2  3  2  0
  3  4  1  0
  4  5  1  0
  5  6  1  0
  5  7  2  0
  7  8  1  0
  8  9  2  0
  9 10  1  0
 10 11  2  0
 11 12  1  0
 12 13  1  0
 13 14  2  0
 14 15  1  0
 15 16  2  0
 16 17  1  0
 17 18  2  0
 18 19  1  0
 19 20  1  0
 20 21  1  0
 21 22  1  0
 22 23  1  0
 22 24  1  0
 22 25  1  0
 11 26  1  0
 26 27  2  0
  7  2  1  0
 27  8  1  0
 20 12  2  0
 19 14  1  0
  1 28  1  0
  1 29  1  0
  1 30  1  0
  6 31  1  0
  6 32  1  0
  6 33  1  0
  9 34  1  0
 10 35  1  0
 15 36  1  0
 17 37  1  0
 18 38  1  0
 21 39  1  0
 23 40  1  0
 23 41  1  0
 23 42  1  0
 24 43  1  0
 24 44  1  0
 24 45  1  0
 25 46  1  0
 25 47  1  0
 25 48  1  0
 26 49  1  0
 27 50  1  0
M  END
>  <meeko>  (6) 
{"is_sidechain": [false], "free_energy": -7.356, "intermolecular_energy": -9.665, "internal_energy": -0.159}

$$$$
4wiv_ligand
     RDKit          3D

 50 53  0  0  0  0  0  0  0  0999 V2000
   12.4450  -10.3890  -11.4800 C   0  0  0  0  0  0  0  0  0  0  0  0
   11.7570   -9.1100  -11.7750 C   0  0  0  0  0  0  0  0  0  0  0  0
   10.7290   -9.0840  -12.6330 N   0  0  0  0  0  0  0  0  0  0  0  0
   10.3200   -7.7660  -12.6910 O   0  0  0  0  0  0  0  0  0  0  0  0
   11.0950   -7.0100  -11.8670 C   0  0  0  0  0  0  0  0  0  0  0  0
   10.7600   -5.5730  -11.8040 C   0  0  0  0  0  0  0  0  0  0  0  0
   12.0360   -7.8150  -11.2650 C   0  0  0  0  0  0  0  0  0  0  0  0
   13.0300   -7.3640  -10.3170 C   0  0  0  0  0  0  0  0  0  0  0  0
   13.4360   -8.2030   -9.2740 C   0  0  0  0  0  0  0  0  0  0  0  0
   14.4020   -7.7740   -8.3600 C   0  0  0  0  0  0  0  0  0  0  0  0
   14.9860   -6.5070   -8.4850 C   0  0  0  0  0  0  0  0  0  0  0  0
   15.9900   -6.0860   -7.5260 C   0  0  0  0  0  0  0  0  0  0  0  0
   17.2780   -6.5810   -7.5580 N   0  0  0  0  0  0  0  0  0  0  0  0
   17.8610   -6.0150   -6.5280 C   0  0  0  0  0  0  0  0  0  0  0  0
   19.2000   -6.2070   -6.0420 C   0  0  0  0  0  0  0  0  0  0  0  0
   19.6330   -5.6170   -4.9590 N   0  0  0  0  0  0  0  0  0  0  0  0
   18.7440   -4.7970   -4.2800 C   0  0  0  0  0  0  0  0  0  0  0  0
   17.4820   -4.5590   -4.6800 C   0  0  0  0  0  0  0  0  0  0  0  0
   17.0330   -5.1650   -5.8410 N   0  0  0  0  0  0  0  0  0  0  0  0
   15.8310   -5.1290   -6.5250 C   0  0  0  0  0  0  0  0  0  0  0  0
   14.7830   -4.3310   -6.1300 N   0  0  0  0  0  0  0  0  0  0  0  0
   14.6500   -2.9580   -6.6990 C   0  0  0  0  0  0  0  0  0  0  0  0
   14.7520   -1.9810   -5.5120 C   0  0  0  0  0  0  0  0  0  0  0  0
   15.7630   -2.6180   -7.6980 C   0  0  0  0  0  0  0  0  0  0  0  0
   13.2780   -2.7790   -7.3670 C   0  0  0  0  0  0  0  0  0  0  0  0
   14.5660   -5.6610   -9.5180 C   0  0  0  0  0  0  0  0  0  0  0  0
   13.5970   -6.0900  -10.4330 C   0  0  0  0  0  0  0  0  0  0  0  0
   12.5174  -10.5236  -10.3907 H   0  0  0  0  0  0  0  0  0  0  0  0
   11.8732  -11.2218  -11.9152 H   0  0  0  0  0  0  0  0  0  0  0  0
   13.4551  -10.3709  -11.9152 H   0  0  0  0  0  0  0  0  0  0  0  0
   10.6869   -5.2593  -10.7522 H   0  0  0  0  0  0  0  0  0  0  0  0
   11.5465   -4.9908  -12.3064 H   0  0  0  0  0  0  0  0  0  0  0  0
    9.7971   -5.3986  -12.3064 H   0  0  0  0  0  0  0  0  0  0  0  0
   12.9930   -9.2047   -9.1729 H   0  0  0  0  0  0  0  0  0  0  0  0
   14.7061   -8.4363   -7.5361 H   0  0  0  0  0  0  0  0  0  0  0  0
   19.8800   -6.8696   -6.5975 H   0  0  0  0  0  0  0  0  0  0  0  0
   19.0927   -4.3110   -3.3568 H   0  0  0  0  0  0  0  0  0  0  0  0
   16.8222   -3.8984   -4.0983 H   0  0  0  0  0  0  0  0  0  0  0  0
   13.8810   -4.7850   -6.2810 H   0  0  0  0  0  0  0  0  0  0  0  0
   14.6933   -2.5432   -4.5683 H   0  0  0  0  0  0  0  0  0  0  0  0
   15.7110   -1.4444   -5.5601 H   0  0  0  0  0  0  0  0  0  0  0  0
   13.9245   -1.2579   -5.5601 H   0  0  0  0  0  0  0  0  0  0  0  0
   16.6751   -2.3394   -7.1499 H   0  0  0  0  0  0  0  0  0  0  0  0
   15.9685   -3.4944   -8.3303 H   0  0  0  0  0  0  0  0  0  0  0  0
   15.4437   -1.7764   -8.3303 H   0  0  0  0  0  0  0  0  0  0  0  0
   12.5035   -2.6780   -6.5925 H   0  0  0  0  0  0  0  0  0  0  0  0
   13.2903   -1.8749   -7.9934 H   0  0  0  0  0  0  0  0  0  0  0  0
   13.0579   -3.6560   -7.9934 H   0  0  0  0  0  0  0  0  0  0  0  0
   14.9993   -4.6543   -9.6114 H   0  0  0  0  0  0  0  0  0  0  0  0
   13.2797   -5.4220  -11.2474 H   0  0  0  0  0  0  0  0  0  0  0  0
  1  2  1  0
  2  3  2  0
  3  4  1  0
  4  5  1  0
  5  6  1  0
  5  7  2  0
  7  8  1  0
  8  9  2  0
  9 10  1  0
 10 11  2  0
 11 12  1  0
 12 13  1  0
 13 14  2  0
 14 15  1  0
 15 16  2  0
 16 17  1  0
 17 18  2  0
 18 19  1  0
 19 20  1  0
 20 21  1  0
 21 22  1  0
 22 23  1  0
 22 24  1  0
 22 25  1  0
 11 26  1  0
 26 27  2  0
  7  2  1  0
 27  8  1  0
 20 12  2  0
 19 14  1  0
  1 28  1  0
  1 29  1  0
  1 30  1  0
  6 31  1  0
  6 32  1  0
  6 33  1  0
  9 34  1  0
 10 35  1  0
 15 36  1  0
 17 37  1  0
 18 38  1  0
 21 39  1  0
 23 40  1  0
 23 41  1  0
 23 42  1  0
 24 43  1  0
 24 44  1  0
 24 45  1  0
 25 46  1  0
 25 47  1  0
 25 48  1  0
 26 49  1  0
 27 50  1  0
M  END
>  <meeko>  (7) 
{"is_sidechain": [false], "free_energy": -7.193, "intermolecular_energy": -8.926, "internal_energy": -0.697}

$$$$
4wiv_ligand
     RDKit          3D

 50 53  0  0  0  0  0  0  0  0999 V2000
   15.7440   -9.8910   -4.4540 C   0  0  0  0  0  0  0  0  0  0  0  0
   16.8200   -9.0110   -4.9680 C   0  0  0  0  0  0  0  0  0  0  0  0
   17.9540   -8.8630   -4.2720 N   0  0  0  0  0  0  0  0  0  0  0  0
   18.7350   -7.9910   -5.0060 O   0  0  0  0  0  0  0  0  0  0  0  0
   18.0740   -7.6250   -6.1370 C   0  0  0  0  0  0  0  0  0  0  0  0
   18.7960   -6.7080   -7.0410 C   0  0  0  0  0  0  0  0  0  0  0  0
   16.8400   -8.2390   -6.1600 C   0  0  0  0  0  0  0  0  0  0  0  0
   15.8610   -8.0960   -7.2130 C   0  0  0  0  0  0  0  0  0  0  0  0
   15.8470   -8.9940   -8.2850 C   0  0  0  0  0  0  0  0  0  0  0  0
   14.8950   -8.8630   -9.3010 C   0  0  0  0  0  0  0  0  0  0  0  0
   13.9380   -7.8430   -9.2510 C   0  0  0  0  0  0  0  0  0  0  0  0
   12.9590   -7.7300  -10.3150 C   0  0  0  0  0  0  0  0  0  0  0  0
   12.2910   -8.8340  -10.8080 N   0  0  0  0  0  0  0  0  0  0  0  0
   11.5440   -8.3490  -11.7720 C   0  0  0  0  0  0  0  0  0  0  0  0
   10.6750   -9.0570  -12.6710 C   0  0  0  0  0  0  0  0  0  0  0  0
   10.0300   -8.4470  -13.6310 N   0  0  0  0  0  0  0  0  0  0  0  0
   10.2230   -7.0810  -13.7620 C   0  0  0  0  0  0  0  0  0  0  0  0
   11.0090   -6.3490  -12.9520 C   0  0  0  0  0  0  0  0  0  0  0  0
   11.6720   -6.9920  -11.9200 N   0  0  0  0  0  0  0  0  0  0  0  0
   12.5250   -6.5530  -10.9230 C   0  0  0  0  0  0  0  0  0  0  0  0
   12.8360   -5.2250  -10.7520 N   0  0  0  0  0  0  0  0  0  0  0  0
   14.1630   -4.7160  -11.2050 C   0  0  0  0  0  0  0  0  0  0  0  0
   14.8250   -4.0650   -9.9750 C   0  0  0  0  0  0  0  0  0  0  0  0
   15.0850   -5.8310  -11.7140 C   0  0  0  0  0  0  0  0  0  0  0  0
   13.9900   -3.6460  -12.2940 C   0  0  0  0  0  0  0  0  0  0  0  0
   13.9640   -6.9340   -8.1870 C   0  0  0  0  0  0  0  0  0  0  0  0
   14.9170   -7.0630   -7.1690 C   0  0  0  0  0  0  0  0  0  0  0  0
   15.7562   -9.8810   -3.3541 H   0  0  0  0  0  0  0  0  0  0  0  0
   14.7700   -9.5273   -4.8132 H   0  0  0  0  0  0  0  0  0  0  0  0
   15.9072  -10.9178   -4.8132 H   0  0  0  0  0  0  0  0  0  0  0  0
   19.3682   -5.9813   -6.4456 H   0  0  0  0  0  0  0  0  0  0  0  0
   19.4846   -7.2853   -7.6755 H   0  0  0  0  0  0  0  0  0  0  0  0
   18.0732   -6.1741   -7.6755 H   0  0  0  0  0  0  0  0  0  0  0  0
   16.5874   -9.8063   -8.3292 H   0  0  0  0  0  0  0  0  0  0  0  0
   14.8984   -9.5672  -10.1461 H   0  0  0  0  0  0  0  0  0  0  0  0
   10.5488  -10.1428  -12.5482 H   0  0  0  0  0  0  0  0  0  0  0  0
    9.7007   -6.5627  -14.5797 H   0  0  0  0  0  0  0  0  0  0  0  0
   11.1224   -5.2657  -13.1057 H   0  0  0  0  0  0  0  0  0  0  0  0
   12.1400   -4.6130  -11.1820 H   0  0  0  0  0  0  0  0  0  0  0  0
   14.3923   -4.4905   -9.0575 H   0  0  0  0  0  0  0  0  0  0  0  0
   15.9073   -4.2603   -9.9948 H   0  0  0  0  0  0  0  0  0  0  0  0
   14.6479   -2.9795   -9.9948 H   0  0  0  0  0  0  0  0  0  0  0  0
   15.5247   -6.3628  -10.8574 H   0  0  0  0  0  0  0  0  0  0  0  0
   14.5036   -6.5373  -12.3248 H   0  0  0  0  0  0  0  0  0  0  0  0
   15.8879   -5.3926  -12.3248 H   0  0  0  0  0  0  0  0  0  0  0  0
   13.8314   -2.6650  -11.8223 H   0  0  0  0  0  0  0  0  0  0  0  0
   14.8940   -3.6101  -12.9197 H   0  0  0  0  0  0  0  0  0  0  0  0
   13.1207   -3.8968  -12.9197 H   0  0  0  0  0  0  0  0  0  0  0  0
   13.2319   -6.1138   -8.1502 H   0  0  0  0  0  0  0  0  0  0  0  0
   14.9239   -6.3499   -6.3315 H   0  0  0  0  0  0  0  0  0  0  0  0
  1  2  1  0
  2  3  2  0
  3  4  1  0
  4  5  1  0
  5  6  1  0
  5  7  2  0
  7  8  1  0
  8  9  2  0
  9 10  1  0
 10 11  2  0
 11 12  1  0
 12 13  1  0
 13 14  2  0
 14 15  1  0
 15 16  2  0
 16 17  1  0
 17 18  2  0
 18 19  1  0
 19 20  1  0
 20 21  1  0
 21 22  1  0
 22 23  1  0
 22 24  1  0
 22 25  1  0
 11 26  1  0
 26 27  2  0
  7  2  1  0
 27  8  1  0
 20 12  2  0
 19 14  1  0
  1 28  1  0
  1 29  1  0
  1 30  1  0
  6 31  1  0
  6 32  1  0
  6 33  1  0
  9 34  1  0
 10 35  1  0
 15 36  1  0
 17 37  1  0
 18 38  1  0
 21 39  1  0
 23 40  1  0
 23 41  1  0
 23 42  1  0
 24 43  1  0
 24 44  1  0
 24 45  1  0
 25 46  1  0
 25 47  1  0
 25 48  1  0
 26 49  1  0
 27 50  1  0
M  END
>  <meeko>  (8) 
{"is_sidechain": [false], "free_energy": -6.885, "intermolecular_energy": -8.37, "internal_energy": -0.874}

$$$$
4wiv_ligand
     RDKit          3D

 50 53  0  0  0  0  0  0  0  0999 V2000
   10.2800   -6.7370  -13.6490 C   0  0  0  0  0  0  0  0  0  0  0  0
   10.6520   -8.0990  -13.1980 C   0  0  0  0  0  0  0  0  0  0  0  0
   10.1410   -9.1720  -13.8150 N   0  0  0  0  0  0  0  0  0  0  0  0
   10.6720  -10.2680  -13.1640 O   0  0  0  0  0  0  0  0  0  0  0  0
   11.5010   -9.8530  -12.1680 C   0  0  0  0  0  0  0  0  0  0  0  0
   12.1660  -10.9200  -11.3940 C   0  0  0  0  0  0  0  0  0  0  0  0
   11.5180   -8.4760  -12.1380 C   0  0  0  0  0  0  0  0  0  0  0  0
   12.2930   -7.6750  -11.2170 C   0  0  0  0  0  0  0  0  0  0  0  0
   12.8640   -8.2650  -10.0840 C   0  0  0  0  0  0  0  0  0  0  0  0
   13.6210   -7.4950   -9.1960 C   0  0  0  0  0  0  0  0  0  0  0  0
   13.8290   -6.1320   -9.4360 C   0  0  0  0  0  0  0  0  0  0  0  0
   14.6220   -5.3560   -8.5010 C   0  0  0  0  0  0  0  0  0  0  0  0
   14.2620   -4.0760   -8.1290 N   0  0  0  0  0  0  0  0  0  0  0  0
   15.2280   -3.6940   -7.3280 C   0  0  0  0  0  0  0  0  0  0  0  0
   15.4050   -2.4220   -6.6850 C   0  0  0  0  0  0  0  0  0  0  0  0
   16.4560   -2.1570   -5.9540 N   0  0  0  0  0  0  0  0  0  0  0  0
   17.4120   -3.1540   -5.8270 C   0  0  0  0  0  0  0  0  0  0  0  0
   17.3100   -4.3720   -6.3880 C   0  0  0  0  0  0  0  0  0  0  0  0
   16.1840   -4.6590   -7.1410 N   0  0  0  0  0  0  0  0  0  0  0  0
   15.7650   -5.7840   -7.8280 C   0  0  0  0  0  0  0  0  0  0  0  0
   16.4740   -6.9620   -7.8130 N   0  0  0  0  0  0  0  0  0  0  0  0
   16.3450   -7.8830   -6.6450 C   0  0  0  0  0  0  0  0  0  0  0  0
   16.2300   -9.3070   -7.2220 C   0  0  0  0  0  0  0  0  0  0  0  0
   17.5620   -7.8370   -5.7140 C   0  0  0  0  0  0  0  0  0  0  0  0
   15.0680   -7.5710   -5.8480 C   0  0  0  0  0  0  0  0  0  0  0  0
   13.2430   -5.5400  -10.5600 C   0  0  0  0  0  0  0  0  0  0  0  0
   12.4840   -6.3080  -11.4500 C   0  0  0  0  0  0  0  0  0  0  0  0
   10.1048   -6.0956  -12.7727 H   0  0  0  0  0  0  0  0  0  0  0  0
   11.0960   -6.3156  -14.2545 H   0  0  0  0  0  0  0  0  0  0  0  0
    9.3631   -6.7889  -14.2545 H   0  0  0  0  0  0  0  0  0  0  0  0
   12.0436  -10.7236  -10.3186 H   0  0  0  0  0  0  0  0  0  0  0  0
   11.7127  -11.8907  -11.6434 H   0  0  0  0  0  0  0  0  0  0  0  0
   13.2372  -10.9406  -11.6434 H   0  0  0  0  0  0  0  0  0  0  0  0
   12.7168   -9.3380   -9.8914 H   0  0  0  0  0  0  0  0  0  0  0  0
   14.0566   -7.9642   -8.3015 H   0  0  0  0  0  0  0  0  0  0  0  0
   14.6336   -1.6480   -6.8113 H   0  0  0  0  0  0  0  0  0  0  0  0
   18.3096   -2.9347   -5.2302 H   0  0  0  0  0  0  0  0  0  0  0  0
   18.1025   -5.1226   -6.2519 H   0  0  0  0  0  0  0  0  0  0  0  0
   16.2850   -7.5310   -8.6400 H   0  0  0  0  0  0  0  0  0  0  0  0
   16.1714  -10.0330   -6.3977 H   0  0  0  0  0  0  0  0  0  0  0  0
   15.3230   -9.3800   -7.8401 H   0  0  0  0  0  0  0  0  0  0  0  0
   17.1135   -9.5246   -7.8401 H   0  0  0  0  0  0  0  0  0  0  0  0
   17.2237   -7.8498   -4.6674 H   0  0  0  0  0  0  0  0  0  0  0  0
   18.2017   -8.7116   -5.9033 H   0  0  0  0  0  0  0  0  0  0  0  0
   18.1339   -6.9166   -5.9033 H   0  0  0  0  0  0  0  0  0  0  0  0
   15.2857   -7.6242   -4.7711 H   0  0  0  0  0  0  0  0  0  0  0  0
   14.7154   -6.5603   -6.1013 H   0  0  0  0  0  0  0  0  0  0  0  0
   14.2891   -8.3053   -6.1013 H   0  0  0  0  0  0  0  0  0  0  0  0
   13.3797   -4.4644  -10.7452 H   0  0  0  0  0  0  0  0  0  0  0  0
   12.0356   -5.8356  -12.3364 H   0  0  0  0  0  0  0  0  0  0  0  0
  1  2  1  0
  2  3  2  0
  3  4  1  0
  4  5  1  0
  5  6  1  0
  5  7  2  0
  7  8  1  0
  8  9  2  0
  9 10  1  0
 10 11  2  0
 11 12  1  0
 12 13  1  0
 13 14  2  0
 14 15  1  0
 15 16  2  0
 16 17  1  0
 17 18  2  0
 18 19  1  0
 19 20  1  0
 20 21  1  0
 21 22  1  0
 22 23  1  0
 22 24  1  0
 22 25  1  0
 11 26  1  0
 26 27  2  0
  7  2  1  0
 27  8  1  0
 20 12  2  0
 19 14  1  0
  1 28  1  0
  1 29  1  0
  1 30  1  0
  6 31  1  0
  6 32  1  0
  6 33  1  0
  9 34  1  0
 10 35  1  0
 15 36  1  0
 17 37  1  0
 18 38  1  0
 21 39  1  0
 23 40  1  0
 23 41  1  0
 23 42  1  0
 24 43  1  0
 24 44  1  0
 24 45  1  0
 25 46  1  0
 25 47  1  0
 25 48  1  0
 26 49  1  0
 27 50  1  0
M  END
>  <meeko>  (9) 
{"is_sidechain": [false], "free_energy": -6.841, "intermolecular_energy": -9.161, "internal_energy": -0.027}

$$$$
