2zy1_ligand
     RDKit          3D

 43 44  0  0  0  0  0  0  0  0999 V2000
   24.5280   55.4630   40.3130 O   0  0  0  0  0  0  0  0  0  0  0  0
   23.5750   56.2060   40.5560 C   0  0  0  0  0  0  0  0  0  0  0  0
   23.7620   57.6010   41.0810 C   0  0  0  0  0  0  0  0  0  0  0  0
   25.1020   57.7300   42.2670 P   0  0  2  0  0  5  0  0  0  0  0  0
   24.8390   58.7890   43.3000 O   0  0  0  0  0  0  0  0  0  0  0  0
   26.4230   57.6680   41.5400 O   0  0  0  0  0  0  0  0  0  0  0  0
   24.9620   56.3220   43.0500 O   0  0  0  0  0  0  0  0  0  0  0  0
   22.2700   55.8710   40.2490 N   0  0  0  0  0  0  0  0  0  0  0  0
   21.9110   54.4990   39.9730 C   0  0  0  0  0  0  0  0  0  0  0  0
   20.4560   54.3880   39.5280 C   0  0  0  0  0  0  0  0  0  0  0  0
   20.3090   53.9490   38.0660 C   0  0  0  0  0  0  0  0  0  0  0  0
   19.2830   54.7300   37.2800 C   0  0  0  0  0  0  0  0  0  0  0  0
   19.6530   55.4340   36.1260 C   0  0  0  0  0  0  0  0  0  0  0  0
   18.6960   56.1170   35.3720 C   0  0  0  0  0  0  0  0  0  0  0  0
   17.3560   56.0900   35.7540 C   0  0  0  0  0  0  0  0  0  0  0  0
   16.9740   55.3830   36.8920 C   0  0  0  0  0  0  0  0  0  0  0  0
   15.6320   55.3810   37.2040 O   0  0  0  0  0  0  0  0  0  0  0  0
   15.2250   56.1350   38.2850 C   0  0  0  0  0  0  0  0  0  0  0  0
   15.0150   57.4960   38.0550 C   0  0  0  0  0  0  0  0  0  0  0  0
   14.6130   58.3260   39.1030 C   0  0  0  0  0  0  0  0  0  0  0  0
   14.4140   57.7920   40.3760 C   0  0  0  0  0  0  0  0  0  0  0  0
   14.5970   56.4280   40.6010 C   0  0  0  0  0  0  0  0  0  0  0  0
   14.9860   55.5940   39.5520 C   0  0  0  0  0  0  0  0  0  0  0  0
   17.9380   54.7460   37.6790 C   0  0  0  0  0  0  0  0  0  0  0  0
   23.9784   58.2683   40.2337 H   0  0  0  0  0  0  0  0  0  0  0  0
   22.8346   57.8842   41.6003 H   0  0  0  0  0  0  0  0  0  0  0  0
   25.8760   56.0280   43.2090 H   0  0  0  0  0  0  0  0  0  0  0  0
   21.5620   56.4550   40.7280 H   0  0  0  0  0  0  0  0  0  0  0  0
   22.5609   54.1118   39.1745 H   0  0  0  0  0  0  0  0  0  0  0  0
   22.0387   53.9134   40.8954 H   0  0  0  0  0  0  0  0  0  0  0  0
   19.9488   53.6511   40.1681 H   0  0  0  0  0  0  0  0  0  0  0  0
   20.0068   55.3880   39.6183 H   0  0  0  0  0  0  0  0  0  0  0  0
   21.2844   54.0676   37.5715 H   0  0  0  0  0  0  0  0  0  0  0  0
   19.9618   52.9054   38.0851 H   0  0  0  0  0  0  0  0  0  0  0  0
   20.7069   55.4488   35.8112 H   0  0  0  0  0  0  0  0  0  0  0  0
   19.0004   56.6770   34.4755 H   0  0  0  0  0  0  0  0  0  0  0  0
   16.6019   56.6255   35.1585 H   0  0  0  0  0  0  0  0  0  0  0  0
   15.1662   57.9139   37.0488 H   0  0  0  0  0  0  0  0  0  0  0  0
   14.4534   59.3997   38.9250 H   0  0  0  0  0  0  0  0  0  0  0  0
   14.1118   58.4488   41.2050 H   0  0  0  0  0  0  0  0  0  0  0  0
   14.4347   56.0095   41.6053 H   0  0  0  0  0  0  0  0  0  0  0  0
   15.1043   54.5136   39.7214 H   0  0  0  0  0  0  0  0  0  0  0  0
   17.6402   54.2543   38.6168 H   0  0  0  0  0  0  0  0  0  0  0  0
  1  2  2  0
  2  3  1  0
  3  4  1  0
  4  5  2  0
  4  6  1  6
  4  7  1  0
  2  8  1  0
  8  9  1  0
  9 10  1  0
 10 11  1  0
 11 12  1  0
 12 13  2  0
 13 14  1  0
 14 15  2  0
 15 16  1  0
 16 17  1  0
 17 18  1  0
 18 19  2  0
 19 20  1  0
 20 21  2  0
 21 22  1  0
 22 23  2  0
 16 24  2  0
 24 12  1  0
 23 18  1  0
  3 25  1  0
  3 26  1  0
  7 27  1  0
  8 28  1  0
  9 29  1  0
  9 30  1  0
 10 31  1  0
 10 32  1  0
 11 33  1  0
 11 34  1  0
 13 35  1  0
 14 36  1  0
 15 37  1  0
 19 38  1  0
 20 39  1  0
 21 40  1  0
 22 41  1  0
 23 42  1  0
 24 43  1  0
M  CHG  1   6  -1
M  END
>  <meeko>  (1) 
{"is_sidechain": [false], "free_energy": -9.757, "intermolecular_energy": -14.605, "internal_energy": -0.891}

$$$$
2zy1_ligand
     RDKit          3D

 43 44  0  0  0  0  0  0  0  0999 V2000
   20.1630   55.7430   36.1110 O   0  0  0  0  0  0  0  0  0  0  0  0
   19.4510   54.7370   36.1180 C   0  0  0  0  0  0  0  0  0  0  0  0
   19.9980   53.3710   36.4250 C   0  0  0  0  0  0  0  0  0  0  0  0
   18.7250   52.1950   36.8930 P   0  0  2  0  0  5  0  0  0  0  0  0
   17.7220   51.9880   35.7940 O   0  0  0  0  0  0  0  0  0  0  0  0
   18.2790   52.4770   38.3070 O   0  0  0  0  0  0  0  0  0  0  0  0
   19.5770   50.8240   36.9620 O   0  0  0  0  0  0  0  0  0  0  0  0
   18.0780   54.7920   35.9720 N   0  0  0  0  0  0  0  0  0  0  0  0
   17.4450   55.9750   35.4370 C   0  0  0  0  0  0  0  0  0  0  0  0
   16.0090   56.1050   35.9350 C   0  0  0  0  0  0  0  0  0  0  0  0
   15.7700   55.3880   37.2700 C   0  0  0  0  0  0  0  0  0  0  0  0
   15.2020   56.2680   38.3580 C   0  0  0  0  0  0  0  0  0  0  0  0
   15.0850   55.7920   39.6710 C   0  0  0  0  0  0  0  0  0  0  0  0
   14.6040   56.6200   40.6880 C   0  0  0  0  0  0  0  0  0  0  0  0
   14.2510   57.9390   40.4060 C   0  0  0  0  0  0  0  0  0  0  0  0
   14.3750   58.4270   39.1070 C   0  0  0  0  0  0  0  0  0  0  0  0
   14.0260   59.7440   38.8990 O   0  0  0  0  0  0  0  0  0  0  0  0
   12.8110   59.9970   38.2990 C   0  0  0  0  0  0  0  0  0  0  0  0
   11.9290   60.8230   38.9980 C   0  0  0  0  0  0  0  0  0  0  0  0
   10.6740   61.1170   38.4590 C   0  0  0  0  0  0  0  0  0  0  0  0
   10.3090   60.5900   37.2210 C   0  0  0  0  0  0  0  0  0  0  0  0
   11.2000   59.7870   36.5090 C   0  0  0  0  0  0  0  0  0  0  0  0
   12.4590   59.5040   37.0390 C   0  0  0  0  0  0  0  0  0  0  0  0
   14.8020   57.5830   38.0780 C   0  0  0  0  0  0  0  0  0  0  0  0
   20.5146   52.9912   35.5312 H   0  0  0  0  0  0  0  0  0  0  0  0
   20.6811   53.4747   37.2809 H   0  0  0  0  0  0  0  0  0  0  0  0
   20.1970   50.9470   37.7020 H   0  0  0  0  0  0  0  0  0  0  0  0
   17.6430   53.8810   35.7430 H   0  0  0  0  0  0  0  0  0  0  0  0
   18.0157   56.8610   35.7521 H   0  0  0  0  0  0  0  0  0  0  0  0
   17.4275   55.8950   34.3401 H   0  0  0  0  0  0  0  0  0  0  0  0
   15.7782   57.1727   36.0644 H   0  0  0  0  0  0  0  0  0  0  0  0
   15.3570   55.6316   35.1861 H   0  0  0  0  0  0  0  0  0  0  0  0
   15.0670   54.5603   37.0949 H   0  0  0  0  0  0  0  0  0  0  0  0
   16.7542   55.0472   37.6238 H   0  0  0  0  0  0  0  0  0  0  0  0
   15.3747   54.7565   39.9029 H   0  0  0  0  0  0  0  0  0  0  0  0
   14.5037   56.2311   41.7121 H   0  0  0  0  0  0  0  0  0  0  0  0
   13.8756   58.5927   41.2071 H   0  0  0  0  0  0  0  0  0  0  0  0
   12.2218   61.2419   39.9721 H   0  0  0  0  0  0  0  0  0  0  0  0
    9.9751   61.7631   39.0105 H   0  0  0  0  0  0  0  0  0  0  0  0
    9.3147   60.8082   36.8042 H   0  0  0  0  0  0  0  0  0  0  0  0
   10.9101   59.3772   35.5302 H   0  0  0  0  0  0  0  0  0  0  0  0
   13.1734   58.8941   36.4666 H   0  0  0  0  0  0  0  0  0  0  0  0
   14.8245   57.9523   37.0421 H   0  0  0  0  0  0  0  0  0  0  0  0
  1  2  2  0
  2  3  1  0
  3  4  1  0
  4  5  2  0
  4  6  1  1
  4  7  1  0
  2  8  1  0
  8  9  1  0
  9 10  1  0
 10 11  1  0
 11 12  1  0
 12 13  2  0
 13 14  1  0
 14 15  2  0
 15 16  1  0
 16 17  1  0
 17 18  1  0
 18 19  2  0
 19 20  1  0
 20 21  2  0
 21 22  1  0
 22 23  2  0
 16 24  2  0
 24 12  1  0
 23 18  1  0
  3 25  1  0
  3 26  1  0
  7 27  1  0
  8 28  1  0
  9 29  1  0
  9 30  1  0
 10 31  1  0
 10 32  1  0
 11 33  1  0
 11 34  1  0
 13 35  1  0
 14 36  1  0
 15 37  1  0
 19 38  1  0
 20 39  1  0
 21 40  1  0
 22 41  1  0
 23 42  1  0
 24 43  1  0
M  CHG  1   6  -1
M  END
>  <meeko>  (2) 
{"is_sidechain": [false], "free_energy": -9.641, "intermolecular_energy": -14.288, "internal_energy": -1.034}

$$$$
2zy1_ligand
     RDKit          3D

 43 44  0  0  0  0  0  0  0  0999 V2000
   18.5390   52.4690   38.5340 O   0  0  0  0  0  0  0  0  0  0  0  0
   18.6600   52.8420   37.3660 C   0  0  0  0  0  0  0  0  0  0  0  0
   20.0000   53.1460   36.7570 C   0  0  0  0  0  0  0  0  0  0  0  0
   20.9670   51.6720   36.4220 P   0  0  2  0  0  5  0  0  0  0  0  0
   21.9180   51.3580   37.5430 O   0  0  0  0  0  0  0  0  0  0  0  0
   21.4400   51.6980   34.9900 O   0  0  0  0  0  0  0  0  0  0  0  0
   19.8280   50.5280   36.4930 O   0  0  0  0  0  0  0  0  0  0  0  0
   17.5970   52.8880   36.4830 N   0  0  0  0  0  0  0  0  0  0  0  0
   16.2380   52.8620   36.9700 C   0  0  0  0  0  0  0  0  0  0  0  0
   15.5080   54.1590   36.6380 C   0  0  0  0  0  0  0  0  0  0  0  0
   16.2240   55.4040   37.1780 C   0  0  0  0  0  0  0  0  0  0  0  0
   15.4500   56.1610   38.2310 C   0  0  0  0  0  0  0  0  0  0  0  0
   15.1330   55.5570   39.4550 C   0  0  0  0  0  0  0  0  0  0  0  0
   14.4590   56.2710   40.4480 C   0  0  0  0  0  0  0  0  0  0  0  0
   14.1100   57.6040   40.2350 C   0  0  0  0  0  0  0  0  0  0  0  0
   14.4310   58.2200   39.0270 C   0  0  0  0  0  0  0  0  0  0  0  0
   14.0730   59.5430   38.8860 O   0  0  0  0  0  0  0  0  0  0  0  0
   12.8670   59.8190   38.2780 C   0  0  0  0  0  0  0  0  0  0  0  0
   11.9850   60.6420   38.9810 C   0  0  0  0  0  0  0  0  0  0  0  0
   10.7400   60.9570   38.4340 C   0  0  0  0  0  0  0  0  0  0  0  0
   10.3830   60.4560   37.1830 C   0  0  0  0  0  0  0  0  0  0  0  0
   11.2740   59.6560   36.4670 C   0  0  0  0  0  0  0  0  0  0  0  0
   12.5240   59.3510   37.0060 C   0  0  0  0  0  0  0  0  0  0  0  0
   15.0540   57.4890   38.0110 C   0  0  0  0  0  0  0  0  0  0  0  0
   19.8413   53.6840   35.8107 H   0  0  0  0  0  0  0  0  0  0  0  0
   20.5624   53.7511   37.4833 H   0  0  0  0  0  0  0  0  0  0  0  0
   19.1570   50.7970   35.8410 H   0  0  0  0  0  0  0  0  0  0  0  0
   17.7820   53.4500   35.6330 H   0  0  0  0  0  0  0  0  0  0  0  0
   15.7054   52.0208   36.5024 H   0  0  0  0  0  0  0  0  0  0  0  0
   16.2622   52.7462   38.0636 H   0  0  0  0  0  0  0  0  0  0  0  0
   15.4287   54.2467   35.5444 H   0  0  0  0  0  0  0  0  0  0  0  0
   14.5196   54.1130   37.1185 H   0  0  0  0  0  0  0  0  0  0  0  0
   17.1818   55.0871   37.6164 H   0  0  0  0  0  0  0  0  0  0  0  0
   16.3481   56.0890   36.3263 H   0  0  0  0  0  0  0  0  0  0  0  0
   15.4179   54.5100   39.6355 H   0  0  0  0  0  0  0  0  0  0  0  0
   14.2032   55.7813   41.3992 H   0  0  0  0  0  0  0  0  0  0  0  0
   13.5826   58.1679   41.0185 H   0  0  0  0  0  0  0  0  0  0  0  0
   12.2710   61.0418   39.9651 H   0  0  0  0  0  0  0  0  0  0  0  0
   10.0413   61.5999   38.9895 H   0  0  0  0  0  0  0  0  0  0  0  0
    9.3958   60.6922   36.7591 H   0  0  0  0  0  0  0  0  0  0  0  0
   10.9910   59.2660   35.4781 H   0  0  0  0  0  0  0  0  0  0  0  0
   13.2385   58.7434   36.4313 H   0  0  0  0  0  0  0  0  0  0  0  0
   15.2349   57.9581   37.0326 H   0  0  0  0  0  0  0  0  0  0  0  0
  1  2  2  0
  2  3  1  0
  3  4  1  0
  4  5  2  0
  4  6  1  6
  4  7  1  0
  2  8  1  0
  8  9  1  0
  9 10  1  0
 10 11  1  0
 11 12  1  0
 12 13  2  0
 13 14  1  0
 14 15  2  0
 15 16  1  0
 16 17  1  0
 17 18  1  0
 18 19  2  0
 19 20  1  0
 20 21  2  0
 21 22  1  0
 22 23  2  0
 16 24  2  0
 24 12  1  0
 23 18  1  0
  3 25  1  0
  3 26  1  0
  7 27  1  0
  8 28  1  0
  9 29  1  0
  9 30  1  0
 10 31  1  0
 10 32  1  0
 11 33  1  0
 11 34  1  0
 13 35  1  0
 14 36  1  0
 15 37  1  0
 19 38  1  0
 20 39  1  0
 21 40  1  0
 22 41  1  0
 23 42  1  0
 24 43  1  0
M  CHG  1   6  -1
M  END
>  <meeko>  (3) 
{"is_sidechain": [false], "free_energy": -9.535, "intermolecular_energy": -14.166, "internal_energy": -0.998}

$$$$
2zy1_ligand
     RDKit          3D

 43 44  0  0  0  0  0  0  0  0999 V2000
   20.1430   55.9090   35.9650 O   0  0  0  0  0  0  0  0  0  0  0  0
   19.6600   54.8000   36.1990 C   0  0  0  0  0  0  0  0  0  0  0  0
   20.4810   53.6700   36.7530 C   0  0  0  0  0  0  0  0  0  0  0  0
   20.5530   53.6700   38.5470 P   0  0  2  0  0  5  0  0  0  0  0  0
   21.7500   52.9220   39.0610 O   0  0  0  0  0  0  0  0  0  0  0  0
   19.1750   53.4050   39.1030 O   0  0  0  0  0  0  0  0  0  0  0  0
   20.8590   55.2290   38.8470 O   0  0  0  0  0  0  0  0  0  0  0  0
   18.3070   54.5380   36.0970 N   0  0  0  0  0  0  0  0  0  0  0  0
   17.4420   55.4290   35.3590 C   0  0  0  0  0  0  0  0  0  0  0  0
   16.6000   56.2850   36.3010 C   0  0  0  0  0  0  0  0  0  0  0  0
   15.9410   55.4710   37.4220 C   0  0  0  0  0  0  0  0  0  0  0  0
   15.2680   56.3060   38.4850 C   0  0  0  0  0  0  0  0  0  0  0  0
   15.0650   55.7910   39.7730 C   0  0  0  0  0  0  0  0  0  0  0  0
   14.4850   56.5780   40.7710 C   0  0  0  0  0  0  0  0  0  0  0  0
   14.1190   57.8950   40.4970 C   0  0  0  0  0  0  0  0  0  0  0  0
   14.3270   58.4220   39.2240 C   0  0  0  0  0  0  0  0  0  0  0  0
   13.9590   59.7350   39.0240 O   0  0  0  0  0  0  0  0  0  0  0  0
   12.7810   59.9730   38.3480 C   0  0  0  0  0  0  0  0  0  0  0  0
   11.8420   60.7790   38.9940 C   0  0  0  0  0  0  0  0  0  0  0  0
   10.6200   61.0570   38.3780 C   0  0  0  0  0  0  0  0  0  0  0  0
   10.3440   60.5340   37.1140 C   0  0  0  0  0  0  0  0  0  0  0  0
   11.2920   59.7520   36.4560 C   0  0  0  0  0  0  0  0  0  0  0  0
   12.5190   59.4840   37.0650 C   0  0  0  0  0  0  0  0  0  0  0  0
   14.8550   57.6170   38.2090 C   0  0  0  0  0  0  0  0  0  0  0  0
   20.0392   52.7193   36.4198 H   0  0  0  0  0  0  0  0  0  0  0  0
   21.5088   53.7970   36.3822 H   0  0  0  0  0  0  0  0  0  0  0  0
   20.9790   55.6370   37.9720 H   0  0  0  0  0  0  0  0  0  0  0  0
   18.0750   53.5290   36.0710 H   0  0  0  0  0  0  0  0  0  0  0  0
   18.0582   56.0878   34.7295 H   0  0  0  0  0  0  0  0  0  0  0  0
   16.7647   54.8233   34.7390 H   0  0  0  0  0  0  0  0  0  0  0  0
   17.2491   57.0474   36.7564 H   0  0  0  0  0  0  0  0  0  0  0  0
   15.7937   56.7360   35.7039 H   0  0  0  0  0  0  0  0  0  0  0  0
   15.1838   54.8132   36.9703 H   0  0  0  0  0  0  0  0  0  0  0  0
   16.7474   54.9151   37.9227 H   0  0  0  0  0  0  0  0  0  0  0  0
   15.3653   54.7574   40.0000 H   0  0  0  0  0  0  0  0  0  0  0  0
   14.3170   56.1582   41.7738 H   0  0  0  0  0  0  0  0  0  0  0  0
   13.6671   58.5167   41.2839 H   0  0  0  0  0  0  0  0  0  0  0  0
   12.0645   61.1949   39.9877 H   0  0  0  0  0  0  0  0  0  0  0  0
    9.8764   61.6870   38.8881 H   0  0  0  0  0  0  0  0  0  0  0  0
    9.3752   60.7395   36.6353 H   0  0  0  0  0  0  0  0  0  0  0  0
   11.0732   59.3463   35.4572 H   0  0  0  0  0  0  0  0  0  0  0  0
   13.2783   58.8891   36.5363 H   0  0  0  0  0  0  0  0  0  0  0  0
   14.9467   58.0152   37.1877 H   0  0  0  0  0  0  0  0  0  0  0  0
  1  2  2  0
  2  3  1  0
  3  4  1  0
  4  5  2  0
  4  6  1  1
  4  7  1  0
  2  8  1  0
  8  9  1  0
  9 10  1  0
 10 11  1  0
 11 12  1  0
 12 13  2  0
 13 14  1  0
 14 15  2  0
 15 16  1  0
 16 17  1  0
 17 18  1  0
 18 19  2  0
 19 20  1  0
 20 21  2  0
 21 22  1  0
 22 23  2  0
 16 24  2  0
 24 12  1  0
 23 18  1  0
  3 25  1  0
  3 26  1  0
  7 27  1  0
  8 28  1  0
  9 29  1  0
  9 30  1  0
 10 31  1  0
 10 32  1  0
 11 33  1  0
 11 34  1  0
 13 35  1  0
 14 36  1  0
 15 37  1  0
 19 38  1  0
 20 39  1  0
 21 40  1  0
 22 41  1  0
 23 42  1  0
 24 43  1  0
M  CHG  1   6  -1
M  END
>  <meeko>  (4) 
{"is_sidechain": [false], "free_energy": -9.46, "intermolecular_energy": -14.073, "internal_energy": -0.979}

$$$$
2zy1_ligand
     RDKit          3D

 43 44  0  0  0  0  0  0  0  0999 V2000
   17.5740   51.9990   38.8090 O   0  0  0  0  0  0  0  0  0  0  0  0
   18.0190   52.9970   38.2400 C   0  0  0  0  0  0  0  0  0  0  0  0
   19.3260   53.6260   38.6340 C   0  0  0  0  0  0  0  0  0  0  0  0
   20.2870   54.1840   37.2240 P   0  0  2  0  0  5  0  0  0  0  0  0
   19.8740   55.5550   36.7700 O   0  0  0  0  0  0  0  0  0  0  0  0
   20.4330   53.0510   36.2380 O   0  0  0  0  0  0  0  0  0  0  0  0
   21.7450   54.3750   37.8970 O   0  0  0  0  0  0  0  0  0  0  0  0
   17.4270   53.5440   37.1180 N   0  0  0  0  0  0  0  0  0  0  0  0
   16.0650   53.2100   36.7720 C   0  0  0  0  0  0  0  0  0  0  0  0
   15.2440   54.4650   36.4910 C   0  0  0  0  0  0  0  0  0  0  0  0
   15.9630   55.7560   36.9010 C   0  0  0  0  0  0  0  0  0  0  0  0
   15.3190   56.4900   38.0530 C   0  0  0  0  0  0  0  0  0  0  0  0
   15.1450   55.8580   39.2920 C   0  0  0  0  0  0  0  0  0  0  0  0
   14.5930   56.5510   40.3720 C   0  0  0  0  0  0  0  0  0  0  0  0
   14.2260   57.8880   40.2310 C   0  0  0  0  0  0  0  0  0  0  0  0
   14.4070   58.5310   39.0080 C   0  0  0  0  0  0  0  0  0  0  0  0
   14.0400   59.8570   38.9390 O   0  0  0  0  0  0  0  0  0  0  0  0
   12.7880   60.1500   38.4420 C   0  0  0  0  0  0  0  0  0  0  0  0
   12.0780   61.1620   39.0920 C   0  0  0  0  0  0  0  0  0  0  0  0
   10.7980   61.5080   38.6540 C   0  0  0  0  0  0  0  0  0  0  0  0
   10.2350   60.8470   37.5620 C   0  0  0  0  0  0  0  0  0  0  0  0
   10.9540   59.8560   36.8950 C   0  0  0  0  0  0  0  0  0  0  0  0
   12.2380   59.5170   37.3230 C   0  0  0  0  0  0  0  0  0  0  0  0
   14.9060   57.8220   37.9100 C   0  0  0  0  0  0  0  0  0  0  0  0
   19.1182   54.4908   39.2813 H   0  0  0  0  0  0  0  0  0  0  0  0
   19.9181   52.8582   39.1535 H   0  0  0  0  0  0  0  0  0  0  0  0
   22.2800   53.6360   37.5590 H   0  0  0  0  0  0  0  0  0  0  0  0
   17.7450   54.5050   36.9010 H   0  0  0  0  0  0  0  0  0  0  0  0
   16.0683   52.5748   35.8740 H   0  0  0  0  0  0  0  0  0  0  0  0
   15.6100   52.6787   37.6209 H   0  0  0  0  0  0  0  0  0  0  0  0
   15.0305   54.5100   35.4129 H   0  0  0  0  0  0  0  0  0  0  0  0
   14.3236   54.3968   37.0896 H   0  0  0  0  0  0  0  0  0  0  0  0
   16.9930   55.4994   37.1894 H   0  0  0  0  0  0  0  0  0  0  0  0
   15.9159   56.4306   36.0334 H   0  0  0  0  0  0  0  0  0  0  0  0
   15.4458   54.8071   39.4149 H   0  0  0  0  0  0  0  0  0  0  0  0
   14.4477   56.0405   41.3355 H   0  0  0  0  0  0  0  0  0  0  0  0
   13.7946   58.4343   41.0828 H   0  0  0  0  0  0  0  0  0  0  0  0
   12.5269   61.6862   39.9485 H   0  0  0  0  0  0  0  0  0  0  0  0
   10.2347   62.3002   39.1690 H   0  0  0  0  0  0  0  0  0  0  0  0
    9.2207   61.1085   37.2262 H   0  0  0  0  0  0  0  0  0  0  0  0
   10.5088   59.3411   36.0309 H   0  0  0  0  0  0  0  0  0  0  0  0
   12.8162   58.7537   36.7816 H   0  0  0  0  0  0  0  0  0  0  0  0
   14.9747   58.3129   36.9280 H   0  0  0  0  0  0  0  0  0  0  0  0
  1  2  2  0
  2  3  1  0
  3  4  1  0
  4  5  2  0
  4  6  1  6
  4  7  1  0
  2  8  1  0
  8  9  1  0
  9 10  1  0
 10 11  1  0
 11 12  1  0
 12 13  2  0
 13 14  1  0
 14 15  2  0
 15 16  1  0
 16 17  1  0
 17 18  1  0
 18 19  2  0
 19 20  1  0
 20 21  2  0
 21 22  1  0
 22 23  2  0
 16 24  2  0
 24 12  1  0
 23 18  1  0
  3 25  1  0
  3 26  1  0
  7 27  1  0
  8 28  1  0
  9 29  1  0
  9 30  1  0
 10 31  1  0
 10 32  1  0
 11 33  1  0
 11 34  1  0
 13 35  1  0
 14 36  1  0
 15 37  1  0
 19 38  1  0
 20 39  1  0
 21 40  1  0
 22 41  1  0
 23 42  1  0
 24 43  1  0
M  CHG  1   6  -1
M  END
>  <meeko>  (5) 
{"is_sidechain": [false], "free_energy": -9.435, "intermolecular_energy": -13.857, "internal_energy": -1.157}

$$$$
2zy1_ligand
     RDKit          3D

 43 44  0  0  0  0  0  0  0  0999 V2000
   20.5950   54.8680   37.9760 O   0  0  0  0  0  0  0  0  0  0  0  0
   20.2020   54.0370   37.1550 C   0  0  0  0  0  0  0  0  0  0  0  0
   20.2090   52.5620   37.4440 C   0  0  0  0  0  0  0  0  0  0  0  0
   19.9870   51.5600   35.9710 P   0  0  2  0  0  5  0  0  0  0  0  0
   21.0550   51.8240   34.9470 O   0  0  0  0  0  0  0  0  0  0  0  0
   18.5290   51.5510   35.5850 O   0  0  0  0  0  0  0  0  0  0  0  0
   20.3020   50.0830   36.5480 O   0  0  0  0  0  0  0  0  0  0  0  0
   19.6070   54.3920   35.9600 N   0  0  0  0  0  0  0  0  0  0  0  0
   19.7470   55.7330   35.4410 C   0  0  0  0  0  0  0  0  0  0  0  0
   18.5500   56.5990   35.8190 C   0  0  0  0  0  0  0  0  0  0  0  0
   17.2070   55.8860   35.6160 C   0  0  0  0  0  0  0  0  0  0  0  0
   16.3870   55.7320   36.8750 C   0  0  0  0  0  0  0  0  0  0  0  0
   16.3100   54.4940   37.5290 C   0  0  0  0  0  0  0  0  0  0  0  0
   15.5900   54.3620   38.7190 C   0  0  0  0  0  0  0  0  0  0  0  0
   14.9540   55.4700   39.2780 C   0  0  0  0  0  0  0  0  0  0  0  0
   15.0340   56.7080   38.6430 C   0  0  0  0  0  0  0  0  0  0  0  0
   14.3980   57.7650   39.2570 O   0  0  0  0  0  0  0  0  0  0  0  0
   13.4840   58.4800   38.5130 C   0  0  0  0  0  0  0  0  0  0  0  0
   13.2750   59.8090   38.8880 C   0  0  0  0  0  0  0  0  0  0  0  0
   12.3550   60.5940   38.1900 C   0  0  0  0  0  0  0  0  0  0  0  0
   11.6530   60.0510   37.1140 C   0  0  0  0  0  0  0  0  0  0  0  0
   11.8810   58.7320   36.7220 C   0  0  0  0  0  0  0  0  0  0  0  0
   12.8090   57.9500   37.4090 C   0  0  0  0  0  0  0  0  0  0  0  0
   15.7060   56.8290   37.4230 C   0  0  0  0  0  0  0  0  0  0  0  0
   21.1725   52.2993   37.9052 H   0  0  0  0  0  0  0  0  0  0  0  0
   19.3631   52.3533   38.1155 H   0  0  0  0  0  0  0  0  0  0  0  0
   19.6180   49.9230   37.2210 H   0  0  0  0  0  0  0  0  0  0  0  0
   19.5620   53.6230   35.2680 H   0  0  0  0  0  0  0  0  0  0  0  0
   20.6610   56.1841   35.8547 H   0  0  0  0  0  0  0  0  0  0  0  0
   19.8038   55.6775   34.3439 H   0  0  0  0  0  0  0  0  0  0  0  0
   18.6412   56.8799   36.8786 H   0  0  0  0  0  0  0  0  0  0  0  0
   18.5587   57.4789   35.1589 H   0  0  0  0  0  0  0  0  0  0  0  0
   16.6169   56.4637   34.8894 H   0  0  0  0  0  0  0  0  0  0  0  0
   17.4404   54.8695   35.2665 H   0  0  0  0  0  0  0  0  0  0  0  0
   16.8211   53.6189   37.1012 H   0  0  0  0  0  0  0  0  0  0  0  0
   15.5247   53.3827   39.2157 H   0  0  0  0  0  0  0  0  0  0  0  0
   14.3909   55.3672   40.2173 H   0  0  0  0  0  0  0  0  0  0  0  0
   13.8348   60.2371   39.7327 H   0  0  0  0  0  0  0  0  0  0  0  0
   12.1842   61.6389   38.4882 H   0  0  0  0  0  0  0  0  0  0  0  0
   10.9176   60.6647   36.5731 H   0  0  0  0  0  0  0  0  0  0  0  0
   11.3285   58.3083   35.8704 H   0  0  0  0  0  0  0  0  0  0  0  0
   13.0095   56.9187   37.0832 H   0  0  0  0  0  0  0  0  0  0  0  0
   15.7006   57.7909   36.8893 H   0  0  0  0  0  0  0  0  0  0  0  0
  1  2  2  0
  2  3  1  0
  3  4  1  0
  4  5  2  0
  4  6  1  6
  4  7  1  0
  2  8  1  0
  8  9  1  0
  9 10  1  0
 10 11  1  0
 11 12  1  0
 12 13  2  0
 13 14  1  0
 14 15  2  0
 15 16  1  0
 16 17  1  0
 17 18  1  0
 18 19  2  0
 19 20  1  0
 20 21  2  0
 21 22  1  0
 22 23  2  0
 16 24  2  0
 24 12  1  0
 23 18  1  0
  3 25  1  0
  3 26  1  0
  7 27  1  0
  8 28  1  0
  9 29  1  0
  9 30  1  0
 10 31  1  0
 10 32  1  0
 11 33  1  0
 11 34  1  0
 13 35  1  0
 14 36  1  0
 15 37  1  0
 19 38  1  0
 20 39  1  0
 21 40  1  0
 22 41  1  0
 23 42  1  0
 24 43  1  0
M  CHG  1   6  -1
M  END
>  <meeko>  (6) 
{"is_sidechain": [false], "free_energy": -8.946, "intermolecular_energy": -13.167, "internal_energy": -1.115}

$$$$
2zy1_ligand
     RDKit          3D

 43 44  0  0  0  0  0  0  0  0999 V2000
   23.8490   55.4110   39.1220 O   0  0  0  0  0  0  0  0  0  0  0  0
   23.4860   54.3100   39.5400 C   0  0  0  0  0  0  0  0  0  0  0  0
   24.4180   53.1330   39.6110 C   0  0  0  0  0  0  0  0  0  0  0  0
   23.5670   51.5580   39.4810 P   0  0  2  0  0  5  0  0  0  0  0  0
   24.5270   50.4010   39.4700 O   0  0  0  0  0  0  0  0  0  0  0  0
   22.4700   51.6640   38.4510 O   0  0  0  0  0  0  0  0  0  0  0  0
   22.8240   51.4850   40.9150 O   0  0  0  0  0  0  0  0  0  0  0  0
   22.2390   54.0960   40.0950 N   0  0  0  0  0  0  0  0  0  0  0  0
   21.1690   55.0430   39.8810 C   0  0  0  0  0  0  0  0  0  0  0  0
   19.8660   54.3330   39.5290 C   0  0  0  0  0  0  0  0  0  0  0  0
   19.7460   54.0060   38.0350 C   0  0  0  0  0  0  0  0  0  0  0  0
   18.6830   54.7940   37.3080 C   0  0  0  0  0  0  0  0  0  0  0  0
   18.9990   55.5180   36.1500 C   0  0  0  0  0  0  0  0  0  0  0  0
   18.0070   56.2080   35.4500 C   0  0  0  0  0  0  0  0  0  0  0  0
   16.6850   56.1680   35.8890 C   0  0  0  0  0  0  0  0  0  0  0  0
   16.3560   55.4420   37.0320 C   0  0  0  0  0  0  0  0  0  0  0  0
   15.0290   55.4290   37.4020 O   0  0  0  0  0  0  0  0  0  0  0  0
   14.4680   56.6190   37.8150 C   0  0  0  0  0  0  0  0  0  0  0  0
   13.3410   57.0550   37.1160 C   0  0  0  0  0  0  0  0  0  0  0  0
   12.7240   58.2570   37.4690 C   0  0  0  0  0  0  0  0  0  0  0  0
   13.2300   59.0150   38.5240 C   0  0  0  0  0  0  0  0  0  0  0  0
   14.3390   58.5670   39.2410 C   0  0  0  0  0  0  0  0  0  0  0  0
   14.9500   57.3600   38.8990 C   0  0  0  0  0  0  0  0  0  0  0  0
   17.3570   54.7980   37.7650 C   0  0  0  0  0  0  0  0  0  0  0  0
   25.1428   53.2092   38.7870 H   0  0  0  0  0  0  0  0  0  0  0  0
   24.9107   53.1614   40.5941 H   0  0  0  0  0  0  0  0  0  0  0  0
   22.0640   50.8940   40.7770 H   0  0  0  0  0  0  0  0  0  0  0  0
   21.9750   53.0980   40.1660 H   0  0  0  0  0  0  0  0  0  0  0  0
   21.0208   55.6304   40.7992 H   0  0  0  0  0  0  0  0  0  0  0  0
   21.4463   55.6980   39.0419 H   0  0  0  0  0  0  0  0  0  0  0  0
   19.8138   53.3935   40.0987 H   0  0  0  0  0  0  0  0  0  0  0  0
   19.0409   55.0143   39.7839 H   0  0  0  0  0  0  0  0  0  0  0  0
   20.7152   54.2142   37.5582 H   0  0  0  0  0  0  0  0  0  0  0  0
   19.4538   52.9477   37.9675 H   0  0  0  0  0  0  0  0  0  0  0  0
   20.0379   55.5429   35.7894 H   0  0  0  0  0  0  0  0  0  0  0  0
   18.2696   56.7841   34.5505 H   0  0  0  0  0  0  0  0  0  0  0  0
   15.9033   56.7081   35.3347 H   0  0  0  0  0  0  0  0  0  0  0  0
   12.9394   56.4524   36.2880 H   0  0  0  0  0  0  0  0  0  0  0  0
   11.8397   58.6054   36.9152 H   0  0  0  0  0  0  0  0  0  0  0  0
   12.7530   59.9694   38.7917 H   0  0  0  0  0  0  0  0  0  0  0  0
   14.7322   59.1652   40.0762 H   0  0  0  0  0  0  0  0  0  0  0  0
   15.8084   56.9923   39.4803 H   0  0  0  0  0  0  0  0  0  0  0  0
   17.1028   54.2906   38.7073 H   0  0  0  0  0  0  0  0  0  0  0  0
  1  2  2  0
  2  3  1  0
  3  4  1  0
  4  5  2  0
  4  6  1  6
  4  7  1  0
  2  8  1  0
  8  9  1  0
  9 10  1  0
 10 11  1  0
 11 12  1  0
 12 13  2  0
 13 14  1  0
 14 15  2  0
 15 16  1  0
 16 17  1  0
 17 18  1  0
 18 19  2  0
 19 20  1  0
 20 21  2  0
 21 22  1  0
 22 23  2  0
 16 24  2  0
 24 12  1  0
 23 18  1  0
  3 25  1  0
  3 26  1  0
  7 27  1  0
  8 28  1  0
  9 29  1  0
  9 30  1  0
 10 31  1  0
 10 32  1  0
 11 33  1  0
 11 34  1  0
 13 35  1  0
 14 36  1  0
 15 37  1  0
 19 38  1  0
 20 39  1  0
 21 40  1  0
 22 41  1  0
 23 42  1  0
 24 43  1  0
M  CHG  1   6  -1
M  END
>  <meeko>  (7) 
{"is_sidechain": [false], "free_energy": -8.807, "intermolecular_energy": -12.745, "internal_energy": -1.329}

$$$$
2zy1_ligand
     RDKit          3D

 43 44  0  0  0  0  0  0  0  0999 V2000
   20.1150   49.9350   32.8440 O   0  0  0  0  0  0  0  0  0  0  0  0
   21.0690   49.6740   33.5800 C   0  0  0  0  0  0  0  0  0  0  0  0
   22.1440   48.7020   33.1820 C   0  0  0  0  0  0  0  0  0  0  0  0
   23.4980   49.4800   32.2970 P   0  0  2  0  0  5  0  0  0  0  0  0
   24.5510   48.4860   31.8950 O   0  0  0  0  0  0  0  0  0  0  0  0
   23.8720   50.7700   32.9860 O   0  0  0  0  0  0  0  0  0  0  0  0
   22.7650   49.9100   30.9220 O   0  0  0  0  0  0  0  0  0  0  0  0
   21.2990   50.3400   34.7690 N   0  0  0  0  0  0  0  0  0  0  0  0
   20.2480   51.1100   35.3930 C   0  0  0  0  0  0  0  0  0  0  0  0
   20.7940   52.3990   35.9990 C   0  0  0  0  0  0  0  0  0  0  0  0
   19.9370   52.9260   37.1570 C   0  0  0  0  0  0  0  0  0  0  0  0
   19.0980   54.1330   36.8110 C   0  0  0  0  0  0  0  0  0  0  0  0
   19.6580   55.2160   36.1190 C   0  0  0  0  0  0  0  0  0  0  0  0
   18.8710   56.3120   35.7570 C   0  0  0  0  0  0  0  0  0  0  0  0
   17.5120   56.3300   36.0680 C   0  0  0  0  0  0  0  0  0  0  0  0
   16.9420   55.2540   36.7450 C   0  0  0  0  0  0  0  0  0  0  0  0
   15.5910   55.3260   37.0070 O   0  0  0  0  0  0  0  0  0  0  0  0
   15.1840   56.1220   38.0570 C   0  0  0  0  0  0  0  0  0  0  0  0
   15.1180   55.5150   39.3120 C   0  0  0  0  0  0  0  0  0  0  0  0
   14.7040   56.2530   40.4230 C   0  0  0  0  0  0  0  0  0  0  0  0
   14.3650   57.5980   40.2760 C   0  0  0  0  0  0  0  0  0  0  0  0
   14.4570   58.2130   39.0280 C   0  0  0  0  0  0  0  0  0  0  0  0
   14.8830   57.4800   37.9200 C   0  0  0  0  0  0  0  0  0  0  0  0
   17.7400   54.1830   37.1580 C   0  0  0  0  0  0  0  0  0  0  0  0
   22.5445   48.2301   34.0914 H   0  0  0  0  0  0  0  0  0  0  0  0
   21.6878   47.9650   32.5047 H   0  0  0  0  0  0  0  0  0  0  0  0
   23.1410   50.7780   30.6940 H   0  0  0  0  0  0  0  0  0  0  0  0
   21.9660   49.8590   35.3970 H   0  0  0  0  0  0  0  0  0  0  0  0
   19.4903   51.3620   34.6365 H   0  0  0  0  0  0  0  0  0  0  0  0
   19.8055   50.5063   36.1990 H   0  0  0  0  0  0  0  0  0  0  0  0
   21.8103   52.2073   36.3738 H   0  0  0  0  0  0  0  0  0  0  0  0
   20.7858   53.1639   35.2085 H   0  0  0  0  0  0  0  0  0  0  0  0
   19.2629   52.1195   37.4813 H   0  0  0  0  0  0  0  0  0  0  0  0
   20.6349   53.2435   37.9458 H   0  0  0  0  0  0  0  0  0  0  0  0
   20.7267   55.2027   35.8587 H   0  0  0  0  0  0  0  0  0  0  0  0
   19.3242   57.1620   35.2258 H   0  0  0  0  0  0  0  0  0  0  0  0
   16.8916   57.1914   35.7796 H   0  0  0  0  0  0  0  0  0  0  0  0
   15.3919   54.4558   39.4260 H   0  0  0  0  0  0  0  0  0  0  0  0
   14.6454   55.7746   41.4118 H   0  0  0  0  0  0  0  0  0  0  0  0
   14.0238   58.1756   41.1478 H   0  0  0  0  0  0  0  0  0  0  0  0
   14.1939   59.2753   38.9171 H   0  0  0  0  0  0  0  0  0  0  0  0
   14.9818   57.9700   36.9402 H   0  0  0  0  0  0  0  0  0  0  0  0
   17.2998   53.3739   37.7593 H   0  0  0  0  0  0  0  0  0  0  0  0
  1  2  2  0
  2  3  1  0
  3  4  1  0
  4  5  2  0
  4  6  1  1
  4  7  1  0
  2  8  1  0
  8  9  1  0
  9 10  1  0
 10 11  1  0
 11 12  1  0
 12 13  2  0
 13 14  1  0
 14 15  2  0
 15 16  1  0
 16 17  1  0
 17 18  1  0
 18 19  2  0
 19 20  1  0
 20 21  2  0
 21 22  1  0
 22 23  2  0
 16 24  2  0
 24 12  1  0
 23 18  1  0
  3 25  1  0
  3 26  1  0
  7 27  1  0
  8 28  1  0
  9 29  1  0
  9 30  1  0
 10 31  1  0
 10 32  1  0
 11 33  1  0
 11 34  1  0
 13 35  1  0
 14 36  1  0
 15 37  1  0
 19 38  1  0
 20 39  1  0
 21 40  1  0
 22 41  1  0
 23 42  1  0
 24 43  1  0
M  CHG  1   6  -1
M  END
>  <meeko>  (8) 
{"is_sidechain": [false], "free_energy": -8.678, "intermolecular_energy": -12.894, "internal_energy": -0.986}

$$$$
2zy1_ligand
     RDKit          3D

 43 44  0  0  0  0  0  0  0  0999 V2000
   24.2750   51.7100   35.9280 O   0  0  0  0  0  0  0  0  0  0  0  0
   23.6930   51.5250   36.9990 C   0  0  0  0  0  0  0  0  0  0  0  0
   24.4200   51.5210   38.3140 C   0  0  0  0  0  0  0  0  0  0  0  0
   23.9320   52.8740   39.3880 P   0  0  2  0  0  5  0  0  0  0  0  0
   25.1050   53.4550   40.1260 O   0  0  0  0  0  0  0  0  0  0  0  0
   22.6640   52.5040   40.1170 O   0  0  0  0  0  0  0  0  0  0  0  0
   23.5080   53.9950   38.3030 O   0  0  0  0  0  0  0  0  0  0  0  0
   22.3170   51.4330   37.0960 N   0  0  0  0  0  0  0  0  0  0  0  0
   21.5150   51.1790   35.9210 C   0  0  0  0  0  0  0  0  0  0  0  0
   20.1520   51.8540   36.0280 C   0  0  0  0  0  0  0  0  0  0  0  0
   20.0920   52.9120   37.1380 C   0  0  0  0  0  0  0  0  0  0  0  0
   19.2410   54.1150   36.8070 C   0  0  0  0  0  0  0  0  0  0  0  0
   19.7840   55.2020   36.1100 C   0  0  0  0  0  0  0  0  0  0  0  0
   18.9860   56.2940   35.7620 C   0  0  0  0  0  0  0  0  0  0  0  0
   17.6320   56.3040   36.0930 C   0  0  0  0  0  0  0  0  0  0  0  0
   17.0780   55.2230   36.7750 C   0  0  0  0  0  0  0  0  0  0  0  0
   15.7300   55.2870   37.0570 O   0  0  0  0  0  0  0  0  0  0  0  0
   15.3300   56.1110   38.0860 C   0  0  0  0  0  0  0  0  0  0  0  0
   15.3350   55.5580   39.3680 C   0  0  0  0  0  0  0  0  0  0  0  0
   14.9310   56.3280   40.4610 C   0  0  0  0  0  0  0  0  0  0  0  0
   14.5320   57.6510   40.2700 C   0  0  0  0  0  0  0  0  0  0  0  0
   14.5530   58.2130   38.9940 C   0  0  0  0  0  0  0  0  0  0  0  0
   14.9690   57.4500   37.9030 C   0  0  0  0  0  0  0  0  0  0  0  0
   17.8880   54.1550   37.1740 C   0  0  0  0  0  0  0  0  0  0  0  0
   24.2096   50.5716   38.8282 H   0  0  0  0  0  0  0  0  0  0  0  0
   25.4919   51.6417   38.0983 H   0  0  0  0  0  0  0  0  0  0  0  0
   22.9530   53.5260   37.6570 H   0  0  0  0  0  0  0  0  0  0  0  0
   21.9850   51.0290   37.9890 H   0  0  0  0  0  0  0  0  0  0  0  0
   22.0403   51.5691   35.0367 H   0  0  0  0  0  0  0  0  0  0  0  0
   21.3604   50.0935   35.8325 H   0  0  0  0  0  0  0  0  0  0  0  0
   19.9254   52.3403   35.0677 H   0  0  0  0  0  0  0  0  0  0  0  0
   19.4174   51.0741   36.2770 H   0  0  0  0  0  0  0  0  0  0  0  0
   19.6822   52.4389   38.0426 H   0  0  0  0  0  0  0  0  0  0  0  0
   21.1188   53.2817   37.2755 H   0  0  0  0  0  0  0  0  0  0  0  0
   20.8488   55.1954   35.8342 H   0  0  0  0  0  0  0  0  0  0  0  0
   19.4266   57.1475   35.2259 H   0  0  0  0  0  0  0  0  0  0  0  0
   17.0028   57.1629   35.8165 H   0  0  0  0  0  0  0  0  0  0  0  0
   15.6568   54.5168   39.5171 H   0  0  0  0  0  0  0  0  0  0  0  0
   14.9275   55.8919   41.4708 H   0  0  0  0  0  0  0  0  0  0  0  0
   14.1997   58.2528   41.1287 H   0  0  0  0  0  0  0  0  0  0  0  0
   14.2416   59.2578   38.8479 H   0  0  0  0  0  0  0  0  0  0  0  0
   15.0131   57.9004   36.9004 H   0  0  0  0  0  0  0  0  0  0  0  0
   17.4614   53.3416   37.7792 H   0  0  0  0  0  0  0  0  0  0  0  0
  1  2  2  0
  2  3  1  0
  3  4  1  0
  4  5  2  0
  4  6  1  1
  4  7  1  0
  2  8  1  0
  8  9  1  0
  9 10  1  0
 10 11  1  0
 11 12  1  0
 12 13  2  0
 13 14  1  0
 14 15  2  0
 15 16  1  0
 16 17  1  0
 17 18  1  0
 18 19  2  0
 19 20  1  0
 20 21  2  0
 21 22  1  0
 22 23  2  0
 16 24  2  0
 24 12  1  0
 23 18  1  0
  3 25  1  0
  3 26  1  0
  7 27  1  0
  8 28  1  0
  9 29  1  0
  9 30  1  0
 10 31  1  0
 10 32  1  0
 11 33  1  0
 11 34  1  0
 13 35  1  0
 14 36  1  0
 15 37  1  0
 19 38  1  0
 20 39  1  0
 21 40  1  0
 22 41  1  0
 23 42  1  0
 24 43  1  0
M  CHG  1   6  -1
M  END
>  <meeko>  (9) 
{"is_sidechain": [false], "free_energy": -8.67, "intermolecular_energy": -12.622, "internal_energy": -1.247}

$$$$
