3n7a_ligand
     RDKit          3D

 21 21  0  0  0  0  0  0  0  0999 V2000
   18.8780   44.6470   12.1100 O   0  0  0  0  0  0  0  0  0  0  0  0
   19.1260   45.8400   11.7650 C   0  0  0  0  0  0  0  0  0  0  0  0
   18.3430   46.7560   11.3600 O   0  0  0  0  0  0  0  0  0  0  0  0
   20.6340   46.3030   11.8680 C   0  0  2  0  0  0  0  0  0  0  0  0
   20.7120   47.3810   12.8350 O   0  0  0  0  0  0  0  0  0  0  0  0
   21.0560   46.8800   10.5450 C   0  0  0  0  0  0  0  0  0  0  0  0
   21.8700   46.2440    9.6900 C   0  0  0  0  0  0  0  0  0  0  0  0
   22.4130   44.8700    9.9260 C   0  0  1  0  0  0  0  0  0  0  0  0
   23.8400   44.9920    9.8880 O   0  0  0  0  0  0  0  0  0  0  0  0
   21.9650   44.1880   11.2470 C   0  0  2  0  0  0  0  0  0  0  0  0
   20.9460   43.2160   10.9900 O   0  0  0  0  0  0  0  0  0  0  0  0
   21.5540   45.1750   12.3460 C   0  0  0  0  0  0  0  0  0  0  0  0
   21.6800   47.5830   12.8300 H   0  0  0  0  0  0  0  0  0  0  0  0
   20.6778   47.8741   10.2644 H   0  0  0  0  0  0  0  0  0  0  0  0
   22.1547   46.7620    8.7623 H   0  0  0  0  0  0  0  0  0  0  0  0
   22.0093   44.2088    9.1451 H   0  0  0  0  0  0  0  0  0  0  0  0
   24.0520   45.7630   10.4390 H   0  0  0  0  0  0  0  0  0  0  0  0
   22.8494   43.6713   11.6481 H   0  0  0  0  0  0  0  0  0  0  0  0
   20.6010   43.3830   10.0710 H   0  0  0  0  0  0  0  0  0  0  0  0
   21.0307   44.6143   13.1345 H   0  0  0  0  0  0  0  0  0  0  0  0
   22.4786   45.6523   12.7028 H   0  0  0  0  0  0  0  0  0  0  0  0
  1  2  2  0
  2  3  1  0
  2  4  1  0
  4  5  1  1
  4  6  1  0
  6  7  2  0
  7  8  1  0
  8  9  1  0
  8 10  1  0
 10 11  1  0
 10 12  1  0
 12  4  1  0
  5 13  1  0
  6 14  1  0
  7 15  1  0
  8 16  1  6
  9 17  1  0
 10 18  1  1
 11 19  1  0
 12 20  1  0
 12 21  1  0
M  CHG  1   3  -1
M  END
>  <meeko>  (1) 
{"is_sidechain": [false], "free_energy": -6.86, "intermolecular_energy": -7.863, "internal_energy": -0.173}

$$$$
3n7a_ligand
     RDKit          3D

 21 21  0  0  0  0  0  0  0  0999 V2000
   21.1320   43.2330   11.0540 O   0  0  0  0  0  0  0  0  0  0  0  0
   21.8290   43.9970   11.7840 C   0  0  0  0  0  0  0  0  0  0  0  0
   23.0890   44.0560   11.9410 O   0  0  0  0  0  0  0  0  0  0  0  0
   21.0410   45.0790   12.6260 C   0  0  2  0  0  0  0  0  0  0  0  0
   21.4480   44.9580   14.0120 O   0  0  0  0  0  0  0  0  0  0  0  0
   19.5730   44.7560   12.5780 C   0  0  0  0  0  0  0  0  0  0  0  0
   18.6880   45.4570   11.8540 C   0  0  0  0  0  0  0  0  0  0  0  0
   19.0620   46.6070   10.9720 C   0  0  1  0  0  0  0  0  0  0  0  0
   18.3070   47.7320   11.4400 O   0  0  0  0  0  0  0  0  0  0  0  0
   20.5730   46.9540   10.9250 C   0  0  2  0  0  0  0  0  0  0  0  0
   21.1650   46.4640    9.7160 O   0  0  0  0  0  0  0  0  0  0  0  0
   21.3520   46.5070   12.1680 C   0  0  0  0  0  0  0  0  0  0  0  0
   21.0580   44.0830   14.2590 H   0  0  0  0  0  0  0  0  0  0  0  0
   19.2066   43.9018   13.1663 H   0  0  0  0  0  0  0  0  0  0  0  0
   17.6275   45.1706   11.9117 H   0  0  0  0  0  0  0  0  0  0  0  0
   18.8304   46.3254    9.9342 H   0  0  0  0  0  0  0  0  0  0  0  0
   17.4740   47.3650   11.7790 H   0  0  0  0  0  0  0  0  0  0  0  0
   20.6408   48.0519   10.9290 H   0  0  0  0  0  0  0  0  0  0  0  0
   22.0110   46.0020    9.9670 H   0  0  0  0  0  0  0  0  0  0  0  0
   22.4268   46.5702   11.9424 H   0  0  0  0  0  0  0  0  0  0  0  0
   21.0477   47.1744   12.9878 H   0  0  0  0  0  0  0  0  0  0  0  0
  1  2  2  0
  2  3  1  0
  2  4  1  0
  4  5  1  1
  4  6  1  0
  6  7  2  0
  7  8  1  0
  8  9  1  0
  8 10  1  0
 10 11  1  0
 10 12  1  0
 12  4  1  0
  5 13  1  0
  6 14  1  0
  7 15  1  0
  8 16  1  6
  9 17  1  0
 10 18  1  6
 11 19  1  0
 12 20  1  0
 12 21  1  0
M  CHG  1   3  -1
M  END
>  <meeko>  (2) 
{"is_sidechain": [false], "free_energy": -6.096, "intermolecular_energy": -7.019, "internal_energy": -0.141}

$$$$
3n7a_ligand
     RDKit          3D

 21 21  0  0  0  0  0  0  0  0999 V2000
   22.1200   44.6910   13.5610 O   0  0  0  0  0  0  0  0  0  0  0  0
   22.4300   44.2690   12.4080 C   0  0  0  0  0  0  0  0  0  0  0  0
   23.5100   43.7460   11.9900 O   0  0  0  0  0  0  0  0  0  0  0  0
   21.3100   44.3710   11.2960 C   0  0  2  0  0  0  0  0  0  0  0  0
   20.9160   43.0250   10.9270 O   0  0  0  0  0  0  0  0  0  0  0  0
   21.9030   44.9990   10.0660 C   0  0  0  0  0  0  0  0  0  0  0  0
   21.6420   46.2570    9.6820 C   0  0  0  0  0  0  0  0  0  0  0  0
   20.7740   47.1990   10.4570 C   0  0  1  0  0  0  0  0  0  0  0  0
   19.7240   47.5980    9.5680 O   0  0  0  0  0  0  0  0  0  0  0  0
   20.1790   46.6340   11.7750 C   0  0  2  0  0  0  0  0  0  0  0  0
   20.8990   47.1340   12.9070 O   0  0  0  0  0  0  0  0  0  0  0  0
   20.0630   45.1050   11.7980 C   0  0  0  0  0  0  0  0  0  0  0  0
   20.1140   42.8910   11.4910 H   0  0  0  0  0  0  0  0  0  0  0  0
   22.5858   44.3960    9.4494 H   0  0  0  0  0  0  0  0  0  0  0  0
   22.0910   46.6172    8.7446 H   0  0  0  0  0  0  0  0  0  0  0  0
   21.4023   48.0359   10.7958 H   0  0  0  0  0  0  0  0  0  0  0  0
   19.0810   48.0740   10.1190 H   0  0  0  0  0  0  0  0  0  0  0  0
   19.1422   46.9971   11.8304 H   0  0  0  0  0  0  0  0  0  0  0  0
   21.8520   46.8650   12.7950 H   0  0  0  0  0  0  0  0  0  0  0  0
   19.8713   44.7895   12.8342 H   0  0  0  0  0  0  0  0  0  0  0  0
   19.2444   44.8407   11.1124 H   0  0  0  0  0  0  0  0  0  0  0  0
  1  2  2  0
  2  3  1  0
  2  4  1  0
  4  5  1  6
  4  6  1  0
  6  7  2  0
  7  8  1  0
  8  9  1  0
  8 10  1  0
 10 11  1  0
 10 12  1  0
 12  4  1  0
  5 13  1  0
  6 14  1  0
  7 15  1  0
  8 16  1  1
  9 17  1  0
 10 18  1  1
 11 19  1  0
 12 20  1  0
 12 21  1  0
M  CHG  1   3  -1
M  END
>  <meeko>  (3) 
{"is_sidechain": [false], "free_energy": -6.027, "intermolecular_energy": -6.87, "internal_energy": -0.21}

$$$$
3n7a_ligand
     RDKit          3D

 21 21  0  0  0  0  0  0  0  0999 V2000
   22.3100   46.6150    6.0150 O   0  0  0  0  0  0  0  0  0  0  0  0
   21.6440   46.3860    4.9630 C   0  0  0  0  0  0  0  0  0  0  0  0
   20.4730   46.7600    4.6360 O   0  0  0  0  0  0  0  0  0  0  0  0
   22.3610   45.5230    3.8490 C   0  0  2  0  0  0  0  0  0  0  0  0
   22.9070   46.4290    2.8570 O   0  0  0  0  0  0  0  0  0  0  0  0
   21.3310   44.6840    3.1450 C   0  0  0  0  0  0  0  0  0  0  0  0
   21.2060   43.3620    3.3310 C   0  0  0  0  0  0  0  0  0  0  0  0
   22.0410   42.5750    4.2920 C   0  0  1  0  0  0  0  0  0  0  0  0
   22.6940   41.5610    3.5190 O   0  0  0  0  0  0  0  0  0  0  0  0
   23.0850   43.3920    5.1000 C   0  0  2  0  0  0  0  0  0  0  0  0
   22.6230   43.6170    6.4360 O   0  0  0  0  0  0  0  0  0  0  0  0
   23.5180   44.6950    4.4160 C   0  0  0  0  0  0  0  0  0  0  0  0
   23.5290   46.9710    3.4020 H   0  0  0  0  0  0  0  0  0  0  0  0
   20.6454   45.1796    2.4419 H   0  0  0  0  0  0  0  0  0  0  0  0
   20.4464   42.8252    2.7438 H   0  0  0  0  0  0  0  0  0  0  0  0
   21.3726   42.1716    5.0669 H   0  0  0  0  0  0  0  0  0  0  0  0
   21.9930   40.9440    3.2520 H   0  0  0  0  0  0  0  0  0  0  0  0
   23.9966   42.7778    5.1422 H   0  0  0  0  0  0  0  0  0  0  0  0
   22.3760   42.7300    6.8180 H   0  0  0  0  0  0  0  0  0  0  0  0
   24.0529   45.3105    5.1543 H   0  0  0  0  0  0  0  0  0  0  0  0
   24.1488   44.4081    3.5617 H   0  0  0  0  0  0  0  0  0  0  0  0
  1  2  2  0
  2  3  1  0
  2  4  1  0
  4  5  1  6
  4  6  1  0
  6  7  2  0
  7  8  1  0
  8  9  1  0
  8 10  1  0
 10 11  1  0
 10 12  1  0
 12  4  1  0
  5 13  1  0
  6 14  1  0
  7 15  1  0
  8 16  1  1
  9 17  1  0
 10 18  1  1
 11 19  1  0
 12 20  1  0
 12 21  1  0
M  CHG  1   3  -1
M  END
>  <meeko>  (4) 
{"is_sidechain": [false], "free_energy": -6.016, "intermolecular_energy": -6.776, "internal_energy": -0.292}

$$$$
3n7a_ligand
     RDKit          3D

 21 21  0  0  0  0  0  0  0  0999 V2000
   19.2360   44.1520   11.7030 O   0  0  0  0  0  0  0  0  0  0  0  0
   20.3630   44.0070   12.2620 C   0  0  0  0  0  0  0  0  0  0  0  0
   20.8520   43.0060   12.8740 O   0  0  0  0  0  0  0  0  0  0  0  0
   21.3510   45.2380   12.1830 C   0  0  2  0  0  0  0  0  0  0  0  0
   21.5530   45.7440   13.5270 O   0  0  0  0  0  0  0  0  0  0  0  0
   20.6930   46.3410   11.4020 C   0  0  0  0  0  0  0  0  0  0  0  0
   21.0430   46.6660   10.1490 C   0  0  0  0  0  0  0  0  0  0  0  0
   22.0920   45.9410    9.3640 C   0  0  1  0  0  0  0  0  0  0  0  0
   23.0700   46.9230    9.0010 O   0  0  0  0  0  0  0  0  0  0  0  0
   22.7690   44.7480   10.0900 C   0  0  2  0  0  0  0  0  0  0  0  0
   22.2420   43.5050    9.6140 O   0  0  0  0  0  0  0  0  0  0  0  0
   22.7210   44.8440   11.6200 C   0  0  0  0  0  0  0  0  0  0  0  0
   22.3020   45.1800   13.8430 H   0  0  0  0  0  0  0  0  0  0  0  0
   19.8836   46.9102   11.8825 H   0  0  0  0  0  0  0  0  0  0  0  0
   20.5303   47.5135    9.6705 H   0  0  0  0  0  0  0  0  0  0  0  0
   21.6019   45.4713    8.4985 H   0  0  0  0  0  0  0  0  0  0  0  0
   22.7020   47.7760    9.2830 H   0  0  0  0  0  0  0  0  0  0  0  0
   23.8386   44.7954    9.8375 H   0  0  0  0  0  0  0  0  0  0  0  0
   21.6140   43.7150    8.8690 H   0  0  0  0  0  0  0  0  0  0  0  0
   22.9956   43.8633   12.0358 H   0  0  0  0  0  0  0  0  0  0  0  0
   23.4220   45.6411   11.9084 H   0  0  0  0  0  0  0  0  0  0  0  0
  1  2  2  0
  2  3  1  0
  2  4  1  0
  4  5  1  1
  4  6  1  0
  6  7  2  0
  7  8  1  0
  8  9  1  0
  8 10  1  0
 10 11  1  0
 10 12  1  0
 12  4  1  0
  5 13  1  0
  6 14  1  0
  7 15  1  0
  8 16  1  6
  9 17  1  0
 10 18  1  6
 11 19  1  0
 12 20  1  0
 12 21  1  0
M  CHG  1   3  -1
M  END
>  <meeko>  (5) 
{"is_sidechain": [false], "free_energy": -6.006, "intermolecular_energy": -6.899, "internal_energy": -0.158}

$$$$
3n7a_ligand
     RDKit          3D

 21 21  0  0  0  0  0  0  0  0999 V2000
   18.7770   46.6140    3.0200 O   0  0  0  0  0  0  0  0  0  0  0  0
   19.9970   46.9490    3.0730 C   0  0  0  0  0  0  0  0  0  0  0  0
   20.5510   47.9390    3.6470 O   0  0  0  0  0  0  0  0  0  0  0  0
   21.0220   45.9930    2.3430 C   0  0  2  0  0  0  0  0  0  0  0  0
   20.9160   46.2210    0.9150 O   0  0  0  0  0  0  0  0  0  0  0  0
   20.6120   44.5660    2.5820 C   0  0  0  0  0  0  0  0  0  0  0  0
   21.2630   43.7430    3.4170 C   0  0  0  0  0  0  0  0  0  0  0  0
   22.4400   44.1580    4.2440 C   0  0  1  0  0  0  0  0  0  0  0  0
   23.5130   43.2820    3.8800 O   0  0  0  0  0  0  0  0  0  0  0  0
   22.8780   45.6390    4.0920 C   0  0  2  0  0  0  0  0  0  0  0  0
   22.4340   46.4130    5.2120 O   0  0  0  0  0  0  0  0  0  0  0  0
   22.4700   46.2740    2.7570 C   0  0  0  0  0  0  0  0  0  0  0  0
   19.9650   46.4780    0.8240 H   0  0  0  0  0  0  0  0  0  0  0  0
   19.7340   44.1778    2.0449 H   0  0  0  0  0  0  0  0  0  0  0  0
   20.9122   42.7037    3.4990 H   0  0  0  0  0  0  0  0  0  0  0  0
   22.1528   44.0813    5.3031 H   0  0  0  0  0  0  0  0  0  0  0  0
   23.2810   42.9330    3.0030 H   0  0  0  0  0  0  0  0  0  0  0  0
   23.9779   45.6387    4.0797 H   0  0  0  0  0  0  0  0  0  0  0  0
   23.0660   46.2390    5.9620 H   0  0  0  0  0  0  0  0  0  0  0  0
   22.5998   47.3632    2.8394 H   0  0  0  0  0  0  0  0  0  0  0  0
   23.1118   45.8248    1.9848 H   0  0  0  0  0  0  0  0  0  0  0  0
  1  2  2  0
  2  3  1  0
  2  4  1  0
  4  5  1  6
  4  6  1  0
  6  7  2  0
  7  8  1  0
  8  9  1  0
  8 10  1  0
 10 11  1  0
 10 12  1  0
 12  4  1  0
  5 13  1  0
  6 14  1  0
  7 15  1  0
  8 16  1  1
  9 17  1  0
 10 18  1  6
 11 19  1  0
 12 20  1  0
 12 21  1  0
M  CHG  1   3  -1
M  END
>  <meeko>  (6) 
{"is_sidechain": [false], "free_energy": -5.888, "intermolecular_energy": -6.684, "internal_energy": -0.237}

$$$$
3n7a_ligand
     RDKit          3D

 21 21  0  0  0  0  0  0  0  0999 V2000
   20.3340   43.7260    3.0120 O   0  0  0  0  0  0  0  0  0  0  0  0
   21.5510   43.5930    3.3360 C   0  0  0  0  0  0  0  0  0  0  0  0
   22.2890   42.5570    3.3420 O   0  0  0  0  0  0  0  0  0  0  0  0
   22.3080   44.9060    3.7850 C   0  0  2  0  0  0  0  0  0  0  0  0
   23.6560   44.5400    4.1760 O   0  0  0  0  0  0  0  0  0  0  0  0
   21.6380   45.4580    5.0120 C   0  0  0  0  0  0  0  0  0  0  0  0
   20.8640   46.5530    4.9990 C   0  0  0  0  0  0  0  0  0  0  0  0
   20.5350   47.3230    3.7590 C   0  0  1  0  0  0  0  0  0  0  0  0
   20.9850   48.6640    3.9900 O   0  0  0  0  0  0  0  0  0  0  0  0
   21.1440   46.7700    2.4430 C   0  0  2  0  0  0  0  0  0  0  0  0
   20.1530   46.0670    1.6860 O   0  0  0  0  0  0  0  0  0  0  0  0
   22.4110   45.9300    2.6510 C   0  0  0  0  0  0  0  0  0  0  0  0
   23.5240   43.6170    4.5070 H   0  0  0  0  0  0  0  0  0  0  0  0
   21.7903   44.9375    5.9690 H   0  0  0  0  0  0  0  0  0  0  0  0
   20.4473   46.9051    5.9542 H   0  0  0  0  0  0  0  0  0  0  0  0
   19.4503   47.2472    3.5928 H   0  0  0  0  0  0  0  0  0  0  0  0
   20.8110   48.8400    4.9290 H   0  0  0  0  0  0  0  0  0  0  0  0
   21.4752   47.6428    1.8612 H   0  0  0  0  0  0  0  0  0  0  0  0
   19.9930   46.5870    0.8520 H   0  0  0  0  0  0  0  0  0  0  0  0
   22.6234   45.3895    1.7168 H   0  0  0  0  0  0  0  0  0  0  0  0
   23.2116   46.6307    2.9305 H   0  0  0  0  0  0  0  0  0  0  0  0
  1  2  2  0
  2  3  1  0
  2  4  1  0
  4  5  1  1
  4  6  1  0
  6  7  2  0
  7  8  1  0
  8  9  1  0
  8 10  1  0
 10 11  1  0
 10 12  1  0
 12  4  1  0
  5 13  1  0
  6 14  1  0
  7 15  1  0
  8 16  1  6
  9 17  1  0
 10 18  1  6
 11 19  1  0
 12 20  1  0
 12 21  1  0
M  CHG  1   3  -1
M  END
>  <meeko>  (7) 
{"is_sidechain": [false], "free_energy": -5.73, "intermolecular_energy": -6.599, "internal_energy": -0.141}

$$$$
3n7a_ligand
     RDKit          3D

 21 21  0  0  0  0  0  0  0  0999 V2000
   22.6600   46.7660    2.4460 O   0  0  0  0  0  0  0  0  0  0  0  0
   21.6240   46.0850    2.1880 C   0  0  0  0  0  0  0  0  0  0  0  0
   21.0300   45.8830    1.0830 O   0  0  0  0  0  0  0  0  0  0  0  0
   20.9550   45.3320    3.4070 C   0  0  2  0  0  0  0  0  0  0  0  0
   19.5820   45.0280    3.0520 O   0  0  0  0  0  0  0  0  0  0  0  0
   20.8990   46.2660    4.5830 C   0  0  0  0  0  0  0  0  0  0  0  0
   21.7030   46.1560    5.6510 C   0  0  0  0  0  0  0  0  0  0  0  0
   22.7810   45.1250    5.7750 C   0  0  1  0  0  0  0  0  0  0  0  0
   22.4890   44.3820    6.9650 O   0  0  0  0  0  0  0  0  0  0  0  0
   22.9360   44.1660    4.5660 C   0  0  2  0  0  0  0  0  0  0  0  0
   24.0610   44.5440    3.7650 O   0  0  0  0  0  0  0  0  0  0  0  0
   21.6610   44.0110    3.7280 C   0  0  0  0  0  0  0  0  0  0  0  0
   19.0840   45.6730    3.6120 H   0  0  0  0  0  0  0  0  0  0  0  0
   20.1610   47.0815    4.5671 H   0  0  0  0  0  0  0  0  0  0  0  0
   21.5623   46.8628    6.4820 H   0  0  0  0  0  0  0  0  0  0  0  0
   23.7468   45.6501    5.8124 H   0  0  0  0  0  0  0  0  0  0  0  0
   21.8190   44.9020    7.4400 H   0  0  0  0  0  0  0  0  0  0  0  0
   23.1224   43.1657    4.9838 H   0  0  0  0  0  0  0  0  0  0  0  0
   23.7240   44.7210    2.8440 H   0  0  0  0  0  0  0  0  0  0  0  0
   21.9293   43.5239    2.7789 H   0  0  0  0  0  0  0  0  0  0  0  0
   20.9584   43.4156    4.3295 H   0  0  0  0  0  0  0  0  0  0  0  0
  1  2  2  0
  2  3  1  0
  2  4  1  0
  4  5  1  6
  4  6  1  0
  6  7  2  0
  7  8  1  0
  8  9  1  0
  8 10  1  0
 10 11  1  0
 10 12  1  0
 12  4  1  0
  5 13  1  0
  6 14  1  0
  7 15  1  0
  8 16  1  1
  9 17  1  0
 10 18  1  1
 11 19  1  0
 12 20  1  0
 12 21  1  0
M  CHG  1   3  -1
M  END
>  <meeko>  (8) 
{"is_sidechain": [false], "free_energy": -5.489, "intermolecular_energy": -6.203, "internal_energy": -0.26}

$$$$
3n7a_ligand
     RDKit          3D

 21 21  0  0  0  0  0  0  0  0999 V2000
   21.2690   44.1020    3.0560 O   0  0  0  0  0  0  0  0  0  0  0  0
   22.0040   43.4850    3.8810 C   0  0  0  0  0  0  0  0  0  0  0  0
   21.9550   42.2790    4.2800 O   0  0  0  0  0  0  0  0  0  0  0  0
   23.1960   44.3070    4.5150 C   0  0  2  0  0  0  0  0  0  0  0  0
   24.4230   43.9100    3.8520 O   0  0  0  0  0  0  0  0  0  0  0  0
   23.3410   43.9180    5.9600 C   0  0  0  0  0  0  0  0  0  0  0  0
   22.9650   44.7070    6.9770 C   0  0  0  0  0  0  0  0  0  0  0  0
   22.3140   46.0420    6.7950 C   0  0  1  0  0  0  0  0  0  0  0  0
   23.1510   46.9910    7.4670 O   0  0  0  0  0  0  0  0  0  0  0  0
   22.0760   46.4790    5.3250 C   0  0  2  0  0  0  0  0  0  0  0  0
   20.7020   46.3010    4.9630 O   0  0  0  0  0  0  0  0  0  0  0  0
   23.0250   45.8170    4.3190 C   0  0  0  0  0  0  0  0  0  0  0  0
   24.0870   43.2720    3.1750 H   0  0  0  0  0  0  0  0  0  0  0  0
   23.7778   42.9362    6.1950 H   0  0  0  0  0  0  0  0  0  0  0  0
   23.1453   44.3529    8.0027 H   0  0  0  0  0  0  0  0  0  0  0  0
   21.2984   45.9812    7.2132 H   0  0  0  0  0  0  0  0  0  0  0  0
   23.3380   47.6840    6.8130 H   0  0  0  0  0  0  0  0  0  0  0  0
   22.3157   47.5515    5.2760 H   0  0  0  0  0  0  0  0  0  0  0  0
   20.4130   45.4170    5.3210 H   0  0  0  0  0  0  0  0  0  0  0  0
   22.6305   45.9908    3.3070 H   0  0  0  0  0  0  0  0  0  0  0  0
   24.0154   46.2696    4.4745 H   0  0  0  0  0  0  0  0  0  0  0  0
  1  2  2  0
  2  3  1  0
  2  4  1  0
  4  5  1  6
  4  6  1  0
  6  7  2  0
  7  8  1  0
  8  9  1  0
  8 10  1  0
 10 11  1  0
 10 12  1  0
 12  4  1  0
  5 13  1  0
  6 14  1  0
  7 15  1  0
  8 16  1  1
  9 17  1  0
 10 18  1  1
 11 19  1  0
 12 20  1  0
 12 21  1  0
M  CHG  1   3  -1
M  END
>  <meeko>  (9) 
{"is_sidechain": [false], "free_energy": -5.263, "intermolecular_energy": -5.926, "internal_energy": -0.279}

$$$$
