3ueu_ligand
     RDKit          3D

 37 36  0  0  0  0  0  0  0  0999 V2000
   -3.6480   18.7660   15.6760 C   0  0  0  0  0  0  0  0  0  0  0  0
   -4.3290   17.6070   16.3890 C   0  0  0  0  0  0  0  0  0  0  0  0
   -3.4310   17.0190   17.4770 C   0  0  0  0  0  0  0  0  0  0  0  0
   -2.4850   15.9270   16.9660 C   0  0  0  0  0  0  0  0  0  0  0  0
   -1.6730   15.2590   18.0790 C   0  0  0  0  0  0  0  0  0  0  0  0
   -1.9070   13.7480   18.1790 C   0  0  0  0  0  0  0  0  0  0  0  0
   -3.3330   13.2670   17.8950 C   0  0  0  0  0  0  0  0  0  0  0  0
   -3.4740   11.7420   17.8920 C   0  0  0  0  0  0  0  0  0  0  0  0
   -2.3610   11.0850   18.7140 C   0  0  0  0  0  0  0  0  0  0  0  0
   -2.7070   10.9370   20.1990 C   0  0  0  0  0  0  0  0  0  0  0  0
   -4.1600   10.5420   20.4480 C   0  0  0  0  0  0  0  0  0  0  0  0
   -4.5590   10.4410   21.9240 C   0  0  0  0  0  0  0  0  0  0  0  0
   -5.4210    9.5460   22.1650 O   0  0  0  0  0  0  0  0  0  0  0  0
   -4.0020   11.2470   22.7190 O   0  0  0  0  0  0  0  0  0  0  0  0
   -3.2377   19.4643   16.4204 H   0  0  0  0  0  0  0  0  0  0  0  0
   -2.8326   18.3808   15.0461 H   0  0  0  0  0  0  0  0  0  0  0  0
   -4.3814   19.2908   15.0461 H   0  0  0  0  0  0  0  0  0  0  0  0
   -5.2607   17.9674   16.8495 H   0  0  0  0  0  0  0  0  0  0  0  0
   -4.5391   16.8201   15.6497 H   0  0  0  0  0  0  0  0  0  0  0  0
   -2.8256   17.8314   17.9053 H   0  0  0  0  0  0  0  0  0  0  0  0
   -4.0907   16.5519   18.2230 H   0  0  0  0  0  0  0  0  0  0  0  0
   -3.0836   15.1555   16.4596 H   0  0  0  0  0  0  0  0  0  0  0  0
   -1.7685   16.4095   16.2849 H   0  0  0  0  0  0  0  0  0  0  0  0
   -0.6046   15.4344   17.8847 H   0  0  0  0  0  0  0  0  0  0  0  0
   -2.0003   15.7023   19.0310 H   0  0  0  0  0  0  0  0  0  0  0  0
   -1.2366   13.2557   17.4592 H   0  0  0  0  0  0  0  0  0  0  0  0
   -1.7109   13.4874   19.2296 H   0  0  0  0  0  0  0  0  0  0  0  0
   -3.9992   13.6768   18.6685 H   0  0  0  0  0  0  0  0  0  0  0  0
   -3.5983   13.6185   16.8870 H   0  0  0  0  0  0  0  0  0  0  0  0
   -4.4483   11.4702   18.3242 H   0  0  0  0  0  0  0  0  0  0  0  0
   -3.3993   11.3857   16.8540 H   0  0  0  0  0  0  0  0  0  0  0  0
   -2.1661   10.0846   18.3001 H   0  0  0  0  0  0  0  0  0  0  0  0
   -1.4801   11.7407   18.6499 H   0  0  0  0  0  0  0  0  0  0  0  0
   -2.0564   10.1634   20.6329 H   0  0  0  0  0  0  0  0  0  0  0  0
   -2.5539   11.9206   20.6670 H   0  0  0  0  0  0  0  0  0  0  0  0
   -4.8049   11.2945   19.9707 H   0  0  0  0  0  0  0  0  0  0  0  0
   -4.2812    9.5331   20.0267 H   0  0  0  0  0  0  0  0  0  0  0  0
  1  2  1  0
  2  3  1  0
  3  4  1  0
  4  5  1  0
  5  6  1  0
  6  7  1  0
  7  8  1  0
  8  9  1  0
  9 10  1  0
 10 11  1  0
 11 12  1  0
 12 13  2  0
 12 14  1  0
  1 15  1  0
  1 16  1  0
  1 17  1  0
  2 18  1  0
  2 19  1  0
  3 20  1  0
  3 21  1  0
  4 22  1  0
  4 23  1  0
  5 24  1  0
  5 25  1  0
  6 26  1  0
  6 27  1  0
  7 28  1  0
  7 29  1  0
  8 30  1  0
  8 31  1  0
  9 32  1  0
  9 33  1  0
 10 34  1  0
 10 35  1  0
 11 36  1  0
 11 37  1  0
M  CHG  1  14  -1
M  END
>  <meeko>  (1) 
{"is_sidechain": [false], "free_energy": -6.365, "intermolecular_energy": -10.087, "internal_energy": -0.497}

$$$$
3ueu_ligand
     RDKit          3D

 37 36  0  0  0  0  0  0  0  0999 V2000
   -4.1580   17.6230   16.5230 C   0  0  0  0  0  0  0  0  0  0  0  0
   -3.1370   17.1240   17.5340 C   0  0  0  0  0  0  0  0  0  0  0  0
   -2.6450   15.7210   17.1810 C   0  0  0  0  0  0  0  0  0  0  0  0
   -1.6550   15.1460   18.2010 C   0  0  0  0  0  0  0  0  0  0  0  0
   -1.9070   13.6720   18.5250 C   0  0  0  0  0  0  0  0  0  0  0  0
   -3.1430   13.0960   17.8240 C   0  0  0  0  0  0  0  0  0  0  0  0
   -3.3630   11.5880   17.9790 C   0  0  0  0  0  0  0  0  0  0  0  0
   -2.2270   10.8780   18.7190 C   0  0  0  0  0  0  0  0  0  0  0  0
   -2.7750    9.9400   19.7980 C   0  0  0  0  0  0  0  0  0  0  0  0
   -4.0400   10.4680   20.4800 C   0  0  0  0  0  0  0  0  0  0  0  0
   -3.7780   11.0830   21.8530 C   0  0  0  0  0  0  0  0  0  0  0  0
   -4.7700   10.6720   22.9460 C   0  0  0  0  0  0  0  0  0  0  0  0
   -5.3580   11.6450   23.5020 O   0  0  0  0  0  0  0  0  0  0  0  0
   -4.8860    9.4360   23.1720 O   0  0  0  0  0  0  0  0  0  0  0  0
   -5.0234   18.0460   17.0541 H   0  0  0  0  0  0  0  0  0  0  0  0
   -3.7001   18.3989   15.8919 H   0  0  0  0  0  0  0  0  0  0  0  0
   -4.4888   16.7850   15.8919 H   0  0  0  0  0  0  0  0  0  0  0  0
   -2.2789   17.8121   17.5459 H   0  0  0  0  0  0  0  0  0  0  0  0
   -3.6182   17.0844   18.5224 H   0  0  0  0  0  0  0  0  0  0  0  0
   -3.5153   15.0507   17.1243 H   0  0  0  0  0  0  0  0  0  0  0  0
   -2.1136   15.7963   16.2208 H   0  0  0  0  0  0  0  0  0  0  0  0
   -0.6378   15.2450   17.7943 H   0  0  0  0  0  0  0  0  0  0  0  0
   -1.7849   15.7116   19.1354 H   0  0  0  0  0  0  0  0  0  0  0  0
   -1.0267   13.0911   18.2125 H   0  0  0  0  0  0  0  0  0  0  0  0
   -2.0874   13.6043   19.6080 H   0  0  0  0  0  0  0  0  0  0  0  0
   -4.0283   13.6083   18.2286 H   0  0  0  0  0  0  0  0  0  0  0  0
   -2.9778   13.2620   16.7492 H   0  0  0  0  0  0  0  0  0  0  0  0
   -4.2965   11.4281   18.5385 H   0  0  0  0  0  0  0  0  0  0  0  0
   -3.4054   11.1615   16.9659 H   0  0  0  0  0  0  0  0  0  0  0  0
   -1.6393   10.2914   17.9975 H   0  0  0  0  0  0  0  0  0  0  0  0
   -1.5963   11.6379   19.2035 H   0  0  0  0  0  0  0  0  0  0  0  0
   -3.0090    8.9716   19.3316 H   0  0  0  0  0  0  0  0  0  0  0  0
   -2.0009    9.8523   20.5746 H   0  0  0  0  0  0  0  0  0  0  0  0
   -4.4894   11.2365   19.8339 H   0  0  0  0  0  0  0  0  0  0  0  0
   -4.7095    9.6085   20.6319 H   0  0  0  0  0  0  0  0  0  0  0  0
   -2.7705   10.7814   22.1755 H   0  0  0  0  0  0  0  0  0  0  0  0
   -3.8895   12.1703   21.7294 H   0  0  0  0  0  0  0  0  0  0  0  0
  1  2  1  0
  2  3  1  0
  3  4  1  0
  4  5  1  0
  5  6  1  0
  6  7  1  0
  7  8  1  0
  8  9  1  0
  9 10  1  0
 10 11  1  0
 11 12  1  0
 12 13  2  0
 12 14  1  0
  1 15  1  0
  1 16  1  0
  1 17  1  0
  2 18  1  0
  2 19  1  0
  3 20  1  0
  3 21  1  0
  4 22  1  0
  4 23  1  0
  5 24  1  0
  5 25  1  0
  6 26  1  0
  6 27  1  0
  7 28  1  0
  7 29  1  0
  8 30  1  0
  8 31  1  0
  9 32  1  0
  9 33  1  0
 10 34  1  0
 10 35  1  0
 11 36  1  0
 11 37  1  0
M  CHG  1  14  -1
M  END
>  <meeko>  (2) 
{"is_sidechain": [false], "free_energy": -6.229, "intermolecular_energy": -9.704, "internal_energy": -0.663}

$$$$
3ueu_ligand
     RDKit          3D

 37 36  0  0  0  0  0  0  0  0999 V2000
   -4.9440   11.1860   23.4960 C   0  0  0  0  0  0  0  0  0  0  0  0
   -4.5760   10.0390   22.5670 C   0  0  0  0  0  0  0  0  0  0  0  0
   -4.6260   10.4710   21.1010 C   0  0  0  0  0  0  0  0  0  0  0  0
   -3.4470    9.9540   20.2710 C   0  0  0  0  0  0  0  0  0  0  0  0
   -2.7360   11.0540   19.4790 C   0  0  0  0  0  0  0  0  0  0  0  0
   -3.5590   11.5880   18.3010 C   0  0  0  0  0  0  0  0  0  0  0  0
   -3.3110   13.0490   17.9140 C   0  0  0  0  0  0  0  0  0  0  0  0
   -1.9260   13.5610   18.3180 C   0  0  0  0  0  0  0  0  0  0  0  0
   -1.8800   15.0910   18.3110 C   0  0  0  0  0  0  0  0  0  0  0  0
   -2.5500   15.7140   17.0820 C   0  0  0  0  0  0  0  0  0  0  0  0
   -3.1150   17.1090   17.3400 C   0  0  0  0  0  0  0  0  0  0  0  0
   -3.9170   17.7080   16.1800 C   0  0  0  0  0  0  0  0  0  0  0  0
   -4.6740   16.8790   15.5950 O   0  0  0  0  0  0  0  0  0  0  0  0
   -3.7350   18.9320   15.9370 O   0  0  0  0  0  0  0  0  0  0  0  0
   -4.8392   10.8594   24.5412 H   0  0  0  0  0  0  0  0  0  0  0  0
   -4.2742   12.0384   23.3093 H   0  0  0  0  0  0  0  0  0  0  0  0
   -5.9847   11.4896   23.3093 H   0  0  0  0  0  0  0  0  0  0  0  0
   -3.5577    9.6980   22.8052 H   0  0  0  0  0  0  0  0  0  0  0  0
   -5.3036    9.2272   22.7139 H   0  0  0  0  0  0  0  0  0  0  0  0
   -5.5577   10.0900   20.6574 H   0  0  0  0  0  0  0  0  0  0  0  0
   -4.5753   11.5697   21.0856 H   0  0  0  0  0  0  0  0  0  0  0  0
   -2.7192    9.4873   20.9511 H   0  0  0  0  0  0  0  0  0  0  0  0
   -3.8515    9.2368   19.5416 H   0  0  0  0  0  0  0  0  0  0  0  0
   -2.5204   11.8900   20.1606 H   0  0  0  0  0  0  0  0  0  0  0  0
   -1.8205   10.6110   19.0599 H   0  0  0  0  0  0  0  0  0  0  0  0
   -3.3332   10.9647   17.4232 H   0  0  0  0  0  0  0  0  0  0  0  0
   -4.6081   11.5428   18.6286 H   0  0  0  0  0  0  0  0  0  0  0  0
   -3.4119   13.1420   16.8226 H   0  0  0  0  0  0  0  0  0  0  0  0
   -4.0512   13.6571   18.4547 H   0  0  0  0  0  0  0  0  0  0  0  0
   -1.6904   13.1992   19.3297 H   0  0  0  0  0  0  0  0  0  0  0  0
   -1.1896   13.1862   17.5919 H   0  0  0  0  0  0  0  0  0  0  0  0
   -2.3925   15.4594   19.2119 H   0  0  0  0  0  0  0  0  0  0  0  0
   -0.8200   15.3840   18.2867 H   0  0  0  0  0  0  0  0  0  0  0  0
   -1.8044   15.7835   16.2763 H   0  0  0  0  0  0  0  0  0  0  0  0
   -3.3967   15.0662   16.8109 H   0  0  0  0  0  0  0  0  0  0  0  0
   -3.7753   17.0526   18.2180 H   0  0  0  0  0  0  0  0  0  0  0  0
   -2.2477   17.7694   17.4871 H   0  0  0  0  0  0  0  0  0  0  0  0
  1  2  1  0
  2  3  1  0
  3  4  1  0
  4  5  1  0
  5  6  1  0
  6  7  1  0
  7  8  1  0
  8  9  1  0
  9 10  1  0
 10 11  1  0
 11 12  1  0
 12 13  2  0
 12 14  1  0
  1 15  1  0
  1 16  1  0
  1 17  1  0
  2 18  1  0
  2 19  1  0
  3 20  1  0
  3 21  1  0
  4 22  1  0
  4 23  1  0
  5 24  1  0
  5 25  1  0
  6 26  1  0
  6 27  1  0
  7 28  1  0
  7 29  1  0
  8 30  1  0
  8 31  1  0
  9 32  1  0
  9 33  1  0
 10 34  1  0
 10 35  1  0
 11 36  1  0
 11 37  1  0
M  CHG  1  14  -1
M  END
>  <meeko>  (3) 
{"is_sidechain": [false], "free_energy": -6.209, "intermolecular_energy": -9.9, "internal_energy": -0.435}

$$$$
3ueu_ligand
     RDKit          3D

 37 36  0  0  0  0  0  0  0  0999 V2000
   -3.7190   18.7310   15.7220 C   0  0  0  0  0  0  0  0  0  0  0  0
   -4.2180   17.5650   16.5610 C   0  0  0  0  0  0  0  0  0  0  0  0
   -3.1600   17.1090   17.5670 C   0  0  0  0  0  0  0  0  0  0  0  0
   -2.4070   15.8480   17.1320 C   0  0  0  0  0  0  0  0  0  0  0  0
   -1.6290   15.1840   18.2720 C   0  0  0  0  0  0  0  0  0  0  0  0
   -1.8590   13.6720   18.3670 C   0  0  0  0  0  0  0  0  0  0  0  0
   -3.2100   13.1630   17.8560 C   0  0  0  0  0  0  0  0  0  0  0  0
   -3.3390   11.6380   17.8850 C   0  0  0  0  0  0  0  0  0  0  0  0
   -1.9830   10.9750   18.1450 C   0  0  0  0  0  0  0  0  0  0  0  0
   -1.9860    9.4650   17.8930 C   0  0  0  0  0  0  0  0  0  0  0  0
   -3.0260    8.7130   18.7200 C   0  0  0  0  0  0  0  0  0  0  0  0
   -2.4510    7.7750   19.7870 C   0  0  0  0  0  0  0  0  0  0  0  0
   -1.2960    7.3330   19.5170 O   0  0  0  0  0  0  0  0  0  0  0  0
   -3.1780    7.5470   20.7920 O   0  0  0  0  0  0  0  0  0  0  0  0
   -3.3736   19.5382   16.3847 H   0  0  0  0  0  0  0  0  0  0  0  0
   -2.8855   18.3958   15.0872 H   0  0  0  0  0  0  0  0  0  0  0  0
   -4.5370   19.1025   15.0872 H   0  0  0  0  0  0  0  0  0  0  0  0
   -5.1203   17.8773   17.1072 H   0  0  0  0  0  0  0  0  0  0  0  0
   -4.4410   16.7242   15.8877 H   0  0  0  0  0  0  0  0  0  0  0  0
   -2.4309   17.9221   17.6982 H   0  0  0  0  0  0  0  0  0  0  0  0
   -3.6860   16.8656   18.5019 H   0  0  0  0  0  0  0  0  0  0  0  0
   -3.1360   15.1242   16.7387 H   0  0  0  0  0  0  0  0  0  0  0  0
   -1.6736   16.1525   16.3708 H   0  0  0  0  0  0  0  0  0  0  0  0
   -0.5556   15.3639   18.1125 H   0  0  0  0  0  0  0  0  0  0  0  0
   -1.9900   15.6267   19.2120 H   0  0  0  0  0  0  0  0  0  0  0  0
   -1.0700   13.1747   17.7838 H   0  0  0  0  0  0  0  0  0  0  0  0
   -1.8419   13.4373   19.4415 H   0  0  0  0  0  0  0  0  0  0  0  0
   -4.0040   13.5915   18.4852 H   0  0  0  0  0  0  0  0  0  0  0  0
   -3.2965   13.4749   16.8047 H   0  0  0  0  0  0  0  0  0  0  0  0
   -4.0381   11.3517   18.6845 H   0  0  0  0  0  0  0  0  0  0  0  0
   -3.7114   11.3001   16.9066 H   0  0  0  0  0  0  0  0  0  0  0  0
   -1.2361   11.4375   17.4829 H   0  0  0  0  0  0  0  0  0  0  0  0
   -1.7463   11.1262   19.2086 H   0  0  0  0  0  0  0  0  0  0  0  0
   -2.1953    9.2900   16.8274 H   0  0  0  0  0  0  0  0  0  0  0  0
   -0.9979    9.0846   18.1913 H   0  0  0  0  0  0  0  0  0  0  0  0
   -3.6618    9.4551   19.2250 H   0  0  0  0  0  0  0  0  0  0  0  0
   -3.5765    8.0741   18.0138 H   0  0  0  0  0  0  0  0  0  0  0  0
  1  2  1  0
  2  3  1  0
  3  4  1  0
  4  5  1  0
  5  6  1  0
  6  7  1  0
  7  8  1  0
  8  9  1  0
  9 10  1  0
 10 11  1  0
 11 12  1  0
 12 13  2  0
 12 14  1  0
  1 15  1  0
  1 16  1  0
  1 17  1  0
  2 18  1  0
  2 19  1  0
  3 20  1  0
  3 21  1  0
  4 22  1  0
  4 23  1  0
  5 24  1  0
  5 25  1  0
  6 26  1  0
  6 27  1  0
  7 28  1  0
  7 29  1  0
  8 30  1  0
  8 31  1  0
  9 32  1  0
  9 33  1  0
 10 34  1  0
 10 35  1  0
 11 36  1  0
 11 37  1  0
M  CHG  1  14  -1
M  END
>  <meeko>  (4) 
{"is_sidechain": [false], "free_energy": -6.147, "intermolecular_energy": -9.774, "internal_energy": -0.463}

$$$$
3ueu_ligand
     RDKit          3D

 37 36  0  0  0  0  0  0  0  0999 V2000
   -2.3560    7.0090   17.3110 C   0  0  0  0  0  0  0  0  0  0  0  0
   -1.9490    8.4020   17.7670 C   0  0  0  0  0  0  0  0  0  0  0  0
   -2.0160    8.5320   19.2880 C   0  0  0  0  0  0  0  0  0  0  0  0
   -3.2210    9.3410   19.7810 C   0  0  0  0  0  0  0  0  0  0  0  0
   -3.0310   10.8540   19.6460 C   0  0  0  0  0  0  0  0  0  0  0  0
   -3.8920   11.4800   18.5440 C   0  0  0  0  0  0  0  0  0  0  0  0
   -3.3220   12.7360   17.8770 C   0  0  0  0  0  0  0  0  0  0  0  0
   -2.0130   13.2210   18.5060 C   0  0  0  0  0  0  0  0  0  0  0  0
   -1.7020   14.6610   18.0890 C   0  0  0  0  0  0  0  0  0  0  0  0
   -2.8410   15.3310   17.3160 C   0  0  0  0  0  0  0  0  0  0  0  0
   -2.9430   16.8340   17.5660 C   0  0  0  0  0  0  0  0  0  0  0  0
   -3.9700   17.5660   16.6970 C   0  0  0  0  0  0  0  0  0  0  0  0
   -5.1290   17.0580   16.7290 O   0  0  0  0  0  0  0  0  0  0  0  0
   -3.5570   18.5700   16.0540 O   0  0  0  0  0  0  0  0  0  0  0  0
   -2.5413    6.3748   18.1905 H   0  0  0  0  0  0  0  0  0  0  0  0
   -3.2726    7.0743   16.7064 H   0  0  0  0  0  0  0  0  0  0  0  0
   -1.5484    6.5705   16.7064 H   0  0  0  0  0  0  0  0  0  0  0  0
   -0.9190    8.6004   17.4358 H   0  0  0  0  0  0  0  0  0  0  0  0
   -2.6473    9.1286   17.3261 H   0  0  0  0  0  0  0  0  0  0  0  0
   -2.0737    7.5226   19.7213 H   0  0  0  0  0  0  0  0  0  0  0  0
   -1.1121    9.0721   19.6063 H   0  0  0  0  0  0  0  0  0  0  0  0
   -4.1032    9.0462   19.1938 H   0  0  0  0  0  0  0  0  0  0  0  0
   -3.3438    9.1225   20.8520 H   0  0  0  0  0  0  0  0  0  0  0  0
   -3.2946   11.3253   20.6043 H   0  0  0  0  0  0  0  0  0  0  0  0
   -1.9793   11.0259   19.3732 H   0  0  0  0  0  0  0  0  0  0  0  0
   -4.0404   10.7214   17.7614 H   0  0  0  0  0  0  0  0  0  0  0  0
   -4.8191   11.8030   19.0401 H   0  0  0  0  0  0  0  0  0  0  0  0
   -3.1368   12.5131   16.8159 H   0  0  0  0  0  0  0  0  0  0  0  0
   -4.0624   13.5382   18.0117 H   0  0  0  0  0  0  0  0  0  0  0  0
   -2.1022   13.1754   19.6014 H   0  0  0  0  0  0  0  0  0  0  0  0
   -1.1961   12.5720   18.1575 H   0  0  0  0  0  0  0  0  0  0  0  0
   -1.5020   15.2508   18.9957 H   0  0  0  0  0  0  0  0  0  0  0  0
   -0.8323   14.6231   17.4166 H   0  0  0  0  0  0  0  0  0  0  0  0
   -2.6763   15.1669   16.2409 H   0  0  0  0  0  0  0  0  0  0  0  0
   -3.7807   14.8794   17.6668 H   0  0  0  0  0  0  0  0  0  0  0  0
   -3.2171   16.9868   18.6203 H   0  0  0  0  0  0  0  0  0  0  0  0
   -1.9617   17.2566   17.3045 H   0  0  0  0  0  0  0  0  0  0  0  0
  1  2  1  0
  2  3  1  0
  3  4  1  0
  4  5  1  0
  5  6  1  0
  6  7  1  0
  7  8  1  0
  8  9  1  0
  9 10  1  0
 10 11  1  0
 11 12  1  0
 12 13  2  0
 12 14  1  0
  1 15  1  0
  1 16  1  0
  1 17  1  0
  2 18  1  0
  2 19  1  0
  3 20  1  0
  3 21  1  0
  4 22  1  0
  4 23  1  0
  5 24  1  0
  5 25  1  0
  6 26  1  0
  6 27  1  0
  7 28  1  0
  7 29  1  0
  8 30  1  0
  8 31  1  0
  9 32  1  0
  9 33  1  0
 10 34  1  0
 10 35  1  0
 11 36  1  0
 11 37  1  0
M  CHG  1  14  -1
M  END
>  <meeko>  (5) 
{"is_sidechain": [false], "free_energy": -6.006, "intermolecular_energy": -9.472, "internal_energy": -0.542}

$$$$
3ueu_ligand
     RDKit          3D

 37 36  0  0  0  0  0  0  0  0999 V2000
   -4.2540   17.6870   16.4010 C   0  0  0  0  0  0  0  0  0  0  0  0
   -3.3780   17.2370   17.5600 C   0  0  0  0  0  0  0  0  0  0  0  0
   -2.5120   16.0380   17.1720 C   0  0  0  0  0  0  0  0  0  0  0  0
   -1.6280   15.5270   18.3130 C   0  0  0  0  0  0  0  0  0  0  0  0
   -1.6400   14.0020   18.4530 C   0  0  0  0  0  0  0  0  0  0  0  0
   -2.9130   13.3500   17.9020 C   0  0  0  0  0  0  0  0  0  0  0  0
   -3.1370   11.8840   18.2840 C   0  0  0  0  0  0  0  0  0  0  0  0
   -2.3120   11.4350   19.4930 C   0  0  0  0  0  0  0  0  0  0  0  0
   -2.0150    9.9340   19.4310 C   0  0  0  0  0  0  0  0  0  0  0  0
   -2.4170    9.2880   18.1010 C   0  0  0  0  0  0  0  0  0  0  0  0
   -1.7670    7.9270   17.8670 C   0  0  0  0  0  0  0  0  0  0  0  0
   -1.9150    6.9310   19.0220 C   0  0  0  0  0  0  0  0  0  0  0  0
   -3.0940    6.5000   19.1840 O   0  0  0  0  0  0  0  0  0  0  0  0
   -0.8690    6.6600   19.6750 O   0  0  0  0  0  0  0  0  0  0  0  0
   -5.1682   18.1566   16.7931 H   0  0  0  0  0  0  0  0  0  0  0  0
   -3.7033   18.4138   15.7858 H   0  0  0  0  0  0  0  0  0  0  0  0
   -4.5241   16.8160   15.7858 H   0  0  0  0  0  0  0  0  0  0  0  0
   -2.7237   18.0694   17.8584 H   0  0  0  0  0  0  0  0  0  0  0  0
   -4.0319   16.9369   18.3921 H   0  0  0  0  0  0  0  0  0  0  0  0
   -3.1738   15.2199   16.8514 H   0  0  0  0  0  0  0  0  0  0  0  0
   -1.8402   16.3716   16.3674 H   0  0  0  0  0  0  0  0  0  0  0  0
   -0.5940   15.8522   18.1259 H   0  0  0  0  0  0  0  0  0  0  0  0
   -2.0308   15.9430   19.2483 H   0  0  0  0  0  0  0  0  0  0  0  0
   -0.7757   13.5950   17.9077 H   0  0  0  0  0  0  0  0  0  0  0  0
   -1.5980   13.7744   19.5284 H   0  0  0  0  0  0  0  0  0  0  0  0
   -3.7734   13.9286   18.2695 H   0  0  0  0  0  0  0  0  0  0  0  0
   -2.7995   13.3569   16.8079 H   0  0  0  0  0  0  0  0  0  0  0  0
   -4.2026   11.7442   18.5183 H   0  0  0  0  0  0  0  0  0  0  0  0
   -2.8146   11.2736   17.4276 H   0  0  0  0  0  0  0  0  0  0  0  0
   -1.3618   11.9890   19.5053 H   0  0  0  0  0  0  0  0  0  0  0  0
   -2.8905   11.6393   20.4060 H   0  0  0  0  0  0  0  0  0  0  0  0
   -0.9350    9.7860   19.5780 H   0  0  0  0  0  0  0  0  0  0  0  0
   -2.6121    9.4522   20.2193 H   0  0  0  0  0  0  0  0  0  0  0  0
   -3.5093    9.1588   18.0923 H   0  0  0  0  0  0  0  0  0  0  0  0
   -2.0707    9.9555   17.2981 H   0  0  0  0  0  0  0  0  0  0  0  0
   -2.2231    7.4806   16.9711 H   0  0  0  0  0  0  0  0  0  0  0  0
   -0.6886    8.1158   17.7605 H   0  0  0  0  0  0  0  0  0  0  0  0
  1  2  1  0
  2  3  1  0
  3  4  1  0
  4  5  1  0
  5  6  1  0
  6  7  1  0
  7  8  1  0
  8  9  1  0
  9 10  1  0
 10 11  1  0
 11 12  1  0
 12 13  2  0
 12 14  1  0
  1 15  1  0
  1 16  1  0
  1 17  1  0
  2 18  1  0
  2 19  1  0
  3 20  1  0
  3 21  1  0
  4 22  1  0
  4 23  1  0
  5 24  1  0
  5 25  1  0
  6 26  1  0
  6 27  1  0
  7 28  1  0
  7 29  1  0
  8 30  1  0
  8 31  1  0
  9 32  1  0
  9 33  1  0
 10 34  1  0
 10 35  1  0
 11 36  1  0
 11 37  1  0
M  CHG  1  14  -1
M  END
>  <meeko>  (6) 
{"is_sidechain": [false], "free_energy": -5.813, "intermolecular_energy": -9.154, "internal_energy": -0.555}

$$$$
3ueu_ligand
     RDKit          3D

 37 36  0  0  0  0  0  0  0  0999 V2000
   -3.6010   16.7740   17.2090 C   0  0  0  0  0  0  0  0  0  0  0  0
   -2.3160   16.3770   17.9190 C   0  0  0  0  0  0  0  0  0  0  0  0
   -2.1070   14.8630   17.8860 C   0  0  0  0  0  0  0  0  0  0  0  0
   -3.3830   14.0760   17.5680 C   0  0  0  0  0  0  0  0  0  0  0  0
   -3.2510   12.5740   17.8360 C   0  0  0  0  0  0  0  0  0  0  0  0
   -2.0930   12.2230   18.7760 C   0  0  0  0  0  0  0  0  0  0  0  0
   -1.7040   10.7420   18.8390 C   0  0  0  0  0  0  0  0  0  0  0  0
   -1.9540    9.9890   17.5300 C   0  0  0  0  0  0  0  0  0  0  0  0
   -1.8990    8.4740   17.7470 C   0  0  0  0  0  0  0  0  0  0  0  0
   -2.0420    8.0640   19.2160 C   0  0  0  0  0  0  0  0  0  0  0  0
   -1.2750    6.7920   19.5680 C   0  0  0  0  0  0  0  0  0  0  0  0
   -2.1470    5.6100   20.0060 C   0  0  0  0  0  0  0  0  0  0  0  0
   -1.6180    4.8810   20.8950 O   0  0  0  0  0  0  0  0  0  0  0  0
   -3.2690    5.4930   19.4420 O   0  0  0  0  0  0  0  0  0  0  0  0
   -4.3734   17.0126   17.9550 H   0  0  0  0  0  0  0  0  0  0  0  0
   -3.4144   17.6564   16.5793 H   0  0  0  0  0  0  0  0  0  0  0  0
   -3.9446   15.9401   16.5793 H   0  0  0  0  0  0  0  0  0  0  0  0
   -1.4659   16.8668   17.4215 H   0  0  0  0  0  0  0  0  0  0  0  0
   -2.3881   16.6943   18.9698 H   0  0  0  0  0  0  0  0  0  0  0  0
   -1.3549   14.6321   17.1172 H   0  0  0  0  0  0  0  0  0  0  0  0
   -1.7822   14.5594   18.8922 H   0  0  0  0  0  0  0  0  0  0  0  0
   -4.2006   14.4709   18.1889 H   0  0  0  0  0  0  0  0  0  0  0  0
   -3.5822   14.1989   16.4932 H   0  0  0  0  0  0  0  0  0  0  0  0
   -4.1879   12.2169   18.2885 H   0  0  0  0  0  0  0  0  0  0  0  0
   -3.0441   12.0889   16.8707 H   0  0  0  0  0  0  0  0  0  0  0  0
   -1.2092   12.7894   18.4473 H   0  0  0  0  0  0  0  0  0  0  0  0
   -2.4428   12.4809   19.7865 H   0  0  0  0  0  0  0  0  0  0  0  0
   -0.6332   10.6732   19.0812 H   0  0  0  0  0  0  0  0  0  0  0  0
   -2.3364   10.2737   19.6076 H   0  0  0  0  0  0  0  0  0  0  0  0
   -2.9472   10.2608   17.1431 H   0  0  0  0  0  0  0  0  0  0  0  0
   -1.1697   10.2679   16.8109 H   0  0  0  0  0  0  0  0  0  0  0  0
   -2.7156    8.0099   17.1744 H   0  0  0  0  0  0  0  0  0  0  0  0
   -0.9088    8.1335   17.4099 H   0  0  0  0  0  0  0  0  0  0  0  0
   -1.6650    8.8838   19.8451 H   0  0  0  0  0  0  0  0  0  0  0  0
   -3.1082    7.8599   19.3938 H   0  0  0  0  0  0  0  0  0  0  0  0
   -0.7016    6.4830   18.6816 H   0  0  0  0  0  0  0  0  0  0  0  0
   -0.6421    7.0438   20.4317 H   0  0  0  0  0  0  0  0  0  0  0  0
  1  2  1  0
  2  3  1  0
  3  4  1  0
  4  5  1  0
  5  6  1  0
  6  7  1  0
  7  8  1  0
  8  9  1  0
  9 10  1  0
 10 11  1  0
 11 12  1  0
 12 13  2  0
 12 14  1  0
  1 15  1  0
  1 16  1  0
  1 17  1  0
  2 18  1  0
  2 19  1  0
  3 20  1  0
  3 21  1  0
  4 22  1  0
  4 23  1  0
  5 24  1  0
  5 25  1  0
  6 26  1  0
  6 27  1  0
  7 28  1  0
  7 29  1  0
  8 30  1  0
  8 31  1  0
  9 32  1  0
  9 33  1  0
 10 34  1  0
 10 35  1  0
 11 36  1  0
 11 37  1  0
M  CHG  1  14  -1
M  END
>  <meeko>  (7) 
{"is_sidechain": [false], "free_energy": -5.737, "intermolecular_energy": -9.036, "internal_energy": -0.553}

$$$$
3ueu_ligand
     RDKit          3D

 37 36  0  0  0  0  0  0  0  0999 V2000
   -4.1810   17.5630   16.5470 C   0  0  0  0  0  0  0  0  0  0  0  0
   -3.0780   16.5160   16.5150 C   0  0  0  0  0  0  0  0  0  0  0  0
   -2.9120   15.8400   17.8760 C   0  0  0  0  0  0  0  0  0  0  0  0
   -1.5610   15.1380   18.0480 C   0  0  0  0  0  0  0  0  0  0  0  0
   -1.6900   13.6620   18.4340 C   0  0  0  0  0  0  0  0  0  0  0  0
   -2.9860   13.0130   17.9340 C   0  0  0  0  0  0  0  0  0  0  0  0
   -3.1270   11.5100   18.1910 C   0  0  0  0  0  0  0  0  0  0  0  0
   -1.7860   10.7860   18.3370 C   0  0  0  0  0  0  0  0  0  0  0  0
   -1.6570    9.6530   17.3150 C   0  0  0  0  0  0  0  0  0  0  0  0
   -1.6830    8.2580   17.9470 C   0  0  0  0  0  0  0  0  0  0  0  0
   -2.5050    7.2470   17.1520 C   0  0  0  0  0  0  0  0  0  0  0  0
   -2.2170    5.7780   17.4790 C   0  0  0  0  0  0  0  0  0  0  0  0
   -2.0650    5.5450   18.7140 O   0  0  0  0  0  0  0  0  0  0  0  0
   -2.1600    4.9800   16.5040 O   0  0  0  0  0  0  0  0  0  0  0  0
   -4.4310   17.8004   17.5916 H   0  0  0  0  0  0  0  0  0  0  0  0
   -3.8365   18.4743   16.0363 H   0  0  0  0  0  0  0  0  0  0  0  0
   -5.0731   17.1715   16.0363 H   0  0  0  0  0  0  0  0  0  0  0  0
   -3.3307   15.7525   15.7645 H   0  0  0  0  0  0  0  0  0  0  0  0
   -2.1325   17.0165   16.2591 H   0  0  0  0  0  0  0  0  0  0  0  0
   -3.0088   16.6060   18.6595 H   0  0  0  0  0  0  0  0  0  0  0  0
   -3.6907   15.0667   17.9507 H   0  0  0  0  0  0  0  0  0  0  0  0
   -1.0101   15.2036   17.0982 H   0  0  0  0  0  0  0  0  0  0  0  0
   -1.0330   15.6445   18.8694 H   0  0  0  0  0  0  0  0  0  0  0  0
   -0.8378   13.1138   18.0059 H   0  0  0  0  0  0  0  0  0  0  0  0
   -1.7056   13.6138   19.5328 H   0  0  0  0  0  0  0  0  0  0  0  0
   -3.8283   13.5193   18.4281 H   0  0  0  0  0  0  0  0  0  0  0  0
   -2.9715   13.1266   16.8400 H   0  0  0  0  0  0  0  0  0  0  0  0
   -3.7019   11.3679   19.1180 H   0  0  0  0  0  0  0  0  0  0  0  0
   -3.6335   11.0785   17.3150 H   0  0  0  0  0  0  0  0  0  0  0  0
   -0.9698   11.5064   18.1796 H   0  0  0  0  0  0  0  0  0  0  0  0
   -1.7306   10.3535   19.3469 H   0  0  0  0  0  0  0  0  0  0  0  0
   -2.4921    9.7289   16.6030 H   0  0  0  0  0  0  0  0  0  0  0  0
   -0.6798    9.7687   16.8234 H   0  0  0  0  0  0  0  0  0  0  0  0
   -0.6495    7.8882   18.0180 H   0  0  0  0  0  0  0  0  0  0  0  0
   -2.1579    8.3578   18.9342 H   0  0  0  0  0  0  0  0  0  0  0  0
   -3.5693    7.4390   17.3531 H   0  0  0  0  0  0  0  0  0  0  0  0
   -2.2276    7.3871   16.0968 H   0  0  0  0  0  0  0  0  0  0  0  0
  1  2  1  0
  2  3  1  0
  3  4  1  0
  4  5  1  0
  5  6  1  0
  6  7  1  0
  7  8  1  0
  8  9  1  0
  9 10  1  0
 10 11  1  0
 11 12  1  0
 12 13  2  0
 12 14  1  0
  1 15  1  0
  1 16  1  0
  1 17  1  0
  2 18  1  0
  2 19  1  0
  3 20  1  0
  3 21  1  0
  4 22  1  0
  4 23  1  0
  5 24  1  0
  5 25  1  0
  6 26  1  0
  6 27  1  0
  7 28  1  0
  7 29  1  0
  8 30  1  0
  8 31  1  0
  9 32  1  0
  9 33  1  0
 10 34  1  0
 10 35  1  0
 11 36  1  0
 11 37  1  0
M  CHG  1  14  -1
M  END
>  <meeko>  (8) 
{"is_sidechain": [false], "free_energy": -5.667, "intermolecular_energy": -9.069, "internal_energy": -0.408}

$$$$
3ueu_ligand
     RDKit          3D

 37 36  0  0  0  0  0  0  0  0999 V2000
   -3.0020   16.1660   17.5710 C   0  0  0  0  0  0  0  0  0  0  0  0
   -3.0890   14.6470   17.5940 C   0  0  0  0  0  0  0  0  0  0  0  0
   -1.9020   14.0320   18.3370 C   0  0  0  0  0  0  0  0  0  0  0  0
   -2.0090   12.5140   18.5080 C   0  0  0  0  0  0  0  0  0  0  0  0
   -3.2350   11.9110   17.8190 C   0  0  0  0  0  0  0  0  0  0  0  0
   -4.2000   11.2180   18.7880 C   0  0  0  0  0  0  0  0  0  0  0  0
   -3.6140   10.8090   20.1430 C   0  0  0  0  0  0  0  0  0  0  0  0
   -3.5600    9.2940   20.3520 C   0  0  0  0  0  0  0  0  0  0  0  0
   -2.8410    8.6030   19.1900 C   0  0  0  0  0  0  0  0  0  0  0  0
   -1.5790    7.8470   19.6180 C   0  0  0  0  0  0  0  0  0  0  0  0
   -1.5630    6.3880   19.1690 C   0  0  0  0  0  0  0  0  0  0  0  0
   -2.7080    5.5290   19.7160 C   0  0  0  0  0  0  0  0  0  0  0  0
   -2.7170    5.4240   20.9770 O   0  0  0  0  0  0  0  0  0  0  0  0
   -3.4970    5.0270   18.8690 O   0  0  0  0  0  0  0  0  0  0  0  0
   -2.9801   16.5477   18.6024 H   0  0  0  0  0  0  0  0  0  0  0  0
   -2.0848   16.4728   17.0470 H   0  0  0  0  0  0  0  0  0  0  0  0
   -3.8782   16.5756   17.0470 H   0  0  0  0  0  0  0  0  0  0  0  0
   -4.0202   14.3493   18.0982 H   0  0  0  0  0  0  0  0  0  0  0  0
   -3.0742   14.2833   16.5560 H   0  0  0  0  0  0  0  0  0  0  0  0
   -0.9845   14.2551   17.7727 H   0  0  0  0  0  0  0  0  0  0  0  0
   -1.8885   14.4712   19.3454 H   0  0  0  0  0  0  0  0  0  0  0  0
   -1.1066   12.0505   18.0828 H   0  0  0  0  0  0  0  0  0  0  0  0
   -2.1101   12.3143   19.5850 H   0  0  0  0  0  0  0  0  0  0  0  0
   -3.7775   12.7177   17.3044 H   0  0  0  0  0  0  0  0  0  0  0  0
   -2.8698   11.1435   17.1208 H   0  0  0  0  0  0  0  0  0  0  0  0
   -5.0377   11.9053   18.9775 H   0  0  0  0  0  0  0  0  0  0  0  0
   -4.4905   10.2784   18.2952 H   0  0  0  0  0  0  0  0  0  0  0  0
   -2.5911   11.2071   20.2145 H   0  0  0  0  0  0  0  0  0  0  0  0
   -4.2764   11.2195   20.9194 H   0  0  0  0  0  0  0  0  0  0  0  0
   -3.0212    9.0792   21.2867 H   0  0  0  0  0  0  0  0  0  0  0  0
   -4.5900    8.9112   20.4030 H   0  0  0  0  0  0  0  0  0  0  0  0
   -3.5358    7.8872   18.7264 H   0  0  0  0  0  0  0  0  0  0  0  0
   -2.5258    9.3902   18.4893 H   0  0  0  0  0  0  0  0  0  0  0  0
   -0.7048    8.3546   19.1843 H   0  0  0  0  0  0  0  0  0  0  0  0
   -1.5580    7.8479   20.7178 H   0  0  0  0  0  0  0  0  0  0  0  0
   -1.6166    6.3685   18.0705 H   0  0  0  0  0  0  0  0  0  0  0  0
   -0.6349    5.9536   19.5690 H   0  0  0  0  0  0  0  0  0  0  0  0
  1  2  1  0
  2  3  1  0
  3  4  1  0
  4  5  1  0
  5  6  1  0
  6  7  1  0
  7  8  1  0
  8  9  1  0
  9 10  1  0
 10 11  1  0
 11 12  1  0
 12 13  2  0
 12 14  1  0
  1 15  1  0
  1 16  1  0
  1 17  1  0
  2 18  1  0
  2 19  1  0
  3 20  1  0
  3 21  1  0
  4 22  1  0
  4 23  1  0
  5 24  1  0
  5 25  1  0
  6 26  1  0
  6 27  1  0
  7 28  1  0
  7 29  1  0
  8 30  1  0
  8 31  1  0
  9 32  1  0
  9 33  1  0
 10 34  1  0
 10 35  1  0
 11 36  1  0
 11 37  1  0
M  CHG  1  14  -1
M  END
>  <meeko>  (9) 
{"is_sidechain": [false], "free_energy": -5.22, "intermolecular_energy": -8.052, "internal_energy": -0.717}

$$$$
