3bgz_ligand
     RDKit          3D

 38 41  0  0  0  0  0  0  0  0999 V2000
  -15.9380   35.0190    1.4120 O   0  0  0  0  0  0  0  0  0  0  0  0
  -16.6660   35.3360    2.4110 C   0  0  0  0  0  0  0  0  0  0  0  0
  -16.6610   34.7680    3.5470 O   0  0  0  0  0  0  0  0  0  0  0  0
  -17.6170   36.4960    2.2190 C   0  0  0  0  0  0  0  0  0  0  0  0
  -18.0030   37.3480    3.2680 C   0  0  0  0  0  0  0  0  0  0  0  0
  -18.8740   38.4200    3.0580 C   0  0  0  0  0  0  0  0  0  0  0  0
  -19.3960   38.6770    1.7840 C   0  0  0  0  0  0  0  0  0  0  0  0
  -19.0390   37.8390    0.7070 C   0  0  0  0  0  0  0  0  0  0  0  0
  -19.3560   37.7970   -0.6930 C   0  0  0  0  0  0  0  0  0  0  0  0
  -20.2140   38.7100   -1.4340 C   0  0  0  0  0  0  0  0  0  0  0  0
  -21.5570   38.8610   -1.0650 C   0  0  0  0  0  0  0  0  0  0  0  0
  -22.3850   39.7390   -1.7670 C   0  0  0  0  0  0  0  0  0  0  0  0
  -21.8760   40.4720   -2.8390 C   0  0  0  0  0  0  0  0  0  0  0  0
  -20.5400   40.3300   -3.2090 C   0  0  0  0  0  0  0  0  0  0  0  0
  -19.7090   39.4530   -2.5080 C   0  0  0  0  0  0  0  0  0  0  0  0
  -18.6710   36.7220   -1.2620 C   0  0  0  0  0  0  0  0  0  0  0  0
  -18.6150   36.1810   -2.6230 C   0  0  0  0  0  0  0  0  0  0  0  0
  -17.3800   35.9110   -3.2300 C   0  0  0  0  0  0  0  0  0  0  0  0
  -17.3180   35.3920   -4.5250 C   0  0  0  0  0  0  0  0  0  0  0  0
  -18.4920   35.1340   -5.2300 C   0  0  0  0  0  0  0  0  0  0  0  0
  -19.7270   35.3920   -4.6380 C   0  0  0  0  0  0  0  0  0  0  0  0
  -19.7870   35.9100   -3.3420 C   0  0  0  0  0  0  0  0  0  0  0  0
  -17.9680   36.1320   -0.2340 N   0  0  0  0  0  0  0  0  0  0  0  0
  -18.1680   36.7880    0.9570 C   0  0  0  0  0  0  0  0  0  0  0  0
  -17.6097   37.1664    4.2791 H   0  0  0  0  0  0  0  0  0  0  0  0
  -19.1526   39.0686    3.9016 H   0  0  0  0  0  0  0  0  0  0  0  0
  -20.0784   39.5249    1.6247 H   0  0  0  0  0  0  0  0  0  0  0  0
  -21.9607   38.2856   -0.2189 H   0  0  0  0  0  0  0  0  0  0  0  0
  -23.4393   39.8527   -1.4745 H   0  0  0  0  0  0  0  0  0  0  0  0
  -22.5294   41.1624   -3.3925 H   0  0  0  0  0  0  0  0  0  0  0  0
  -20.1394   40.9092   -4.0540 H   0  0  0  0  0  0  0  0  0  0  0  0
  -18.6541   39.3457   -2.8007 H   0  0  0  0  0  0  0  0  0  0  0  0
  -16.4488   36.1104   -2.6794 H   0  0  0  0  0  0  0  0  0  0  0  0
  -16.3419   35.1867   -4.9888 H   0  0  0  0  0  0  0  0  0  0  0  0
  -18.4441   34.7278   -6.2511 H   0  0  0  0  0  0  0  0  0  0  0  0
  -20.6553   35.1876   -5.1917 H   0  0  0  0  0  0  0  0  0  0  0  0
  -20.7657   36.1075   -2.8804 H   0  0  0  0  0  0  0  0  0  0  0  0
  -17.3680   35.3120   -0.2820 H   0  0  0  0  0  0  0  0  0  0  0  0
  1  2  2  0
  2  3  1  0
  2  4  1  0
  4  5  2  0
  5  6  1  0
  6  7  2  0
  7  8  1  0
  8  9  1  0
  9 10  1  0
 10 11  2  0
 11 12  1  0
 12 13  2  0
 13 14  1  0
 14 15  2  0
  9 16  2  0
 16 17  1  0
 17 18  2  0
 18 19  1  0
 19 20  2  0
 20 21  1  0
 21 22  2  0
 16 23  1  0
 23 24  1  0
 24  4  1  0
 24  8  2  0
 15 10  1  0
 22 17  1  0
  5 25  1  0
  6 26  1  0
  7 27  1  0
 11 28  1  0
 12 29  1  0
 13 30  1  0
 14 31  1  0
 15 32  1  0
 18 33  1  0
 19 34  1  0
 20 35  1  0
 21 36  1  0
 22 37  1  0
 23 38  1  0
M  CHG  1   3  -1
M  END
>  <meeko>  (1) 
{"is_sidechain": [false], "free_energy": -10.86, "intermolecular_energy": -12.765, "internal_energy": -1.232}

$$$$
3bgz_ligand
     RDKit          3D

 38 41  0  0  0  0  0  0  0  0999 V2000
  -16.7260   34.7410    3.5650 O   0  0  0  0  0  0  0  0  0  0  0  0
  -16.6880   35.3130    2.4250 C   0  0  0  0  0  0  0  0  0  0  0  0
  -15.9300   34.9940    1.4560 O   0  0  0  0  0  0  0  0  0  0  0  0
  -17.6350   36.4720    2.2120 C   0  0  0  0  0  0  0  0  0  0  0  0
  -18.0200   37.3420    3.2470 C   0  0  0  0  0  0  0  0  0  0  0  0
  -18.8870   38.4130    3.0180 C   0  0  0  0  0  0  0  0  0  0  0  0
  -19.4060   38.6520    1.7390 C   0  0  0  0  0  0  0  0  0  0  0  0
  -19.0500   37.7950    0.6760 C   0  0  0  0  0  0  0  0  0  0  0  0
  -19.3640   37.7320   -0.7240 C   0  0  0  0  0  0  0  0  0  0  0  0
  -20.2170   38.6350   -1.4810 C   0  0  0  0  0  0  0  0  0  0  0  0
  -19.6960   39.3350   -2.5760 C   0  0  0  0  0  0  0  0  0  0  0  0
  -20.5090   40.2000   -3.3120 C   0  0  0  0  0  0  0  0  0  0  0  0
  -21.8490   40.3660   -2.9600 C   0  0  0  0  0  0  0  0  0  0  0  0
  -22.3760   39.6680   -1.8740 C   0  0  0  0  0  0  0  0  0  0  0  0
  -21.5640   38.8030   -1.1370 C   0  0  0  0  0  0  0  0  0  0  0  0
  -18.6810   36.6460   -1.2740 C   0  0  0  0  0  0  0  0  0  0  0  0
  -18.6240   36.0820   -2.6260 C   0  0  0  0  0  0  0  0  0  0  0  0
  -17.3890   35.7910   -3.2220 C   0  0  0  0  0  0  0  0  0  0  0  0
  -17.3270   35.2500   -4.5090 C   0  0  0  0  0  0  0  0  0  0  0  0
  -18.5000   34.9930   -5.2150 C   0  0  0  0  0  0  0  0  0  0  0  0
  -19.7340   35.2740   -4.6340 C   0  0  0  0  0  0  0  0  0  0  0  0
  -19.7950   35.8120   -3.3460 C   0  0  0  0  0  0  0  0  0  0  0  0
  -17.9820   36.0690   -0.2360 N   0  0  0  0  0  0  0  0  0  0  0  0
  -18.1830   36.7450    0.9450 C   0  0  0  0  0  0  0  0  0  0  0  0
  -17.6291   37.1753    4.2616 H   0  0  0  0  0  0  0  0  0  0  0  0
  -19.1651   39.0757    3.8508 H   0  0  0  0  0  0  0  0  0  0  0  0
  -20.0848   39.4999    1.5649 H   0  0  0  0  0  0  0  0  0  0  0  0
  -18.6410   39.2030   -2.8581 H   0  0  0  0  0  0  0  0  0  0  0  0
  -20.0930   40.7502   -4.1689 H   0  0  0  0  0  0  0  0  0  0  0  0
  -22.4895   41.0474   -3.5391 H   0  0  0  0  0  0  0  0  0  0  0  0
  -23.4326   39.7988   -1.5974 H   0  0  0  0  0  0  0  0  0  0  0  0
  -21.9842   38.2516   -0.2830 H   0  0  0  0  0  0  0  0  0  0  0  0
  -16.4584   35.9907   -2.6705 H   0  0  0  0  0  0  0  0  0  0  0  0
  -16.3511   35.0269   -4.9649 H   0  0  0  0  0  0  0  0  0  0  0  0
  -18.4517   34.5692   -6.2289 H   0  0  0  0  0  0  0  0  0  0  0  0
  -20.6616   35.0722   -5.1897 H   0  0  0  0  0  0  0  0  0  0  0  0
  -20.7738   36.0260   -2.8920 H   0  0  0  0  0  0  0  0  0  0  0  0
  -17.3850   35.2470   -0.2690 H   0  0  0  0  0  0  0  0  0  0  0  0
  1  2  2  0
  2  3  1  0
  2  4  1  0
  4  5  2  0
  5  6  1  0
  6  7  2  0
  7  8  1  0
  8  9  1  0
  9 10  1  0
 10 11  2  0
 11 12  1  0
 12 13  2  0
 13 14  1  0
 14 15  2  0
  9 16  2  0
 16 17  1  0
 17 18  2  0
 18 19  1  0
 19 20  2  0
 20 21  1  0
 21 22  2  0
 16 23  1  0
 23 24  1  0
 24  4  1  0
 24  8  2  0
 15 10  1  0
 22 17  1  0
  5 25  1  0
  6 26  1  0
  7 27  1  0
 11 28  1  0
 12 29  1  0
 13 30  1  0
 14 31  1  0
 15 32  1  0
 18 33  1  0
 19 34  1  0
 20 35  1  0
 21 36  1  0
 22 37  1  0
 23 38  1  0
M  CHG  1   3  -1
M  END
>  <meeko>  (2) 
{"is_sidechain": [false], "free_energy": -10.839, "intermolecular_energy": -12.751, "internal_energy": -1.222}

$$$$
3bgz_ligand
     RDKit          3D

 38 41  0  0  0  0  0  0  0  0999 V2000
  -22.1160   40.6100   -4.0800 O   0  0  0  0  0  0  0  0  0  0  0  0
  -21.0020   40.7210   -3.4670 C   0  0  0  0  0  0  0  0  0  0  0  0
  -19.9370   41.2240   -3.9430 O   0  0  0  0  0  0  0  0  0  0  0  0
  -20.9530   40.2080   -2.0460 C   0  0  0  0  0  0  0  0  0  0  0  0
  -21.7460   40.7390   -1.0140 C   0  0  0  0  0  0  0  0  0  0  0  0
  -21.6880   40.2360    0.2870 C   0  0  0  0  0  0  0  0  0  0  0  0
  -20.8270   39.1780    0.6060 C   0  0  0  0  0  0  0  0  0  0  0  0
  -20.0080   38.6240   -0.4000 C   0  0  0  0  0  0  0  0  0  0  0  0
  -19.0410   37.5630   -0.4500 C   0  0  0  0  0  0  0  0  0  0  0  0
  -18.6200   36.6970    0.6410 C   0  0  0  0  0  0  0  0  0  0  0  0
  -17.3800   36.9050    1.2590 C   0  0  0  0  0  0  0  0  0  0  0  0
  -16.9710   36.0820    2.3110 C   0  0  0  0  0  0  0  0  0  0  0  0
  -17.7990   35.0500    2.7530 C   0  0  0  0  0  0  0  0  0  0  0  0
  -19.0360   34.8400    2.1450 C   0  0  0  0  0  0  0  0  0  0  0  0
  -19.4480   35.6630    1.0940 C   0  0  0  0  0  0  0  0  0  0  0  0
  -18.5670   37.4680   -1.7590 C   0  0  0  0  0  0  0  0  0  0  0  0
  -17.5750   36.6020   -2.4020 C   0  0  0  0  0  0  0  0  0  0  0  0
  -16.9950   36.9730   -3.6240 C   0  0  0  0  0  0  0  0  0  0  0  0
  -16.0460   36.1530   -4.2420 C   0  0  0  0  0  0  0  0  0  0  0  0
  -15.6650   34.9540   -3.6440 C   0  0  0  0  0  0  0  0  0  0  0  0
  -16.2290   34.5760   -2.4280 C   0  0  0  0  0  0  0  0  0  0  0  0
  -17.1760   35.3970   -1.8100 C   0  0  0  0  0  0  0  0  0  0  0  0
  -19.2240   38.4470   -2.4740 N   0  0  0  0  0  0  0  0  0  0  0  0
  -20.0990   39.1500   -1.6810 C   0  0  0  0  0  0  0  0  0  0  0  0
  -22.4293   41.5716   -1.2371 H   0  0  0  0  0  0  0  0  0  0  0  0
  -22.3247   40.6748    1.0694 H   0  0  0  0  0  0  0  0  0  0  0  0
  -20.7899   38.7828    1.6319 H   0  0  0  0  0  0  0  0  0  0  0  0
  -16.7259   37.7196    0.9145 H   0  0  0  0  0  0  0  0  0  0  0  0
  -15.9953   36.2478    2.7912 H   0  0  0  0  0  0  0  0  0  0  0  0
  -17.4760   34.4020    3.5811 H   0  0  0  0  0  0  0  0  0  0  0  0
  -19.6882   34.0255    2.4932 H   0  0  0  0  0  0  0  0  0  0  0  0
  -20.4270   35.4979    0.6204 H   0  0  0  0  0  0  0  0  0  0  0  0
  -17.2899   37.9192   -4.1013 H   0  0  0  0  0  0  0  0  0  0  0  0
  -15.5999   36.4549   -5.2011 H   0  0  0  0  0  0  0  0  0  0  0  0
  -14.9204   34.3072   -4.1311 H   0  0  0  0  0  0  0  0  0  0  0  0
  -15.9287   33.6301   -1.9535 H   0  0  0  0  0  0  0  0  0  0  0  0
  -17.6132   35.0933   -0.8474 H   0  0  0  0  0  0  0  0  0  0  0  0
  -19.1160   38.6760   -3.4590 H   0  0  0  0  0  0  0  0  0  0  0  0
  1  2  2  0
  2  3  1  0
  2  4  1  0
  4  5  2  0
  5  6  1  0
  6  7  2  0
  7  8  1  0
  8  9  1  0
  9 10  1  0
 10 11  2  0
 11 12  1  0
 12 13  2  0
 13 14  1  0
 14 15  2  0
  9 16  2  0
 16 17  1  0
 17 18  2  0
 18 19  1  0
 19 20  2  0
 20 21  1  0
 21 22  2  0
 16 23  1  0
 23 24  1  0
 24  4  1  0
 24  8  2  0
 15 10  1  0
 22 17  1  0
  5 25  1  0
  6 26  1  0
  7 27  1  0
 11 28  1  0
 12 29  1  0
 13 30  1  0
 14 31  1  0
 15 32  1  0
 18 33  1  0
 19 34  1  0
 20 35  1  0
 21 36  1  0
 22 37  1  0
 23 38  1  0
M  CHG  1   3  -1
M  END
>  <meeko>  (3) 
{"is_sidechain": [false], "free_energy": -9.831, "intermolecular_energy": -11.72, "internal_energy": -1.068}

$$$$
3bgz_ligand
     RDKit          3D

 38 41  0  0  0  0  0  0  0  0999 V2000
  -18.3490   35.1010    2.0500 O   0  0  0  0  0  0  0  0  0  0  0  0
  -17.1510   35.2170    1.6260 C   0  0  0  0  0  0  0  0  0  0  0  0
  -16.1180   35.3770    2.3470 O   0  0  0  0  0  0  0  0  0  0  0  0
  -16.9500   35.1540    0.1290 C   0  0  0  0  0  0  0  0  0  0  0  0
  -16.0250   34.2890   -0.4810 C   0  0  0  0  0  0  0  0  0  0  0  0
  -15.8700   34.2430   -1.8680 C   0  0  0  0  0  0  0  0  0  0  0  0
  -16.6370   35.0690   -2.7000 C   0  0  0  0  0  0  0  0  0  0  0  0
  -17.5700   35.9570   -2.1250 C   0  0  0  0  0  0  0  0  0  0  0  0
  -18.5070   36.9160   -2.6400 C   0  0  0  0  0  0  0  0  0  0  0  0
  -18.7600   37.2460   -4.0350 C   0  0  0  0  0  0  0  0  0  0  0  0
  -19.8670   36.6950   -4.6930 C   0  0  0  0  0  0  0  0  0  0  0  0
  -20.1210   37.0100   -6.0290 C   0  0  0  0  0  0  0  0  0  0  0  0
  -19.2720   37.8810   -6.7140 C   0  0  0  0  0  0  0  0  0  0  0  0
  -18.1720   38.4370   -6.0630 C   0  0  0  0  0  0  0  0  0  0  0  0
  -17.9170   38.1240   -4.7260 C   0  0  0  0  0  0  0  0  0  0  0  0
  -19.1810   37.4880   -1.5600 C   0  0  0  0  0  0  0  0  0  0  0  0
  -20.2180   38.5190   -1.4620 C   0  0  0  0  0  0  0  0  0  0  0  0
  -21.2890   38.3670   -0.5680 C   0  0  0  0  0  0  0  0  0  0  0  0
  -22.2800   39.3470   -0.4670 C   0  0  0  0  0  0  0  0  0  0  0  0
  -22.2120   40.4920   -1.2570 C   0  0  0  0  0  0  0  0  0  0  0  0
  -21.1520   40.6590   -2.1460 C   0  0  0  0  0  0  0  0  0  0  0  0
  -20.1600   39.6800   -2.2450 C   0  0  0  0  0  0  0  0  0  0  0  0
  -18.6610   36.8960   -0.4290 N   0  0  0  0  0  0  0  0  0  0  0  0
  -17.6960   35.9680   -0.7430 C   0  0  0  0  0  0  0  0  0  0  0  0
  -15.4080   33.6322    0.1498 H   0  0  0  0  0  0  0  0  0  0  0  0
  -15.1386   33.5515   -2.3117 H   0  0  0  0  0  0  0  0  0  0  0  0
  -16.5127   35.0254   -3.7921 H   0  0  0  0  0  0  0  0  0  0  0  0
  -20.5393   36.0109   -4.1545 H   0  0  0  0  0  0  0  0  0  0  0  0
  -20.9900   36.5720   -6.5419 H   0  0  0  0  0  0  0  0  0  0  0  0
  -19.4710   38.1285   -7.7672 H   0  0  0  0  0  0  0  0  0  0  0  0
  -17.5036   39.1235   -6.6033 H   0  0  0  0  0  0  0  0  0  0  0  0
  -17.0508   38.5690   -4.2144 H   0  0  0  0  0  0  0  0  0  0  0  0
  -21.3491   37.4662    0.0604 H   0  0  0  0  0  0  0  0  0  0  0  0
  -23.1146   39.2140    0.2371 H   0  0  0  0  0  0  0  0  0  0  0  0
  -22.9931   41.2626   -1.1794 H   0  0  0  0  0  0  0  0  0  0  0  0
  -21.0961   41.5627   -2.7706 H   0  0  0  0  0  0  0  0  0  0  0  0
  -19.3239   39.8221   -2.9455 H   0  0  0  0  0  0  0  0  0  0  0  0
  -18.9090   37.0800    0.5400 H   0  0  0  0  0  0  0  0  0  0  0  0
  1  2  2  0
  2  3  1  0
  2  4  1  0
  4  5  2  0
  5  6  1  0
  6  7  2  0
  7  8  1  0
  8  9  1  0
  9 10  1  0
 10 11  2  0
 11 12  1  0
 12 13  2  0
 13 14  1  0
 14 15  2  0
  9 16  2  0
 16 17  1  0
 17 18  2  0
 18 19  1  0
 19 20  2  0
 20 21  1  0
 21 22  2  0
 16 23  1  0
 23 24  1  0
 24  4  1  0
 24  8  2  0
 15 10  1  0
 22 17  1  0
  5 25  1  0
  6 26  1  0
  7 27  1  0
 11 28  1  0
 12 29  1  0
 13 30  1  0
 14 31  1  0
 15 32  1  0
 18 33  1  0
 19 34  1  0
 20 35  1  0
 21 36  1  0
 22 37  1  0
 23 38  1  0
M  CHG  1   3  -1
M  END
>  <meeko>  (4) 
{"is_sidechain": [false], "free_energy": -9.697, "intermolecular_energy": -11.267, "internal_energy": -1.363}

$$$$
3bgz_ligand
     RDKit          3D

 38 41  0  0  0  0  0  0  0  0999 V2000
  -15.5150   36.9010   -6.4120 O   0  0  0  0  0  0  0  0  0  0  0  0
  -16.5850   36.6200   -5.7750 C   0  0  0  0  0  0  0  0  0  0  0  0
  -17.7700   36.7600   -6.2120 O   0  0  0  0  0  0  0  0  0  0  0  0
  -16.4210   36.0700   -4.3770 C   0  0  0  0  0  0  0  0  0  0  0  0
  -15.4530   35.1070   -4.0440 C   0  0  0  0  0  0  0  0  0  0  0  0
  -15.3160   34.6270   -2.7400 C   0  0  0  0  0  0  0  0  0  0  0  0
  -16.1500   35.0930   -1.7160 C   0  0  0  0  0  0  0  0  0  0  0  0
  -17.1400   36.0540   -2.0120 C   0  0  0  0  0  0  0  0  0  0  0  0
  -18.1380   36.7490   -1.2480 C   0  0  0  0  0  0  0  0  0  0  0  0
  -18.4060   36.6280    0.1770 C   0  0  0  0  0  0  0  0  0  0  0  0
  -18.3250   37.7570    1.0020 C   0  0  0  0  0  0  0  0  0  0  0  0
  -18.5860   37.6510    2.3690 C   0  0  0  0  0  0  0  0  0  0  0  0
  -18.9340   36.4170    2.9190 C   0  0  0  0  0  0  0  0  0  0  0  0
  -19.0210   35.2900    2.1040 C   0  0  0  0  0  0  0  0  0  0  0  0
  -18.7610   35.3940    0.7350 C   0  0  0  0  0  0  0  0  0  0  0  0
  -18.8220   37.6100   -2.1080 C   0  0  0  0  0  0  0  0  0  0  0  0
  -19.9350   38.5430   -1.9110 C   0  0  0  0  0  0  0  0  0  0  0  0
  -19.9360   39.7910   -2.5510 C   0  0  0  0  0  0  0  0  0  0  0  0
  -20.9950   40.6850   -2.3700 C   0  0  0  0  0  0  0  0  0  0  0  0
  -22.0660   40.3410   -1.5490 C   0  0  0  0  0  0  0  0  0  0  0  0
  -22.0810   39.1020   -0.9110 C   0  0  0  0  0  0  0  0  0  0  0  0
  -21.0230   38.2080   -1.0940 C   0  0  0  0  0  0  0  0  0  0  0  0
  -18.2560   37.4330   -3.3530 N   0  0  0  0  0  0  0  0  0  0  0  0
  -17.2400   36.5080   -3.3190 C   0  0  0  0  0  0  0  0  0  0  0  0
  -14.7868   34.7219   -4.8301 H   0  0  0  0  0  0  0  0  0  0  0  0
  -14.5452   33.8752   -2.5147 H   0  0  0  0  0  0  0  0  0  0  0  0
  -16.0344   34.7133   -0.6901 H   0  0  0  0  0  0  0  0  0  0  0  0
  -18.0544   38.7319    0.5704 H   0  0  0  0  0  0  0  0  0  0  0  0
  -18.5173   38.5404    3.0127 H   0  0  0  0  0  0  0  0  0  0  0  0
  -19.1398   36.3336    3.9964 H   0  0  0  0  0  0  0  0  0  0  0  0
  -19.2947   34.3174    2.5389 H   0  0  0  0  0  0  0  0  0  0  0  0
  -18.8355   34.5034    0.0936 H   0  0  0  0  0  0  0  0  0  0  0  0
  -19.0944   40.0692   -3.2023 H   0  0  0  0  0  0  0  0  0  0  0  0
  -20.9825   41.6613   -2.8766 H   0  0  0  0  0  0  0  0  0  0  0  0
  -22.8982   41.0456   -1.4044 H   0  0  0  0  0  0  0  0  0  0  0  0
  -22.9264   38.8277   -0.2629 H   0  0  0  0  0  0  0  0  0  0  0  0
  -21.0444   37.2300   -0.5910 H   0  0  0  0  0  0  0  0  0  0  0  0
  -18.5150   37.8900   -4.2240 H   0  0  0  0  0  0  0  0  0  0  0  0
  1  2  2  0
  2  3  1  0
  2  4  1  0
  4  5  2  0
  5  6  1  0
  6  7  2  0
  7  8  1  0
  8  9  1  0
  9 10  1  0
 10 11  2  0
 11 12  1  0
 12 13  2  0
 13 14  1  0
 14 15  2  0
  9 16  2  0
 16 17  1  0
 17 18  2  0
 18 19  1  0
 19 20  2  0
 20 21  1  0
 21 22  2  0
 16 23  1  0
 23 24  1  0
 24  4  1  0
 24  8  2  0
 15 10  1  0
 22 17  1  0
  5 25  1  0
  6 26  1  0
  7 27  1  0
 11 28  1  0
 12 29  1  0
 13 30  1  0
 14 31  1  0
 15 32  1  0
 18 33  1  0
 19 34  1  0
 20 35  1  0
 21 36  1  0
 22 37  1  0
 23 38  1  0
M  CHG  1   3  -1
M  END
>  <meeko>  (5) 
{"is_sidechain": [false], "free_energy": -9.679, "intermolecular_energy": -11.506, "internal_energy": -1.103}

$$$$
3bgz_ligand
     RDKit          3D

 38 41  0  0  0  0  0  0  0  0999 V2000
  -22.5740   40.6690   -1.2180 O   0  0  0  0  0  0  0  0  0  0  0  0
  -22.9560   40.2940   -2.3760 C   0  0  0  0  0  0  0  0  0  0  0  0
  -24.1050   40.4930   -2.8820 O   0  0  0  0  0  0  0  0  0  0  0  0
  -21.9460   39.5500   -3.2190 C   0  0  0  0  0  0  0  0  0  0  0  0
  -21.9420   39.5960   -4.6240 C   0  0  0  0  0  0  0  0  0  0  0  0
  -20.9870   38.9090   -5.3760 C   0  0  0  0  0  0  0  0  0  0  0  0
  -19.9980   38.1420   -4.7470 C   0  0  0  0  0  0  0  0  0  0  0  0
  -19.9750   38.0630   -3.3390 C   0  0  0  0  0  0  0  0  0  0  0  0
  -19.1370   37.4060   -2.3740 C   0  0  0  0  0  0  0  0  0  0  0  0
  -17.9750   36.5700   -2.6340 C   0  0  0  0  0  0  0  0  0  0  0  0
  -17.8000   35.3770   -1.9230 C   0  0  0  0  0  0  0  0  0  0  0  0
  -16.6900   34.5650   -2.1700 C   0  0  0  0  0  0  0  0  0  0  0  0
  -15.7520   34.9400   -3.1320 C   0  0  0  0  0  0  0  0  0  0  0  0
  -15.9220   36.1250   -3.8470 C   0  0  0  0  0  0  0  0  0  0  0  0
  -17.0320   36.9370   -3.6020 C   0  0  0  0  0  0  0  0  0  0  0  0
  -19.6100   37.7240   -1.1000 C   0  0  0  0  0  0  0  0  0  0  0  0
  -19.1820   37.3420    0.2490 C   0  0  0  0  0  0  0  0  0  0  0  0
  -18.7570   38.3190    1.1620 C   0  0  0  0  0  0  0  0  0  0  0  0
  -18.3500   37.9620    2.4500 C   0  0  0  0  0  0  0  0  0  0  0  0
  -18.3650   36.6260    2.8420 C   0  0  0  0  0  0  0  0  0  0  0  0
  -18.7890   35.6460    1.9470 C   0  0  0  0  0  0  0  0  0  0  0  0
  -19.1980   36.0030    0.6600 C   0  0  0  0  0  0  0  0  0  0  0  0
  -20.7030   38.5420   -1.2930 N   0  0  0  0  0  0  0  0  0  0  0  0
  -20.9380   38.7650   -2.6280 C   0  0  0  0  0  0  0  0  0  0  0  0
  -22.7100   40.1877   -5.1437 H   0  0  0  0  0  0  0  0  0  0  0  0
  -21.0115   38.9707   -6.4740 H   0  0  0  0  0  0  0  0  0  0  0  0
  -19.2464   37.6064   -5.3455 H   0  0  0  0  0  0  0  0  0  0  0  0
  -18.5399   35.0773   -1.1662 H   0  0  0  0  0  0  0  0  0  0  0  0
  -16.5559   33.6302   -1.6059 H   0  0  0  0  0  0  0  0  0  0  0  0
  -14.8781   34.3008   -3.3266 H   0  0  0  0  0  0  0  0  0  0  0  0
  -15.1814   36.4207   -4.6047 H   0  0  0  0  0  0  0  0  0  0  0  0
  -17.1658   37.8684   -4.1717 H   0  0  0  0  0  0  0  0  0  0  0  0
  -18.7441   39.3768    0.8606 H   0  0  0  0  0  0  0  0  0  0  0  0
  -18.0172   38.7376    3.1555 H   0  0  0  0  0  0  0  0  0  0  0  0
  -18.0430   36.3450    3.8556 H   0  0  0  0  0  0  0  0  0  0  0  0
  -18.8017   34.5899    2.2543 H   0  0  0  0  0  0  0  0  0  0  0  0
  -19.5365   35.2238   -0.0387 H   0  0  0  0  0  0  0  0  0  0  0  0
  -21.3040   38.9540   -0.5830 H   0  0  0  0  0  0  0  0  0  0  0  0
  1  2  2  0
  2  3  1  0
  2  4  1  0
  4  5  2  0
  5  6  1  0
  6  7  2  0
  7  8  1  0
  8  9  1  0
  9 10  1  0
 10 11  2  0
 11 12  1  0
 12 13  2  0
 13 14  1  0
 14 15  2  0
  9 16  2  0
 16 17  1  0
 17 18  2  0
 18 19  1  0
 19 20  2  0
 20 21  1  0
 21 22  2  0
 16 23  1  0
 23 24  1  0
 24  4  1  0
 24  8  2  0
 15 10  1  0
 22 17  1  0
  5 25  1  0
  6 26  1  0
  7 27  1  0
 11 28  1  0
 12 29  1  0
 13 30  1  0
 14 31  1  0
 15 32  1  0
 18 33  1  0
 19 34  1  0
 20 35  1  0
 21 36  1  0
 22 37  1  0
 23 38  1  0
M  CHG  1   3  -1
M  END
>  <meeko>  (6) 
{"is_sidechain": [false], "free_energy": -9.023, "intermolecular_energy": -11.32, "internal_energy": -0.518}

$$$$
3bgz_ligand
     RDKit          3D

 38 41  0  0  0  0  0  0  0  0999 V2000
  -21.7360   41.3460   -0.2300 O   0  0  0  0  0  0  0  0  0  0  0  0
  -21.7420   40.0940   -0.4810 C   0  0  0  0  0  0  0  0  0  0  0  0
  -21.8770   39.1640    0.3740 O   0  0  0  0  0  0  0  0  0  0  0  0
  -21.5750   39.6890   -1.9270 C   0  0  0  0  0  0  0  0  0  0  0  0
  -22.3000   40.2820   -2.9750 C   0  0  0  0  0  0  0  0  0  0  0  0
  -22.1150   39.8950   -4.3040 C   0  0  0  0  0  0  0  0  0  0  0  0
  -21.1940   38.8930   -4.6350 C   0  0  0  0  0  0  0  0  0  0  0  0
  -20.4530   38.2680   -3.6110 C   0  0  0  0  0  0  0  0  0  0  0  0
  -19.4470   37.2430   -3.5680 C   0  0  0  0  0  0  0  0  0  0  0  0
  -18.8750   36.5170   -4.6920 C   0  0  0  0  0  0  0  0  0  0  0  0
  -17.8020   37.0660   -5.4050 C   0  0  0  0  0  0  0  0  0  0  0  0
  -17.2430   36.3730   -6.4810 C   0  0  0  0  0  0  0  0  0  0  0  0
  -17.7510   35.1260   -6.8470 C   0  0  0  0  0  0  0  0  0  0  0  0
  -18.8160   34.5720   -6.1390 C   0  0  0  0  0  0  0  0  0  0  0  0
  -19.3750   35.2630   -5.0620 C   0  0  0  0  0  0  0  0  0  0  0  0
  -19.0700   37.0600   -2.2370 C   0  0  0  0  0  0  0  0  0  0  0  0
  -18.1160   36.1590   -1.5830 C   0  0  0  0  0  0  0  0  0  0  0  0
  -18.1640   35.9600   -0.1960 C   0  0  0  0  0  0  0  0  0  0  0  0
  -17.2600   35.1000    0.4330 C   0  0  0  0  0  0  0  0  0  0  0  0
  -16.2990   34.4260   -0.3170 C   0  0  0  0  0  0  0  0  0  0  0  0
  -16.2430   34.6110   -1.6970 C   0  0  0  0  0  0  0  0  0  0  0  0
  -17.1490   35.4690   -2.3260 C   0  0  0  0  0  0  0  0  0  0  0  0
  -19.8300   37.9430   -1.5010 N   0  0  0  0  0  0  0  0  0  0  0  0
  -20.6640   38.6840   -2.3040 C   0  0  0  0  0  0  0  0  0  0  0  0
  -23.0311   41.0703   -2.7426 H   0  0  0  0  0  0  0  0  0  0  0  0
  -22.6986   40.3821   -5.0991 H   0  0  0  0  0  0  0  0  0  0  0  0
  -21.0500   38.5963   -5.6844 H   0  0  0  0  0  0  0  0  0  0  0  0
  -17.3977   38.0474   -5.1163 H   0  0  0  0  0  0  0  0  0  0  0  0
  -16.4024   36.8101   -7.0399 H   0  0  0  0  0  0  0  0  0  0  0  0
  -17.3108   34.5801   -7.6945 H   0  0  0  0  0  0  0  0  0  0  0  0
  -19.2166   33.5894   -6.4289 H   0  0  0  0  0  0  0  0  0  0  0  0
  -20.2118   34.8200   -4.5020 H   0  0  0  0  0  0  0  0  0  0  0  0
  -18.9213   36.4865    0.4034 H   0  0  0  0  0  0  0  0  0  0  0  0
  -17.3073   34.9550    1.5224 H   0  0  0  0  0  0  0  0  0  0  0  0
  -15.5867   33.7499    0.1785 H   0  0  0  0  0  0  0  0  0  0  0  0
  -15.4847   34.0810   -2.2920 H   0  0  0  0  0  0  0  0  0  0  0  0
  -17.1025   35.6042   -3.4167 H   0  0  0  0  0  0  0  0  0  0  0  0
  -19.8280   38.0740   -0.4920 H   0  0  0  0  0  0  0  0  0  0  0  0
  1  2  2  0
  2  3  1  0
  2  4  1  0
  4  5  2  0
  5  6  1  0
  6  7  2  0
  7  8  1  0
  8  9  1  0
  9 10  1  0
 10 11  2  0
 11 12  1  0
 12 13  2  0
 13 14  1  0
 14 15  2  0
  9 16  2  0
 16 17  1  0
 17 18  2  0
 18 19  1  0
 19 20  2  0
 20 21  1  0
 21 22  2  0
 16 23  1  0
 23 24  1  0
 24  4  1  0
 24  8  2  0
 15 10  1  0
 22 17  1  0
  5 25  1  0
  6 26  1  0
  7 27  1  0
 11 28  1  0
 12 29  1  0
 13 30  1  0
 14 31  1  0
 15 32  1  0
 18 33  1  0
 19 34  1  0
 20 35  1  0
 21 36  1  0
 22 37  1  0
 23 38  1  0
M  CHG  1   3  -1
M  END
>  <meeko>  (7) 
{"is_sidechain": [false], "free_energy": -8.896, "intermolecular_energy": -10.591, "internal_energy": -1.097}

$$$$
3bgz_ligand
     RDKit          3D

 38 41  0  0  0  0  0  0  0  0999 V2000
  -15.1320   35.2120   -5.3520 O   0  0  0  0  0  0  0  0  0  0  0  0
  -16.3800   35.3560   -5.1260 C   0  0  0  0  0  0  0  0  0  0  0  0
  -17.2970   35.3930   -6.0050 O   0  0  0  0  0  0  0  0  0  0  0  0
  -16.8000   35.4890   -3.6800 C   0  0  0  0  0  0  0  0  0  0  0  0
  -16.3010   34.6600   -2.6610 C   0  0  0  0  0  0  0  0  0  0  0  0
  -16.6970   34.8160   -1.3310 C   0  0  0  0  0  0  0  0  0  0  0  0
  -17.6150   35.8110   -0.9700 C   0  0  0  0  0  0  0  0  0  0  0  0
  -18.1450   36.6570   -1.9660 C   0  0  0  0  0  0  0  0  0  0  0  0
  -19.0690   37.7570   -1.9750 C   0  0  0  0  0  0  0  0  0  0  0  0
  -19.7620   38.3400   -0.8360 C   0  0  0  0  0  0  0  0  0  0  0  0
  -19.1650   38.3200    0.4300 C   0  0  0  0  0  0  0  0  0  0  0  0
  -19.8210   38.8820    1.5270 C   0  0  0  0  0  0  0  0  0  0  0  0
  -21.0750   39.4710    1.3640 C   0  0  0  0  0  0  0  0  0  0  0  0
  -21.6730   39.4990    0.1050 C   0  0  0  0  0  0  0  0  0  0  0  0
  -21.0180   38.9380   -0.9940 C   0  0  0  0  0  0  0  0  0  0  0  0
  -19.1860   38.2150   -3.2880 C   0  0  0  0  0  0  0  0  0  0  0  0
  -19.9790   39.2810   -3.9080 C   0  0  0  0  0  0  0  0  0  0  0  0
  -19.4790   40.5900   -3.9760 C   0  0  0  0  0  0  0  0  0  0  0  0
  -20.2280   41.6110   -4.5670 C   0  0  0  0  0  0  0  0  0  0  0  0
  -21.4850   41.3350   -5.1000 C   0  0  0  0  0  0  0  0  0  0  0  0
  -21.9930   40.0380   -5.0440 C   0  0  0  0  0  0  0  0  0  0  0  0
  -21.2420   39.0180   -4.4540 C   0  0  0  0  0  0  0  0  0  0  0  0
  -18.3630   37.4120   -4.0470 N   0  0  0  0  0  0  0  0  0  0  0  0
  -17.7220   36.4720   -3.2750 C   0  0  0  0  0  0  0  0  0  0  0  0
  -15.5809   33.8689   -2.9172 H   0  0  0  0  0  0  0  0  0  0  0  0
  -16.2838   34.1507   -0.5586 H   0  0  0  0  0  0  0  0  0  0  0  0
  -17.9194   35.9311    0.0802 H   0  0  0  0  0  0  0  0  0  0  0  0
  -18.1747   37.8595    0.5612 H   0  0  0  0  0  0  0  0  0  0  0  0
  -19.3488   38.8603    2.5202 H   0  0  0  0  0  0  0  0  0  0  0  0
  -21.5918   39.9132    2.2285 H   0  0  0  0  0  0  0  0  0  0  0  0
  -22.6619   39.9634   -0.0232 H   0  0  0  0  0  0  0  0  0  0  0  0
  -21.4907   38.9662   -1.9869 H   0  0  0  0  0  0  0  0  0  0  0  0
  -18.4862   40.8152   -3.5594 H   0  0  0  0  0  0  0  0  0  0  0  0
  -19.8247   42.6334   -4.6113 H   0  0  0  0  0  0  0  0  0  0  0  0
  -22.0755   42.1387   -5.5641 H   0  0  0  0  0  0  0  0  0  0  0  0
  -22.9853   39.8175   -5.4644 H   0  0  0  0  0  0  0  0  0  0  0  0
  -21.6475   37.9961   -4.4178 H   0  0  0  0  0  0  0  0  0  0  0  0
  -18.2100   37.4500   -5.0520 H   0  0  0  0  0  0  0  0  0  0  0  0
  1  2  2  0
  2  3  1  0
  2  4  1  0
  4  5  2  0
  5  6  1  0
  6  7  2  0
  7  8  1  0
  8  9  1  0
  9 10  1  0
 10 11  2  0
 11 12  1  0
 12 13  2  0
 13 14  1  0
 14 15  2  0
  9 16  2  0
 16 17  1  0
 17 18  2  0
 18 19  1  0
 19 20  2  0
 20 21  1  0
 21 22  2  0
 16 23  1  0
 23 24  1  0
 24  4  1  0
 24  8  2  0
 15 10  1  0
 22 17  1  0
  5 25  1  0
  6 26  1  0
  7 27  1  0
 11 28  1  0
 12 29  1  0
 13 30  1  0
 14 31  1  0
 15 32  1  0
 18 33  1  0
 19 34  1  0
 20 35  1  0
 21 36  1  0
 22 37  1  0
 23 38  1  0
M  CHG  1   3  -1
M  END
>  <meeko>  (8) 
{"is_sidechain": [false], "free_energy": -8.769, "intermolecular_energy": -10.702, "internal_energy": -0.837}

$$$$
3bgz_ligand
     RDKit          3D

 38 41  0  0  0  0  0  0  0  0999 V2000
  -16.6580   34.2500   -1.4350 O   0  0  0  0  0  0  0  0  0  0  0  0
  -15.8690   34.7090   -2.3270 C   0  0  0  0  0  0  0  0  0  0  0  0
  -14.6130   34.5270   -2.3760 O   0  0  0  0  0  0  0  0  0  0  0  0
  -16.4930   35.5420   -3.4230 C   0  0  0  0  0  0  0  0  0  0  0  0
  -16.1510   35.3990   -4.7790 C   0  0  0  0  0  0  0  0  0  0  0  0
  -16.7530   36.1750   -5.7720 C   0  0  0  0  0  0  0  0  0  0  0  0
  -17.7240   37.1290   -5.4430 C   0  0  0  0  0  0  0  0  0  0  0  0
  -18.0890   37.3080   -4.0920 C   0  0  0  0  0  0  0  0  0  0  0  0
  -19.0190   38.1540   -3.3960 C   0  0  0  0  0  0  0  0  0  0  0  0
  -19.9190   39.1420   -3.9720 C   0  0  0  0  0  0  0  0  0  0  0  0
  -21.1920   38.7560   -4.4090 C   0  0  0  0  0  0  0  0  0  0  0  0
  -22.0640   39.6980   -4.9570 C   0  0  0  0  0  0  0  0  0  0  0  0
  -21.6700   41.0320   -5.0690 C   0  0  0  0  0  0  0  0  0  0  0  0
  -20.4050   41.4240   -4.6320 C   0  0  0  0  0  0  0  0  0  0  0  0
  -19.5320   40.4820   -4.0820 C   0  0  0  0  0  0  0  0  0  0  0  0
  -18.9430   37.8550   -2.0350 C   0  0  0  0  0  0  0  0  0  0  0  0
  -19.6270   38.3920   -0.8550 C   0  0  0  0  0  0  0  0  0  0  0  0
  -19.0940   38.1910    0.4270 C   0  0  0  0  0  0  0  0  0  0  0  0
  -19.7390   38.7030    1.5570 C   0  0  0  0  0  0  0  0  0  0  0  0
  -20.9230   39.4230    1.4180 C   0  0  0  0  0  0  0  0  0  0  0  0
  -21.4610   39.6340    0.1500 C   0  0  0  0  0  0  0  0  0  0  0  0
  -20.8150   39.1250   -0.9790 C   0  0  0  0  0  0  0  0  0  0  0  0
  -17.9920   36.8650   -1.9140 N   0  0  0  0  0  0  0  0  0  0  0  0
  -17.4690   36.5150   -3.1360 C   0  0  0  0  0  0  0  0  0  0  0  0
  -15.3904   34.6576   -5.0651 H   0  0  0  0  0  0  0  0  0  0  0  0
  -16.4614   36.0354   -6.8234 H   0  0  0  0  0  0  0  0  0  0  0  0
  -18.1978   37.7332   -6.2307 H   0  0  0  0  0  0  0  0  0  0  0  0
  -21.5063   37.7056   -4.3200 H   0  0  0  0  0  0  0  0  0  0  0  0
  -23.0621   39.3888   -5.3007 H   0  0  0  0  0  0  0  0  0  0  0  0
  -22.3570   41.7741   -5.5018 H   0  0  0  0  0  0  0  0  0  0  0  0
  -20.0943   42.4755   -4.7204 H   0  0  0  0  0  0  0  0  0  0  0  0
  -18.5365   40.7951   -3.7341 H   0  0  0  0  0  0  0  0  0  0  0  0
  -18.1585   37.6245    0.5445 H   0  0  0  0  0  0  0  0  0  0  0  0
  -19.3109   38.5370    2.5566 H   0  0  0  0  0  0  0  0  0  0  0  0
  -21.4321   39.8241    2.3068 H   0  0  0  0  0  0  0  0  0  0  0  0
  -22.3961   40.2024    0.0380 H   0  0  0  0  0  0  0  0  0  0  0  0
  -21.2435   39.3015   -1.9766 H   0  0  0  0  0  0  0  0  0  0  0  0
  -17.6680   36.4140   -1.0620 H   0  0  0  0  0  0  0  0  0  0  0  0
  1  2  2  0
  2  3  1  0
  2  4  1  0
  4  5  2  0
  5  6  1  0
  6  7  2  0
  7  8  1  0
  8  9  1  0
  9 10  1  0
 10 11  2  0
 11 12  1  0
 12 13  2  0
 13 14  1  0
 14 15  2  0
  9 16  2  0
 16 17  1  0
 17 18  2  0
 18 19  1  0
 19 20  2  0
 20 21  1  0
 21 22  2  0
 16 23  1  0
 23 24  1  0
 24  4  1  0
 24  8  2  0
 15 10  1  0
 22 17  1  0
  5 25  1  0
  6 26  1  0
  7 27  1  0
 11 28  1  0
 12 29  1  0
 13 30  1  0
 14 31  1  0
 15 32  1  0
 18 33  1  0
 19 34  1  0
 20 35  1  0
 21 36  1  0
 22 37  1  0
 23 38  1  0
M  CHG  1   3  -1
M  END
>  <meeko>  (9) 
{"is_sidechain": [false], "free_energy": -8.661, "intermolecular_energy": -10.301, "internal_energy": -1.111}

$$$$
