4kzu_ligand
     RDKit          3D

 27 29  0  0  0  0  0  0  0  0999 V2000
   -8.1240   38.5630  -15.0910 O   0  0  0  0  0  0  0  0  0  0  0  0
   -7.4800   37.9130  -14.2780 C   0  0  0  0  0  0  0  0  0  0  0  0
   -7.5320   38.2320  -12.8410 C   0  0  0  0  0  0  0  0  0  0  0  0
   -6.8190   37.5090  -11.9640 C   0  0  0  0  0  0  0  0  0  0  0  0
   -6.8170   37.7660  -10.4930 C   0  0  0  0  0  0  0  0  0  0  0  0
   -7.3610   38.9290   -9.9190 C   0  0  0  0  0  0  0  0  0  0  0  0
   -7.3420   39.1390   -8.5330 C   0  0  0  0  0  0  0  0  0  0  0  0
   -6.7750   38.1860   -7.6950 C   0  0  0  0  0  0  0  0  0  0  0  0
   -6.7490   38.4680   -5.8280 Br  0  0  0  0  0  0  0  0  0  0  0  0
   -6.2290   37.0260   -8.2300 C   0  0  0  0  0  0  0  0  0  0  0  0
   -6.2510   36.8210   -9.6150 C   0  0  0  0  0  0  0  0  0  0  0  0
   -6.0100   36.4420  -12.3490 O   0  0  0  0  0  0  0  0  0  0  0  0
   -5.9300   36.1080  -13.6760 C   0  0  0  0  0  0  0  0  0  0  0  0
   -5.1080   35.0330  -14.0150 C   0  0  0  0  0  0  0  0  0  0  0  0
   -4.9850   34.6460  -15.3510 C   0  0  0  0  0  0  0  0  0  0  0  0
   -5.6840   35.3300  -16.3480 C   0  0  0  0  0  0  0  0  0  0  0  0
   -6.5060   36.4060  -16.0090 C   0  0  0  0  0  0  0  0  0  0  0  0
   -6.6240   36.7880  -14.6700 C   0  0  0  0  0  0  0  0  0  0  0  0
   -8.1568   39.0648  -12.4860 H   0  0  0  0  0  0  0  0  0  0  0  0
   -7.8115   39.6909  -10.5721 H   0  0  0  0  0  0  0  0  0  0  0  0
   -7.7753   40.0569   -8.1092 H   0  0  0  0  0  0  0  0  0  0  0  0
   -5.7807   36.2708   -7.5676 H   0  0  0  0  0  0  0  0  0  0  0  0
   -5.8154   35.8990  -10.0277 H   0  0  0  0  0  0  0  0  0  0  0  0
   -4.5579   34.4913  -13.2314 H   0  0  0  0  0  0  0  0  0  0  0  0
   -4.3355   33.7997  -15.6190 H   0  0  0  0  0  0  0  0  0  0  0  0
   -5.5869   35.0211  -17.3993 H   0  0  0  0  0  0  0  0  0  0  0  0
   -7.0571   36.9495  -16.7905 H   0  0  0  0  0  0  0  0  0  0  0  0
  1  2  2  0
  2  3  1  0
  3  4  2  0
  4  5  1  0
  5  6  2  0
  6  7  1  0
  7  8  2  0
  8  9  1  0
  8 10  1  0
 10 11  2  0
  4 12  1  0
 12 13  1  0
 13 14  2  0
 14 15  1  0
 15 16  2  0
 16 17  1  0
 17 18  2  0
 18  2  1  0
 11  5  1  0
 18 13  1  0
  3 19  1  0
  6 20  1  0
  7 21  1  0
 10 22  1  0
 11 23  1  0
 14 24  1  0
 15 25  1  0
 16 26  1  0
 17 27  1  0
M  END
>  <meeko>  (1) 
{"is_sidechain": [false], "free_energy": -11.496, "intermolecular_energy": -12.168, "internal_energy": -0.273}

$$$$
4kzu_ligand
     RDKit          3D

 27 29  0  0  0  0  0  0  0  0999 V2000
   -4.8380   34.6300  -13.5960 O   0  0  0  0  0  0  0  0  0  0  0  0
   -5.4550   35.6060  -13.1920 C   0  0  0  0  0  0  0  0  0  0  0  0
   -5.4640   35.9590  -11.7620 C   0  0  0  0  0  0  0  0  0  0  0  0
   -6.1480   37.0330  -11.3370 C   0  0  0  0  0  0  0  0  0  0  0  0
   -6.2080   37.4590   -9.9080 C   0  0  0  0  0  0  0  0  0  0  0  0
   -5.9240   38.7710   -9.4870 C   0  0  0  0  0  0  0  0  0  0  0  0
   -5.9890   39.1370   -8.1360 C   0  0  0  0  0  0  0  0  0  0  0  0
   -6.3410   38.1930   -7.1780 C   0  0  0  0  0  0  0  0  0  0  0  0
   -6.4290   38.6860   -5.3570 Br  0  0  0  0  0  0  0  0  0  0  0  0
   -6.6280   36.8890   -7.5590 C   0  0  0  0  0  0  0  0  0  0  0  0
   -6.5610   36.5290   -8.9110 C   0  0  0  0  0  0  0  0  0  0  0  0
   -6.8700   37.8560  -12.1990 O   0  0  0  0  0  0  0  0  0  0  0  0
   -6.8910   37.5670  -13.5380 C   0  0  0  0  0  0  0  0  0  0  0  0
   -7.6250   38.4190  -14.3640 C   0  0  0  0  0  0  0  0  0  0  0  0
   -7.6850   38.1760  -15.7380 C   0  0  0  0  0  0  0  0  0  0  0  0
   -7.0100   37.0840  -16.2880 C   0  0  0  0  0  0  0  0  0  0  0  0
   -6.2740   36.2310  -15.4630 C   0  0  0  0  0  0  0  0  0  0  0  0
   -6.2190   36.4810  -14.0890 C   0  0  0  0  0  0  0  0  0  0  0  0
   -4.9090   35.3412  -11.0407 H   0  0  0  0  0  0  0  0  0  0  0  0
   -5.6445   39.5269  -10.2356 H   0  0  0  0  0  0  0  0  0  0  0  0
   -5.7618   40.1700   -7.8338 H   0  0  0  0  0  0  0  0  0  0  0  0
   -6.9070   36.1414   -6.8019 H   0  0  0  0  0  0  0  0  0  0  0  0
   -6.7900   35.4931   -9.2016 H   0  0  0  0  0  0  0  0  0  0  0  0
   -8.1557   39.2810  -13.9335 H   0  0  0  0  0  0  0  0  0  0  0  0
   -8.2655   38.8465  -16.3888 H   0  0  0  0  0  0  0  0  0  0  0  0
   -7.0581   36.8959  -17.3707 H   0  0  0  0  0  0  0  0  0  0  0  0
   -5.7416   35.3689  -15.8912 H   0  0  0  0  0  0  0  0  0  0  0  0
  1  2  2  0
  2  3  1  0
  3  4  2  0
  4  5  1  0
  5  6  2  0
  6  7  1  0
  7  8  2  0
  8  9  1  0
  8 10  1  0
 10 11  2  0
  4 12  1  0
 12 13  1  0
 13 14  2  0
 14 15  1  0
 15 16  2  0
 16 17  1  0
 17 18  2  0
 18  2  1  0
 11  5  1  0
 18 13  1  0
  3 19  1  0
  6 20  1  0
  7 21  1  0
 10 22  1  0
 11 23  1  0
 14 24  1  0
 15 25  1  0
 16 26  1  0
 17 27  1  0
M  END
>  <meeko>  (2) 
{"is_sidechain": [false], "free_energy": -9.123, "intermolecular_energy": -9.681, "internal_energy": -0.249}

$$$$
4kzu_ligand
     RDKit          3D

 27 29  0  0  0  0  0  0  0  0999 V2000
   -7.0590   41.0930   -8.8140 O   0  0  0  0  0  0  0  0  0  0  0  0
   -7.2150   39.9090   -9.0820 C   0  0  0  0  0  0  0  0  0  0  0  0
   -6.8930   39.3850  -10.4200 C   0  0  0  0  0  0  0  0  0  0  0  0
   -7.0710   38.0830  -10.6950 C   0  0  0  0  0  0  0  0  0  0  0  0
   -6.7690   37.4730  -12.0240 C   0  0  0  0  0  0  0  0  0  0  0  0
   -7.3480   37.9250  -13.2230 C   0  0  0  0  0  0  0  0  0  0  0  0
   -7.0420   37.3290  -14.4540 C   0  0  0  0  0  0  0  0  0  0  0  0
   -6.1480   36.2660  -14.5070 C   0  0  0  0  0  0  0  0  0  0  0  0
   -5.7350   35.4630  -16.1660 Br  0  0  0  0  0  0  0  0  0  0  0  0
   -5.5570   35.7960  -13.3410 C   0  0  0  0  0  0  0  0  0  0  0  0
   -5.8660   36.3950  -12.1140 C   0  0  0  0  0  0  0  0  0  0  0  0
   -7.5580   37.1750   -9.7580 O   0  0  0  0  0  0  0  0  0  0  0  0
   -7.8720   37.6170   -8.4990 C   0  0  0  0  0  0  0  0  0  0  0  0
   -8.3550   36.6720   -7.5930 C   0  0  0  0  0  0  0  0  0  0  0  0
   -8.6930   37.0620   -6.2950 C   0  0  0  0  0  0  0  0  0  0  0  0
   -8.5470   38.3940   -5.9010 C   0  0  0  0  0  0  0  0  0  0  0  0
   -8.0630   39.3390   -6.8070 C   0  0  0  0  0  0  0  0  0  0  0  0
   -7.7270   38.9420   -8.1040 C   0  0  0  0  0  0  0  0  0  0  0  0
   -6.5058   40.0618  -11.1959 H   0  0  0  0  0  0  0  0  0  0  0  0
   -8.0572   38.7654  -13.1941 H   0  0  0  0  0  0  0  0  0  0  0  0
   -7.5089   37.7021  -15.3774 H   0  0  0  0  0  0  0  0  0  0  0  0
   -4.8483   34.9557  -13.3817 H   0  0  0  0  0  0  0  0  0  0  0  0
   -5.3920   36.0146  -11.1971 H   0  0  0  0  0  0  0  0  0  0  0  0
   -8.4693   35.6220   -7.9004 H   0  0  0  0  0  0  0  0  0  0  0  0
   -9.0753   36.3178   -5.5809 H   0  0  0  0  0  0  0  0  0  0  0  0
   -8.8131   38.6979   -4.8779 H   0  0  0  0  0  0  0  0  0  0  0  0
   -7.9468   40.3895   -6.5020 H   0  0  0  0  0  0  0  0  0  0  0  0
  1  2  2  0
  2  3  1  0
  3  4  2  0
  4  5  1  0
  5  6  2  0
  6  7  1  0
  7  8  2  0
  8  9  1  0
  8 10  1  0
 10 11  2  0
  4 12  1  0
 12 13  1  0
 13 14  2  0
 14 15  1  0
 15 16  2  0
 16 17  1  0
 17 18  2  0
 18  2  1  0
 11  5  1  0
 18 13  1  0
  3 19  1  0
  6 20  1  0
  7 21  1  0
 10 22  1  0
 11 23  1  0
 14 24  1  0
 15 25  1  0
 16 26  1  0
 17 27  1  0
M  END
>  <meeko>  (3) 
{"is_sidechain": [false], "free_energy": -8.874, "intermolecular_energy": -9.419, "internal_energy": -0.246}

$$$$
4kzu_ligand
     RDKit          3D

 27 29  0  0  0  0  0  0  0  0999 V2000
   -7.3700   41.1310   -8.7690 O   0  0  0  0  0  0  0  0  0  0  0  0
   -6.9820   39.9840   -8.9450 C   0  0  0  0  0  0  0  0  0  0  0  0
   -6.9120   39.4060  -10.2990 C   0  0  0  0  0  0  0  0  0  0  0  0
   -6.4840   38.1460  -10.4720 C   0  0  0  0  0  0  0  0  0  0  0  0
   -6.3830   37.4870  -11.8080 C   0  0  0  0  0  0  0  0  0  0  0  0
   -7.0630   37.9570  -12.9460 C   0  0  0  0  0  0  0  0  0  0  0  0
   -6.9460   37.3140  -14.1860 C   0  0  0  0  0  0  0  0  0  0  0  0
   -6.1440   36.1850  -14.3090 C   0  0  0  0  0  0  0  0  0  0  0  0
   -5.9860   35.3180  -15.9790 Br  0  0  0  0  0  0  0  0  0  0  0  0
   -5.4580   35.6950  -13.2050 C   0  0  0  0  0  0  0  0  0  0  0  0
   -5.5790   36.3420  -11.9680 C   0  0  0  0  0  0  0  0  0  0  0  0
   -6.0920   37.3310   -9.4130 O   0  0  0  0  0  0  0  0  0  0  0  0
   -6.1410   37.8250   -8.1350 C   0  0  0  0  0  0  0  0  0  0  0  0
   -5.7380   36.9740   -7.1060 C   0  0  0  0  0  0  0  0  0  0  0  0
   -5.7650   37.4210   -5.7830 C   0  0  0  0  0  0  0  0  0  0  0  0
   -6.1940   38.7160   -5.4870 C   0  0  0  0  0  0  0  0  0  0  0  0
   -6.5970   39.5690   -6.5170 C   0  0  0  0  0  0  0  0  0  0  0  0
   -6.5660   39.1150   -7.8380 C   0  0  0  0  0  0  0  0  0  0  0  0
   -7.2111   40.0086  -11.1693 H   0  0  0  0  0  0  0  0  0  0  0  0
   -7.7009   38.8491  -12.8610 H   0  0  0  0  0  0  0  0  0  0  0  0
   -7.4881   37.7022  -15.0609 H   0  0  0  0  0  0  0  0  0  0  0  0
   -4.8222   34.8025  -13.3015 H   0  0  0  0  0  0  0  0  0  0  0  0
   -5.0321   35.9455  -11.0999 H   0  0  0  0  0  0  0  0  0  0  0  0
   -5.3996   35.9529   -7.3359 H   0  0  0  0  0  0  0  0  0  0  0  0
   -5.4470   36.7501   -4.9713 H   0  0  0  0  0  0  0  0  0  0  0  0
   -6.2146   39.0643   -4.4438 H   0  0  0  0  0  0  0  0  0  0  0  0
   -6.9362   40.5904   -6.2899 H   0  0  0  0  0  0  0  0  0  0  0  0
  1  2  2  0
  2  3  1  0
  3  4  2  0
  4  5  1  0
  5  6  2  0
  6  7  1  0
  7  8  2  0
  8  9  1  0
  8 10  1  0
 10 11  2  0
  4 12  1  0
 12 13  1  0
 13 14  2  0
 14 15  1  0
 15 16  2  0
 16 17  1  0
 17 18  2  0
 18  2  1  0
 11  5  1  0
 18 13  1  0
  3 19  1  0
  6 20  1  0
  7 21  1  0
 10 22  1  0
 11 23  1  0
 14 24  1  0
 15 25  1  0
 16 26  1  0
 17 27  1  0
M  END
>  <meeko>  (4) 
{"is_sidechain": [false], "free_energy": -8.798, "intermolecular_energy": -9.315, "internal_energy": -0.27}

$$$$
