3coz_ligand
     RDKit          3D

 54 56  0  0  0  0  0  0  0  0999 V2000
   14.1820    7.7800    7.4240 C   0  0  0  0  0  0  0  0  0  0  0  0
   14.5080    9.1590    6.8370 C   0  0  0  0  0  0  0  0  0  0  0  0
   13.7940   10.2260    7.6770 C   0  0  0  0  0  0  0  0  0  0  0  0
   16.0270    9.4260    6.7590 C   0  0  1  0  0  0  0  0  0  0  0  0
   16.7780    8.1490    7.0950 N   0  0  0  0  0  0  0  0  0  0  0  0
   16.4550    9.8780    5.3480 C   0  0  0  0  0  0  0  0  0  0  0  0
   17.0020    9.0720    4.5980 O   0  0  0  0  0  0  0  0  0  0  0  0
   16.2550   11.2170    5.0150 N   0  0  0  0  0  0  0  0  0  0  0  0
   16.9520   11.9050    3.6700 S   0  0  0  0  0  0  0  0  0  0  0  0
   18.2760   11.3370    3.5760 O   0  0  0  0  0  0  0  0  0  0  0  0
   16.7270   13.3210    3.8100 O   0  0  0  0  0  0  0  0  0  0  0  0
   16.0520   11.3410    2.4500 O   0  0  0  0  0  0  0  0  0  0  0  0
   14.6470   11.5160    2.5250 C   0  0  0  0  0  0  0  0  0  0  0  0
   13.9540   10.3200    1.8810 C   0  0  1  0  0  0  0  0  0  0  0  0
   13.4410   10.6830    0.5880 O   0  0  0  0  0  0  0  0  0  0  0  0
   13.5440    9.5180   -0.2810 C   0  0  1  0  0  0  0  0  0  0  0  0
   14.3800    9.8600   -1.4190 N   0  0  0  0  0  0  0  0  0  0  0  0
   15.6650   10.3350   -1.4030 C   0  0  0  0  0  0  0  0  0  0  0  0
   16.1430   10.5080   -2.6180 N   0  0  0  0  0  0  0  0  0  0  0  0
   15.0970   10.1860   -3.4590 C   0  0  0  0  0  0  0  0  0  0  0  0
   14.9630   10.1870   -4.8580 C   0  0  0  0  0  0  0  0  0  0  0  0
   15.9750   10.5810   -5.7180 N   0  0  0  0  0  0  0  0  0  0  0  0
   13.7930    9.7690   -5.3920 N   0  0  0  0  0  0  0  0  0  0  0  0
   12.7990    9.3990   -4.5570 C   0  0  0  0  0  0  0  0  0  0  0  0
   12.8110    9.3570   -3.2080 N   0  0  0  0  0  0  0  0  0  0  0  0
   13.9950    9.7700   -2.7300 C   0  0  0  0  0  0  0  0  0  0  0  0
   14.1130    8.3770    0.5740 C   0  0  2  0  0  0  0  0  0  0  0  0
   13.0550    7.6360    1.2050 O   0  0  0  0  0  0  0  0  0  0  0  0
   14.8870    9.1340    1.6410 C   0  0  2  0  0  0  0  0  0  0  0  0
   15.1010    8.3150    2.7890 O   0  0  0  0  0  0  0  0  0  0  0  0
   14.1954    7.8366    8.5225 H   0  0  0  0  0  0  0  0  0  0  0  0
   13.1844    7.4638    7.0853 H   0  0  0  0  0  0  0  0  0  0  0  0
   14.9325    7.0506    7.0853 H   0  0  0  0  0  0  0  0  0  0  0  0
   14.1471    9.1953    5.7985 H   0  0  0  0  0  0  0  0  0  0  0  0
   13.9391   10.0091    8.7456 H   0  0  0  0  0  0  0  0  0  0  0  0
   14.2119   11.2164    7.4438 H   0  0  0  0  0  0  0  0  0  0  0  0
   12.7190   10.2175    7.4438 H   0  0  0  0  0  0  0  0  0  0  0  0
   16.2626   10.2275    7.4746 H   0  0  0  0  0  0  0  0  0  0  0  0
   17.4470    7.8540    6.3740 H   0  0  0  0  0  0  0  0  0  0  0  0
   17.2830    8.2640    7.9890 H   0  0  0  0  0  0  0  0  0  0  0  0
   16.1250    7.3670    7.2550 H   0  0  0  0  0  0  0  0  0  0  0  0
   15.8140   11.9180    5.6060 H   0  0  0  0  0  0  0  0  0  0  0  0
   14.3423   11.5932    3.5791 H   0  0  0  0  0  0  0  0  0  0  0  0
   14.3619   12.4363    1.9942 H   0  0  0  0  0  0  0  0  0  0  0  0
   13.1637   10.0292    2.5887 H   0  0  0  0  0  0  0  0  0  0  0  0
   12.5754    9.1952   -0.6905 H   0  0  0  0  0  0  0  0  0  0  0  0
   16.2308   10.5469   -0.4838 H   0  0  0  0  0  0  0  0  0  0  0  0
   15.6590   11.0000   -6.5840 H   0  0  0  0  0  0  0  0  0  0  0  0
   16.7690   10.9880   -5.2420 H   0  0  0  0  0  0  0  0  0  0  0  0
   11.8584    9.0923   -5.0378 H   0  0  0  0  0  0  0  0  0  0  0  0
   14.7068    7.6556   -0.0064 H   0  0  0  0  0  0  0  0  0  0  0  0
   13.2300    6.6980    0.9840 H   0  0  0  0  0  0  0  0  0  0  0  0
   15.9061    9.4451    1.3678 H   0  0  0  0  0  0  0  0  0  0  0  0
   14.5240    8.6540    3.5030 H   0  0  0  0  0  0  0  0  0  0  0  0
  1  2  1  0
  2  3  1  0
  2  4  1  0
  4  5  1  0
  4  6  1  0
  6  7  2  0
  6  8  1  0
  8  9  1  0
  9 10  2  0
  9 11  2  0
  9 12  1  0
 12 13  1  0
 13 14  1  0
 14 15  1  0
 15 16  1  0
 16 17  1  0
 17 18  1  0
 18 19  2  0
 19 20  1  0
 20 21  2  0
 21 22  1  0
 21 23  1  0
 23 24  2  0
 24 25  1  0
 25 26  2  0
 16 27  1  0
 27 28  1  0
 27 29  1  0
 29 30  1  0
 29 14  1  0
 26 17  1  0
 26 20  1  0
  1 31  1  0
  1 32  1  0
  1 33  1  0
  2 34  1  0
  3 35  1  0
  3 36  1  0
  3 37  1  0
  4 38  1  1
  5 39  1  0
  5 40  1  0
  5 41  1  0
  8 42  1  0
 13 43  1  0
 13 44  1  0
 14 45  1  1
 16 46  1  6
 18 47  1  0
 22 48  1  0
 22 49  1  0
 24 50  1  0
 27 51  1  6
 28 52  1  0
 29 53  1  6
 30 54  1  0
M  CHG  1   5   1
M  END
>  <meeko>  (1) 
{"is_sidechain": [false], "free_energy": -9.256, "intermolecular_energy": -14.126, "internal_energy": -1.027}

$$$$
3coz_ligand
     RDKit          3D

 54 56  0  0  0  0  0  0  0  0999 V2000
   19.2810   10.8960   -0.5680 C   0  0  0  0  0  0  0  0  0  0  0  0
   19.7680    9.8580    0.4510 C   0  0  0  0  0  0  0  0  0  0  0  0
   21.0440    9.2030   -0.0930 C   0  0  0  0  0  0  0  0  0  0  0  0
   20.0010   10.4670    1.8510 C   0  0  1  0  0  0  0  0  0  0  0  0
   20.5880   11.8600    1.7000 N   0  0  0  0  0  0  0  0  0  0  0  0
   18.6860   10.5830    2.6490 C   0  0  0  0  0  0  0  0  0  0  0  0
   18.0260    9.5690    2.8710 O   0  0  0  0  0  0  0  0  0  0  0  0
   18.2750   11.8600    3.0270 N   0  0  0  0  0  0  0  0  0  0  0  0
   16.7420   12.1590    3.6000 S   0  0  0  0  0  0  0  0  0  0  0  0
   16.6280   13.5950    3.6950 O   0  0  0  0  0  0  0  0  0  0  0  0
   16.5900   11.2950    4.7430 O   0  0  0  0  0  0  0  0  0  0  0  0
   15.7860   11.6350    2.4060 O   0  0  0  0  0  0  0  0  0  0  0  0
   14.3940   11.5420    2.6600 C   0  0  0  0  0  0  0  0  0  0  0  0
   13.8430   10.2780    2.0070 C   0  0  1  0  0  0  0  0  0  0  0  0
   13.2910   10.5890    0.7170 O   0  0  0  0  0  0  0  0  0  0  0  0
   13.5280    9.4500   -0.1610 C   0  0  1  0  0  0  0  0  0  0  0  0
   14.3190    9.8940   -1.2960 N   0  0  0  0  0  0  0  0  0  0  0  0
   15.5300   10.5350   -1.2750 C   0  0  0  0  0  0  0  0  0  0  0  0
   15.9880   10.7650   -2.4880 N   0  0  0  0  0  0  0  0  0  0  0  0
   14.9990   10.3040   -3.3330 C   0  0  0  0  0  0  0  0  0  0  0  0
   14.8740   10.2810   -4.7320 C   0  0  0  0  0  0  0  0  0  0  0  0
   15.8310   10.8020   -5.5890 N   0  0  0  0  0  0  0  0  0  0  0  0
   13.7730    9.7110   -5.2710 N   0  0  0  0  0  0  0  0  0  0  0  0
   12.8310    9.2160   -4.4400 C   0  0  0  0  0  0  0  0  0  0  0  0
   12.8410    9.1820   -3.0910 N   0  0  0  0  0  0  0  0  0  0  0  0
   13.9570    9.7500   -2.6080 C   0  0  0  0  0  0  0  0  0  0  0  0
   14.2260    8.3760    0.6860 C   0  0  2  0  0  0  0  0  0  0  0  0
   13.2600    7.5130    1.3120 O   0  0  0  0  0  0  0  0  0  0  0  0
   14.9070    9.2100    1.7600 C   0  0  2  0  0  0  0  0  0  0  0  0
   15.2150    8.4130    2.9010 O   0  0  0  0  0  0  0  0  0  0  0  0
   18.8720   11.7678   -0.0364 H   0  0  0  0  0  0  0  0  0  0  0  0
   20.1240   11.2138   -1.1992 H   0  0  0  0  0  0  0  0  0  0  0  0
   18.4978   10.4508   -1.1992 H   0  0  0  0  0  0  0  0  0  0  0  0
   18.9835    9.0984    0.5836 H   0  0  0  0  0  0  0  0  0  0  0  0
   21.6762    8.8785    0.7467 H   0  0  0  0  0  0  0  0  0  0  0  0
   20.7752    8.3314   -0.7079 H   0  0  0  0  0  0  0  0  0  0  0  0
   21.5956    9.9294   -0.7079 H   0  0  0  0  0  0  0  0  0  0  0  0
   20.6877    9.8016    2.3948 H   0  0  0  0  0  0  0  0  0  0  0  0
   21.5370   11.9590    2.0780 H   0  0  0  0  0  0  0  0  0  0  0  0
   20.5970   12.1310    0.7040 H   0  0  0  0  0  0  0  0  0  0  0  0
   19.9920   12.5640    2.1640 H   0  0  0  0  0  0  0  0  0  0  0  0
   18.7850   12.7240    2.8580 H   0  0  0  0  0  0  0  0  0  0  0  0
   14.2211   11.4996    3.7455 H   0  0  0  0  0  0  0  0  0  0  0  0
   13.8847   12.4231    2.2426 H   0  0  0  0  0  0  0  0  0  0  0  0
   13.0914    9.8922    2.7114 H   0  0  0  0  0  0  0  0  0  0  0  0
   12.6028    9.0212   -0.5734 H   0  0  0  0  0  0  0  0  0  0  0  0
   16.0572   10.8234   -0.3537 H   0  0  0  0  0  0  0  0  0  0  0  0
   15.4690   11.4150   -6.3090 H   0  0  0  0  0  0  0  0  0  0  0  0
   16.6920   11.0550   -5.1220 H   0  0  0  0  0  0  0  0  0  0  0  0
   11.9421    8.7856   -4.9243 H   0  0  0  0  0  0  0  0  0  0  0  0
   14.8993    7.7327    0.1005 H   0  0  0  0  0  0  0  0  0  0  0  0
   12.7610    8.0890    1.9260 H   0  0  0  0  0  0  0  0  0  0  0  0
   15.8832    9.6395    1.4908 H   0  0  0  0  0  0  0  0  0  0  0  0
   14.5200    8.5770    3.5690 H   0  0  0  0  0  0  0  0  0  0  0  0
  1  2  1  0
  2  3  1  0
  2  4  1  0
  4  5  1  0
  4  6  1  0
  6  7  2  0
  6  8  1  0
  8  9  1  0
  9 10  2  0
  9 11  2  0
  9 12  1  0
 12 13  1  0
 13 14  1  0
 14 15  1  0
 15 16  1  0
 16 17  1  0
 17 18  1  0
 18 19  2  0
 19 20  1  0
 20 21  2  0
 21 22  1  0
 21 23  1  0
 23 24  2  0
 24 25  1  0
 25 26  2  0
 16 27  1  0
 27 28  1  0
 27 29  1  0
 29 30  1  0
 29 14  1  0
 26 17  1  0
 26 20  1  0
  1 31  1  0
  1 32  1  0
  1 33  1  0
  2 34  1  0
  3 35  1  0
  3 36  1  0
  3 37  1  0
  4 38  1  1
  5 39  1  0
  5 40  1  0
  5 41  1  0
  8 42  1  0
 13 43  1  0
 13 44  1  0
 14 45  1  1
 16 46  1  6
 18 47  1  0
 22 48  1  0
 22 49  1  0
 24 50  1  0
 27 51  1  6
 28 52  1  0
 29 53  1  6
 30 54  1  0
M  CHG  1   5   1
M  END
>  <meeko>  (2) 
{"is_sidechain": [false], "free_energy": -8.916, "intermolecular_energy": -13.381, "internal_energy": -1.253}

$$$$
3coz_ligand
     RDKit          3D

 54 56  0  0  0  0  0  0  0  0999 V2000
   14.1150    8.1270    6.9180 C   0  0  0  0  0  0  0  0  0  0  0  0
   14.9980    9.0340    6.0500 C   0  0  0  0  0  0  0  0  0  0  0  0
   14.4880   10.4750    6.1770 C   0  0  0  0  0  0  0  0  0  0  0  0
   16.4940    8.9300    6.4200 C   0  0  1  0  0  0  0  0  0  0  0  0
   16.6880    7.8020    7.4180 N   0  0  0  0  0  0  0  0  0  0  0  0
   17.3680    8.6340    5.1840 C   0  0  0  0  0  0  0  0  0  0  0  0
   16.8270    8.4580    4.0940 O   0  0  0  0  0  0  0  0  0  0  0  0
   18.7430    8.5160    5.3830 N   0  0  0  0  0  0  0  0  0  0  0  0
   19.7520    7.8910    4.2180 S   0  0  0  0  0  0  0  0  0  0  0  0
   19.3340    6.5230    4.0250 O   0  0  0  0  0  0  0  0  0  0  0  0
   21.0830    8.2390    4.6450 O   0  0  0  0  0  0  0  0  0  0  0  0
   19.3760    8.7450    2.8970 O   0  0  0  0  0  0  0  0  0  0  0  0
   20.4200    9.0680    1.9940 C   0  0  0  0  0  0  0  0  0  0  0  0
   19.9410   10.1510    1.0330 C   0  0  1  0  0  0  0  0  0  0  0  0
   18.6640    9.7920    0.4800 O   0  0  0  0  0  0  0  0  0  0  0  0
   17.8990   11.0160    0.2830 C   0  0  1  0  0  0  0  0  0  0  0  0
   16.6740   10.9290    1.0600 N   0  0  0  0  0  0  0  0  0  0  0  0
   16.4520   11.3910    2.3310 C   0  0  0  0  0  0  0  0  0  0  0  0
   15.2140   11.1780    2.7250 N   0  0  0  0  0  0  0  0  0  0  0  0
   14.6240   10.4930    1.6830 C   0  0  0  0  0  0  0  0  0  0  0  0
   13.3350    9.9640    1.4970 C   0  0  0  0  0  0  0  0  0  0  0  0
   12.3380   10.0370    2.4570 N   0  0  0  0  0  0  0  0  0  0  0  0
   13.0480    9.3680    0.3180 N   0  0  0  0  0  0  0  0  0  0  0  0
   14.0210    9.2810   -0.6140 C   0  0  0  0  0  0  0  0  0  0  0  0
   15.2860    9.7470   -0.5490 N   0  0  0  0  0  0  0  0  0  0  0  0
   15.5160   10.3380    0.6340 C   0  0  0  0  0  0  0  0  0  0  0  0
   18.8070   12.1800    0.7050 C   0  0  2  0  0  0  0  0  0  0  0  0
   19.5820   12.6530   -0.4100 O   0  0  0  0  0  0  0  0  0  0  0  0
   19.7400   11.5100    1.7020 C   0  0  2  0  0  0  0  0  0  0  0  0
   20.9370   12.2670    1.8640 O   0  0  0  0  0  0  0  0  0  0  0  0
   14.3132    8.3306    7.9807 H   0  0  0  0  0  0  0  0  0  0  0  0
   13.0560    8.3267    6.6977 H   0  0  0  0  0  0  0  0  0  0  0  0
   14.3430    7.0737    6.6977 H   0  0  0  0  0  0  0  0  0  0  0  0
   14.9264    8.7026    5.0036 H   0  0  0  0  0  0  0  0  0  0  0  0
   14.3947   10.7385    7.2409 H   0  0  0  0  0  0  0  0  0  0  0  0
   15.1984   11.1596    5.6906 H   0  0  0  0  0  0  0  0  0  0  0  0
   13.5051   10.5603    5.6906 H   0  0  0  0  0  0  0  0  0  0  0  0
   16.7995    9.8964    6.8475 H   0  0  0  0  0  0  0  0  0  0  0  0
   15.8510    7.2260    7.5680 H   0  0  0  0  0  0  0  0  0  0  0  0
   17.4600    7.1900    7.1100 H   0  0  0  0  0  0  0  0  0  0  0  0
   16.9850    8.1670    8.3360 H   0  0  0  0  0  0  0  0  0  0  0  0
   19.2290    8.6470    6.2670 H   0  0  0  0  0  0  0  0  0  0  0  0
   21.2911    9.4353    2.5563 H   0  0  0  0  0  0  0  0  0  0  0  0
   20.7042    8.1708    1.4246 H   0  0  0  0  0  0  0  0  0  0  0  0
   20.7295   10.2298    0.2700 H   0  0  0  0  0  0  0  0  0  0  0  0
   17.5962   11.1731   -0.7628 H   0  0  0  0  0  0  0  0  0  0  0  0
   17.2180   11.8820    2.9492 H   0  0  0  0  0  0  0  0  0  0  0  0
   11.6580    9.2880    2.4220 H   0  0  0  0  0  0  0  0  0  0  0  0
   12.6730   10.3480    3.3590 H   0  0  0  0  0  0  0  0  0  0  0  0
   13.7477    8.7641   -1.5457 H   0  0  0  0  0  0  0  0  0  0  0  0
   18.2499   13.0436    1.0971 H   0  0  0  0  0  0  0  0  0  0  0  0
   20.4310   12.1680   -0.3570 H   0  0  0  0  0  0  0  0  0  0  0  0
   19.3638   11.4236    2.7320 H   0  0  0  0  0  0  0  0  0  0  0  0
   21.3380   12.3760    0.9780 H   0  0  0  0  0  0  0  0  0  0  0  0
  1  2  1  0
  2  3  1  0
  2  4  1  0
  4  5  1  0
  4  6  1  0
  6  7  2  0
  6  8  1  0
  8  9  1  0
  9 10  2  0
  9 11  2  0
  9 12  1  0
 12 13  1  0
 13 14  1  0
 14 15  1  0
 15 16  1  0
 16 17  1  0
 17 18  1  0
 18 19  2  0
 19 20  1  0
 20 21  2  0
 21 22  1  0
 21 23  1  0
 23 24  2  0
 24 25  1  0
 25 26  2  0
 16 27  1  0
 27 28  1  0
 27 29  1  0
 29 30  1  0
 29 14  1  0
 26 17  1  0
 26 20  1  0
  1 31  1  0
  1 32  1  0
  1 33  1  0
  2 34  1  0
  3 35  1  0
  3 36  1  0
  3 37  1  0
  4 38  1  1
  5 39  1  0
  5 40  1  0
  5 41  1  0
  8 42  1  0
 13 43  1  0
 13 44  1  0
 14 45  1  6
 16 46  1  6
 18 47  1  0
 22 48  1  0
 22 49  1  0
 24 50  1  0
 27 51  1  1
 28 52  1  0
 29 53  1  1
 30 54  1  0
M  CHG  1   5   1
M  END
>  <meeko>  (3) 
{"is_sidechain": [false], "free_energy": -8.369, "intermolecular_energy": -12.739, "internal_energy": -1.06}

$$$$
3coz_ligand
     RDKit          3D

 54 56  0  0  0  0  0  0  0  0999 V2000
   13.8480   10.7040    8.0460 C   0  0  0  0  0  0  0  0  0  0  0  0
   14.5640    9.3510    8.1540 C   0  0  0  0  0  0  0  0  0  0  0  0
   13.5880    8.2490    7.7240 C   0  0  0  0  0  0  0  0  0  0  0  0
   15.8670    9.3040    7.3260 C   0  0  1  0  0  0  0  0  0  0  0  0
   16.4570    7.9060    7.3980 N   0  0  0  0  0  0  0  0  0  0  0  0
   15.6130    9.6440    5.8430 C   0  0  0  0  0  0  0  0  0  0  0  0
   15.4970    8.7300    5.0290 O   0  0  0  0  0  0  0  0  0  0  0  0
   15.5940   10.9910    5.4870 N   0  0  0  0  0  0  0  0  0  0  0  0
   15.6520   11.4850    3.8990 S   0  0  0  0  0  0  0  0  0  0  0  0
   16.0590   12.8690    3.9290 O   0  0  0  0  0  0  0  0  0  0  0  0
   14.4010   11.0600    3.3260 O   0  0  0  0  0  0  0  0  0  0  0  0
   16.8520   10.5990    3.2740 O   0  0  0  0  0  0  0  0  0  0  0  0
   18.1580   11.1510    3.2780 C   0  0  0  0  0  0  0  0  0  0  0  0
   18.6560   11.2840    1.8430 C   0  0  1  0  0  0  0  0  0  0  0  0
   18.1820   10.1820    1.0510 O   0  0  0  0  0  0  0  0  0  0  0  0
   17.9360   10.6700   -0.3000 C   0  0  1  0  0  0  0  0  0  0  0  0
   16.5380   10.4480   -0.6270 N   0  0  0  0  0  0  0  0  0  0  0  0
   15.4980   10.2320    0.2390 C   0  0  0  0  0  0  0  0  0  0  0  0
   14.3500   10.1020   -0.3920 N   0  0  0  0  0  0  0  0  0  0  0  0
   14.6710   10.1780   -1.7320 C   0  0  0  0  0  0  0  0  0  0  0  0
   13.9010   10.0900   -2.9040 C   0  0  0  0  0  0  0  0  0  0  0  0
   12.5340    9.8620   -2.9000 N   0  0  0  0  0  0  0  0  0  0  0  0
   14.5210   10.2480   -4.0950 N   0  0  0  0  0  0  0  0  0  0  0  0
   15.8560   10.4540   -4.1040 C   0  0  0  0  0  0  0  0  0  0  0  0
   16.6940   10.5570   -3.0510 N   0  0  0  0  0  0  0  0  0  0  0  0
   16.0280   10.4030   -1.8960 C   0  0  0  0  0  0  0  0  0  0  0  0
   18.3390   12.1520   -0.3150 C   0  0  2  0  0  0  0  0  0  0  0  0
   19.7250   12.3000   -0.6660 O   0  0  0  0  0  0  0  0  0  0  0  0
   18.1560   12.5470    1.1420 C   0  0  2  0  0  0  0  0  0  0  0  0
   18.9040   13.7220    1.4470 O   0  0  0  0  0  0  0  0  0  0  0  0
   13.6428   11.0918    9.0547 H   0  0  0  0  0  0  0  0  0  0  0  0
   14.4878   11.4151    7.5029 H   0  0  0  0  0  0  0  0  0  0  0  0
   12.9001   10.5749    7.5029 H   0  0  0  0  0  0  0  0  0  0  0  0
   14.8696    9.1947    9.1991 H   0  0  0  0  0  0  0  0  0  0  0  0
   13.1619    7.7678    8.6167 H   0  0  0  0  0  0  0  0  0  0  0  0
   12.7787    8.6898    7.1234 H   0  0  0  0  0  0  0  0  0  0  0  0
   14.1234    7.4989    7.1234 H   0  0  0  0  0  0  0  0  0  0  0  0
   16.5575   10.0497    7.7470 H   0  0  0  0  0  0  0  0  0  0  0  0
   15.9160    7.2510    7.9740 H   0  0  0  0  0  0  0  0  0  0  0  0
   16.5470    7.5150    6.4460 H   0  0  0  0  0  0  0  0  0  0  0  0
   17.4190    7.9300    7.7700 H   0  0  0  0  0  0  0  0  0  0  0  0
   15.6930   11.7770    6.1260 H   0  0  0  0  0  0  0  0  0  0  0  0
   18.1356   12.1433    3.7521 H   0  0  0  0  0  0  0  0  0  0  0  0
   18.8340   10.4914    3.8419 H   0  0  0  0  0  0  0  0  0  0  0  0
   19.7529   11.3148    1.9193 H   0  0  0  0  0  0  0  0  0  0  0  0
   18.5235   10.1421   -1.0656 H   0  0  0  0  0  0  0  0  0  0  0  0
   15.6093   10.1741    1.3318 H   0  0  0  0  0  0  0  0  0  0  0  0
   11.9960   10.4950   -3.4800 H   0  0  0  0  0  0  0  0  0  0  0  0
   12.2910    8.8800   -2.8960 H   0  0  0  0  0  0  0  0  0  0  0  0
   16.3196   10.5501   -5.0969 H   0  0  0  0  0  0  0  0  0  0  0  0
   17.7610   12.7506   -1.0344 H   0  0  0  0  0  0  0  0  0  0  0  0
   20.0140   11.4110   -0.9560 H   0  0  0  0  0  0  0  0  0  0  0  0
   17.1342   12.8224    1.4423 H   0  0  0  0  0  0  0  0  0  0  0  0
   18.5180   14.1140    2.2550 H   0  0  0  0  0  0  0  0  0  0  0  0
  1  2  1  0
  2  3  1  0
  2  4  1  0
  4  5  1  0
  4  6  1  0
  6  7  2  0
  6  8  1  0
  8  9  1  0
  9 10  2  0
  9 11  2  0
  9 12  1  0
 12 13  1  0
 13 14  1  0
 14 15  1  0
 15 16  1  0
 16 17  1  0
 17 18  1  0
 18 19  2  0
 19 20  1  0
 20 21  2  0
 21 22  1  0
 21 23  1  0
 23 24  2  0
 24 25  1  0
 25 26  2  0
 16 27  1  0
 27 28  1  0
 27 29  1  0
 29 30  1  0
 29 14  1  0
 26 17  1  0
 26 20  1  0
  1 31  1  0
  1 32  1  0
  1 33  1  0
  2 34  1  0
  3 35  1  0
  3 36  1  0
  3 37  1  0
  4 38  1  1
  5 39  1  0
  5 40  1  0
  5 41  1  0
  8 42  1  0
 13 43  1  0
 13 44  1  0
 14 45  1  1
 16 46  1  6
 18 47  1  0
 22 48  1  0
 22 49  1  0
 24 50  1  0
 27 51  1  6
 28 52  1  0
 29 53  1  6
 30 54  1  0
M  CHG  1   5   1
M  END
>  <meeko>  (4) 
{"is_sidechain": [false], "free_energy": -8.313, "intermolecular_energy": -13.171, "internal_energy": -0.542}

$$$$
3coz_ligand
     RDKit          3D

 54 56  0  0  0  0  0  0  0  0999 V2000
   15.4810   10.1890   -5.3710 C   0  0  0  0  0  0  0  0  0  0  0  0
   14.6120   10.0570   -4.1130 C   0  0  0  0  0  0  0  0  0  0  0  0
   13.5510    8.9790   -4.3650 C   0  0  0  0  0  0  0  0  0  0  0  0
   15.4440    9.7460   -2.8500 C   0  0  1  0  0  0  0  0  0  0  0  0
   16.6150   10.7100   -2.7690 N   0  0  0  0  0  0  0  0  0  0  0  0
   14.6070    9.8980   -1.5630 C   0  0  0  0  0  0  0  0  0  0  0  0
   14.0250   10.9600   -1.3460 O   0  0  0  0  0  0  0  0  0  0  0  0
   14.6060    8.8290   -0.6680 N   0  0  0  0  0  0  0  0  0  0  0  0
   14.0190    8.9780    0.8820 S   0  0  0  0  0  0  0  0  0  0  0  0
   14.4800    7.8110    1.5940 O   0  0  0  0  0  0  0  0  0  0  0  0
   12.6200    9.2860    0.7280 O   0  0  0  0  0  0  0  0  0  0  0  0
   14.7900   10.2800    1.4520 O   0  0  0  0  0  0  0  0  0  0  0  0
   15.7560   10.0870    2.4720 C   0  0  0  0  0  0  0  0  0  0  0  0
   16.9030   11.0740    2.2770 C   0  0  1  0  0  0  0  0  0  0  0  0
   17.9780   10.7670    3.1790 O   0  0  0  0  0  0  0  0  0  0  0  0
   19.2330   11.0840    2.5090 C   0  0  1  0  0  0  0  0  0  0  0  0
   20.0370    9.8770    2.4310 N   0  0  0  0  0  0  0  0  0  0  0  0
   20.9480    9.5380    1.4650 C   0  0  0  0  0  0  0  0  0  0  0  0
   21.5290    8.3840    1.7180 N   0  0  0  0  0  0  0  0  0  0  0  0
   20.9220    7.9260    2.8700 C   0  0  0  0  0  0  0  0  0  0  0  0
   21.0790    6.7550    3.6310 C   0  0  0  0  0  0  0  0  0  0  0  0
   21.9600    5.7410    3.2910 N   0  0  0  0  0  0  0  0  0  0  0  0
   20.3450    6.6180    4.7580 N   0  0  0  0  0  0  0  0  0  0  0  0
   19.4740    7.5970    5.0840 C   0  0  0  0  0  0  0  0  0  0  0  0
   19.2390    8.7570    4.4360 N   0  0  0  0  0  0  0  0  0  0  0  0
   19.9970    8.8480    3.3330 C   0  0  0  0  0  0  0  0  0  0  0  0
   18.8660   11.6640    1.1360 C   0  0  2  0  0  0  0  0  0  0  0  0
   18.7080   13.0910    1.2090 O   0  0  0  0  0  0  0  0  0  0  0  0
   17.5080   11.0320    0.8750 C   0  0  2  0  0  0  0  0  0  0  0  0
   16.7810   11.7760   -0.1000 O   0  0  0  0  0  0  0  0  0  0  0  0
   16.5291   10.3482   -5.0776 H   0  0  0  0  0  0  0  0  0  0  0  0
   15.4033    9.2687   -5.9686 H   0  0  0  0  0  0  0  0  0  0  0  0
   15.1335   11.0447   -5.9686 H   0  0  0  0  0  0  0  0  0  0  0  0
   14.1242   11.0232   -3.9169 H   0  0  0  0  0  0  0  0  0  0  0  0
   13.1777    8.5998   -3.4023 H   0  0  0  0  0  0  0  0  0  0  0  0
   12.7170    9.4120   -4.9368 H   0  0  0  0  0  0  0  0  0  0  0  0
   13.9972    8.1519   -4.9368 H   0  0  0  0  0  0  0  0  0  0  0  0
   15.7899    8.7047   -2.9275 H   0  0  0  0  0  0  0  0  0  0  0  0
   17.5330   10.2520   -2.7210 H   0  0  0  0  0  0  0  0  0  0  0  0
   16.6040   11.3440   -3.5840 H   0  0  0  0  0  0  0  0  0  0  0  0
   16.5290   11.3270   -1.9480 H   0  0  0  0  0  0  0  0  0  0  0  0
   15.0770    7.9380   -0.8040 H   0  0  0  0  0  0  0  0  0  0  0  0
   15.2907   10.2545    3.4546 H   0  0  0  0  0  0  0  0  0  0  0  0
   16.1435    9.0587    2.4213 H   0  0  0  0  0  0  0  0  0  0  0  0
   16.4643   12.0663    2.4581 H   0  0  0  0  0  0  0  0  0  0  0  0
   19.8381   11.8265    3.0498 H   0  0  0  0  0  0  0  0  0  0  0  0
   21.1678   10.1569    0.5826 H   0  0  0  0  0  0  0  0  0  0  0  0
   22.6810    6.0060    2.6320 H   0  0  0  0  0  0  0  0  0  0  0  0
   22.2090    5.1490    4.0720 H   0  0  0  0  0  0  0  0  0  0  0  0
   18.8801    7.4272    5.9942 H   0  0  0  0  0  0  0  0  0  0  0  0
   19.6263   11.4658    0.3661 H   0  0  0  0  0  0  0  0  0  0  0  0
   18.0850   13.2420    1.9490 H   0  0  0  0  0  0  0  0  0  0  0  0
   17.5215   10.0180    0.4488 H   0  0  0  0  0  0  0  0  0  0  0  0
   16.5670   12.6450    0.2940 H   0  0  0  0  0  0  0  0  0  0  0  0
  1  2  1  0
  2  3  1  0
  2  4  1  0
  4  5  1  0
  4  6  1  0
  6  7  2  0
  6  8  1  0
  8  9  1  0
  9 10  2  0
  9 11  2  0
  9 12  1  0
 12 13  1  0
 13 14  1  0
 14 15  1  0
 15 16  1  0
 16 17  1  0
 17 18  1  0
 18 19  2  0
 19 20  1  0
 20 21  2  0
 21 22  1  0
 21 23  1  0
 23 24  2  0
 24 25  1  0
 25 26  2  0
 16 27  1  0
 27 28  1  0
 27 29  1  0
 29 30  1  0
 29 14  1  0
 26 17  1  0
 26 20  1  0
  1 31  1  0
  1 32  1  0
  1 33  1  0
  2 34  1  0
  3 35  1  0
  3 36  1  0
  3 37  1  0
  4 38  1  6
  5 39  1  0
  5 40  1  0
  5 41  1  0
  8 42  1  0
 13 43  1  0
 13 44  1  0
 14 45  1  1
 16 46  1  1
 18 47  1  0
 22 48  1  0
 22 49  1  0
 24 50  1  0
 27 51  1  6
 28 52  1  0
 29 53  1  6
 30 54  1  0
M  CHG  1   5   1
M  END
>  <meeko>  (5) 
{"is_sidechain": [false], "free_energy": -8.248, "intermolecular_energy": -12.547, "internal_energy": -1.067}

$$$$
3coz_ligand
     RDKit          3D

 54 56  0  0  0  0  0  0  0  0999 V2000
   14.0640    7.8210    1.4550 C   0  0  0  0  0  0  0  0  0  0  0  0
   12.9900    8.8250    1.8940 C   0  0  0  0  0  0  0  0  0  0  0  0
   13.0640    8.9820    3.4180 C   0  0  0  0  0  0  0  0  0  0  0  0
   13.1270   10.1870    1.1790 C   0  0  1  0  0  0  0  0  0  0  0  0
   14.2530   10.9790    1.8200 N   0  0  0  0  0  0  0  0  0  0  0  0
   13.4520   10.0150   -0.3190 C   0  0  0  0  0  0  0  0  0  0  0  0
   12.6390    9.4510   -1.0500 O   0  0  0  0  0  0  0  0  0  0  0  0
   14.6980   10.4570   -0.7600 N   0  0  0  0  0  0  0  0  0  0  0  0
   15.2990   10.0490   -2.2570 S   0  0  0  0  0  0  0  0  0  0  0  0
   14.4990   10.7720   -3.2160 O   0  0  0  0  0  0  0  0  0  0  0  0
   15.3840    8.6110   -2.2500 O   0  0  0  0  0  0  0  0  0  0  0  0
   16.7920   10.6710   -2.2450 O   0  0  0  0  0  0  0  0  0  0  0  0
   17.6510   10.3160   -1.1740 C   0  0  0  0  0  0  0  0  0  0  0  0
   17.7740   11.4950   -0.2130 C   0  0  1  0  0  0  0  0  0  0  0  0
   16.8820   11.3200    0.9000 O   0  0  0  0  0  0  0  0  0  0  0  0
   17.5190   11.8880    2.0820 C   0  0  1  0  0  0  0  0  0  0  0  0
   17.6630   10.8420    3.0800 N   0  0  0  0  0  0  0  0  0  0  0  0
   18.6150    9.8580    3.1320 C   0  0  0  0  0  0  0  0  0  0  0  0
   18.4760    9.0930    4.1950 N   0  0  0  0  0  0  0  0  0  0  0  0
   17.3450    9.5670    4.8280 C   0  0  0  0  0  0  0  0  0  0  0  0
   16.6640    9.1680    5.9900 C   0  0  0  0  0  0  0  0  0  0  0  0
   17.0540    8.0890    6.7670 N   0  0  0  0  0  0  0  0  0  0  0  0
   15.5820    9.8800    6.3780 N   0  0  0  0  0  0  0  0  0  0  0  0
   15.1900   10.9230    5.6160 C   0  0  0  0  0  0  0  0  0  0  0  0
   15.7600   11.3960    4.4880 N   0  0  0  0  0  0  0  0  0  0  0  0
   16.8320   10.6630    4.1530 C   0  0  0  0  0  0  0  0  0  0  0  0
   18.8580   12.4800    1.6210 C   0  0  2  0  0  0  0  0  0  0  0  0
   18.6990   13.8520    1.2210 O   0  0  0  0  0  0  0  0  0  0  0  0
   19.1700   11.6430    0.3900 C   0  0  2  0  0  0  0  0  0  0  0  0
   20.1050   12.3110   -0.4540 O   0  0  0  0  0  0  0  0  0  0  0  0
   14.5374    7.3784    2.3438 H   0  0  0  0  0  0  0  0  0  0  0  0
   13.5989    7.0263    0.8532 H   0  0  0  0  0  0  0  0  0  0  0  0
   14.8256    8.3385    0.8532 H   0  0  0  0  0  0  0  0  0  0  0  0
   12.0025    8.4357    1.6055 H   0  0  0  0  0  0  0  0  0  0  0  0
   12.6424    8.0874    3.8997 H   0  0  0  0  0  0  0  0  0  0  0  0
   14.1138    9.1026    3.7236 H   0  0  0  0  0  0  0  0  0  0  0  0
   12.4889    9.8685    3.7236 H   0  0  0  0  0  0  0  0  0  0  0  0
   12.1654   10.7125    1.2749 H   0  0  0  0  0  0  0  0  0  0  0  0
   14.5950   11.7600    1.2480 H   0  0  0  0  0  0  0  0  0  0  0  0
   13.9460   11.3480    2.7350 H   0  0  0  0  0  0  0  0  0  0  0  0
   15.0580   10.3710    2.0330 H   0  0  0  0  0  0  0  0  0  0  0  0
   15.4010   10.9210   -0.1900 H   0  0  0  0  0  0  0  0  0  0  0  0
   17.2339    9.4492   -0.6404 H   0  0  0  0  0  0  0  0  0  0  0  0
   18.6446   10.0579   -1.5691 H   0  0  0  0  0  0  0  0  0  0  0  0
   17.5371   12.3848   -0.8148 H   0  0  0  0  0  0  0  0  0  0  0  0
   16.9279   12.6884    2.5510 H   0  0  0  0  0  0  0  0  0  0  0  0
   19.4021    9.7230    2.3756 H   0  0  0  0  0  0  0  0  0  0  0  0
   16.3030    7.4660    7.0380 H   0  0  0  0  0  0  0  0  0  0  0  0
   17.9390    7.6890    6.4820 H   0  0  0  0  0  0  0  0  0  0  0  0
   14.2906   11.4557    5.9585 H   0  0  0  0  0  0  0  0  0  0  0  0
   19.6310   12.4620    2.4034 H   0  0  0  0  0  0  0  0  0  0  0  0
   17.8620   13.8760    0.7130 H   0  0  0  0  0  0  0  0  0  0  0  0
   19.6566   10.6742    0.5763 H   0  0  0  0  0  0  0  0  0  0  0  0
   20.5150   13.0280    0.0710 H   0  0  0  0  0  0  0  0  0  0  0  0
  1  2  1  0
  2  3  1  0
  2  4  1  0
  4  5  1  0
  4  6  1  0
  6  7  2  0
  6  8  1  0
  8  9  1  0
  9 10  2  0
  9 11  2  0
  9 12  1  0
 12 13  1  0
 13 14  1  0
 14 15  1  0
 15 16  1  0
 16 17  1  0
 17 18  1  0
 18 19  2  0
 19 20  1  0
 20 21  2  0
 21 22  1  0
 21 23  1  0
 23 24  2  0
 24 25  1  0
 25 26  2  0
 16 27  1  0
 27 28  1  0
 27 29  1  0
 29 30  1  0
 29 14  1  0
 26 17  1  0
 26 20  1  0
  1 31  1  0
  1 32  1  0
  1 33  1  0
  2 34  1  0
  3 35  1  0
  3 36  1  0
  3 37  1  0
  4 38  1  6
  5 39  1  0
  5 40  1  0
  5 41  1  0
  8 42  1  0
 13 43  1  0
 13 44  1  0
 14 45  1  6
 16 46  1  1
 18 47  1  0
 22 48  1  0
 22 49  1  0
 24 50  1  0
 27 51  1  1
 28 52  1  0
 29 53  1  1
 30 54  1  0
M  CHG  1   5   1
M  END
>  <meeko>  (6) 
{"is_sidechain": [false], "free_energy": -8.21, "intermolecular_energy": -12.072, "internal_energy": -1.484}

$$$$
3coz_ligand
     RDKit          3D

 54 56  0  0  0  0  0  0  0  0999 V2000
   19.5100    5.0370    4.2410 C   0  0  0  0  0  0  0  0  0  0  0  0
   19.5900    6.5690    4.2050 C   0  0  0  0  0  0  0  0  0  0  0  0
   19.3990    7.1000    5.6310 C   0  0  0  0  0  0  0  0  0  0  0  0
   20.9100    7.0770    3.5860 C   0  0  1  0  0  0  0  0  0  0  0  0
   21.3790    6.0950    2.5260 N   0  0  0  0  0  0  0  0  0  0  0  0
   20.7340    8.4570    2.9190 C   0  0  0  0  0  0  0  0  0  0  0  0
   21.7050    9.2050    2.8180 O   0  0  0  0  0  0  0  0  0  0  0  0
   19.4480    8.8160    2.5170 N   0  0  0  0  0  0  0  0  0  0  0  0
   19.0620   10.3760    2.0860 S   0  0  0  0  0  0  0  0  0  0  0  0
   19.8470   10.6670    0.9100 O   0  0  0  0  0  0  0  0  0  0  0  0
   19.1760   11.1430    3.3000 O   0  0  0  0  0  0  0  0  0  0  0  0
   17.5040   10.2750    1.6650 O   0  0  0  0  0  0  0  0  0  0  0  0
   16.5900    9.7570    2.6170 C   0  0  0  0  0  0  0  0  0  0  0  0
   15.1820    9.7770    2.0300 C   0  0  1  0  0  0  0  0  0  0  0  0
   15.0490   10.8670    1.1030 O   0  0  0  0  0  0  0  0  0  0  0  0
   14.1510   10.4450    0.0370 C   0  0  1  0  0  0  0  0  0  0  0  0
   14.8600   10.5260   -1.2290 N   0  0  0  0  0  0  0  0  0  0  0  0
   16.1450   10.9500   -1.4430 C   0  0  0  0  0  0  0  0  0  0  0  0
   16.4880   10.8640   -2.7120 N   0  0  0  0  0  0  0  0  0  0  0  0
   15.3520   10.4190   -3.3560 C   0  0  0  0  0  0  0  0  0  0  0  0
   15.0640   10.1490   -4.7050 C   0  0  0  0  0  0  0  0  0  0  0  0
   15.9800   10.3300   -5.7290 N   0  0  0  0  0  0  0  0  0  0  0  0
   13.8370    9.6750   -5.0180 N   0  0  0  0  0  0  0  0  0  0  0  0
   12.9360    9.5110   -4.0260 C   0  0  0  0  0  0  0  0  0  0  0  0
   13.0970    9.7350   -2.7050 N   0  0  0  0  0  0  0  0  0  0  0  0
   14.3320   10.1940   -2.4470 C   0  0  0  0  0  0  0  0  0  0  0  0
   13.6860    9.0230    0.3860 C   0  0  2  0  0  0  0  0  0  0  0  0
   12.4920    9.0590    1.1850 O   0  0  0  0  0  0  0  0  0  0  0  0
   14.8350    8.5140    1.2420 C   0  0  2  0  0  0  0  0  0  0  0  0
   14.4180    7.4160    2.0490 O   0  0  0  0  0  0  0  0  0  0  0  0
   19.4922    4.6952    5.2864 H   0  0  0  0  0  0  0  0  0  0  0  0
   18.5933    4.7056    3.7312 H   0  0  0  0  0  0  0  0  0  0  0  0
   20.3872    4.6119    3.7312 H   0  0  0  0  0  0  0  0  0  0  0  0
   18.7899    6.9501    3.5534 H   0  0  0  0  0  0  0  0  0  0  0  0
   19.6797    6.3195    6.3535 H   0  0  0  0  0  0  0  0  0  0  0  0
   20.0353    7.9847    5.7811 H   0  0  0  0  0  0  0  0  0  0  0  0
   18.3450    7.3767    5.7811 H   0  0  0  0  0  0  0  0  0  0  0  0
   21.6459    7.1672    4.3986 H   0  0  0  0  0  0  0  0  0  0  0  0
   21.4680    6.5020    1.5880 H   0  0  0  0  0  0  0  0  0  0  0  0
   22.2890    5.6910    2.8010 H   0  0  0  0  0  0  0  0  0  0  0  0
   20.7380    5.2900    2.4590 H   0  0  0  0  0  0  0  0  0  0  0  0
   18.6180    8.2320    2.5890 H   0  0  0  0  0  0  0  0  0  0  0  0
   16.8683    8.7229    2.8682 H   0  0  0  0  0  0  0  0  0  0  0  0
   16.6177   10.3743    3.5270 H   0  0  0  0  0  0  0  0  0  0  0  0
   14.5090    9.8672    2.8954 H   0  0  0  0  0  0  0  0  0  0  0  0
   13.2633   11.0873   -0.0605 H   0  0  0  0  0  0  0  0  0  0  0  0
   16.8114   11.3186   -0.6492 H   0  0  0  0  0  0  0  0  0  0  0  0
   16.7410   10.9620   -5.5120 H   0  0  0  0  0  0  0  0  0  0  0  0
   16.1830    9.4820   -6.2400 H   0  0  0  0  0  0  0  0  0  0  0  0
   11.9441    9.1485   -4.3338 H   0  0  0  0  0  0  0  0  0  0  0  0
   13.4600    8.4112   -0.4998 H   0  0  0  0  0  0  0  0  0  0  0  0
   11.8320    9.5360    0.6410 H   0  0  0  0  0  0  0  0  0  0  0  0
   15.6979    8.1037    0.6969 H   0  0  0  0  0  0  0  0  0  0  0  0
   14.3960    7.7250    2.9770 H   0  0  0  0  0  0  0  0  0  0  0  0
  1  2  1  0
  2  3  1  0
  2  4  1  0
  4  5  1  0
  4  6  1  0
  6  7  2  0
  6  8  1  0
  8  9  1  0
  9 10  2  0
  9 11  2  0
  9 12  1  0
 12 13  1  0
 13 14  1  0
 14 15  1  0
 15 16  1  0
 16 17  1  0
 17 18  1  0
 18 19  2  0
 19 20  1  0
 20 21  2  0
 21 22  1  0
 21 23  1  0
 23 24  2  0
 24 25  1  0
 25 26  2  0
 16 27  1  0
 27 28  1  0
 27 29  1  0
 29 30  1  0
 29 14  1  0
 26 17  1  0
 26 20  1  0
  1 31  1  0
  1 32  1  0
  1 33  1  0
  2 34  1  0
  3 35  1  0
  3 36  1  0
  3 37  1  0
  4 38  1  1
  5 39  1  0
  5 40  1  0
  5 41  1  0
  8 42  1  0
 13 43  1  0
 13 44  1  0
 14 45  1  1
 16 46  1  6
 18 47  1  0
 22 48  1  0
 22 49  1  0
 24 50  1  0
 27 51  1  6
 28 52  1  0
 29 53  1  6
 30 54  1  0
M  CHG  1   5   1
M  END
>  <meeko>  (7) 
{"is_sidechain": [false], "free_energy": -8.192, "intermolecular_energy": -12.747, "internal_energy": -0.783}

$$$$
3coz_ligand
     RDKit          3D

 54 56  0  0  0  0  0  0  0  0999 V2000
   15.4600   10.4280   -4.2680 C   0  0  0  0  0  0  0  0  0  0  0  0
   14.5270   10.2310   -3.0660 C   0  0  0  0  0  0  0  0  0  0  0  0
   13.3570    9.3380   -3.5000 C   0  0  0  0  0  0  0  0  0  0  0  0
   15.2590    9.6440   -1.8400 C   0  0  1  0  0  0  0  0  0  0  0  0
   16.3310   10.6170   -1.3820 N   0  0  0  0  0  0  0  0  0  0  0  0
   14.2930    9.4040   -0.6610 C   0  0  0  0  0  0  0  0  0  0  0  0
   13.5050   10.2910   -0.3380 O   0  0  0  0  0  0  0  0  0  0  0  0
   14.4110    8.1980    0.0300 N   0  0  0  0  0  0  0  0  0  0  0  0
   13.6670    7.9470    1.4970 S   0  0  0  0  0  0  0  0  0  0  0  0
   13.4320    6.5250    1.5830 O   0  0  0  0  0  0  0  0  0  0  0  0
   12.5970    8.9110    1.5480 O   0  0  0  0  0  0  0  0  0  0  0  0
   14.8040    8.3570    2.5700 O   0  0  0  0  0  0  0  0  0  0  0  0
   14.3860    8.9550    3.7860 C   0  0  0  0  0  0  0  0  0  0  0  0
   15.0260   10.3340    3.9170 C   0  0  1  0  0  0  0  0  0  0  0  0
   16.3950   10.2060    4.3370 O   0  0  0  0  0  0  0  0  0  0  0  0
   17.1600   11.2750    3.7100 C   0  0  1  0  0  0  0  0  0  0  0  0
   18.2070   10.6830    2.8940 N   0  0  0  0  0  0  0  0  0  0  0  0
   18.8390    9.4820    3.0850 C   0  0  0  0  0  0  0  0  0  0  0  0
   19.7180    9.2310    2.1370 N   0  0  0  0  0  0  0  0  0  0  0  0
   19.6950   10.3500    1.3280 C   0  0  0  0  0  0  0  0  0  0  0  0
   20.4110   10.7060    0.1730 C   0  0  0  0  0  0  0  0  0  0  0  0
   21.3880    9.9030   -0.3940 N   0  0  0  0  0  0  0  0  0  0  0  0
   20.1230   11.8840   -0.4250 N   0  0  0  0  0  0  0  0  0  0  0  0
   19.1820   12.6760    0.1330 C   0  0  0  0  0  0  0  0  0  0  0  0
   18.4360   12.4420    1.2320 N   0  0  0  0  0  0  0  0  0  0  0  0
   18.7520   11.2590    1.7800 C   0  0  0  0  0  0  0  0  0  0  0  0
   16.1630   12.1190    2.9040 C   0  0  2  0  0  0  0  0  0  0  0  0
   15.6170   13.1760    3.7130 O   0  0  0  0  0  0  0  0  0  0  0  0
   15.0630   11.1130    2.6040 C   0  0  2  0  0  0  0  0  0  0  0  0
   13.8430   11.7770    2.2810 O   0  0  0  0  0  0  0  0  0  0  0  0
   16.4779   10.6429   -3.9107 H   0  0  0  0  0  0  0  0  0  0  0  0
   15.4710    9.5124   -4.8775 H   0  0  0  0  0  0  0  0  0  0  0  0
   15.0999   11.2699   -4.8775 H   0  0  0  0  0  0  0  0  0  0  0  0
   14.1502   11.2135   -2.7454 H   0  0  0  0  0  0  0  0  0  0  0  0
   12.8443    8.9467   -2.6090 H   0  0  0  0  0  0  0  0  0  0  0  0
   12.6491    9.9276   -4.1011 H   0  0  0  0  0  0  0  0  0  0  0  0
   13.7389    8.4996   -4.1011 H   0  0  0  0  0  0  0  0  0  0  0  0
   15.6974    8.6814   -2.1421 H   0  0  0  0  0  0  0  0  0  0  0  0
   16.4850   10.6240   -0.3670 H   0  0  0  0  0  0  0  0  0  0  0  0
   17.2250   10.4000   -1.8520 H   0  0  0  0  0  0  0  0  0  0  0  0
   16.1040   11.5810   -1.6710 H   0  0  0  0  0  0  0  0  0  0  0  0
   15.0520    7.4420   -0.1980 H   0  0  0  0  0  0  0  0  0  0  0  0
   13.2907    9.0567    3.7878 H   0  0  0  0  0  0  0  0  0  0  0  0
   14.6953    8.3237    4.6321 H   0  0  0  0  0  0  0  0  0  0  0  0
   14.4040   10.8730    4.6468 H   0  0  0  0  0  0  0  0  0  0  0  0
   17.6633   11.9300    4.4365 H   0  0  0  0  0  0  0  0  0  0  0  0
   18.6361    8.8076    3.9300 H   0  0  0  0  0  0  0  0  0  0  0  0
   21.6220   10.1300   -1.3530 H   0  0  0  0  0  0  0  0  0  0  0  0
   22.1340    9.6670    0.2460 H   0  0  0  0  0  0  0  0  0  0  0  0
   19.0007   13.6352   -0.3740 H   0  0  0  0  0  0  0  0  0  0  0  0
   16.6136   12.5928    2.0194 H   0  0  0  0  0  0  0  0  0  0  0  0
   16.3940   13.6370    4.0910 H   0  0  0  0  0  0  0  0  0  0  0  0
   15.2273   10.4643    1.7310 H   0  0  0  0  0  0  0  0  0  0  0  0
   13.8120   12.6040    2.8020 H   0  0  0  0  0  0  0  0  0  0  0  0
  1  2  1  0
  2  3  1  0
  2  4  1  0
  4  5  1  0
  4  6  1  0
  6  7  2  0
  6  8  1  0
  8  9  1  0
  9 10  2  0
  9 11  2  0
  9 12  1  0
 12 13  1  0
 13 14  1  0
 14 15  1  0
 15 16  1  0
 16 17  1  0
 17 18  1  0
 18 19  2  0
 19 20  1  0
 20 21  2  0
 21 22  1  0
 21 23  1  0
 23 24  2  0
 24 25  1  0
 25 26  2  0
 16 27  1  0
 27 28  1  0
 27 29  1  0
 29 30  1  0
 29 14  1  0
 26 17  1  0
 26 20  1  0
  1 31  1  0
  1 32  1  0
  1 33  1  0
  2 34  1  0
  3 35  1  0
  3 36  1  0
  3 37  1  0
  4 38  1  6
  5 39  1  0
  5 40  1  0
  5 41  1  0
  8 42  1  0
 13 43  1  0
 13 44  1  0
 14 45  1  1
 16 46  1  1
 18 47  1  0
 22 48  1  0
 22 49  1  0
 24 50  1  0
 27 51  1  6
 28 52  1  0
 29 53  1  6
 30 54  1  0
M  CHG  1   5   1
M  END
>  <meeko>  (8) 
{"is_sidechain": [false], "free_energy": -8.049, "intermolecular_energy": -12.656, "internal_energy": -0.655}

$$$$
3coz_ligand
     RDKit          3D

 54 56  0  0  0  0  0  0  0  0999 V2000
   15.9580    9.3190    7.2460 C   0  0  0  0  0  0  0  0  0  0  0  0
   14.5600    9.6980    6.7400 C   0  0  0  0  0  0  0  0  0  0  0  0
   13.8310   10.4630    7.8510 C   0  0  0  0  0  0  0  0  0  0  0  0
   14.6070   10.5150    5.4300 C   0  0  1  0  0  0  0  0  0  0  0  0
   16.0350   10.9580    5.1660 N   0  0  0  0  0  0  0  0  0  0  0  0
   14.1310    9.6830    4.2210 C   0  0  0  0  0  0  0  0  0  0  0  0
   13.6910    8.5490    4.4080 O   0  0  0  0  0  0  0  0  0  0  0  0
   14.2870   10.2430    2.9550 N   0  0  0  0  0  0  0  0  0  0  0  0
   14.1190    9.3430    1.5660 S   0  0  0  0  0  0  0  0  0  0  0  0
   12.6990    9.1730    1.3730 O   0  0  0  0  0  0  0  0  0  0  0  0
   15.0150    8.2270    1.7280 O   0  0  0  0  0  0  0  0  0  0  0  0
   14.6910   10.3220    0.4120 O   0  0  0  0  0  0  0  0  0  0  0  0
   15.8700    9.9270   -0.2710 C   0  0  0  0  0  0  0  0  0  0  0  0
   16.9360   11.0050   -0.1030 C   0  0  1  0  0  0  0  0  0  0  0  0
   17.4460   10.9910    1.2410 O   0  0  0  0  0  0  0  0  0  0  0  0
   18.8570   11.3480    1.1910 C   0  0  1  0  0  0  0  0  0  0  0  0
   19.6330   10.2560    1.7540 N   0  0  0  0  0  0  0  0  0  0  0  0
   20.9400    9.9360    1.4940 C   0  0  0  0  0  0  0  0  0  0  0  0
   21.3460    8.9030    2.2030 N   0  0  0  0  0  0  0  0  0  0  0  0
   20.2310    8.5000    2.9100 C   0  0  0  0  0  0  0  0  0  0  0  0
   20.0060    7.4510    3.8180 C   0  0  0  0  0  0  0  0  0  0  0  0
   20.9790    6.5310    4.1730 N   0  0  0  0  0  0  0  0  0  0  0  0
   18.7830    7.3430    4.3840 N   0  0  0  0  0  0  0  0  0  0  0  0
   17.8270    8.2290    4.0300 C   0  0  0  0  0  0  0  0  0  0  0  0
   17.9260    9.2690    3.1750 N   0  0  0  0  0  0  0  0  0  0  0  0
   19.1590    9.3380    2.6500 C   0  0  0  0  0  0  0  0  0  0  0  0
   19.1890   11.6380   -0.2800 C   0  0  2  0  0  0  0  0  0  0  0  0
   18.9730   13.0260   -0.5870 O   0  0  0  0  0  0  0  0  0  0  0  0
   18.1480   10.8050   -1.0110 C   0  0  2  0  0  0  0  0  0  0  0  0
   17.9670   11.2780   -2.3440 O   0  0  0  0  0  0  0  0  0  0  0  0
   15.9620    9.3179    8.3460 H   0  0  0  0  0  0  0  0  0  0  0  0
   16.2221    8.3168    6.8774 H   0  0  0  0  0  0  0  0  0  0  0  0
   16.6922   10.0505    6.8774 H   0  0  0  0  0  0  0  0  0  0  0  0
   14.0101    8.7769    6.4967 H   0  0  0  0  0  0  0  0  0  0  0  0
   14.1751   10.1019    8.8314 H   0  0  0  0  0  0  0  0  0  0  0  0
   14.0477   11.5375    7.7593 H   0  0  0  0  0  0  0  0  0  0  0  0
   12.7473   10.2983    7.7593 H   0  0  0  0  0  0  0  0  0  0  0  0
   13.9374   11.3792    5.5517 H   0  0  0  0  0  0  0  0  0  0  0  0
   16.7060   10.1850    5.0810 H   0  0  0  0  0  0  0  0  0  0  0  0
   16.0730   11.5260    4.3040 H   0  0  0  0  0  0  0  0  0  0  0  0
   16.3720   11.5840    5.9140 H   0  0  0  0  0  0  0  0  0  0  0  0
   14.6520   11.1720    2.7560 H   0  0  0  0  0  0  0  0  0  0  0  0
   16.2373    8.9787    0.1484 H   0  0  0  0  0  0  0  0  0  0  0  0
   15.6484    9.7917   -1.3399 H   0  0  0  0  0  0  0  0  0  0  0  0
   16.4349   11.9500   -0.3599 H   0  0  0  0  0  0  0  0  0  0  0  0
   19.0990   12.2420    1.7844 H   0  0  0  0  0  0  0  0  0  0  0  0
   21.5750   10.4780    0.7777 H   0  0  0  0  0  0  0  0  0  0  0  0
   21.9240    6.8940    4.1850 H   0  0  0  0  0  0  0  0  0  0  0  0
   20.6880    5.9060    4.9130 H   0  0  0  0  0  0  0  0  0  0  0  0
   16.8421    8.0848    4.4981 H   0  0  0  0  0  0  0  0  0  0  0  0
   20.2330   11.4109   -0.5419 H   0  0  0  0  0  0  0  0  0  0  0  0
   18.8700   13.0610   -1.5610 H   0  0  0  0  0  0  0  0  0  0  0  0
   18.3956    9.7434   -1.1585 H   0  0  0  0  0  0  0  0  0  0  0  0
   17.5890   12.1780   -2.2880 H   0  0  0  0  0  0  0  0  0  0  0  0
  1  2  1  0
  2  3  1  0
  2  4  1  0
  4  5  1  0
  4  6  1  0
  6  7  2  0
  6  8  1  0
  8  9  1  0
  9 10  2  0
  9 11  2  0
  9 12  1  0
 12 13  1  0
 13 14  1  0
 14 15  1  0
 15 16  1  0
 16 17  1  0
 17 18  1  0
 18 19  2  0
 19 20  1  0
 20 21  2  0
 21 22  1  0
 21 23  1  0
 23 24  2  0
 24 25  1  0
 25 26  2  0
 16 27  1  0
 27 28  1  0
 27 29  1  0
 29 30  1  0
 29 14  1  0
 26 17  1  0
 26 20  1  0
  1 31  1  0
  1 32  1  0
  1 33  1  0
  2 34  1  0
  3 35  1  0
  3 36  1  0
  3 37  1  0
  4 38  1  1
  5 39  1  0
  5 40  1  0
  5 41  1  0
  8 42  1  0
 13 43  1  0
 13 44  1  0
 14 45  1  6
 16 46  1  1
 18 47  1  0
 22 48  1  0
 22 49  1  0
 24 50  1  0
 27 51  1  6
 28 52  1  0
 29 53  1  6
 30 54  1  0
M  CHG  1   5   1
M  END
>  <meeko>  (9) 
{"is_sidechain": [false], "free_energy": -7.922, "intermolecular_energy": -11.991, "internal_energy": -1.127}

$$$$
