2yfe_ligand
     RDKit          3D

 48 49  0  0  0  0  0  0  0  0999 V2000
   13.8970   19.7410   48.7080 C   0  0  0  0  0  0  0  0  0  0  0  0
   14.6900   20.0870   47.5720 O   0  0  0  0  0  0  0  0  0  0  0  0
   15.6290   21.0290   47.9160 C   0  0  0  0  0  0  0  0  0  0  0  0
   15.2150   22.3020   48.3080 C   0  0  0  0  0  0  0  0  0  0  0  0
   16.1430   23.2990   48.6700 C   0  0  0  0  0  0  0  0  0  0  0  0
   15.5720   24.6480   49.0600 C   0  0  0  0  0  0  0  0  0  0  0  0
   14.5890   24.5410   50.2310 C   0  0  0  0  0  0  0  0  0  0  0  0
   15.0460   25.3450   51.4260 C   0  0  0  0  0  0  0  0  0  0  0  0
   14.1370   26.0800   52.1960 C   0  0  0  0  0  0  0  0  0  0  0  0
   14.5810   26.8260   53.2910 C   0  0  0  0  0  0  0  0  0  0  0  0
   15.9360   26.8450   53.6200 C   0  0  0  0  0  0  0  0  0  0  0  0
   16.8490   26.1210   52.8550 C   0  0  0  0  0  0  0  0  0  0  0  0
   16.4060   25.3750   51.7630 C   0  0  0  0  0  0  0  0  0  0  0  0
   17.5290   22.9970   48.6610 C   0  0  0  0  0  0  0  0  0  0  0  0
   18.6160   23.9980   49.0500 C   0  0  0  0  0  0  0  0  0  0  0  0
   18.8580   24.9910   48.2990 O   0  0  0  0  0  0  0  0  0  0  0  0
   19.2130   23.7610   50.1550 O   0  0  0  0  0  0  0  0  0  0  0  0
   17.9110   21.6830   48.2720 C   0  0  0  0  0  0  0  0  0  0  0  0
   19.2420   21.3240   48.2180 O   0  0  0  0  0  0  0  0  0  0  0  0
   16.9820   20.6850   47.9200 C   0  0  0  0  0  0  0  0  0  0  0  0
   17.4360   19.2990   47.5210 C   0  0  0  0  0  0  0  0  0  0  0  0
   17.6990   19.1800   46.0390 C   0  0  0  0  0  0  0  0  0  0  0  0
   17.0570   18.4280   45.1240 C   0  0  0  0  0  0  0  0  0  0  0  0
   15.8890   17.5250   45.4060 C   0  0  0  0  0  0  0  0  0  0  0  0
   17.4890   18.4510   43.6820 C   0  0  0  0  0  0  0  0  0  0  0  0
   14.4496   19.9821   49.6281 H   0  0  0  0  0  0  0  0  0  0  0  0
   12.9561   20.3104   48.6855 H   0  0  0  0  0  0  0  0  0  0  0  0
   13.6745   18.6640   48.6855 H   0  0  0  0  0  0  0  0  0  0  0  0
   14.1399   22.5330   48.3352 H   0  0  0  0  0  0  0  0  0  0  0  0
   16.3989   25.3126   49.3506 H   0  0  0  0  0  0  0  0  0  0  0  0
   15.0246   25.0475   48.1935 H   0  0  0  0  0  0  0  0  0  0  0  0
   13.6067   24.9143   49.9059 H   0  0  0  0  0  0  0  0  0  0  0  0
   14.5320   23.4847   50.5326 H   0  0  0  0  0  0  0  0  0  0  0  0
   13.0678   26.0703   51.9378 H   0  0  0  0  0  0  0  0  0  0  0  0
   13.8610   27.3988   53.8940 H   0  0  0  0  0  0  0  0  0  0  0  0
   16.2843   27.4313   54.4831 H   0  0  0  0  0  0  0  0  0  0  0  0
   17.9183   26.1380   53.1124 H   0  0  0  0  0  0  0  0  0  0  0  0
   17.1299   24.8056   51.1615 H   0  0  0  0  0  0  0  0  0  0  0  0
   19.7480   22.0990   48.5890 H   0  0  0  0  0  0  0  0  0  0  0  0
   18.3629   19.0617   48.0638 H   0  0  0  0  0  0  0  0  0  0  0  0
   16.6276   18.5972   47.7740 H   0  0  0  0  0  0  0  0  0  0  0  0
   18.5285   19.7911   45.6536 H   0  0  0  0  0  0  0  0  0  0  0  0
   15.7580   17.4237   46.4935 H   0  0  0  0  0  0  0  0  0  0  0  0
   14.9778   17.9558   44.9655 H   0  0  0  0  0  0  0  0  0  0  0  0
   16.0764   16.5347   44.9655 H   0  0  0  0  0  0  0  0  0  0  0  0
   18.5862   18.5094   43.6288 H   0  0  0  0  0  0  0  0  0  0  0  0
   17.1460   17.5333   43.1818 H   0  0  0  0  0  0  0  0  0  0  0  0
   17.0505   19.3271   43.1818 H   0  0  0  0  0  0  0  0  0  0  0  0
  1  2  1  0
  2  3  1  0
  3  4  2  0
  4  5  1  0
  5  6  1  0
  6  7  1  0
  7  8  1  0
  8  9  2  0
  9 10  1  0
 10 11  2  0
 11 12  1  0
 12 13  2  0
  5 14  2  0
 14 15  1  0
 15 16  2  0
 15 17  1  0
 14 18  1  0
 18 19  1  0
 18 20  2  0
 20 21  1  0
 21 22  1  0
 22 23  2  3
 23 24  1  0
 23 25  1  0
 20  3  1  0
 13  8  1  0
  1 26  1  0
  1 27  1  0
  1 28  1  0
  4 29  1  0
  6 30  1  0
  6 31  1  0
  7 32  1  0
  7 33  1  0
  9 34  1  0
 10 35  1  0
 11 36  1  0
 12 37  1  0
 13 38  1  0
 19 39  1  0
 21 40  1  0
 21 41  1  0
 22 42  1  0
 24 43  1  0
 24 44  1  0
 24 45  1  0
 25 46  1  0
 25 47  1  0
 25 48  1  0
M  CHG  1  17  -1
M  END
>  <meeko>  (1) 
{"is_sidechain": [false], "free_energy": -7.839, "intermolecular_energy": -11.276, "internal_energy": -1.49}

$$$$
2yfe_ligand
     RDKit          3D

 48 49  0  0  0  0  0  0  0  0999 V2000
   15.1230   22.3070   48.8430 C   0  0  0  0  0  0  0  0  0  0  0  0
   16.1460   22.7090   47.9330 O   0  0  0  0  0  0  0  0  0  0  0  0
   17.1760   21.7990   47.9430 C   0  0  0  0  0  0  0  0  0  0  0  0
   16.8940   20.4400   47.8040 C   0  0  0  0  0  0  0  0  0  0  0  0
   17.9200   19.4720   47.8090 C   0  0  0  0  0  0  0  0  0  0  0  0
   17.4870   18.0260   47.6690 C   0  0  0  0  0  0  0  0  0  0  0  0
   16.2050   17.8840   46.8410 C   0  0  0  0  0  0  0  0  0  0  0  0
   16.5010   17.6950   45.3710 C   0  0  0  0  0  0  0  0  0  0  0  0
   15.5060   17.2760   44.4800 C   0  0  0  0  0  0  0  0  0  0  0  0
   15.8030   17.0960   43.1270 C   0  0  0  0  0  0  0  0  0  0  0  0
   17.0950   17.3290   42.6580 C   0  0  0  0  0  0  0  0  0  0  0  0
   18.0930   17.7410   43.5390 C   0  0  0  0  0  0  0  0  0  0  0  0
   17.7980   17.9220   44.8910 C   0  0  0  0  0  0  0  0  0  0  0  0
   19.2700   19.8870   47.9290 C   0  0  0  0  0  0  0  0  0  0  0  0
   20.4560   18.9240   47.9290 C   0  0  0  0  0  0  0  0  0  0  0  0
   20.5420   18.0290   47.0350 O   0  0  0  0  0  0  0  0  0  0  0  0
   21.3160   19.1090   48.8570 O   0  0  0  0  0  0  0  0  0  0  0  0
   19.5180   21.2830   48.0510 C   0  0  0  0  0  0  0  0  0  0  0  0
   20.8050   21.7590   48.1950 O   0  0  0  0  0  0  0  0  0  0  0  0
   18.4940   22.2500   48.0370 C   0  0  0  0  0  0  0  0  0  0  0  0
   18.8080   23.7240   48.1620 C   0  0  0  0  0  0  0  0  0  0  0  0
   18.9510   24.1660   49.5970 C   0  0  0  0  0  0  0  0  0  0  0  0
   18.1460   24.9690   50.3200 C   0  0  0  0  0  0  0  0  0  0  0  0
   16.8780   25.6040   49.8200 C   0  0  0  0  0  0  0  0  0  0  0  0
   18.4800   25.2930   51.7510 C   0  0  0  0  0  0  0  0  0  0  0  0
   15.4757   22.4456   49.8757 H   0  0  0  0  0  0  0  0  0  0  0  0
   14.2239   22.9187   48.6774 H   0  0  0  0  0  0  0  0  0  0  0  0
   14.8808   21.2468   48.6774 H   0  0  0  0  0  0  0  0  0  0  0  0
   15.8491   20.1162   47.6880 H   0  0  0  0  0  0  0  0  0  0  0  0
   18.2918   17.4612   47.1758 H   0  0  0  0  0  0  0  0  0  0  0  0
   17.2836   17.6349   48.6768 H   0  0  0  0  0  0  0  0  0  0  0  0
   15.6413   17.0124   47.2051 H   0  0  0  0  0  0  0  0  0  0  0  0
   15.6216   18.8096   46.9548 H   0  0  0  0  0  0  0  0  0  0  0  0
   14.4862   17.0877   44.8468 H   0  0  0  0  0  0  0  0  0  0  0  0
   15.0164   16.7700   42.4306 H   0  0  0  0  0  0  0  0  0  0  0  0
   17.3268   17.1876   41.5920 H   0  0  0  0  0  0  0  0  0  0  0  0
   19.1127   17.9234   43.1690 H   0  0  0  0  0  0  0  0  0  0  0  0
   18.5886   18.2449   45.5844 H   0  0  0  0  0  0  0  0  0  0  0  0
   21.0410   22.1760   47.3210 H   0  0  0  0  0  0  0  0  0  0  0  0
   19.7510   23.9295   47.6343 H   0  0  0  0  0  0  0  0  0  0  0  0
   17.9680   24.2824   47.7231 H   0  0  0  0  0  0  0  0  0  0  0  0
   19.8344   23.7795   50.1263 H   0  0  0  0  0  0  0  0  0  0  0  0
   16.2605   25.9133   50.6762 H   0  0  0  0  0  0  0  0  0  0  0  0
   17.1251   26.4847   49.2090 H   0  0  0  0  0  0  0  0  0  0  0  0
   16.3208   24.8786   49.2090 H   0  0  0  0  0  0  0  0  0  0  0  0
   17.8535   24.6852   52.4204 H   0  0  0  0  0  0  0  0  0  0  0  0
   19.5407   25.0706   51.9393 H   0  0  0  0  0  0  0  0  0  0  0  0
   18.2900   26.3600   51.9393 H   0  0  0  0  0  0  0  0  0  0  0  0
  1  2  1  0
  2  3  1  0
  3  4  2  0
  4  5  1  0
  5  6  1  0
  6  7  1  0
  7  8  1  0
  8  9  2  0
  9 10  1  0
 10 11  2  0
 11 12  1  0
 12 13  2  0
  5 14  2  0
 14 15  1  0
 15 16  2  0
 15 17  1  0
 14 18  1  0
 18 19  1  0
 18 20  2  0
 20 21  1  0
 21 22  1  0
 22 23  2  3
 23 24  1  0
 23 25  1  0
 20  3  1  0
 13  8  1  0
  1 26  1  0
  1 27  1  0
  1 28  1  0
  4 29  1  0
  6 30  1  0
  6 31  1  0
  7 32  1  0
  7 33  1  0
  9 34  1  0
 10 35  1  0
 11 36  1  0
 12 37  1  0
 13 38  1  0
 19 39  1  0
 21 40  1  0
 21 41  1  0
 22 42  1  0
 24 43  1  0
 24 44  1  0
 24 45  1  0
 25 46  1  0
 25 47  1  0
 25 48  1  0
M  CHG  1  17  -1
M  END
>  <meeko>  (2) 
{"is_sidechain": [false], "free_energy": -7.809, "intermolecular_energy": -11.473, "internal_energy": -1.249}

$$$$
2yfe_ligand
     RDKit          3D

 48 49  0  0  0  0  0  0  0  0999 V2000
   20.9050   22.7800   47.6580 C   0  0  0  0  0  0  0  0  0  0  0  0
   19.9920   22.7700   48.7550 O   0  0  0  0  0  0  0  0  0  0  0  0
   18.8610   22.0630   48.4270 C   0  0  0  0  0  0  0  0  0  0  0  0
   18.9450   20.6840   48.2280 C   0  0  0  0  0  0  0  0  0  0  0  0
   17.8100   19.9190   47.8900 C   0  0  0  0  0  0  0  0  0  0  0  0
   18.0310   18.4340   47.6820 C   0  0  0  0  0  0  0  0  0  0  0  0
   19.4430   18.1260   47.1730 C   0  0  0  0  0  0  0  0  0  0  0  0
   19.4250   17.5240   45.7870 C   0  0  0  0  0  0  0  0  0  0  0  0
   18.3300   17.7030   44.9330 C   0  0  0  0  0  0  0  0  0  0  0  0
   18.3270   17.1280   43.6600 C   0  0  0  0  0  0  0  0  0  0  0  0
   19.4170   16.3690   43.2340 C   0  0  0  0  0  0  0  0  0  0  0  0
   20.5090   16.1820   44.0790 C   0  0  0  0  0  0  0  0  0  0  0  0
   20.5130   16.7560   45.3510 C   0  0  0  0  0  0  0  0  0  0  0  0
   16.5480   20.5560   47.7750 C   0  0  0  0  0  0  0  0  0  0  0  0
   15.2550   19.8190   47.4300 C   0  0  0  0  0  0  0  0  0  0  0  0
   14.2020   20.0430   48.0990 O   0  0  0  0  0  0  0  0  0  0  0  0
   15.3290   19.0110   46.4410 O   0  0  0  0  0  0  0  0  0  0  0  0
   16.5000   21.9590   48.0030 C   0  0  0  0  0  0  0  0  0  0  0  0
   15.3110   22.6510   47.8850 O   0  0  0  0  0  0  0  0  0  0  0  0
   17.6330   22.7220   48.3490 C   0  0  0  0  0  0  0  0  0  0  0  0
   17.5290   24.2110   48.5880 C   0  0  0  0  0  0  0  0  0  0  0  0
   17.2430   24.5470   50.0310 C   0  0  0  0  0  0  0  0  0  0  0  0
   16.1320   25.0850   50.5710 C   0  0  0  0  0  0  0  0  0  0  0  0
   14.8930   25.4650   49.8100 C   0  0  0  0  0  0  0  0  0  0  0  0
   16.0560   25.3480   52.0520 C   0  0  0  0  0  0  0  0  0  0  0  0
   21.9366   22.7913   48.0396 H   0  0  0  0  0  0  0  0  0  0  0  0
   20.7509   21.8801   47.0445 H   0  0  0  0  0  0  0  0  0  0  0  0
   20.7312   23.6763   47.0445 H   0  0  0  0  0  0  0  0  0  0  0  0
   19.9182   20.1831   48.3373 H   0  0  0  0  0  0  0  0  0  0  0  0
   17.8785   17.9153   48.6400 H   0  0  0  0  0  0  0  0  0  0  0  0
   17.3147   18.0886   46.9220 H   0  0  0  0  0  0  0  0  0  0  0  0
   20.0231   19.0602   47.1472 H   0  0  0  0  0  0  0  0  0  0  0  0
   19.8989   17.3941   47.8560 H   0  0  0  0  0  0  0  0  0  0  0  0
   17.4678   18.2994   45.2662 H   0  0  0  0  0  0  0  0  0  0  0  0
   17.4645   17.2738   42.9930 H   0  0  0  0  0  0  0  0  0  0  0  0
   19.4145   15.9180   42.2307 H   0  0  0  0  0  0  0  0  0  0  0  0
   21.3678   15.5820   43.7435 H   0  0  0  0  0  0  0  0  0  0  0  0
   21.3761   16.6046   46.0159 H   0  0  0  0  0  0  0  0  0  0  0  0
   14.6320   21.9790   47.6010 H   0  0  0  0  0  0  0  0  0  0  0  0
   18.4799   24.6819   48.2981 H   0  0  0  0  0  0  0  0  0  0  0  0
   16.6900   24.5881   47.9848 H   0  0  0  0  0  0  0  0  0  0  0  0
   18.0534   24.3216   50.7399 H   0  0  0  0  0  0  0  0  0  0  0  0
   14.0887   25.7117   50.5186 H   0  0  0  0  0  0  0  0  0  0  0  0
   15.1051   26.3394   49.1772 H   0  0  0  0  0  0  0  0  0  0  0  0
   14.5784   24.6221   49.1772 H   0  0  0  0  0  0  0  0  0  0  0  0
   16.3206   24.4323   52.6011 H   0  0  0  0  0  0  0  0  0  0  0  0
   16.7588   26.1512   52.3183 H   0  0  0  0  0  0  0  0  0  0  0  0
   15.0331   25.6526   52.3183 H   0  0  0  0  0  0  0  0  0  0  0  0
  1  2  1  0
  2  3  1  0
  3  4  2  0
  4  5  1  0
  5  6  1  0
  6  7  1  0
  7  8  1  0
  8  9  2  0
  9 10  1  0
 10 11  2  0
 11 12  1  0
 12 13  2  0
  5 14  2  0
 14 15  1  0
 15 16  2  0
 15 17  1  0
 14 18  1  0
 18 19  1  0
 18 20  2  0
 20 21  1  0
 21 22  1  0
 22 23  2  3
 23 24  1  0
 23 25  1  0
 20  3  1  0
 13  8  1  0
  1 26  1  0
  1 27  1  0
  1 28  1  0
  4 29  1  0
  6 30  1  0
  6 31  1  0
  7 32  1  0
  7 33  1  0
  9 34  1  0
 10 35  1  0
 11 36  1  0
 12 37  1  0
 13 38  1  0
 19 39  1  0
 21 40  1  0
 21 41  1  0
 22 42  1  0
 24 43  1  0
 24 44  1  0
 24 45  1  0
 25 46  1  0
 25 47  1  0
 25 48  1  0
M  CHG  1  17  -1
M  END
>  <meeko>  (3) 
{"is_sidechain": [false], "free_energy": -7.697, "intermolecular_energy": -11.339, "internal_energy": -1.223}

$$$$
2yfe_ligand
     RDKit          3D

 48 49  0  0  0  0  0  0  0  0999 V2000
   13.7200   20.3500   47.9470 C   0  0  0  0  0  0  0  0  0  0  0  0
   14.1290   21.6120   48.4720 O   0  0  0  0  0  0  0  0  0  0  0  0
   15.4860   21.7710   48.3260 C   0  0  0  0  0  0  0  0  0  0  0  0
   16.2580   20.7030   47.8680 C   0  0  0  0  0  0  0  0  0  0  0  0
   17.6540   20.8210   47.7040 C   0  0  0  0  0  0  0  0  0  0  0  0
   18.3860   19.5860   47.2170 C   0  0  0  0  0  0  0  0  0  0  0  0
   17.4720   18.3580   47.1610 C   0  0  0  0  0  0  0  0  0  0  0  0
   17.2230   17.9050   45.7410 C   0  0  0  0  0  0  0  0  0  0  0  0
   18.2570   17.8700   44.7990 C   0  0  0  0  0  0  0  0  0  0  0  0
   18.0040   17.4590   43.4880 C   0  0  0  0  0  0  0  0  0  0  0  0
   16.7150   17.0840   43.1100 C   0  0  0  0  0  0  0  0  0  0  0  0
   15.6780   17.1200   44.0400 C   0  0  0  0  0  0  0  0  0  0  0  0
   15.9300   17.5300   45.3500 C   0  0  0  0  0  0  0  0  0  0  0  0
   18.2860   22.0600   47.9820 C   0  0  0  0  0  0  0  0  0  0  0  0
   19.7870   22.2990   47.8220 C   0  0  0  0  0  0  0  0  0  0  0  0
   20.6140   21.4640   48.2970 O   0  0  0  0  0  0  0  0  0  0  0  0
   20.1100   23.3560   47.1800 O   0  0  0  0  0  0  0  0  0  0  0  0
   17.4630   23.1290   48.4300 C   0  0  0  0  0  0  0  0  0  0  0  0
   18.0110   24.3570   48.7430 O   0  0  0  0  0  0  0  0  0  0  0  0
   16.0680   23.0130   48.5860 C   0  0  0  0  0  0  0  0  0  0  0  0
   15.2330   24.1830   49.0580 C   0  0  0  0  0  0  0  0  0  0  0  0
   15.3480   24.4140   50.5440 C   0  0  0  0  0  0  0  0  0  0  0  0
   15.0040   25.5020   51.2610 C   0  0  0  0  0  0  0  0  0  0  0  0
   14.3960   26.7560   50.6980 C   0  0  0  0  0  0  0  0  0  0  0  0
   15.2120   25.5290   52.7520 C   0  0  0  0  0  0  0  0  0  0  0  0
   13.4972   19.6626   48.7764 H   0  0  0  0  0  0  0  0  0  0  0  0
   12.8193   20.4841   47.3299 H   0  0  0  0  0  0  0  0  0  0  0  0
   14.5281   19.9303   47.3299 H   0  0  0  0  0  0  0  0  0  0  0  0
   15.7672   19.7479   47.6295 H   0  0  0  0  0  0  0  0  0  0  0  0
   18.7792   19.7816   46.2085 H   0  0  0  0  0  0  0  0  0  0  0  0
   19.1977   19.3715   47.9277 H   0  0  0  0  0  0  0  0  0  0  0  0
   17.9456   17.5365   47.7185 H   0  0  0  0  0  0  0  0  0  0  0  0
   16.5042   18.6329   47.6057 H   0  0  0  0  0  0  0  0  0  0  0  0
   19.2745   18.1677   45.0923 H   0  0  0  0  0  0  0  0  0  0  0  0
   18.8221   17.4311   42.7533 H   0  0  0  0  0  0  0  0  0  0  0  0
   16.5170   16.7598   42.0777 H   0  0  0  0  0  0  0  0  0  0  0  0
   14.6610   16.8254   43.7417 H   0  0  0  0  0  0  0  0  0  0  0  0
   15.1084   17.5591   46.0808 H   0  0  0  0  0  0  0  0  0  0  0  0
   17.8670   24.9320   47.9420 H   0  0  0  0  0  0  0  0  0  0  0  0
   15.5683   25.0898   48.5333 H   0  0  0  0  0  0  0  0  0  0  0  0
   14.1804   23.9526   48.8366 H   0  0  0  0  0  0  0  0  0  0  0  0
   15.7710   23.5793   51.1223 H   0  0  0  0  0  0  0  0  0  0  0  0
   14.0782   27.4115   51.5222 H   0  0  0  0  0  0  0  0  0  0  0  0
   15.1406   27.2790   50.0799 H   0  0  0  0  0  0  0  0  0  0  0  0
   13.5243   26.4953   50.0799 H   0  0  0  0  0  0  0  0  0  0  0  0
   14.2442   25.4034   53.2596 H   0  0  0  0  0  0  0  0  0  0  0  0
   15.8875   24.7110   53.0429 H   0  0  0  0  0  0  0  0  0  0  0  0
   15.6563   26.4923   53.0429 H   0  0  0  0  0  0  0  0  0  0  0  0
  1  2  1  0
  2  3  1  0
  3  4  2  0
  4  5  1  0
  5  6  1  0
  6  7  1  0
  7  8  1  0
  8  9  2  0
  9 10  1  0
 10 11  2  0
 11 12  1  0
 12 13  2  0
  5 14  2  0
 14 15  1  0
 15 16  2  0
 15 17  1  0
 14 18  1  0
 18 19  1  0
 18 20  2  0
 20 21  1  0
 21 22  1  0
 22 23  2  3
 23 24  1  0
 23 25  1  0
 20  3  1  0
 13  8  1  0
  1 26  1  0
  1 27  1  0
  1 28  1  0
  4 29  1  0
  6 30  1  0
  6 31  1  0
  7 32  1  0
  7 33  1  0
  9 34  1  0
 10 35  1  0
 11 36  1  0
 12 37  1  0
 13 38  1  0
 19 39  1  0
 21 40  1  0
 21 41  1  0
 22 42  1  0
 24 43  1  0
 24 44  1  0
 24 45  1  0
 25 46  1  0
 25 47  1  0
 25 48  1  0
M  CHG  1  17  -1
M  END
>  <meeko>  (4) 
{"is_sidechain": [false], "free_energy": -7.535, "intermolecular_energy": -11.289, "internal_energy": -1.04}

$$$$
2yfe_ligand
     RDKit          3D

 48 49  0  0  0  0  0  0  0  0999 V2000
   16.9520   22.8800   48.5350 C   0  0  0  0  0  0  0  0  0  0  0  0
   18.0160   23.0340   47.5970 O   0  0  0  0  0  0  0  0  0  0  0  0
   18.9610   22.0530   47.7840 C   0  0  0  0  0  0  0  0  0  0  0  0
   18.5680   20.7150   47.8080 C   0  0  0  0  0  0  0  0  0  0  0  0
   19.5020   19.6760   47.9960 C   0  0  0  0  0  0  0  0  0  0  0  0
   18.9510   18.2640   48.0220 C   0  0  0  0  0  0  0  0  0  0  0  0
   17.8980   18.0360   46.9320 C   0  0  0  0  0  0  0  0  0  0  0  0
   18.5280   17.6760   45.6060 C   0  0  0  0  0  0  0  0  0  0  0  0
   17.8960   17.9840   44.3960 C   0  0  0  0  0  0  0  0  0  0  0  0
   18.4890   17.6320   43.1810 C   0  0  0  0  0  0  0  0  0  0  0  0
   19.7150   16.9660   43.1690 C   0  0  0  0  0  0  0  0  0  0  0  0
   20.3480   16.6510   44.3690 C   0  0  0  0  0  0  0  0  0  0  0  0
   19.7570   17.0030   45.5830 C   0  0  0  0  0  0  0  0  0  0  0  0
   20.8770   19.9930   48.1380 C   0  0  0  0  0  0  0  0  0  0  0  0
   21.9720   18.9460   48.3300 C   0  0  0  0  0  0  0  0  0  0  0  0
   22.3330   18.2220   47.3540 O   0  0  0  0  0  0  0  0  0  0  0  0
   22.4770   18.8850   49.5040 O   0  0  0  0  0  0  0  0  0  0  0  0
   21.2410   21.3680   48.0910 C   0  0  0  0  0  0  0  0  0  0  0  0
   22.5570   21.7530   48.2450 O   0  0  0  0  0  0  0  0  0  0  0  0
   20.3070   22.4040   47.8940 C   0  0  0  0  0  0  0  0  0  0  0  0
   20.7440   23.8510   47.8420 C   0  0  0  0  0  0  0  0  0  0  0  0
   20.4070   24.6030   49.1060 C   0  0  0  0  0  0  0  0  0  0  0  0
   19.6670   25.7200   49.2550 C   0  0  0  0  0  0  0  0  0  0  0  0
   18.9900   26.4670   48.1420 C   0  0  0  0  0  0  0  0  0  0  0  0
   19.4580   26.3170   50.6220 C   0  0  0  0  0  0  0  0  0  0  0  0
   17.3533   22.9381   49.5575 H   0  0  0  0  0  0  0  0  0  0  0  0
   16.2125   23.6805   48.3853 H   0  0  0  0  0  0  0  0  0  0  0  0
   16.4698   21.9027   48.3853 H   0  0  0  0  0  0  0  0  0  0  0  0
   17.5049   20.4647   47.6772 H   0  0  0  0  0  0  0  0  0  0  0  0
   19.7796   17.5570   47.8682 H   0  0  0  0  0  0  0  0  0  0  0  0
   18.4681   18.1067   48.9977 H   0  0  0  0  0  0  0  0  0  0  0  0
   17.2343   17.2163   47.2446 H   0  0  0  0  0  0  0  0  0  0  0  0
   17.3363   18.9725   46.7994 H   0  0  0  0  0  0  0  0  0  0  0  0
   16.9276   18.5058   44.4016 H   0  0  0  0  0  0  0  0  0  0  0  0
   17.9890   17.8801   42.2331 H   0  0  0  0  0  0  0  0  0  0  0  0
   20.1816   16.6897   42.2119 H   0  0  0  0  0  0  0  0  0  0  0  0
   21.3139   16.1247   44.3597 H   0  0  0  0  0  0  0  0  0  0  0  0
   20.2592   16.7505   46.5285 H   0  0  0  0  0  0  0  0  0  0  0  0
   23.0080   21.5320   47.3830 H   0  0  0  0  0  0  0  0  0  0  0  0
   21.8331   23.8852   47.6911 H   0  0  0  0  0  0  0  0  0  0  0  0
   20.2050   24.3330   47.0130 H   0  0  0  0  0  0  0  0  0  0  0  0
   20.8222   24.1819   50.0335 H   0  0  0  0  0  0  0  0  0  0  0  0
   18.3085   27.2189   48.5665 H   0  0  0  0  0  0  0  0  0  0  0  0
   19.7483   26.9678   47.5221 H   0  0  0  0  0  0  0  0  0  0  0  0
   18.4173   25.7615   47.5221 H   0  0  0  0  0  0  0  0  0  0  0  0
   19.7181   25.5740   51.3903 H   0  0  0  0  0  0  0  0  0  0  0  0
   20.0993   27.2033   50.7370 H   0  0  0  0  0  0  0  0  0  0  0  0
   18.4039   26.6097   50.7370 H   0  0  0  0  0  0  0  0  0  0  0  0
  1  2  1  0
  2  3  1  0
  3  4  2  0
  4  5  1  0
  5  6  1  0
  6  7  1  0
  7  8  1  0
  8  9  2  0
  9 10  1  0
 10 11  2  0
 11 12  1  0
 12 13  2  0
  5 14  2  0
 14 15  1  0
 15 16  2  0
 15 17  1  0
 14 18  1  0
 18 19  1  0
 18 20  2  0
 20 21  1  0
 21 22  1  0
 22 23  2  3
 23 24  1  0
 23 25  1  0
 20  3  1  0
 13  8  1  0
  1 26  1  0
  1 27  1  0
  1 28  1  0
  4 29  1  0
  6 30  1  0
  6 31  1  0
  7 32  1  0
  7 33  1  0
  9 34  1  0
 10 35  1  0
 11 36  1  0
 12 37  1  0
 13 38  1  0
 19 39  1  0
 21 40  1  0
 21 41  1  0
 22 42  1  0
 24 43  1  0
 24 44  1  0
 24 45  1  0
 25 46  1  0
 25 47  1  0
 25 48  1  0
M  CHG  1  17  -1
M  END
>  <meeko>  (5) 
{"is_sidechain": [false], "free_energy": -7.421, "intermolecular_energy": -10.576, "internal_energy": -1.589}

$$$$
2yfe_ligand
     RDKit          3D

 48 49  0  0  0  0  0  0  0  0999 V2000
   13.9890   20.0200   49.2250 C   0  0  0  0  0  0  0  0  0  0  0  0
   14.6500   20.4690   48.0420 O   0  0  0  0  0  0  0  0  0  0  0  0
   15.5470   21.4630   48.3470 C   0  0  0  0  0  0  0  0  0  0  0  0
   15.2810   22.3290   49.4080 C   0  0  0  0  0  0  0  0  0  0  0  0
   16.1740   23.3630   49.7570 C   0  0  0  0  0  0  0  0  0  0  0  0
   15.7660   24.2490   50.9170 C   0  0  0  0  0  0  0  0  0  0  0  0
   14.3950   24.8970   50.6940 C   0  0  0  0  0  0  0  0  0  0  0  0
   14.5010   26.3950   50.5200 C   0  0  0  0  0  0  0  0  0  0  0  0
   15.3970   26.9560   49.6030 C   0  0  0  0  0  0  0  0  0  0  0  0
   15.4890   28.3430   49.4650 C   0  0  0  0  0  0  0  0  0  0  0  0
   14.6880   29.1770   50.2450 C   0  0  0  0  0  0  0  0  0  0  0  0
   13.7970   28.6270   51.1640 C   0  0  0  0  0  0  0  0  0  0  0  0
   13.7040   27.2410   51.3020 C   0  0  0  0  0  0  0  0  0  0  0  0
   17.3830   23.5130   49.0310 C   0  0  0  0  0  0  0  0  0  0  0  0
   18.4250   24.5890   49.3360 C   0  0  0  0  0  0  0  0  0  0  0  0
   19.1560   24.4860   50.3670 O   0  0  0  0  0  0  0  0  0  0  0  0
   18.4990   25.5410   48.4860 O   0  0  0  0  0  0  0  0  0  0  0  0
   17.6270   22.6010   47.9670 C   0  0  0  0  0  0  0  0  0  0  0  0
   18.7710   22.7020   47.2020 O   0  0  0  0  0  0  0  0  0  0  0  0
   16.7380   21.5630   47.6260 C   0  0  0  0  0  0  0  0  0  0  0  0
   17.0460   20.6130   46.4900 C   0  0  0  0  0  0  0  0  0  0  0  0
   18.1390   19.6320   46.8360 C   0  0  0  0  0  0  0  0  0  0  0  0
   18.0390   18.4290   47.4360 C   0  0  0  0  0  0  0  0  0  0  0  0
   16.7570   17.7900   47.8920 C   0  0  0  0  0  0  0  0  0  0  0  0
   19.2710   17.6050   47.6970 C   0  0  0  0  0  0  0  0  0  0  0  0
   14.5301   20.3876   50.1093 H   0  0  0  0  0  0  0  0  0  0  0  0
   12.9591   20.4062   49.2386 H   0  0  0  0  0  0  0  0  0  0  0  0
   13.9684   18.9203   49.2386 H   0  0  0  0  0  0  0  0  0  0  0  0
   14.3534   22.2023   49.9855 H   0  0  0  0  0  0  0  0  0  0  0  0
   15.7255   23.6393   51.8317 H   0  0  0  0  0  0  0  0  0  0  0  0
   16.5103   25.0540   51.0062 H   0  0  0  0  0  0  0  0  0  0  0  0
   13.9404   24.4653   49.7901 H   0  0  0  0  0  0  0  0  0  0  0  0
   13.7763   24.6999   51.5819 H   0  0  0  0  0  0  0  0  0  0  0  0
   16.0320   26.3015   48.9878 H   0  0  0  0  0  0  0  0  0  0  0  0
   16.1936   28.7778   48.7407 H   0  0  0  0  0  0  0  0  0  0  0  0
   14.7598   30.2691   50.1345 H   0  0  0  0  0  0  0  0  0  0  0  0
   13.1669   29.2848   51.7807 H   0  0  0  0  0  0  0  0  0  0  0  0
   13.0003   26.8103   52.0295 H   0  0  0  0  0  0  0  0  0  0  0  0
   18.8290   23.6570   46.9240 H   0  0  0  0  0  0  0  0  0  0  0  0
   16.1332   20.0511   46.2430 H   0  0  0  0  0  0  0  0  0  0  0  0
   17.3947   21.2142   45.6374 H   0  0  0  0  0  0  0  0  0  0  0  0
   19.1581   19.9412   46.5606 H   0  0  0  0  0  0  0  0  0  0  0  0
   16.7259   17.7745   48.9914 H   0  0  0  0  0  0  0  0  0  0  0  0
   15.9029   18.3678   47.5091 H   0  0  0  0  0  0  0  0  0  0  0  0
   16.7042   16.7601   47.5091 H   0  0  0  0  0  0  0  0  0  0  0  0
   19.4217   17.5042   48.7820 H   0  0  0  0  0  0  0  0  0  0  0  0
   19.1466   16.6077   47.2499 H   0  0  0  0  0  0  0  0  0  0  0  0
   20.1452   18.1008   47.2499 H   0  0  0  0  0  0  0  0  0  0  0  0
  1  2  1  0
  2  3  1  0
  3  4  2  0
  4  5  1  0
  5  6  1  0
  6  7  1  0
  7  8  1  0
  8  9  2  0
  9 10  1  0
 10 11  2  0
 11 12  1  0
 12 13  2  0
  5 14  2  0
 14 15  1  0
 15 16  2  0
 15 17  1  0
 14 18  1  0
 18 19  1  0
 18 20  2  0
 20 21  1  0
 21 22  1  0
 22 23  2  3
 23 24  1  0
 23 25  1  0
 20  3  1  0
 13  8  1  0
  1 26  1  0
  1 27  1  0
  1 28  1  0
  4 29  1  0
  6 30  1  0
  6 31  1  0
  7 32  1  0
  7 33  1  0
  9 34  1  0
 10 35  1  0
 11 36  1  0
 12 37  1  0
 13 38  1  0
 19 39  1  0
 21 40  1  0
 21 41  1  0
 22 42  1  0
 24 43  1  0
 24 44  1  0
 24 45  1  0
 25 46  1  0
 25 47  1  0
 25 48  1  0
M  CHG  1  17  -1
M  END
>  <meeko>  (6) 
{"is_sidechain": [false], "free_energy": -7.4, "intermolecular_energy": -10.692, "internal_energy": -1.442}

$$$$
2yfe_ligand
     RDKit          3D

 48 49  0  0  0  0  0  0  0  0999 V2000
   21.1300   22.7370   47.7630 C   0  0  0  0  0  0  0  0  0  0  0  0
   20.1200   21.8450   48.2340 O   0  0  0  0  0  0  0  0  0  0  0  0
   18.9690   22.5380   48.5220 C   0  0  0  0  0  0  0  0  0  0  0  0
   19.0290   23.6530   49.3580 C   0  0  0  0  0  0  0  0  0  0  0  0
   17.8740   24.3940   49.6810 C   0  0  0  0  0  0  0  0  0  0  0  0
   18.0640   25.5750   50.6130 C   0  0  0  0  0  0  0  0  0  0  0  0
   18.2640   25.1350   52.0670 C   0  0  0  0  0  0  0  0  0  0  0  0
   17.2110   25.7170   52.9820 C   0  0  0  0  0  0  0  0  0  0  0  0
   15.8600   25.7260   52.6180 C   0  0  0  0  0  0  0  0  0  0  0  0
   14.9030   26.2790   53.4730 C   0  0  0  0  0  0  0  0  0  0  0  0
   15.2910   26.8290   54.6940 C   0  0  0  0  0  0  0  0  0  0  0  0
   16.6350   26.8280   55.0620 C   0  0  0  0  0  0  0  0  0  0  0  0
   17.5920   26.2750   54.2100 C   0  0  0  0  0  0  0  0  0  0  0  0
   16.6260   24.0170   49.1240 C   0  0  0  0  0  0  0  0  0  0  0  0
   15.3180   24.7590   49.3950 C   0  0  0  0  0  0  0  0  0  0  0  0
   15.1920   25.9690   49.0350 O   0  0  0  0  0  0  0  0  0  0  0  0
   14.4050   24.0740   49.9710 O   0  0  0  0  0  0  0  0  0  0  0  0
   16.6080   22.8850   48.2630 C   0  0  0  0  0  0  0  0  0  0  0  0
   15.4260   22.4450   47.7030 O   0  0  0  0  0  0  0  0  0  0  0  0
   17.7640   22.1500   47.9340 C   0  0  0  0  0  0  0  0  0  0  0  0
   17.6960   20.9580   47.0060 C   0  0  0  0  0  0  0  0  0  0  0  0
   16.9950   19.7770   47.6320 C   0  0  0  0  0  0  0  0  0  0  0  0
   16.5900   18.6290   47.0540 C   0  0  0  0  0  0  0  0  0  0  0  0
   16.7730   18.2750   45.6050 C   0  0  0  0  0  0  0  0  0  0  0  0
   15.8950   17.5710   47.8690 C   0  0  0  0  0  0  0  0  0  0  0  0
   21.6459   23.1926   48.6210 H   0  0  0  0  0  0  0  0  0  0  0  0
   21.8557   22.1797   47.1525 H   0  0  0  0  0  0  0  0  0  0  0  0
   20.6667   23.5261   47.1525 H   0  0  0  0  0  0  0  0  0  0  0  0
   19.9993   23.9610   49.7746 H   0  0  0  0  0  0  0  0  0  0  0  0
   18.9484   26.1435   50.2895 H   0  0  0  0  0  0  0  0  0  0  0  0
   17.1546   26.1922   50.5677 H   0  0  0  0  0  0  0  0  0  0  0  0
   18.2111   24.0374   52.1169 H   0  0  0  0  0  0  0  0  0  0  0  0
   19.2461   25.5004   52.4017 H   0  0  0  0  0  0  0  0  0  0  0  0
   15.5498   25.2958   51.6543 H   0  0  0  0  0  0  0  0  0  0  0  0
   13.8421   26.2804   53.1823 H   0  0  0  0  0  0  0  0  0  0  0  0
   14.5366   27.2635   55.3664 H   0  0  0  0  0  0  0  0  0  0  0  0
   16.9418   27.2633   56.0245 H   0  0  0  0  0  0  0  0  0  0  0  0
   18.6520   26.2771   54.5040 H   0  0  0  0  0  0  0  0  0  0  0  0
   14.7110   23.0250   48.0850 H   0  0  0  0  0  0  0  0  0  0  0  0
   17.1510   21.2500   46.0962 H   0  0  0  0  0  0  0  0  0  0  0  0
   18.7279   20.6521   46.7789 H   0  0  0  0  0  0  0  0  0  0  0  0
   16.7859   19.8656   48.7083 H   0  0  0  0  0  0  0  0  0  0  0  0
   17.2769   17.3003   45.5265 H   0  0  0  0  0  0  0  0  0  0  0  0
   15.7902   18.2203   45.1140 H   0  0  0  0  0  0  0  0  0  0  0  0
   17.3859   19.0452   45.1140 H   0  0  0  0  0  0  0  0  0  0  0  0
   16.0340   17.7826   48.9395 H   0  0  0  0  0  0  0  0  0  0  0  0
   14.8209   17.5718   47.6315 H   0  0  0  0  0  0  0  0  0  0  0  0
   16.3223   16.5856   47.6315 H   0  0  0  0  0  0  0  0  0  0  0  0
  1  2  1  0
  2  3  1  0
  3  4  2  0
  4  5  1  0
  5  6  1  0
  6  7  1  0
  7  8  1  0
  8  9  2  0
  9 10  1  0
 10 11  2  0
 11 12  1  0
 12 13  2  0
  5 14  2  0
 14 15  1  0
 15 16  2  0
 15 17  1  0
 14 18  1  0
 18 19  1  0
 18 20  2  0
 20 21  1  0
 21 22  1  0
 22 23  2  3
 23 24  1  0
 23 25  1  0
 20  3  1  0
 13  8  1  0
  1 26  1  0
  1 27  1  0
  1 28  1  0
  4 29  1  0
  6 30  1  0
  6 31  1  0
  7 32  1  0
  7 33  1  0
  9 34  1  0
 10 35  1  0
 11 36  1  0
 12 37  1  0
 13 38  1  0
 19 39  1  0
 21 40  1  0
 21 41  1  0
 22 42  1  0
 24 43  1  0
 24 44  1  0
 24 45  1  0
 25 46  1  0
 25 47  1  0
 25 48  1  0
M  CHG  1  17  -1
M  END
>  <meeko>  (7) 
{"is_sidechain": [false], "free_energy": -7.391, "intermolecular_energy": -11.062, "internal_energy": -1.059}

$$$$
2yfe_ligand
     RDKit          3D

 48 49  0  0  0  0  0  0  0  0999 V2000
   19.7390   22.2070   48.0070 C   0  0  0  0  0  0  0  0  0  0  0  0
   19.3650   20.9090   47.5470 O   0  0  0  0  0  0  0  0  0  0  0  0
   18.0310   20.6840   47.7890 C   0  0  0  0  0  0  0  0  0  0  0  0
   17.2210   21.7380   48.2110 C   0  0  0  0  0  0  0  0  0  0  0  0
   15.8480   21.5530   48.4710 C   0  0  0  0  0  0  0  0  0  0  0  0
   15.0770   22.7700   48.9420 C   0  0  0  0  0  0  0  0  0  0  0  0
   15.9590   24.0210   49.0120 C   0  0  0  0  0  0  0  0  0  0  0  0
   15.7750   24.7700   50.3120 C   0  0  0  0  0  0  0  0  0  0  0  0
   16.8690   25.1020   51.1180 C   0  0  0  0  0  0  0  0  0  0  0  0
   16.6770   25.7840   52.3220 C   0  0  0  0  0  0  0  0  0  0  0  0
   15.3900   26.1340   52.7290 C   0  0  0  0  0  0  0  0  0  0  0  0
   14.2940   25.8020   51.9340 C   0  0  0  0  0  0  0  0  0  0  0  0
   14.4850   25.1220   50.7310 C   0  0  0  0  0  0  0  0  0  0  0  0
   15.2680   20.2740   48.2730 C   0  0  0  0  0  0  0  0  0  0  0  0
   13.7890   19.9700   48.5100 C   0  0  0  0  0  0  0  0  0  0  0  0
   12.9230   20.3520   47.6660 O   0  0  0  0  0  0  0  0  0  0  0  0
   13.5250   19.3110   49.5730 O   0  0  0  0  0  0  0  0  0  0  0  0
   16.1220   19.2290   47.8250 C   0  0  0  0  0  0  0  0  0  0  0  0
   15.6330   17.9530   47.6340 O   0  0  0  0  0  0  0  0  0  0  0  0
   17.4920   19.4180   47.5580 C   0  0  0  0  0  0  0  0  0  0  0  0
   18.3590   18.2760   47.0750 C   0  0  0  0  0  0  0  0  0  0  0  0
   18.2460   18.0530   45.5870 C   0  0  0  0  0  0  0  0  0  0  0  0
   19.0930   17.4070   44.7610 C   0  0  0  0  0  0  0  0  0  0  0  0
   20.3730   16.7380   45.1800 C   0  0  0  0  0  0  0  0  0  0  0  0
   18.7910   17.3040   43.2900 C   0  0  0  0  0  0  0  0  0  0  0  0
   19.7425   22.2193   49.1069 H   0  0  0  0  0  0  0  0  0  0  0  0
   20.7444   22.4525   47.6343 H   0  0  0  0  0  0  0  0  0  0  0  0
   19.0183   22.9498   47.6343 H   0  0  0  0  0  0  0  0  0  0  0  0
   17.6636   22.7362   48.3439 H   0  0  0  0  0  0  0  0  0  0  0  0
   14.2497   22.9583   48.2419 H   0  0  0  0  0  0  0  0  0  0  0  0
   14.7035   22.5623   49.9556 H   0  0  0  0  0  0  0  0  0  0  0  0
   17.0127   23.7184   48.9223 H   0  0  0  0  0  0  0  0  0  0  0  0
   15.6665   24.6901   48.1894 H   0  0  0  0  0  0  0  0  0  0  0  0
   17.8855   24.8247   50.8022 H   0  0  0  0  0  0  0  0  0  0  0  0
   17.5419   26.0452   52.9496 H   0  0  0  0  0  0  0  0  0  0  0  0
   15.2397   26.6717   53.6768 H   0  0  0  0  0  0  0  0  0  0  0  0
   13.2784   26.0763   52.2554 H   0  0  0  0  0  0  0  0  0  0  0  0
   13.6174   24.8605   50.1074 H   0  0  0  0  0  0  0  0  0  0  0  0
   15.8040   17.4660   48.4870 H   0  0  0  0  0  0  0  0  0  0  0  0
   19.4076   18.5017   47.3191 H   0  0  0  0  0  0  0  0  0  0  0  0
   18.0146   17.3598   47.5770 H   0  0  0  0  0  0  0  0  0  0  0  0
   17.3491   18.4757   45.1108 H   0  0  0  0  0  0  0  0  0  0  0  0
   20.4290   16.7087   46.2782 H   0  0  0  0  0  0  0  0  0  0  0  0
   20.3971   15.7120   44.7841 H   0  0  0  0  0  0  0  0  0  0  0  0
   21.2292   17.3039   44.7841 H   0  0  0  0  0  0  0  0  0  0  0  0
   17.7582   16.9517   43.1515 H   0  0  0  0  0  0  0  0  0  0  0  0
   18.9071   18.2926   42.8217 H   0  0  0  0  0  0  0  0  0  0  0  0
   19.4870   16.5924   42.8217 H   0  0  0  0  0  0  0  0  0  0  0  0
  1  2  1  0
  2  3  1  0
  3  4  2  0
  4  5  1  0
  5  6  1  0
  6  7  1  0
  7  8  1  0
  8  9  2  0
  9 10  1  0
 10 11  2  0
 11 12  1  0
 12 13  2  0
  5 14  2  0
 14 15  1  0
 15 16  2  0
 15 17  1  0
 14 18  1  0
 18 19  1  0
 18 20  2  0
 20 21  1  0
 21 22  1  0
 22 23  2  3
 23 24  1  0
 23 25  1  0
 20  3  1  0
 13  8  1  0
  1 26  1  0
  1 27  1  0
  1 28  1  0
  4 29  1  0
  6 30  1  0
  6 31  1  0
  7 32  1  0
  7 33  1  0
  9 34  1  0
 10 35  1  0
 11 36  1  0
 12 37  1  0
 13 38  1  0
 19 39  1  0
 21 40  1  0
 21 41  1  0
 22 42  1  0
 24 43  1  0
 24 44  1  0
 24 45  1  0
 25 46  1  0
 25 47  1  0
 25 48  1  0
M  CHG  1  17  -1
M  END
>  <meeko>  (8) 
{"is_sidechain": [false], "free_energy": -7.286, "intermolecular_energy": -10.752, "internal_energy": -1.219}

$$$$
2yfe_ligand
     RDKit          3D

 48 49  0  0  0  0  0  0  0  0999 V2000
   21.2150   19.2400   48.3030 C   0  0  0  0  0  0  0  0  0  0  0  0
   20.0870   19.0880   47.4420 O   0  0  0  0  0  0  0  0  0  0  0  0
   19.0930   19.9650   47.8010 C   0  0  0  0  0  0  0  0  0  0  0  0
   19.4320   21.2240   48.2960 C   0  0  0  0  0  0  0  0  0  0  0  0
   18.4450   22.1570   48.6760 C   0  0  0  0  0  0  0  0  0  0  0  0
   18.9380   23.4840   49.2160 C   0  0  0  0  0  0  0  0  0  0  0  0
   19.2460   24.4840   48.0970 C   0  0  0  0  0  0  0  0  0  0  0  0
   20.7190   24.5130   47.7570 C   0  0  0  0  0  0  0  0  0  0  0  0
   21.2010   23.9410   46.5740 C   0  0  0  0  0  0  0  0  0  0  0  0
   22.5670   23.9680   46.2830 C   0  0  0  0  0  0  0  0  0  0  0  0
   23.4590   24.5640   47.1740 C   0  0  0  0  0  0  0  0  0  0  0  0
   22.9880   25.1320   48.3560 C   0  0  0  0  0  0  0  0  0  0  0  0
   21.6240   25.1060   48.6470 C   0  0  0  0  0  0  0  0  0  0  0  0
   17.0750   21.8200   48.5280 C   0  0  0  0  0  0  0  0  0  0  0  0
   15.9280   22.7610   48.8930 C   0  0  0  0  0  0  0  0  0  0  0  0
   15.7960   23.1620   50.0890 O   0  0  0  0  0  0  0  0  0  0  0  0
   15.1660   23.1030   47.9250 O   0  0  0  0  0  0  0  0  0  0  0  0
   16.7690   20.5340   48.0030 C   0  0  0  0  0  0  0  0  0  0  0  0
   15.4590   20.1290   47.8530 O   0  0  0  0  0  0  0  0  0  0  0  0
   17.7560   19.6070   47.6160 C   0  0  0  0  0  0  0  0  0  0  0  0
   17.3810   18.2530   47.0550 C   0  0  0  0  0  0  0  0  0  0  0  0
   17.1100   18.2960   45.5710 C   0  0  0  0  0  0  0  0  0  0  0  0
   17.8730   17.8400   44.5580 C   0  0  0  0  0  0  0  0  0  0  0  0
   19.2020   17.1560   44.7110 C   0  0  0  0  0  0  0  0  0  0  0  0
   17.4130   17.9920   43.1320 C   0  0  0  0  0  0  0  0  0  0  0  0
   20.8847   19.1955   49.3513 H   0  0  0  0  0  0  0  0  0  0  0  0
   21.9348   18.4307   48.1107 H   0  0  0  0  0  0  0  0  0  0  0  0
   21.6949   20.2109   48.1107 H   0  0  0  0  0  0  0  0  0  0  0  0
   20.4936   21.4956   48.3923 H   0  0  0  0  0  0  0  0  0  0  0  0
   18.1629   23.9108   49.8695 H   0  0  0  0  0  0  0  0  0  0  0  0
   19.8700   23.2986   49.7700 H   0  0  0  0  0  0  0  0  0  0  0  0
   18.6791   24.1983   47.1986 H   0  0  0  0  0  0  0  0  0  0  0  0
   18.9567   25.4862   48.4461 H   0  0  0  0  0  0  0  0  0  0  0  0
   20.5007   23.4679   45.8699 H   0  0  0  0  0  0  0  0  0  0  0  0
   22.9393   23.5189   45.3504 H   0  0  0  0  0  0  0  0  0  0  0  0
   24.5344   24.5857   46.9437 H   0  0  0  0  0  0  0  0  0  0  0  0
   23.6917   25.6008   49.0596 H   0  0  0  0  0  0  0  0  0  0  0  0
   21.2564   25.5543   49.5818 H   0  0  0  0  0  0  0  0  0  0  0  0
   15.4720   19.4200   47.1510 H   0  0  0  0  0  0  0  0  0  0  0  0
   18.2082   17.5524   47.2422 H   0  0  0  0  0  0  0  0  0  0  0  0
   16.4556   17.9296   47.5540 H   0  0  0  0  0  0  0  0  0  0  0  0
   16.1592   18.7637   45.2756 H   0  0  0  0  0  0  0  0  0  0  0  0
   19.4324   17.0374   45.7800 H   0  0  0  0  0  0  0  0  0  0  0  0
   19.1623   16.1663   44.2325 H   0  0  0  0  0  0  0  0  0  0  0  0
   19.9843   17.7635   44.2325 H   0  0  0  0  0  0  0  0  0  0  0  0
   16.3686   18.3371   43.1184 H   0  0  0  0  0  0  0  0  0  0  0  0
   18.0490   18.7278   42.6180 H   0  0  0  0  0  0  0  0  0  0  0  0
   17.4854   17.0222   42.6180 H   0  0  0  0  0  0  0  0  0  0  0  0
  1  2  1  0
  2  3  1  0
  3  4  2  0
  4  5  1  0
  5  6  1  0
  6  7  1  0
  7  8  1  0
  8  9  2  0
  9 10  1  0
 10 11  2  0
 11 12  1  0
 12 13  2  0
  5 14  2  0
 14 15  1  0
 15 16  2  0
 15 17  1  0
 14 18  1  0
 18 19  1  0
 18 20  2  0
 20 21  1  0
 21 22  1  0
 22 23  2  3
 23 24  1  0
 23 25  1  0
 20  3  1  0
 13  8  1  0
  1 26  1  0
  1 27  1  0
  1 28  1  0
  4 29  1  0
  6 30  1  0
  6 31  1  0
  7 32  1  0
  7 33  1  0
  9 34  1  0
 10 35  1  0
 11 36  1  0
 12 37  1  0
 13 38  1  0
 19 39  1  0
 21 40  1  0
 21 41  1  0
 22 42  1  0
 24 43  1  0
 24 44  1  0
 24 45  1  0
 25 46  1  0
 25 47  1  0
 25 48  1  0
M  CHG  1  17  -1
M  END
>  <meeko>  (9) 
{"is_sidechain": [false], "free_energy": -7.152, "intermolecular_energy": -10.302, "internal_energy": -1.476}

$$$$
