3up2_ligand
     RDKit          3D

 40 42  0  0  0  0  0  0  0  0999 V2000
    0.5940   34.2390    1.4310 O   0  0  0  0  0  0  0  0  0  0  0  0
    1.6980   33.6290    1.6030 C   0  0  0  0  0  0  0  0  0  0  0  0
    2.4630   33.2050    0.6820 O   0  0  0  0  0  0  0  0  0  0  0  0
    2.1370   33.3900    3.0350 C   0  0  0  0  0  0  0  0  0  0  0  0
    3.2790   32.6320    3.3270 C   0  0  0  0  0  0  0  0  0  0  0  0
    3.6860   32.4100    4.6520 C   0  0  0  0  0  0  0  0  0  0  0  0
    2.9670   32.9380    5.7270 C   0  0  0  0  0  0  0  0  0  0  0  0
    3.3150   32.7540    7.0710 N   0  0  0  0  0  0  0  0  0  0  0  0
    3.8760   31.7090    7.7950 C   0  0  0  0  0  0  0  0  0  0  0  0
    3.7480   31.6080    9.1240 N   0  0  0  0  0  0  0  0  0  0  0  0
    4.3270   30.5580    9.7220 C   0  0  0  0  0  0  0  0  0  0  0  0
    5.0270   29.5960    9.0400 C   0  0  0  0  0  0  0  0  0  0  0  0
    5.1150   29.7580    7.6740 C   0  0  0  0  0  0  0  0  0  0  0  0
    5.8400   28.7850    6.9450 N   0  0  0  0  0  0  0  0  0  0  0  0
    6.4020   28.9010    5.6460 C   0  0  0  0  0  0  0  0  0  0  0  0
    5.6430   28.6800    4.4890 C   0  0  0  0  0  0  0  0  0  0  0  0
    6.2010   28.8520    3.2230 C   0  0  0  0  0  0  0  0  0  0  0  0
    7.5210   29.2720    3.0970 C   0  0  0  0  0  0  0  0  0  0  0  0
    8.2870   29.5270    4.2360 C   0  0  0  0  0  0  0  0  0  0  0  0
    7.7340   29.3570    5.5100 C   0  0  0  0  0  0  0  0  0  0  0  0
    8.3860   29.5830    6.6980 O   0  0  0  0  0  0  0  0  0  0  0  0
    9.4710   28.7330    7.0260 C   0  0  0  0  0  0  0  0  0  0  0  0
   10.6490   29.2670    6.6390 F   0  0  0  0  0  0  0  0  0  0  0  0
    9.5040   28.5820    8.3700 F   0  0  0  0  0  0  0  0  0  0  0  0
    9.3220   27.5110    6.4730 F   0  0  0  0  0  0  0  0  0  0  0  0
    4.5500   30.8100    7.0560 N   0  0  0  0  0  0  0  0  0  0  0  0
    1.8220   33.6960    5.4320 C   0  0  0  0  0  0  0  0  0  0  0  0
    1.4140   33.9190    4.1120 C   0  0  0  0  0  0  0  0  0  0  0  0
    3.8674   32.2030    2.5025 H   0  0  0  0  0  0  0  0  0  0  0  0
    4.5869   31.8097    4.8472 H   0  0  0  0  0  0  0  0  0  0  0  0
    3.1580   33.5380    7.6850 H   0  0  0  0  0  0  0  0  0  0  0  0
    4.2363   30.4629   10.8141 H   0  0  0  0  0  0  0  0  0  0  0  0
    5.4925   28.7424    9.5545 H   0  0  0  0  0  0  0  0  0  0  0  0
    5.4000   27.8740    7.0490 H   0  0  0  0  0  0  0  0  0  0  0  0
    4.5926   28.3665    4.5809 H   0  0  0  0  0  0  0  0  0  0  0  0
    5.5978   28.6557    2.3244 H   0  0  0  0  0  0  0  0  0  0  0  0
    7.9622   29.4035    2.0980 H   0  0  0  0  0  0  0  0  0  0  0  0
    9.3292   29.8628    4.1315 H   0  0  0  0  0  0  0  0  0  0  0  0
    1.2330   34.1238    6.2566 H   0  0  0  0  0  0  0  0  0  0  0  0
    0.5124   34.5184    3.9173 H   0  0  0  0  0  0  0  0  0  0  0  0
  1  2  2  0
  2  3  1  0
  2  4  1  0
  4  5  2  0
  5  6  1  0
  6  7  2  0
  7  8  1  0
  8  9  1  0
  9 10  2  0
 10 11  1  0
 11 12  2  0
 12 13  1  0
 13 14  1  0
 14 15  1  0
 15 16  2  0
 16 17  1  0
 17 18  2  0
 18 19  1  0
 19 20  2  0
 20 21  1  0
 21 22  1  0
 22 23  1  0
 22 24  1  0
 22 25  1  0
 13 26  2  0
  7 27  1  0
 27 28  2  0
 28  4  1  0
 26  9  1  0
 20 15  1  0
  5 29  1  0
  6 30  1  0
  8 31  1  0
 11 32  1  0
 12 33  1  0
 14 34  1  0
 16 35  1  0
 17 36  1  0
 18 37  1  0
 19 38  1  0
 27 39  1  0
 28 40  1  0
M  CHG  1   3  -1
M  END
>  <meeko>  (1) 
{"is_sidechain": [false], "free_energy": -9.633, "intermolecular_energy": -13.575, "internal_energy": -0.895}

$$$$
3up2_ligand
     RDKit          3D

 40 42  0  0  0  0  0  0  0  0999 V2000
    0.5740   34.2950    1.4720 O   0  0  0  0  0  0  0  0  0  0  0  0
    1.6590   33.6500    1.6350 C   0  0  0  0  0  0  0  0  0  0  0  0
    2.3970   33.1910    0.7080 O   0  0  0  0  0  0  0  0  0  0  0  0
    2.1100   33.4100    3.0640 C   0  0  0  0  0  0  0  0  0  0  0  0
    3.2960   32.7190    3.3440 C   0  0  0  0  0  0  0  0  0  0  0  0
    3.7130   32.4960    4.6660 C   0  0  0  0  0  0  0  0  0  0  0  0
    2.9600   32.9560    5.7490 C   0  0  0  0  0  0  0  0  0  0  0  0
    3.3160   32.7660    7.0900 N   0  0  0  0  0  0  0  0  0  0  0  0
    3.8670   31.7130    7.8100 C   0  0  0  0  0  0  0  0  0  0  0  0
    3.7580   31.6200    9.1400 N   0  0  0  0  0  0  0  0  0  0  0  0
    4.3260   30.5610    9.7330 C   0  0  0  0  0  0  0  0  0  0  0  0
    4.9960   29.5830    9.0450 C   0  0  0  0  0  0  0  0  0  0  0  0
    5.0670   29.7390    7.6770 C   0  0  0  0  0  0  0  0  0  0  0  0
    5.7610   28.7480    6.9410 N   0  0  0  0  0  0  0  0  0  0  0  0
    7.0820   28.8070    6.4230 C   0  0  0  0  0  0  0  0  0  0  0  0
    8.1900   29.0550    7.2450 C   0  0  0  0  0  0  0  0  0  0  0  0
    9.4830   29.0540    6.7230 C   0  0  0  0  0  0  0  0  0  0  0  0
    9.6880   28.7810    5.3740 C   0  0  0  0  0  0  0  0  0  0  0  0
    8.6010   28.5000    4.5430 C   0  0  0  0  0  0  0  0  0  0  0  0
    7.3010   28.4990    5.0590 C   0  0  0  0  0  0  0  0  0  0  0  0
    6.1600   28.2320    4.3420 O   0  0  0  0  0  0  0  0  0  0  0  0
    5.6190   29.2760    3.5530 C   0  0  0  0  0  0  0  0  0  0  0  0
    5.7850   29.0340    2.2350 F   0  0  0  0  0  0  0  0  0  0  0  0
    4.2910   29.3520    3.7970 F   0  0  0  0  0  0  0  0  0  0  0  0
    6.1690   30.4670    3.8680 F   0  0  0  0  0  0  0  0  0  0  0  0
    4.5120   30.7990    7.0640 N   0  0  0  0  0  0  0  0  0  0  0  0
    1.7700   33.6460    5.4650 C   0  0  0  0  0  0  0  0  0  0  0  0
    1.3520   33.8700    4.1480 C   0  0  0  0  0  0  0  0  0  0  0  0
    3.9117   32.3443    2.5130 H   0  0  0  0  0  0  0  0  0  0  0  0
    4.6492   31.9494    4.8523 H   0  0  0  0  0  0  0  0  0  0  0  0
    3.1750   33.5520    7.7050 H   0  0  0  0  0  0  0  0  0  0  0  0
    4.2508   30.4721   10.8268 H   0  0  0  0  0  0  0  0  0  0  0  0
    5.4516   28.7218    9.5558 H   0  0  0  0  0  0  0  0  0  0  0  0
    5.1410   28.3270    6.2550 H   0  0  0  0  0  0  0  0  0  0  0  0
    8.0374   29.2531    8.3162 H   0  0  0  0  0  0  0  0  0  0  0  0
   10.3407   29.2689    7.3774 H   0  0  0  0  0  0  0  0  0  0  0  0
   10.7077   28.7865    4.9614 H   0  0  0  0  0  0  0  0  0  0  0  0
    8.7680   28.2786    3.4785 H   0  0  0  0  0  0  0  0  0  0  0  0
    1.1529   34.0186    6.2959 H   0  0  0  0  0  0  0  0  0  0  0  0
    0.4148   34.4151    3.9619 H   0  0  0  0  0  0  0  0  0  0  0  0
  1  2  2  0
  2  3  1  0
  2  4  1  0
  4  5  2  0
  5  6  1  0
  6  7  2  0
  7  8  1  0
  8  9  1  0
  9 10  2  0
 10 11  1  0
 11 12  2  0
 12 13  1  0
 13 14  1  0
 14 15  1  0
 15 16  2  0
 16 17  1  0
 17 18  2  0
 18 19  1  0
 19 20  2  0
 20 21  1  0
 21 22  1  0
 22 23  1  0
 22 24  1  0
 22 25  1  0
 13 26  2  0
  7 27  1  0
 27 28  2  0
 28  4  1  0
 26  9  1  0
 20 15  1  0
  5 29  1  0
  6 30  1  0
  8 31  1  0
 11 32  1  0
 12 33  1  0
 14 34  1  0
 16 35  1  0
 17 36  1  0
 18 37  1  0
 19 38  1  0
 27 39  1  0
 28 40  1  0
M  CHG  1   3  -1
M  END
>  <meeko>  (2) 
{"is_sidechain": [false], "free_energy": -9.593, "intermolecular_energy": -13.157, "internal_energy": -1.257}

$$$$
3up2_ligand
     RDKit          3D

 40 42  0  0  0  0  0  0  0  0999 V2000
    9.9680   25.1850    9.5010 O   0  0  0  0  0  0  0  0  0  0  0  0
    9.4320   26.3320    9.3800 C   0  0  0  0  0  0  0  0  0  0  0  0
    8.8940   27.0010   10.3170 O   0  0  0  0  0  0  0  0  0  0  0  0
    9.4370   26.9540    7.9970 C   0  0  0  0  0  0  0  0  0  0  0  0
    9.6970   28.3200    7.8160 C   0  0  0  0  0  0  0  0  0  0  0  0
    9.7020   28.8960    6.5360 C   0  0  0  0  0  0  0  0  0  0  0  0
    9.4480   28.1290    5.3970 C   0  0  0  0  0  0  0  0  0  0  0  0
    9.4350   28.6390    4.0930 N   0  0  0  0  0  0  0  0  0  0  0  0
    8.4320   29.0140    3.2060 C   0  0  0  0  0  0  0  0  0  0  0  0
    8.6670   29.2200    1.9050 N   0  0  0  0  0  0  0  0  0  0  0  0
    7.6270   29.5760    1.1390 C   0  0  0  0  0  0  0  0  0  0  0  0
    6.3540   29.7280    1.6230 C   0  0  0  0  0  0  0  0  0  0  0  0
    6.1810   29.4950    2.9710 C   0  0  0  0  0  0  0  0  0  0  0  0
    4.8780   29.6530    3.5000 N   0  0  0  0  0  0  0  0  0  0  0  0
    4.3940   30.6890    4.3430 C   0  0  0  0  0  0  0  0  0  0  0  0
    3.8960   31.8920    3.8260 C   0  0  0  0  0  0  0  0  0  0  0  0
    3.3760   32.8730    4.6690 C   0  0  0  0  0  0  0  0  0  0  0  0
    3.3250   32.6530    6.0420 C   0  0  0  0  0  0  0  0  0  0  0  0
    3.7860   31.4480    6.5770 C   0  0  0  0  0  0  0  0  0  0  0  0
    4.3100   30.4590    5.7370 C   0  0  0  0  0  0  0  0  0  0  0  0
    4.7860   29.2370    6.1460 O   0  0  0  0  0  0  0  0  0  0  0  0
    5.8670   29.2250    7.0600 C   0  0  0  0  0  0  0  0  0  0  0  0
    5.4530   29.4920    8.3170 F   0  0  0  0  0  0  0  0  0  0  0  0
    6.4150   27.9880    7.0570 F   0  0  0  0  0  0  0  0  0  0  0  0
    6.8250   30.1050    6.7010 F   0  0  0  0  0  0  0  0  0  0  0  0
    7.2140   29.1470    3.7580 N   0  0  0  0  0  0  0  0  0  0  0  0
    9.1860   26.7610    5.5810 C   0  0  0  0  0  0  0  0  0  0  0  0
    9.1810   26.1840    6.8560 C   0  0  0  0  0  0  0  0  0  0  0  0
    9.9008   28.9517    8.6932 H   0  0  0  0  0  0  0  0  0  0  0  0
    9.9097   29.9708    6.4282 H   0  0  0  0  0  0  0  0  0  0  0  0
   10.3340   28.8070    3.6690 H   0  0  0  0  0  0  0  0  0  0  0  0
    7.8038   29.7552    0.0682 H   0  0  0  0  0  0  0  0  0  0  0  0
    5.5165   30.0197    0.9722 H   0  0  0  0  0  0  0  0  0  0  0  0
    4.5210   28.7560    3.8180 H   0  0  0  0  0  0  0  0  0  0  0  0
    3.9155   32.0649    2.7399 H   0  0  0  0  0  0  0  0  0  0  0  0
    3.0063   33.8201    4.2491 H   0  0  0  0  0  0  0  0  0  0  0  0
    2.9207   33.4299    6.7076 H   0  0  0  0  0  0  0  0  0  0  0  0
    3.7370   31.2758    7.6623 H   0  0  0  0  0  0  0  0  0  0  0  0
    8.9803   26.1298    4.7039 H   0  0  0  0  0  0  0  0  0  0  0  0
    8.9728   25.1092    6.9633 H   0  0  0  0  0  0  0  0  0  0  0  0
  1  2  2  0
  2  3  1  0
  2  4  1  0
  4  5  2  0
  5  6  1  0
  6  7  2  0
  7  8  1  0
  8  9  1  0
  9 10  2  0
 10 11  1  0
 11 12  2  0
 12 13  1  0
 13 14  1  0
 14 15  1  0
 15 16  2  0
 16 17  1  0
 17 18  2  0
 18 19  1  0
 19 20  2  0
 20 21  1  0
 21 22  1  0
 22 23  1  0
 22 24  1  0
 22 25  1  0
 13 26  2  0
  7 27  1  0
 27 28  2  0
 28  4  1  0
 26  9  1  0
 20 15  1  0
  5 29  1  0
  6 30  1  0
  8 31  1  0
 11 32  1  0
 12 33  1  0
 14 34  1  0
 16 35  1  0
 17 36  1  0
 18 37  1  0
 19 38  1  0
 27 39  1  0
 28 40  1  0
M  CHG  1   3  -1
M  END
>  <meeko>  (3) 
{"is_sidechain": [false], "free_energy": -9.341, "intermolecular_energy": -12.074, "internal_energy": -1.984}

$$$$
3up2_ligand
     RDKit          3D

 40 42  0  0  0  0  0  0  0  0999 V2000
   10.1460   25.1700    9.1150 O   0  0  0  0  0  0  0  0  0  0  0  0
    9.4440   26.2280    9.1870 C   0  0  0  0  0  0  0  0  0  0  0  0
    8.9180   26.6990   10.2440 O   0  0  0  0  0  0  0  0  0  0  0  0
    9.2170   26.9940    7.8980 C   0  0  0  0  0  0  0  0  0  0  0  0
    8.4310   26.4630    6.8660 C   0  0  0  0  0  0  0  0  0  0  0  0
    8.2220   27.1710    5.6730 C   0  0  0  0  0  0  0  0  0  0  0  0
    8.7870   28.4320    5.4710 C   0  0  0  0  0  0  0  0  0  0  0  0
    8.6220   29.1910    4.3060 N   0  0  0  0  0  0  0  0  0  0  0  0
    7.5230   29.5940    3.5570 C   0  0  0  0  0  0  0  0  0  0  0  0
    7.4900   29.4960    2.2230 N   0  0  0  0  0  0  0  0  0  0  0  0
    6.3790   29.9130    1.6000 C   0  0  0  0  0  0  0  0  0  0  0  0
    5.2910   30.4190    2.2620 C   0  0  0  0  0  0  0  0  0  0  0  0
    5.3900   30.4880    3.6360 C   0  0  0  0  0  0  0  0  0  0  0  0
    4.2840   31.0150    4.3450 N   0  0  0  0  0  0  0  0  0  0  0  0
    4.0920   31.0740    5.7520 C   0  0  0  0  0  0  0  0  0  0  0  0
    4.4510   30.0130    6.5930 C   0  0  0  0  0  0  0  0  0  0  0  0
    4.3040   30.1140    7.9760 C   0  0  0  0  0  0  0  0  0  0  0  0
    3.8160   31.2890    8.5390 C   0  0  0  0  0  0  0  0  0  0  0  0
    3.4810   32.3710    7.7220 C   0  0  0  0  0  0  0  0  0  0  0  0
    3.6260   32.2780    6.3330 C   0  0  0  0  0  0  0  0  0  0  0  0
    3.3360   33.2740    5.4330 O   0  0  0  0  0  0  0  0  0  0  0  0
    1.9750   33.4930    5.1080 C   0  0  0  0  0  0  0  0  0  0  0  0
    1.5960   32.7460    4.0490 F   0  0  0  0  0  0  0  0  0  0  0  0
    1.2190   33.1250    6.1680 F   0  0  0  0  0  0  0  0  0  0  0  0
    1.7330   34.7960    4.8550 F   0  0  0  0  0  0  0  0  0  0  0  0
    6.5000   30.0850    4.2790 N   0  0  0  0  0  0  0  0  0  0  0  0
    9.5760   28.9620    6.5060 C   0  0  0  0  0  0  0  0  0  0  0  0
    9.7870   28.2570    7.6970 C   0  0  0  0  0  0  0  0  0  0  0  0
    7.9695   25.4727    6.9939 H   0  0  0  0  0  0  0  0  0  0  0  0
    7.6015   26.7245    4.8820 H   0  0  0  0  0  0  0  0  0  0  0  0
    9.4620   29.5670    3.8940 H   0  0  0  0  0  0  0  0  0  0  0  0
    6.3385   29.8457    0.5028 H   0  0  0  0  0  0  0  0  0  0  0  0
    4.3890   30.7516    1.7274 H   0  0  0  0  0  0  0  0  0  0  0  0
    3.4170   30.7410    3.8920 H   0  0  0  0  0  0  0  0  0  0  0  0
    4.8544   29.0874    6.1565 H   0  0  0  0  0  0  0  0  0  0  0  0
    4.5737   29.2651    8.6215 H   0  0  0  0  0  0  0  0  0  0  0  0
    3.6938   31.3659    9.6295 H   0  0  0  0  0  0  0  0  0  0  0  0
    3.1016   33.3002    8.1720 H   0  0  0  0  0  0  0  0  0  0  0  0
   10.0378   29.9521    6.3777 H   0  0  0  0  0  0  0  0  0  0  0  0
   10.4100   28.7020    8.4868 H   0  0  0  0  0  0  0  0  0  0  0  0
  1  2  2  0
  2  3  1  0
  2  4  1  0
  4  5  2  0
  5  6  1  0
  6  7  2  0
  7  8  1  0
  8  9  1  0
  9 10  2  0
 10 11  1  0
 11 12  2  0
 12 13  1  0
 13 14  1  0
 14 15  1  0
 15 16  2  0
 16 17  1  0
 17 18  2  0
 18 19  1  0
 19 20  2  0
 20 21  1  0
 21 22  1  0
 22 23  1  0
 22 24  1  0
 22 25  1  0
 13 26  2  0
  7 27  1  0
 27 28  2  0
 28  4  1  0
 26  9  1  0
 20 15  1  0
  5 29  1  0
  6 30  1  0
  8 31  1  0
 11 32  1  0
 12 33  1  0
 14 34  1  0
 16 35  1  0
 17 36  1  0
 18 37  1  0
 19 38  1  0
 27 39  1  0
 28 40  1  0
M  CHG  1   3  -1
M  END
>  <meeko>  (4) 
{"is_sidechain": [false], "free_energy": -8.989, "intermolecular_energy": -12.934, "internal_energy": -0.628}

$$$$
3up2_ligand
     RDKit          3D

 40 42  0  0  0  0  0  0  0  0999 V2000
    2.9990   32.3250    8.6000 O   0  0  0  0  0  0  0  0  0  0  0  0
    3.8100   31.3470    8.5290 C   0  0  0  0  0  0  0  0  0  0  0  0
    4.3190   30.7320    9.5170 O   0  0  0  0  0  0  0  0  0  0  0  0
    4.2010   30.8740    7.1410 C   0  0  0  0  0  0  0  0  0  0  0  0
    3.8710   31.6190    6.0010 C   0  0  0  0  0  0  0  0  0  0  0  0
    4.2320   31.1820    4.7170 C   0  0  0  0  0  0  0  0  0  0  0  0
    4.9340   29.9880    4.5300 C   0  0  0  0  0  0  0  0  0  0  0  0
    5.3220   29.4930    3.2790 N   0  0  0  0  0  0  0  0  0  0  0  0
    6.5240   29.0500    2.7400 C   0  0  0  0  0  0  0  0  0  0  0  0
    6.7680   29.0690    1.4240 N   0  0  0  0  0  0  0  0  0  0  0  0
    7.9620   28.6210    1.0120 C   0  0  0  0  0  0  0  0  0  0  0  0
    8.9280   28.1590    1.8670 C   0  0  0  0  0  0  0  0  0  0  0  0
    8.6120   28.1710    3.2090 C   0  0  0  0  0  0  0  0  0  0  0  0
    9.5880   27.6910    4.1150 N   0  0  0  0  0  0  0  0  0  0  0  0
    9.4510   27.4600    5.5100 C   0  0  0  0  0  0  0  0  0  0  0  0
    8.9980   26.2340    6.0170 C   0  0  0  0  0  0  0  0  0  0  0  0
    8.9230   26.0120    7.3910 C   0  0  0  0  0  0  0  0  0  0  0  0
    9.3230   27.0060    8.2790 C   0  0  0  0  0  0  0  0  0  0  0  0
    9.8060   28.2240    7.7960 C   0  0  0  0  0  0  0  0  0  0  0  0
    9.8850   28.4550    6.4190 C   0  0  0  0  0  0  0  0  0  0  0  0
   10.3480   29.6060    5.8290 O   0  0  0  0  0  0  0  0  0  0  0  0
    9.4690   30.7150    5.7710 C   0  0  0  0  0  0  0  0  0  0  0  0
   10.0280   31.8150    6.3190 F   0  0  0  0  0  0  0  0  0  0  0  0
    9.2070   30.9850    4.4720 F   0  0  0  0  0  0  0  0  0  0  0  0
    8.2980   30.4470    6.3850 F   0  0  0  0  0  0  0  0  0  0  0  0
    7.4160   28.6070    3.6420 N   0  0  0  0  0  0  0  0  0  0  0  0
    5.2610   29.2430    5.6750 C   0  0  0  0  0  0  0  0  0  0  0  0
    4.9020   29.6760    6.9560 C   0  0  0  0  0  0  0  0  0  0  0  0
    3.3189   32.5636    6.1145 H   0  0  0  0  0  0  0  0  0  0  0  0
    3.9576   31.7900    3.8424 H   0  0  0  0  0  0  0  0  0  0  0  0
    4.5930   29.4000    2.5890 H   0  0  0  0  0  0  0  0  0  0  0  0
    8.1774   28.6243   -0.0667 H   0  0  0  0  0  0  0  0  0  0  0  0
    9.9014   27.7986    1.5029 H   0  0  0  0  0  0  0  0  0  0  0  0
   10.4840   28.1310    3.9270 H   0  0  0  0  0  0  0  0  0  0  0  0
    8.6978   25.4366    5.3212 H   0  0  0  0  0  0  0  0  0  0  0  0
    8.5477   25.0513    7.7733 H   0  0  0  0  0  0  0  0  0  0  0  0
    9.2586   26.8320    9.3632 H   0  0  0  0  0  0  0  0  0  0  0  0
   10.1257   29.0050    8.5016 H   0  0  0  0  0  0  0  0  0  0  0  0
    5.8119   28.2976    5.5619 H   0  0  0  0  0  0  0  0  0  0  0  0
    5.1743   29.0666    7.8304 H   0  0  0  0  0  0  0  0  0  0  0  0
  1  2  2  0
  2  3  1  0
  2  4  1  0
  4  5  2  0
  5  6  1  0
  6  7  2  0
  7  8  1  0
  8  9  1  0
  9 10  2  0
 10 11  1  0
 11 12  2  0
 12 13  1  0
 13 14  1  0
 14 15  1  0
 15 16  2  0
 16 17  1  0
 17 18  2  0
 18 19  1  0
 19 20  2  0
 20 21  1  0
 21 22  1  0
 22 23  1  0
 22 24  1  0
 22 25  1  0
 13 26  2  0
  7 27  1  0
 27 28  2  0
 28  4  1  0
 26  9  1  0
 20 15  1  0
  5 29  1  0
  6 30  1  0
  8 31  1  0
 11 32  1  0
 12 33  1  0
 14 34  1  0
 16 35  1  0
 17 36  1  0
 18 37  1  0
 19 38  1  0
 27 39  1  0
 28 40  1  0
M  CHG  1   3  -1
M  END
>  <meeko>  (5) 
{"is_sidechain": [false], "free_energy": -8.568, "intermolecular_energy": -11.725, "internal_energy": -1.245}

$$$$
3up2_ligand
     RDKit          3D

 40 42  0  0  0  0  0  0  0  0999 V2000
    0.4970   34.5510    5.3120 O   0  0  0  0  0  0  0  0  0  0  0  0
    1.2580   34.8660    4.3410 C   0  0  0  0  0  0  0  0  0  0  0  0
    1.2730   35.9870    3.7440 O   0  0  0  0  0  0  0  0  0  0  0  0
    2.2330   33.8080    3.8590 C   0  0  0  0  0  0  0  0  0  0  0  0
    2.7620   32.8530    4.7370 C   0  0  0  0  0  0  0  0  0  0  0  0
    3.6640   31.8750    4.2910 C   0  0  0  0  0  0  0  0  0  0  0  0
    4.0660   31.8180    2.9540 C   0  0  0  0  0  0  0  0  0  0  0  0
    4.9640   30.8730    2.4430 N   0  0  0  0  0  0  0  0  0  0  0  0
    5.9800   30.1010    2.9930 C   0  0  0  0  0  0  0  0  0  0  0  0
    7.1240   29.8540    2.3430 N   0  0  0  0  0  0  0  0  0  0  0  0
    8.0380   29.0990    2.9680 C   0  0  0  0  0  0  0  0  0  0  0  0
    7.8570   28.5860    4.2250 C   0  0  0  0  0  0  0  0  0  0  0  0
    6.6590   28.8830    4.8400 C   0  0  0  0  0  0  0  0  0  0  0  0
    6.4410   28.3580    6.1360 N   0  0  0  0  0  0  0  0  0  0  0  0
    5.8380   28.9980    7.2520 C   0  0  0  0  0  0  0  0  0  0  0  0
    4.8950   30.0230    7.0960 C   0  0  0  0  0  0  0  0  0  0  0  0
    4.2760   30.6010    8.2040 C   0  0  0  0  0  0  0  0  0  0  0  0
    4.5740   30.1440    9.4840 C   0  0  0  0  0  0  0  0  0  0  0  0
    5.4880   29.1030    9.6610 C   0  0  0  0  0  0  0  0  0  0  0  0
    6.1140   28.5180    8.5540 C   0  0  0  0  0  0  0  0  0  0  0  0
    7.0210   27.4870    8.6040 O   0  0  0  0  0  0  0  0  0  0  0  0
    8.3120   27.7710    9.1110 C   0  0  0  0  0  0  0  0  0  0  0  0
    8.3660   27.5960   10.4480 F   0  0  0  0  0  0  0  0  0  0  0  0
    9.1920   26.9140    8.5430 F   0  0  0  0  0  0  0  0  0  0  0  0
    8.6970   29.0270    8.8020 F   0  0  0  0  0  0  0  0  0  0  0  0
    5.7250   29.6300    4.2260 N   0  0  0  0  0  0  0  0  0  0  0  0
    3.5360   32.7780    2.0760 C   0  0  0  0  0  0  0  0  0  0  0  0
    2.6360   33.7550    2.5190 C   0  0  0  0  0  0  0  0  0  0  0  0
    2.4647   32.8702    5.7959 H   0  0  0  0  0  0  0  0  0  0  0  0
    4.0616   31.1402    5.0065 H   0  0  0  0  0  0  0  0  0  0  0  0
    4.8760   30.6570    1.4630 H   0  0  0  0  0  0  0  0  0  0  0  0
    8.9808   28.8803    2.4453 H   0  0  0  0  0  0  0  0  0  0  0  0
    8.6250   27.9710    4.7169 H   0  0  0  0  0  0  0  0  0  0  0  0
    7.2570   27.8340    6.4410 H   0  0  0  0  0  0  0  0  0  0  0  0
    4.6397   30.3763    6.0861 H   0  0  0  0  0  0  0  0  0  0  0  0
    3.5524   31.4179    8.0661 H   0  0  0  0  0  0  0  0  0  0  0  0
    4.0889   30.6034   10.3579 H   0  0  0  0  0  0  0  0  0  0  0  0
    5.7169   28.7413   10.6743 H   0  0  0  0  0  0  0  0  0  0  0  0
    3.8345   32.7619    1.0174 H   0  0  0  0  0  0  0  0  0  0  0  0
    2.2399   34.4913    1.8042 H   0  0  0  0  0  0  0  0  0  0  0  0
  1  2  2  0
  2  3  1  0
  2  4  1  0
  4  5  2  0
  5  6  1  0
  6  7  2  0
  7  8  1  0
  8  9  1  0
  9 10  2  0
 10 11  1  0
 11 12  2  0
 12 13  1  0
 13 14  1  0
 14 15  1  0
 15 16  2  0
 16 17  1  0
 17 18  2  0
 18 19  1  0
 19 20  2  0
 20 21  1  0
 21 22  1  0
 22 23  1  0
 22 24  1  0
 22 25  1  0
 13 26  2  0
  7 27  1  0
 27 28  2  0
 28  4  1  0
 26  9  1  0
 20 15  1  0
  5 29  1  0
  6 30  1  0
  8 31  1  0
 11 32  1  0
 12 33  1  0
 14 34  1  0
 16 35  1  0
 17 36  1  0
 18 37  1  0
 19 38  1  0
 27 39  1  0
 28 40  1  0
M  CHG  1   3  -1
M  END
>  <meeko>  (6) 
{"is_sidechain": [false], "free_energy": -8.504, "intermolecular_energy": -12.339, "internal_energy": -0.54}

$$$$
3up2_ligand
     RDKit          3D

 40 42  0  0  0  0  0  0  0  0999 V2000
    1.0910   33.9960    5.9310 O   0  0  0  0  0  0  0  0  0  0  0  0
    1.5900   33.9190    4.7640 C   0  0  0  0  0  0  0  0  0  0  0  0
    1.2290   34.6030    3.7560 O   0  0  0  0  0  0  0  0  0  0  0  0
    2.7150   32.9220    4.5590 C   0  0  0  0  0  0  0  0  0  0  0  0
    3.2150   32.1620    5.6250 C   0  0  0  0  0  0  0  0  0  0  0  0
    4.2560   31.2410    5.4360 C   0  0  0  0  0  0  0  0  0  0  0  0
    4.8310   31.0470    4.1780 C   0  0  0  0  0  0  0  0  0  0  0  0
    5.8730   30.1480    3.9200 N   0  0  0  0  0  0  0  0  0  0  0  0
    7.0420   29.7980    4.5850 C   0  0  0  0  0  0  0  0  0  0  0  0
    8.1630   30.5240    4.4940 N   0  0  0  0  0  0  0  0  0  0  0  0
    9.2330   30.0960    5.1790 C   0  0  0  0  0  0  0  0  0  0  0  0
    9.2240   28.9720    5.9610 C   0  0  0  0  0  0  0  0  0  0  0  0
    8.0360   28.2740    6.0150 C   0  0  0  0  0  0  0  0  0  0  0  0
    8.0000   27.1020    6.8090 N   0  0  0  0  0  0  0  0  0  0  0  0
    8.4250   26.9420    8.1550 C   0  0  0  0  0  0  0  0  0  0  0  0
    9.3680   25.9720    8.5230 C   0  0  0  0  0  0  0  0  0  0  0  0
    9.8110   25.8690    9.8410 C   0  0  0  0  0  0  0  0  0  0  0  0
    9.3340   26.7500   10.8050 C   0  0  0  0  0  0  0  0  0  0  0  0
    8.4170   27.7440   10.4550 C   0  0  0  0  0  0  0  0  0  0  0  0
    7.9680   27.8550    9.1350 C   0  0  0  0  0  0  0  0  0  0  0  0
    7.0770   28.7920    8.6730 O   0  0  0  0  0  0  0  0  0  0  0  0
    5.7090   28.6160    8.9960 C   0  0  0  0  0  0  0  0  0  0  0  0
    5.4320   29.0800   10.2340 F   0  0  0  0  0  0  0  0  0  0  0  0
    4.9670   29.3210    8.1120 F   0  0  0  0  0  0  0  0  0  0  0  0
    5.3450   27.3200    8.9060 F   0  0  0  0  0  0  0  0  0  0  0  0
    6.9540   28.6800    5.3270 N   0  0  0  0  0  0  0  0  0  0  0  0
    4.3300   31.8120    3.1110 C   0  0  0  0  0  0  0  0  0  0  0  0
    3.2920   32.7320    3.2970 C   0  0  0  0  0  0  0  0  0  0  0  0
    2.7831   32.2901    6.6285 H   0  0  0  0  0  0  0  0  0  0  0  0
    4.6262   30.6610    6.2942 H   0  0  0  0  0  0  0  0  0  0  0  0
    5.7880   29.5940    3.0820 H   0  0  0  0  0  0  0  0  0  0  0  0
   10.1646   30.6767    5.1094 H   0  0  0  0  0  0  0  0  0  0  0  0
   10.1155   28.6439    6.5156 H   0  0  0  0  0  0  0  0  0  0  0  0
    8.2940   26.3010    6.2580 H   0  0  0  0  0  0  0  0  0  0  0  0
    9.7635   25.2832    7.7620 H   0  0  0  0  0  0  0  0  0  0  0  0
   10.5376   25.0910   10.1180 H   0  0  0  0  0  0  0  0  0  0  0  0
    9.6795   26.6641   11.8458 H   0  0  0  0  0  0  0  0  0  0  0  0
    8.0467   28.4420   11.2203 H   0  0  0  0  0  0  0  0  0  0  0  0
    4.7631   31.6849    2.1079 H   0  0  0  0  0  0  0  0  0  0  0  0
    2.9239   33.3144    2.4395 H   0  0  0  0  0  0  0  0  0  0  0  0
  1  2  2  0
  2  3  1  0
  2  4  1  0
  4  5  2  0
  5  6  1  0
  6  7  2  0
  7  8  1  0
  8  9  1  0
  9 10  2  0
 10 11  1  0
 11 12  2  0
 12 13  1  0
 13 14  1  0
 14 15  1  0
 15 16  2  0
 16 17  1  0
 17 18  2  0
 18 19  1  0
 19 20  2  0
 20 21  1  0
 21 22  1  0
 22 23  1  0
 22 24  1  0
 22 25  1  0
 13 26  2  0
  7 27  1  0
 27 28  2  0
 28  4  1  0
 26  9  1  0
 20 15  1  0
  5 29  1  0
  6 30  1  0
  8 31  1  0
 11 32  1  0
 12 33  1  0
 14 34  1  0
 16 35  1  0
 17 36  1  0
 18 37  1  0
 19 38  1  0
 27 39  1  0
 28 40  1  0
M  CHG  1   3  -1
M  END
>  <meeko>  (7) 
{"is_sidechain": [false], "free_energy": -8.356, "intermolecular_energy": -11.755, "internal_energy": -0.915}

$$$$
3up2_ligand
     RDKit          3D

 40 42  0  0  0  0  0  0  0  0999 V2000
    2.3910   33.4700    3.7880 O   0  0  0  0  0  0  0  0  0  0  0  0
    2.2180   33.3970    5.0470 C   0  0  0  0  0  0  0  0  0  0  0  0
    1.4080   34.1010    5.7270 O   0  0  0  0  0  0  0  0  0  0  0  0
    3.0530   32.3780    5.7990 C   0  0  0  0  0  0  0  0  0  0  0  0
    3.7650   31.3790    5.1210 C   0  0  0  0  0  0  0  0  0  0  0  0
    4.5370   30.4360    5.8170 C   0  0  0  0  0  0  0  0  0  0  0  0
    4.6230   30.4590    7.2110 C   0  0  0  0  0  0  0  0  0  0  0  0
    5.3710   29.5480    7.9680 N   0  0  0  0  0  0  0  0  0  0  0  0
    6.4450   28.7100    7.6950 C   0  0  0  0  0  0  0  0  0  0  0  0
    6.5800   27.5090    8.2700 N   0  0  0  0  0  0  0  0  0  0  0  0
    7.6540   26.7810    7.9330 C   0  0  0  0  0  0  0  0  0  0  0  0
    8.5980   27.2040    7.0350 C   0  0  0  0  0  0  0  0  0  0  0  0
    8.3950   28.4480    6.4770 C   0  0  0  0  0  0  0  0  0  0  0  0
    9.3600   28.9160    5.5520 N   0  0  0  0  0  0  0  0  0  0  0  0
    9.8170   28.2810    4.3660 C   0  0  0  0  0  0  0  0  0  0  0  0
   10.8190   27.3020    4.3900 C   0  0  0  0  0  0  0  0  0  0  0  0
   11.2140   26.6530    3.2210 C   0  0  0  0  0  0  0  0  0  0  0  0
   10.5950   26.9590    2.0130 C   0  0  0  0  0  0  0  0  0  0  0  0
    9.5730   27.9100    1.9710 C   0  0  0  0  0  0  0  0  0  0  0  0
    9.1710   28.5650    3.1400 C   0  0  0  0  0  0  0  0  0  0  0  0
    8.1770   29.5100    3.2220 O   0  0  0  0  0  0  0  0  0  0  0  0
    6.8550   29.1030    2.9160 C   0  0  0  0  0  0  0  0  0  0  0  0
    6.4000   28.1970    3.8070 F   0  0  0  0  0  0  0  0  0  0  0  0
    6.0490   30.1880    2.9780 F   0  0  0  0  0  0  0  0  0  0  0  0
    6.7740   28.5940    1.6690 F   0  0  0  0  0  0  0  0  0  0  0  0
    7.3300   29.1990    6.8090 N   0  0  0  0  0  0  0  0  0  0  0  0
    3.9070   31.4590    7.8880 C   0  0  0  0  0  0  0  0  0  0  0  0
    3.1360   32.4010    7.1970 C   0  0  0  0  0  0  0  0  0  0  0  0
    3.7178   31.3333    4.0230 H   0  0  0  0  0  0  0  0  0  0  0  0
    5.0841   29.6650    5.2547 H   0  0  0  0  0  0  0  0  0  0  0  0
    5.1210   29.4640    8.9400 H   0  0  0  0  0  0  0  0  0  0  0  0
    7.7838   25.7941    8.4012 H   0  0  0  0  0  0  0  0  0  0  0  0
    9.4693   26.5855    6.7738 H   0  0  0  0  0  0  0  0  0  0  0  0
   10.1470   29.3240    6.0480 H   0  0  0  0  0  0  0  0  0  0  0  0
   11.3006   27.0419    5.3442 H   0  0  0  0  0  0  0  0  0  0  0  0
   12.0146   25.8994    3.2537 H   0  0  0  0  0  0  0  0  0  0  0  0
   10.9110   26.4512    1.0898 H   0  0  0  0  0  0  0  0  0  0  0  0
    9.0822   28.1449    1.0150 H   0  0  0  0  0  0  0  0  0  0  0  0
    3.9529   31.5032    8.9862 H   0  0  0  0  0  0  0  0  0  0  0  0
    2.5874   33.1704    7.7600 H   0  0  0  0  0  0  0  0  0  0  0  0
  1  2  2  0
  2  3  1  0
  2  4  1  0
  4  5  2  0
  5  6  1  0
  6  7  2  0
  7  8  1  0
  8  9  1  0
  9 10  2  0
 10 11  1  0
 11 12  2  0
 12 13  1  0
 13 14  1  0
 14 15  1  0
 15 16  2  0
 16 17  1  0
 17 18  2  0
 18 19  1  0
 19 20  2  0
 20 21  1  0
 21 22  1  0
 22 23  1  0
 22 24  1  0
 22 25  1  0
 13 26  2  0
  7 27  1  0
 27 28  2  0
 28  4  1  0
 26  9  1  0
 20 15  1  0
  5 29  1  0
  6 30  1  0
  8 31  1  0
 11 32  1  0
 12 33  1  0
 14 34  1  0
 16 35  1  0
 17 36  1  0
 18 37  1  0
 19 38  1  0
 27 39  1  0
 28 40  1  0
M  CHG  1   3  -1
M  END
>  <meeko>  (8) 
{"is_sidechain": [false], "free_energy": -8.325, "intermolecular_energy": -11.495, "internal_energy": -1.131}

$$$$
3up2_ligand
     RDKit          3D

 40 42  0  0  0  0  0  0  0  0999 V2000
    9.8140   27.1710    8.5600 O   0  0  0  0  0  0  0  0  0  0  0  0
    8.8360   27.6060    9.2480 C   0  0  0  0  0  0  0  0  0  0  0  0
    8.7130   27.5060   10.5090 O   0  0  0  0  0  0  0  0  0  0  0  0
    7.7220   28.3090    8.4960 C   0  0  0  0  0  0  0  0  0  0  0  0
    7.9770   29.0110    7.3090 C   0  0  0  0  0  0  0  0  0  0  0  0
    6.9460   29.6620    6.6140 C   0  0  0  0  0  0  0  0  0  0  0  0
    5.6290   29.6330    7.0790 C   0  0  0  0  0  0  0  0  0  0  0  0
    4.5560   30.2620    6.4370 N   0  0  0  0  0  0  0  0  0  0  0  0
    4.4050   30.9420    5.2340 C   0  0  0  0  0  0  0  0  0  0  0  0
    3.9520   32.1990    5.1730 N   0  0  0  0  0  0  0  0  0  0  0  0
    3.8480   32.7600    3.9610 C   0  0  0  0  0  0  0  0  0  0  0  0
    4.1880   32.1130    2.8020 C   0  0  0  0  0  0  0  0  0  0  0  0
    4.6530   30.8220    2.9360 C   0  0  0  0  0  0  0  0  0  0  0  0
    5.0030   30.1260    1.7540 N   0  0  0  0  0  0  0  0  0  0  0  0
    6.1260   30.3410    0.9100 C   0  0  0  0  0  0  0  0  0  0  0  0
    6.1680   31.3970   -0.0110 C   0  0  0  0  0  0  0  0  0  0  0  0
    7.3020   31.6210   -0.7900 C   0  0  0  0  0  0  0  0  0  0  0  0
    8.4190   30.8050   -0.6430 C   0  0  0  0  0  0  0  0  0  0  0  0
    8.4100   29.7660    0.2900 C   0  0  0  0  0  0  0  0  0  0  0  0
    7.2770   29.5350    1.0770 C   0  0  0  0  0  0  0  0  0  0  0  0
    7.1540   28.5510    2.0280 O   0  0  0  0  0  0  0  0  0  0  0  0
    8.0070   28.6170    3.1570 C   0  0  0  0  0  0  0  0  0  0  0  0
    8.1590   29.8880    3.5860 F   0  0  0  0  0  0  0  0  0  0  0  0
    7.4450   27.9030    4.1590 F   0  0  0  0  0  0  0  0  0  0  0  0
    9.2170   28.0810    2.8910 F   0  0  0  0  0  0  0  0  0  0  0  0
    4.7550   30.2380    4.1430 N   0  0  0  0  0  0  0  0  0  0  0  0
    5.3770   28.9320    8.2690 C   0  0  0  0  0  0  0  0  0  0  0  0
    6.4030   28.2810    8.9650 C   0  0  0  0  0  0  0  0  0  0  0  0
    9.0034   29.0521    6.9156 H   0  0  0  0  0  0  0  0  0  0  0  0
    7.1792   30.2050    5.6862 H   0  0  0  0  0  0  0  0  0  0  0  0
    3.6660   30.2200    6.9090 H   0  0  0  0  0  0  0  0  0  0  0  0
    3.4710   33.7911    3.8928 H   0  0  0  0  0  0  0  0  0  0  0  0
    4.0951   32.5970    1.8186 H   0  0  0  0  0  0  0  0  0  0  0  0
    4.1750   29.9630    1.1890 H   0  0  0  0  0  0  0  0  0  0  0  0
    5.2950   32.0572   -0.1203 H   0  0  0  0  0  0  0  0  0  0  0  0
    7.3136   32.4430   -1.5209 H   0  0  0  0  0  0  0  0  0  0  0  0
    9.3110   30.9785   -1.2628 H   0  0  0  0  0  0  0  0  0  0  0  0
    9.2975   29.1267    0.4065 H   0  0  0  0  0  0  0  0  0  0  0  0
    4.3509   28.8933    8.6634 H   0  0  0  0  0  0  0  0  0  0  0  0
    6.1693   27.7398    9.8937 H   0  0  0  0  0  0  0  0  0  0  0  0
  1  2  2  0
  2  3  1  0
  2  4  1  0
  4  5  2  0
  5  6  1  0
  6  7  2  0
  7  8  1  0
  8  9  1  0
  9 10  2  0
 10 11  1  0
 11 12  2  0
 12 13  1  0
 13 14  1  0
 14 15  1  0
 15 16  2  0
 16 17  1  0
 17 18  2  0
 18 19  1  0
 19 20  2  0
 20 21  1  0
 21 22  1  0
 22 23  1  0
 22 24  1  0
 22 25  1  0
 13 26  2  0
  7 27  1  0
 27 28  2  0
 28  4  1  0
 26  9  1  0
 20 15  1  0
  5 29  1  0
  6 30  1  0
  8 31  1  0
 11 32  1  0
 12 33  1  0
 14 34  1  0
 16 35  1  0
 17 36  1  0
 18 37  1  0
 19 38  1  0
 27 39  1  0
 28 40  1  0
M  CHG  1   3  -1
M  END
>  <meeko>  (9) 
{"is_sidechain": [false], "free_energy": -8.321, "intermolecular_energy": -11.158, "internal_energy": -1.463}

$$$$
