3pxf_ligand
     RDKit          3D

 33 35  0  0  0  0  0  0  0  0999 V2000
  118.7930  135.6060   65.8150 O   0  0  0  0  0  0  0  0  0  0  0  0
  119.4020  134.4350   65.1850 S   0  0  0  0  0  0  0  0  0  0  0  0
  119.0040  133.1670   65.7980 O   0  0  0  0  0  0  0  0  0  0  0  0
  120.8160  134.5750   64.8660 O   0  0  0  0  0  0  0  0  0  0  0  0
  118.6310  134.3710   63.5260 C   0  0  0  0  0  0  0  0  0  0  0  0
  117.8050  135.4800   63.2370 C   0  0  0  0  0  0  0  0  0  0  0  0
  117.1240  135.5620   62.0380 C   0  0  0  0  0  0  0  0  0  0  0  0
  117.2620  134.5360   61.1180 C   0  0  0  0  0  0  0  0  0  0  0  0
  118.0810  133.4230   61.3690 C   0  0  0  0  0  0  0  0  0  0  0  0
  118.1450  132.4590   60.3510 C   0  0  0  0  0  0  0  0  0  0  0  0
  118.9250  131.3230   60.4780 C   0  0  0  0  0  0  0  0  0  0  0  0
  119.6620  131.1440   61.6340 C   0  0  0  0  0  0  0  0  0  0  0  0
  119.6330  132.0810   62.6910 C   0  0  0  0  0  0  0  0  0  0  0  0
  120.4540  131.8150   63.8070 N   0  0  0  0  0  0  0  0  0  0  0  0
  121.6650  131.1170   63.9630 C   0  0  0  0  0  0  0  0  0  0  0  0
  122.7890  131.8170   64.4230 C   0  0  0  0  0  0  0  0  0  0  0  0
  124.0080  131.1670   64.6420 C   0  0  0  0  0  0  0  0  0  0  0  0
  124.1180  129.8000   64.4080 C   0  0  0  0  0  0  0  0  0  0  0  0
  123.0120  129.0880   63.9490 C   0  0  0  0  0  0  0  0  0  0  0  0
  121.7960  129.7430   63.7320 C   0  0  0  0  0  0  0  0  0  0  0  0
  118.8150  133.2790   62.5910 C   0  0  0  0  0  0  0  0  0  0  0  0
  117.7029  136.2883   63.9760 H   0  0  0  0  0  0  0  0  0  0  0  0
  116.4826  136.4280   61.8175 H   0  0  0  0  0  0  0  0  0  0  0  0
  116.7155  134.5944   60.1652 H   0  0  0  0  0  0  0  0  0  0  0  0
  117.5616  132.6099   59.4308 H   0  0  0  0  0  0  0  0  0  0  0  0
  118.9581  130.5747   59.6724 H   0  0  0  0  0  0  0  0  0  0  0  0
  120.2892  130.2459   61.7337 H   0  0  0  0  0  0  0  0  0  0  0  0
  120.1210  132.2610   64.6760 H   0  0  0  0  0  0  0  0  0  0  0  0
  122.7109  132.8973   64.6153 H   0  0  0  0  0  0  0  0  0  0  0  0
  124.8790  131.7362   64.9990 H   0  0  0  0  0  0  0  0  0  0  0  0
  125.0733  129.2840   64.5845 H   0  0  0  0  0  0  0  0  0  0  0  0
  123.0956  128.0081   63.7569 H   0  0  0  0  0  0  0  0  0  0  0  0
  120.9285  129.1692   63.3740 H   0  0  0  0  0  0  0  0  0  0  0  0
  1  2  2  0
  2  3  2  0
  2  4  1  0
  2  5  1  0
  5  6  2  0
  6  7  1  0
  7  8  2  0
  8  9  1  0
  9 10  2  0
 10 11  1  0
 11 12  2  0
 12 13  1  0
 13 14  1  0
 14 15  1  0
 15 16  2  0
 16 17  1  0
 17 18  2  0
 18 19  1  0
 19 20  2  0
 13 21  2  0
 21  5  1  0
 21  9  1  0
 20 15  1  0
  6 22  1  0
  7 23  1  0
  8 24  1  0
 10 25  1  0
 11 26  1  0
 12 27  1  0
 14 28  1  0
 16 29  1  0
 17 30  1  0
 18 31  1  0
 19 32  1  0
 20 33  1  0
M  CHG  1   4  -1
M  END
>  <meeko>  (1) 
{"is_sidechain": [false], "free_energy": -7.838, "intermolecular_energy": -9.213, "internal_energy": -0.86}

$$$$
3pxf_ligand
     RDKit          3D

 33 35  0  0  0  0  0  0  0  0999 V2000
  124.5320  133.6660   65.4450 O   0  0  0  0  0  0  0  0  0  0  0  0
  123.2750  133.4650   64.7240 S   0  0  0  0  0  0  0  0  0  0  0  0
  122.6190  132.1940   65.0340 O   0  0  0  0  0  0  0  0  0  0  0  0
  123.3060  133.8400   63.3170 O   0  0  0  0  0  0  0  0  0  0  0  0
  122.1470  134.7170   65.4380 C   0  0  0  0  0  0  0  0  0  0  0  0
  122.7770  135.6070   66.3360 C   0  0  0  0  0  0  0  0  0  0  0  0
  122.0540  136.5880   66.9860 C   0  0  0  0  0  0  0  0  0  0  0  0
  120.6930  136.6870   66.7440 C   0  0  0  0  0  0  0  0  0  0  0  0
  120.0360  135.8230   65.8530 C   0  0  0  0  0  0  0  0  0  0  0  0
  118.6580  136.0360   65.6870 C   0  0  0  0  0  0  0  0  0  0  0  0
  117.9040  135.2560   64.8280 C   0  0  0  0  0  0  0  0  0  0  0  0
  118.5300  134.2500   64.1150 C   0  0  0  0  0  0  0  0  0  0  0  0
  119.9130  133.9920   64.2450 C   0  0  0  0  0  0  0  0  0  0  0  0
  120.4520  132.9660   63.4390 N   0  0  0  0  0  0  0  0  0  0  0  0
  119.8700  131.9460   62.6660 C   0  0  0  0  0  0  0  0  0  0  0  0
  119.5880  130.7170   63.2770 C   0  0  0  0  0  0  0  0  0  0  0  0
  118.9670  129.6820   62.5700 C   0  0  0  0  0  0  0  0  0  0  0  0
  118.6140  129.8650   61.2380 C   0  0  0  0  0  0  0  0  0  0  0  0
  118.8860  131.0790   60.6120 C   0  0  0  0  0  0  0  0  0  0  0  0
  119.5080  132.1100   61.3240 C   0  0  0  0  0  0  0  0  0  0  0  0
  120.7300  134.7870   65.1460 C   0  0  0  0  0  0  0  0  0  0  0  0
  123.8578  135.5176   66.5200 H   0  0  0  0  0  0  0  0  0  0  0  0
  122.5499  137.2788   67.6837 H   0  0  0  0  0  0  0  0  0  0  0  0
  120.1119  137.4630   67.2637 H   0  0  0  0  0  0  0  0  0  0  0  0
  118.1667  136.8413   66.2527 H   0  0  0  0  0  0  0  0  0  0  0  0
  116.8244  135.4333   64.7142 H   0  0  0  0  0  0  0  0  0  0  0  0
  117.9339  133.6328   63.4267 H   0  0  0  0  0  0  0  0  0  0  0  0
  121.4800  133.0000   63.3670 H   0  0  0  0  0  0  0  0  0  0  0  0
  119.8599  130.5633   64.3317 H   0  0  0  0  0  0  0  0  0  0  0  0
  118.7581  128.7236   63.0679 H   0  0  0  0  0  0  0  0  0  0  0  0
  118.1219  129.0543   60.6807 H   0  0  0  0  0  0  0  0  0  0  0  0
  118.6116  131.2272   59.5571 H   0  0  0  0  0  0  0  0  0  0  0  0
  119.7161  133.0657   60.8207 H   0  0  0  0  0  0  0  0  0  0  0  0
  1  2  2  0
  2  3  2  0
  2  4  1  0
  2  5  1  0
  5  6  2  0
  6  7  1  0
  7  8  2  0
  8  9  1  0
  9 10  2  0
 10 11  1  0
 11 12  2  0
 12 13  1  0
 13 14  1  0
 14 15  1  0
 15 16  2  0
 16 17  1  0
 17 18  2  0
 18 19  1  0
 19 20  2  0
 13 21  2  0
 21  5  1  0
 21  9  1  0
 20 15  1  0
  6 22  1  0
  7 23  1  0
  8 24  1  0
 10 25  1  0
 11 26  1  0
 12 27  1  0
 14 28  1  0
 16 29  1  0
 17 30  1  0
 18 31  1  0
 19 32  1  0
 20 33  1  0
M  CHG  1   4  -1
M  END
>  <meeko>  (2) 
{"is_sidechain": [false], "free_energy": -7.426, "intermolecular_energy": -8.518, "internal_energy": -1.071}

$$$$
3pxf_ligand
     RDKit          3D

 33 35  0  0  0  0  0  0  0  0999 V2000
  125.4120  133.2030   64.2950 O   0  0  0  0  0  0  0  0  0  0  0  0
  125.0980  132.2570   65.3650 S   0  0  0  0  0  0  0  0  0  0  0  0
  124.5740  132.8920   66.5740 O   0  0  0  0  0  0  0  0  0  0  0  0
  126.0910  131.2110   65.5720 O   0  0  0  0  0  0  0  0  0  0  0  0
  123.6670  131.3140   64.7200 C   0  0  0  0  0  0  0  0  0  0  0  0
  123.9120  129.9310   64.5790 C   0  0  0  0  0  0  0  0  0  0  0  0
  122.9430  129.0880   64.0700 C   0  0  0  0  0  0  0  0  0  0  0  0
  121.7200  129.6220   63.6970 C   0  0  0  0  0  0  0  0  0  0  0  0
  121.4400  130.9920   63.8300 C   0  0  0  0  0  0  0  0  0  0  0  0
  120.1610  131.4050   63.4280 C   0  0  0  0  0  0  0  0  0  0  0  0
  119.7640  132.7270   63.5200 C   0  0  0  0  0  0  0  0  0  0  0  0
  120.6530  133.6570   64.0290 C   0  0  0  0  0  0  0  0  0  0  0  0
  121.9530  133.2970   64.4470 C   0  0  0  0  0  0  0  0  0  0  0  0
  122.7600  134.3220   64.9850 N   0  0  0  0  0  0  0  0  0  0  0  0
  122.9910  135.6580   64.6130 C   0  0  0  0  0  0  0  0  0  0  0  0
  123.6570  135.9140   63.4070 C   0  0  0  0  0  0  0  0  0  0  0  0
  123.8730  137.2230   62.9620 C   0  0  0  0  0  0  0  0  0  0  0  0
  123.4210  138.2970   63.7210 C   0  0  0  0  0  0  0  0  0  0  0  0
  122.7580  138.0630   64.9230 C   0  0  0  0  0  0  0  0  0  0  0  0
  122.5450  136.7530   65.3620 C   0  0  0  0  0  0  0  0  0  0  0  0
  122.4020  131.9170   64.3520 C   0  0  0  0  0  0  0  0  0  0  0  0
  124.8871  129.5191   64.8783 H   0  0  0  0  0  0  0  0  0  0  0  0
  123.1391  128.0110   63.9626 H   0  0  0  0  0  0  0  0  0  0  0  0
  120.9478  128.9552   63.2858 H   0  0  0  0  0  0  0  0  0  0  0  0
  119.4567  130.6596   63.0300 H   0  0  0  0  0  0  0  0  0  0  0  0
  118.7591  133.0335   63.1942 H   0  0  0  0  0  0  0  0  0  0  0  0
  120.3379  134.7077   64.1105 H   0  0  0  0  0  0  0  0  0  0  0  0
  123.2440  134.0470   65.8540 H   0  0  0  0  0  0  0  0  0  0  0  0
  124.0165  135.0707   62.7991 H   0  0  0  0  0  0  0  0  0  0  0  0
  124.3997  137.4022   62.0130 H   0  0  0  0  0  0  0  0  0  0  0  0
  123.5865  139.3274   63.3732 H   0  0  0  0  0  0  0  0  0  0  0  0
  122.4015  138.9099   65.5277 H   0  0  0  0  0  0  0  0  0  0  0  0
  122.0181  136.5799   66.3119 H   0  0  0  0  0  0  0  0  0  0  0  0
  1  2  2  0
  2  3  2  0
  2  4  1  0
  2  5  1  0
  5  6  2  0
  6  7  1  0
  7  8  2  0
  8  9  1  0
  9 10  2  0
 10 11  1  0
 11 12  2  0
 12 13  1  0
 13 14  1  0
 14 15  1  0
 15 16  2  0
 16 17  1  0
 17 18  2  0
 18 19  1  0
 19 20  2  0
 13 21  2  0
 21  5  1  0
 21  9  1  0
 20 15  1  0
  6 22  1  0
  7 23  1  0
  8 24  1  0
 10 25  1  0
 11 26  1  0
 12 27  1  0
 14 28  1  0
 16 29  1  0
 17 30  1  0
 18 31  1  0
 19 32  1  0
 20 33  1  0
M  CHG  1   4  -1
M  END
>  <meeko>  (3) 
{"is_sidechain": [false], "free_energy": -7.309, "intermolecular_energy": -8.378, "internal_energy": -1.074}

$$$$
3pxf_ligand
     RDKit          3D

 33 35  0  0  0  0  0  0  0  0999 V2000
  125.2870  135.1430   65.3320 O   0  0  0  0  0  0  0  0  0  0  0  0
  123.9190  134.7280   65.0250 S   0  0  0  0  0  0  0  0  0  0  0  0
  123.4770  135.1130   63.6840 O   0  0  0  0  0  0  0  0  0  0  0  0
  122.9570  134.9350   66.0980 O   0  0  0  0  0  0  0  0  0  0  0  0
  124.0170  132.9020   64.9360 C   0  0  0  0  0  0  0  0  0  0  0  0
  125.2740  132.3790   65.3120 C   0  0  0  0  0  0  0  0  0  0  0  0
  125.5190  131.0200   65.2660 C   0  0  0  0  0  0  0  0  0  0  0  0
  124.5090  130.1720   64.8400 C   0  0  0  0  0  0  0  0  0  0  0  0
  123.2450  130.6570   64.4660 C   0  0  0  0  0  0  0  0  0  0  0  0
  122.3060  129.6940   64.0660 C   0  0  0  0  0  0  0  0  0  0  0  0
  121.0240  130.0480   63.6840 C   0  0  0  0  0  0  0  0  0  0  0  0
  120.6650  131.3840   63.7050 C   0  0  0  0  0  0  0  0  0  0  0  0
  121.5710  132.3940   64.0970 C   0  0  0  0  0  0  0  0  0  0  0  0
  121.0840  133.7190   64.1180 N   0  0  0  0  0  0  0  0  0  0  0  0
  119.8110  134.2700   64.3440 C   0  0  0  0  0  0  0  0  0  0  0  0
  119.6680  135.2420   65.3440 C   0  0  0  0  0  0  0  0  0  0  0  0
  118.4360  135.8600   65.5830 C   0  0  0  0  0  0  0  0  0  0  0  0
  117.3260  135.5150   64.8190 C   0  0  0  0  0  0  0  0  0  0  0  0
  117.4480  134.5500   63.8220 C   0  0  0  0  0  0  0  0  0  0  0  0
  118.6820  133.9350   63.5880 C   0  0  0  0  0  0  0  0  0  0  0  0
  122.9280  132.0550   64.4940 C   0  0  0  0  0  0  0  0  0  0  0  0
  126.0684  133.0627   65.6459 H   0  0  0  0  0  0  0  0  0  0  0  0
  126.4990  130.6180   65.5625 H   0  0  0  0  0  0  0  0  0  0  0  0
  124.7024  129.0901   64.7935 H   0  0  0  0  0  0  0  0  0  0  0  0
  122.5958  128.6329   64.0559 H   0  0  0  0  0  0  0  0  0  0  0  0
  120.3023  129.2800   63.3689 H   0  0  0  0  0  0  0  0  0  0  0  0
  119.6446  131.6677   63.4078 H   0  0  0  0  0  0  0  0  0  0  0  0
  121.8220  134.4280   63.9840 H   0  0  0  0  0  0  0  0  0  0  0  0
  120.5404  135.5239   65.9518 H   0  0  0  0  0  0  0  0  0  0  0  0
  118.3451  136.6183   66.3746 H   0  0  0  0  0  0  0  0  0  0  0  0
  116.3566  136.0019   65.0013 H   0  0  0  0  0  0  0  0  0  0  0  0
  116.5722  134.2712   63.2176 H   0  0  0  0  0  0  0  0  0  0  0  0
  118.7666  133.1755   62.7968 H   0  0  0  0  0  0  0  0  0  0  0  0
  1  2  2  0
  2  3  2  0
  2  4  1  0
  2  5  1  0
  5  6  2  0
  6  7  1  0
  7  8  2  0
  8  9  1  0
  9 10  2  0
 10 11  1  0
 11 12  2  0
 12 13  1  0
 13 14  1  0
 14 15  1  0
 15 16  2  0
 16 17  1  0
 17 18  2  0
 18 19  1  0
 19 20  2  0
 13 21  2  0
 21  5  1  0
 21  9  1  0
 20 15  1  0
  6 22  1  0
  7 23  1  0
  8 24  1  0
 10 25  1  0
 11 26  1  0
 12 27  1  0
 14 28  1  0
 16 29  1  0
 17 30  1  0
 18 31  1  0
 19 32  1  0
 20 33  1  0
M  CHG  1   4  -1
M  END
>  <meeko>  (4) 
{"is_sidechain": [false], "free_energy": -7.262, "intermolecular_energy": -8.607, "internal_energy": -0.789}

$$$$
3pxf_ligand
     RDKit          3D

 33 35  0  0  0  0  0  0  0  0999 V2000
  121.8460  130.9320   65.2450 O   0  0  0  0  0  0  0  0  0  0  0  0
  121.8480  130.6200   63.8160 S   0  0  0  0  0  0  0  0  0  0  0  0
  122.1440  129.2170   63.5230 O   0  0  0  0  0  0  0  0  0  0  0  0
  122.5150  131.6030   62.9730 O   0  0  0  0  0  0  0  0  0  0  0  0
  120.0960  130.8020   63.3180 C   0  0  0  0  0  0  0  0  0  0  0  0
  119.5400  129.6360   62.7480 C   0  0  0  0  0  0  0  0  0  0  0  0
  118.2370  129.6230   62.2890 C   0  0  0  0  0  0  0  0  0  0  0  0
  117.4790  130.7770   62.3950 C   0  0  0  0  0  0  0  0  0  0  0  0
  117.9970  131.9530   62.9620 C   0  0  0  0  0  0  0  0  0  0  0  0
  117.1240  133.0500   63.0220 C   0  0  0  0  0  0  0  0  0  0  0  0
  117.5160  134.2590   63.5680 C   0  0  0  0  0  0  0  0  0  0  0  0
  118.7990  134.3800   64.0710 C   0  0  0  0  0  0  0  0  0  0  0  0
  119.7190  133.3100   64.0350 C   0  0  0  0  0  0  0  0  0  0  0  0
  120.9870  133.5350   64.6120 N   0  0  0  0  0  0  0  0  0  0  0  0
  121.7720  134.6880   64.7870 C   0  0  0  0  0  0  0  0  0  0  0  0
  122.9000  134.8640   63.9740 C   0  0  0  0  0  0  0  0  0  0  0  0
  123.6910  136.0130   64.0700 C   0  0  0  0  0  0  0  0  0  0  0  0
  123.3600  137.0090   64.9830 C   0  0  0  0  0  0  0  0  0  0  0  0
  122.2440  136.8530   65.8010 C   0  0  0  0  0  0  0  0  0  0  0  0
  121.4570  135.7010   65.7000 C   0  0  0  0  0  0  0  0  0  0  0  0
  119.3400  132.0300   63.4580 C   0  0  0  0  0  0  0  0  0  0  0  0
  120.1525  128.7258   62.6683 H   0  0  0  0  0  0  0  0  0  0  0  0
  117.8089  128.7113   61.8468 H   0  0  0  0  0  0  0  0  0  0  0  0
  116.4431  130.7726   62.0251 H   0  0  0  0  0  0  0  0  0  0  0  0
  116.1033  132.9460   62.6253 H   0  0  0  0  0  0  0  0  0  0  0  0
  116.8194  135.1097   63.6017 H   0  0  0  0  0  0  0  0  0  0  0  0
  119.1114  135.3381   64.5119 H   0  0  0  0  0  0  0  0  0  0  0  0
  121.4020  132.6880   65.0310 H   0  0  0  0  0  0  0  0  0  0  0  0
  123.1681  134.0835   63.2467 H   0  0  0  0  0  0  0  0  0  0  0  0
  124.5740  136.1292   63.4243 H   0  0  0  0  0  0  0  0  0  0  0  0
  123.9774  137.9162   65.0585 H   0  0  0  0  0  0  0  0  0  0  0  0
  121.9811  137.6363   66.5272 H   0  0  0  0  0  0  0  0  0  0  0  0
  120.5759  135.5894   66.3489 H   0  0  0  0  0  0  0  0  0  0  0  0
  1  2  2  0
  2  3  2  0
  2  4  1  0
  2  5  1  0
  5  6  2  0
  6  7  1  0
  7  8  2  0
  8  9  1  0
  9 10  2  0
 10 11  1  0
 11 12  2  0
 12 13  1  0
 13 14  1  0
 14 15  1  0
 15 16  2  0
 16 17  1  0
 17 18  2  0
 18 19  1  0
 19 20  2  0
 13 21  2  0
 21  5  1  0
 21  9  1  0
 20 15  1  0
  6 22  1  0
  7 23  1  0
  8 24  1  0
 10 25  1  0
 11 26  1  0
 12 27  1  0
 14 28  1  0
 16 29  1  0
 17 30  1  0
 18 31  1  0
 19 32  1  0
 20 33  1  0
M  CHG  1   4  -1
M  END
>  <meeko>  (5) 
{"is_sidechain": [false], "free_energy": -7.219, "intermolecular_energy": -8.399, "internal_energy": -0.946}

$$$$
3pxf_ligand
     RDKit          3D

 33 35  0  0  0  0  0  0  0  0999 V2000
  119.4100  132.7230   61.9950 O   0  0  0  0  0  0  0  0  0  0  0  0
  118.5530  132.4770   63.1530 S   0  0  0  0  0  0  0  0  0  0  0  0
  119.0340  131.4010   64.0200 O   0  0  0  0  0  0  0  0  0  0  0  0
  117.1240  132.4800   62.8720 O   0  0  0  0  0  0  0  0  0  0  0  0
  118.7510  133.9790   64.1810 C   0  0  0  0  0  0  0  0  0  0  0  0
  117.5420  134.6650   64.4290 C   0  0  0  0  0  0  0  0  0  0  0  0
  117.5300  135.8370   65.1590 C   0  0  0  0  0  0  0  0  0  0  0  0
  118.7270  136.3350   65.6470 C   0  0  0  0  0  0  0  0  0  0  0  0
  119.9470  135.6740   65.4260 C   0  0  0  0  0  0  0  0  0  0  0  0
  121.0860  136.2750   65.9840 C   0  0  0  0  0  0  0  0  0  0  0  0
  122.3430  135.7140   65.8420 C   0  0  0  0  0  0  0  0  0  0  0  0
  122.4710  134.5290   65.1390 C   0  0  0  0  0  0  0  0  0  0  0  0
  121.3580  133.8840   64.5550 C   0  0  0  0  0  0  0  0  0  0  0  0
  121.6010  132.6610   63.8940 N   0  0  0  0  0  0  0  0  0  0  0  0
  122.5120  131.6140   64.1160 C   0  0  0  0  0  0  0  0  0  0  0  0
  122.1570  130.3180   63.7170 C   0  0  0  0  0  0  0  0  0  0  0  0
  123.0410  129.2450   63.8700 C   0  0  0  0  0  0  0  0  0  0  0  0
  124.3000  129.4550   64.4220 C   0  0  0  0  0  0  0  0  0  0  0  0
  124.6710  130.7350   64.8260 C   0  0  0  0  0  0  0  0  0  0  0  0
  123.7830  131.8040   64.6710 C   0  0  0  0  0  0  0  0  0  0  0  0
  120.0270  134.4540   64.6780 C   0  0  0  0  0  0  0  0  0  0  0  0
  116.5977  134.2606   64.0357 H   0  0  0  0  0  0  0  0  0  0  0  0
  116.5851  136.3667   65.3500 H   0  0  0  0  0  0  0  0  0  0  0  0
  118.7223  137.2724   66.2226 H   0  0  0  0  0  0  0  0  0  0  0  0
  120.9770  137.2136   66.5472 H   0  0  0  0  0  0  0  0  0  0  0  0
  123.2258  136.2020   66.2807 H   0  0  0  0  0  0  0  0  0  0  0  0
  123.4678  134.0763   65.0318 H   0  0  0  0  0  0  0  0  0  0  0  0
  120.9460  132.4790   63.1180 H   0  0  0  0  0  0  0  0  0  0  0  0
  121.1650  130.1416   63.2755 H   0  0  0  0  0  0  0  0  0  0  0  0
  122.7404  128.2352   63.5538 H   0  0  0  0  0  0  0  0  0  0  0  0
  124.9994  128.6141   64.5389 H   0  0  0  0  0  0  0  0  0  0  0  0
  125.6639  130.9054   65.2676 H   0  0  0  0  0  0  0  0  0  0  0  0
  124.0884  132.8113   64.9906 H   0  0  0  0  0  0  0  0  0  0  0  0
  1  2  2  0
  2  3  2  0
  2  4  1  0
  2  5  1  0
  5  6  2  0
  6  7  1  0
  7  8  2  0
  8  9  1  0
  9 10  2  0
 10 11  1  0
 11 12  2  0
 12 13  1  0
 13 14  1  0
 14 15  1  0
 15 16  2  0
 16 17  1  0
 17 18  2  0
 18 19  1  0
 19 20  2  0
 13 21  2  0
 21  5  1  0
 21  9  1  0
 20 15  1  0
  6 22  1  0
  7 23  1  0
  8 24  1  0
 10 25  1  0
 11 26  1  0
 12 27  1  0
 14 28  1  0
 16 29  1  0
 17 30  1  0
 18 31  1  0
 19 32  1  0
 20 33  1  0
M  CHG  1   4  -1
M  END
>  <meeko>  (6) 
{"is_sidechain": [false], "free_energy": -7.171, "intermolecular_energy": -8.699, "internal_energy": -0.59}

$$$$
3pxf_ligand
     RDKit          3D

 33 35  0  0  0  0  0  0  0  0999 V2000
  122.6820  136.8470   66.1100 O   0  0  0  0  0  0  0  0  0  0  0  0
  122.6310  135.5170   65.5040 S   0  0  0  0  0  0  0  0  0  0  0  0
  123.0020  134.4400   66.4220 O   0  0  0  0  0  0  0  0  0  0  0  0
  123.1890  135.4310   64.1610 O   0  0  0  0  0  0  0  0  0  0  0  0
  120.8480  135.2330   65.2050 C   0  0  0  0  0  0  0  0  0  0  0  0
  120.0190  136.2850   65.6530 C   0  0  0  0  0  0  0  0  0  0  0  0
  118.6450  136.2060   65.5320 C   0  0  0  0  0  0  0  0  0  0  0  0
  118.0880  135.0730   64.9630 C   0  0  0  0  0  0  0  0  0  0  0  0
  118.8820  134.0100   64.5000 C   0  0  0  0  0  0  0  0  0  0  0  0
  118.1960  132.9250   63.9330 C   0  0  0  0  0  0  0  0  0  0  0  0
  118.8690  131.8250   63.4320 C   0  0  0  0  0  0  0  0  0  0  0  0
  120.2510  131.8040   63.4900 C   0  0  0  0  0  0  0  0  0  0  0  0
  120.9910  132.8670   64.0520 C   0  0  0  0  0  0  0  0  0  0  0  0
  122.3980  132.7550   64.0230 N   0  0  0  0  0  0  0  0  0  0  0  0
  123.2800  131.6780   64.2190 C   0  0  0  0  0  0  0  0  0  0  0  0
  123.0000  130.4580   63.5890 C   0  0  0  0  0  0  0  0  0  0  0  0
  123.8650  129.3650   63.7100 C   0  0  0  0  0  0  0  0  0  0  0  0
  125.0290  129.4810   64.4630 C   0  0  0  0  0  0  0  0  0  0  0  0
  125.3240  130.6850   65.0970 C   0  0  0  0  0  0  0  0  0  0  0  0
  124.4550  131.7740   64.9730 C   0  0  0  0  0  0  0  0  0  0  0  0
  120.3120  134.0320   64.5950 C   0  0  0  0  0  0  0  0  0  0  0  0
  120.4734  137.1793   66.1043 H   0  0  0  0  0  0  0  0  0  0  0  0
  118.0044  137.0290   65.8817 H   0  0  0  0  0  0  0  0  0  0  0  0
  116.9941  135.0032   64.8709 H   0  0  0  0  0  0  0  0  0  0  0  0
  117.0973  132.9497   63.8858 H   0  0  0  0  0  0  0  0  0  0  0  0
  118.3146  130.9814   62.9950 H   0  0  0  0  0  0  0  0  0  0  0  0
  120.7891  130.9336   63.0864 H   0  0  0  0  0  0  0  0  0  0  0  0
  122.8720  133.6330   63.7590 H   0  0  0  0  0  0  0  0  0  0  0  0
  122.0838  130.3579   62.9886 H   0  0  0  0  0  0  0  0  0  0  0  0
  123.6249  128.4149   63.2103 H   0  0  0  0  0  0  0  0  0  0  0  0
  125.7135  128.6251   64.5571 H   0  0  0  0  0  0  0  0  0  0  0  0
  126.2416  130.7799   65.6962 H   0  0  0  0  0  0  0  0  0  0  0  0
  124.6991  132.7212   65.4763 H   0  0  0  0  0  0  0  0  0  0  0  0
  1  2  2  0
  2  3  2  0
  2  4  1  0
  2  5  1  0
  5  6  2  0
  6  7  1  0
  7  8  2  0
  8  9  1  0
  9 10  2  0
 10 11  1  0
 11 12  2  0
 12 13  1  0
 13 14  1  0
 14 15  1  0
 15 16  2  0
 16 17  1  0
 17 18  2  0
 18 19  1  0
 19 20  2  0
 13 21  2  0
 21  5  1  0
 21  9  1  0
 20 15  1  0
  6 22  1  0
  7 23  1  0
  8 24  1  0
 10 25  1  0
 11 26  1  0
 12 27  1  0
 14 28  1  0
 16 29  1  0
 17 30  1  0
 18 31  1  0
 19 32  1  0
 20 33  1  0
M  CHG  1   4  -1
M  END
>  <meeko>  (7) 
{"is_sidechain": [false], "free_energy": -7.109, "intermolecular_energy": -8.591, "internal_energy": -0.626}

$$$$
3pxf_ligand
     RDKit          3D

 33 35  0  0  0  0  0  0  0  0999 V2000
  122.9240  136.3140   64.4620 O   0  0  0  0  0  0  0  0  0  0  0  0
  122.1760  136.1140   65.7020 S   0  0  0  0  0  0  0  0  0  0  0  0
  121.6270  137.3490   66.2620 O   0  0  0  0  0  0  0  0  0  0  0  0
  122.7970  135.2020   66.6540 O   0  0  0  0  0  0  0  0  0  0  0  0
  120.6900  135.1810   65.1800 C   0  0  0  0  0  0  0  0  0  0  0  0
  119.4730  135.8180   65.5050 C   0  0  0  0  0  0  0  0  0  0  0  0
  118.2610  135.2240   65.2090 C   0  0  0  0  0  0  0  0  0  0  0  0
  118.2560  133.9870   64.5860 C   0  0  0  0  0  0  0  0  0  0  0  0
  119.4480  133.3280   64.2410 C   0  0  0  0  0  0  0  0  0  0  0  0
  119.3070  132.0860   63.6030 C   0  0  0  0  0  0  0  0  0  0  0  0
  120.4080  131.3480   63.2060 C   0  0  0  0  0  0  0  0  0  0  0  0
  121.6730  131.8540   63.4420 C   0  0  0  0  0  0  0  0  0  0  0  0
  121.8720  133.0970   64.0820 C   0  0  0  0  0  0  0  0  0  0  0  0
  123.2060  133.5330   64.2350 N   0  0  0  0  0  0  0  0  0  0  0  0
  124.3810  132.8940   64.6700 C   0  0  0  0  0  0  0  0  0  0  0  0
  125.5690  133.6360   64.7220 C   0  0  0  0  0  0  0  0  0  0  0  0
  126.7580  133.0680   65.1900 C   0  0  0  0  0  0  0  0  0  0  0  0
  126.7740  131.7440   65.6180 C   0  0  0  0  0  0  0  0  0  0  0  0
  125.6040  130.9900   65.5730 C   0  0  0  0  0  0  0  0  0  0  0  0
  124.4180  131.5640   65.1040 C   0  0  0  0  0  0  0  0  0  0  0  0
  120.7360  133.8920   64.5190 C   0  0  0  0  0  0  0  0  0  0  0  0
  119.4896  136.8000   66.0003 H   0  0  0  0  0  0  0  0  0  0  0  0
  117.3157  135.7253   65.4640 H   0  0  0  0  0  0  0  0  0  0  0  0
  117.2932  133.5077   64.3552 H   0  0  0  0  0  0  0  0  0  0  0  0
  118.2982  131.6902   63.4142 H   0  0  0  0  0  0  0  0  0  0  0  0
  120.2790  130.3744   62.7106 H   0  0  0  0  0  0  0  0  0  0  0  0
  122.5496  131.2716   63.1220 H   0  0  0  0  0  0  0  0  0  0  0  0
  123.3580  134.5040   63.9220 H   0  0  0  0  0  0  0  0  0  0  0  0
  125.5660  134.6842   64.3886 H   0  0  0  0  0  0  0  0  0  0  0  0
  127.6799  133.6673   65.2198 H   0  0  0  0  0  0  0  0  0  0  0  0
  127.7066  131.2950   65.9902 H   0  0  0  0  0  0  0  0  0  0  0  0
  125.6127  129.9419   65.9067 H   0  0  0  0  0  0  0  0  0  0  0  0
  123.4990  130.9601   65.0758 H   0  0  0  0  0  0  0  0  0  0  0  0
  1  2  2  0
  2  3  2  0
  2  4  1  0
  2  5  1  0
  5  6  2  0
  6  7  1  0
  7  8  2  0
  8  9  1  0
  9 10  2  0
 10 11  1  0
 11 12  2  0
 12 13  1  0
 13 14  1  0
 14 15  1  0
 15 16  2  0
 16 17  1  0
 17 18  2  0
 18 19  1  0
 19 20  2  0
 13 21  2  0
 21  5  1  0
 21  9  1  0
 20 15  1  0
  6 22  1  0
  7 23  1  0
  8 24  1  0
 10 25  1  0
 11 26  1  0
 12 27  1  0
 14 28  1  0
 16 29  1  0
 17 30  1  0
 18 31  1  0
 19 32  1  0
 20 33  1  0
M  CHG  1   4  -1
M  END
>  <meeko>  (8) 
{"is_sidechain": [false], "free_energy": -7.035, "intermolecular_energy": -8.282, "internal_energy": -0.848}

$$$$
3pxf_ligand
     RDKit          3D

 33 35  0  0  0  0  0  0  0  0999 V2000
  123.4890  131.7460   65.2160 O   0  0  0  0  0  0  0  0  0  0  0  0
  123.2030  131.5530   63.7950 S   0  0  0  0  0  0  0  0  0  0  0  0
  123.4740  130.1960   63.3220 O   0  0  0  0  0  0  0  0  0  0  0  0
  123.6500  132.6330   62.9260 O   0  0  0  0  0  0  0  0  0  0  0  0
  121.3810  131.6920   63.6850 C   0  0  0  0  0  0  0  0  0  0  0  0
  120.7550  130.5520   63.1340 C   0  0  0  0  0  0  0  0  0  0  0  0
  119.3860  130.5150   62.9510 C   0  0  0  0  0  0  0  0  0  0  0  0
  118.6320  131.6180   63.3170 C   0  0  0  0  0  0  0  0  0  0  0  0
  119.2210  132.7650   63.8740 C   0  0  0  0  0  0  0  0  0  0  0  0
  118.3460  133.8090   64.2130 C   0  0  0  0  0  0  0  0  0  0  0  0
  118.8070  134.9850   64.7780 C   0  0  0  0  0  0  0  0  0  0  0  0
  120.1620  135.1250   65.0180 C   0  0  0  0  0  0  0  0  0  0  0  0
  121.0870  134.1080   64.6950 C   0  0  0  0  0  0  0  0  0  0  0  0
  122.4390  134.3440   65.0190 N   0  0  0  0  0  0  0  0  0  0  0  0
  123.2490  135.4930   64.9830 C   0  0  0  0  0  0  0  0  0  0  0  0
  123.5680  136.0510   63.7380 C   0  0  0  0  0  0  0  0  0  0  0  0
  124.3300  137.2200   63.6410 C   0  0  0  0  0  0  0  0  0  0  0  0
  124.7830  137.8510   64.7950 C   0  0  0  0  0  0  0  0  0  0  0  0
  124.4770  137.3120   66.0420 C   0  0  0  0  0  0  0  0  0  0  0  0
  123.7150  136.1430   66.1320 C   0  0  0  0  0  0  0  0  0  0  0  0
  120.6340  132.8650   64.0910 C   0  0  0  0  0  0  0  0  0  0  0  0
  121.3650  129.6828   62.8470 H   0  0  0  0  0  0  0  0  0  0  0  0
  118.9030  129.6247   62.5219 H   0  0  0  0  0  0  0  0  0  0  0  0
  117.5425  131.5949   63.1673 H   0  0  0  0  0  0  0  0  0  0  0  0
  117.2688  133.6895   64.0251 H   0  0  0  0  0  0  0  0  0  0  0  0
  118.1075  135.7951   65.0321 H   0  0  0  0  0  0  0  0  0  0  0  0
  120.5299  136.0560   65.4739 H   0  0  0  0  0  0  0  0  0  0  0  0
  122.9190  133.5160   65.4040 H   0  0  0  0  0  0  0  0  0  0  0  0
  123.2126  135.5606   62.8197 H   0  0  0  0  0  0  0  0  0  0  0  0
  124.5708  137.6399   62.6532 H   0  0  0  0  0  0  0  0  0  0  0  0
  125.3804  138.7718   64.7228 H   0  0  0  0  0  0  0  0  0  0  0  0
  124.8351  137.8063   66.9571 H   0  0  0  0  0  0  0  0  0  0  0  0
  123.4777  135.7271   67.1223 H   0  0  0  0  0  0  0  0  0  0  0  0
  1  2  2  0
  2  3  2  0
  2  4  1  0
  2  5  1  0
  5  6  2  0
  6  7  1  0
  7  8  2  0
  8  9  1  0
  9 10  2  0
 10 11  1  0
 11 12  2  0
 12 13  1  0
 13 14  1  0
 14 15  1  0
 15 16  2  0
 16 17  1  0
 17 18  2  0
 18 19  1  0
 19 20  2  0
 13 21  2  0
 21  5  1  0
 21  9  1  0
 20 15  1  0
  6 22  1  0
  7 23  1  0
  8 24  1  0
 10 25  1  0
 11 26  1  0
 12 27  1  0
 14 28  1  0
 16 29  1  0
 17 30  1  0
 18 31  1  0
 19 32  1  0
 20 33  1  0
M  CHG  1   4  -1
M  END
>  <meeko>  (9) 
{"is_sidechain": [false], "free_energy": -6.765, "intermolecular_energy": -7.681, "internal_energy": -1.131}

$$$$
