3prs_ligand
     RDKit          3D

 98101  0  0  0  0  0  0  0  0999 V2000
   -4.2910    2.4740    5.5500 C   0  0  0  0  0  0  0  0  0  0  0  0
   -5.7620    2.5260    5.1350 C   0  0  0  0  0  0  0  0  0  0  0  0
   -6.2500    3.9740    5.0600 C   0  0  0  0  0  0  0  0  0  0  0  0
   -6.6110    1.7380    6.0980 C   0  0  0  0  0  0  0  0  0  0  0  0
   -6.6170    1.9170    7.4020 N   0  0  0  0  0  0  0  0  0  0  0  0
   -7.5180    1.0470    8.0120 C   0  0  0  0  0  0  0  0  0  0  0  0
   -7.7140    1.0770    9.5040 C   0  0  0  0  0  0  0  0  0  0  0  0
   -6.7420    0.2250   10.1830 N   0  0  0  0  0  0  0  0  0  0  0  0
   -6.8380   -1.2080    9.9370 C   0  0  0  0  0  0  0  0  0  0  0  0
   -5.6760    0.8490   10.8000 C   0  0  0  0  0  0  0  0  0  0  0  0
   -5.8100    1.6400   11.7300 O   0  0  0  0  0  0  0  0  0  0  0  0
   -4.4410    0.4940   10.3290 N   0  0  0  0  0  0  0  0  0  0  0  0
   -3.1910    1.0960   10.8130 C   0  0  2  0  0  0  0  0  0  0  0  0
   -2.7490    2.2380    9.8640 C   0  0  0  0  0  0  0  0  0  0  0  0
   -3.0880    2.2530    8.6810 O   0  0  0  0  0  0  0  0  0  0  0  0
   -1.9360    3.1960   10.4310 N   0  0  0  0  0  0  0  0  0  0  0  0
   -1.2760    4.2290    9.6280 C   0  0  1  0  0  0  0  0  0  0  0  0
   -2.0990    5.5400    9.6010 C   0  0  0  0  0  0  0  0  0  0  0  0
   -2.3700    6.1570    8.2450 C   0  0  0  0  0  0  0  0  0  0  0  0
   -1.7760    7.3770    7.8860 C   0  0  0  0  0  0  0  0  0  0  0  0
   -2.0290    7.9560    6.6400 C   0  0  0  0  0  0  0  0  0  0  0  0
   -2.8710    7.3180    5.7330 C   0  0  0  0  0  0  0  0  0  0  0  0
   -3.4480    6.0950    6.0660 C   0  0  0  0  0  0  0  0  0  0  0  0
   -3.1910    5.5140    7.3090 C   0  0  0  0  0  0  0  0  0  0  0  0
    0.1830    4.3830   10.1030 C   0  0  0  0  0  0  0  0  0  0  0  0
    1.1060    5.1450    9.1440 C   0  0  2  0  0  0  0  0  0  0  0  0
    2.3220    4.4040    8.9970 O   0  0  0  0  0  0  0  0  0  0  0  0
    1.3830    6.6080    9.6150 C   0  0  2  0  0  0  0  0  0  0  0  0
    1.9990    7.4680    8.4910 C   0  0  0  0  0  0  0  0  0  0  0  0
    2.0000    8.9530    8.7860 C   0  0  0  0  0  0  0  0  0  0  0  0
    3.1940    9.6160    9.0980 C   0  0  0  0  0  0  0  0  0  0  0  0
    3.1930   10.9840    9.3750 C   0  0  0  0  0  0  0  0  0  0  0  0
    1.9990   11.7020    9.3410 C   0  0  0  0  0  0  0  0  0  0  0  0
    0.8070   11.0550    9.0280 C   0  0  0  0  0  0  0  0  0  0  0  0
    0.8060    9.6870    8.7490 C   0  0  0  0  0  0  0  0  0  0  0  0
    2.2470    6.6100   10.7980 N   0  0  0  0  0  0  0  0  0  0  0  0
    1.9300    7.2700   11.9430 C   0  0  0  0  0  0  0  0  0  0  0  0
    0.9320    7.9590   12.0990 O   0  0  0  0  0  0  0  0  0  0  0  0
    2.8790    7.0340   12.8740 O   0  0  0  0  0  0  0  0  0  0  0  0
    3.7780    8.1300   13.0540 C   0  0  0  0  0  0  0  0  0  0  0  0
    4.2430    8.0560   14.4680 C   0  0  0  0  0  0  0  0  0  0  0  0
    4.6910    6.9590   15.1790 C   0  0  0  0  0  0  0  0  0  0  0  0
    5.0660    7.2020   16.4870 N   0  0  0  0  0  0  0  0  0  0  0  0
    4.8910    8.4760   16.7550 C   0  0  0  0  0  0  0  0  0  0  0  0
    4.2840    9.4440   15.4760 S   0  0  0  0  0  0  0  0  0  0  0  0
   -2.0680    0.0810   11.1440 C   0  0  0  0  0  0  0  0  0  0  0  0
   -0.7900    0.3810   10.3510 C   0  0  0  0  0  0  0  0  0  0  0  0
   -2.5180   -1.3540   10.8370 C   0  0  0  0  0  0  0  0  0  0  0  0
   -8.1780    0.2090    7.1310 C   0  0  0  0  0  0  0  0  0  0  0  0
   -7.6690    0.5100    5.5250 S   0  0  0  0  0  0  0  0  0  0  0  0
   -4.2196    2.4715    6.6477 H   0  0  0  0  0  0  0  0  0  0  0  0
   -3.8294    1.5590    5.1504 H   0  0  0  0  0  0  0  0  0  0  0  0
   -3.7660    3.3541    5.1504 H   0  0  0  0  0  0  0  0  0  0  0  0
   -5.8539    2.0746    4.1361 H   0  0  0  0  0  0  0  0  0  0  0  0
   -6.3832    4.3692    6.0779 H   0  0  0  0  0  0  0  0  0  0  0  0
   -5.5077    4.5838    4.5241 H   0  0  0  0  0  0  0  0  0  0  0  0
   -7.2100    4.0101    4.5241 H   0  0  0  0  0  0  0  0  0  0  0  0
   -7.5953    2.1109    9.8605 H   0  0  0  0  0  0  0  0  0  0  0  0
   -8.7230    0.7015    9.7297 H   0  0  0  0  0  0  0  0  0  0  0  0
   -6.8739   -1.7433   10.8973 H   0  0  0  0  0  0  0  0  0  0  0  0
   -7.7524   -1.4212    9.3640 H   0  0  0  0  0  0  0  0  0  0  0  0
   -5.9602   -1.5413    9.3640 H   0  0  0  0  0  0  0  0  0  0  0  0
   -4.4360    0.2730    9.3460 H   0  0  0  0  0  0  0  0  0  0  0  0
   -3.4063    1.5385   11.7968 H   0  0  0  0  0  0  0  0  0  0  0  0
   -1.4340    2.8760   11.2630 H   0  0  0  0  0  0  0  0  0  0  0  0
   -1.2308    3.9245    8.5719 H   0  0  0  0  0  0  0  0  0  0  0  0
   -3.0717    5.3302   10.0699 H   0  0  0  0  0  0  0  0  0  0  0  0
   -1.4769    6.2772   10.1297 H   0  0  0  0  0  0  0  0  0  0  0  0
   -1.1034    7.8832    8.5941 H   0  0  0  0  0  0  0  0  0  0  0  0
   -1.5627    8.9165    6.3753 H   0  0  0  0  0  0  0  0  0  0  0  0
   -3.0799    7.7786    4.7562 H   0  0  0  0  0  0  0  0  0  0  0  0
   -4.1077    5.5858    5.3480 H   0  0  0  0  0  0  0  0  0  0  0  0
   -3.6382    4.5400    7.5566 H   0  0  0  0  0  0  0  0  0  0  0  0
    0.1732    4.9191   11.0635 H   0  0  0  0  0  0  0  0  0  0  0  0
    0.5902    3.3635   10.1723 H   0  0  0  0  0  0  0  0  0  0  0  0
    0.6036    5.2368    8.1697 H   0  0  0  0  0  0  0  0  0  0  0  0
    2.1830    3.7100    8.3200 H   0  0  0  0  0  0  0  0  0  0  0  0
    0.4154    7.0590    9.8800 H   0  0  0  0  0  0  0  0  0  0  0  0
    3.0391    7.1445    8.3378 H   0  0  0  0  0  0  0  0  0  0  0  0
    1.3751    7.3202    7.5972 H   0  0  0  0  0  0  0  0  0  0  0  0
    4.1394    9.0543    9.1249 H   0  0  0  0  0  0  0  0  0  0  0  0
    4.1353   11.4958    9.6203 H   0  0  0  0  0  0  0  0  0  0  0  0
    1.9986   12.7797    9.5615 H   0  0  0  0  0  0  0  0  0  0  0  0
   -0.1352   11.6221    9.0004 H   0  0  0  0  0  0  0  0  0  0  0  0
   -0.1383    9.1815    8.4984 H   0  0  0  0  0  0  0  0  0  0  0  0
    3.0560    6.0080   10.8460 H   0  0  0  0  0  0  0  0  0  0  0  0
    4.6318    8.0402   12.3663 H   0  0  0  0  0  0  0  0  0  0  0  0
    3.2868    9.0913   12.8425 H   0  0  0  0  0  0  0  0  0  0  0  0
    4.7457    5.9554   14.7321 H   0  0  0  0  0  0  0  0  0  0  0  0
    5.1209    8.8983   17.7443 H   0  0  0  0  0  0  0  0  0  0  0  0
   -1.8548    0.1783   12.2187 H   0  0  0  0  0  0  0  0  0  0  0  0
    0.0376    0.5753   11.0491 H   0  0  0  0  0  0  0  0  0  0  0  0
   -0.5402   -0.4829    9.7176 H   0  0  0  0  0  0  0  0  0  0  0  0
   -0.9507    1.2658    9.7176 H   0  0  0  0  0  0  0  0  0  0  0  0
   -2.6876   -1.8947   11.7798 H   0  0  0  0  0  0  0  0  0  0  0  0
   -3.4515   -1.3291   10.2556 H   0  0  0  0  0  0  0  0  0  0  0  0
   -1.7375   -1.8666   10.2556 H   0  0  0  0  0  0  0  0  0  0  0  0
   -8.9247   -0.5446    7.4218 H   0  0  0  0  0  0  0  0  0  0  0  0
  1  2  1  0
  2  3  1  0
  2  4  1  0
  4  5  2  0
  5  6  1  0
  6  7  1  0
  7  8  1  0
  8  9  1  0
  8 10  1  0
 10 11  2  0
 10 12  1  0
 12 13  1  0
 13 14  1  0
 14 15  2  0
 14 16  1  0
 16 17  1  0
 17 18  1  0
 18 19  1  0
 19 20  2  0
 20 21  1  0
 21 22  2  0
 22 23  1  0
 23 24  2  0
 17 25  1  0
 25 26  1  0
 26 27  1  0
 26 28  1  0
 28 29  1  0
 29 30  1  0
 30 31  2  0
 31 32  1  0
 32 33  2  0
 33 34  1  0
 34 35  2  0
 28 36  1  0
 36 37  1  0
 37 38  2  0
 37 39  1  0
 39 40  1  0
 40 41  1  0
 41 42  2  0
 42 43  1  0
 43 44  2  0
 44 45  1  0
 13 46  1  0
 46 47  1  0
 46 48  1  0
  6 49  2  0
 49 50  1  0
 50  4  1  0
 24 19  1  0
 35 30  1  0
 45 41  1  0
  1 51  1  0
  1 52  1  0
  1 53  1  0
  2 54  1  0
  3 55  1  0
  3 56  1  0
  3 57  1  0
  7 58  1  0
  7 59  1  0
  9 60  1  0
  9 61  1  0
  9 62  1  0
 12 63  1  0
 13 64  1  1
 16 65  1  0
 17 66  1  6
 18 67  1  0
 18 68  1  0
 20 69  1  0
 21 70  1  0
 22 71  1  0
 23 72  1  0
 24 73  1  0
 25 74  1  0
 25 75  1  0
 26 76  1  6
 27 77  1  0
 28 78  1  1
 29 79  1  0
 29 80  1  0
 31 81  1  0
 32 82  1  0
 33 83  1  0
 34 84  1  0
 35 85  1  0
 36 86  1  0
 40 87  1  0
 40 88  1  0
 42 89  1  0
 44 90  1  0
 46 91  1  0
 47 92  1  0
 47 93  1  0
 47 94  1  0
 48 95  1  0
 48 96  1  0
 48 97  1  0
 49 98  1  0
M  END
>  <meeko>  (1) 
{"is_sidechain": [false], "free_energy": -9.266, "intermolecular_energy": -19.829, "internal_energy": -3.302}

$$$$
3prs_ligand
     RDKit          3D

 98101  0  0  0  0  0  0  0  0999 V2000
   -6.2240   -2.1900   10.7850 C   0  0  0  0  0  0  0  0  0  0  0  0
   -5.4760   -1.0630   10.0700 C   0  0  0  0  0  0  0  0  0  0  0  0
   -5.9840    0.3020   10.5380 C   0  0  0  0  0  0  0  0  0  0  0  0
   -5.6290   -1.1930    8.5760 C   0  0  0  0  0  0  0  0  0  0  0  0
   -6.7780   -1.1380    7.9390 N   0  0  0  0  0  0  0  0  0  0  0  0
   -6.5840   -1.2750    6.5660 C   0  0  0  0  0  0  0  0  0  0  0  0
   -7.7570   -1.2260    5.6230 C   0  0  0  0  0  0  0  0  0  0  0  0
   -8.0160    0.1380    5.1710 N   0  0  0  0  0  0  0  0  0  0  0  0
   -8.7530    1.0040    6.0820 C   0  0  0  0  0  0  0  0  0  0  0  0
   -7.3460    0.5690    4.0430 C   0  0  0  0  0  0  0  0  0  0  0  0
   -6.6340   -0.1670    3.3650 O   0  0  0  0  0  0  0  0  0  0  0  0
   -7.5610    1.8770    3.7020 N   0  0  0  0  0  0  0  0  0  0  0  0
   -6.8870    2.5360    2.5740 C   0  0  2  0  0  0  0  0  0  0  0  0
   -5.8890    3.5970    3.0980 C   0  0  0  0  0  0  0  0  0  0  0  0
   -4.8830    3.9000    2.4570 O   0  0  0  0  0  0  0  0  0  0  0  0
   -6.1930    4.1390    4.3300 N   0  0  0  0  0  0  0  0  0  0  0  0
   -5.2570    5.0050    5.0500 C   0  0  1  0  0  0  0  0  0  0  0  0
   -5.8550    6.4130    5.2890 C   0  0  0  0  0  0  0  0  0  0  0  0
   -4.8910    7.5170    5.6700 C   0  0  0  0  0  0  0  0  0  0  0  0
   -3.5520    7.4680    5.2530 C   0  0  0  0  0  0  0  0  0  0  0  0
   -2.6560    8.4790    5.6080 C   0  0  0  0  0  0  0  0  0  0  0  0
   -3.0890    9.5580    6.3750 C   0  0  0  0  0  0  0  0  0  0  0  0
   -4.4210    9.6320    6.7750 C   0  0  0  0  0  0  0  0  0  0  0  0
   -5.3180    8.6240    6.4160 C   0  0  0  0  0  0  0  0  0  0  0  0
   -4.7710    4.2780    6.3210 C   0  0  0  0  0  0  0  0  0  0  0  0
   -3.3970    3.6050    6.2030 C   0  0  2  0  0  0  0  0  0  0  0  0
   -3.5520    2.3780    5.4830 O   0  0  0  0  0  0  0  0  0  0  0  0
   -2.7250    3.3710    7.5920 C   0  0  2  0  0  0  0  0  0  0  0  0
   -3.5600    2.4260    8.4840 C   0  0  0  0  0  0  0  0  0  0  0  0
   -2.7930    1.8550    9.6580 C   0  0  0  0  0  0  0  0  0  0  0  0
   -2.8070    2.5040   10.9000 C   0  0  0  0  0  0  0  0  0  0  0  0
   -2.0960    1.9800   11.9800 C   0  0  0  0  0  0  0  0  0  0  0  0
   -1.3660    0.8010   11.8310 C   0  0  0  0  0  0  0  0  0  0  0  0
   -1.3490    0.1460   10.6020 C   0  0  0  0  0  0  0  0  0  0  0  0
   -2.0610    0.6670    9.5210 C   0  0  0  0  0  0  0  0  0  0  0  0
   -2.4940    4.6480    8.2720 N   0  0  0  0  0  0  0  0  0  0  0  0
   -1.2710    5.0350    8.7210 C   0  0  0  0  0  0  0  0  0  0  0  0
   -0.2550    4.3580    8.6520 O   0  0  0  0  0  0  0  0  0  0  0  0
   -1.3560    6.2800    9.2390 O   0  0  0  0  0  0  0  0  0  0  0  0
   -0.6880    7.2650    8.4490 C   0  0  0  0  0  0  0  0  0  0  0  0
    0.5850    7.5720    9.1600 C   0  0  0  0  0  0  0  0  0  0  0  0
    0.9170    7.3500   10.4830 C   0  0  0  0  0  0  0  0  0  0  0  0
    2.1890    7.7370   10.8570 N   0  0  0  0  0  0  0  0  0  0  0  0
    2.8040    8.2570    9.8190 C   0  0  0  0  0  0  0  0  0  0  0  0
    1.9120    8.3040    8.3550 S   0  0  0  0  0  0  0  0  0  0  0  0
   -7.8380    3.0580    1.4670 C   0  0  0  0  0  0  0  0  0  0  0  0
   -9.2460    3.3220    2.0170 C   0  0  0  0  0  0  0  0  0  0  0  0
   -7.9360    2.0550    0.3100 C   0  0  0  0  0  0  0  0  0  0  0  0
   -5.2610   -1.4410    6.1970 C   0  0  0  0  0  0  0  0  0  0  0  0
   -4.2490   -1.4270    7.5770 S   0  0  0  0  0  0  0  0  0  0  0  0
   -6.1352   -2.0563   11.8732 H   0  0  0  0  0  0  0  0  0  0  0  0
   -7.2856   -2.1653   10.4979 H   0  0  0  0  0  0  0  0  0  0  0  0
   -5.7889   -3.1587   10.4979 H   0  0  0  0  0  0  0  0  0  0  0  0
   -4.4083   -1.1434   10.3221 H   0  0  0  0  0  0  0  0  0  0  0  0
   -5.9951    0.3318   11.6375 H   0  0  0  0  0  0  0  0  0  0  0  0
   -5.3193    1.0911   10.1565 H   0  0  0  0  0  0  0  0  0  0  0  0
   -7.0028    0.4646   10.1565 H   0  0  0  0  0  0  0  0  0  0  0  0
   -7.5413   -1.8584    4.7492 H   0  0  0  0  0  0  0  0  0  0  0  0
   -8.6474   -1.5907    6.1562 H   0  0  0  0  0  0  0  0  0  0  0  0
   -8.5182    0.7281    7.1206 H   0  0  0  0  0  0  0  0  0  0  0  0
   -8.4646    2.0509    5.9066 H   0  0  0  0  0  0  0  0  0  0  0  0
   -9.8326    0.8867    5.9066 H   0  0  0  0  0  0  0  0  0  0  0  0
   -7.7140    2.4780    4.4960 H   0  0  0  0  0  0  0  0  0  0  0  0
   -6.3107    1.7621    2.0459 H   0  0  0  0  0  0  0  0  0  0  0  0
   -6.8040    3.5510    4.9030 H   0  0  0  0  0  0  0  0  0  0  0  0
   -4.3635    5.1977    4.4380 H   0  0  0  0  0  0  0  0  0  0  0  0
   -6.3604    6.7200    4.3615 H   0  0  0  0  0  0  0  0  0  0  0  0
   -6.5142    6.2974    6.1619 H   0  0  0  0  0  0  0  0  0  0  0  0
   -3.2041    6.6238    4.6396 H   0  0  0  0  0  0  0  0  0  0  0  0
   -1.6071    8.4230    5.2814 H   0  0  0  0  0  0  0  0  0  0  0  0
   -2.3813   10.3490    6.6638 H   0  0  0  0  0  0  0  0  0  0  0  0
   -4.7671   10.4865    7.3751 H   0  0  0  0  0  0  0  0  0  0  0  0
   -6.3718    8.6996    6.7222 H   0  0  0  0  0  0  0  0  0  0  0  0
   -4.7203    5.0148    7.1362 H   0  0  0  0  0  0  0  0  0  0  0  0
   -5.4929    3.4686    6.5049 H   0  0  0  0  0  0  0  0  0  0  0  0
   -2.7200    4.2769    5.6551 H   0  0  0  0  0  0  0  0  0  0  0  0
   -4.2930    2.4800    4.8510 H   0  0  0  0  0  0  0  0  0  0  0  0
   -1.7559    2.8829    7.4114 H   0  0  0  0  0  0  0  0  0  0  0  0
   -4.4214    2.9884    8.8734 H   0  0  0  0  0  0  0  0  0  0  0  0
   -3.8610    1.5755    7.8547 H   0  0  0  0  0  0  0  0  0  0  0  0
   -3.3826    3.4331   11.0242 H   0  0  0  0  0  0  0  0  0  0  0  0
   -2.1112    2.4975   12.9505 H   0  0  0  0  0  0  0  0  0  0  0  0
   -0.8047    0.3892   12.6826 H   0  0  0  0  0  0  0  0  0  0  0  0
   -0.7732   -0.7837   10.4833 H   0  0  0  0  0  0  0  0  0  0  0  0
   -2.0479    0.1420    8.5545 H   0  0  0  0  0  0  0  0  0  0  0  0
   -3.2200    5.3480    8.3140 H   0  0  0  0  0  0  0  0  0  0  0  0
   -0.4782    6.8702    7.4440 H   0  0  0  0  0  0  0  0  0  0  0  0
   -1.3059    8.1665    8.3243 H   0  0  0  0  0  0  0  0  0  0  0  0
    0.2123    6.8936   11.1937 H   0  0  0  0  0  0  0  0  0  0  0  0
    3.8328    8.6405    9.8852 H   0  0  0  0  0  0  0  0  0  0  0  0
   -7.4130    4.0035    1.0990 H   0  0  0  0  0  0  0  0  0  0  0  0
   -9.2171    3.3166    3.1166 H   0  0  0  0  0  0  0  0  0  0  0  0
   -9.5996    4.3021    1.6643 H   0  0  0  0  0  0  0  0  0  0  0  0
   -9.9306    2.5366    1.6643 H   0  0  0  0  0  0  0  0  0  0  0  0
   -8.0355    1.0370    0.7147 H   0  0  0  0  0  0  0  0  0  0  0  0
   -8.8153    2.2918   -0.3071 H   0  0  0  0  0  0  0  0  0  0  0  0
   -7.0275    2.1171   -0.3071 H   0  0  0  0  0  0  0  0  0  0  0  0
   -4.9091   -1.5646    5.1622 H   0  0  0  0  0  0  0  0  0  0  0  0
  1  2  1  0
  2  3  1  0
  2  4  1  0
  4  5  2  0
  5  6  1  0
  6  7  1  0
  7  8  1  0
  8  9  1  0
  8 10  1  0
 10 11  2  0
 10 12  1  0
 12 13  1  0
 13 14  1  0
 14 15  2  0
 14 16  1  0
 16 17  1  0
 17 18  1  0
 18 19  1  0
 19 20  2  0
 20 21  1  0
 21 22  2  0
 22 23  1  0
 23 24  2  0
 17 25  1  0
 25 26  1  0
 26 27  1  0
 26 28  1  0
 28 29  1  0
 29 30  1  0
 30 31  2  0
 31 32  1  0
 32 33  2  0
 33 34  1  0
 34 35  2  0
 28 36  1  0
 36 37  1  0
 37 38  2  0
 37 39  1  0
 39 40  1  0
 40 41  1  0
 41 42  2  0
 42 43  1  0
 43 44  2  0
 44 45  1  0
 13 46  1  0
 46 47  1  0
 46 48  1  0
  6 49  2  0
 49 50  1  0
 50  4  1  0
 24 19  1  0
 35 30  1  0
 45 41  1  0
  1 51  1  0
  1 52  1  0
  1 53  1  0
  2 54  1  0
  3 55  1  0
  3 56  1  0
  3 57  1  0
  7 58  1  0
  7 59  1  0
  9 60  1  0
  9 61  1  0
  9 62  1  0
 12 63  1  0
 13 64  1  6
 16 65  1  0
 17 66  1  6
 18 67  1  0
 18 68  1  0
 20 69  1  0
 21 70  1  0
 22 71  1  0
 23 72  1  0
 24 73  1  0
 25 74  1  0
 25 75  1  0
 26 76  1  6
 27 77  1  0
 28 78  1  6
 29 79  1  0
 29 80  1  0
 31 81  1  0
 32 82  1  0
 33 83  1  0
 34 84  1  0
 35 85  1  0
 36 86  1  0
 40 87  1  0
 40 88  1  0
 42 89  1  0
 44 90  1  0
 46 91  1  0
 47 92  1  0
 47 93  1  0
 47 94  1  0
 48 95  1  0
 48 96  1  0
 48 97  1  0
 49 98  1  0
M  END
>  <meeko>  (2) 
{"is_sidechain": [false], "free_energy": -9.133, "intermolecular_energy": -19.011, "internal_energy": -3.836}

$$$$
3prs_ligand
     RDKit          3D

 98101  0  0  0  0  0  0  0  0999 V2000
   -4.7980    1.2070   10.9000 C   0  0  0  0  0  0  0  0  0  0  0  0
   -3.6830    0.6790    9.9960 C   0  0  0  0  0  0  0  0  0  0  0  0
   -3.5420   -0.8370   10.1460 C   0  0  0  0  0  0  0  0  0  0  0  0
   -2.3770    1.3590   10.3160 C   0  0  0  0  0  0  0  0  0  0  0  0
   -1.8630    2.3480    9.6160 N   0  0  0  0  0  0  0  0  0  0  0  0
   -0.6590    2.7690   10.1740 C   0  0  0  0  0  0  0  0  0  0  0  0
    0.1100    3.9060    9.5560 C   0  0  0  0  0  0  0  0  0  0  0  0
   -0.4360    5.1970    9.9630 N   0  0  0  0  0  0  0  0  0  0  0  0
    0.4440    6.0730   10.7240 C   0  0  0  0  0  0  0  0  0  0  0  0
   -1.6350    5.5820    9.3980 C   0  0  0  0  0  0  0  0  0  0  0  0
   -2.5460    6.0940   10.0430 O   0  0  0  0  0  0  0  0  0  0  0  0
   -1.7300    5.3910    8.0460 N   0  0  0  0  0  0  0  0  0  0  0  0
   -2.9480    5.6780    7.2750 C   0  0  2  0  0  0  0  0  0  0  0  0
   -3.5200    4.3690    6.6790 C   0  0  0  0  0  0  0  0  0  0  0  0
   -2.8520    3.6650    5.9220 O   0  0  0  0  0  0  0  0  0  0  0  0
   -4.8210    4.0780    7.0310 N   0  0  0  0  0  0  0  0  0  0  0  0
   -5.5700    2.9860    6.4020 C   0  0  1  0  0  0  0  0  0  0  0  0
   -6.2560    2.0860    7.4580 C   0  0  0  0  0  0  0  0  0  0  0  0
   -6.0210    0.5930    7.3500 C   0  0  0  0  0  0  0  0  0  0  0  0
   -6.8680   -0.3100    8.0100 C   0  0  0  0  0  0  0  0  0  0  0  0
   -6.6530   -1.6870    7.9210 C   0  0  0  0  0  0  0  0  0  0  0  0
   -5.5930   -2.1800    7.1630 C   0  0  0  0  0  0  0  0  0  0  0  0
   -4.7600   -1.2960    6.4830 C   0  0  0  0  0  0  0  0  0  0  0  0
   -4.9790    0.0810    6.5670 C   0  0  0  0  0  0  0  0  0  0  0  0
   -6.5140    3.5730    5.3320 C   0  0  0  0  0  0  0  0  0  0  0  0
   -6.0350    3.4170    3.8830 C   0  0  2  0  0  0  0  0  0  0  0  0
   -4.9630    4.3380    3.6570 O   0  0  0  0  0  0  0  0  0  0  0  0
   -7.1870    3.6170    2.8480 C   0  0  2  0  0  0  0  0  0  0  0  0
   -7.0420    2.6720    1.6350 C   0  0  0  0  0  0  0  0  0  0  0  0
   -8.3610    2.2520    1.0250 C   0  0  0  0  0  0  0  0  0  0  0  0
   -9.5690    2.5280    1.6810 C   0  0  0  0  0  0  0  0  0  0  0  0
  -10.7850    2.1350    1.1200 C   0  0  0  0  0  0  0  0  0  0  0  0
  -10.8060    1.4660   -0.1030 C   0  0  0  0  0  0  0  0  0  0  0  0
   -9.6130    1.1900   -0.7650 C   0  0  0  0  0  0  0  0  0  0  0  0
   -8.3960    1.5830   -0.2070 C   0  0  0  0  0  0  0  0  0  0  0  0
   -7.2450    5.0130    2.4090 N   0  0  0  0  0  0  0  0  0  0  0  0
   -8.2430    5.8610    2.7710 C   0  0  0  0  0  0  0  0  0  0  0  0
   -9.2100    5.5510    3.4530 O   0  0  0  0  0  0  0  0  0  0  0  0
   -7.9910    7.0910    2.2720 O   0  0  0  0  0  0  0  0  0  0  0  0
   -8.7170    8.1280    2.9350 C   0  0  0  0  0  0  0  0  0  0  0  0
   -7.7410    9.2270    3.1770 C   0  0  0  0  0  0  0  0  0  0  0  0
   -6.7750    9.3310    4.1600 C   0  0  0  0  0  0  0  0  0  0  0  0
   -6.0040   10.4770    4.1280 N   0  0  0  0  0  0  0  0  0  0  0  0
   -6.3990   11.2330    3.1280 C   0  0  0  0  0  0  0  0  0  0  0  0
   -7.6900   10.6220    2.1790 S   0  0  0  0  0  0  0  0  0  0  0  0
   -2.8090    6.8300    6.2480 C   0  0  0  0  0  0  0  0  0  0  0  0
   -2.3000    8.1150    6.9130 C   0  0  0  0  0  0  0  0  0  0  0  0
   -4.1520    7.1220    5.5660 C   0  0  0  0  0  0  0  0  0  0  0  0
   -0.2830    2.0640   11.3040 C   0  0  0  0  0  0  0  0  0  0  0  0
   -1.4450    0.8630   11.6720 S   0  0  0  0  0  0  0  0  0  0  0  0
   -4.5113    1.0712   11.9533 H   0  0  0  0  0  0  0  0  0  0  0  0
   -4.9579    2.2765   10.6985 H   0  0  0  0  0  0  0  0  0  0  0  0
   -5.7267    0.6530   10.6985 H   0  0  0  0  0  0  0  0  0  0  0  0
   -3.9491    0.9040    8.9526 H   0  0  0  0  0  0  0  0  0  0  0  0
   -3.5176   -1.0991   11.2140 H   0  0  0  0  0  0  0  0  0  0  0  0
   -4.3978   -1.3341    9.6659 H   0  0  0  0  0  0  0  0  0  0  0  0
   -2.6092   -1.1678    9.6659 H   0  0  0  0  0  0  0  0  0  0  0  0
    1.1606    3.8441    9.8760 H   0  0  0  0  0  0  0  0  0  0  0  0
    0.0317    3.8247    8.4618 H   0  0  0  0  0  0  0  0  0  0  0  0
    0.2815    5.9112   11.7998 H   0  0  0  0  0  0  0  0  0  0  0  0
    1.4912    5.8482   10.4735 H   0  0  0  0  0  0  0  0  0  0  0  0
    0.2240    7.1212   10.4735 H   0  0  0  0  0  0  0  0  0  0  0  0
   -1.2170    4.5890    7.7180 H   0  0  0  0  0  0  0  0  0  0  0  0
   -3.6892    6.0798    7.9816 H   0  0  0  0  0  0  0  0  0  0  0  0
   -5.3640    4.8930    7.3260 H   0  0  0  0  0  0  0  0  0  0  0  0
   -4.8863    2.3026    5.8770 H   0  0  0  0  0  0  0  0  0  0  0  0
   -5.9001    2.4067    8.4482 H   0  0  0  0  0  0  0  0  0  0  0  0
   -7.3346    2.2174    7.2864 H   0  0  0  0  0  0  0  0  0  0  0  0
   -7.7113    0.0711    8.6046 H   0  0  0  0  0  0  0  0  0  0  0  0
   -7.3210   -2.3829    8.4497 H   0  0  0  0  0  0  0  0  0  0  0  0
   -5.4150   -3.2638    7.1021 H   0  0  0  0  0  0  0  0  0  0  0  0
   -3.9269   -1.6829    5.8778 H   0  0  0  0  0  0  0  0  0  0  0  0
   -4.3259    0.7706    6.0121 H   0  0  0  0  0  0  0  0  0  0  0  0
   -7.4880    3.0702    5.4246 H   0  0  0  0  0  0  0  0  0  0  0  0
   -6.5585    4.6551    5.5243 H   0  0  0  0  0  0  0  0  0  0  0  0
   -5.6797    2.3863    3.7368 H   0  0  0  0  0  0  0  0  0  0  0  0
   -4.3430    4.2850    4.4140 H   0  0  0  0  0  0  0  0  0  0  0  0
   -8.1314    3.3627    3.3515 H   0  0  0  0  0  0  0  0  0  0  0  0
   -6.4517    3.1873    0.8630 H   0  0  0  0  0  0  0  0  0  0  0  0
   -6.5526    1.7568    1.9996 H   0  0  0  0  0  0  0  0  0  0  0  0
   -9.5583    3.0581    2.6448 H   0  0  0  0  0  0  0  0  0  0  0  0
  -11.7276    2.3533    1.6432 H   0  0  0  0  0  0  0  0  0  0  0  0
  -11.7648    1.1564   -0.5446 H   0  0  0  0  0  0  0  0  0  0  0  0
   -9.6297    0.6613   -1.7295 H   0  0  0  0  0  0  0  0  0  0  0  0
   -7.4570    1.3664   -0.7374 H   0  0  0  0  0  0  0  0  0  0  0  0
   -6.4670    5.4320    1.9210 H   0  0  0  0  0  0  0  0  0  0  0  0
   -9.5416    8.4830    2.2993 H   0  0  0  0  0  0  0  0  0  0  0  0
   -9.1597    7.7697    3.8761 H   0  0  0  0  0  0  0  0  0  0  0  0
   -6.6291    8.5498    4.9206 H   0  0  0  0  0  0  0  0  0  0  0  0
   -5.9279   12.2032    2.9120 H   0  0  0  0  0  0  0  0  0  0  0  0
   -2.0776    6.5012    5.4951 H   0  0  0  0  0  0  0  0  0  0  0  0
   -2.3439    8.0041    8.0065 H   0  0  0  0  0  0  0  0  0  0  0  0
   -1.2605    8.3005    6.6047 H   0  0  0  0  0  0  0  0  0  0  0  0
   -2.9305    8.9620    6.6047 H   0  0  0  0  0  0  0  0  0  0  0  0
   -4.9234    7.2897    6.3320 H   0  0  0  0  0  0  0  0  0  0  0  0
   -4.0569    8.0205    4.9385 H   0  0  0  0  0  0  0  0  0  0  0  0
   -4.4385    6.2652    4.9385 H   0  0  0  0  0  0  0  0  0  0  0  0
    0.6333    2.2495   11.8836 H   0  0  0  0  0  0  0  0  0  0  0  0
  1  2  1  0
  2  3  1  0
  2  4  1  0
  4  5  2  0
  5  6  1  0
  6  7  1  0
  7  8  1  0
  8  9  1  0
  8 10  1  0
 10 11  2  0
 10 12  1  0
 12 13  1  0
 13 14  1  0
 14 15  2  0
 14 16  1  0
 16 17  1  0
 17 18  1  0
 18 19  1  0
 19 20  2  0
 20 21  1  0
 21 22  2  0
 22 23  1  0
 23 24  2  0
 17 25  1  0
 25 26  1  0
 26 27  1  0
 26 28  1  0
 28 29  1  0
 29 30  1  0
 30 31  2  0
 31 32  1  0
 32 33  2  0
 33 34  1  0
 34 35  2  0
 28 36  1  0
 36 37  1  0
 37 38  2  0
 37 39  1  0
 39 40  1  0
 40 41  1  0
 41 42  2  0
 42 43  1  0
 43 44  2  0
 44 45  1  0
 13 46  1  0
 46 47  1  0
 46 48  1  0
  6 49  2  0
 49 50  1  0
 50  4  1  0
 24 19  1  0
 35 30  1  0
 45 41  1  0
  1 51  1  0
  1 52  1  0
  1 53  1  0
  2 54  1  0
  3 55  1  0
  3 56  1  0
  3 57  1  0
  7 58  1  0
  7 59  1  0
  9 60  1  0
  9 61  1  0
  9 62  1  0
 12 63  1  0
 13 64  1  1
 16 65  1  0
 17 66  1  6
 18 67  1  0
 18 68  1  0
 20 69  1  0
 21 70  1  0
 22 71  1  0
 23 72  1  0
 24 73  1  0
 25 74  1  0
 25 75  1  0
 26 76  1  1
 27 77  1  0
 28 78  1  1
 29 79  1  0
 29 80  1  0
 31 81  1  0
 32 82  1  0
 33 83  1  0
 34 84  1  0
 35 85  1  0
 36 86  1  0
 40 87  1  0
 40 88  1  0
 42 89  1  0
 44 90  1  0
 46 91  1  0
 47 92  1  0
 47 93  1  0
 47 94  1  0
 48 95  1  0
 48 96  1  0
 48 97  1  0
 49 98  1  0
M  END
>  <meeko>  (3) 
{"is_sidechain": [false], "free_energy": -9.07, "intermolecular_energy": -18.265, "internal_energy": -4.445}

$$$$
3prs_ligand
     RDKit          3D

 98101  0  0  0  0  0  0  0  0999 V2000
   -2.6710   -0.5900    7.9940 C   0  0  0  0  0  0  0  0  0  0  0  0
   -3.2900   -0.1570    9.3240 C   0  0  0  0  0  0  0  0  0  0  0  0
   -3.1590   -1.2700   10.3660 C   0  0  0  0  0  0  0  0  0  0  0  0
   -4.7380    0.2140    9.1360 C   0  0  0  0  0  0  0  0  0  0  0  0
   -5.2080    0.8760    8.1000 N   0  0  0  0  0  0  0  0  0  0  0  0
   -6.5850    1.0490    8.2130 C   0  0  0  0  0  0  0  0  0  0  0  0
   -7.3530    1.7660    7.1340 C   0  0  0  0  0  0  0  0  0  0  0  0
   -7.6680    0.8700    6.0250 N   0  0  0  0  0  0  0  0  0  0  0  0
   -8.8370    0.0150    6.1820 C   0  0  0  0  0  0  0  0  0  0  0  0
   -6.9930    1.0710    4.8380 C   0  0  0  0  0  0  0  0  0  0  0  0
   -6.5900    0.1500    4.1320 O   0  0  0  0  0  0  0  0  0  0  0  0
   -6.8330    2.3810    4.4740 N   0  0  0  0  0  0  0  0  0  0  0  0
   -6.0860    2.7990    3.2800 C   0  0  2  0  0  0  0  0  0  0  0  0
   -5.1050    3.9420    3.6400 C   0  0  0  0  0  0  0  0  0  0  0  0
   -4.0870    4.1440    2.9780 O   0  0  0  0  0  0  0  0  0  0  0  0
   -5.4410    4.6790    4.7560 N   0  0  0  0  0  0  0  0  0  0  0  0
   -4.5260    5.6630    5.3410 C   0  0  1  0  0  0  0  0  0  0  0  0
   -5.1240    7.0900    5.3000 C   0  0  0  0  0  0  0  0  0  0  0  0
   -4.3050    8.2010    5.9240 C   0  0  0  0  0  0  0  0  0  0  0  0
   -4.9360    9.2800    6.5590 C   0  0  0  0  0  0  0  0  0  0  0  0
   -4.1870   10.3120    7.1290 C   0  0  0  0  0  0  0  0  0  0  0  0
   -2.7950   10.2730    7.0790 C   0  0  0  0  0  0  0  0  0  0  0  0
   -2.1550    9.1950    6.4730 C   0  0  0  0  0  0  0  0  0  0  0  0
   -2.9050    8.1600    5.9090 C   0  0  0  0  0  0  0  0  0  0  0  0
   -4.0890    5.1780    6.7390 C   0  0  0  0  0  0  0  0  0  0  0  0
   -2.8280    4.3040    6.7620 C   0  0  2  0  0  0  0  0  0  0  0  0
   -3.2240    2.9320    6.6650 O   0  0  0  0  0  0  0  0  0  0  0  0
   -1.9490    4.5560    8.0270 C   0  0  2  0  0  0  0  0  0  0  0  0
   -2.7340    4.3050    9.3340 C   0  0  0  0  0  0  0  0  0  0  0  0
   -2.1000    3.2710   10.2390 C   0  0  0  0  0  0  0  0  0  0  0  0
   -2.8110    2.7460   11.3270 C   0  0  0  0  0  0  0  0  0  0  0  0
   -2.2240    1.7970   12.1650 C   0  0  0  0  0  0  0  0  0  0  0  0
   -0.9230    1.3610   11.9230 C   0  0  0  0  0  0  0  0  0  0  0  0
   -0.2090    1.8720   10.8420 C   0  0  0  0  0  0  0  0  0  0  0  0
   -0.7940    2.8200   10.0020 C   0  0  0  0  0  0  0  0  0  0  0  0
   -1.4020    5.9150    8.0090 N   0  0  0  0  0  0  0  0  0  0  0  0
   -0.1060    6.1940    8.3080 C   0  0  0  0  0  0  0  0  0  0  0  0
    0.7230    5.3670    8.6610 O   0  0  0  0  0  0  0  0  0  0  0  0
    0.1190    7.5150    8.1390 O   0  0  0  0  0  0  0  0  0  0  0  0
    1.5030    7.8640    8.2050 C   0  0  0  0  0  0  0  0  0  0  0  0
    1.5520    9.2780    8.6690 C   0  0  0  0  0  0  0  0  0  0  0  0
    0.5110   10.1660    8.8620 C   0  0  0  0  0  0  0  0  0  0  0  0
    0.8670   11.4230    9.3120 N   0  0  0  0  0  0  0  0  0  0  0  0
    2.1730   11.4780    9.4470 C   0  0  0  0  0  0  0  0  0  0  0  0
    3.0360   10.0480    9.0560 S   0  0  0  0  0  0  0  0  0  0  0  0
   -6.9630    3.0900    2.0350 C   0  0  0  0  0  0  0  0  0  0  0  0
   -8.3510    3.6030    2.4360 C   0  0  0  0  0  0  0  0  0  0  0  0
   -7.1280    1.8300    1.1740 C   0  0  0  0  0  0  0  0  0  0  0  0
   -7.1300    0.5070    9.3630 C   0  0  0  0  0  0  0  0  0  0  0  0
   -5.9110   -0.2270   10.3140 S   0  0  0  0  0  0  0  0  0  0  0  0
   -1.7837   -1.2107    8.1874 H   0  0  0  0  0  0  0  0  0  0  0  0
   -3.4069   -1.1713    7.4191 H   0  0  0  0  0  0  0  0  0  0  0  0
   -2.3773    0.3006    7.4191 H   0  0  0  0  0  0  0  0  0  0  0  0
   -2.7452    0.7272    9.6866 H   0  0  0  0  0  0  0  0  0  0  0  0
   -3.2102   -0.8353   11.3752 H   0  0  0  0  0  0  0  0  0  0  0  0
   -3.9783   -1.9923   10.2359 H   0  0  0  0  0  0  0  0  0  0  0  0
   -2.1943   -1.7824   10.2359 H   0  0  0  0  0  0  0  0  0  0  0  0
   -8.2904    2.1544    7.5587 H   0  0  0  0  0  0  0  0  0  0  0  0
   -6.7303    2.5880    6.7512 H   0  0  0  0  0  0  0  0  0  0  0  0
   -9.0410   -0.1342    7.2526 H   0  0  0  0  0  0  0  0  0  0  0  0
   -9.7066    0.4917    5.7060 H   0  0  0  0  0  0  0  0  0  0  0  0
   -8.6461   -0.9581    5.7060 H   0  0  0  0  0  0  0  0  0  0  0  0
   -6.7350    3.0060    5.2580 H   0  0  0  0  0  0  0  0  0  0  0  0
   -5.4911    1.9334    2.9531 H   0  0  0  0  0  0  0  0  0  0  0  0
   -6.0600    4.1890    5.4070 H   0  0  0  0  0  0  0  0  0  0  0  0
   -3.6105    5.7433    4.7365 H   0  0  0  0  0  0  0  0  0  0  0  0
   -5.2857    7.3510    4.2437 H   0  0  0  0  0  0  0  0  0  0  0  0
   -6.0371    7.0329    5.9108 H   0  0  0  0  0  0  0  0  0  0  0  0
   -6.0343    9.3142    6.6089 H   0  0  0  0  0  0  0  0  0  0  0  0
   -4.6962   11.1558    7.6175 H   0  0  0  0  0  0  0  0  0  0  0  0
   -2.2038   11.0909    7.5167 H   0  0  0  0  0  0  0  0  0  0  0  0
   -1.0562    9.1582    6.4383 H   0  0  0  0  0  0  0  0  0  0  0  0
   -2.3906    7.3038    5.4483 H   0  0  0  0  0  0  0  0  0  0  0  0
   -3.9006    6.0640    7.3632 H   0  0  0  0  0  0  0  0  0  0  0  0
   -4.9070    4.5441    7.1119 H   0  0  0  0  0  0  0  0  0  0  0  0
   -2.1959    4.5727    5.9028 H   0  0  0  0  0  0  0  0  0  0  0  0
   -2.4580    2.3700    6.9050 H   0  0  0  0  0  0  0  0  0  0  0  0
   -1.1174    3.8365    7.9994 H   0  0  0  0  0  0  0  0  0  0  0  0
   -2.8011    5.2542    9.8858 H   0  0  0  0  0  0  0  0  0  0  0  0
   -3.7210    3.9151    9.0447 H   0  0  0  0  0  0  0  0  0  0  0  0
   -3.8393    3.0846   11.5217 H   0  0  0  0  0  0  0  0  0  0  0  0
   -2.7892    1.3927   13.0177 H   0  0  0  0  0  0  0  0  0  0  0  0
   -0.4604    0.6141   12.5849 H   0  0  0  0  0  0  0  0  0  0  0  0
    0.8179    1.5276   10.6501 H   0  0  0  0  0  0  0  0  0  0  0  0
   -0.2262    3.2165    9.1474 H   0  0  0  0  0  0  0  0  0  0  0  0
   -1.9450    6.6840    7.6440 H   0  0  0  0  0  0  0  0  0  0  0  0
    2.0278    7.2103    8.9173 H   0  0  0  0  0  0  0  0  0  0  0  0
    1.9939    7.7450    7.2278 H   0  0  0  0  0  0  0  0  0  0  0  0
   -0.5361    9.8894    8.6694 H   0  0  0  0  0  0  0  0  0  0  0  0
    2.6838   12.3894    9.7912 H   0  0  0  0  0  0  0  0  0  0  0  0
   -6.4467    3.8681    1.4536 H   0  0  0  0  0  0  0  0  0  0  0  0
   -8.4285    3.6317    3.5329 H   0  0  0  0  0  0  0  0  0  0  0  0
   -8.4988    4.6152    2.0314 H   0  0  0  0  0  0  0  0  0  0  0  0
   -9.1215    2.9303    2.0314 H   0  0  0  0  0  0  0  0  0  0  0  0
   -7.2429    0.9522    1.8269 H   0  0  0  0  0  0  0  0  0  0  0  0
   -8.0202    1.9340    0.5390 H   0  0  0  0  0  0  0  0  0  0  0  0
   -6.2391    1.7008    0.5390 H   0  0  0  0  0  0  0  0  0  0  0  0
   -8.1968    0.5427    9.6289 H   0  0  0  0  0  0  0  0  0  0  0  0
  1  2  1  0
  2  3  1  0
  2  4  1  0
  4  5  2  0
  5  6  1  0
  6  7  1  0
  7  8  1  0
  8  9  1  0
  8 10  1  0
 10 11  2  0
 10 12  1  0
 12 13  1  0
 13 14  1  0
 14 15  2  0
 14 16  1  0
 16 17  1  0
 17 18  1  0
 18 19  1  0
 19 20  2  0
 20 21  1  0
 21 22  2  0
 22 23  1  0
 23 24  2  0
 17 25  1  0
 25 26  1  0
 26 27  1  0
 26 28  1  0
 28 29  1  0
 29 30  1  0
 30 31  2  0
 31 32  1  0
 32 33  2  0
 33 34  1  0
 34 35  2  0
 28 36  1  0
 36 37  1  0
 37 38  2  0
 37 39  1  0
 39 40  1  0
 40 41  1  0
 41 42  2  0
 42 43  1  0
 43 44  2  0
 44 45  1  0
 13 46  1  0
 46 47  1  0
 46 48  1  0
  6 49  2  0
 49 50  1  0
 50  4  1  0
 24 19  1  0
 35 30  1  0
 45 41  1  0
  1 51  1  0
  1 52  1  0
  1 53  1  0
  2 54  1  0
  3 55  1  0
  3 56  1  0
  3 57  1  0
  7 58  1  0
  7 59  1  0
  9 60  1  0
  9 61  1  0
  9 62  1  0
 12 63  1  0
 13 64  1  6
 16 65  1  0
 17 66  1  6
 18 67  1  0
 18 68  1  0
 20 69  1  0
 21 70  1  0
 22 71  1  0
 23 72  1  0
 24 73  1  0
 25 74  1  0
 25 75  1  0
 26 76  1  6
 27 77  1  0
 28 78  1  6
 29 79  1  0
 29 80  1  0
 31 81  1  0
 32 82  1  0
 33 83  1  0
 34 84  1  0
 35 85  1  0
 36 86  1  0
 40 87  1  0
 40 88  1  0
 42 89  1  0
 44 90  1  0
 46 91  1  0
 47 92  1  0
 47 93  1  0
 47 94  1  0
 48 95  1  0
 48 96  1  0
 48 97  1  0
 49 98  1  0
M  END
>  <meeko>  (4) 
{"is_sidechain": [false], "free_energy": -8.951, "intermolecular_energy": -18.1, "internal_energy": -4.359}

$$$$
3prs_ligand
     RDKit          3D

 98101  0  0  0  0  0  0  0  0999 V2000
   -5.9180   -1.9420    5.7880 C   0  0  0  0  0  0  0  0  0  0  0  0
   -6.9410   -0.8360    6.0530 C   0  0  0  0  0  0  0  0  0  0  0  0
   -8.0460   -1.3370    6.9830 C   0  0  0  0  0  0  0  0  0  0  0  0
   -7.5320   -0.3420    4.7580 C   0  0  0  0  0  0  0  0  0  0  0  0
   -6.8970    0.4210    3.8940 N   0  0  0  0  0  0  0  0  0  0  0  0
   -7.7060    0.6920    2.7930 C   0  0  0  0  0  0  0  0  0  0  0  0
   -7.1890    1.5350    1.6580 C   0  0  0  0  0  0  0  0  0  0  0  0
   -7.5280    2.9430    1.8480 N   0  0  0  0  0  0  0  0  0  0  0  0
   -8.8590    3.3610    1.4280 C   0  0  0  0  0  0  0  0  0  0  0  0
   -6.6700    3.7020    2.6180 C   0  0  0  0  0  0  0  0  0  0  0  0
   -5.4780    3.8380    2.3560 O   0  0  0  0  0  0  0  0  0  0  0  0
   -7.2500    4.3350    3.6840 N   0  0  0  0  0  0  0  0  0  0  0  0
   -6.4900    5.1340    4.6560 C   0  0  2  0  0  0  0  0  0  0  0  0
   -6.0400    4.2430    5.8400 C   0  0  0  0  0  0  0  0  0  0  0  0
   -6.8060    3.9740    6.7650 O   0  0  0  0  0  0  0  0  0  0  0  0
   -4.7310    3.8120    5.7910 N   0  0  0  0  0  0  0  0  0  0  0  0
   -4.0960    3.1280    6.9210 C   0  0  1  0  0  0  0  0  0  0  0  0
   -4.0860    1.5930    6.7240 C   0  0  0  0  0  0  0  0  0  0  0  0
   -4.3510    0.7380    7.9460 C   0  0  0  0  0  0  0  0  0  0  0  0
   -3.5160   -0.3470    8.2490 C   0  0  0  0  0  0  0  0  0  0  0  0
   -3.7590   -1.1450    9.3700 C   0  0  0  0  0  0  0  0  0  0  0  0
   -4.8350   -0.8610   10.2080 C   0  0  0  0  0  0  0  0  0  0  0  0
   -5.6580    0.2280    9.9320 C   0  0  0  0  0  0  0  0  0  0  0  0
   -5.4110    1.0290    8.8150 C   0  0  0  0  0  0  0  0  0  0  0  0
   -2.7150    3.7630    7.1830 C   0  0  0  0  0  0  0  0  0  0  0  0
   -2.7420    5.2340    7.6160 C   0  0  2  0  0  0  0  0  0  0  0  0
   -2.6340    6.0540    6.4480 O   0  0  0  0  0  0  0  0  0  0  0  0
   -1.6280    5.5720    8.6560 C   0  0  2  0  0  0  0  0  0  0  0  0
   -2.0720    5.2530   10.1010 C   0  0  0  0  0  0  0  0  0  0  0  0
   -1.7890    3.8290   10.5280 C   0  0  0  0  0  0  0  0  0  0  0  0
   -2.8110    3.0260   11.0520 C   0  0  0  0  0  0  0  0  0  0  0  0
   -2.5480    1.7150   11.4500 C   0  0  0  0  0  0  0  0  0  0  0  0
   -1.2620    1.1920   11.3260 C   0  0  0  0  0  0  0  0  0  0  0  0
   -0.2400    1.9790   10.8030 C   0  0  0  0  0  0  0  0  0  0  0  0
   -0.5000    3.2900   10.4020 C   0  0  0  0  0  0  0  0  0  0  0  0
   -1.2270    6.9760    8.5390 N   0  0  0  0  0  0  0  0  0  0  0  0
    0.0620    7.3630    8.3550 C   0  0  0  0  0  0  0  0  0  0  0  0
    1.0210    6.6040    8.3110 O   0  0  0  0  0  0  0  0  0  0  0  0
    0.1130    8.7060    8.2160 O   0  0  0  0  0  0  0  0  0  0  0  0
    1.4310    9.2380    8.3540 C   0  0  0  0  0  0  0  0  0  0  0  0
    1.4130   10.0720    9.5890 C   0  0  0  0  0  0  0  0  0  0  0  0
    0.6270   11.1680    9.8860 C   0  0  0  0  0  0  0  0  0  0  0  0
    0.8320   11.7390   11.1270 N   0  0  0  0  0  0  0  0  0  0  0  0
    1.7780   11.0750   11.7550 C   0  0  0  0  0  0  0  0  0  0  0  0
    2.4590    9.7470   10.9100 S   0  0  0  0  0  0  0  0  0  0  0  0
   -7.1770    6.4550    5.0860 C   0  0  0  0  0  0  0  0  0  0  0  0
   -8.1470    6.9590    4.0100 C   0  0  0  0  0  0  0  0  0  0  0  0
   -6.1370    7.5480    5.3690 C   0  0  0  0  0  0  0  0  0  0  0  0
   -8.9620    0.1170    2.8600 C   0  0  0  0  0  0  0  0  0  0  0  0
   -9.1370   -0.7690    4.3140 S   0  0  0  0  0  0  0  0  0  0  0  0
   -5.5508   -2.3390    6.7459 H   0  0  0  0  0  0  0  0  0  0  0  0
   -6.3931   -2.7510    5.2138 H   0  0  0  0  0  0  0  0  0  0  0  0
   -5.0744   -1.5313    5.2138 H   0  0  0  0  0  0  0  0  0  0  0  0
   -6.4240    0.0013    6.5445 H   0  0  0  0  0  0  0  0  0  0  0  0
   -7.7364   -1.1966    8.0292 H   0  0  0  0  0  0  0  0  0  0  0  0
   -8.9692   -0.7694    6.7945 H   0  0  0  0  0  0  0  0  0  0  0  0
   -8.2275   -2.4054    6.7945 H   0  0  0  0  0  0  0  0  0  0  0  0
   -6.0950    1.4334    1.6052 H   0  0  0  0  0  0  0  0  0  0  0  0
   -7.6566    1.1872    0.7251 H   0  0  0  0  0  0  0  0  0  0  0  0
   -9.4792    3.5558    2.3154 H   0  0  0  0  0  0  0  0  0  0  0  0
   -8.7823    4.2783    0.8258 H   0  0  0  0  0  0  0  0  0  0  0  0
   -9.3205    2.5645    0.8258 H   0  0  0  0  0  0  0  0  0  0  0  0
   -8.0160    3.8200    4.0860 H   0  0  0  0  0  0  0  0  0  0  0  0
   -5.5863    5.4937    4.1422 H   0  0  0  0  0  0  0  0  0  0  0  0
   -4.1230    4.3940    5.2110 H   0  0  0  0  0  0  0  0  0  0  0  0
   -4.6860    3.2709    7.8383 H   0  0  0  0  0  0  0  0  0  0  0  0
   -4.8555    1.3500    5.9765 H   0  0  0  0  0  0  0  0  0  0  0  0
   -3.0550    1.3514    6.4262 H   0  0  0  0  0  0  0  0  0  0  0  0
   -2.6596   -0.5726    7.5965 H   0  0  0  0  0  0  0  0  0  0  0  0
   -3.1003   -1.9979    9.5909 H   0  0  0  0  0  0  0  0  0  0  0  0
   -5.0339   -1.4948   11.0848 H   0  0  0  0  0  0  0  0  0  0  0  0
   -6.5047    0.4578   10.5955 H   0  0  0  0  0  0  0  0  0  0  0  0
   -6.0555    1.8977    8.6152 H   0  0  0  0  0  0  0  0  0  0  0  0
   -2.2197    3.1841    7.9765 H   0  0  0  0  0  0  0  0  0  0  0  0
   -2.1814    3.7385    6.2214 H   0  0  0  0  0  0  0  0  0  0  0  0
   -3.6954    5.4345    8.1268 H   0  0  0  0  0  0  0  0  0  0  0  0
   -1.7090    6.0210    6.1300 H   0  0  0  0  0  0  0  0  0  0  0  0
   -0.7610    4.9337    8.4305 H   0  0  0  0  0  0  0  0  0  0  0  0
   -1.5410    5.9318   10.7846 H   0  0  0  0  0  0  0  0  0  0  0  0
   -3.1632    5.3868   10.1372 H   0  0  0  0  0  0  0  0  0  0  0  0
   -3.8284    3.4325   11.1503 H   0  0  0  0  0  0  0  0  0  0  0  0
   -3.3565    1.0933   11.8622 H   0  0  0  0  0  0  0  0  0  0  0  0
   -1.0550    0.1586   11.6411 H   0  0  0  0  0  0  0  0  0  0  0  0
    0.7751    1.5665   10.7056 H   0  0  0  0  0  0  0  0  0  0  0  0
    0.3110    3.9048    9.9844 H   0  0  0  0  0  0  0  0  0  0  0  0
   -1.9210    7.7050    8.4620 H   0  0  0  0  0  0  0  0  0  0  0  0
    2.1630    8.4231    8.4543 H   0  0  0  0  0  0  0  0  0  0  0  0
    1.7194    9.8305    7.4732 H   0  0  0  0  0  0  0  0  0  0  0  0
   -0.1167   11.5621    9.1778 H   0  0  0  0  0  0  0  0  0  0  0  0
    2.1132   11.3554   12.7645 H   0  0  0  0  0  0  0  0  0  0  0  0
   -7.7416    6.2374    6.0046 H   0  0  0  0  0  0  0  0  0  0  0  0
   -9.0245    7.4149    4.4919 H   0  0  0  0  0  0  0  0  0  0  0  0
   -7.6420    7.7087    3.3832 H   0  0  0  0  0  0  0  0  0  0  0  0
   -8.4702    6.1148    3.3832 H   0  0  0  0  0  0  0  0  0  0  0  0
   -6.0204    7.6706    6.4559 H   0  0  0  0  0  0  0  0  0  0  0  0
   -5.1720    7.2592    4.9269 H   0  0  0  0  0  0  0  0  0  0  0  0
   -6.4733    8.4975    4.9269 H   0  0  0  0  0  0  0  0  0  0  0  0
   -9.7391    0.2152    2.0877 H   0  0  0  0  0  0  0  0  0  0  0  0
  1  2  1  0
  2  3  1  0
  2  4  1  0
  4  5  2  0
  5  6  1  0
  6  7  1  0
  7  8  1  0
  8  9  1  0
  8 10  1  0
 10 11  2  0
 10 12  1  0
 12 13  1  0
 13 14  1  0
 14 15  2  0
 14 16  1  0
 16 17  1  0
 17 18  1  0
 18 19  1  0
 19 20  2  0
 20 21  1  0
 21 22  2  0
 22 23  1  0
 23 24  2  0
 17 25  1  0
 25 26  1  0
 26 27  1  0
 26 28  1  0
 28 29  1  0
 29 30  1  0
 30 31  2  0
 31 32  1  0
 32 33  2  0
 33 34  1  0
 34 35  2  0
 28 36  1  0
 36 37  1  0
 37 38  2  0
 37 39  1  0
 39 40  1  0
 40 41  1  0
 41 42  2  0
 42 43  1  0
 43 44  2  0
 44 45  1  0
 13 46  1  0
 46 47  1  0
 46 48  1  0
  6 49  2  0
 49 50  1  0
 50  4  1  0
 24 19  1  0
 35 30  1  0
 45 41  1  0
  1 51  1  0
  1 52  1  0
  1 53  1  0
  2 54  1  0
  3 55  1  0
  3 56  1  0
  3 57  1  0
  7 58  1  0
  7 59  1  0
  9 60  1  0
  9 61  1  0
  9 62  1  0
 12 63  1  0
 13 64  1  6
 16 65  1  0
 17 66  1  1
 18 67  1  0
 18 68  1  0
 20 69  1  0
 21 70  1  0
 22 71  1  0
 23 72  1  0
 24 73  1  0
 25 74  1  0
 25 75  1  0
 26 76  1  1
 27 77  1  0
 28 78  1  6
 29 79  1  0
 29 80  1  0
 31 81  1  0
 32 82  1  0
 33 83  1  0
 34 84  1  0
 35 85  1  0
 36 86  1  0
 40 87  1  0
 40 88  1  0
 42 89  1  0
 44 90  1  0
 46 91  1  0
 47 92  1  0
 47 93  1  0
 47 94  1  0
 48 95  1  0
 48 96  1  0
 48 97  1  0
 49 98  1  0
M  END
>  <meeko>  (5) 
{"is_sidechain": [false], "free_energy": -8.846, "intermolecular_energy": -17.067, "internal_energy": -5.166}

$$$$
3prs_ligand
     RDKit          3D

 98101  0  0  0  0  0  0  0  0999 V2000
    1.5070   12.7360    9.8290 C   0  0  0  0  0  0  0  0  0  0  0  0
    2.5660   11.6550   10.0510 C   0  0  0  0  0  0  0  0  0  0  0  0
    3.8880   12.0530    9.3940 C   0  0  0  0  0  0  0  0  0  0  0  0
    2.0910   10.3320    9.5090 C   0  0  0  0  0  0  0  0  0  0  0  0
    2.7630    9.2050    9.6040 N   0  0  0  0  0  0  0  0  0  0  0  0
    2.0520    8.1590    9.0220 C   0  0  0  0  0  0  0  0  0  0  0  0
    2.6130    6.7620    9.0230 C   0  0  0  0  0  0  0  0  0  0  0  0
    1.9010    5.9060    9.9660 N   0  0  0  0  0  0  0  0  0  0  0  0
    1.9300    6.3040   11.3670 C   0  0  0  0  0  0  0  0  0  0  0  0
    1.0680    4.9400    9.4390 C   0  0  0  0  0  0  0  0  0  0  0  0
    1.4090    4.1810    8.5350 O   0  0  0  0  0  0  0  0  0  0  0  0
   -0.1670    4.8540   10.0240 N   0  0  0  0  0  0  0  0  0  0  0  0
   -1.2150    3.9330    9.5600 C   0  0  2  0  0  0  0  0  0  0  0  0
   -2.2590    4.7010    8.7130 C   0  0  0  0  0  0  0  0  0  0  0  0
   -2.8080    5.7160    9.1410 O   0  0  0  0  0  0  0  0  0  0  0  0
   -2.5420    4.1500    7.4810 N   0  0  0  0  0  0  0  0  0  0  0  0
   -3.6410    4.6400    6.6440 C   0  0  1  0  0  0  0  0  0  0  0  0
   -3.1590    5.7250    5.6510 C   0  0  0  0  0  0  0  0  0  0  0  0
   -3.3690    7.1710    6.0530 C   0  0  0  0  0  0  0  0  0  0  0  0
   -4.6650    7.6860    6.2040 C   0  0  0  0  0  0  0  0  0  0  0  0
   -4.8660    9.0200    6.5660 C   0  0  0  0  0  0  0  0  0  0  0  0
   -3.7730    9.8540    6.7910 C   0  0  0  0  0  0  0  0  0  0  0  0
   -2.4810    9.3490    6.6670 C   0  0  0  0  0  0  0  0  0  0  0  0
   -2.2800    8.0140    6.3110 C   0  0  0  0  0  0  0  0  0  0  0  0
   -4.3590    3.4370    5.9990 C   0  0  0  0  0  0  0  0  0  0  0  0
   -3.9420    2.0620    6.5360 C   0  0  2  0  0  0  0  0  0  0  0  0
   -2.9940    1.4880    5.6300 O   0  0  0  0  0  0  0  0  0  0  0  0
   -5.1610    1.1130    6.7620 C   0  0  2  0  0  0  0  0  0  0  0  0
   -4.7210   -0.3550    6.9540 C   0  0  0  0  0  0  0  0  0  0  0  0
   -5.0910   -0.9330    8.3030 C   0  0  0  0  0  0  0  0  0  0  0  0
   -4.1080   -1.1500    9.2780 C   0  0  0  0  0  0  0  0  0  0  0  0
   -4.4500   -1.6890   10.5200 C   0  0  0  0  0  0  0  0  0  0  0  0
   -5.7770   -2.0130   10.7990 C   0  0  0  0  0  0  0  0  0  0  0  0
   -6.7620   -1.7980    9.8390 C   0  0  0  0  0  0  0  0  0  0  0  0
   -6.4230   -1.2580    8.5980 C   0  0  0  0  0  0  0  0  0  0  0  0
   -6.1110    1.2250    5.6520 N   0  0  0  0  0  0  0  0  0  0  0  0
   -7.4230    1.5260    5.8300 C   0  0  0  0  0  0  0  0  0  0  0  0
   -7.9620    1.6910    6.9150 O   0  0  0  0  0  0  0  0  0  0  0  0
   -8.0280    1.6260    4.6260 O   0  0  0  0  0  0  0  0  0  0  0  0
   -7.7180    0.5420    3.7480 C   0  0  0  0  0  0  0  0  0  0  0  0
   -8.0390    1.0190    2.3730 C   0  0  0  0  0  0  0  0  0  0  0  0
   -9.0630    0.6260    1.5330 C   0  0  0  0  0  0  0  0  0  0  0  0
   -9.1120    1.2580    0.3060 N   0  0  0  0  0  0  0  0  0  0  0  0
   -8.1210    2.1170    0.2250 C   0  0  0  0  0  0  0  0  0  0  0  0
   -7.0930    2.2210    1.5940 S   0  0  0  0  0  0  0  0  0  0  0  0
   -1.8330    3.0440   10.6680 C   0  0  0  0  0  0  0  0  0  0  0  0
   -0.8010    2.0670   11.2440 C   0  0  0  0  0  0  0  0  0  0  0  0
   -3.0270    2.2450   10.1280 C   0  0  0  0  0  0  0  0  0  0  0  0
    0.8340    8.5360    8.4830 C   0  0  0  0  0  0  0  0  0  0  0  0
    0.5760   10.2130    8.7060 S   0  0  0  0  0  0  0  0  0  0  0  0
    1.1478   13.1027   10.8019 H   0  0  0  0  0  0  0  0  0  0  0  0
    1.9474   13.5699    9.2627 H   0  0  0  0  0  0  0  0  0  0  0  0
    0.6642   12.3129    9.2627 H   0  0  0  0  0  0  0  0  0  0  0  0
    2.7317   11.5520   11.1336 H   0  0  0  0  0  0  0  0  0  0  0  0
    4.6318   12.2769   10.1729 H   0  0  0  0  0  0  0  0  0  0  0  0
    4.2506   11.2242    8.7682 H   0  0  0  0  0  0  0  0  0  0  0  0
    3.7328   12.9442    8.7682 H   0  0  0  0  0  0  0  0  0  0  0  0
    2.5195    6.3375    8.0125 H   0  0  0  0  0  0  0  0  0  0  0  0
    3.6688    6.8118    9.3278 H   0  0  0  0  0  0  0  0  0  0  0  0
    1.8648    5.4094   12.0037 H   0  0  0  0  0  0  0  0  0  0  0  0
    2.8693    6.8363   11.5776 H   0  0  0  0  0  0  0  0  0  0  0  0
    1.0778    6.9668   11.5776 H   0  0  0  0  0  0  0  0  0  0  0  0
   -0.5160    5.7390   10.3550 H   0  0  0  0  0  0  0  0  0  0  0  0
   -0.7287    3.1930    8.9074 H   0  0  0  0  0  0  0  0  0  0  0  0
   -2.3280    3.1520    7.4130 H   0  0  0  0  0  0  0  0  0  0  0  0
   -4.3904    5.1599    7.2589 H   0  0  0  0  0  0  0  0  0  0  0  0
   -2.0799    5.5773    5.4969 H   0  0  0  0  0  0  0  0  0  0  0  0
   -3.7803    5.5859    4.7539 H   0  0  0  0  0  0  0  0  0  0  0  0
   -5.5330    7.0317    6.0354 H   0  0  0  0  0  0  0  0  0  0  0  0
   -5.8880    9.4123    6.6735 H   0  0  0  0  0  0  0  0  0  0  0  0
   -3.9299   10.9076    7.0656 H   0  0  0  0  0  0  0  0  0  0  0  0
   -1.6163   10.0039    6.8501 H   0  0  0  0  0  0  0  0  0  0  0  0
   -1.2560    7.6199    6.2323 H   0  0  0  0  0  0  0  0  0  0  0  0
   -5.4395    3.5549    6.1684 H   0  0  0  0  0  0  0  0  0  0  0  0
   -4.0767    3.4476    4.9359 H   0  0  0  0  0  0  0  0  0  0  0  0
   -3.4810    2.1948    7.5259 H   0  0  0  0  0  0  0  0  0  0  0  0
   -3.1650    0.5260    5.5700 H   0  0  0  0  0  0  0  0  0  0  0  0
   -5.6588    1.4306    7.6901 H   0  0  0  0  0  0  0  0  0  0  0  0
   -5.1982   -0.9649    6.1728 H   0  0  0  0  0  0  0  0  0  0  0  0
   -3.6230   -0.3711    6.8892 H   0  0  0  0  0  0  0  0  0  0  0  0
   -3.0599   -0.8940    9.0635 H   0  0  0  0  0  0  0  0  0  0  0  0
   -3.6718   -1.8581   11.2788 H   0  0  0  0  0  0  0  0  0  0  0  0
   -6.0456   -2.4383   11.7772 H   0  0  0  0  0  0  0  0  0  0  0  0
   -7.8089   -2.0542   10.0591 H   0  0  0  0  0  0  0  0  0  0  0  0
   -7.2064   -1.0859    7.8452 H   0  0  0  0  0  0  0  0  0  0  0  0
   -5.7880    1.2080    4.6950 H   0  0  0  0  0  0  0  0  0  0  0  0
   -6.6516    0.2830    3.8230 H   0  0  0  0  0  0  0  0  0  0  0  0
   -8.2927   -0.3601    4.0048 H   0  0  0  0  0  0  0  0  0  0  0  0
   -9.7941   -0.1428    1.8235 H   0  0  0  0  0  0  0  0  0  0  0  0
   -7.9597    2.7348   -0.6707 H   0  0  0  0  0  0  0  0  0  0  0  0
   -2.1729    3.7190   11.4673 H   0  0  0  0  0  0  0  0  0  0  0  0
   -0.8371    2.1012   12.3429 H   0  0  0  0  0  0  0  0  0  0  0  0
   -1.0302    1.0472   10.9012 H   0  0  0  0  0  0  0  0  0  0  0  0
    0.2047    2.3517   10.9012 H   0  0  0  0  0  0  0  0  0  0  0  0
   -3.6155    1.8512   10.9698 H   0  0  0  0  0  0  0  0  0  0  0  0
   -3.6601    2.9020    9.5136 H   0  0  0  0  0  0  0  0  0  0  0  0
   -2.6611    1.4091    9.5136 H   0  0  0  0  0  0  0  0  0  0  0  0
    0.1312    7.8540    7.9821 H   0  0  0  0  0  0  0  0  0  0  0  0
  1  2  1  0
  2  3  1  0
  2  4  1  0
  4  5  2  0
  5  6  1  0
  6  7  1  0
  7  8  1  0
  8  9  1  0
  8 10  1  0
 10 11  2  0
 10 12  1  0
 12 13  1  0
 13 14  1  0
 14 15  2  0
 14 16  1  0
 16 17  1  0
 17 18  1  0
 18 19  1  0
 19 20  2  0
 20 21  1  0
 21 22  2  0
 22 23  1  0
 23 24  2  0
 17 25  1  0
 25 26  1  0
 26 27  1  0
 26 28  1  0
 28 29  1  0
 29 30  1  0
 30 31  2  0
 31 32  1  0
 32 33  2  0
 33 34  1  0
 34 35  2  0
 28 36  1  0
 36 37  1  0
 37 38  2  0
 37 39  1  0
 39 40  1  0
 40 41  1  0
 41 42  2  0
 42 43  1  0
 43 44  2  0
 44 45  1  0
 13 46  1  0
 46 47  1  0
 46 48  1  0
  6 49  2  0
 49 50  1  0
 50  4  1  0
 24 19  1  0
 35 30  1  0
 45 41  1  0
  1 51  1  0
  1 52  1  0
  1 53  1  0
  2 54  1  0
  3 55  1  0
  3 56  1  0
  3 57  1  0
  7 58  1  0
  7 59  1  0
  9 60  1  0
  9 61  1  0
  9 62  1  0
 12 63  1  0
 13 64  1  6
 16 65  1  0
 17 66  1  1
 18 67  1  0
 18 68  1  0
 20 69  1  0
 21 70  1  0
 22 71  1  0
 23 72  1  0
 24 73  1  0
 25 74  1  0
 25 75  1  0
 26 76  1  1
 27 77  1  0
 28 78  1  1
 29 79  1  0
 29 80  1  0
 31 81  1  0
 32 82  1  0
 33 83  1  0
 34 84  1  0
 35 85  1  0
 36 86  1  0
 40 87  1  0
 40 88  1  0
 42 89  1  0
 44 90  1  0
 46 91  1  0
 47 92  1  0
 47 93  1  0
 47 94  1  0
 48 95  1  0
 48 96  1  0
 48 97  1  0
 49 98  1  0
M  END
>  <meeko>  (6) 
{"is_sidechain": [false], "free_energy": -8.828, "intermolecular_energy": -18.785, "internal_energy": -3.409}

$$$$
3prs_ligand
     RDKit          3D

 98101  0  0  0  0  0  0  0  0999 V2000
    5.2430   12.6460   15.8830 C   0  0  0  0  0  0  0  0  0  0  0  0
    4.2720   11.5610   15.4150 C   0  0  0  0  0  0  0  0  0  0  0  0
    4.6740   11.0370   14.0350 C   0  0  0  0  0  0  0  0  0  0  0  0
    2.8630   12.0930   15.3810 C   0  0  0  0  0  0  0  0  0  0  0  0
    2.2980   12.6370   14.3250 N   0  0  0  0  0  0  0  0  0  0  0  0
    0.9880   13.0130   14.6090 C   0  0  0  0  0  0  0  0  0  0  0  0
    0.1290   13.6440   13.5450 C   0  0  0  0  0  0  0  0  0  0  0  0
   -0.4700   12.6330   12.6790 N   0  0  0  0  0  0  0  0  0  0  0  0
   -1.7660   12.1050   13.0820 C   0  0  0  0  0  0  0  0  0  0  0  0
    0.1110   12.4360   11.4420 C   0  0  0  0  0  0  0  0  0  0  0  0
   -0.4780   12.6400   10.3840 O   0  0  0  0  0  0  0  0  0  0  0  0
    1.4180   12.0300   11.4710 N   0  0  0  0  0  0  0  0  0  0  0  0
    2.1880   11.7060   10.2610 C   0  0  2  0  0  0  0  0  0  0  0  0
    2.7010   10.2470   10.3330 C   0  0  0  0  0  0  0  0  0  0  0  0
    3.3700    9.7590    9.4240 O   0  0  0  0  0  0  0  0  0  0  0  0
    2.3290    9.5440   11.4600 N   0  0  0  0  0  0  0  0  0  0  0  0
    2.5660    8.1040   11.5910 C   0  0  1  0  0  0  0  0  0  0  0  0
    2.1320    7.5810   12.9820 C   0  0  0  0  0  0  0  0  0  0  0  0
    3.1510    7.6630   14.1000 C   0  0  0  0  0  0  0  0  0  0  0  0
    2.7680    8.0840   15.3820 C   0  0  0  0  0  0  0  0  0  0  0  0
    3.7030    8.1710   16.4150 C   0  0  0  0  0  0  0  0  0  0  0  0
    5.0330    7.8280   16.1830 C   0  0  0  0  0  0  0  0  0  0  0  0
    5.4220    7.3850   14.9210 C   0  0  0  0  0  0  0  0  0  0  0  0
    4.4850    7.2930   13.8900 C   0  0  0  0  0  0  0  0  0  0  0  0
    1.9280    7.3760   10.3900 C   0  0  0  0  0  0  0  0  0  0  0  0
    1.4410    5.9490   10.6750 C   0  0  2  0  0  0  0  0  0  0  0  0
    2.4720    5.0330   10.2950 O   0  0  0  0  0  0  0  0  0  0  0  0
    0.0940    5.6230    9.9570 C   0  0  2  0  0  0  0  0  0  0  0  0
    0.0510    4.1640    9.4500 C   0  0  0  0  0  0  0  0  0  0  0  0
   -0.7480    3.2320   10.3350 C   0  0  0  0  0  0  0  0  0  0  0  0
   -2.1170    3.4470   10.5440 C   0  0  0  0  0  0  0  0  0  0  0  0
   -2.8510    2.5900   11.3650 C   0  0  0  0  0  0  0  0  0  0  0  0
   -2.2250    1.5080   11.9820 C   0  0  0  0  0  0  0  0  0  0  0  0
   -0.8670    1.2820   11.7780 C   0  0  0  0  0  0  0  0  0  0  0  0
   -0.1310    2.1370   10.9560 C   0  0  0  0  0  0  0  0  0  0  0  0
   -0.1390    6.5580    8.8540 N   0  0  0  0  0  0  0  0  0  0  0  0
   -1.3820    6.9390    8.4580 C   0  0  0  0  0  0  0  0  0  0  0  0
   -2.4260    6.5210    8.9360 O   0  0  0  0  0  0  0  0  0  0  0  0
   -1.2770    7.8550    7.4710 O   0  0  0  0  0  0  0  0  0  0  0  0
   -2.0770    7.5460    6.3280 C   0  0  0  0  0  0  0  0  0  0  0  0
   -3.2720    8.4320    6.4060 C   0  0  0  0  0  0  0  0  0  0  0  0
   -3.3500    9.7520    6.8060 C   0  0  0  0  0  0  0  0  0  0  0  0
   -4.6090   10.3200    6.7660 N   0  0  0  0  0  0  0  0  0  0  0  0
   -5.4730    9.4220    6.3460 C   0  0  0  0  0  0  0  0  0  0  0  0
   -4.8360    7.8740    5.9730 S   0  0  0  0  0  0  0  0  0  0  0  0
    3.2800   12.7410    9.8910 C   0  0  0  0  0  0  0  0  0  0  0  0
    4.1320   13.1160   11.1100 C   0  0  0  0  0  0  0  0  0  0  0  0
    2.6540   14.0170    9.3110 C   0  0  0  0  0  0  0  0  0  0  0  0
    0.5910   12.7430   15.9070 C   0  0  0  0  0  0  0  0  0  0  0  0
    1.8680   12.0130   16.7810 S   0  0  0  0  0  0  0  0  0  0  0  0
    5.2642   12.6696   16.9825 H   0  0  0  0  0  0  0  0  0  0  0  0
    6.2509   12.4254   15.5015 H   0  0  0  0  0  0  0  0  0  0  0  0
    4.9123   13.6233   15.5015 H   0  0  0  0  0  0  0  0  0  0  0  0
    4.3156   10.7273   16.1312 H   0  0  0  0  0  0  0  0  0  0  0  0
    5.3398   10.1692   14.1520 H   0  0  0  0  0  0  0  0  0  0  0  0
    3.7730   10.7358   13.4804 H   0  0  0  0  0  0  0  0  0  0  0  0
    5.1982   11.8292   13.4804 H   0  0  0  0  0  0  0  0  0  0  0  0
   -0.6723   14.2227   14.0278 H   0  0  0  0  0  0  0  0  0  0  0  0
    0.7636   14.2977   12.9286 H   0  0  0  0  0  0  0  0  0  0  0  0
   -1.8265   12.0803   14.1801 H   0  0  0  0  0  0  0  0  0  0  0  0
   -2.5641   12.7497   12.6852 H   0  0  0  0  0  0  0  0  0  0  0  0
   -1.8863   11.0862   12.6852 H   0  0  0  0  0  0  0  0  0  0  0  0
    1.6410   11.4520   12.2650 H   0  0  0  0  0  0  0  0  0  0  0  0
    1.4958   11.7789    9.4092 H   0  0  0  0  0  0  0  0  0  0  0  0
    1.4940    9.9120   11.9230 H   0  0  0  0  0  0  0  0  0  0  0  0
    3.6435    7.8861   11.5526 H   0  0  0  0  0  0  0  0  0  0  0  0
    1.2509    8.1611   13.2938 H   0  0  0  0  0  0  0  0  0  0  0  0
    1.9541    6.5051   12.8381 H   0  0  0  0  0  0  0  0  0  0  0  0
    1.7181    8.3488   15.5758 H   0  0  0  0  0  0  0  0  0  0  0  0
    3.3892    8.5107   17.4131 H   0  0  0  0  0  0  0  0  0  0  0  0
    5.7730    7.9067   16.9931 H   0  0  0  0  0  0  0  0  0  0  0  0
    6.4701    7.1069   14.7362 H   0  0  0  0  0  0  0  0  0  0  0  0
    4.7983    6.9257   12.9016 H   0  0  0  0  0  0  0  0  0  0  0  0
    1.0654    7.9688   10.0517 H   0  0  0  0  0  0  0  0  0  0  0  0
    2.7208    7.2827    9.6332 H   0  0  0  0  0  0  0  0  0  0  0  0
    1.2343    5.8536   11.7512 H   0  0  0  0  0  0  0  0  0  0  0  0
    2.5020    4.9860    9.3170 H   0  0  0  0  0  0  0  0  0  0  0  0
   -0.7115    5.7385   10.6971 H   0  0  0  0  0  0  0  0  0  0  0  0
   -0.3987    4.1590    8.4461 H   0  0  0  0  0  0  0  0  0  0  0  0
    1.0872    3.7948    9.4497 H   0  0  0  0  0  0  0  0  0  0  0  0
   -2.6166    4.2976   10.0573 H   0  0  0  0  0  0  0  0  0  0  0  0
   -3.9245    2.7684   11.5255 H   0  0  0  0  0  0  0  0  0  0  0  0
   -2.8040    0.8333   12.6297 H   0  0  0  0  0  0  0  0  0  0  0  0
   -0.3730    0.4284   12.2652 H   0  0  0  0  0  0  0  0  0  0  0  0
    0.9409    1.9502   10.7943 H   0  0  0  0  0  0  0  0  0  0  0  0
    0.6300    7.0560    8.4300 H   0  0  0  0  0  0  0  0  0  0  0  0
   -1.5146    7.7447    5.4038 H   0  0  0  0  0  0  0  0  0  0  0  0
   -2.3649    6.4844    6.3151 H   0  0  0  0  0  0  0  0  0  0  0  0
   -2.4649   10.3158    7.1358 H   0  0  0  0  0  0  0  0  0  0  0  0
   -6.5437    9.6508    6.2399 H   0  0  0  0  0  0  0  0  0  0  0  0
    3.9236   12.2700    9.1334 H   0  0  0  0  0  0  0  0  0  0  0  0
    3.5813   12.8736   12.0308 H   0  0  0  0  0  0  0  0  0  0  0  0
    5.0747   12.5496   11.0867 H   0  0  0  0  0  0  0  0  0  0  0  0
    4.3511   14.1937   11.0867 H   0  0  0  0  0  0  0  0  0  0  0  0
    2.3319   14.6736   10.1327 H   0  0  0  0  0  0  0  0  0  0  0  0
    3.3971   14.5415    8.6924 H   0  0  0  0  0  0  0  0  0  0  0  0
    1.7844   13.7503    8.6924 H   0  0  0  0  0  0  0  0  0  0  0  0
   -0.4044   12.9661   16.3185 H   0  0  0  0  0  0  0  0  0  0  0  0
  1  2  1  0
  2  3  1  0
  2  4  1  0
  4  5  2  0
  5  6  1  0
  6  7  1  0
  7  8  1  0
  8  9  1  0
  8 10  1  0
 10 11  2  0
 10 12  1  0
 12 13  1  0
 13 14  1  0
 14 15  2  0
 14 16  1  0
 16 17  1  0
 17 18  1  0
 18 19  1  0
 19 20  2  0
 20 21  1  0
 21 22  2  0
 22 23  1  0
 23 24  2  0
 17 25  1  0
 25 26  1  0
 26 27  1  0
 26 28  1  0
 28 29  1  0
 29 30  1  0
 30 31  2  0
 31 32  1  0
 32 33  2  0
 33 34  1  0
 34 35  2  0
 28 36  1  0
 36 37  1  0
 37 38  2  0
 37 39  1  0
 39 40  1  0
 40 41  1  0
 41 42  2  0
 42 43  1  0
 43 44  2  0
 44 45  1  0
 13 46  1  0
 46 47  1  0
 46 48  1  0
  6 49  2  0
 49 50  1  0
 50  4  1  0
 24 19  1  0
 35 30  1  0
 45 41  1  0
  1 51  1  0
  1 52  1  0
  1 53  1  0
  2 54  1  0
  3 55  1  0
  3 56  1  0
  3 57  1  0
  7 58  1  0
  7 59  1  0
  9 60  1  0
  9 61  1  0
  9 62  1  0
 12 63  1  0
 13 64  1  6
 16 65  1  0
 17 66  1  6
 18 67  1  0
 18 68  1  0
 20 69  1  0
 21 70  1  0
 22 71  1  0
 23 72  1  0
 24 73  1  0
 25 74  1  0
 25 75  1  0
 26 76  1  1
 27 77  1  0
 28 78  1  1
 29 79  1  0
 29 80  1  0
 31 81  1  0
 32 82  1  0
 33 83  1  0
 34 84  1  0
 35 85  1  0
 36 86  1  0
 40 87  1  0
 40 88  1  0
 42 89  1  0
 44 90  1  0
 46 91  1  0
 47 92  1  0
 47 93  1  0
 47 94  1  0
 48 95  1  0
 48 96  1  0
 48 97  1  0
 49 98  1  0
M  END
>  <meeko>  (7) 
{"is_sidechain": [false], "free_energy": -8.735, "intermolecular_energy": -18.1, "internal_energy": -3.894}

$$$$
3prs_ligand
     RDKit          3D

 98101  0  0  0  0  0  0  0  0999 V2000
   -6.0190    0.7770   11.1650 C   0  0  0  0  0  0  0  0  0  0  0  0
   -6.7080   -0.5500   10.8440 C   0  0  0  0  0  0  0  0  0  0  0  0
   -5.6910   -1.6920   10.8180 C   0  0  0  0  0  0  0  0  0  0  0  0
   -7.4310   -0.4640    9.5260 C   0  0  0  0  0  0  0  0  0  0  0  0
   -7.3510    0.5570    8.6990 N   0  0  0  0  0  0  0  0  0  0  0  0
   -8.1210    0.3270    7.5610 C   0  0  0  0  0  0  0  0  0  0  0  0
   -8.1740    1.3510    6.4590 C   0  0  0  0  0  0  0  0  0  0  0  0
   -6.9310    1.3710    5.6940 N   0  0  0  0  0  0  0  0  0  0  0  0
   -6.1100    0.1680    5.7420 C   0  0  0  0  0  0  0  0  0  0  0  0
   -6.7500    2.4130    4.8070 C   0  0  0  0  0  0  0  0  0  0  0  0
   -6.5800    2.2460    3.6020 O   0  0  0  0  0  0  0  0  0  0  0  0
   -6.8130    3.6640    5.3590 N   0  0  0  0  0  0  0  0  0  0  0  0
   -6.5820    4.8950    4.5900 C   0  0  2  0  0  0  0  0  0  0  0  0
   -5.0680    5.2190    4.5490 C   0  0  0  0  0  0  0  0  0  0  0  0
   -4.3080    4.6260    3.7840 O   0  0  0  0  0  0  0  0  0  0  0  0
   -4.6450    6.1810    5.4410 N   0  0  0  0  0  0  0  0  0  0  0  0
   -3.2240    6.4630    5.6640 C   0  0  1  0  0  0  0  0  0  0  0  0
   -2.8650    7.9170    5.2730 C   0  0  0  0  0  0  0  0  0  0  0  0
   -3.9060    8.9830    5.5450 C   0  0  0  0  0  0  0  0  0  0  0  0
   -4.9200    9.2410    4.6110 C   0  0  0  0  0  0  0  0  0  0  0  0
   -5.8790   10.2280    4.8510 C   0  0  0  0  0  0  0  0  0  0  0  0
   -5.8410   10.9630    6.0330 C   0  0  0  0  0  0  0  0  0  0  0  0
   -4.8540   10.7010    6.9800 C   0  0  0  0  0  0  0  0  0  0  0  0
   -3.9000    9.7100    6.7420 C   0  0  0  0  0  0  0  0  0  0  0  0
   -2.8510    6.0630    7.1070 C   0  0  0  0  0  0  0  0  0  0  0  0
   -2.7390    4.5540    7.3580 C   0  0  2  0  0  0  0  0  0  0  0  0
   -4.0410    4.0480    7.6720 O   0  0  0  0  0  0  0  0  0  0  0  0
   -1.7070    4.2080    8.4770 C   0  0  2  0  0  0  0  0  0  0  0  0
   -2.4000    3.8880    9.8200 C   0  0  0  0  0  0  0  0  0  0  0  0
   -2.2000    2.4620   10.2870 C   0  0  0  0  0  0  0  0  0  0  0  0
   -2.7150    1.3910    9.5430 C   0  0  0  0  0  0  0  0  0  0  0  0
   -2.5360    0.0770    9.9770 C   0  0  0  0  0  0  0  0  0  0  0  0
   -1.8380   -0.1810   11.1560 C   0  0  0  0  0  0  0  0  0  0  0  0
   -1.3190    0.8750   11.9000 C   0  0  0  0  0  0  0  0  0  0  0  0
   -1.4950    2.1900   11.4680 C   0  0  0  0  0  0  0  0  0  0  0  0
   -0.7450    5.3000    8.6420 N   0  0  0  0  0  0  0  0  0  0  0  0
    0.5660    5.0920    8.9320 C   0  0  0  0  0  0  0  0  0  0  0  0
    1.0730    3.9970    9.1280 O   0  0  0  0  0  0  0  0  0  0  0  0
    1.2140    6.2770    8.9540 O   0  0  0  0  0  0  0  0  0  0  0  0
    0.4600    7.3440    8.3760 C   0  0  0  0  0  0  0  0  0  0  0  0
    1.2300    8.5900    8.6480 C   0  0  0  0  0  0  0  0  0  0  0  0
    0.8320    9.9060    8.5070 C   0  0  0  0  0  0  0  0  0  0  0  0
    1.7720   10.8590    8.8470 N   0  0  0  0  0  0  0  0  0  0  0  0
    2.8750   10.2570    9.2320 C   0  0  0  0  0  0  0  0  0  0  0  0
    2.8480    8.5430    9.2170 S   0  0  0  0  0  0  0  0  0  0  0  0
   -7.4720    6.0950    5.0040 C   0  0  0  0  0  0  0  0  0  0  0  0
   -8.6010    5.6560    5.9450 C   0  0  0  0  0  0  0  0  0  0  0  0
   -8.0860    6.7740    3.7730 C   0  0  0  0  0  0  0  0  0  0  0  0
   -8.7830   -0.8880    7.5640 C   0  0  0  0  0  0  0  0  0  0  0  0
   -8.4420   -1.7520    9.0010 S   0  0  0  0  0  0  0  0  0  0  0  0
   -5.9541    0.9020   12.2560 H   0  0  0  0  0  0  0  0  0  0  0  0
   -5.0065    0.7779   10.7350 H   0  0  0  0  0  0  0  0  0  0  0  0
   -6.6008    1.6056   10.7350 H   0  0  0  0  0  0  0  0  0  0  0  0
   -7.4442   -0.7564   11.6348 H   0  0  0  0  0  0  0  0  0  0  0  0
   -5.4355   -1.9789   11.8487 H   0  0  0  0  0  0  0  0  0  0  0  0
   -6.1238   -2.5565   10.2933 H   0  0  0  0  0  0  0  0  0  0  0  0
   -4.7823   -1.3619   10.2933 H   0  0  0  0  0  0  0  0  0  0  0  0
   -9.0069    1.1074    5.7831 H   0  0  0  0  0  0  0  0  0  0  0  0
   -8.3186    2.3425    6.9128 H   0  0  0  0  0  0  0  0  0  0  0  0
   -5.9227   -0.1065    6.7906 H   0  0  0  0  0  0  0  0  0  0  0  0
   -6.6356   -0.6551    5.2358 H   0  0  0  0  0  0  0  0  0  0  0  0
   -5.1519    0.3575    5.2358 H   0  0  0  0  0  0  0  0  0  0  0  0
   -6.4730    3.7020    6.3060 H   0  0  0  0  0  0  0  0  0  0  0  0
   -6.9141    4.6986    3.5599 H   0  0  0  0  0  0  0  0  0  0  0  0
   -5.2660    6.3040    6.2450 H   0  0  0  0  0  0  0  0  0  0  0  0
   -2.6004    5.8496    4.9970 H   0  0  0  0  0  0  0  0  0  0  0  0
   -1.9554    8.1937    5.8262 H   0  0  0  0  0  0  0  0  0  0  0  0
   -2.7569    7.8983    4.1785 H   0  0  0  0  0  0  0  0  0  0  0  0
   -4.9606    8.6592    3.6783 H   0  0  0  0  0  0  0  0  0  0  0  0
   -6.6642   10.4246    4.1062 H   0  0  0  0  0  0  0  0  0  0  0  0
   -6.5885   11.7484    6.2183 H   0  0  0  0  0  0  0  0  0  0  0  0
   -4.8261   11.2760    7.9173 H   0  0  0  0  0  0  0  0  0  0  0  0
   -3.1349    9.4977    7.5033 H   0  0  0  0  0  0  0  0  0  0  0  0
   -1.8800    6.5209    7.3469 H   0  0  0  0  0  0  0  0  0  0  0  0
   -3.6738    6.4183    7.7447 H   0  0  0  0  0  0  0  0  0  0  0  0
   -2.3594    4.0711    6.4454 H   0  0  0  0  0  0  0  0  0  0  0  0
   -4.0600    3.0900    7.4660 H   0  0  0  0  0  0  0  0  0  0  0  0
   -1.1677    3.3028    8.1611 H   0  0  0  0  0  0  0  0  0  0  0  0
   -1.9965    4.5642   10.5881 H   0  0  0  0  0  0  0  0  0  0  0  0
   -3.4801    4.0250    9.6634 H   0  0  0  0  0  0  0  0  0  0  0  0
   -3.2641    1.5880    8.6104 H   0  0  0  0  0  0  0  0  0  0  0  0
   -2.9462   -0.7566    9.3880 H   0  0  0  0  0  0  0  0  0  0  0  0
   -1.6976   -1.2171   11.4977 H   0  0  0  0  0  0  0  0  0  0  0  0
   -0.7688    0.6722   12.8307 H   0  0  0  0  0  0  0  0  0  0  0  0
   -1.0777    3.0192   12.0582 H   0  0  0  0  0  0  0  0  0  0  0  0
   -1.0000    6.2500    8.4160 H   0  0  0  0  0  0  0  0  0  0  0  0
    0.3518    7.1913    7.2920 H   0  0  0  0  0  0  0  0  0  0  0  0
   -0.5527    7.3968    8.8022 H   0  0  0  0  0  0  0  0  0  0  0  0
   -0.1711   10.1775    8.1464 H   0  0  0  0  0  0  0  0  0  0  0  0
    3.7655   10.8212    9.5462 H   0  0  0  0  0  0  0  0  0  0  0  0
   -6.8221    6.8090    5.5311 H   0  0  0  0  0  0  0  0  0  0  0  0
   -8.2779    5.7816    6.9889 H   0  0  0  0  0  0  0  0  0  0  0  0
   -9.4929    6.2729    5.7604 H   0  0  0  0  0  0  0  0  0  0  0  0
   -8.8419    4.5987    5.7604 H   0  0  0  0  0  0  0  0  0  0  0  0
   -8.7909    7.5535    4.0976 H   0  0  0  0  0  0  0  0  0  0  0  0
   -7.2875    7.2301    3.1693 H   0  0  0  0  0  0  0  0  0  0  0  0
   -8.6198    6.0253    3.1693 H   0  0  0  0  0  0  0  0  0  0  0  0
   -9.4368   -1.2480    6.7559 H   0  0  0  0  0  0  0  0  0  0  0  0
  1  2  1  0
  2  3  1  0
  2  4  1  0
  4  5  2  0
  5  6  1  0
  6  7  1  0
  7  8  1  0
  8  9  1  0
  8 10  1  0
 10 11  2  0
 10 12  1  0
 12 13  1  0
 13 14  1  0
 14 15  2  0
 14 16  1  0
 16 17  1  0
 17 18  1  0
 18 19  1  0
 19 20  2  0
 20 21  1  0
 21 22  2  0
 22 23  1  0
 23 24  2  0
 17 25  1  0
 25 26  1  0
 26 27  1  0
 26 28  1  0
 28 29  1  0
 29 30  1  0
 30 31  2  0
 31 32  1  0
 32 33  2  0
 33 34  1  0
 34 35  2  0
 28 36  1  0
 36 37  1  0
 37 38  2  0
 37 39  1  0
 39 40  1  0
 40 41  1  0
 41 42  2  0
 42 43  1  0
 43 44  2  0
 44 45  1  0
 13 46  1  0
 46 47  1  0
 46 48  1  0
  6 49  2  0
 49 50  1  0
 50  4  1  0
 24 19  1  0
 35 30  1  0
 45 41  1  0
  1 51  1  0
  1 52  1  0
  1 53  1  0
  2 54  1  0
  3 55  1  0
  3 56  1  0
  3 57  1  0
  7 58  1  0
  7 59  1  0
  9 60  1  0
  9 61  1  0
  9 62  1  0
 12 63  1  0
 13 64  1  6
 16 65  1  0
 17 66  1  6
 18 67  1  0
 18 68  1  0
 20 69  1  0
 21 70  1  0
 22 71  1  0
 23 72  1  0
 24 73  1  0
 25 74  1  0
 25 75  1  0
 26 76  1  6
 27 77  1  0
 28 78  1  6
 29 79  1  0
 29 80  1  0
 31 81  1  0
 32 82  1  0
 33 83  1  0
 34 84  1  0
 35 85  1  0
 36 86  1  0
 40 87  1  0
 40 88  1  0
 42 89  1  0
 44 90  1  0
 46 91  1  0
 47 92  1  0
 47 93  1  0
 47 94  1  0
 48 95  1  0
 48 96  1  0
 48 97  1  0
 49 98  1  0
M  END
>  <meeko>  (8) 
{"is_sidechain": [false], "free_energy": -8.715, "intermolecular_energy": -18.243, "internal_energy": -3.71}

$$$$
3prs_ligand
     RDKit          3D

 98101  0  0  0  0  0  0  0  0999 V2000
    2.8860   11.4050    9.7470 C   0  0  0  0  0  0  0  0  0  0  0  0
    1.4650   10.8640    9.9150 C   0  0  0  0  0  0  0  0  0  0  0  0
    0.9300   11.1800   11.3120 C   0  0  0  0  0  0  0  0  0  0  0  0
    1.4330    9.3780    9.6670 C   0  0  0  0  0  0  0  0  0  0  0  0
    0.8710    8.5020   10.4720 N   0  0  0  0  0  0  0  0  0  0  0  0
    0.9960    7.2140    9.9570 C   0  0  0  0  0  0  0  0  0  0  0  0
    0.4120    6.0390   10.6960 C   0  0  0  0  0  0  0  0  0  0  0  0
   -0.2750    5.1290    9.7840 N   0  0  0  0  0  0  0  0  0  0  0  0
    0.3100    3.8060    9.6120 C   0  0  0  0  0  0  0  0  0  0  0  0
   -1.5330    5.4960    9.3520 C   0  0  0  0  0  0  0  0  0  0  0  0
   -2.4470    5.7870   10.1190 O   0  0  0  0  0  0  0  0  0  0  0  0
   -1.6880    5.5560    7.9930 N   0  0  0  0  0  0  0  0  0  0  0  0
   -2.9680    5.8640    7.3410 C   0  0  2  0  0  0  0  0  0  0  0  0
   -3.5280    4.5990    6.6450 C   0  0  0  0  0  0  0  0  0  0  0  0
   -3.2790    4.3560    5.4650 O   0  0  0  0  0  0  0  0  0  0  0  0
   -4.3370    3.8030    7.4270 N   0  0  0  0  0  0  0  0  0  0  0  0
   -5.0980    2.6820    6.8690 C   0  0  1  0  0  0  0  0  0  0  0  0
   -6.4260    3.1580    6.2320 C   0  0  0  0  0  0  0  0  0  0  0  0
   -6.6210    2.8840    4.7550 C   0  0  0  0  0  0  0  0  0  0  0  0
   -6.1620    3.7990    3.7950 C   0  0  0  0  0  0  0  0  0  0  0  0
   -6.3460    3.5570    2.4320 C   0  0  0  0  0  0  0  0  0  0  0  0
   -6.9820    2.3920    2.0100 C   0  0  0  0  0  0  0  0  0  0  0  0
   -7.4210    1.4640    2.9510 C   0  0  0  0  0  0  0  0  0  0  0  0
   -7.2320    1.7030    4.3140 C   0  0  0  0  0  0  0  0  0  0  0  0
   -4.1810    1.8650    5.9350 C   0  0  0  0  0  0  0  0  0  0  0  0
   -3.9590    0.4060    6.3510 C   0  0  2  0  0  0  0  0  0  0  0  0
   -4.7870   -0.4310    5.5370 O   0  0  0  0  0  0  0  0  0  0  0  0
   -4.2280    0.1690    7.8700 C   0  0  2  0  0  0  0  0  0  0  0  0
   -2.9790   -0.3740    8.5990 C   0  0  0  0  0  0  0  0  0  0  0  0
   -2.5480    0.4640    9.7830 C   0  0  0  0  0  0  0  0  0  0  0  0
   -3.2210    1.6520   10.0970 C   0  0  0  0  0  0  0  0  0  0  0  0
   -2.8200    2.4270   11.1860 C   0  0  0  0  0  0  0  0  0  0  0  0
   -1.7440    2.0210   11.9740 C   0  0  0  0  0  0  0  0  0  0  0  0
   -1.0710    0.8400   11.6740 C   0  0  0  0  0  0  0  0  0  0  0  0
   -1.4710    0.0620   10.5860 C   0  0  0  0  0  0  0  0  0  0  0  0
   -5.3650   -0.7350    8.0550 N   0  0  0  0  0  0  0  0  0  0  0  0
   -6.3110   -0.5460    9.0130 C   0  0  0  0  0  0  0  0  0  0  0  0
   -6.2970    0.3530    9.8410 O   0  0  0  0  0  0  0  0  0  0  0  0
   -7.2640   -1.4960    8.8950 O   0  0  0  0  0  0  0  0  0  0  0  0
   -8.3330   -1.1160    8.0250 C   0  0  0  0  0  0  0  0  0  0  0  0
   -8.8300   -2.3770    7.4060 C   0  0  0  0  0  0  0  0  0  0  0  0
   -9.8270   -3.2270    7.8440 C   0  0  0  0  0  0  0  0  0  0  0  0
  -10.0740   -4.3270    7.0460 N   0  0  0  0  0  0  0  0  0  0  0  0
   -9.2560   -4.3060    6.0180 C   0  0  0  0  0  0  0  0  0  0  0  0
   -8.1670   -2.9830    5.9440 S   0  0  0  0  0  0  0  0  0  0  0  0
   -2.9490    7.1240    6.4390 C   0  0  0  0  0  0  0  0  0  0  0  0
   -2.1240    8.2530    7.0700 C   0  0  0  0  0  0  0  0  0  0  0  0
   -4.3730    7.6350    6.1780 C   0  0  0  0  0  0  0  0  0  0  0  0
    1.6720    7.1500    8.7510 C   0  0  0  0  0  0  0  0  0  0  0  0
    2.1570    8.7150    8.2560 S   0  0  0  0  0  0  0  0  0  0  0  0
    3.3330   11.5752   10.7376 H   0  0  0  0  0  0  0  0  0  0  0  0
    3.4929   10.6750    9.1913 H   0  0  0  0  0  0  0  0  0  0  0  0
    2.8538   12.3538    9.1913 H   0  0  0  0  0  0  0  0  0  0  0  0
    0.8187   11.3574    9.1742 H   0  0  0  0  0  0  0  0  0  0  0  0
    1.6176   10.7739   12.0685 H   0  0  0  0  0  0  0  0  0  0  0  0
    0.8505   12.2701   11.4363 H   0  0  0  0  0  0  0  0  0  0  0  0
   -0.0630   10.7234   11.4363 H   0  0  0  0  0  0  0  0  0  0  0  0
    1.2229    5.4948   11.2023 H   0  0  0  0  0  0  0  0  0  0  0  0
   -0.3184    6.4159   11.4271 H   0  0  0  0  0  0  0  0  0  0  0  0
    0.5068    3.3610   10.5985 H   0  0  0  0  0  0  0  0  0  0  0  0
   -0.3889    3.1658    9.0538 H   0  0  0  0  0  0  0  0  0  0  0  0
    1.2539    3.8922    9.0538 H   0  0  0  0  0  0  0  0  0  0  0  0
   -1.1260    4.8830    7.4960 H   0  0  0  0  0  0  0  0  0  0  0  0
   -3.6729    6.1523    8.1347 H   0  0  0  0  0  0  0  0  0  0  0  0
   -4.7610    4.2920    8.2190 H   0  0  0  0  0  0  0  0  0  0  0  0
   -5.4196    1.9990    7.6690 H   0  0  0  0  0  0  0  0  0  0  0  0
   -7.2478    2.6646    6.7717 H   0  0  0  0  0  0  0  0  0  0  0  0
   -6.4051    4.2545    6.3173 H   0  0  0  0  0  0  0  0  0  0  0  0
   -5.6513    4.7175    4.1199 H   0  0  0  0  0  0  0  0  0  0  0  0
   -5.9883    4.2871    1.6910 H   0  0  0  0  0  0  0  0  0  0  0  0
   -7.1370    2.2055    0.9371 H   0  0  0  0  0  0  0  0  0  0  0  0
   -7.9180    0.5402    2.6199 H   0  0  0  0  0  0  0  0  0  0  0  0
   -7.5664    0.9560    5.0490 H   0  0  0  0  0  0  0  0  0  0  0  0
   -4.6289    1.8681    4.9303 H   0  0  0  0  0  0  0  0  0  0  0  0
   -3.1937    2.3482    5.9773 H   0  0  0  0  0  0  0  0  0  0  0  0
   -2.9004    0.1520    6.1935 H   0  0  0  0  0  0  0  0  0  0  0  0
   -4.3420   -0.5640    4.6740 H   0  0  0  0  0  0  0  0  0  0  0  0
   -4.4719    1.1438    8.3174 H   0  0  0  0  0  0  0  0  0  0  0  0
   -3.2010   -1.3904    8.9564 H   0  0  0  0  0  0  0  0  0  0  0  0
   -2.1517   -0.3527    7.8744 H   0  0  0  0  0  0  0  0  0  0  0  0
   -4.0721    1.9764    9.4803 H   0  0  0  0  0  0  0  0  0  0  0  0
   -3.3535    3.3593   11.4229 H   0  0  0  0  0  0  0  0  0  0  0  0
   -1.4273    2.6329   12.8315 H   0  0  0  0  0  0  0  0  0  0  0  0
   -0.2221    0.5190   12.2956 H   0  0  0  0  0  0  0  0  0  0  0  0
   -0.9378   -0.8725   10.3571 H   0  0  0  0  0  0  0  0  0  0  0  0
   -5.5570   -1.4650    7.3850 H   0  0  0  0  0  0  0  0  0  0  0  0
   -9.1364   -0.6292    8.5974 H   0  0  0  0  0  0  0  0  0  0  0  0
   -7.9947   -0.3997    7.2617 H   0  0  0  0  0  0  0  0  0  0  0  0
  -10.3892   -3.0395    8.7707 H   0  0  0  0  0  0  0  0  0  0  0  0
   -9.2689   -5.0921    5.2487 H   0  0  0  0  0  0  0  0  0  0  0  0
   -2.4841    6.8283    5.4869 H   0  0  0  0  0  0  0  0  0  0  0  0
   -2.1785    8.1784    8.1661 H   0  0  0  0  0  0  0  0  0  0  0  0
   -1.0758    8.1652    6.7482 H   0  0  0  0  0  0  0  0  0  0  0  0
   -2.5261    9.2250    6.7482 H   0  0  0  0  0  0  0  0  0  0  0  0
   -4.8790    7.8166    7.1377 H   0  0  0  0  0  0  0  0  0  0  0  0
   -4.3268    8.5726    5.6047 H   0  0  0  0  0  0  0  0  0  0  0  0
   -4.9335    6.8819    5.6047 H   0  0  0  0  0  0  0  0  0  0  0  0
    1.8696    6.2246    8.1902 H   0  0  0  0  0  0  0  0  0  0  0  0
  1  2  1  0
  2  3  1  0
  2  4  1  0
  4  5  2  0
  5  6  1  0
  6  7  1  0
  7  8  1  0
  8  9  1  0
  8 10  1  0
 10 11  2  0
 10 12  1  0
 12 13  1  0
 13 14  1  0
 14 15  2  0
 14 16  1  0
 16 17  1  0
 17 18  1  0
 18 19  1  0
 19 20  2  0
 20 21  1  0
 21 22  2  0
 22 23  1  0
 23 24  2  0
 17 25  1  0
 25 26  1  0
 26 27  1  0
 26 28  1  0
 28 29  1  0
 29 30  1  0
 30 31  2  0
 31 32  1  0
 32 33  2  0
 33 34  1  0
 34 35  2  0
 28 36  1  0
 36 37  1  0
 37 38  2  0
 37 39  1  0
 39 40  1  0
 40 41  1  0
 41 42  2  0
 42 43  1  0
 43 44  2  0
 44 45  1  0
 13 46  1  0
 46 47  1  0
 46 48  1  0
  6 49  2  0
 49 50  1  0
 50  4  1  0
 24 19  1  0
 35 30  1  0
 45 41  1  0
  1 51  1  0
  1 52  1  0
  1 53  1  0
  2 54  1  0
  3 55  1  0
  3 56  1  0
  3 57  1  0
  7 58  1  0
  7 59  1  0
  9 60  1  0
  9 61  1  0
  9 62  1  0
 12 63  1  0
 13 64  1  1
 16 65  1  0
 17 66  1  1
 18 67  1  0
 18 68  1  0
 20 69  1  0
 21 70  1  0
 22 71  1  0
 23 72  1  0
 24 73  1  0
 25 74  1  0
 25 75  1  0
 26 76  1  1
 27 77  1  0
 28 78  1  1
 29 79  1  0
 29 80  1  0
 31 81  1  0
 32 82  1  0
 33 83  1  0
 34 84  1  0
 35 85  1  0
 36 86  1  0
 40 87  1  0
 40 88  1  0
 42 89  1  0
 44 90  1  0
 46 91  1  0
 47 92  1  0
 47 93  1  0
 47 94  1  0
 48 95  1  0
 48 96  1  0
 48 97  1  0
 49 98  1  0
M  END
>  <meeko>  (9) 
{"is_sidechain": [false], "free_energy": -8.586, "intermolecular_energy": -18.615, "internal_energy": -3.062}

$$$$
