1lpg_ligand
     RDKit          3D

 78 82  0  0  0  0  0  0  0  0999 V2000
    5.4370    0.1450   13.8790 C   0  0  0  0  0  0  0  0  0  0  0  0
    4.5050   -0.7190   14.7240 N   0  0  0  0  0  0  0  0  0  0  0  0
    3.1920   -0.9820   13.9910 C   0  0  0  0  0  0  0  0  0  0  0  0
    5.1900   -2.0640   14.9500 C   0  0  0  0  0  0  0  0  0  0  0  0
    4.2040    0.0090   16.0240 C   0  0  0  0  0  0  0  0  0  0  0  0
    5.2350    0.6950   16.6870 C   0  0  0  0  0  0  0  0  0  0  0  0
    4.9960    1.3870   17.8810 C   0  0  0  0  0  0  0  0  0  0  0  0
    3.7160    1.4150   18.4420 C   0  0  0  0  0  0  0  0  0  0  0  0
    3.4450    2.1540   19.7300 C   0  0  0  0  0  0  0  0  0  0  0  0
    4.4600    3.1470   19.9860 N   0  0  0  0  0  0  0  0  0  0  0  0
    4.2720    4.4820   19.7040 C   0  0  0  0  0  0  0  0  0  0  0  0
    3.2250    4.8810   19.2000 O   0  0  0  0  0  0  0  0  0  0  0  0
    5.3770    5.3600   20.0730 C   0  0  0  0  0  0  0  0  0  0  0  0
    5.9140    5.6080   21.3300 C   0  0  0  0  0  0  0  0  0  0  0  0
    6.9300    6.5910   21.2230 C   0  0  0  0  0  0  0  0  0  0  0  0
    7.7620    7.2290   22.1690 C   0  0  0  0  0  0  0  0  0  0  0  0
    8.6640    8.2090   21.7460 C   0  0  0  0  0  0  0  0  0  0  0  0
    9.5150    8.9210   22.5460 O   0  0  0  0  0  0  0  0  0  0  0  0
    9.0630    9.3440   23.8360 C   0  0  0  0  0  0  0  0  0  0  0  0
    9.7110    8.6040   24.9840 C   0  0  0  0  0  0  0  0  0  0  0  0
   11.0800    8.7350   25.2570 C   0  0  0  0  0  0  0  0  0  0  0  0
   11.6700    8.0130   26.2960 C   0  0  0  0  0  0  0  0  0  0  0  0
   10.9010    7.1420   27.0660 C   0  0  0  0  0  0  0  0  0  0  0  0
    9.5420    6.9910   26.7950 C   0  0  0  0  0  0  0  0  0  0  0  0
    8.9510    7.7120   25.7570 C   0  0  0  0  0  0  0  0  0  0  0  0
    8.7250    8.5520   20.3970 C   0  0  0  0  0  0  0  0  0  0  0  0
    7.9170    7.9270   19.4410 C   0  0  0  0  0  0  0  0  0  0  0  0
    7.0250    6.9340   19.8780 C   0  0  0  0  0  0  0  0  0  0  0  0
    6.1300    6.1270   19.1860 N   0  0  0  0  0  0  0  0  0  0  0  0
    6.0100    6.1230   17.7260 C   0  0  0  0  0  0  0  0  0  0  0  0
    6.6670    4.9090   17.0990 C   0  0  0  0  0  0  0  0  0  0  0  0
    6.4240    4.6020   15.7530 C   0  0  0  0  0  0  0  0  0  0  0  0
    7.0320    3.5020   15.1500 C   0  0  0  0  0  0  0  0  0  0  0  0
    7.8970    2.6900   15.8810 C   0  0  0  0  0  0  0  0  0  0  0  0
    8.1670    2.9730   17.2270 C   0  0  0  0  0  0  0  0  0  0  0  0
    9.0760    2.1160   18.0040 C   0  0  0  0  0  0  0  0  0  0  0  0
   10.3730    2.1980   17.8010 N   0  0  0  0  0  0  0  0  0  0  0  0
    8.5750    1.2830   18.8900 N   0  0  0  0  0  0  0  0  0  0  0  0
    7.5510    4.0880   17.8230 C   0  0  0  0  0  0  0  0  0  0  0  0
    2.6880    0.7200   17.7940 C   0  0  0  0  0  0  0  0  0  0  0  0
    2.9270    0.0280   16.5980 C   0  0  0  0  0  0  0  0  0  0  0  0
    6.0820    0.7430   14.5396 H   0  0  0  0  0  0  0  0  0  0  0  0
    6.0610   -0.5013   13.2442 H   0  0  0  0  0  0  0  0  0  0  0  0
    4.8398    0.8160   13.2442 H   0  0  0  0  0  0  0  0  0  0  0  0
    2.3884   -1.1430   14.7247 H   0  0  0  0  0  0  0  0  0  0  0  0
    2.9444   -0.1156   13.3601 H   0  0  0  0  0  0  0  0  0  0  0  0
    3.2972   -1.8769   13.3601 H   0  0  0  0  0  0  0  0  0  0  0  0
    5.2849   -2.2503   16.0300 H   0  0  0  0  0  0  0  0  0  0  0  0
    4.5891   -2.8632   14.4915 H   0  0  0  0  0  0  0  0  0  0  0  0
    6.1897   -2.0480   14.4915 H   0  0  0  0  0  0  0  0  0  0  0  0
    6.2489    0.6886   16.2605 H   0  0  0  0  0  0  0  0  0  0  0  0
    5.8225    1.9128   18.3815 H   0  0  0  0  0  0  0  0  0  0  0  0
    2.4664    2.6514   19.6591 H   0  0  0  0  0  0  0  0  0  0  0  0
    3.4524    1.4278   20.5561 H   0  0  0  0  0  0  0  0  0  0  0  0
    5.2720    2.8610   20.5080 H   0  0  0  0  0  0  0  0  0  0  0  0
    5.5997    5.1179   22.2633 H   0  0  0  0  0  0  0  0  0  0  0  0
    7.7004    6.9561   23.2328 H   0  0  0  0  0  0  0  0  0  0  0  0
    9.2836   10.4160   23.9462 H   0  0  0  0  0  0  0  0  0  0  0  0
    7.9855    9.1280   23.8839 H   0  0  0  0  0  0  0  0  0  0  0  0
   11.6949    9.4130   24.6468 H   0  0  0  0  0  0  0  0  0  0  0  0
   12.7430    8.1316   26.5073 H   0  0  0  0  0  0  0  0  0  0  0  0
   11.3657    6.5748   27.8860 H   0  0  0  0  0  0  0  0  0  0  0  0
    8.9346    6.3023   27.4005 H   0  0  0  0  0  0  0  0  0  0  0  0
    7.8802    7.5804   25.5424 H   0  0  0  0  0  0  0  0  0  0  0  0
    9.4272    9.3351   20.0750 H   0  0  0  0  0  0  0  0  0  0  0  0
    7.9785    8.2051   18.3785 H   0  0  0  0  0  0  0  0  0  0  0  0
    4.9430    6.1257   17.4586 H   0  0  0  0  0  0  0  0  0  0  0  0
    6.5218    7.0184   17.3434 H   0  0  0  0  0  0  0  0  0  0  0  0
    5.7450    5.2371   15.1652 H   0  0  0  0  0  0  0  0  0  0  0  0
    6.8282    3.2741   14.0933 H   0  0  0  0  0  0  0  0  0  0  0  0
    8.3706    1.8220   15.3990 H   0  0  0  0  0  0  0  0  0  0  0  0
   10.7360    2.8250   17.0910 H   0  0  0  0  0  0  0  0  0  0  0  0
   11.0410    1.6350   18.3090 H   0  0  0  0  0  0  0  0  0  0  0  0
    7.5720    1.2550   19.0460 H   0  0  0  0  0  0  0  0  0  0  0  0
    9.1520    0.6720   19.4520 H   0  0  0  0  0  0  0  0  0  0  0  0
    7.7646    4.3229   18.8762 H   0  0  0  0  0  0  0  0  0  0  0  0
    1.6779    0.7167   18.2294 H   0  0  0  0  0  0  0  0  0  0  0  0
    2.1015   -0.5062   16.1049 H   0  0  0  0  0  0  0  0  0  0  0  0
  1  2  1  0
  2  3  1  0
  2  4  1  0
  2  5  1  0
  5  6  2  0
  6  7  1  0
  7  8  2  0
  8  9  1  0
  9 10  1  0
 10 11  1  0
 11 12  2  0
 11 13  1  0
 13 14  2  0
 14 15  1  0
 15 16  2  0
 16 17  1  0
 17 18  1  0
 18 19  1  0
 19 20  1  0
 20 21  2  0
 21 22  1  0
 22 23  2  0
 23 24  1  0
 24 25  2  0
 17 26  2  0
 26 27  1  0
 27 28  2  0
 28 29  1  0
 29 30  1  0
 30 31  1  0
 31 32  2  0
 32 33  1  0
 33 34  2  0
 34 35  1  0
 35 36  1  0
 36 37  1  0
 36 38  2  0
 35 39  2  0
  8 40  1  0
 40 41  2  0
 41  5  1  0
 29 13  1  0
 39 31  1  0
 28 15  1  0
 25 20  1  0
  1 42  1  0
  1 43  1  0
  1 44  1  0
  3 45  1  0
  3 46  1  0
  3 47  1  0
  4 48  1  0
  4 49  1  0
  4 50  1  0
  6 51  1  0
  7 52  1  0
  9 53  1  0
  9 54  1  0
 10 55  1  0
 14 56  1  0
 16 57  1  0
 19 58  1  0
 19 59  1  0
 21 60  1  0
 22 61  1  0
 23 62  1  0
 24 63  1  0
 25 64  1  0
 26 65  1  0
 27 66  1  0
 30 67  1  0
 30 68  1  0
 32 69  1  0
 33 70  1  0
 34 71  1  0
 37 72  1  0
 37 73  1  0
 38 74  1  0
 38 75  1  0
 39 76  1  0
 40 77  1  0
 41 78  1  0
M  CHG  2   2   1  38   1
M  END
>  <meeko>  (1) 
{"is_sidechain": [false], "free_energy": -9.053, "intermolecular_energy": -14.346, "internal_energy": -2.725}

$$$$
1lpg_ligand
     RDKit          3D

 78 82  0  0  0  0  0  0  0  0999 V2000
    1.8960   16.7670   16.0200 C   0  0  0  0  0  0  0  0  0  0  0  0
    3.3520   17.0420   15.6600 N   0  0  0  0  0  0  0  0  0  0  0  0
    3.6620   16.5720   14.2410 C   0  0  0  0  0  0  0  0  0  0  0  0
    3.5690   18.5520   15.7080 C   0  0  0  0  0  0  0  0  0  0  0  0
    4.2500   16.2930   16.6320 C   0  0  0  0  0  0  0  0  0  0  0  0
    4.3090   14.8900   16.5770 C   0  0  0  0  0  0  0  0  0  0  0  0
    5.1310   14.1640   17.4480 C   0  0  0  0  0  0  0  0  0  0  0  0
    5.9220   14.8230   18.3940 C   0  0  0  0  0  0  0  0  0  0  0  0
    6.8100   14.0520   19.3400 C   0  0  0  0  0  0  0  0  0  0  0  0
    6.7910   12.6400   19.0410 N   0  0  0  0  0  0  0  0  0  0  0  0
    7.6220   11.7420   19.6750 C   0  0  0  0  0  0  0  0  0  0  0  0
    8.4350   12.1180   20.5160 O   0  0  0  0  0  0  0  0  0  0  0  0
    7.4370   10.3460   19.2950 C   0  0  0  0  0  0  0  0  0  0  0  0
    6.6430    9.8120   18.2870 C   0  0  0  0  0  0  0  0  0  0  0  0
    6.7150    8.3970   18.3320 C   0  0  0  0  0  0  0  0  0  0  0  0
    6.0960    7.3730   17.5810 C   0  0  0  0  0  0  0  0  0  0  0  0
    6.3470    6.0350   17.8980 C   0  0  0  0  0  0  0  0  0  0  0  0
    5.8080    4.9440   17.2740 O   0  0  0  0  0  0  0  0  0  0  0  0
    6.6490    4.1300   16.4510 C   0  0  0  0  0  0  0  0  0  0  0  0
    7.3930    3.0550   17.2100 C   0  0  0  0  0  0  0  0  0  0  0  0
    6.7190    2.1410   18.0330 C   0  0  0  0  0  0  0  0  0  0  0  0
    7.4270    1.1810   18.7570 C   0  0  0  0  0  0  0  0  0  0  0  0
    8.8170    1.1310   18.6800 C   0  0  0  0  0  0  0  0  0  0  0  0
    9.5010    2.0430   17.8790 C   0  0  0  0  0  0  0  0  0  0  0  0
    8.7950    3.0040   17.1530 C   0  0  0  0  0  0  0  0  0  0  0  0
    7.1980    5.7280   18.9580 C   0  0  0  0  0  0  0  0  0  0  0  0
    7.8280    6.7250   19.7100 C   0  0  0  0  0  0  0  0  0  0  0  0
    7.5780    8.0640   19.3710 C   0  0  0  0  0  0  0  0  0  0  0  0
    8.0630    9.2560   19.8960 N   0  0  0  0  0  0  0  0  0  0  0  0
    9.0810    9.3180   20.9480 C   0  0  0  0  0  0  0  0  0  0  0  0
    8.4980    9.0750   22.3260 C   0  0  0  0  0  0  0  0  0  0  0  0
    7.1090    9.1160   22.5140 C   0  0  0  0  0  0  0  0  0  0  0  0
    6.5500    8.8770   23.7680 C   0  0  0  0  0  0  0  0  0  0  0  0
    7.3690    8.5870   24.8590 C   0  0  0  0  0  0  0  0  0  0  0  0
    8.7610    8.5310   24.7040 C   0  0  0  0  0  0  0  0  0  0  0  0
    9.6290    8.2300   25.8520 C   0  0  0  0  0  0  0  0  0  0  0  0
    9.1660    7.4930   26.8380 N   0  0  0  0  0  0  0  0  0  0  0  0
   10.8560    8.7020   25.8720 N   0  0  0  0  0  0  0  0  0  0  0  0
    9.3120    8.7700   23.4330 C   0  0  0  0  0  0  0  0  0  0  0  0
    5.8550   16.2190   18.4630 C   0  0  0  0  0  0  0  0  0  0  0  0
    5.0320   16.9470   17.5910 C   0  0  0  0  0  0  0  0  0  0  0  0
    1.7865   16.7463   17.1143 H   0  0  0  0  0  0  0  0  0  0  0  0
    1.2589   17.5607   15.6027 H   0  0  0  0  0  0  0  0  0  0  0  0
    1.5923   15.7956   15.6027 H   0  0  0  0  0  0  0  0  0  0  0  0
    4.2672   15.6544   14.2827 H   0  0  0  0  0  0  0  0  0  0  0  0
    2.7213   16.3670   13.7089 H   0  0  0  0  0  0  0  0  0  0  0  0
    4.2208   17.3560   13.7089 H   0  0  0  0  0  0  0  0  0  0  0  0
    3.6165   18.8825   16.7561 H   0  0  0  0  0  0  0  0  0  0  0  0
    4.5125   18.8031   15.2012 H   0  0  0  0  0  0  0  0  0  0  0  0
    2.7344   19.0587   15.2012 H   0  0  0  0  0  0  0  0  0  0  0  0
    3.6986   14.3524   15.8365 H   0  0  0  0  0  0  0  0  0  0  0  0
    5.1545   13.0659   17.3873 H   0  0  0  0  0  0  0  0  0  0  0  0
    7.8410   14.4243   19.2479 H   0  0  0  0  0  0  0  0  0  0  0  0
    6.4353   14.1959   20.3642 H   0  0  0  0  0  0  0  0  0  0  0  0
    6.0520   12.2990   18.4480 H   0  0  0  0  0  0  0  0  0  0  0  0
    6.0512   10.3961   17.5669 H   0  0  0  0  0  0  0  0  0  0  0  0
    5.4201    7.6273   16.7512 H   0  0  0  0  0  0  0  0  0  0  0  0
    6.0223    3.6448   15.6882 H   0  0  0  0  0  0  0  0  0  0  0  0
    7.4078    4.7952   16.0132 H   0  0  0  0  0  0  0  0  0  0  0  0
    5.6223    2.1813   18.1084 H   0  0  0  0  0  0  0  0  0  0  0  0
    6.8863    0.4620   19.3900 H   0  0  0  0  0  0  0  0  0  0  0  0
    9.3736    0.3729   19.2505 H   0  0  0  0  0  0  0  0  0  0  0  0
   10.5987    2.0058   17.8186 H   0  0  0  0  0  0  0  0  0  0  0  0
    9.3420    3.7277   16.5308 H   0  0  0  0  0  0  0  0  0  0  0  0
    7.3792    4.6727   19.2102 H   0  0  0  0  0  0  0  0  0  0  0  0
    8.4994    6.4674   20.5424 H   0  0  0  0  0  0  0  0  0  0  0  0
    9.8450    8.5526   20.7469 H   0  0  0  0  0  0  0  0  0  0  0  0
    9.5141   10.3291   20.9388 H   0  0  0  0  0  0  0  0  0  0  0  0
    6.4521    9.3397   21.6605 H   0  0  0  0  0  0  0  0  0  0  0  0
    5.4584    8.9172   23.8979 H   0  0  0  0  0  0  0  0  0  0  0  0
    6.9203    8.4013   25.8460 H   0  0  0  0  0  0  0  0  0  0  0  0
    8.2060    7.1650   26.8170 H   0  0  0  0  0  0  0  0  0  0  0  0
    9.7200    7.2550   27.6480 H   0  0  0  0  0  0  0  0  0  0  0  0
   11.2000    9.2490   25.0880 H   0  0  0  0  0  0  0  0  0  0  0  0
   11.4970    8.5270   26.6340 H   0  0  0  0  0  0  0  0  0  0  0  0
   10.4028    8.7175   23.3008 H   0  0  0  0  0  0  0  0  0  0  0  0
    6.4569   16.7537   19.2125 H   0  0  0  0  0  0  0  0  0  0  0  0
    5.0009   18.0443   17.6617 H   0  0  0  0  0  0  0  0  0  0  0  0
  1  2  1  0
  2  3  1  0
  2  4  1  0
  2  5  1  0
  5  6  2  0
  6  7  1  0
  7  8  2  0
  8  9  1  0
  9 10  1  0
 10 11  1  0
 11 12  2  0
 11 13  1  0
 13 14  2  0
 14 15  1  0
 15 16  2  0
 16 17  1  0
 17 18  1  0
 18 19  1  0
 19 20  1  0
 20 21  2  0
 21 22  1  0
 22 23  2  0
 23 24  1  0
 24 25  2  0
 17 26  2  0
 26 27  1  0
 27 28  2  0
 28 29  1  0
 29 30  1  0
 30 31  1  0
 31 32  2  0
 32 33  1  0
 33 34  2  0
 34 35  1  0
 35 36  1  0
 36 37  1  0
 36 38  2  0
 35 39  2  0
  8 40  1  0
 40 41  2  0
 41  5  1  0
 29 13  1  0
 39 31  1  0
 28 15  1  0
 25 20  1  0
  1 42  1  0
  1 43  1  0
  1 44  1  0
  3 45  1  0
  3 46  1  0
  3 47  1  0
  4 48  1  0
  4 49  1  0
  4 50  1  0
  6 51  1  0
  7 52  1  0
  9 53  1  0
  9 54  1  0
 10 55  1  0
 14 56  1  0
 16 57  1  0
 19 58  1  0
 19 59  1  0
 21 60  1  0
 22 61  1  0
 23 62  1  0
 24 63  1  0
 25 64  1  0
 26 65  1  0
 27 66  1  0
 30 67  1  0
 30 68  1  0
 32 69  1  0
 33 70  1  0
 34 71  1  0
 37 72  1  0
 37 73  1  0
 38 74  1  0
 38 75  1  0
 39 76  1  0
 40 77  1  0
 41 78  1  0
M  CHG  2   2   1  38   1
M  END
>  <meeko>  (2) 
{"is_sidechain": [false], "free_energy": -8.885, "intermolecular_energy": -15.783, "internal_energy": -1.021}

$$$$
1lpg_ligand
     RDKit          3D

 78 82  0  0  0  0  0  0  0  0999 V2000
    2.4500   -0.8100   24.5260 C   0  0  0  0  0  0  0  0  0  0  0  0
    1.3770   -0.6280   23.4570 N   0  0  0  0  0  0  0  0  0  0  0  0
    0.8470   -1.9780   22.9790 C   0  0  0  0  0  0  0  0  0  0  0  0
    0.2130    0.1320   24.0870 C   0  0  0  0  0  0  0  0  0  0  0  0
    1.9820    0.1090   22.2730 C   0  0  0  0  0  0  0  0  0  0  0  0
    3.1690    0.8400   22.4470 C   0  0  0  0  0  0  0  0  0  0  0  0
    3.7640    1.5240   21.3790 C   0  0  0  0  0  0  0  0  0  0  0  0
    3.1900    1.4890   20.1050 C   0  0  0  0  0  0  0  0  0  0  0  0
    3.8190    2.2240   18.9460 C   0  0  0  0  0  0  0  0  0  0  0  0
    4.7640    3.2120   19.4060 N   0  0  0  0  0  0  0  0  0  0  0  0
    4.4500    4.5520   19.4830 C   0  0  0  0  0  0  0  0  0  0  0  0
    3.3440    4.9620   19.1420 O   0  0  0  0  0  0  0  0  0  0  0  0
    5.5010    5.4090   20.0190 C   0  0  0  0  0  0  0  0  0  0  0  0
    5.7290    5.7950   21.3340 C   0  0  0  0  0  0  0  0  0  0  0  0
    6.8220    6.6970   21.3770 C   0  0  0  0  0  0  0  0  0  0  0  0
    7.4460    7.4110   22.4240 C   0  0  0  0  0  0  0  0  0  0  0  0
    8.5070    8.2740   22.1350 C   0  0  0  0  0  0  0  0  0  0  0  0
    9.1910    9.0400   23.0380 O   0  0  0  0  0  0  0  0  0  0  0  0
    8.7470    9.0730   24.3980 C   0  0  0  0  0  0  0  0  0  0  0  0
    9.6630    8.3470   25.3580 C   0  0  0  0  0  0  0  0  0  0  0  0
    9.1660    7.4030   26.2690 C   0  0  0  0  0  0  0  0  0  0  0  0
   10.0190    6.7720   27.1750 C   0  0  0  0  0  0  0  0  0  0  0  0
   11.3770    7.0860   27.1910 C   0  0  0  0  0  0  0  0  0  0  0  0
   11.8810    8.0340   26.3030 C   0  0  0  0  0  0  0  0  0  0  0  0
   11.0290    8.6660   25.3960 C   0  0  0  0  0  0  0  0  0  0  0  0
    8.9300    8.4270   20.8170 C   0  0  0  0  0  0  0  0  0  0  0  0
    8.3320    7.7250   19.7650 C   0  0  0  0  0  0  0  0  0  0  0  0
    7.2770    6.8500   20.0710 C   0  0  0  0  0  0  0  0  0  0  0  0
    6.5140    6.0070   19.2720 N   0  0  0  0  0  0  0  0  0  0  0  0
    6.7600    5.8130   17.8410 C   0  0  0  0  0  0  0  0  0  0  0  0
    7.4820    4.5110   17.5540 C   0  0  0  0  0  0  0  0  0  0  0  0
    8.6120    4.1590   18.3050 C   0  0  0  0  0  0  0  0  0  0  0  0
    9.2800    2.9580   18.0710 C   0  0  0  0  0  0  0  0  0  0  0  0
    8.8300    2.0840   17.0830 C   0  0  0  0  0  0  0  0  0  0  0  0
    7.6980    2.4020   16.3190 C   0  0  0  0  0  0  0  0  0  0  0  0
    7.2210    1.4850   15.2720 C   0  0  0  0  0  0  0  0  0  0  0  0
    7.0890    0.2060   15.5450 N   0  0  0  0  0  0  0  0  0  0  0  0
    6.9330    1.9620   14.0810 N   0  0  0  0  0  0  0  0  0  0  0  0
    7.0300    3.6140   16.5670 C   0  0  0  0  0  0  0  0  0  0  0  0
    1.9990    0.7750   19.9300 C   0  0  0  0  0  0  0  0  0  0  0  0
    1.4030    0.0910   20.9990 C   0  0  0  0  0  0  0  0  0  0  0  0
    1.9914   -0.7322   25.5228 H   0  0  0  0  0  0  0  0  0  0  0  0
    2.9160   -1.8000   24.4130 H   0  0  0  0  0  0  0  0  0  0  0  0
    3.2163   -0.0290   24.4130 H   0  0  0  0  0  0  0  0  0  0  0  0
    0.6011   -2.6043   23.8492 H   0  0  0  0  0  0  0  0  0  0  0  0
   -0.0570   -1.8228   22.3717 H   0  0  0  0  0  0  0  0  0  0  0  0
    1.6151   -2.4793   22.3717 H   0  0  0  0  0  0  0  0  0  0  0  0
    0.2918    0.0805   25.1830 H   0  0  0  0  0  0  0  0  0  0  0  0
    0.2452    1.1836   23.7660 H   0  0  0  0  0  0  0  0  0  0  0  0
   -0.7369   -0.3204   23.7660 H   0  0  0  0  0  0  0  0  0  0  0  0
    3.6400    0.8760   23.4404 H   0  0  0  0  0  0  0  0  0  0  0  0
    4.6906    2.0933   21.5443 H   0  0  0  0  0  0  0  0  0  0  0  0
    4.3411    1.5002   18.3029 H   0  0  0  0  0  0  0  0  0  0  0  0
    3.0234    2.7372   18.3859 H   0  0  0  0  0  0  0  0  0  0  0  0
    5.6280    2.8820   19.8030 H   0  0  0  0  0  0  0  0  0  0  0  0
    5.1515    5.4540   22.2059 H   0  0  0  0  0  0  0  0  0  0  0  0
    7.0990    7.2886   23.4606 H   0  0  0  0  0  0  0  0  0  0  0  0
    8.6764   10.1242   24.7142 H   0  0  0  0  0  0  0  0  0  0  0  0
    7.7760    8.5571   24.4302 H   0  0  0  0  0  0  0  0  0  0  0  0
    8.0936    7.1580   26.2690 H   0  0  0  0  0  0  0  0  0  0  0  0
    9.6194    6.0258   27.8775 H   0  0  0  0  0  0  0  0  0  0  0  0
   12.0496    6.5862   27.9035 H   0  0  0  0  0  0  0  0  0  0  0  0
   12.9520    8.2847   26.3168 H   0  0  0  0  0  0  0  0  0  0  0  0
   11.4319    9.4209   24.7048 H   0  0  0  0  0  0  0  0  0  0  0  0
    9.7567    9.1186   20.5972 H   0  0  0  0  0  0  0  0  0  0  0  0
    8.6779    7.8545   18.7289 H   0  0  0  0  0  0  0  0  0  0  0  0
    5.7947    5.8062   17.3136 H   0  0  0  0  0  0  0  0  0  0  0  0
    7.4006    6.6373   17.4943 H   0  0  0  0  0  0  0  0  0  0  0  0
    8.9763    4.8391   19.0890 H   0  0  0  0  0  0  0  0  0  0  0  0
   10.1663    2.6990   18.6688 H   0  0  0  0  0  0  0  0  0  0  0  0
    9.3654    1.1403   16.9017 H   0  0  0  0  0  0  0  0  0  0  0  0
    7.3470   -0.1460   16.4610 H   0  0  0  0  0  0  0  0  0  0  0  0
    6.7630   -0.4660   14.8640 H   0  0  0  0  0  0  0  0  0  0  0  0
    7.0200    2.9580   13.9010 H   0  0  0  0  0  0  0  0  0  0  0  0
    6.6010    1.3790   13.3250 H   0  0  0  0  0  0  0  0  0  0  0  0
    6.1360    3.8668   15.9780 H   0  0  0  0  0  0  0  0  0  0  0  0
    1.5232    0.7501   18.9385 H   0  0  0  0  0  0  0  0  0  0  0  0
    0.4691   -0.4665   20.8344 H   0  0  0  0  0  0  0  0  0  0  0  0
  1  2  1  0
  2  3  1  0
  2  4  1  0
  2  5  1  0
  5  6  2  0
  6  7  1  0
  7  8  2  0
  8  9  1  0
  9 10  1  0
 10 11  1  0
 11 12  2  0
 11 13  1  0
 13 14  2  0
 14 15  1  0
 15 16  2  0
 16 17  1  0
 17 18  1  0
 18 19  1  0
 19 20  1  0
 20 21  2  0
 21 22  1  0
 22 23  2  0
 23 24  1  0
 24 25  2  0
 17 26  2  0
 26 27  1  0
 27 28  2  0
 28 29  1  0
 29 30  1  0
 30 31  1  0
 31 32  2  0
 32 33  1  0
 33 34  2  0
 34 35  1  0
 35 36  1  0
 36 37  1  0
 36 38  2  0
 35 39  2  0
  8 40  1  0
 40 41  2  0
 41  5  1  0
 29 13  1  0
 39 31  1  0
 28 15  1  0
 25 20  1  0
  1 42  1  0
  1 43  1  0
  1 44  1  0
  3 45  1  0
  3 46  1  0
  3 47  1  0
  4 48  1  0
  4 49  1  0
  4 50  1  0
  6 51  1  0
  7 52  1  0
  9 53  1  0
  9 54  1  0
 10 55  1  0
 14 56  1  0
 16 57  1  0
 19 58  1  0
 19 59  1  0
 21 60  1  0
 22 61  1  0
 23 62  1  0
 24 63  1  0
 25 64  1  0
 26 65  1  0
 27 66  1  0
 30 67  1  0
 30 68  1  0
 32 69  1  0
 33 70  1  0
 34 71  1  0
 37 72  1  0
 37 73  1  0
 38 74  1  0
 38 75  1  0
 39 76  1  0
 40 77  1  0
 41 78  1  0
M  CHG  2   2   1  38   1
M  END
>  <meeko>  (3) 
{"is_sidechain": [false], "free_energy": -8.865, "intermolecular_energy": -14.835, "internal_energy": -1.937}

$$$$
1lpg_ligand
     RDKit          3D

 78 82  0  0  0  0  0  0  0  0999 V2000
    2.8110   -0.2670   13.6690 C   0  0  0  0  0  0  0  0  0  0  0  0
    4.1080   -0.0620   14.4460 N   0  0  0  0  0  0  0  0  0  0  0  0
    3.9620   -0.5420   15.8880 C   0  0  0  0  0  0  0  0  0  0  0  0
    5.1900   -0.9090   13.7820 C   0  0  0  0  0  0  0  0  0  0  0  0
    4.4490    1.4190   14.4540 C   0  0  0  0  0  0  0  0  0  0  0  0
    5.5930    1.8690   13.7740 C   0  0  0  0  0  0  0  0  0  0  0  0
    5.9360    3.2260   13.7490 C   0  0  0  0  0  0  0  0  0  0  0  0
    5.1380    4.1730   14.3980 C   0  0  0  0  0  0  0  0  0  0  0  0
    5.4970    5.6390   14.3810 C   0  0  0  0  0  0  0  0  0  0  0  0
    6.0210    6.0630   15.6570 N   0  0  0  0  0  0  0  0  0  0  0  0
    5.2790    6.8090   16.5470 C   0  0  0  0  0  0  0  0  0  0  0  0
    4.1340    7.1610   16.2760 O   0  0  0  0  0  0  0  0  0  0  0  0
    5.9400    7.1080   17.8120 C   0  0  0  0  0  0  0  0  0  0  0  0
    6.6920    8.2220   18.1650 C   0  0  0  0  0  0  0  0  0  0  0  0
    7.2040    8.0490   19.4750 C   0  0  0  0  0  0  0  0  0  0  0  0
    8.0400    8.8350   20.2980 C   0  0  0  0  0  0  0  0  0  0  0  0
    8.4070    8.3630   21.5620 C   0  0  0  0  0  0  0  0  0  0  0  0
    9.2210    9.0030   22.4560 O   0  0  0  0  0  0  0  0  0  0  0  0
    8.7360    9.2550   23.7790 C   0  0  0  0  0  0  0  0  0  0  0  0
    9.5250    8.5550   24.8630 C   0  0  0  0  0  0  0  0  0  0  0  0
    8.9180    7.6340   25.7290 C   0  0  0  0  0  0  0  0  0  0  0  0
    9.6530    7.0290   26.7500 C   0  0  0  0  0  0  0  0  0  0  0  0
   10.9970    7.3460   26.9260 C   0  0  0  0  0  0  0  0  0  0  0  0
   11.6090    8.2730   26.0830 C   0  0  0  0  0  0  0  0  0  0  0  0
   10.8760    8.8790   25.0610 C   0  0  0  0  0  0  0  0  0  0  0  0
    7.9520    7.1180   21.9900 C   0  0  0  0  0  0  0  0  0  0  0  0
    7.1170    6.3260   21.1950 C   0  0  0  0  0  0  0  0  0  0  0  0
    6.7440    6.8190   19.9340 C   0  0  0  0  0  0  0  0  0  0  0  0
    5.9210    6.2960   18.9450 N   0  0  0  0  0  0  0  0  0  0  0  0
    5.1650    5.0500   19.0990 C   0  0  0  0  0  0  0  0  0  0  0  0
    6.0690    3.8350   19.1720 C   0  0  0  0  0  0  0  0  0  0  0  0
    5.9110    2.9090   20.2120 C   0  0  0  0  0  0  0  0  0  0  0  0
    6.7180    1.7740   20.2880 C   0  0  0  0  0  0  0  0  0  0  0  0
    7.6980    1.5430   19.3240 C   0  0  0  0  0  0  0  0  0  0  0  0
    7.8780    2.4460   18.2670 C   0  0  0  0  0  0  0  0  0  0  0  0
    8.9130    2.2090   17.2490 C   0  0  0  0  0  0  0  0  0  0  0  0
    8.5560    1.9870   16.0030 N   0  0  0  0  0  0  0  0  0  0  0  0
   10.1790    2.2260   17.6030 N   0  0  0  0  0  0  0  0  0  0  0  0
    7.0540    3.5840   18.1990 C   0  0  0  0  0  0  0  0  0  0  0  0
    4.0050    3.7280   15.0900 C   0  0  0  0  0  0  0  0  0  0  0  0
    3.6620    2.3690   15.1160 C   0  0  0  0  0  0  0  0  0  0  0  0
    1.9776   -0.3987   14.3748 H   0  0  0  0  0  0  0  0  0  0  0  0
    2.6199    0.6121   13.0360 H   0  0  0  0  0  0  0  0  0  0  0  0
    2.9004   -1.1622   13.0360 H   0  0  0  0  0  0  0  0  0  0  0  0
    4.2120    0.2798   16.5751 H   0  0  0  0  0  0  0  0  0  0  0  0
    2.9251   -0.8645   16.0639 H   0  0  0  0  0  0  0  0  0  0  0  0
    4.6437   -1.3872   16.0639 H   0  0  0  0  0  0  0  0  0  0  0  0
    5.8053   -1.3906   14.5563 H   0  0  0  0  0  0  0  0  0  0  0  0
    4.7187   -1.6807   13.1556 H   0  0  0  0  0  0  0  0  0  0  0  0
    5.8259   -0.2662   13.1556 H   0  0  0  0  0  0  0  0  0  0  0  0
    6.2313    1.1413   13.2514 H   0  0  0  0  0  0  0  0  0  0  0  0
    6.8410    3.5500   13.2142 H   0  0  0  0  0  0  0  0  0  0  0  0
    6.2571    5.8133   13.6052 H   0  0  0  0  0  0  0  0  0  0  0  0
    4.5862    6.2181   14.1688 H   0  0  0  0  0  0  0  0  0  0  0  0
    6.9070    5.6830   15.9470 H   0  0  0  0  0  0  0  0  0  0  0  0
    6.8632    9.1014   17.5268 H   0  0  0  0  0  0  0  0  0  0  0  0
    8.4005    9.8131   19.9467 H   0  0  0  0  0  0  0  0  0  0  0  0
    8.7793   10.3385   23.9635 H   0  0  0  0  0  0  0  0  0  0  0  0
    7.7102    8.8604   23.8243 H   0  0  0  0  0  0  0  0  0  0  0  0
    7.8537    7.3862   25.6027 H   0  0  0  0  0  0  0  0  0  0  0  0
    9.1691    6.3002   27.4169 H   0  0  0  0  0  0  0  0  0  0  0  0
   11.5755    6.8659   27.7290 H   0  0  0  0  0  0  0  0  0  0  0  0
   12.6700    8.5269   26.2234 H   0  0  0  0  0  0  0  0  0  0  0  0
   11.3616    9.6168   24.4053 H   0  0  0  0  0  0  0  0  0  0  0  0
    8.2575    6.7477   22.9797 H   0  0  0  0  0  0  0  0  0  0  0  0
    6.7629    5.3459   21.5471 H   0  0  0  0  0  0  0  0  0  0  0  0
    4.5733    5.1071   20.0246 H   0  0  0  0  0  0  0  0  0  0  0  0
    4.5187    4.9366   18.2161 H   0  0  0  0  0  0  0  0  0  0  0  0
    5.1405    3.0796   20.9783 H   0  0  0  0  0  0  0  0  0  0  0  0
    6.5806    1.0583   21.1119 H   0  0  0  0  0  0  0  0  0  0  0  0
    8.3333    0.6476   19.3931 H   0  0  0  0  0  0  0  0  0  0  0  0
    7.5720    1.9470   15.7580 H   0  0  0  0  0  0  0  0  0  0  0  0
    9.2260    1.8210   15.2650 H   0  0  0  0  0  0  0  0  0  0  0  0
   10.4320    2.4240   18.5670 H   0  0  0  0  0  0  0  0  0  0  0  0
   10.9320    2.0700   16.9470 H   0  0  0  0  0  0  0  0  0  0  0  0
    7.1824    4.2927   17.3676 H   0  0  0  0  0  0  0  0  0  0  0  0
    3.3744    4.4560   15.6214 H   0  0  0  0  0  0  0  0  0  0  0  0
    2.7641    2.0453   15.6629 H   0  0  0  0  0  0  0  0  0  0  0  0
  1  2  1  0
  2  3  1  0
  2  4  1  0
  2  5  1  0
  5  6  2  0
  6  7  1  0
  7  8  2  0
  8  9  1  0
  9 10  1  0
 10 11  1  0
 11 12  2  0
 11 13  1  0
 13 14  2  0
 14 15  1  0
 15 16  2  0
 16 17  1  0
 17 18  1  0
 18 19  1  0
 19 20  1  0
 20 21  2  0
 21 22  1  0
 22 23  2  0
 23 24  1  0
 24 25  2  0
 17 26  2  0
 26 27  1  0
 27 28  2  0
 28 29  1  0
 29 30  1  0
 30 31  1  0
 31 32  2  0
 32 33  1  0
 33 34  2  0
 34 35  1  0
 35 36  1  0
 36 37  1  0
 36 38  2  0
 35 39  2  0
  8 40  1  0
 40 41  2  0
 41  5  1  0
 29 13  1  0
 39 31  1  0
 28 15  1  0
 25 20  1  0
  1 42  1  0
  1 43  1  0
  1 44  1  0
  3 45  1  0
  3 46  1  0
  3 47  1  0
  4 48  1  0
  4 49  1  0
  4 50  1  0
  6 51  1  0
  7 52  1  0
  9 53  1  0
  9 54  1  0
 10 55  1  0
 14 56  1  0
 16 57  1  0
 19 58  1  0
 19 59  1  0
 21 60  1  0
 22 61  1  0
 23 62  1  0
 24 63  1  0
 25 64  1  0
 26 65  1  0
 27 66  1  0
 30 67  1  0
 30 68  1  0
 32 69  1  0
 33 70  1  0
 34 71  1  0
 37 72  1  0
 37 73  1  0
 38 74  1  0
 38 75  1  0
 39 76  1  0
 40 77  1  0
 41 78  1  0
M  CHG  2   2   1  38   1
M  END
>  <meeko>  (4) 
{"is_sidechain": [false], "free_energy": -8.59, "intermolecular_energy": -13.841, "internal_energy": -2.496}

$$$$
1lpg_ligand
     RDKit          3D

 78 82  0  0  0  0  0  0  0  0999 V2000
    3.4280   -0.0580   14.1170 C   0  0  0  0  0  0  0  0  0  0  0  0
    4.6330    0.6150   14.7670 N   0  0  0  0  0  0  0  0  0  0  0  0
    5.5630   -0.4190   15.3960 C   0  0  0  0  0  0  0  0  0  0  0  0
    5.4120    1.3380   13.6720 C   0  0  0  0  0  0  0  0  0  0  0  0
    4.1430    1.5590   15.8540 C   0  0  0  0  0  0  0  0  0  0  0  0
    2.9280    2.2420   15.6790 C   0  0  0  0  0  0  0  0  0  0  0  0
    2.4370    3.1120   16.6610 C   0  0  0  0  0  0  0  0  0  0  0  0
    3.1460    3.3160   17.8480 C   0  0  0  0  0  0  0  0  0  0  0  0
    2.6290    4.2530   18.9140 C   0  0  0  0  0  0  0  0  0  0  0  0
    3.7110    4.9570   19.5590 N   0  0  0  0  0  0  0  0  0  0  0  0
    3.9520    6.2960   19.3400 C   0  0  0  0  0  0  0  0  0  0  0  0
    3.2570    6.9450   18.5620 O   0  0  0  0  0  0  0  0  0  0  0  0
    5.0510    6.8660   20.1110 C   0  0  0  0  0  0  0  0  0  0  0  0
    5.0160    7.4970   21.3480 C   0  0  0  0  0  0  0  0  0  0  0  0
    6.3150    7.9590   21.6780 C   0  0  0  0  0  0  0  0  0  0  0  0
    6.8350    8.6810   22.7750 C   0  0  0  0  0  0  0  0  0  0  0  0
    8.1890    9.0290   22.7940 C   0  0  0  0  0  0  0  0  0  0  0  0
    8.8250    9.7390   23.7750 O   0  0  0  0  0  0  0  0  0  0  0  0
   10.1900    9.4340   24.0780 C   0  0  0  0  0  0  0  0  0  0  0  0
   10.3630    8.5090   25.2610 C   0  0  0  0  0  0  0  0  0  0  0  0
   11.6170    8.3120   25.8570 C   0  0  0  0  0  0  0  0  0  0  0  0
   11.7650    7.4230   26.9230 C   0  0  0  0  0  0  0  0  0  0  0  0
   10.6660    6.7110   27.3970 C   0  0  0  0  0  0  0  0  0  0  0  0
    9.4170    6.8850   26.8040 C   0  0  0  0  0  0  0  0  0  0  0  0
    9.2670    7.7740   25.7370 C   0  0  0  0  0  0  0  0  0  0  0  0
    9.0070    8.6690   21.7260 C   0  0  0  0  0  0  0  0  0  0  0  0
    8.5160    7.9470   20.6320 C   0  0  0  0  0  0  0  0  0  0  0  0
    7.1570    7.5920   20.6330 C   0  0  0  0  0  0  0  0  0  0  0  0
    6.3910    6.8670   19.7280 N   0  0  0  0  0  0  0  0  0  0  0  0
    6.9480    6.2200   18.5370 C   0  0  0  0  0  0  0  0  0  0  0  0
    7.3270    4.7740   18.7920 C   0  0  0  0  0  0  0  0  0  0  0  0
    6.8310    4.1130   19.9230 C   0  0  0  0  0  0  0  0  0  0  0  0
    7.1500    2.7770   20.1680 C   0  0  0  0  0  0  0  0  0  0  0  0
    7.9690    2.0780   19.2830 C   0  0  0  0  0  0  0  0  0  0  0  0
    8.4760    2.7080   18.1380 C   0  0  0  0  0  0  0  0  0  0  0  0
    9.3440    1.9760   17.2040 C   0  0  0  0  0  0  0  0  0  0  0  0
   10.4820    1.4760   17.6350 N   0  0  0  0  0  0  0  0  0  0  0  0
    8.9660    1.8310   15.9530 N   0  0  0  0  0  0  0  0  0  0  0  0
    8.1430    4.0530   17.9010 C   0  0  0  0  0  0  0  0  0  0  0  0
    4.3640    2.6500   18.0210 C   0  0  0  0  0  0  0  0  0  0  0  0
    4.8560    1.7790   17.0380 C   0  0  0  0  0  0  0  0  0  0  0  0
    2.7526   -0.4352   14.8990 H   0  0  0  0  0  0  0  0  0  0  0  0
    2.8933    0.6721   13.4917 H   0  0  0  0  0  0  0  0  0  0  0  0
    3.7692   -0.8962   13.4917 H   0  0  0  0  0  0  0  0  0  0  0  0
    5.5006   -0.3496   16.4920 H   0  0  0  0  0  0  0  0  0  0  0  0
    5.2615   -1.4269   15.0746 H   0  0  0  0  0  0  0  0  0  0  0  0
    6.5971   -0.2257   15.0746 H   0  0  0  0  0  0  0  0  0  0  0  0
    6.1446    2.0180   14.1312 H   0  0  0  0  0  0  0  0  0  0  0  0
    5.9374    0.6003   13.0477 H   0  0  0  0  0  0  0  0  0  0  0  0
    4.7155    1.9169   13.0477 H   0  0  0  0  0  0  0  0  0  0  0  0
    2.3518    2.0909   14.7542 H   0  0  0  0  0  0  0  0  0  0  0  0
    1.4856    3.6390   16.4965 H   0  0  0  0  0  0  0  0  0  0  0  0
    1.9507    4.9845   18.4505 H   0  0  0  0  0  0  0  0  0  0  0  0
    2.0986    3.6589   19.6727 H   0  0  0  0  0  0  0  0  0  0  0  0
    4.2120    4.4760   20.2880 H   0  0  0  0  0  0  0  0  0  0  0  0
    4.1198    7.6192   21.9741 H   0  0  0  0  0  0  0  0  0  0  0  0
    6.1784    8.9679   23.6096 H   0  0  0  0  0  0  0  0  0  0  0  0
   10.6422    8.9567   23.1961 H   0  0  0  0  0  0  0  0  0  0  0  0
   10.6785   10.3838   24.3413 H   0  0  0  0  0  0  0  0  0  0  0  0
   12.4918    8.8629   25.4812 H   0  0  0  0  0  0  0  0  0  0  0  0
   12.7515    7.2846   27.3895 H   0  0  0  0  0  0  0  0  0  0  0  0
   10.7837    6.0122   28.2383 H   0  0  0  0  0  0  0  0  0  0  0  0
    8.5486    6.3219   27.1764 H   0  0  0  0  0  0  0  0  0  0  0  0
    8.2809    7.8988   25.2659 H   0  0  0  0  0  0  0  0  0  0  0  0
   10.0677    8.9599   21.7426 H   0  0  0  0  0  0  0  0  0  0  0  0
    9.1745    7.6661   19.7968 H   0  0  0  0  0  0  0  0  0  0  0  0
    6.1978    6.2526   17.7331 H   0  0  0  0  0  0  0  0  0  0  0  0
    7.8623    6.7630   18.2554 H   0  0  0  0  0  0  0  0  0  0  0  0
    6.1817    4.6541   20.6270 H   0  0  0  0  0  0  0  0  0  0  0  0
    6.7539    2.2738   21.0624 H   0  0  0  0  0  0  0  0  0  0  0  0
    8.2190    1.0258   19.4842 H   0  0  0  0  0  0  0  0  0  0  0  0
   10.7690    1.6270   18.5960 H   0  0  0  0  0  0  0  0  0  0  0  0
   11.1130    0.9630   17.0360 H   0  0  0  0  0  0  0  0  0  0  0  0
    8.0710    2.2050   15.6490 H   0  0  0  0  0  0  0  0  0  0  0  0
    9.5210    1.3370   15.2680 H   0  0  0  0  0  0  0  0  0  0  0  0
    8.5285    4.5523   16.9999 H   0  0  0  0  0  0  0  0  0  0  0  0
    4.9443    2.8118   18.9414 H   0  0  0  0  0  0  0  0  0  0  0  0
    5.8137    1.2626   17.1996 H   0  0  0  0  0  0  0  0  0  0  0  0
  1  2  1  0
  2  3  1  0
  2  4  1  0
  2  5  1  0
  5  6  2  0
  6  7  1  0
  7  8  2  0
  8  9  1  0
  9 10  1  0
 10 11  1  0
 11 12  2  0
 11 13  1  0
 13 14  2  0
 14 15  1  0
 15 16  2  0
 16 17  1  0
 17 18  1  0
 18 19  1  0
 19 20  1  0
 20 21  2  0
 21 22  1  0
 22 23  2  0
 23 24  1  0
 24 25  2  0
 17 26  2  0
 26 27  1  0
 27 28  2  0
 28 29  1  0
 29 30  1  0
 30 31  1  0
 31 32  2  0
 32 33  1  0
 33 34  2  0
 34 35  1  0
 35 36  1  0
 36 37  1  0
 36 38  2  0
 35 39  2  0
  8 40  1  0
 40 41  2  0
 41  5  1  0
 29 13  1  0
 39 31  1  0
 28 15  1  0
 25 20  1  0
  1 42  1  0
  1 43  1  0
  1 44  1  0
  3 45  1  0
  3 46  1  0
  3 47  1  0
  4 48  1  0
  4 49  1  0
  4 50  1  0
  6 51  1  0
  7 52  1  0
  9 53  1  0
  9 54  1  0
 10 55  1  0
 14 56  1  0
 16 57  1  0
 19 58  1  0
 19 59  1  0
 21 60  1  0
 22 61  1  0
 23 62  1  0
 24 63  1  0
 25 64  1  0
 26 65  1  0
 27 66  1  0
 30 67  1  0
 30 68  1  0
 32 69  1  0
 33 70  1  0
 34 71  1  0
 37 72  1  0
 37 73  1  0
 38 74  1  0
 38 75  1  0
 39 76  1  0
 40 77  1  0
 41 78  1  0
M  CHG  2   2   1  38   1
M  END
>  <meeko>  (5) 
{"is_sidechain": [false], "free_energy": -8.506, "intermolecular_energy": -13.766, "internal_energy": -2.438}

$$$$
1lpg_ligand
     RDKit          3D

 78 82  0  0  0  0  0  0  0  0999 V2000
    2.3300   10.9030   24.9460 C   0  0  0  0  0  0  0  0  0  0  0  0
    1.0450   10.4400   24.2660 N   0  0  0  0  0  0  0  0  0  0  0  0
   -0.1610   10.6450   25.1810 C   0  0  0  0  0  0  0  0  0  0  0  0
    0.8380   11.3000   23.0230 C   0  0  0  0  0  0  0  0  0  0  0  0
    1.1670    8.9610   23.9390 C   0  0  0  0  0  0  0  0  0  0  0  0
    0.9380    8.5230   22.6240 C   0  0  0  0  0  0  0  0  0  0  0  0
    1.0510    7.1700   22.2800 C   0  0  0  0  0  0  0  0  0  0  0  0
    1.4020    6.2190   23.2420 C   0  0  0  0  0  0  0  0  0  0  0  0
    1.5240    4.7570   22.8850 C   0  0  0  0  0  0  0  0  0  0  0  0
    2.6780    4.5180   22.0520 N   0  0  0  0  0  0  0  0  0  0  0  0
    3.9110    4.1960   22.5760 C   0  0  0  0  0  0  0  0  0  0  0  0
    4.0810    4.1170   23.7900 O   0  0  0  0  0  0  0  0  0  0  0  0
    4.9570    3.9340   21.5940 C   0  0  0  0  0  0  0  0  0  0  0  0
    5.5610    2.7280   21.2600 C   0  0  0  0  0  0  0  0  0  0  0  0
    6.5820    2.9610   20.3050 C   0  0  0  0  0  0  0  0  0  0  0  0
    7.5140    2.1180   19.6600 C   0  0  0  0  0  0  0  0  0  0  0  0
    8.4430    2.6670   18.7720 C   0  0  0  0  0  0  0  0  0  0  0  0
    9.4110    1.9800   18.0920 O   0  0  0  0  0  0  0  0  0  0  0  0
    9.3720    1.9580   16.6620 C   0  0  0  0  0  0  0  0  0  0  0  0
    8.0070    1.6430   16.0920 C   0  0  0  0  0  0  0  0  0  0  0  0
    7.2760    2.6020   15.3760 C   0  0  0  0  0  0  0  0  0  0  0  0
    6.0010    2.3060   14.8920 C   0  0  0  0  0  0  0  0  0  0  0  0
    5.4360    1.0540   15.1290 C   0  0  0  0  0  0  0  0  0  0  0  0
    6.1450    0.0980   15.8530 C   0  0  0  0  0  0  0  0  0  0  0  0
    7.4210    0.3920   16.3370 C   0  0  0  0  0  0  0  0  0  0  0  0
    8.4450    4.0400   18.5400 C   0  0  0  0  0  0  0  0  0  0  0  0
    7.5270    4.8940   19.1610 C   0  0  0  0  0  0  0  0  0  0  0  0
    6.5900    4.3270   20.0400 C   0  0  0  0  0  0  0  0  0  0  0  0
    5.5520    4.8900   20.7730 N   0  0  0  0  0  0  0  0  0  0  0  0
    5.1750    6.3030   20.6820 C   0  0  0  0  0  0  0  0  0  0  0  0
    5.7860    7.1340   21.7930 C   0  0  0  0  0  0  0  0  0  0  0  0
    5.0450    7.4010   22.9530 C   0  0  0  0  0  0  0  0  0  0  0  0
    5.5940    8.1470   23.9950 C   0  0  0  0  0  0  0  0  0  0  0  0
    6.8960    8.6360   23.9000 C   0  0  0  0  0  0  0  0  0  0  0  0
    7.6660    8.3810   22.7570 C   0  0  0  0  0  0  0  0  0  0  0  0
    9.0390    8.8990   22.6490 C   0  0  0  0  0  0  0  0  0  0  0  0
    9.6020    8.9950   21.4650 N   0  0  0  0  0  0  0  0  0  0  0  0
    9.6780    9.2580   23.7410 N   0  0  0  0  0  0  0  0  0  0  0  0
    7.1030    7.6240   21.7140 C   0  0  0  0  0  0  0  0  0  0  0  0
    1.6160    6.6480   24.5570 C   0  0  0  0  0  0  0  0  0  0  0  0
    1.5030    8.0020   24.9020 C   0  0  0  0  0  0  0  0  0  0  0  0
    2.2040   10.8576   26.0378 H   0  0  0  0  0  0  0  0  0  0  0  0
    3.1607   10.2476   24.6452 H   0  0  0  0  0  0  0  0  0  0  0  0
    2.5518   11.9376   24.6452 H   0  0  0  0  0  0  0  0  0  0  0  0
    0.1619   10.5901   26.2311 H   0  0  0  0  0  0  0  0  0  0  0  0
   -0.6062   11.6317   24.9854 H   0  0  0  0  0  0  0  0  0  0  0  0
   -0.9072    9.8608   24.9854 H   0  0  0  0  0  0  0  0  0  0  0  0
    0.5905   12.3282   23.3256 H   0  0  0  0  0  0  0  0  0  0  0  0
    1.7603   11.3061   22.4236 H   0  0  0  0  0  0  0  0  0  0  0  0
    0.0139   10.8858   22.4236 H   0  0  0  0  0  0  0  0  0  0  0  0
    0.6650    9.2559   21.8505 H   0  0  0  0  0  0  0  0  0  0  0  0
    0.8618    6.8532   21.2437 H   0  0  0  0  0  0  0  0  0  0  0  0
    1.6207    4.1687   23.8094 H   0  0  0  0  0  0  0  0  0  0  0  0
    0.6240    4.4582   22.3276 H   0  0  0  0  0  0  0  0  0  0  0  0
    2.5320    4.4580   21.0570 H   0  0  0  0  0  0  0  0  0  0  0  0
    5.2890    1.7453   21.6726 H   0  0  0  0  0  0  0  0  0  0  0  0
    7.5086    1.0355   19.8556 H   0  0  0  0  0  0  0  0  0  0  0  0
    9.6826    2.9461   16.2916 H   0  0  0  0  0  0  0  0  0  0  0  0
   10.0480    1.1538   16.3360 H   0  0  0  0  0  0  0  0  0  0  0  0
    7.7112    3.5958   15.1944 H   0  0  0  0  0  0  0  0  0  0  0  0
    5.4408    3.0621   14.3224 H   0  0  0  0  0  0  0  0  0  0  0  0
    4.4319    0.8212   14.7450 H   0  0  0  0  0  0  0  0  0  0  0  0
    5.6990   -0.8893   16.0435 H   0  0  0  0  0  0  0  0  0  0  0  0
    7.9720   -0.3640   16.9157 H   0  0  0  0  0  0  0  0  0  0  0  0
    9.1886    4.4648   17.8497 H   0  0  0  0  0  0  0  0  0  0  0  0
    7.5389    5.9766   18.9666 H   0  0  0  0  0  0  0  0  0  0  0  0
    5.5177    6.6990   19.7146 H   0  0  0  0  0  0  0  0  0  0  0  0
    4.0809    6.3663   20.7771 H   0  0  0  0  0  0  0  0  0  0  0  0
    4.0180    7.0172   23.0420 H   0  0  0  0  0  0  0  0  0  0  0  0
    4.9971    8.3507   24.8962 H   0  0  0  0  0  0  0  0  0  0  0  0
    7.3211    9.2249   24.7261 H   0  0  0  0  0  0  0  0  0  0  0  0
    9.1020    8.6820   20.6400 H   0  0  0  0  0  0  0  0  0  0  0  0
   10.5410    9.3460   21.3350 H   0  0  0  0  0  0  0  0  0  0  0  0
    9.2130    9.1980   24.6420 H   0  0  0  0  0  0  0  0  0  0  0  0
   10.6210    9.6210   23.7260 H   0  0  0  0  0  0  0  0  0  0  0  0
    7.7044    7.4105   20.8180 H   0  0  0  0  0  0  0  0  0  0  0  0
    1.8768    5.9116   25.3314 H   0  0  0  0  0  0  0  0  0  0  0  0
    1.6804    8.3146   25.9416 H   0  0  0  0  0  0  0  0  0  0  0  0
  1  2  1  0
  2  3  1  0
  2  4  1  0
  2  5  1  0
  5  6  2  0
  6  7  1  0
  7  8  2  0
  8  9  1  0
  9 10  1  0
 10 11  1  0
 11 12  2  0
 11 13  1  0
 13 14  2  0
 14 15  1  0
 15 16  2  0
 16 17  1  0
 17 18  1  0
 18 19  1  0
 19 20  1  0
 20 21  2  0
 21 22  1  0
 22 23  2  0
 23 24  1  0
 24 25  2  0
 17 26  2  0
 26 27  1  0
 27 28  2  0
 28 29  1  0
 29 30  1  0
 30 31  1  0
 31 32  2  0
 32 33  1  0
 33 34  2  0
 34 35  1  0
 35 36  1  0
 36 37  1  0
 36 38  2  0
 35 39  2  0
  8 40  1  0
 40 41  2  0
 41  5  1  0
 29 13  1  0
 39 31  1  0
 28 15  1  0
 25 20  1  0
  1 42  1  0
  1 43  1  0
  1 44  1  0
  3 45  1  0
  3 46  1  0
  3 47  1  0
  4 48  1  0
  4 49  1  0
  4 50  1  0
  6 51  1  0
  7 52  1  0
  9 53  1  0
  9 54  1  0
 10 55  1  0
 14 56  1  0
 16 57  1  0
 19 58  1  0
 19 59  1  0
 21 60  1  0
 22 61  1  0
 23 62  1  0
 24 63  1  0
 25 64  1  0
 26 65  1  0
 27 66  1  0
 30 67  1  0
 30 68  1  0
 32 69  1  0
 33 70  1  0
 34 71  1  0
 37 72  1  0
 37 73  1  0
 38 74  1  0
 38 75  1  0
 39 76  1  0
 40 77  1  0
 41 78  1  0
M  CHG  2   2   1  38   1
M  END
>  <meeko>  (6) 
{"is_sidechain": [false], "free_energy": -8.408, "intermolecular_energy": -13.439, "internal_energy": -2.61}

$$$$
1lpg_ligand
     RDKit          3D

 78 82  0  0  0  0  0  0  0  0999 V2000
   -0.0540   10.5040   24.9850 C   0  0  0  0  0  0  0  0  0  0  0  0
    1.1710   10.2500   24.1110 N   0  0  0  0  0  0  0  0  0  0  0  0
    1.0280   10.9410   22.7570 C   0  0  0  0  0  0  0  0  0  0  0  0
    2.3820   10.8520   24.8170 C   0  0  0  0  0  0  0  0  0  0  0  0
    1.3110    8.7530   23.8850 C   0  0  0  0  0  0  0  0  0  0  0  0
    1.5700    8.2700   22.5910 C   0  0  0  0  0  0  0  0  0  0  0  0
    1.7170    6.9000   22.3430 C   0  0  0  0  0  0  0  0  0  0  0  0
    1.6150    5.9740   23.3860 C   0  0  0  0  0  0  0  0  0  0  0  0
    1.7690    4.4940   23.1330 C   0  0  0  0  0  0  0  0  0  0  0  0
    2.8700    4.2290   22.2390 N   0  0  0  0  0  0  0  0  0  0  0  0
    4.1850    4.3510   22.6340 C   0  0  0  0  0  0  0  0  0  0  0  0
    4.4720    4.7130   23.7720 O   0  0  0  0  0  0  0  0  0  0  0  0
    5.1750    3.9940   21.6240 C   0  0  0  0  0  0  0  0  0  0  0  0
    5.6490    2.7370   21.2700 C   0  0  0  0  0  0  0  0  0  0  0  0
    6.6630    2.8750   20.2890 C   0  0  0  0  0  0  0  0  0  0  0  0
    7.4900    1.9490   19.6170 C   0  0  0  0  0  0  0  0  0  0  0  0
    8.4460    2.4090   18.7070 C   0  0  0  0  0  0  0  0  0  0  0  0
    9.3250    1.6360   18.0000 O   0  0  0  0  0  0  0  0  0  0  0  0
    9.2000    1.5690   16.5750 C   0  0  0  0  0  0  0  0  0  0  0  0
    7.7710    1.4740   16.0900 C   0  0  0  0  0  0  0  0  0  0  0  0
    7.0060    0.3170   16.2940 C   0  0  0  0  0  0  0  0  0  0  0  0
    5.7020    0.2320   15.8040 C   0  0  0  0  0  0  0  0  0  0  0  0
    5.1520    1.2960   15.0920 C   0  0  0  0  0  0  0  0  0  0  0  0
    5.9070    2.4450   14.8680 C   0  0  0  0  0  0  0  0  0  0  0  0
    7.2120    2.5330   15.3580 C   0  0  0  0  0  0  0  0  0  0  0  0
    8.5770    3.7780   18.4810 C   0  0  0  0  0  0  0  0  0  0  0  0
    7.7630    4.7130   19.1290 C   0  0  0  0  0  0  0  0  0  0  0  0
    6.7980    4.2350   20.0300 C   0  0  0  0  0  0  0  0  0  0  0  0
    5.8390    4.8930   20.7910 N   0  0  0  0  0  0  0  0  0  0  0  0
    5.6000    6.3360   20.7160 C   0  0  0  0  0  0  0  0  0  0  0  0
    6.7750    7.1410   21.2380 C   0  0  0  0  0  0  0  0  0  0  0  0
    7.5060    7.9560   20.3620 C   0  0  0  0  0  0  0  0  0  0  0  0
    8.5780    8.7190   20.8230 C   0  0  0  0  0  0  0  0  0  0  0  0
    8.9370    8.6840   22.1700 C   0  0  0  0  0  0  0  0  0  0  0  0
    8.2220    7.8860   23.0730 C   0  0  0  0  0  0  0  0  0  0  0  0
    8.6000    7.8420   24.4940 C   0  0  0  0  0  0  0  0  0  0  0  0
    9.6060    8.5750   24.9180 N   0  0  0  0  0  0  0  0  0  0  0  0
    7.9220    7.0720   25.3160 N   0  0  0  0  0  0  0  0  0  0  0  0
    7.1410    7.1240   22.5970 C   0  0  0  0  0  0  0  0  0  0  0  0
    1.3420    6.4490   24.6750 C   0  0  0  0  0  0  0  0  0  0  0  0
    1.1950    7.8210   24.9230 C   0  0  0  0  0  0  0  0  0  0  0  0
    0.2333   10.4444   26.0452 H   0  0  0  0  0  0  0  0  0  0  0  0
   -0.4568   11.5048   24.7699 H   0  0  0  0  0  0  0  0  0  0  0  0
   -0.8215    9.7459   24.7699 H   0  0  0  0  0  0  0  0  0  0  0  0
    0.8073   12.0075   22.9111 H   0  0  0  0  0  0  0  0  0  0  0  0
    1.9664   10.8387   22.1922 H   0  0  0  0  0  0  0  0  0  0  0  0
    0.2073   10.4746   22.1922 H   0  0  0  0  0  0  0  0  0  0  0  0
    2.2433   10.7830   25.9060 H   0  0  0  0  0  0  0  0  0  0  0  0
    3.2877   10.2993   24.5270 H   0  0  0  0  0  0  0  0  0  0  0  0
    2.4881   11.9078   24.5270 H   0  0  0  0  0  0  0  0  0  0  0  0
    1.6589    8.9819   21.7571 H   0  0  0  0  0  0  0  0  0  0  0  0
    1.9144    6.5491   21.3193 H   0  0  0  0  0  0  0  0  0  0  0  0
    1.9531    3.9837   24.0899 H   0  0  0  0  0  0  0  0  0  0  0  0
    0.8446    4.1224   22.6667 H   0  0  0  0  0  0  0  0  0  0  0  0
    2.6570    3.8160   21.3460 H   0  0  0  0  0  0  0  0  0  0  0  0
    5.2929    1.7831   21.6862 H   0  0  0  0  0  0  0  0  0  0  0  0
    7.3826    0.8711   19.8085 H   0  0  0  0  0  0  0  0  0  0  0  0
    9.6526    2.4745   16.1445 H   0  0  0  0  0  0  0  0  0  0  0  0
    9.7089    0.6487   16.2524 H   0  0  0  0  0  0  0  0  0  0  0  0
    7.4375   -0.5315   16.8453 H   0  0  0  0  0  0  0  0  0  0  0  0
    5.1074   -0.6765   15.9802 H   0  0  0  0  0  0  0  0  0  0  0  0
    4.1236    1.2288   14.7075 H   0  0  0  0  0  0  0  0  0  0  0  0
    5.4746    3.2847   14.3041 H   0  0  0  0  0  0  0  0  0  0  0  0
    7.8061    3.4392   15.1687 H   0  0  0  0  0  0  0  0  0  0  0  0
    9.3412    4.1329   17.7739 H   0  0  0  0  0  0  0  0  0  0  0  0
    7.8755    5.7905   18.9384 H   0  0  0  0  0  0  0  0  0  0  0  0
    5.4211    6.6110   19.6661 H   0  0  0  0  0  0  0  0  0  0  0  0
    4.7277    6.5662   21.3453 H   0  0  0  0  0  0  0  0  0  0  0  0
    7.2303    7.9939   19.2978 H   0  0  0  0  0  0  0  0  0  0  0  0
    9.1426    9.3509   20.1216 H   0  0  0  0  0  0  0  0  0  0  0  0
    9.7861    9.2861   22.5256 H   0  0  0  0  0  0  0  0  0  0  0  0
   10.1350    9.1380   24.2600 H   0  0  0  0  0  0  0  0  0  0  0  0
    9.9050    8.5840   25.8830 H   0  0  0  0  0  0  0  0  0  0  0  0
    7.1330    6.5330   24.9710 H   0  0  0  0  0  0  0  0  0  0  0  0
    8.1370    7.0030   26.3020 H   0  0  0  0  0  0  0  0  0  0  0  0
    6.5693    6.5016   23.3011 H   0  0  0  0  0  0  0  0  0  0  0  0
    1.2414    5.7347   25.5054 H   0  0  0  0  0  0  0  0  0  0  0  0
    0.9860    8.1692   25.9453 H   0  0  0  0  0  0  0  0  0  0  0  0
  1  2  1  0
  2  3  1  0
  2  4  1  0
  2  5  1  0
  5  6  2  0
  6  7  1  0
  7  8  2  0
  8  9  1  0
  9 10  1  0
 10 11  1  0
 11 12  2  0
 11 13  1  0
 13 14  2  0
 14 15  1  0
 15 16  2  0
 16 17  1  0
 17 18  1  0
 18 19  1  0
 19 20  1  0
 20 21  2  0
 21 22  1  0
 22 23  2  0
 23 24  1  0
 24 25  2  0
 17 26  2  0
 26 27  1  0
 27 28  2  0
 28 29  1  0
 29 30  1  0
 30 31  1  0
 31 32  2  0
 32 33  1  0
 33 34  2  0
 34 35  1  0
 35 36  1  0
 36 37  1  0
 36 38  2  0
 35 39  2  0
  8 40  1  0
 40 41  2  0
 41  5  1  0
 29 13  1  0
 39 31  1  0
 28 15  1  0
 25 20  1  0
  1 42  1  0
  1 43  1  0
  1 44  1  0
  3 45  1  0
  3 46  1  0
  3 47  1  0
  4 48  1  0
  4 49  1  0
  4 50  1  0
  6 51  1  0
  7 52  1  0
  9 53  1  0
  9 54  1  0
 10 55  1  0
 14 56  1  0
 16 57  1  0
 19 58  1  0
 19 59  1  0
 21 60  1  0
 22 61  1  0
 23 62  1  0
 24 63  1  0
 25 64  1  0
 26 65  1  0
 27 66  1  0
 30 67  1  0
 30 68  1  0
 32 69  1  0
 33 70  1  0
 34 71  1  0
 37 72  1  0
 37 73  1  0
 38 74  1  0
 38 75  1  0
 39 76  1  0
 40 77  1  0
 41 78  1  0
M  CHG  2   2   1  38   1
M  END
>  <meeko>  (7) 
{"is_sidechain": [false], "free_energy": -8.334, "intermolecular_energy": -13.862, "internal_energy": -2.069}

$$$$
1lpg_ligand
     RDKit          3D

 78 82  0  0  0  0  0  0  0  0999 V2000
    3.2470   -0.5500   15.5240 C   0  0  0  0  0  0  0  0  0  0  0  0
    2.2480   -1.1760   16.4940 N   0  0  0  0  0  0  0  0  0  0  0  0
    0.8340   -1.1380   15.9200 C   0  0  0  0  0  0  0  0  0  0  0  0
    2.6350   -2.6400   16.6840 C   0  0  0  0  0  0  0  0  0  0  0  0
    2.2710   -0.3930   17.7960 C   0  0  0  0  0  0  0  0  0  0  0  0
    3.1310    0.7110   17.9250 C   0  0  0  0  0  0  0  0  0  0  0  0
    3.1730    1.4640   19.1050 C   0  0  0  0  0  0  0  0  0  0  0  0
    2.3510    1.1380   20.1870 C   0  0  0  0  0  0  0  0  0  0  0  0
    2.3890    1.9400   21.4650 C   0  0  0  0  0  0  0  0  0  0  0  0
    3.4850    2.8780   21.4610 N   0  0  0  0  0  0  0  0  0  0  0  0
    3.2900    4.2370   21.3460 C   0  0  0  0  0  0  0  0  0  0  0  0
    2.1620    4.7060   21.2240 O   0  0  0  0  0  0  0  0  0  0  0  0
    4.5010    5.0480   21.4130 C   0  0  0  0  0  0  0  0  0  0  0  0
    5.0640    5.6910   22.5090 C   0  0  0  0  0  0  0  0  0  0  0  0
    6.2000    6.4280   22.0900 C   0  0  0  0  0  0  0  0  0  0  0  0
    7.1070    7.2730   22.7660 C   0  0  0  0  0  0  0  0  0  0  0  0
    8.1310    7.9010   22.0510 C   0  0  0  0  0  0  0  0  0  0  0  0
    9.0670    8.7560   22.5650 O   0  0  0  0  0  0  0  0  0  0  0  0
    8.8720    9.2890   23.8790 C   0  0  0  0  0  0  0  0  0  0  0  0
    9.6170    8.5380   24.9600 C   0  0  0  0  0  0  0  0  0  0  0  0
    8.9530    7.6660   25.8340 C   0  0  0  0  0  0  0  0  0  0  0  0
    9.6500    7.0130   26.8520 C   0  0  0  0  0  0  0  0  0  0  0  0
   11.0150    7.2330   27.0160 C   0  0  0  0  0  0  0  0  0  0  0  0
   11.6850    8.1100   26.1650 C   0  0  0  0  0  0  0  0  0  0  0  0
   10.9900    8.7640   25.1460 C   0  0  0  0  0  0  0  0  0  0  0  0
    8.2390    7.6920   20.6770 C   0  0  0  0  0  0  0  0  0  0  0  0
    7.3560    6.8540   19.9880 C   0  0  0  0  0  0  0  0  0  0  0  0
    6.3410    6.2180   20.7220 C   0  0  0  0  0  0  0  0  0  0  0  0
    5.3490    5.3230   20.3420 N   0  0  0  0  0  0  0  0  0  0  0  0
    5.2310    4.7770   18.9870 C   0  0  0  0  0  0  0  0  0  0  0  0
    6.0830    3.5370   18.7920 C   0  0  0  0  0  0  0  0  0  0  0  0
    6.5270    2.8130   19.9070 C   0  0  0  0  0  0  0  0  0  0  0  0
    7.2950    1.6600   19.7500 C   0  0  0  0  0  0  0  0  0  0  0  0
    7.6300    1.2070   18.4750 C   0  0  0  0  0  0  0  0  0  0  0  0
    7.1960    1.9030   17.3390 C   0  0  0  0  0  0  0  0  0  0  0  0
    7.5500    1.4320   15.9920 C   0  0  0  0  0  0  0  0  0  0  0  0
    8.2710    2.2020   15.2060 N   0  0  0  0  0  0  0  0  0  0  0  0
    7.1410    0.2460   15.5970 N   0  0  0  0  0  0  0  0  0  0  0  0
    6.4180    3.0630   17.5100 C   0  0  0  0  0  0  0  0  0  0  0  0
    1.5040    0.0300   20.0700 C   0  0  0  0  0  0  0  0  0  0  0  0
    1.4610   -0.7250   18.8890 C   0  0  0  0  0  0  0  0  0  0  0  0
    4.0453   -0.0498   16.0919 H   0  0  0  0  0  0  0  0  0  0  0  0
    3.6847   -1.3357   14.8906 H   0  0  0  0  0  0  0  0  0  0  0  0
    2.7308    0.1865   14.8906 H   0  0  0  0  0  0  0  0  0  0  0  0
    0.1045   -1.1184   16.7431 H   0  0  0  0  0  0  0  0  0  0  0  0
    0.7134   -0.2363   15.3016 H   0  0  0  0  0  0  0  0  0  0  0  0
    0.6651   -2.0319   15.3016 H   0  0  0  0  0  0  0  0  0  0  0  0
    2.6950   -2.8669   17.7587 H   0  0  0  0  0  0  0  0  0  0  0  0
    1.8762   -3.2837   16.2151 H   0  0  0  0  0  0  0  0  0  0  0  0
    3.6128   -2.8246   16.2151 H   0  0  0  0  0  0  0  0  0  0  0  0
    3.7830    0.9887   17.0837 H   0  0  0  0  0  0  0  0  0  0  0  0
    3.8595    2.3201   19.1808 H   0  0  0  0  0  0  0  0  0  0  0  0
    1.4440    2.4931   21.5695 H   0  0  0  0  0  0  0  0  0  0  0  0
    2.5280    1.2461   22.3071 H   0  0  0  0  0  0  0  0  0  0  0  0
    4.4020    2.5260   21.6820 H   0  0  0  0  0  0  0  0  0  0  0  0
    4.6868    5.6365   23.5409 H   0  0  0  0  0  0  0  0  0  0  0  0
    7.0084    7.4362   23.8493 H   0  0  0  0  0  0  0  0  0  0  0  0
    9.2151   10.3341   23.8836 H   0  0  0  0  0  0  0  0  0  0  0  0
    7.7997    9.1965   24.1060 H   0  0  0  0  0  0  0  0  0  0  0  0
    7.8728    7.4948   25.7165 H   0  0  0  0  0  0  0  0  0  0  0  0
    9.1200    6.3236   27.5257 H   0  0  0  0  0  0  0  0  0  0  0  0
   11.5640    6.7152   27.8163 H   0  0  0  0  0  0  0  0  0  0  0  0
   12.7627    8.2871   26.2963 H   0  0  0  0  0  0  0  0  0  0  0  0
   11.5226    9.4621   24.4834 H   0  0  0  0  0  0  0  0  0  0  0  0
    9.0400    8.1997   20.1197 H   0  0  0  0  0  0  0  0  0  0  0  0
    7.4535    6.6976   18.9035 H   0  0  0  0  0  0  0  0  0  0  0  0
    4.1787    4.5165   18.8005 H   0  0  0  0  0  0  0  0  0  0  0  0
    5.5849    5.5438   18.2822 H   0  0  0  0  0  0  0  0  0  0  0  0
    6.2664    3.1587   20.9182 H   0  0  0  0  0  0  0  0  0  0  0  0
    7.6380    1.1055   20.6359 H   0  0  0  0  0  0  0  0  0  0  0  0
    8.2386    0.2979   18.3600 H   0  0  0  0  0  0  0  0  0  0  0  0
    8.5490    3.1260   15.5190 H   0  0  0  0  0  0  0  0  0  0  0  0
    8.5440    1.9260   14.2730 H   0  0  0  0  0  0  0  0  0  0  0  0
    6.6060   -0.3410   16.2300 H   0  0  0  0  0  0  0  0  0  0  0  0
    7.3550   -0.1280   14.6820 H   0  0  0  0  0  0  0  0  0  0  0  0
    6.0646    3.6103   16.6237 H   0  0  0  0  0  0  0  0  0  0  0  0
    0.8622   -0.2530   20.9174 H   0  0  0  0  0  0  0  0  0  0  0  0
    0.7829   -1.5884   18.8204 H   0  0  0  0  0  0  0  0  0  0  0  0
  1  2  1  0
  2  3  1  0
  2  4  1  0
  2  5  1  0
  5  6  2  0
  6  7  1  0
  7  8  2  0
  8  9  1  0
  9 10  1  0
 10 11  1  0
 11 12  2  0
 11 13  1  0
 13 14  2  0
 14 15  1  0
 15 16  2  0
 16 17  1  0
 17 18  1  0
 18 19  1  0
 19 20  1  0
 20 21  2  0
 21 22  1  0
 22 23  2  0
 23 24  1  0
 24 25  2  0
 17 26  2  0
 26 27  1  0
 27 28  2  0
 28 29  1  0
 29 30  1  0
 30 31  1  0
 31 32  2  0
 32 33  1  0
 33 34  2  0
 34 35  1  0
 35 36  1  0
 36 37  1  0
 36 38  2  0
 35 39  2  0
  8 40  1  0
 40 41  2  0
 41  5  1  0
 29 13  1  0
 39 31  1  0
 28 15  1  0
 25 20  1  0
  1 42  1  0
  1 43  1  0
  1 44  1  0
  3 45  1  0
  3 46  1  0
  3 47  1  0
  4 48  1  0
  4 49  1  0
  4 50  1  0
  6 51  1  0
  7 52  1  0
  9 53  1  0
  9 54  1  0
 10 55  1  0
 14 56  1  0
 16 57  1  0
 19 58  1  0
 19 59  1  0
 21 60  1  0
 22 61  1  0
 23 62  1  0
 24 63  1  0
 25 64  1  0
 26 65  1  0
 27 66  1  0
 30 67  1  0
 30 68  1  0
 32 69  1  0
 33 70  1  0
 34 71  1  0
 37 72  1  0
 37 73  1  0
 38 74  1  0
 38 75  1  0
 39 76  1  0
 40 77  1  0
 41 78  1  0
M  CHG  2   2   1  38   1
M  END
>  <meeko>  (8) 
{"is_sidechain": [false], "free_energy": -8.235, "intermolecular_energy": -13.231, "internal_energy": -2.543}

$$$$
1lpg_ligand
     RDKit          3D

 78 82  0  0  0  0  0  0  0  0999 V2000
    6.4690   15.7290   18.7980 C   0  0  0  0  0  0  0  0  0  0  0  0
    5.0880   15.7700   18.1500 N   0  0  0  0  0  0  0  0  0  0  0  0
    3.9880   15.7910   19.2080 C   0  0  0  0  0  0  0  0  0  0  0  0
    4.9870   17.0630   17.3460 C   0  0  0  0  0  0  0  0  0  0  0  0
    4.9140   14.5310   17.2860 C   0  0  0  0  0  0  0  0  0  0  0  0
    5.3110   13.2790   17.7840 C   0  0  0  0  0  0  0  0  0  0  0  0
    5.1580   12.1130   17.0240 C   0  0  0  0  0  0  0  0  0  0  0  0
    4.5960   12.1670   15.7460 C   0  0  0  0  0  0  0  0  0  0  0  0
    4.4270   10.9180   14.9140 C   0  0  0  0  0  0  0  0  0  0  0  0
    4.5930    9.7310   15.7170 N   0  0  0  0  0  0  0  0  0  0  0  0
    3.5220    9.0480   16.2530 C   0  0  0  0  0  0  0  0  0  0  0  0
    2.3710    9.4420   16.0810 O   0  0  0  0  0  0  0  0  0  0  0  0
    3.8610    7.8380   16.9940 C   0  0  0  0  0  0  0  0  0  0  0  0
    4.2720    6.6030   16.5090 C   0  0  0  0  0  0  0  0  0  0  0  0
    4.4170    5.6970   17.5900 C   0  0  0  0  0  0  0  0  0  0  0  0
    4.7690    4.3320   17.6670 C   0  0  0  0  0  0  0  0  0  0  0  0
    4.7900    3.6920   18.9100 C   0  0  0  0  0  0  0  0  0  0  0  0
    5.0910    2.3780   19.1360 O   0  0  0  0  0  0  0  0  0  0  0  0
    6.2240    2.0550   19.9490 C   0  0  0  0  0  0  0  0  0  0  0  0
    7.5440    2.1230   19.2140 C   0  0  0  0  0  0  0  0  0  0  0  0
    8.1200    3.3500   18.8570 C   0  0  0  0  0  0  0  0  0  0  0  0
    9.3180    3.3920   18.1440 C   0  0  0  0  0  0  0  0  0  0  0  0
    9.9490    2.2080   17.7660 C   0  0  0  0  0  0  0  0  0  0  0  0
    9.3790    0.9810   18.1000 C   0  0  0  0  0  0  0  0  0  0  0  0
    8.1800    0.9370   18.8140 C   0  0  0  0  0  0  0  0  0  0  0  0
    4.4530    4.4080   20.0570 C   0  0  0  0  0  0  0  0  0  0  0  0
    4.1090    5.7630   20.0060 C   0  0  0  0  0  0  0  0  0  0  0  0
    4.1060    6.3960   18.7520 C   0  0  0  0  0  0  0  0  0  0  0  0
    3.8440    7.7090   18.3810 N   0  0  0  0  0  0  0  0  0  0  0  0
    3.5730    8.7800   19.3430 C   0  0  0  0  0  0  0  0  0  0  0  0
    4.7350    9.0080   20.2910 C   0  0  0  0  0  0  0  0  0  0  0  0
    4.5730    8.7680   21.6630 C   0  0  0  0  0  0  0  0  0  0  0  0
    5.6320    8.9520   22.5510 C   0  0  0  0  0  0  0  0  0  0  0  0
    6.8740    9.3770   22.0830 C   0  0  0  0  0  0  0  0  0  0  0  0
    7.0720    9.6200   20.7170 C   0  0  0  0  0  0  0  0  0  0  0  0
    8.3800   10.0720   20.2190 C   0  0  0  0  0  0  0  0  0  0  0  0
    9.4440    9.3310   20.4330 N   0  0  0  0  0  0  0  0  0  0  0  0
    8.4610   11.2110   19.5670 N   0  0  0  0  0  0  0  0  0  0  0  0
    5.9970    9.4260   19.8310 C   0  0  0  0  0  0  0  0  0  0  0  0
    4.2120   13.4140   15.2380 C   0  0  0  0  0  0  0  0  0  0  0  0
    4.3660   14.5820   15.9990 C   0  0  0  0  0  0  0  0  0  0  0  0
    6.3606   15.7322   19.8926 H   0  0  0  0  0  0  0  0  0  0  0  0
    6.9943   14.8149   18.4842 H   0  0  0  0  0  0  0  0  0  0  0  0
    7.0476   16.6104   18.4842 H   0  0  0  0  0  0  0  0  0  0  0  0
    4.4425   15.7823   20.2097 H   0  0  0  0  0  0  0  0  0  0  0  0
    3.3815   16.7009   19.0884 H   0  0  0  0  0  0  0  0  0  0  0  0
    3.3472   14.9049   19.0884 H   0  0  0  0  0  0  0  0  0  0  0  0
    4.9202   17.9185   18.0343 H   0  0  0  0  0  0  0  0  0  0  0  0
    5.8794   17.1713   16.7121 H   0  0  0  0  0  0  0  0  0  0  0  0
    4.0886   17.0314   16.7121 H   0  0  0  0  0  0  0  0  0  0  0  0
    5.7505   13.2133   18.7903 H   0  0  0  0  0  0  0  0  0  0  0  0
    5.4830   11.1465   17.4366 H   0  0  0  0  0  0  0  0  0  0  0  0
    3.4196   10.9145   14.4722 H   0  0  0  0  0  0  0  0  0  0  0  0
    5.1953   10.9168   14.1267 H   0  0  0  0  0  0  0  0  0  0  0  0
    5.5130    9.3260   15.7670 H   0  0  0  0  0  0  0  0  0  0  0  0
    4.4563    6.3649   15.4510 H   0  0  0  0  0  0  0  0  0  0  0  0
    5.0254    3.7748   16.7539 H   0  0  0  0  0  0  0  0  0  0  0  0
    6.2593    2.7622   20.7908 H   0  0  0  0  0  0  0  0  0  0  0  0
    6.0947    1.0134   20.2782 H   0  0  0  0  0  0  0  0  0  0  0  0
    7.6224    4.2888   19.1419 H   0  0  0  0  0  0  0  0  0  0  0  0
    9.7657    4.3613   17.8795 H   0  0  0  0  0  0  0  0  0  0  0  0
   10.8948    2.2421   17.2053 H   0  0  0  0  0  0  0  0  0  0  0  0
    9.8745    0.0457   17.8006 H   0  0  0  0  0  0  0  0  0  0  0  0
    7.7300   -0.0348   19.0652 H   0  0  0  0  0  0  0  0  0  0  0  0
    4.4576    3.8936   21.0293 H   0  0  0  0  0  0  0  0  0  0  0  0
    3.8487    6.3162   20.9204 H   0  0  0  0  0  0  0  0  0  0  0  0
    3.3788    9.7112   18.7906 H   0  0  0  0  0  0  0  0  0  0  0  0
    2.7014    8.4809   19.9438 H   0  0  0  0  0  0  0  0  0  0  0  0
    3.5978    8.4302   22.0436 H   0  0  0  0  0  0  0  0  0  0  0  0
    5.4867    8.7611   23.6245 H   0  0  0  0  0  0  0  0  0  0  0  0
    7.7040    9.5226   22.7901 H   0  0  0  0  0  0  0  0  0  0  0  0
    9.3650    8.4710   20.9660 H   0  0  0  0  0  0  0  0  0  0  0  0
   10.3660    9.5930   20.1100 H   0  0  0  0  0  0  0  0  0  0  0  0
    7.6210   11.7550   19.3930 H   0  0  0  0  0  0  0  0  0  0  0  0
    9.3330   11.5700   19.2020 H   0  0  0  0  0  0  0  0  0  0  0  0
    6.1462    9.6049   18.7559 H   0  0  0  0  0  0  0  0  0  0  0  0
    3.7832   13.4785   14.2271 H   0  0  0  0  0  0  0  0  0  0  0  0
    4.0525   15.5494   15.5796 H   0  0  0  0  0  0  0  0  0  0  0  0
  1  2  1  0
  2  3  1  0
  2  4  1  0
  2  5  1  0
  5  6  2  0
  6  7  1  0
  7  8  2  0
  8  9  1  0
  9 10  1  0
 10 11  1  0
 11 12  2  0
 11 13  1  0
 13 14  2  0
 14 15  1  0
 15 16  2  0
 16 17  1  0
 17 18  1  0
 18 19  1  0
 19 20  1  0
 20 21  2  0
 21 22  1  0
 22 23  2  0
 23 24  1  0
 24 25  2  0
 17 26  2  0
 26 27  1  0
 27 28  2  0
 28 29  1  0
 29 30  1  0
 30 31  1  0
 31 32  2  0
 32 33  1  0
 33 34  2  0
 34 35  1  0
 35 36  1  0
 36 37  1  0
 36 38  2  0
 35 39  2  0
  8 40  1  0
 40 41  2  0
 41  5  1  0
 29 13  1  0
 39 31  1  0
 28 15  1  0
 25 20  1  0
  1 42  1  0
  1 43  1  0
  1 44  1  0
  3 45  1  0
  3 46  1  0
  3 47  1  0
  4 48  1  0
  4 49  1  0
  4 50  1  0
  6 51  1  0
  7 52  1  0
  9 53  1  0
  9 54  1  0
 10 55  1  0
 14 56  1  0
 16 57  1  0
 19 58  1  0
 19 59  1  0
 21 60  1  0
 22 61  1  0
 23 62  1  0
 24 63  1  0
 25 64  1  0
 26 65  1  0
 27 66  1  0
 30 67  1  0
 30 68  1  0
 32 69  1  0
 33 70  1  0
 34 71  1  0
 37 72  1  0
 37 73  1  0
 38 74  1  0
 38 75  1  0
 39 76  1  0
 40 77  1  0
 41 78  1  0
M  CHG  2   2   1  38   1
M  END
>  <meeko>  (9) 
{"is_sidechain": [false], "free_energy": -8.157, "intermolecular_energy": -13.276, "internal_energy": -2.375}

$$$$
