3gy4_ligand
     RDKit          3D

 20 20  0  0  0  0  0  0  0  0999 V2000
   -1.6740   12.2150   15.1490 N   0  0  0  0  0  0  0  0  0  0  0  0
   -2.1070   13.4420   15.3450 C   0  0  0  0  0  0  0  0  0  0  0  0
   -3.0150   13.9820   14.5620 N   0  0  0  0  0  0  0  0  0  0  0  0
   -1.5680   14.2230   16.4630 C   0  0  0  0  0  0  0  0  0  0  0  0
   -1.7130   15.6160   16.4960 C   0  0  0  0  0  0  0  0  0  0  0  0
   -1.1830   16.3600   17.5570 C   0  0  0  0  0  0  0  0  0  0  0  0
   -0.5390   15.7290   18.6220 C   0  0  0  0  0  0  0  0  0  0  0  0
    0.1040   16.4840   19.6020 N   0  0  0  0  0  0  0  0  0  0  0  0
   -0.3520   14.3480   18.5650 C   0  0  0  0  0  0  0  0  0  0  0  0
   -0.8760   13.5950   17.5080 C   0  0  0  0  0  0  0  0  0  0  0  0
   -0.9490   11.8360   15.7520 H   0  0  0  0  0  0  0  0  0  0  0  0
   -2.0090   11.6310   14.3960 H   0  0  0  0  0  0  0  0  0  0  0  0
   -3.4240   13.4910   13.7790 H   0  0  0  0  0  0  0  0  0  0  0  0
   -3.3480   14.9230   14.7510 H   0  0  0  0  0  0  0  0  0  0  0  0
   -2.2471   16.1289   15.6825 H   0  0  0  0  0  0  0  0  0  0  0  0
   -1.2754   17.4561   17.5510 H   0  0  0  0  0  0  0  0  0  0  0  0
    1.1180   16.4900   19.5500 H   0  0  0  0  0  0  0  0  0  0  0  0
   -0.2740   17.4150   19.7500 H   0  0  0  0  0  0  0  0  0  0  0  0
    0.2149   13.8439   19.3615 H   0  0  0  0  0  0  0  0  0  0  0  0
   -0.7440   12.5030   17.4971 H   0  0  0  0  0  0  0  0  0  0  0  0
  1  2  1  0
  2  3  2  0
  2  4  1  0
  4  5  2  0
  5  6  1  0
  6  7  2  0
  7  8  1  0
  7  9  1  0
  9 10  2  0
 10  4  1  0
  1 11  1  0
  1 12  1  0
  3 13  1  0
  3 14  1  0
  5 15  1  0
  6 16  1  0
  8 17  1  0
  8 18  1  0
  9 19  1  0
 10 20  1  0
M  CHG  1   3   1
M  END
>  <meeko>  (1) 
{"is_sidechain": [false], "free_energy": -6.544, "intermolecular_energy": -7.118, "internal_energy": -0.045}

$$$$
3gy4_ligand
     RDKit          3D

 20 20  0  0  0  0  0  0  0  0999 V2000
   -1.6890   12.2190   15.2290 N   0  0  0  0  0  0  0  0  0  0  0  0
   -2.1120   13.4550   15.3820 C   0  0  0  0  0  0  0  0  0  0  0  0
   -2.9940   13.9850   14.5640 N   0  0  0  0  0  0  0  0  0  0  0  0
   -1.5890   14.2590   16.4920 C   0  0  0  0  0  0  0  0  0  0  0  0
   -0.9220   13.6490   17.5630 C   0  0  0  0  0  0  0  0  0  0  0  0
   -0.4390   14.4180   18.6280 C   0  0  0  0  0  0  0  0  0  0  0  0
   -0.5720   15.8070   18.6270 C   0  0  0  0  0  0  0  0  0  0  0  0
   -0.2120   16.5490   19.7510 N   0  0  0  0  0  0  0  0  0  0  0  0
   -1.2790   16.4080   17.5850 C   0  0  0  0  0  0  0  0  0  0  0  0
   -1.7680   15.6490   16.5170 C   0  0  0  0  0  0  0  0  0  0  0  0
   -0.9830   11.8480   15.8580 H   0  0  0  0  0  0  0  0  0  0  0  0
   -2.0130   11.6180   14.4840 H   0  0  0  0  0  0  0  0  0  0  0  0
   -3.3900   13.4780   13.7840 H   0  0  0  0  0  0  0  0  0  0  0  0
   -3.3200   14.9340   14.7200 H   0  0  0  0  0  0  0  0  0  0  0  0
   -0.7771   12.5586   17.5666 H   0  0  0  0  0  0  0  0  0  0  0  0
    0.0521   13.9206   19.4774 H   0  0  0  0  0  0  0  0  0  0  0  0
    0.7570   16.8520   19.7790 H   0  0  0  0  0  0  0  0  0  0  0  0
   -0.8510   17.2970   20.0000 H   0  0  0  0  0  0  0  0  0  0  0  0
   -1.4542   17.4938   17.6038 H   0  0  0  0  0  0  0  0  0  0  0  0
   -2.2969   16.1464   15.6906 H   0  0  0  0  0  0  0  0  0  0  0  0
  1  2  1  0
  2  3  2  0
  2  4  1  0
  4  5  2  0
  5  6  1  0
  6  7  2  0
  7  8  1  0
  7  9  1  0
  9 10  2  0
 10  4  1  0
  1 11  1  0
  1 12  1  0
  3 13  1  0
  3 14  1  0
  5 15  1  0
  6 16  1  0
  8 17  1  0
  8 18  1  0
  9 19  1  0
 10 20  1  0
M  CHG  1   3   1
M  END
>  <meeko>  (2) 
{"is_sidechain": [false], "free_energy": -6.413, "intermolecular_energy": -6.976, "internal_energy": -0.045}

$$$$
3gy4_ligand
     RDKit          3D

 20 20  0  0  0  0  0  0  0  0999 V2000
    0.4410   16.4690   19.7350 N   0  0  0  0  0  0  0  0  0  0  0  0
   -0.7340   16.4590   19.1430 C   0  0  0  0  0  0  0  0  0  0  0  0
   -1.6670   17.3310   19.4570 N   0  0  0  0  0  0  0  0  0  0  0  0
   -1.0080   15.4560   18.1090 C   0  0  0  0  0  0  0  0  0  0  0  0
   -1.8050   15.7720   17.0010 C   0  0  0  0  0  0  0  0  0  0  0  0
   -2.0780   14.8070   16.0240 C   0  0  0  0  0  0  0  0  0  0  0  0
   -1.5280   13.5280   16.1090 C   0  0  0  0  0  0  0  0  0  0  0  0
   -1.9130   12.5360   15.2080 N   0  0  0  0  0  0  0  0  0  0  0  0
   -0.7740   13.1990   17.2360 C   0  0  0  0  0  0  0  0  0  0  0  0
   -0.4980   14.1540   18.2200 C   0  0  0  0  0  0  0  0  0  0  0  0
    1.1310   15.7630   19.4940 H   0  0  0  0  0  0  0  0  0  0  0  0
    0.6860   17.1350   20.4530 H   0  0  0  0  0  0  0  0  0  0  0  0
   -1.5340   18.0450   20.1590 H   0  0  0  0  0  0  0  0  0  0  0  0
   -2.5570   17.3140   18.9680 H   0  0  0  0  0  0  0  0  0  0  0  0
   -2.2193   16.7857   16.8979 H   0  0  0  0  0  0  0  0  0  0  0  0
   -2.7345   15.0607   15.1787 H   0  0  0  0  0  0  0  0  0  0  0  0
   -1.1510   12.0570   14.7370 H   0  0  0  0  0  0  0  0  0  0  0  0
   -2.6140   11.8860   15.5520 H   0  0  0  0  0  0  0  0  0  0  0  0
   -0.3913   12.1743   17.3523 H   0  0  0  0  0  0  0  0  0  0  0  0
    0.1229   13.8823   19.0864 H   0  0  0  0  0  0  0  0  0  0  0  0
  1  2  1  0
  2  3  2  0
  2  4  1  0
  4  5  2  0
  5  6  1  0
  6  7  2  0
  7  8  1  0
  7  9  1  0
  9 10  2  0
 10  4  1  0
  1 11  1  0
  1 12  1  0
  3 13  1  0
  3 14  1  0
  5 15  1  0
  6 16  1  0
  8 17  1  0
  8 18  1  0
  9 19  1  0
 10 20  1  0
M  CHG  1   3   1
M  END
>  <meeko>  (3) 
{"is_sidechain": [false], "free_energy": -5.857, "intermolecular_energy": -6.375, "internal_energy": -0.041}

$$$$
3gy4_ligand
     RDKit          3D

 20 20  0  0  0  0  0  0  0  0999 V2000
   -1.5210   17.4600   19.3810 N   0  0  0  0  0  0  0  0  0  0  0  0
   -0.6350   16.5260   19.1090 C   0  0  0  0  0  0  0  0  0  0  0  0
    0.5410   16.5030   19.6960 N   0  0  0  0  0  0  0  0  0  0  0  0
   -0.9690   15.4850   18.1310 C   0  0  0  0  0  0  0  0  0  0  0  0
   -0.5050   14.1730   18.2980 C   0  0  0  0  0  0  0  0  0  0  0  0
   -0.8120   13.1860   17.3550 C   0  0  0  0  0  0  0  0  0  0  0  0
   -1.6200   13.4740   16.2540 C   0  0  0  0  0  0  0  0  0  0  0  0
   -1.8070   12.5240   15.2510 N   0  0  0  0  0  0  0  0  0  0  0  0
   -2.0420   14.7900   16.0630 C   0  0  0  0  0  0  0  0  0  0  0  0
   -1.7380   15.7850   16.9980 C   0  0  0  0  0  0  0  0  0  0  0  0
   -2.4090   17.4700   18.8880 H   0  0  0  0  0  0  0  0  0  0  0  0
   -1.3470   18.2020   20.0440 H   0  0  0  0  0  0  0  0  0  0  0  0
    0.8250   17.1930   20.3780 H   0  0  0  0  0  0  0  0  0  0  0  0
    1.1960   15.7570   19.4830 H   0  0  0  0  0  0  0  0  0  0  0  0
    0.1050   13.9174   19.1769 H   0  0  0  0  0  0  0  0  0  0  0  0
   -0.4113   12.1696   17.4831 H   0  0  0  0  0  0  0  0  0  0  0  0
   -1.4880   11.5860   15.4770 H   0  0  0  0  0  0  0  0  0  0  0  0
   -2.7290   12.5190   14.8240 H   0  0  0  0  0  0  0  0  0  0  0  0
   -2.6218   15.0487   15.1647 H   0  0  0  0  0  0  0  0  0  0  0  0
   -2.1050   16.8103   16.8431 H   0  0  0  0  0  0  0  0  0  0  0  0
  1  2  1  0
  2  3  2  0
  2  4  1  0
  4  5  2  0
  5  6  1  0
  6  7  2  0
  7  8  1  0
  7  9  1  0
  9 10  2  0
 10  4  1  0
  1 11  1  0
  1 12  1  0
  3 13  1  0
  3 14  1  0
  5 15  1  0
  6 16  1  0
  8 17  1  0
  8 18  1  0
  9 19  1  0
 10 20  1  0
M  CHG  1   3   1
M  END
>  <meeko>  (4) 
{"is_sidechain": [false], "free_energy": -5.825, "intermolecular_energy": -6.34, "internal_energy": -0.041}

$$$$
3gy4_ligand
     RDKit          3D

 20 20  0  0  0  0  0  0  0  0999 V2000
   -2.3700   17.5740   19.0390 N   0  0  0  0  0  0  0  0  0  0  0  0
   -2.6030   17.0260   17.8670 C   0  0  0  0  0  0  0  0  0  0  0  0
   -3.3830   17.6060   16.9810 N   0  0  0  0  0  0  0  0  0  0  0  0
   -1.9780   15.7400   17.5390 C   0  0  0  0  0  0  0  0  0  0  0  0
   -1.0390   15.1620   18.4040 C   0  0  0  0  0  0  0  0  0  0  0  0
   -0.4320   13.9430   18.0800 C   0  0  0  0  0  0  0  0  0  0  0  0
   -0.7790   13.2570   16.9160 C   0  0  0  0  0  0  0  0  0  0  0  0
   -0.0740   12.1170   16.5340 N   0  0  0  0  0  0  0  0  0  0  0  0
   -1.6780   13.8560   16.0320 C   0  0  0  0  0  0  0  0  0  0  0  0
   -2.2880   15.0750   16.3440 C   0  0  0  0  0  0  0  0  0  0  0  0
   -1.7880   17.0860   19.7150 H   0  0  0  0  0  0  0  0  0  0  0  0
   -2.7720   18.4570   19.3200 H   0  0  0  0  0  0  0  0  0  0  0  0
   -3.8380   18.4920   17.1510 H   0  0  0  0  0  0  0  0  0  0  0  0
   -3.5270   17.1700   16.0750 H   0  0  0  0  0  0  0  0  0  0  0  0
   -0.7772   15.6698   19.3440 H   0  0  0  0  0  0  0  0  0  0  0  0
    0.3290   13.5203   18.7524 H   0  0  0  0  0  0  0  0  0  0  0  0
    0.7050   12.2800   15.9030 H   0  0  0  0  0  0  0  0  0  0  0  0
    0.1760   11.4870   17.2910 H   0  0  0  0  0  0  0  0  0  0  0  0
   -1.9098   13.3623   15.0767 H   0  0  0  0  0  0  0  0  0  0  0  0
   -3.0162   15.5154   15.6470 H   0  0  0  0  0  0  0  0  0  0  0  0
  1  2  1  0
  2  3  2  0
  2  4  1  0
  4  5  2  0
  5  6  1  0
  6  7  2  0
  7  8  1  0
  7  9  1  0
  9 10  2  0
 10  4  1  0
  1 11  1  0
  1 12  1  0
  3 13  1  0
  3 14  1  0
  5 15  1  0
  6 16  1  0
  8 17  1  0
  8 18  1  0
  9 19  1  0
 10 20  1  0
M  CHG  1   3   1
M  END
>  <meeko>  (5) 
{"is_sidechain": [false], "free_energy": -5.038, "intermolecular_energy": -5.479, "internal_energy": -0.046}

$$$$
3gy4_ligand
     RDKit          3D

 20 20  0  0  0  0  0  0  0  0999 V2000
    8.6370   19.1000   12.3210 N   0  0  0  0  0  0  0  0  0  0  0  0
    8.0540   20.2790   12.2880 C   0  0  0  0  0  0  0  0  0  0  0  0
    8.6220   21.3090   11.7010 N   0  0  0  0  0  0  0  0  0  0  0  0
    6.7390   20.4460   12.9170 C   0  0  0  0  0  0  0  0  0  0  0  0
    6.4940   19.9440   14.2020 C   0  0  0  0  0  0  0  0  0  0  0  0
    5.2340   20.0910   14.7920 C   0  0  0  0  0  0  0  0  0  0  0  0
    4.2110   20.7760   14.1360 C   0  0  0  0  0  0  0  0  0  0  0  0
    2.9230   20.7990   14.6700 N   0  0  0  0  0  0  0  0  0  0  0  0
    4.4400   21.2330   12.8380 C   0  0  0  0  0  0  0  0  0  0  0  0
    5.6950   21.0890   12.2370 C   0  0  0  0  0  0  0  0  0  0  0  0
    8.1880   18.3310   12.8100 H   0  0  0  0  0  0  0  0  0  0  0  0
    9.5420   18.9260   11.9060 H   0  0  0  0  0  0  0  0  0  0  0  0
    9.5240   21.2530   11.2500 H   0  0  0  0  0  0  0  0  0  0  0  0
    8.1380   22.2020   11.6710 H   0  0  0  0  0  0  0  0  0  0  0  0
    7.2977   19.4309   14.7505 H   0  0  0  0  0  0  0  0  0  0  0  0
    5.0474   19.6605   15.7869 H   0  0  0  0  0  0  0  0  0  0  0  0
    2.8650   20.6320   15.6710 H   0  0  0  0  0  0  0  0  0  0  0  0
    2.3470   21.5840   14.3830 H   0  0  0  0  0  0  0  0  0  0  0  0
    3.6228   21.7130   12.2796 H   0  0  0  0  0  0  0  0  0  0  0  0
    5.8639   21.4830   11.2240 H   0  0  0  0  0  0  0  0  0  0  0  0
  1  2  1  0
  2  3  2  0
  2  4  1  0
  4  5  2  0
  5  6  1  0
  6  7  2  0
  7  8  1  0
  7  9  1  0
  9 10  2  0
 10  4  1  0
  1 11  1  0
  1 12  1  0
  3 13  1  0
  3 14  1  0
  5 15  1  0
  6 16  1  0
  8 17  1  0
  8 18  1  0
  9 19  1  0
 10 20  1  0
M  CHG  1   3   1
M  END
>  <meeko>  (6) 
{"is_sidechain": [false], "free_energy": -4.743, "intermolecular_energy": -5.166, "internal_energy": -0.038}

$$$$
3gy4_ligand
     RDKit          3D

 20 20  0  0  0  0  0  0  0  0999 V2000
    2.4500   22.3340   14.7590 N   0  0  0  0  0  0  0  0  0  0  0  0
    2.7300   21.1080   14.3730 C   0  0  0  0  0  0  0  0  0  0  0  0
    1.8110   20.1680   14.3550 N   0  0  0  0  0  0  0  0  0  0  0  0
    4.0970   20.7840   13.9510 C   0  0  0  0  0  0  0  0  0  0  0  0
    4.5420   21.1090   12.6630 C   0  0  0  0  0  0  0  0  0  0  0  0
    5.8410   20.7840   12.2580 C   0  0  0  0  0  0  0  0  0  0  0  0
    6.7330   20.1700   13.1390 C   0  0  0  0  0  0  0  0  0  0  0  0
    7.9760   19.7280   12.6870 N   0  0  0  0  0  0  0  0  0  0  0  0
    6.2740   19.8030   14.4040 C   0  0  0  0  0  0  0  0  0  0  0  0
    4.9760   20.1210   14.8180 C   0  0  0  0  0  0  0  0  0  0  0  0
    3.1880   23.0320   14.7930 H   0  0  0  0  0  0  0  0  0  0  0  0
    1.5270   22.6160   15.0600 H   0  0  0  0  0  0  0  0  0  0  0  0
    0.8530   20.3340   14.6320 H   0  0  0  0  0  0  0  0  0  0  0  0
    2.0500   19.2360   14.0310 H   0  0  0  0  0  0  0  0  0  0  0  0
    3.8651   21.6235   11.9651 H   0  0  0  0  0  0  0  0  0  0  0  0
    6.1637   21.0152   11.2321 H   0  0  0  0  0  0  0  0  0  0  0  0
    8.5840   19.3390   13.4010 H   0  0  0  0  0  0  0  0  0  0  0  0
    7.9530   19.1490   11.8520 H   0  0  0  0  0  0  0  0  0  0  0  0
    6.9419   19.2559   15.0856 H   0  0  0  0  0  0  0  0  0  0  0  0
    4.6433   19.8489   15.8305 H   0  0  0  0  0  0  0  0  0  0  0  0
  1  2  1  0
  2  3  2  0
  2  4  1  0
  4  5  2  0
  5  6  1  0
  6  7  2  0
  7  8  1  0
  7  9  1  0
  9 10  2  0
 10  4  1  0
  1 11  1  0
  1 12  1  0
  3 13  1  0
  3 14  1  0
  5 15  1  0
  6 16  1  0
  8 17  1  0
  8 18  1  0
  9 19  1  0
 10 20  1  0
M  CHG  1   3   1
M  END
>  <meeko>  (7) 
{"is_sidechain": [false], "free_energy": -4.414, "intermolecular_energy": -4.815, "internal_energy": -0.031}

$$$$
3gy4_ligand
     RDKit          3D

 20 20  0  0  0  0  0  0  0  0999 V2000
   -1.7890   13.0080   16.1070 N   0  0  0  0  0  0  0  0  0  0  0  0
   -1.5820   13.4980   17.3100 C   0  0  0  0  0  0  0  0  0  0  0  0
   -1.5940   12.7290   18.3760 N   0  0  0  0  0  0  0  0  0  0  0  0
   -1.3280   14.9350   17.4640 C   0  0  0  0  0  0  0  0  0  0  0  0
   -0.4830   15.4050   18.4790 C   0  0  0  0  0  0  0  0  0  0  0  0
   -0.2560   16.7770   18.6330 C   0  0  0  0  0  0  0  0  0  0  0  0
   -0.8280   17.7010   17.7580 C   0  0  0  0  0  0  0  0  0  0  0  0
   -0.7090   19.0690   18.0010 N   0  0  0  0  0  0  0  0  0  0  0  0
   -1.7080   17.2360   16.7790 C   0  0  0  0  0  0  0  0  0  0  0  0
   -1.9440   15.8670   16.6170 C   0  0  0  0  0  0  0  0  0  0  0  0
   -1.8050   13.6320   15.3050 H   0  0  0  0  0  0  0  0  0  0  0  0
   -1.9690   12.0280   15.9390 H   0  0  0  0  0  0  0  0  0  0  0  0
   -1.7610   11.7330   18.3300 H   0  0  0  0  0  0  0  0  0  0  0  0
   -1.4080   13.1310   19.2900 H   0  0  0  0  0  0  0  0  0  0  0  0
    0.0047   14.6907   19.1586 H   0  0  0  0  0  0  0  0  0  0  0  0
    0.3824   17.1321   19.4554 H   0  0  0  0  0  0  0  0  0  0  0  0
    0.1720   19.4850   17.7140 H   0  0  0  0  0  0  0  0  0  0  0  0
   -1.5050   19.6320   17.7170 H   0  0  0  0  0  0  0  0  0  0  0  0
   -2.2228   17.9562   16.1261 H   0  0  0  0  0  0  0  0  0  0  0  0
   -2.6174   15.5192   15.8197 H   0  0  0  0  0  0  0  0  0  0  0  0
  1  2  1  0
  2  3  2  0
  2  4  1  0
  4  5  2  0
  5  6  1  0
  6  7  2  0
  7  8  1  0
  7  9  1  0
  9 10  2  0
 10  4  1  0
  1 11  1  0
  1 12  1  0
  3 13  1  0
  3 14  1  0
  5 15  1  0
  6 16  1  0
  8 17  1  0
  8 18  1  0
  9 19  1  0
 10 20  1  0
M  CHG  1   3   1
M  END
>  <meeko>  (8) 
{"is_sidechain": [false], "free_energy": -4.373, "intermolecular_energy": -4.76, "internal_energy": -0.042}

$$$$
3gy4_ligand
     RDKit          3D

 20 20  0  0  0  0  0  0  0  0999 V2000
   -0.0090   14.2330   19.3090 N   0  0  0  0  0  0  0  0  0  0  0  0
   -1.0220   14.4300   18.4930 C   0  0  0  0  0  0  0  0  0  0  0  0
   -1.5450   13.4440   17.7970 N   0  0  0  0  0  0  0  0  0  0  0  0
   -1.5830   15.7790   18.3590 C   0  0  0  0  0  0  0  0  0  0  0  0
   -2.2850   16.1490   17.2040 C   0  0  0  0  0  0  0  0  0  0  0  0
   -2.8040   17.4410   17.0730 C   0  0  0  0  0  0  0  0  0  0  0  0
   -2.6750   18.3730   18.1030 C   0  0  0  0  0  0  0  0  0  0  0  0
   -3.0740   19.6950   17.9110 N   0  0  0  0  0  0  0  0  0  0  0  0
   -1.9350   18.0200   19.2320 C   0  0  0  0  0  0  0  0  0  0  0  0
   -1.4080   16.7310   19.3720 C   0  0  0  0  0  0  0  0  0  0  0  0
    0.3940   15.0200   19.8090 H   0  0  0  0  0  0  0  0  0  0  0  0
    0.4180   13.3270   19.4410 H   0  0  0  0  0  0  0  0  0  0  0  0
   -1.2010   12.4950   17.8500 H   0  0  0  0  0  0  0  0  0  0  0  0
   -2.3410   13.6210   17.1920 H   0  0  0  0  0  0  0  0  0  0  0  0
   -2.4288   15.4180   16.3947 H   0  0  0  0  0  0  0  0  0  0  0  0
   -3.3211   17.7263   16.1450 H   0  0  0  0  0  0  0  0  0  0  0  0
   -2.3980   20.3980   18.1940 H   0  0  0  0  0  0  0  0  0  0  0  0
   -3.4740   19.8990   17.0000 H   0  0  0  0  0  0  0  0  0  0  0  0
   -1.7634   18.7650   20.0229 H   0  0  0  0  0  0  0  0  0  0  0  0
   -0.8528   16.4636   20.2832 H   0  0  0  0  0  0  0  0  0  0  0  0
  1  2  1  0
  2  3  2  0
  2  4  1  0
  4  5  2  0
  5  6  1  0
  6  7  2  0
  7  8  1  0
  7  9  1  0
  9 10  2  0
 10  4  1  0
  1 11  1  0
  1 12  1  0
  3 13  1  0
  3 14  1  0
  5 15  1  0
  6 16  1  0
  8 17  1  0
  8 18  1  0
  9 19  1  0
 10 20  1  0
M  CHG  1   3   1
M  END
>  <meeko>  (9) 
{"is_sidechain": [false], "free_energy": -4.226, "intermolecular_energy": -4.598, "internal_energy": -0.044}

$$$$
