4j21_ligand
     RDKit          3D

 33 35  0  0  0  0  0  0  0  0999 V2000
  -12.3650    5.5390   14.5240 C   0  0  0  0  0  0  0  0  0  0  0  0
  -12.2320    4.1280   14.0330 C   0  0  0  0  0  0  0  0  0  0  0  0
  -12.2820    3.0890   14.8850 C   0  0  0  0  0  0  0  0  0  0  0  0
  -12.1520    1.6840   14.4320 C   0  0  0  0  0  0  0  0  0  0  0  0
  -12.2030    0.7580   15.2340 O   0  0  0  0  0  0  0  0  0  0  0  0
  -11.9770    1.4870   13.0940 N   0  0  0  0  0  0  0  0  0  0  0  0
  -11.9170    2.5280   12.1590 C   0  0  0  0  0  0  0  0  0  0  0  0
  -11.7360    2.2140   10.8080 C   0  0  0  0  0  0  0  0  0  0  0  0
  -11.6700    3.2310    9.8470 C   0  0  0  0  0  0  0  0  0  0  0  0
  -11.4880    2.9130    8.4230 C   0  0  0  0  0  0  0  0  0  0  0  0
  -10.3050    3.3110    7.7800 C   0  0  0  0  0  0  0  0  0  0  0  0
  -10.0910    3.0330    6.4250 C   0  0  0  0  0  0  0  0  0  0  0  0
  -11.0670    2.3870    5.6660 C   0  0  0  0  0  0  0  0  0  0  0  0
  -10.7960    2.0070    4.3480 N   0  0  0  0  0  0  0  0  0  0  0  0
  -12.2180    1.9320    6.3100 C   0  0  0  0  0  0  0  0  0  0  0  0
  -12.4400    2.2080    7.6660 C   0  0  0  0  0  0  0  0  0  0  0  0
  -13.9110    1.6220    8.3680 Cl  0  0  0  0  0  0  0  0  0  0  0  0
  -11.7960    4.5610   10.2730 C   0  0  0  0  0  0  0  0  0  0  0  0
  -11.9780    4.8720   11.6260 C   0  0  0  0  0  0  0  0  0  0  0  0
  -12.0420    3.8600   12.5900 C   0  0  0  0  0  0  0  0  0  0  0  0
  -12.3657    5.5459   15.6240 H   0  0  0  0  0  0  0  0  0  0  0  0
  -11.5193    6.1372   14.1541 H   0  0  0  0  0  0  0  0  0  0  0  0
  -13.3076    5.9687   14.1541 H   0  0  0  0  0  0  0  0  0  0  0  0
  -12.4246    3.2892   15.9572 H   0  0  0  0  0  0  0  0  0  0  0  0
  -11.8840    0.5250   12.7980 H   0  0  0  0  0  0  0  0  0  0  0  0
  -11.6450    1.1624   10.4984 H   0  0  0  0  0  0  0  0  0  0  0  0
   -9.5340    3.8499    8.3502 H   0  0  0  0  0  0  0  0  0  0  0  0
   -9.1420    3.3274    5.9530 H   0  0  0  0  0  0  0  0  0  0  0  0
  -11.2530    1.1470    4.0590 H   0  0  0  0  0  0  0  0  0  0  0  0
  -10.9120    2.7510    3.6670 H   0  0  0  0  0  0  0  0  0  0  0  0
  -12.9610    1.3490    5.7460 H   0  0  0  0  0  0  0  0  0  0  0  0
  -11.7511    5.3730    9.5323 H   0  0  0  0  0  0  0  0  0  0  0  0
  -12.0717    5.9237   11.9345 H   0  0  0  0  0  0  0  0  0  0  0  0
  1  2  1  0
  2  3  2  0
  3  4  1  0
  4  5  2  0
  4  6  1  0
  6  7  1  0
  7  8  2  0
  8  9  1  0
  9 10  1  0
 10 11  2  0
 11 12  1  0
 12 13  2  0
 13 14  1  0
 13 15  1  0
 15 16  2  0
 16 17  1  0
  9 18  2  0
 18 19  1  0
 19 20  2  0
 20  2  1  0
 20  7  1  0
 16 10  1  0
  1 21  1  0
  1 22  1  0
  1 23  1  0
  3 24  1  0
  6 25  1  0
  8 26  1  0
 11 27  1  0
 12 28  1  0
 14 29  1  0
 14 30  1  0
 15 31  1  0
 18 32  1  0
 19 33  1  0
M  END
>  <meeko>  (1) 
{"is_sidechain": [false], "free_energy": -11.909, "intermolecular_energy": -12.953, "internal_energy": -0.344}

$$$$
4j21_ligand
     RDKit          3D

 33 35  0  0  0  0  0  0  0  0999 V2000
  -10.5440    3.9950    6.1050 C   0  0  0  0  0  0  0  0  0  0  0  0
  -10.4860    2.7970    7.0070 C   0  0  0  0  0  0  0  0  0  0  0  0
  -10.0740    1.6020    6.5480 C   0  0  0  0  0  0  0  0  0  0  0  0
  -10.0060    0.4010    7.4130 C   0  0  0  0  0  0  0  0  0  0  0  0
   -9.6250   -0.6750    6.9650 O   0  0  0  0  0  0  0  0  0  0  0  0
  -10.3860    0.5620    8.7130 N   0  0  0  0  0  0  0  0  0  0  0  0
  -10.8230    1.7790    9.2470 C   0  0  0  0  0  0  0  0  0  0  0  0
  -11.1880    1.8340   10.5960 C   0  0  0  0  0  0  0  0  0  0  0  0
  -11.6320    3.0360   11.1630 C   0  0  0  0  0  0  0  0  0  0  0  0
  -12.0100    3.1070   12.5820 C   0  0  0  0  0  0  0  0  0  0  0  0
  -12.1620    1.9160   13.3100 C   0  0  0  0  0  0  0  0  0  0  0  0
  -12.5250    1.9360   14.6610 C   0  0  0  0  0  0  0  0  0  0  0  0
  -12.7860    3.1420   15.3120 C   0  0  0  0  0  0  0  0  0  0  0  0
  -13.0290    3.1600   16.6880 N   0  0  0  0  0  0  0  0  0  0  0  0
  -12.5780    4.3330   14.6150 C   0  0  0  0  0  0  0  0  0  0  0  0
  -12.2150    4.3210   13.2620 C   0  0  0  0  0  0  0  0  0  0  0  0
  -12.0050    5.8510   12.4790 Cl  0  0  0  0  0  0  0  0  0  0  0  0
  -11.6930    4.1750   10.3470 C   0  0  0  0  0  0  0  0  0  0  0  0
  -11.3270    4.1180    8.9970 C   0  0  0  0  0  0  0  0  0  0  0  0
  -10.8850    2.9180    8.4270 C   0  0  0  0  0  0  0  0  0  0  0  0
  -10.5883    4.9103    6.7135 H   0  0  0  0  0  0  0  0  0  0  0  0
   -9.6460    4.0198    5.4702 H   0  0  0  0  0  0  0  0  0  0  0  0
  -11.4402    3.9330    5.4702 H   0  0  0  0  0  0  0  0  0  0  0  0
   -9.7769    1.5130    5.4926 H   0  0  0  0  0  0  0  0  0  0  0  0
  -10.3410   -0.2670    9.2910 H   0  0  0  0  0  0  0  0  0  0  0  0
  -11.1261    0.9275   11.2161 H   0  0  0  0  0  0  0  0  0  0  0  0
  -11.9928    0.9511   12.8097 H   0  0  0  0  0  0  0  0  0  0  0  0
  -12.6055    0.9899   15.2163 H   0  0  0  0  0  0  0  0  0  0  0  0
  -12.7740    2.3030   17.1700 H   0  0  0  0  0  0  0  0  0  0  0  0
  -12.6780    3.9870   17.1630 H   0  0  0  0  0  0  0  0  0  0  0  0
  -12.7008    5.2944   15.1352 H   0  0  0  0  0  0  0  0  0  0  0  0
  -12.0342    5.1292   10.7750 H   0  0  0  0  0  0  0  0  0  0  0  0
  -11.3873    5.0252    8.3778 H   0  0  0  0  0  0  0  0  0  0  0  0
  1  2  1  0
  2  3  2  0
  3  4  1  0
  4  5  2  0
  4  6  1  0
  6  7  1  0
  7  8  2  0
  8  9  1  0
  9 10  1  0
 10 11  2  0
 11 12  1  0
 12 13  2  0
 13 14  1  0
 13 15  1  0
 15 16  2  0
 16 17  1  0
  9 18  2  0
 18 19  1  0
 19 20  2  0
 20  2  1  0
 20  7  1  0
 16 10  1  0
  1 21  1  0
  1 22  1  0
  1 23  1  0
  3 24  1  0
  6 25  1  0
  8 26  1  0
 11 27  1  0
 12 28  1  0
 14 29  1  0
 14 30  1  0
 15 31  1  0
 18 32  1  0
 19 33  1  0
M  END
>  <meeko>  (2) 
{"is_sidechain": [false], "free_energy": -10.464, "intermolecular_energy": -12.037, "internal_energy": 0.311}

$$$$
4j21_ligand
     RDKit          3D

 33 35  0  0  0  0  0  0  0  0999 V2000
  -12.3540    2.9020   15.3700 C   0  0  0  0  0  0  0  0  0  0  0  0
  -12.3050    3.9860   14.3340 C   0  0  0  0  0  0  0  0  0  0  0  0
  -12.4730    5.2760   14.6710 C   0  0  0  0  0  0  0  0  0  0  0  0
  -12.4320    6.3690   13.6720 C   0  0  0  0  0  0  0  0  0  0  0  0
  -12.5880    7.5370   14.0110 O   0  0  0  0  0  0  0  0  0  0  0  0
  -12.2130    6.0040   12.3750 N   0  0  0  0  0  0  0  0  0  0  0  0
  -12.0310    4.6780   11.9640 C   0  0  0  0  0  0  0  0  0  0  0  0
  -11.8120    4.4150   10.6090 C   0  0  0  0  0  0  0  0  0  0  0  0
  -11.6270    3.1000   10.1630 C   0  0  0  0  0  0  0  0  0  0  0  0
  -11.3880    2.8110    8.7410 C   0  0  0  0  0  0  0  0  0  0  0  0
  -10.2570    3.3580    8.1140 C   0  0  0  0  0  0  0  0  0  0  0  0
   -9.9920    3.1130    6.7610 C   0  0  0  0  0  0  0  0  0  0  0  0
  -10.8680    2.3510    5.9890 C   0  0  0  0  0  0  0  0  0  0  0  0
  -10.5340    2.0110    4.6750 N   0  0  0  0  0  0  0  0  0  0  0  0
  -11.9600    1.7510    6.6180 C   0  0  0  0  0  0  0  0  0  0  0  0
  -12.2320    1.9920    7.9710 C   0  0  0  0  0  0  0  0  0  0  0  0
  -13.6260    1.2220    8.6530 Cl  0  0  0  0  0  0  0  0  0  0  0  0
  -11.6620    2.0640   11.1080 C   0  0  0  0  0  0  0  0  0  0  0  0
  -11.8810    2.3310   12.4640 C   0  0  0  0  0  0  0  0  0  0  0  0
  -12.0680    3.6430   12.9140 C   0  0  0  0  0  0  0  0  0  0  0  0
  -12.3336    3.3525   16.3733 H   0  0  0  0  0  0  0  0  0  0  0  0
  -13.2794    2.3199   15.2481 H   0  0  0  0  0  0  0  0  0  0  0  0
  -11.4849    2.2388   15.2481 H   0  0  0  0  0  0  0  0  0  0  0  0
  -12.6473    5.5295   15.7271 H   0  0  0  0  0  0  0  0  0  0  0  0
  -12.1930    6.7590   11.7020 H   0  0  0  0  0  0  0  0  0  0  0  0
  -11.7847    5.2456    9.8883 H   0  0  0  0  0  0  0  0  0  0  0  0
   -9.5682    3.9890    8.6948 H   0  0  0  0  0  0  0  0  0  0  0  0
   -9.0820    3.5266    6.3018 H   0  0  0  0  0  0  0  0  0  0  0  0
  -10.2920    2.8030    4.0870 H   0  0  0  0  0  0  0  0  0  0  0  0
   -9.8600    1.2550    4.5980 H   0  0  0  0  0  0  0  0  0  0  0  0
  -12.6157    1.0800    6.0438 H   0  0  0  0  0  0  0  0  0  0  0  0
  -11.5149    1.0251   10.7778 H   0  0  0  0  0  0  0  0  0  0  0  0
  -11.9065    1.5002   13.1845 H   0  0  0  0  0  0  0  0  0  0  0  0
  1  2  1  0
  2  3  2  0
  3  4  1  0
  4  5  2  0
  4  6  1  0
  6  7  1  0
  7  8  2  0
  8  9  1  0
  9 10  1  0
 10 11  2  0
 11 12  1  0
 12 13  2  0
 13 14  1  0
 13 15  1  0
 15 16  2  0
 16 17  1  0
  9 18  2  0
 18 19  1  0
 19 20  2  0
 20  2  1  0
 20  7  1  0
 16 10  1  0
  1 21  1  0
  1 22  1  0
  1 23  1  0
  3 24  1  0
  6 25  1  0
  8 26  1  0
 11 27  1  0
 12 28  1  0
 14 29  1  0
 14 30  1  0
 15 31  1  0
 18 32  1  0
 19 33  1  0
M  END
>  <meeko>  (3) 
{"is_sidechain": [false], "free_energy": -10.335, "intermolecular_energy": -11.285, "internal_energy": -0.301}

$$$$
4j21_ligand
     RDKit          3D

 33 35  0  0  0  0  0  0  0  0999 V2000
  -10.7570    3.2390    5.6340 C   0  0  0  0  0  0  0  0  0  0  0  0
  -10.5590    2.3310    6.8120 C   0  0  0  0  0  0  0  0  0  0  0  0
  -10.0660    1.0900    6.6570 C   0  0  0  0  0  0  0  0  0  0  0  0
   -9.8600    0.1700    7.8000 C   0  0  0  0  0  0  0  0  0  0  0  0
   -9.4070   -0.9560    7.6260 O   0  0  0  0  0  0  0  0  0  0  0  0
  -10.1990    0.6420    9.0340 N   0  0  0  0  0  0  0  0  0  0  0  0
  -10.7160    1.9240    9.2580 C   0  0  0  0  0  0  0  0  0  0  0  0
  -11.0290    2.3080   10.5660 C   0  0  0  0  0  0  0  0  0  0  0  0
  -11.5500    3.5830   10.8240 C   0  0  0  0  0  0  0  0  0  0  0  0
  -11.8740    4.0010   12.1960 C   0  0  0  0  0  0  0  0  0  0  0  0
  -11.9770    5.3710   12.4870 C   0  0  0  0  0  0  0  0  0  0  0  0
  -12.2810    5.8140   13.7790 C   0  0  0  0  0  0  0  0  0  0  0  0
  -12.4490    4.9050   14.8240 C   0  0  0  0  0  0  0  0  0  0  0  0
  -12.8700    5.3490   16.0810 N   0  0  0  0  0  0  0  0  0  0  0  0
  -12.4110    3.5410   14.5330 C   0  0  0  0  0  0  0  0  0  0  0  0
  -12.1070    3.0900   13.2420 C   0  0  0  0  0  0  0  0  0  0  0  0
  -12.0600    1.3780   12.9870 Cl  0  0  0  0  0  0  0  0  0  0  0  0
  -11.7420    4.4570    9.7450 C   0  0  0  0  0  0  0  0  0  0  0  0
  -11.4270    4.0700    8.4370 C   0  0  0  0  0  0  0  0  0  0  0  0
  -10.9080    2.7960    8.1730 C   0  0  0  0  0  0  0  0  0  0  0  0
  -10.9789    4.2564    5.9885 H   0  0  0  0  0  0  0  0  0  0  0  0
   -9.8411    3.2545    5.0250 H   0  0  0  0  0  0  0  0  0  0  0  0
  -11.5962    2.8718    5.0250 H   0  0  0  0  0  0  0  0  0  0  0  0
   -9.8062    0.7452    5.6453 H   0  0  0  0  0  0  0  0  0  0  0  0
  -10.0590    0.0020    9.8050 H   0  0  0  0  0  0  0  0  0  0  0  0
  -10.8653    1.6055   11.3965 H   0  0  0  0  0  0  0  0  0  0  0  0
  -11.8161    6.1078   11.6862 H   0  0  0  0  0  0  0  0  0  0  0  0
  -12.3888    6.8914   13.9730 H   0  0  0  0  0  0  0  0  0  0  0  0
  -12.9420    4.6170   16.7810 H   0  0  0  0  0  0  0  0  0  0  0  0
  -12.3670    6.1620   16.4270 H   0  0  0  0  0  0  0  0  0  0  0  0
  -12.6225    2.8103   15.3276 H   0  0  0  0  0  0  0  0  0  0  0  0
  -12.1467    5.4632    9.9290 H   0  0  0  0  0  0  0  0  0  0  0  0
  -11.5888    4.7741    7.6075 H   0  0  0  0  0  0  0  0  0  0  0  0
  1  2  1  0
  2  3  2  0
  3  4  1  0
  4  5  2  0
  4  6  1  0
  6  7  1  0
  7  8  2  0
  8  9  1  0
  9 10  1  0
 10 11  2  0
 11 12  1  0
 12 13  2  0
 13 14  1  0
 13 15  1  0
 15 16  2  0
 16 17  1  0
  9 18  2  0
 18 19  1  0
 19 20  2  0
 20  2  1  0
 20  7  1  0
 16 10  1  0
  1 21  1  0
  1 22  1  0
  1 23  1  0
  3 24  1  0
  6 25  1  0
  8 26  1  0
 11 27  1  0
 12 28  1  0
 14 29  1  0
 14 30  1  0
 15 31  1  0
 18 32  1  0
 19 33  1  0
M  END
>  <meeko>  (4) 
{"is_sidechain": [false], "free_energy": -10.03, "intermolecular_energy": -11.481, "internal_energy": 0.227}

$$$$
4j21_ligand
     RDKit          3D

 33 35  0  0  0  0  0  0  0  0999 V2000
   -9.6140    2.3410    5.7860 C   0  0  0  0  0  0  0  0  0  0  0  0
  -10.9920    2.2110    6.3640 C   0  0  0  0  0  0  0  0  0  0  0  0
  -12.0550    1.9690    5.5770 C   0  0  0  0  0  0  0  0  0  0  0  0
  -13.4280    1.8370    6.1160 C   0  0  0  0  0  0  0  0  0  0  0  0
  -14.3770    1.6150    5.3720 O   0  0  0  0  0  0  0  0  0  0  0  0
  -13.5700    1.9730    7.4660 N   0  0  0  0  0  0  0  0  0  0  0  0
  -12.5020    2.2250    8.3360 C   0  0  0  0  0  0  0  0  0  0  0  0
  -12.7600    2.3450    9.7050 C   0  0  0  0  0  0  0  0  0  0  0  0
  -11.7150    2.5980   10.6030 C   0  0  0  0  0  0  0  0  0  0  0  0
  -11.9710    2.7190   12.0460 C   0  0  0  0  0  0  0  0  0  0  0  0
  -12.1070    1.5530   12.8160 C   0  0  0  0  0  0  0  0  0  0  0  0
  -12.3550    1.6210   14.1920 C   0  0  0  0  0  0  0  0  0  0  0  0
  -12.5170    2.8510   14.8280 C   0  0  0  0  0  0  0  0  0  0  0  0
  -12.6440    2.9120   16.2190 N   0  0  0  0  0  0  0  0  0  0  0  0
  -12.3230    4.0160   14.0850 C   0  0  0  0  0  0  0  0  0  0  0  0
  -12.0740    3.9560   12.7070 C   0  0  0  0  0  0  0  0  0  0  0  0
  -11.8720    5.4580   11.8680 Cl  0  0  0  0  0  0  0  0  0  0  0  0
  -10.4130    2.7210   10.0950 C   0  0  0  0  0  0  0  0  0  0  0  0
  -10.1590    2.5990    8.7240 C   0  0  0  0  0  0  0  0  0  0  0  0
  -11.2000    2.3480    7.8230 C   0  0  0  0  0  0  0  0  0  0  0  0
   -8.8793    2.4103    6.6017 H   0  0  0  0  0  0  0  0  0  0  0  0
   -9.3917    1.4598    5.1662 H   0  0  0  0  0  0  0  0  0  0  0  0
   -9.5604    3.2482    5.1662 H   0  0  0  0  0  0  0  0  0  0  0  0
  -11.8991    1.8653    4.4931 H   0  0  0  0  0  0  0  0  0  0  0  0
  -14.5130    1.8860    7.8220 H   0  0  0  0  0  0  0  0  0  0  0  0
  -13.7892    2.2402   10.0789 H   0  0  0  0  0  0  0  0  0  0  0  0
  -12.0172    0.5702   12.3302 H   0  0  0  0  0  0  0  0  0  0  0  0
  -12.4229    0.6929   14.7785 H   0  0  0  0  0  0  0  0  0  0  0  0
  -12.8930    2.0290   16.6560 H   0  0  0  0  0  0  0  0  0  0  0  0
  -11.8680    3.3680   16.6890 H   0  0  0  0  0  0  0  0  0  0  0  0
  -12.3660    4.9938   14.5870 H   0  0  0  0  0  0  0  0  0  0  0  0
   -9.5788    2.9164   10.7849 H   0  0  0  0  0  0  0  0  0  0  0  0
   -9.1295    2.7016    8.3505 H   0  0  0  0  0  0  0  0  0  0  0  0
  1  2  1  0
  2  3  2  0
  3  4  1  0
  4  5  2  0
  4  6  1  0
  6  7  1  0
  7  8  2  0
  8  9  1  0
  9 10  1  0
 10 11  2  0
 11 12  1  0
 12 13  2  0
 13 14  1  0
 13 15  1  0
 15 16  2  0
 16 17  1  0
  9 18  2  0
 18 19  1  0
 19 20  2  0
 20  2  1  0
 20  7  1  0
 16 10  1  0
  1 21  1  0
  1 22  1  0
  1 23  1  0
  3 24  1  0
  6 25  1  0
  8 26  1  0
 11 27  1  0
 12 28  1  0
 14 29  1  0
 14 30  1  0
 15 31  1  0
 18 32  1  0
 19 33  1  0
M  END
>  <meeko>  (5) 
{"is_sidechain": [false], "free_energy": -9.99, "intermolecular_energy": -10.737, "internal_energy": -0.474}

$$$$
4j21_ligand
     RDKit          3D

 33 35  0  0  0  0  0  0  0  0999 V2000
   -9.5580    2.0840    5.7350 C   0  0  0  0  0  0  0  0  0  0  0  0
  -10.9300    2.0900    6.3410 C   0  0  0  0  0  0  0  0  0  0  0  0
  -11.9990    1.6650    5.6440 C   0  0  0  0  0  0  0  0  0  0  0  0
  -13.3670    1.6600    6.2140 C   0  0  0  0  0  0  0  0  0  0  0  0
  -14.3210    1.2650    5.5530 O   0  0  0  0  0  0  0  0  0  0  0  0
  -13.4970    2.1120    7.4940 N   0  0  0  0  0  0  0  0  0  0  0  0
  -12.4230    2.5660    8.2690 C   0  0  0  0  0  0  0  0  0  0  0  0
  -12.6690    3.0070    9.5730 C   0  0  0  0  0  0  0  0  0  0  0  0
  -11.6170    3.4700   10.3750 C   0  0  0  0  0  0  0  0  0  0  0  0
  -11.8620    3.9280   11.7500 C   0  0  0  0  0  0  0  0  0  0  0  0
  -11.9430    5.3060   12.0070 C   0  0  0  0  0  0  0  0  0  0  0  0
  -12.1700    5.7870   13.3020 C   0  0  0  0  0  0  0  0  0  0  0  0
  -12.2820    4.9100   14.3800 C   0  0  0  0  0  0  0  0  0  0  0  0
  -12.6290    5.3910   15.6460 N   0  0  0  0  0  0  0  0  0  0  0  0
  -12.2660    3.5370   14.1260 C   0  0  0  0  0  0  0  0  0  0  0  0
  -12.0380    3.0490   12.8330 C   0  0  0  0  0  0  0  0  0  0  0  0
  -12.0110    1.3290   12.6250 Cl  0  0  0  0  0  0  0  0  0  0  0  0
  -10.3210    3.4720    9.8390 C   0  0  0  0  0  0  0  0  0  0  0  0
  -10.0780    3.0290    8.5330 C   0  0  0  0  0  0  0  0  0  0  0  0
  -11.1260    2.5680    7.7280 C   0  0  0  0  0  0  0  0  0  0  0  0
   -8.8036    2.0807    6.5355 H   0  0  0  0  0  0  0  0  0  0  0  0
   -9.4360    1.1853    5.1125 H   0  0  0  0  0  0  0  0  0  0  0  0
   -9.4282    2.9816    5.1125 H   0  0  0  0  0  0  0  0  0  0  0  0
  -11.8526    1.3083    4.6138 H   0  0  0  0  0  0  0  0  0  0  0  0
  -14.4370    2.1090    7.8700 H   0  0  0  0  0  0  0  0  0  0  0  0
  -13.6941    2.9904    9.9716 H   0  0  0  0  0  0  0  0  0  0  0  0
  -11.8262    6.0190   11.1776 H   0  0  0  0  0  0  0  0  0  0  0  0
  -12.2611    6.8701   13.4711 H   0  0  0  0  0  0  0  0  0  0  0  0
  -13.2720    4.7950   16.1580 H   0  0  0  0  0  0  0  0  0  0  0  0
  -11.8380    5.6810   16.2130 H   0  0  0  0  0  0  0  0  0  0  0  0
  -12.4345    2.8299   14.9516 H   0  0  0  0  0  0  0  0  0  0  0  0
   -9.4816    3.8274   10.4546 H   0  0  0  0  0  0  0  0  0  0  0  0
   -9.0524    3.0435    8.1355 H   0  0  0  0  0  0  0  0  0  0  0  0
  1  2  1  0
  2  3  2  0
  3  4  1  0
  4  5  2  0
  4  6  1  0
  6  7  1  0
  7  8  2  0
  8  9  1  0
  9 10  1  0
 10 11  2  0
 11 12  1  0
 12 13  2  0
 13 14  1  0
 13 15  1  0
 15 16  2  0
 16 17  1  0
  9 18  2  0
 18 19  1  0
 19 20  2  0
 20  2  1  0
 20  7  1  0
 16 10  1  0
  1 21  1  0
  1 22  1  0
  1 23  1  0
  3 24  1  0
  6 25  1  0
  8 26  1  0
 11 27  1  0
 12 28  1  0
 14 29  1  0
 14 30  1  0
 15 31  1  0
 18 32  1  0
 19 33  1  0
M  END
>  <meeko>  (6) 
{"is_sidechain": [false], "free_energy": -9.348, "intermolecular_energy": -10.049, "internal_energy": -0.463}

$$$$
4j21_ligand
     RDKit          3D

 33 35  0  0  0  0  0  0  0  0999 V2000
   -9.8800   -0.0210    6.7620 C   0  0  0  0  0  0  0  0  0  0  0  0
  -10.2190    1.4370    6.8650 C   0  0  0  0  0  0  0  0  0  0  0  0
  -10.1760    2.2380    5.7860 C   0  0  0  0  0  0  0  0  0  0  0  0
  -10.5040    3.6810    5.8550 C   0  0  0  0  0  0  0  0  0  0  0  0
  -10.4570    4.3850    4.8520 O   0  0  0  0  0  0  0  0  0  0  0  0
  -10.8570    4.1700    7.0780 N   0  0  0  0  0  0  0  0  0  0  0  0
  -10.9190    3.3860    8.2370 C   0  0  0  0  0  0  0  0  0  0  0  0
  -11.2940    3.9890    9.4420 C   0  0  0  0  0  0  0  0  0  0  0  0
  -11.3650    3.2350   10.6200 C   0  0  0  0  0  0  0  0  0  0  0  0
  -11.7650    3.8560   11.8910 C   0  0  0  0  0  0  0  0  0  0  0  0
  -11.8350    5.2560   11.9760 C   0  0  0  0  0  0  0  0  0  0  0  0
  -12.2080    5.8900   13.1660 C   0  0  0  0  0  0  0  0  0  0  0  0
  -12.4810    5.1470   14.3150 C   0  0  0  0  0  0  0  0  0  0  0  0
  -12.9690    5.7800   15.4620 N   0  0  0  0  0  0  0  0  0  0  0  0
  -12.4760    3.7540   14.2250 C   0  0  0  0  0  0  0  0  0  0  0  0
  -12.1030    3.1130   13.0360 C   0  0  0  0  0  0  0  0  0  0  0  0
  -12.1030    1.3810   13.0320 Cl  0  0  0  0  0  0  0  0  0  0  0  0
  -11.0580    1.8680   10.5570 C   0  0  0  0  0  0  0  0  0  0  0  0
  -10.6840    1.2670    9.3490 C   0  0  0  0  0  0  0  0  0  0  0  0
  -10.6100    2.0170    8.1690 C   0  0  0  0  0  0  0  0  0  0  0  0
   -9.7810   -0.4466    7.7715 H   0  0  0  0  0  0  0  0  0  0  0  0
  -10.6800   -0.5460    6.2195 H   0  0  0  0  0  0  0  0  0  0  0  0
   -8.9304   -0.1392    6.2195 H   0  0  0  0  0  0  0  0  0  0  0  0
   -9.8867    1.8061    4.8166 H   0  0  0  0  0  0  0  0  0  0  0  0
  -11.0730    5.1570    7.1140 H   0  0  0  0  0  0  0  0  0  0  0  0
  -11.5346    5.0621    9.4646 H   0  0  0  0  0  0  0  0  0  0  0  0
  -11.5925    5.8643   11.0921 H   0  0  0  0  0  0  0  0  0  0  0  0
  -12.2870    6.9867   13.1962 H   0  0  0  0  0  0  0  0  0  0  0  0
  -13.9770    5.9010   15.4770 H   0  0  0  0  0  0  0  0  0  0  0  0
  -12.6160    5.3940   16.3330 H   0  0  0  0  0  0  0  0  0  0  0  0
  -12.7684    3.1521   15.0981 H   0  0  0  0  0  0  0  0  0  0  0  0
  -11.1119    1.2584   11.4710 H   0  0  0  0  0  0  0  0  0  0  0  0
  -10.4456    0.1934    9.3267 H   0  0  0  0  0  0  0  0  0  0  0  0
  1  2  1  0
  2  3  2  0
  3  4  1  0
  4  5  2  0
  4  6  1  0
  6  7  1  0
  7  8  2  0
  8  9  1  0
  9 10  1  0
 10 11  2  0
 11 12  1  0
 12 13  2  0
 13 14  1  0
 13 15  1  0
 15 16  2  0
 16 17  1  0
  9 18  2  0
 18 19  1  0
 19 20  2  0
 20  2  1  0
 20  7  1  0
 16 10  1  0
  1 21  1  0
  1 22  1  0
  1 23  1  0
  3 24  1  0
  6 25  1  0
  8 26  1  0
 11 27  1  0
 12 28  1  0
 14 29  1  0
 14 30  1  0
 15 31  1  0
 18 32  1  0
 19 33  1  0
M  END
>  <meeko>  (7) 
{"is_sidechain": [false], "free_energy": -9.049, "intermolecular_energy": -10.499, "internal_energy": 0.312}

$$$$
