4ea2_ligand
     RDKit          3D

 64 66  0  0  0  0  0  0  0  0999 V2000
  -26.4520  -14.5590   -4.7710 C   0  0  0  0  0  0  0  0  0  0  0  0
  -26.1090  -13.1590   -4.3400 C   0  0  0  0  0  0  0  0  0  0  0  0
  -26.1510  -12.9400   -2.8480 C   0  0  0  0  0  0  0  0  0  0  0  0
  -25.6860  -12.1790   -5.1650 C   0  0  0  0  0  0  0  0  0  0  0  0
  -25.5170  -12.2720   -6.6600 C   0  0  0  0  0  0  0  0  0  0  0  0
  -24.2500  -13.0220   -7.1140 C   0  0  0  0  0  0  0  0  0  0  0  0
  -24.1930  -13.5400   -8.5430 C   0  0  0  0  0  0  0  0  0  0  0  0
  -25.5590  -13.7800   -9.1530 C   0  0  0  0  0  0  0  0  0  0  0  0
  -23.0880  -13.7460   -9.2880 C   0  0  0  0  0  0  0  0  0  0  0  0
  -21.6670  -13.5100   -8.9100 C   0  0  0  0  0  0  0  0  0  0  0  0
  -20.7460  -14.5170   -9.5440 N   0  0  0  0  0  0  0  0  0  0  0  0
  -19.7380  -15.1370   -8.6140 C   0  0  0  0  0  0  0  0  0  0  0  0
  -19.8330  -16.6870   -8.5630 C   0  0  0  0  0  0  0  0  0  0  0  0
  -21.2130  -17.2450   -8.8100 N   0  0  0  0  0  0  0  0  0  0  0  0
  -21.8430  -18.1880   -7.8200 C   0  0  2  0  0  0  0  0  0  0  0  0
  -23.2970  -18.4970   -8.2420 C   0  0  1  0  0  0  0  0  0  0  0  0
  -23.8480  -19.5780   -7.2890 C   0  0  0  0  0  0  0  0  0  0  0  0
  -23.8290  -19.0640   -5.8360 C   0  0  2  0  0  0  0  0  0  0  0  0
  -24.7080  -17.8050   -5.7370 C   0  0  0  0  0  0  0  0  0  0  0  0
  -24.1710  -16.7140   -6.6800 C   0  0  2  0  0  0  0  0  0  0  0  0
  -24.1920  -17.2460   -8.1240 C   0  0  0  0  0  0  0  0  0  0  0  0
  -22.7270  -16.3680   -6.2770 C   0  0  0  0  0  0  0  0  0  0  0  0
  -21.8310  -17.6160   -6.3880 C   0  0  1  0  0  0  0  0  0  0  0  0
  -22.3860  -18.7000   -5.4400 C   0  0  0  0  0  0  0  0  0  0  0  0
  -26.6063  -15.1888   -3.8824 H   0  0  0  0  0  0  0  0  0  0  0  0
  -27.3726  -14.5422   -5.3729 H   0  0  0  0  0  0  0  0  0  0  0  0
  -25.6279  -14.9696   -5.3729 H   0  0  0  0  0  0  0  0  0  0  0  0
  -25.9680  -13.8941   -2.3321 H   0  0  0  0  0  0  0  0  0  0  0  0
  -25.3757  -12.2139   -2.5620 H   0  0  0  0  0  0  0  0  0  0  0  0
  -27.1399  -12.5523   -2.5620 H   0  0  0  0  0  0  0  0  0  0  0  0
  -25.4392  -11.2135   -4.6992 H   0  0  0  0  0  0  0  0  0  0  0  0
  -26.3923  -12.7948   -7.0729 H   0  0  0  0  0  0  0  0  0  0  0  0
  -25.4190  -11.2403   -7.0287 H   0  0  0  0  0  0  0  0  0  0  0  0
  -23.4003  -12.3360   -6.9819 H   0  0  0  0  0  0  0  0  0  0  0  0
  -24.2353  -13.9309   -6.4945 H   0  0  0  0  0  0  0  0  0  0  0  0
  -26.3008  -13.9103   -8.3513 H   0  0  0  0  0  0  0  0  0  0  0  0
  -25.8394  -12.9174   -9.7753 H   0  0  0  0  0  0  0  0  0  0  0  0
  -25.5285  -14.6865   -9.7753 H   0  0  0  0  0  0  0  0  0  0  0  0
  -23.2575  -14.1374  -10.3019 H   0  0  0  0  0  0  0  0  0  0  0  0
  -21.3736  -12.5022   -9.2391 H   0  0  0  0  0  0  0  0  0  0  0  0
  -21.5825  -13.6092   -7.8177 H   0  0  0  0  0  0  0  0  0  0  0  0
  -21.3440  -15.1970  -10.0250 H   0  0  0  0  0  0  0  0  0  0  0  0
  -20.2570  -13.9910  -10.2880 H   0  0  0  0  0  0  0  0  0  0  0  0
  -18.7296  -14.8585   -8.9538 H   0  0  0  0  0  0  0  0  0  0  0  0
  -19.9484  -14.7607   -7.6020 H   0  0  0  0  0  0  0  0  0  0  0  0
  -19.1564  -17.0966   -9.3275 H   0  0  0  0  0  0  0  0  0  0  0  0
  -19.5592  -16.9804   -7.5388 H   0  0  0  0  0  0  0  0  0  0  0  0
  -21.2480  -17.6880   -9.7440 H   0  0  0  0  0  0  0  0  0  0  0  0
  -21.8440  -16.4340   -8.9260 H   0  0  0  0  0  0  0  0  0  0  0  0
  -21.2464  -19.1122   -7.8176 H   0  0  0  0  0  0  0  0  0  0  0  0
  -23.3010  -18.8329   -9.2894 H   0  0  0  0  0  0  0  0  0  0  0  0
  -24.8818  -19.8221   -7.5749 H   0  0  0  0  0  0  0  0  0  0  0  0
  -23.2172  -20.4763   -7.3610 H   0  0  0  0  0  0  0  0  0  0  0  0
  -24.2119  -19.8453   -5.1630 H   0  0  0  0  0  0  0  0  0  0  0  0
  -25.7399  -18.0576   -6.0222 H   0  0  0  0  0  0  0  0  0  0  0  0
  -24.6883  -17.4307   -4.7028 H   0  0  0  0  0  0  0  0  0  0  0  0
  -24.7970  -15.8121   -6.6110 H   0  0  0  0  0  0  0  0  0  0  0  0
  -25.2238  -17.5097   -8.3995 H   0  0  0  0  0  0  0  0  0  0  0  0
  -23.8113  -16.4663   -8.8001 H   0  0  0  0  0  0  0  0  0  0  0  0
  -22.3415  -15.5832   -6.9444 H   0  0  0  0  0  0  0  0  0  0  0  0
  -22.7200  -16.0121   -5.2362 H   0  0  0  0  0  0  0  0  0  0  0  0
  -20.8017  -17.3306   -6.1252 H   0  0  0  0  0  0  0  0  0  0  0  0
  -21.7538  -19.5979   -5.5049 H   0  0  0  0  0  0  0  0  0  0  0  0
  -22.3830  -18.3125   -4.4105 H   0  0  0  0  0  0  0  0  0  0  0  0
  1  2  1  0
  2  3  1  0
  2  4  2  3
  4  5  1  0
  5  6  1  0
  6  7  1  0
  7  8  1  0
  7  9  2  0
  9 10  1  0
 10 11  1  0
 11 12  1  0
 12 13  1  0
 13 14  1  0
 14 15  1  0
 15 16  1  0
 16 17  1  0
 17 18  1  0
 18 19  1  0
 19 20  1  0
 20 21  1  0
 20 22  1  0
 22 23  1  0
 23 24  1  0
 23 15  1  0
 21 16  1  0
 24 18  1  0
  1 25  1  0
  1 26  1  0
  1 27  1  0
  3 28  1  0
  3 29  1  0
  3 30  1  0
  4 31  1  0
  5 32  1  0
  5 33  1  0
  6 34  1  0
  6 35  1  0
  8 36  1  0
  8 37  1  0
  8 38  1  0
  9 39  1  0
 10 40  1  0
 10 41  1  0
 11 42  1  0
 11 43  1  0
 12 44  1  0
 12 45  1  0
 13 46  1  0
 13 47  1  0
 14 48  1  0
 14 49  1  0
 15 50  1  6
 16 51  1  1
 17 52  1  0
 17 53  1  0
 18 54  1  6
 19 55  1  0
 19 56  1  0
 20 57  1  1
 21 58  1  0
 21 59  1  0
 22 60  1  0
 22 61  1  0
 23 62  1  6
 24 63  1  0
 24 64  1  0
M  CHG  2  11   1  14   1
M  END
>  <meeko>  (1) 
{"is_sidechain": [false], "free_energy": -8.618, "intermolecular_energy": -13.152, "internal_energy": -2.036}

$$$$
4ea2_ligand
     RDKit          3D

 64 66  0  0  0  0  0  0  0  0999 V2000
  -25.5570  -11.6070   -5.7470 C   0  0  0  0  0  0  0  0  0  0  0  0
  -25.3590  -12.9040   -5.0110 C   0  0  0  0  0  0  0  0  0  0  0  0
  -25.7860  -12.8690   -3.5640 C   0  0  0  0  0  0  0  0  0  0  0  0
  -24.9440  -14.0570   -5.5750 C   0  0  0  0  0  0  0  0  0  0  0  0
  -24.5610  -14.2650   -7.0180 C   0  0  0  0  0  0  0  0  0  0  0  0
  -23.0420  -14.2980   -7.2770 C   0  0  0  0  0  0  0  0  0  0  0  0
  -22.5500  -14.0850   -8.7000 C   0  0  0  0  0  0  0  0  0  0  0  0
  -23.5810  -13.4450   -9.6070 C   0  0  0  0  0  0  0  0  0  0  0  0
  -21.3200  -14.3580   -9.1830 C   0  0  0  0  0  0  0  0  0  0  0  0
  -20.1500  -14.9170   -8.4520 C   0  0  0  0  0  0  0  0  0  0  0  0
  -19.4730  -16.0100   -9.2350 N   0  0  0  0  0  0  0  0  0  0  0  0
  -19.0130  -17.1900   -8.4220 C   0  0  0  0  0  0  0  0  0  0  0  0
  -19.5100  -18.5480   -8.9880 C   0  0  0  0  0  0  0  0  0  0  0  0
  -20.3600  -19.3570   -8.0390 N   0  0  0  0  0  0  0  0  0  0  0  0
  -21.8610  -19.2820   -8.1050 C   0  0  2  0  0  0  0  0  0  0  0  0
  -22.3300  -17.8480   -7.7650 C   0  0  1  0  0  0  0  0  0  0  0  0
  -23.8550  -17.7830   -7.9920 C   0  0  0  0  0  0  0  0  0  0  0  0
  -24.5720  -18.7920   -7.0750 C   0  0  2  0  0  0  0  0  0  0  0  0
  -24.2620  -18.4470   -5.6070 C   0  0  0  0  0  0  0  0  0  0  0  0
  -22.7440  -18.5110   -5.3630 C   0  0  2  0  0  0  0  0  0  0  0  0
  -22.0450  -17.5010   -6.2890 C   0  0  0  0  0  0  0  0  0  0  0  0
  -22.2440  -19.9320   -5.6740 C   0  0  0  0  0  0  0  0  0  0  0  0
  -22.5330  -20.2860   -7.1460 C   0  0  1  0  0  0  0  0  0  0  0  0
  -24.0570  -20.2120   -7.3750 C   0  0  0  0  0  0  0  0  0  0  0  0
  -25.6818  -10.7893   -5.0219 H   0  0  0  0  0  0  0  0  0  0  0  0
  -24.6791  -11.4061   -6.3786 H   0  0  0  0  0  0  0  0  0  0  0  0
  -26.4548  -11.6772   -6.3786 H   0  0  0  0  0  0  0  0  0  0  0  0
  -24.8987  -12.9417   -2.9180 H   0  0  0  0  0  0  0  0  0  0  0  0
  -26.3119  -11.9247   -3.3596 H   0  0  0  0  0  0  0  0  0  0  0  0
  -26.4587  -13.7150   -3.3596 H   0  0  0  0  0  0  0  0  0  0  0  0
  -24.8784  -14.9345   -4.9149 H   0  0  0  0  0  0  0  0  0  0  0  0
  -24.9875  -15.2223   -7.3523 H   0  0  0  0  0  0  0  0  0  0  0  0
  -24.9548  -13.4015   -7.5741 H   0  0  0  0  0  0  0  0  0  0  0  0
  -22.5880  -13.5131   -6.6542 H   0  0  0  0  0  0  0  0  0  0  0  0
  -22.7477  -15.3309   -7.0391 H   0  0  0  0  0  0  0  0  0  0  0  0
  -24.3580  -12.9626   -8.9958 H   0  0  0  0  0  0  0  0  0  0  0  0
  -23.0931  -12.6908  -10.2419 H   0  0  0  0  0  0  0  0  0  0  0  0
  -24.0405  -14.2169  -10.2419 H   0  0  0  0  0  0  0  0  0  0  0  0
  -21.1623  -14.1404  -10.2497 H   0  0  0  0  0  0  0  0  0  0  0  0
  -19.4259  -14.1096   -8.2681 H   0  0  0  0  0  0  0  0  0  0  0  0
  -20.5109  -15.3468   -7.5059 H   0  0  0  0  0  0  0  0  0  0  0  0
  -20.1080  -16.2540  -10.0030 H   0  0  0  0  0  0  0  0  0  0  0  0
  -18.6580  -15.5500   -9.6750 H   0  0  0  0  0  0  0  0  0  0  0  0
  -17.9131  -17.1980   -8.4071 H   0  0  0  0  0  0  0  0  0  0  0  0
  -19.4367  -17.0794   -7.4129 H   0  0  0  0  0  0  0  0  0  0  0  0
  -20.1041  -18.3452   -9.8913 H   0  0  0  0  0  0  0  0  0  0  0  0
  -18.6100  -19.1487   -9.1858 H   0  0  0  0  0  0  0  0  0  0  0  0
  -20.0700  -19.1660   -7.0640 H   0  0  0  0  0  0  0  0  0  0  0  0
  -20.0820  -20.3460   -8.1620 H   0  0  0  0  0  0  0  0  0  0  0  0
  -22.1608  -19.5442   -9.1304 H   0  0  0  0  0  0  0  0  0  0  0  0
  -21.7888  -17.1338   -8.4030 H   0  0  0  0  0  0  0  0  0  0  0  0
  -24.2132  -16.7679   -7.7658 H   0  0  0  0  0  0  0  0  0  0  0  0
  -24.0731  -18.0327   -9.0408 H   0  0  0  0  0  0  0  0  0  0  0  0
  -25.6567  -18.7454   -7.2521 H   0  0  0  0  0  0  0  0  0  0  0  0
  -24.6243  -17.4321   -5.3866 H   0  0  0  0  0  0  0  0  0  0  0  0
  -24.7651  -19.1723   -4.9506 H   0  0  0  0  0  0  0  0  0  0  0  0
  -22.5186  -18.2653   -4.3147 H   0  0  0  0  0  0  0  0  0  0  0  0
  -22.4210  -16.4899   -6.0740 H   0  0  0  0  0  0  0  0  0  0  0  0
  -20.9600  -17.5427   -6.1128 H   0  0  0  0  0  0  0  0  0  0  0  0
  -21.1601  -19.9837   -5.4936 H   0  0  0  0  0  0  0  0  0  0  0  0
  -22.7669  -20.6478   -5.0227 H   0  0  0  0  0  0  0  0  0  0  0  0
  -22.1377  -21.2927   -7.3465 H   0  0  0  0  0  0  0  0  0  0  0  0
  -24.2798  -20.4656   -8.4219 H   0  0  0  0  0  0  0  0  0  0  0  0
  -24.5560  -20.9243   -6.7015 H   0  0  0  0  0  0  0  0  0  0  0  0
  1  2  1  0
  2  3  1  0
  2  4  2  3
  4  5  1  0
  5  6  1  0
  6  7  1  0
  7  8  1  0
  7  9  2  0
  9 10  1  0
 10 11  1  0
 11 12  1  0
 12 13  1  0
 13 14  1  0
 14 15  1  0
 15 16  1  0
 16 17  1  0
 17 18  1  0
 18 19  1  0
 19 20  1  0
 20 21  1  0
 20 22  1  0
 22 23  1  0
 23 24  1  0
 23 15  1  0
 21 16  1  0
 24 18  1  0
  1 25  1  0
  1 26  1  0
  1 27  1  0
  3 28  1  0
  3 29  1  0
  3 30  1  0
  4 31  1  0
  5 32  1  0
  5 33  1  0
  6 34  1  0
  6 35  1  0
  8 36  1  0
  8 37  1  0
  8 38  1  0
  9 39  1  0
 10 40  1  0
 10 41  1  0
 11 42  1  0
 11 43  1  0
 12 44  1  0
 12 45  1  0
 13 46  1  0
 13 47  1  0
 14 48  1  0
 14 49  1  0
 15 50  1  1
 16 51  1  1
 17 52  1  0
 17 53  1  0
 18 54  1  6
 19 55  1  0
 19 56  1  0
 20 57  1  6
 21 58  1  0
 21 59  1  0
 22 60  1  0
 22 61  1  0
 23 62  1  1
 24 63  1  0
 24 64  1  0
M  CHG  2  11   1  14   1
M  END
>  <meeko>  (2) 
{"is_sidechain": [false], "free_energy": -8.551, "intermolecular_energy": -13.313, "internal_energy": -1.773}

$$$$
4ea2_ligand
     RDKit          3D

 64 66  0  0  0  0  0  0  0  0999 V2000
  -27.4760  -12.0350   -7.6660 C   0  0  0  0  0  0  0  0  0  0  0  0
  -26.5680  -11.5080   -6.5880 C   0  0  0  0  0  0  0  0  0  0  0  0
  -26.8660  -10.0910   -6.1640 C   0  0  0  0  0  0  0  0  0  0  0  0
  -25.6280  -12.2320   -5.9470 C   0  0  0  0  0  0  0  0  0  0  0  0
  -25.2730  -13.6740   -6.2040 C   0  0  0  0  0  0  0  0  0  0  0  0
  -23.9120  -13.8840   -6.8940 C   0  0  0  0  0  0  0  0  0  0  0  0
  -23.8990  -14.1850   -8.3850 C   0  0  0  0  0  0  0  0  0  0  0  0
  -25.2650  -14.5220   -8.9460 C   0  0  0  0  0  0  0  0  0  0  0  0
  -22.8360  -14.1300   -9.2140 C   0  0  0  0  0  0  0  0  0  0  0  0
  -21.4330  -13.7550   -8.8870 C   0  0  0  0  0  0  0  0  0  0  0  0
  -20.4600  -14.8340   -9.2810 N   0  0  0  0  0  0  0  0  0  0  0  0
  -19.6350  -15.3960   -8.1550 C   0  0  0  0  0  0  0  0  0  0  0  0
  -20.3100  -15.2280   -6.7660 C   0  0  0  0  0  0  0  0  0  0  0  0
  -21.0180  -16.4590   -6.2540 N   0  0  0  0  0  0  0  0  0  0  0  0
  -22.2300  -16.9940   -6.9660 C   0  0  2  0  0  0  0  0  0  0  0  0
  -23.2390  -17.5560   -5.9380 C   0  0  1  0  0  0  0  0  0  0  0  0
  -24.5200  -17.9520   -6.6990 C   0  0  0  0  0  0  0  0  0  0  0  0
  -24.2000  -19.0320   -7.7510 C   0  0  2  0  0  0  0  0  0  0  0  0
  -23.6280  -20.2720   -7.0420 C   0  0  0  0  0  0  0  0  0  0  0  0
  -22.3460  -19.8940   -6.2800 C   0  0  2  0  0  0  0  0  0  0  0  0
  -22.6820  -18.8130   -5.2380 C   0  0  0  0  0  0  0  0  0  0  0  0
  -21.3100  -19.3470   -7.2770 C   0  0  0  0  0  0  0  0  0  0  0  0
  -21.8640  -18.0950   -7.9840 C   0  0  1  0  0  0  0  0  0  0  0  0
  -23.1510  -18.4890   -8.7380 C   0  0  0  0  0  0  0  0  0  0  0  0
  -28.3398  -12.5364   -7.2051 H   0  0  0  0  0  0  0  0  0  0  0  0
  -27.8268  -11.2002   -8.2905 H   0  0  0  0  0  0  0  0  0  0  0  0
  -26.9251  -12.7537   -8.2905 H   0  0  0  0  0  0  0  0  0  0  0  0
  -26.8784  -10.0318   -5.0657 H   0  0  0  0  0  0  0  0  0  0  0  0
  -26.0895   -9.4192   -6.5586 H   0  0  0  0  0  0  0  0  0  0  0  0
  -27.8473   -9.7889   -6.5586 H   0  0  0  0  0  0  0  0  0  0  0  0
  -25.0627  -11.7176   -5.1559 H   0  0  0  0  0  0  0  0  0  0  0  0
  -25.2533  -14.2003   -5.2383 H   0  0  0  0  0  0  0  0  0  0  0  0
  -26.0363  -14.0660   -6.8923 H   0  0  0  0  0  0  0  0  0  0  0  0
  -23.3245  -12.9666   -6.7417 H   0  0  0  0  0  0  0  0  0  0  0  0
  -23.5094  -14.7960   -6.4291 H   0  0  0  0  0  0  0  0  0  0  0  0
  -25.9686  -14.6956   -8.1185 H   0  0  0  0  0  0  0  0  0  0  0  0
  -25.6243  -13.6856   -9.5635 H   0  0  0  0  0  0  0  0  0  0  0  0
  -25.1941  -15.4296   -9.5635 H   0  0  0  0  0  0  0  0  0  0  0  0
  -23.0305  -14.3957  -10.2636 H   0  0  0  0  0  0  0  0  0  0  0  0
  -21.1768  -12.8305   -9.4253 H   0  0  0  0  0  0  0  0  0  0  0  0
  -21.3621  -13.6112   -7.7987 H   0  0  0  0  0  0  0  0  0  0  0  0
  -20.9990  -15.5380   -9.7960 H   0  0  0  0  0  0  0  0  0  0  0  0
  -19.8410  -14.3850   -9.9770 H   0  0  0  0  0  0  0  0  0  0  0  0
  -19.4745  -16.4685   -8.3394 H   0  0  0  0  0  0  0  0  0  0  0  0
  -18.6877  -14.8375   -8.1304 H   0  0  0  0  0  0  0  0  0  0  0  0
  -19.5322  -14.9529   -6.0384 H   0  0  0  0  0  0  0  0  0  0  0  0
  -21.0825  -14.4545   -6.8883 H   0  0  0  0  0  0  0  0  0  0  0  0
  -21.2610  -16.3300   -5.2560 H   0  0  0  0  0  0  0  0  0  0  0  0
  -20.3110  -17.2120   -6.2130 H   0  0  0  0  0  0  0  0  0  0  0  0
  -22.6823  -16.1586   -7.5206 H   0  0  0  0  0  0  0  0  0  0  0  0
  -23.4369  -16.7890   -5.1747 H   0  0  0  0  0  0  0  0  0  0  0  0
  -25.2591  -18.3464   -5.9862 H   0  0  0  0  0  0  0  0  0  0  0  0
  -24.9255  -17.0644   -7.2068 H   0  0  0  0  0  0  0  0  0  0  0  0
  -25.1172  -19.3005   -8.2956 H   0  0  0  0  0  0  0  0  0  0  0  0
  -24.3724  -20.6624   -6.3325 H   0  0  0  0  0  0  0  0  0  0  0  0
  -23.3904  -21.0409   -7.7919 H   0  0  0  0  0  0  0  0  0  0  0  0
  -21.9342  -20.7787   -5.7724 H   0  0  0  0  0  0  0  0  0  0  0  0
  -23.4356  -19.2038   -4.5385 H   0  0  0  0  0  0  0  0  0  0  0  0
  -21.7666  -18.5441   -4.6905 H   0  0  0  0  0  0  0  0  0  0  0  0
  -20.3895  -19.0819   -6.7362 H   0  0  0  0  0  0  0  0  0  0  0  0
  -21.0930  -20.1189   -8.0300 H   0  0  0  0  0  0  0  0  0  0  0  0
  -21.0921  -17.7104   -8.6668 H   0  0  0  0  0  0  0  0  0  0  0  0
  -23.5575  -17.6043   -9.2500 H   0  0  0  0  0  0  0  0  0  0  0  0
  -22.9111  -19.2712   -9.4733 H   0  0  0  0  0  0  0  0  0  0  0  0
  1  2  1  0
  2  3  1  0
  2  4  2  3
  4  5  1  0
  5  6  1  0
  6  7  1  0
  7  8  1  0
  7  9  2  0
  9 10  1  0
 10 11  1  0
 11 12  1  0
 12 13  1  0
 13 14  1  0
 14 15  1  0
 15 16  1  0
 16 17  1  0
 17 18  1  0
 18 19  1  0
 19 20  1  0
 20 21  1  0
 20 22  1  0
 22 23  1  0
 23 24  1  0
 23 15  1  0
 21 16  1  0
 24 18  1  0
  1 25  1  0
  1 26  1  0
  1 27  1  0
  3 28  1  0
  3 29  1  0
  3 30  1  0
  4 31  1  0
  5 32  1  0
  5 33  1  0
  6 34  1  0
  6 35  1  0
  8 36  1  0
  8 37  1  0
  8 38  1  0
  9 39  1  0
 10 40  1  0
 10 41  1  0
 11 42  1  0
 11 43  1  0
 12 44  1  0
 12 45  1  0
 13 46  1  0
 13 47  1  0
 14 48  1  0
 14 49  1  0
 15 50  1  1
 16 51  1  6
 17 52  1  0
 17 53  1  0
 18 54  1  1
 19 55  1  0
 19 56  1  0
 20 57  1  6
 21 58  1  0
 21 59  1  0
 22 60  1  0
 22 61  1  0
 23 62  1  1
 24 63  1  0
 24 64  1  0
M  CHG  2  11   1  14   1
M  END
>  <meeko>  (3) 
{"is_sidechain": [false], "free_energy": -8.19, "intermolecular_energy": -12.748, "internal_energy": -1.787}

$$$$
4ea2_ligand
     RDKit          3D

 64 66  0  0  0  0  0  0  0  0999 V2000
  -25.3640  -11.6920   -5.8530 C   0  0  0  0  0  0  0  0  0  0  0  0
  -25.4340  -13.0470   -5.2010 C   0  0  0  0  0  0  0  0  0  0  0  0
  -26.1950  -13.0700   -3.8980 C   0  0  0  0  0  0  0  0  0  0  0  0
  -24.9710  -14.1910   -5.7440 C   0  0  0  0  0  0  0  0  0  0  0  0
  -24.2640  -14.3370   -7.0670 C   0  0  0  0  0  0  0  0  0  0  0  0
  -22.7410  -14.5410   -6.9590 C   0  0  0  0  0  0  0  0  0  0  0  0
  -21.9260  -14.5710   -8.2430 C   0  0  0  0  0  0  0  0  0  0  0  0
  -22.7120  -14.1540   -9.4690 C   0  0  0  0  0  0  0  0  0  0  0  0
  -20.6170  -14.8740   -8.3660 C   0  0  0  0  0  0  0  0  0  0  0  0
  -19.6530  -15.2380   -7.2910 C   0  0  0  0  0  0  0  0  0  0  0  0
  -18.6220  -16.2220   -7.7760 N   0  0  0  0  0  0  0  0  0  0  0  0
  -19.0850  -17.1520   -8.8640 C   0  0  0  0  0  0  0  0  0  0  0  0
  -18.9200  -18.6510   -8.4920 C   0  0  0  0  0  0  0  0  0  0  0  0
  -20.0650  -19.2360   -7.7000 N   0  0  0  0  0  0  0  0  0  0  0  0
  -21.3450  -18.4650   -7.5260 C   0  0  2  0  0  0  0  0  0  0  0  0
  -22.0210  -18.8630   -6.1940 C   0  0  1  0  0  0  0  0  0  0  0  0
  -23.2430  -17.9440   -5.9890 C   0  0  0  0  0  0  0  0  0  0  0  0
  -24.2410  -18.1210   -7.1490 C   0  0  2  0  0  0  0  0  0  0  0  0
  -24.7110  -19.5860   -7.1890 C   0  0  0  0  0  0  0  0  0  0  0  0
  -23.5050  -20.5170   -7.3970 C   0  0  2  0  0  0  0  0  0  0  0  0
  -22.5160  -20.3240   -6.2340 C   0  0  0  0  0  0  0  0  0  0  0  0
  -22.8160  -20.1600   -8.7260 C   0  0  0  0  0  0  0  0  0  0  0  0
  -22.3260  -18.7000   -8.6940 C   0  0  1  0  0  0  0  0  0  0  0  0
  -23.5460  -17.7800   -8.4800 C   0  0  0  0  0  0  0  0  0  0  0  0
  -25.3238  -10.9134   -5.0770 H   0  0  0  0  0  0  0  0  0  0  0  0
  -24.4616  -11.6326   -6.4792 H   0  0  0  0  0  0  0  0  0  0  0  0
  -26.2555  -11.5399   -6.4792 H   0  0  0  0  0  0  0  0  0  0  0  0
  -25.4849  -13.0485   -3.0582 H   0  0  0  0  0  0  0  0  0  0  0  0
  -26.8545  -12.1914   -3.8430 H   0  0  0  0  0  0  0  0  0  0  0  0
  -26.8003  -13.9868   -3.8430 H   0  0  0  0  0  0  0  0  0  0  0  0
  -25.1250  -15.1117   -5.1620 H   0  0  0  0  0  0  0  0  0  0  0  0
  -24.6906  -15.2054   -7.5904 H   0  0  0  0  0  0  0  0  0  0  0  0
  -24.4151  -13.3913   -7.6082 H   0  0  0  0  0  0  0  0  0  0  0  0
  -22.3454  -13.7216   -6.3409 H   0  0  0  0  0  0  0  0  0  0  0  0
  -22.6309  -15.5534   -6.5431 H   0  0  0  0  0  0  0  0  0  0  0  0
  -23.6437  -13.6597   -9.1566 H   0  0  0  0  0  0  0  0  0  0  0  0
  -22.1106  -13.4563  -10.0703 H   0  0  0  0  0  0  0  0  0  0  0  0
  -22.9524  -15.0432  -10.0703 H   0  0  0  0  0  0  0  0  0  0  0  0
  -20.2112  -14.8490   -9.3881 H   0  0  0  0  0  0  0  0  0  0  0  0
  -19.1418  -14.3267   -6.9473 H   0  0  0  0  0  0  0  0  0  0  0  0
  -20.2158  -15.7079   -6.4710 H   0  0  0  0  0  0  0  0  0  0  0  0
  -17.7890  -15.6750   -8.0200 H   0  0  0  0  0  0  0  0  0  0  0  0
  -18.3670  -16.7670   -6.9350 H   0  0  0  0  0  0  0  0  0  0  0  0
  -20.1487  -16.9555   -9.0640 H   0  0  0  0  0  0  0  0  0  0  0  0
  -18.4589  -16.9616   -9.7482 H   0  0  0  0  0  0  0  0  0  0  0  0
  -18.8196  -19.2260   -9.4243 H   0  0  0  0  0  0  0  0  0  0  0  0
  -18.0320  -18.7141   -7.8458 H   0  0  0  0  0  0  0  0  0  0  0  0
  -19.7310  -19.5210   -6.7640 H   0  0  0  0  0  0  0  0  0  0  0  0
  -20.2940  -20.1440   -8.1380 H   0  0  0  0  0  0  0  0  0  0  0  0
  -21.0875  -17.3956   -7.5135 H   0  0  0  0  0  0  0  0  0  0  0  0
  -21.2904  -18.7618   -5.3779 H   0  0  0  0  0  0  0  0  0  0  0  0
  -23.7376  -18.2029   -5.0412 H   0  0  0  0  0  0  0  0  0  0  0  0
  -22.9051  -16.8975   -5.9621 H   0  0  0  0  0  0  0  0  0  0  0  0
  -25.1023  -17.4532   -7.0000 H   0  0  0  0  0  0  0  0  0  0  0  0
  -25.2055  -19.8365   -6.2389 H   0  0  0  0  0  0  0  0  0  0  0  0
  -25.4176  -19.7171   -8.0218 H   0  0  0  0  0  0  0  0  0  0  0  0
  -23.8381  -21.5649   -7.4269 H   0  0  0  0  0  0  0  0  0  0  0  0
  -23.0189  -20.5636   -5.2855 H   0  0  0  0  0  0  0  0  0  0  0  0
  -21.6542  -20.9917   -6.3805 H   0  0  0  0  0  0  0  0  0  0  0  0
  -21.9565  -20.8287   -8.8811 H   0  0  0  0  0  0  0  0  0  0  0  0
  -23.5369  -20.2794   -9.5482 H   0  0  0  0  0  0  0  0  0  0  0  0
  -21.8128  -18.4839   -9.6427 H   0  0  0  0  0  0  0  0  0  0  0  0
  -23.2117  -16.7323   -8.4575 H   0  0  0  0  0  0  0  0  0  0  0  0
  -24.2576  -17.9291   -9.3054 H   0  0  0  0  0  0  0  0  0  0  0  0
  1  2  1  0
  2  3  1  0
  2  4  2  3
  4  5  1  0
  5  6  1  0
  6  7  1  0
  7  8  1  0
  7  9  2  0
  9 10  1  0
 10 11  1  0
 11 12  1  0
 12 13  1  0
 13 14  1  0
 14 15  1  0
 15 16  1  0
 16 17  1  0
 17 18  1  0
 18 19  1  0
 19 20  1  0
 20 21  1  0
 20 22  1  0
 22 23  1  0
 23 24  1  0
 23 15  1  0
 21 16  1  0
 24 18  1  0
  1 25  1  0
  1 26  1  0
  1 27  1  0
  3 28  1  0
  3 29  1  0
  3 30  1  0
  4 31  1  0
  5 32  1  0
  5 33  1  0
  6 34  1  0
  6 35  1  0
  8 36  1  0
  8 37  1  0
  8 38  1  0
  9 39  1  0
 10 40  1  0
 10 41  1  0
 11 42  1  0
 11 43  1  0
 12 44  1  0
 12 45  1  0
 13 46  1  0
 13 47  1  0
 14 48  1  0
 14 49  1  0
 15 50  1  6
 16 51  1  6
 17 52  1  0
 17 53  1  0
 18 54  1  6
 19 55  1  0
 19 56  1  0
 20 57  1  1
 21 58  1  0
 21 59  1  0
 22 60  1  0
 22 61  1  0
 23 62  1  1
 24 63  1  0
 24 64  1  0
M  CHG  2  11   1  14   1
M  END
>  <meeko>  (4) 
{"is_sidechain": [false], "free_energy": -8.142, "intermolecular_energy": -12.528, "internal_energy": -1.933}

$$$$
4ea2_ligand
     RDKit          3D

 64 66  0  0  0  0  0  0  0  0999 V2000
  -27.2450  -13.2800   -2.5000 C   0  0  0  0  0  0  0  0  0  0  0  0
  -26.9040  -14.1360   -3.6900 C   0  0  0  0  0  0  0  0  0  0  0  0
  -27.6190  -15.4640   -3.7240 C   0  0  0  0  0  0  0  0  0  0  0  0
  -26.1210  -13.7530   -4.7190 C   0  0  0  0  0  0  0  0  0  0  0  0
  -25.4080  -12.4330   -4.8630 C   0  0  0  0  0  0  0  0  0  0  0  0
  -25.3050  -11.9170   -6.3110 C   0  0  0  0  0  0  0  0  0  0  0  0
  -26.5370  -12.0110   -7.1980 C   0  0  0  0  0  0  0  0  0  0  0  0
  -27.6330  -11.0380   -6.8160 C   0  0  0  0  0  0  0  0  0  0  0  0
  -26.7040  -12.8120   -8.2710 C   0  0  0  0  0  0  0  0  0  0  0  0
  -25.7370  -13.7810   -8.8550 C   0  0  0  0  0  0  0  0  0  0  0  0
  -24.6360  -13.0850   -9.6100 N   0  0  0  0  0  0  0  0  0  0  0  0
  -23.2410  -13.3990   -9.1420 C   0  0  0  0  0  0  0  0  0  0  0  0
  -22.5670  -14.5330   -9.9630 C   0  0  0  0  0  0  0  0  0  0  0  0
  -22.2330  -15.7740   -9.1710 N   0  0  0  0  0  0  0  0  0  0  0  0
  -23.3090  -16.5150   -8.4240 C   0  0  2  0  0  0  0  0  0  0  0  0
  -23.3970  -15.9900   -6.9730 C   0  0  1  0  0  0  0  0  0  0  0  0
  -24.6050  -16.6680   -6.2950 C   0  0  0  0  0  0  0  0  0  0  0  0
  -24.4150  -18.1980   -6.2810 C   0  0  2  0  0  0  0  0  0  0  0  0
  -23.1360  -18.5380   -5.4950 C   0  0  0  0  0  0  0  0  0  0  0  0
  -21.9200  -17.8710   -6.1600 C   0  0  2  0  0  0  0  0  0  0  0  0
  -22.1280  -16.3470   -6.1710 C   0  0  0  0  0  0  0  0  0  0  0  0
  -21.7910  -18.3860   -7.6040 C   0  0  0  0  0  0  0  0  0  0  0  0
  -23.0580  -18.0370   -8.4070 C   0  0  1  0  0  0  0  0  0  0  0  0
  -24.2680  -18.7090   -7.7250 C   0  0  0  0  0  0  0  0  0  0  0  0
  -27.0246  -13.8332   -1.5752 H   0  0  0  0  0  0  0  0  0  0  0  0
  -26.6454  -12.3582   -2.5275 H   0  0  0  0  0  0  0  0  0  0  0  0
  -28.3142  -13.0229   -2.5275 H   0  0  0  0  0  0  0  0  0  0  0  0
  -27.8039  -15.8073   -2.6954 H   0  0  0  0  0  0  0  0  0  0  0  0
  -28.5780  -15.3507   -4.2507 H   0  0  0  0  0  0  0  0  0  0  0  0
  -26.9964  -16.2023   -4.2507 H   0  0  0  0  0  0  0  0  0  0  0  0
  -25.9893  -14.4775   -5.5362 H   0  0  0  0  0  0  0  0  0  0  0  0
  -25.9505  -11.6829   -4.2688 H   0  0  0  0  0  0  0  0  0  0  0  0
  -24.3773  -12.5946   -4.5145 H   0  0  0  0  0  0  0  0  0  0  0  0
  -25.0208  -10.8556   -6.2593 H   0  0  0  0  0  0  0  0  0  0  0  0
  -24.5749  -12.5877   -6.7875 H   0  0  0  0  0  0  0  0  0  0  0  0
  -27.7027  -10.9761   -5.7200 H   0  0  0  0  0  0  0  0  0  0  0  0
  -27.3999  -10.0440   -7.2253 H   0  0  0  0  0  0  0  0  0  0  0  0
  -28.5924  -11.3873   -7.2253 H   0  0  0  0  0  0  0  0  0  0  0  0
  -27.6775  -12.7397   -8.7780 H   0  0  0  0  0  0  0  0  0  0  0  0
  -25.2920  -14.3738   -8.0423 H   0  0  0  0  0  0  0  0  0  0  0  0
  -26.2819  -14.4250   -9.5609 H   0  0  0  0  0  0  0  0  0  0  0  0
  -24.7980  -13.2780  -10.6040 H   0  0  0  0  0  0  0  0  0  0  0  0
  -24.8290  -12.0770   -9.4810 H   0  0  0  0  0  0  0  0  0  0  0  0
  -22.6282  -12.4898   -9.2310 H   0  0  0  0  0  0  0  0  0  0  0  0
  -23.3130  -13.7447   -8.1002 H   0  0  0  0  0  0  0  0  0  0  0  0
  -23.2501  -14.8194  -10.7762 H   0  0  0  0  0  0  0  0  0  0  0  0
  -21.6098  -14.1281  -10.3233 H   0  0  0  0  0  0  0  0  0  0  0  0
  -21.4650  -15.5690   -8.5100 H   0  0  0  0  0  0  0  0  0  0  0  0
  -21.7870  -16.4340   -9.8300 H   0  0  0  0  0  0  0  0  0  0  0  0
  -24.2590  -16.3361   -8.9489 H   0  0  0  0  0  0  0  0  0  0  0  0
  -23.5011  -14.8952   -6.9953 H   0  0  0  0  0  0  0  0  0  0  0  0
  -24.6941  -16.3030   -5.2612 H   0  0  0  0  0  0  0  0  0  0  0  0
  -25.5178  -16.4237   -6.8582 H   0  0  0  0  0  0  0  0  0  0  0  0
  -25.2860  -18.6744   -5.8073 H   0  0  0  0  0  0  0  0  0  0  0  0
  -23.2340  -18.1712   -4.4626 H   0  0  0  0  0  0  0  0  0  0  0  0
  -22.9931  -19.6287   -5.4901 H   0  0  0  0  0  0  0  0  0  0  0  0
  -21.0038  -18.1130   -5.6014 H   0  0  0  0  0  0  0  0  0  0  0  0
  -22.2380  -15.9875   -5.1372 H   0  0  0  0  0  0  0  0  0  0  0  0
  -21.2574  -15.8686   -6.6435 H   0  0  0  0  0  0  0  0  0  0  0  0
  -20.9177  -17.9168   -8.0807 H   0  0  0  0  0  0  0  0  0  0  0  0
  -21.6664  -19.4788   -7.5861 H   0  0  0  0  0  0  0  0  0  0  0  0
  -22.9232  -18.3891   -9.4404 H   0  0  0  0  0  0  0  0  0  0  0  0
  -25.1817  -18.4712   -8.2895 H   0  0  0  0  0  0  0  0  0  0  0  0
  -24.1109  -19.7976   -7.7065 H   0  0  0  0  0  0  0  0  0  0  0  0
  1  2  1  0
  2  3  1  0
  2  4  2  3
  4  5  1  0
  5  6  1  0
  6  7  1  0
  7  8  1  0
  7  9  2  0
  9 10  1  0
 10 11  1  0
 11 12  1  0
 12 13  1  0
 13 14  1  0
 14 15  1  0
 15 16  1  0
 16 17  1  0
 17 18  1  0
 18 19  1  0
 19 20  1  0
 20 21  1  0
 20 22  1  0
 22 23  1  0
 23 24  1  0
 23 15  1  0
 21 16  1  0
 24 18  1  0
  1 25  1  0
  1 26  1  0
  1 27  1  0
  3 28  1  0
  3 29  1  0
  3 30  1  0
  4 31  1  0
  5 32  1  0
  5 33  1  0
  6 34  1  0
  6 35  1  0
  8 36  1  0
  8 37  1  0
  8 38  1  0
  9 39  1  0
 10 40  1  0
 10 41  1  0
 11 42  1  0
 11 43  1  0
 12 44  1  0
 12 45  1  0
 13 46  1  0
 13 47  1  0
 14 48  1  0
 14 49  1  0
 15 50  1  1
 16 51  1  1
 17 52  1  0
 17 53  1  0
 18 54  1  6
 19 55  1  0
 19 56  1  0
 20 57  1  6
 21 58  1  0
 21 59  1  0
 22 60  1  0
 22 61  1  0
 23 62  1  1
 24 63  1  0
 24 64  1  0
M  CHG  2  11   1  14   1
M  END
>  <meeko>  (5) 
{"is_sidechain": [false], "free_energy": -7.868, "intermolecular_energy": -12.544, "internal_energy": -1.498}

$$$$
4ea2_ligand
     RDKit          3D

 64 66  0  0  0  0  0  0  0  0999 V2000
  -26.8850  -13.1230   -2.8630 C   0  0  0  0  0  0  0  0  0  0  0  0
  -26.7190  -14.1970   -3.9040 C   0  0  0  0  0  0  0  0  0  0  0  0
  -27.6270  -15.3880   -3.7180 C   0  0  0  0  0  0  0  0  0  0  0  0
  -25.9250  -14.1050   -4.9900 C   0  0  0  0  0  0  0  0  0  0  0  0
  -25.0270  -12.9490   -5.3510 C   0  0  0  0  0  0  0  0  0  0  0  0
  -25.5480  -12.0710   -6.5050 C   0  0  0  0  0  0  0  0  0  0  0  0
  -25.7790  -12.7240   -7.8590 C   0  0  0  0  0  0  0  0  0  0  0  0
  -27.2350  -12.7540   -8.2750 C   0  0  0  0  0  0  0  0  0  0  0  0
  -24.8400  -13.2090   -8.6970 C   0  0  0  0  0  0  0  0  0  0  0  0
  -23.3620  -13.2150   -8.5160 C   0  0  0  0  0  0  0  0  0  0  0  0
  -22.6630  -13.9040   -9.6580 N   0  0  0  0  0  0  0  0  0  0  0  0
  -21.3850  -14.6100   -9.2940 C   0  0  0  0  0  0  0  0  0  0  0  0
  -21.2120  -14.8000   -7.7620 C   0  0  0  0  0  0  0  0  0  0  0  0
  -21.0480  -16.2330   -7.3160 N   0  0  0  0  0  0  0  0  0  0  0  0
  -22.0710  -16.8760   -6.4190 C   0  0  2  0  0  0  0  0  0  0  0  0
  -21.7880  -18.3910   -6.3000 C   0  0  1  0  0  0  0  0  0  0  0  0
  -22.7640  -18.9750   -5.2580 C   0  0  0  0  0  0  0  0  0  0  0  0
  -24.2190  -18.7560   -5.7130 C   0  0  2  0  0  0  0  0  0  0  0  0
  -24.4360  -19.4620   -7.0630 C   0  0  0  0  0  0  0  0  0  0  0  0
  -23.4720  -18.8880   -8.1160 C   0  0  2  0  0  0  0  0  0  0  0  0
  -22.0250  -19.1110   -7.6430 C   0  0  0  0  0  0  0  0  0  0  0  0
  -23.7380  -17.3810   -8.2740 C   0  0  0  0  0  0  0  0  0  0  0  0
  -23.5090  -16.6580   -6.9330 C   0  0  1  0  0  0  0  0  0  0  0  0
  -24.4800  -17.2480   -5.8880 C   0  0  0  0  0  0  0  0  0  0  0  0
  -26.8159  -13.5703   -1.8604 H   0  0  0  0  0  0  0  0  0  0  0  0
  -26.0926  -12.3696   -2.9838 H   0  0  0  0  0  0  0  0  0  0  0  0
  -27.8678  -12.6440   -2.9838 H   0  0  0  0  0  0  0  0  0  0  0  0
  -27.7701  -15.5757   -2.6436 H   0  0  0  0  0  0  0  0  0  0  0  0
  -28.6006  -15.1837   -4.1874 H   0  0  0  0  0  0  0  0  0  0  0  0
  -27.1721  -16.2727   -4.1874 H   0  0  0  0  0  0  0  0  0  0  0  0
  -25.9333  -14.9597   -5.6824 H   0  0  0  0  0  0  0  0  0  0  0  0
  -24.9110  -12.3131   -4.4609 H   0  0  0  0  0  0  0  0  0  0  0  0
  -24.0777  -13.3858   -5.6944 H   0  0  0  0  0  0  0  0  0  0  0  0
  -26.5085  -11.6436   -6.1813 H   0  0  0  0  0  0  0  0  0  0  0  0
  -24.7370  -11.3501   -6.6856 H   0  0  0  0  0  0  0  0  0  0  0  0
  -27.8723  -12.7671   -7.3785 H   0  0  0  0  0  0  0  0  0  0  0  0
  -27.4636  -11.8604   -8.8743 H   0  0  0  0  0  0  0  0  0  0  0  0
  -27.4266  -13.6563   -8.8743 H   0  0  0  0  0  0  0  0  0  0  0  0
  -25.2125  -13.6558   -9.6306 H   0  0  0  0  0  0  0  0  0  0  0  0
  -23.0062  -12.1759   -8.4553 H   0  0  0  0  0  0  0  0  0  0  0  0
  -23.1323  -13.7654   -7.5917 H   0  0  0  0  0  0  0  0  0  0  0  0
  -23.3610  -14.5080  -10.1050 H   0  0  0  0  0  0  0  0  0  0  0  0
  -22.4640  -13.1490  -10.3350 H   0  0  0  0  0  0  0  0  0  0  0  0
  -21.3831  -15.6005   -9.7725 H   0  0  0  0  0  0  0  0  0  0  0  0
  -20.5515  -13.9833   -9.6442 H   0  0  0  0  0  0  0  0  0  0  0  0
  -20.3199  -14.2392   -7.4463 H   0  0  0  0  0  0  0  0  0  0  0  0
  -22.1405  -14.4358   -7.2981 H   0  0  0  0  0  0  0  0  0  0  0  0
  -20.1160  -16.3590   -6.8840 H   0  0  0  0  0  0  0  0  0  0  0  0
  -20.9710  -16.8040   -8.1750 H   0  0  0  0  0  0  0  0  0  0  0  0
  -21.9906  -16.3990   -5.4311 H   0  0  0  0  0  0  0  0  0  0  0  0
  -20.7383  -18.5367   -6.0051 H   0  0  0  0  0  0  0  0  0  0  0  0
  -22.5759  -20.0532   -5.1477 H   0  0  0  0  0  0  0  0  0  0  0  0
  -22.6081  -18.4669   -4.2949 H   0  0  0  0  0  0  0  0  0  0  0  0
  -24.9068  -19.1659   -4.9588 H   0  0  0  0  0  0  0  0  0  0  0  0
  -24.2479  -20.5394   -6.9454 H   0  0  0  0  0  0  0  0  0  0  0  0
  -25.4722  -19.2990   -7.3941 H   0  0  0  0  0  0  0  0  0  0  0  0
  -23.6254  -19.3899   -9.0827 H   0  0  0  0  0  0  0  0  0  0  0  0
  -21.8466  -20.1888   -7.5141 H   0  0  0  0  0  0  0  0  0  0  0  0
  -21.3340  -18.7039   -8.3959 H   0  0  0  0  0  0  0  0  0  0  0  0
  -23.0545  -16.9686   -9.0308 H   0  0  0  0  0  0  0  0  0  0  0  0
  -24.7811  -17.2313   -8.5895 H   0  0  0  0  0  0  0  0  0  0  0  0
  -23.6766  -15.5814   -7.0845 H   0  0  0  0  0  0  0  0  0  0  0  0
  -24.3304  -16.7389   -4.9245 H   0  0  0  0  0  0  0  0  0  0  0  0
  -25.5137  -17.0998   -6.2338 H   0  0  0  0  0  0  0  0  0  0  0  0
  1  2  1  0
  2  3  1  0
  2  4  2  3
  4  5  1  0
  5  6  1  0
  6  7  1  0
  7  8  1  0
  7  9  2  0
  9 10  1  0
 10 11  1  0
 11 12  1  0
 12 13  1  0
 13 14  1  0
 14 15  1  0
 15 16  1  0
 16 17  1  0
 17 18  1  0
 18 19  1  0
 19 20  1  0
 20 21  1  0
 20 22  1  0
 22 23  1  0
 23 24  1  0
 23 15  1  0
 21 16  1  0
 24 18  1  0
  1 25  1  0
  1 26  1  0
  1 27  1  0
  3 28  1  0
  3 29  1  0
  3 30  1  0
  4 31  1  0
  5 32  1  0
  5 33  1  0
  6 34  1  0
  6 35  1  0
  8 36  1  0
  8 37  1  0
  8 38  1  0
  9 39  1  0
 10 40  1  0
 10 41  1  0
 11 42  1  0
 11 43  1  0
 12 44  1  0
 12 45  1  0
 13 46  1  0
 13 47  1  0
 14 48  1  0
 14 49  1  0
 15 50  1  6
 16 51  1  6
 17 52  1  0
 17 53  1  0
 18 54  1  6
 19 55  1  0
 19 56  1  0
 20 57  1  1
 21 58  1  0
 21 59  1  0
 22 60  1  0
 22 61  1  0
 23 62  1  1
 24 63  1  0
 24 64  1  0
M  CHG  2  11   1  14   1
M  END
>  <meeko>  (6) 
{"is_sidechain": [false], "free_energy": -7.799, "intermolecular_energy": -12.299, "internal_energy": -1.638}

$$$$
4ea2_ligand
     RDKit          3D

 64 66  0  0  0  0  0  0  0  0999 V2000
  -21.6560  -20.0110   -5.6590 C   0  0  0  0  0  0  0  0  0  0  0  0
  -23.1120  -19.7230   -5.9040 C   0  0  0  0  0  0  0  0  0  0  0  0
  -23.8210  -19.0750   -4.7400 C   0  0  0  0  0  0  0  0  0  0  0  0
  -23.7500  -19.9070   -7.0780 C   0  0  0  0  0  0  0  0  0  0  0  0
  -23.1560  -20.4670   -8.3450 C   0  0  0  0  0  0  0  0  0  0  0  0
  -22.3330  -19.4560   -9.1670 C   0  0  0  0  0  0  0  0  0  0  0  0
  -20.9680  -19.8880   -9.6810 C   0  0  0  0  0  0  0  0  0  0  0  0
  -21.0370  -20.9260  -10.7820 C   0  0  0  0  0  0  0  0  0  0  0  0
  -19.7670  -19.4110   -9.2920 C   0  0  0  0  0  0  0  0  0  0  0  0
  -19.4800  -18.3510   -8.2870 C   0  0  0  0  0  0  0  0  0  0  0  0
  -19.8230  -16.9810   -8.8070 N   0  0  0  0  0  0  0  0  0  0  0  0
  -19.3880  -15.8360   -7.9330 C   0  0  0  0  0  0  0  0  0  0  0  0
  -20.0480  -15.8620   -6.5270 C   0  0  0  0  0  0  0  0  0  0  0  0
  -21.5440  -16.0680   -6.5330 N   0  0  0  0  0  0  0  0  0  0  0  0
  -22.4730  -14.9050   -6.7530 C   0  0  2  0  0  0  0  0  0  0  0  0
  -23.9030  -15.2830   -6.3050 C   0  0  1  0  0  0  0  0  0  0  0  0
  -24.7820  -14.0190   -6.4070 C   0  0  0  0  0  0  0  0  0  0  0  0
  -24.8140  -13.5120   -7.8620 C   0  0  2  0  0  0  0  0  0  0  0  0
  -25.4000  -14.6120   -8.7650 C   0  0  0  0  0  0  0  0  0  0  0  0
  -24.5330  -15.8790   -8.6770 C   0  0  2  0  0  0  0  0  0  0  0  0
  -24.5070  -16.3690   -7.2190 C   0  0  0  0  0  0  0  0  0  0  0  0
  -23.1030  -15.5440   -9.1350 C   0  0  0  0  0  0  0  0  0  0  0  0
  -22.4970  -14.4550   -8.2290 C   0  0  1  0  0  0  0  0  0  0  0  0
  -23.3810  -13.1930   -8.3250 C   0  0  0  0  0  0  0  0  0  0  0  0
  -21.4668  -20.0484   -4.5760 H   0  0  0  0  0  0  0  0  0  0  0  0
  -21.3925  -20.9787   -6.1109 H   0  0  0  0  0  0  0  0  0  0  0  0
  -21.0440  -19.2165   -6.1109 H   0  0  0  0  0  0  0  0  0  0  0  0
  -23.4028  -19.4572   -3.7971 H   0  0  0  0  0  0  0  0  0  0  0  0
  -23.6826  -17.9848   -4.7872 H   0  0  0  0  0  0  0  0  0  0  0  0
  -24.8944  -19.3107   -4.7872 H   0  0  0  0  0  0  0  0  0  0  0  0
  -24.8111  -19.6193   -7.1145 H   0  0  0  0  0  0  0  0  0  0  0  0
  -22.4981  -21.3060   -8.0743 H   0  0  0  0  0  0  0  0  0  0  0  0
  -24.0019  -20.7705   -8.9793 H   0  0  0  0  0  0  0  0  0  0  0  0
  -22.9382  -19.1784  -10.0426 H   0  0  0  0  0  0  0  0  0  0  0  0
  -22.1125  -18.6443   -8.4581 H   0  0  0  0  0  0  0  0  0  0  0  0
  -21.1037  -21.9294  -10.3363 H   0  0  0  0  0  0  0  0  0  0  0  0
  -21.9249  -20.7416  -11.4046 H   0  0  0  0  0  0  0  0  0  0  0  0
  -20.1325  -20.8608  -11.4046 H   0  0  0  0  0  0  0  0  0  0  0  0
  -18.8898  -19.8622   -9.7788 H   0  0  0  0  0  0  0  0  0  0  0  0
  -20.0741  -18.5476   -7.3824 H   0  0  0  0  0  0  0  0  0  0  0  0
  -18.4029  -18.3728   -8.0647 H   0  0  0  0  0  0  0  0  0  0  0  0
  -19.4630  -16.9350   -9.7660 H   0  0  0  0  0  0  0  0  0  0  0  0
  -20.8540  -16.9840   -8.8910 H   0  0  0  0  0  0  0  0  0  0  0  0
  -18.2961  -15.8847   -7.8088 H   0  0  0  0  0  0  0  0  0  0  0  0
  -19.7034  -14.9056   -8.4278 H   0  0  0  0  0  0  0  0  0  0  0  0
  -19.5923  -16.6803   -5.9502 H   0  0  0  0  0  0  0  0  0  0  0  0
  -19.8740  -14.8699   -6.0850 H   0  0  0  0  0  0  0  0  0  0  0  0
  -21.8320  -16.5510   -5.6660 H   0  0  0  0  0  0  0  0  0  0  0  0
  -21.7420  -16.7790   -7.2580 H   0  0  0  0  0  0  0  0  0  0  0  0
  -22.0985  -14.0644   -6.1505 H   0  0  0  0  0  0  0  0  0  0  0  0
  -23.8640  -15.6729   -5.2772 H   0  0  0  0  0  0  0  0  0  0  0  0
  -25.8052  -14.2603   -6.0833 H   0  0  0  0  0  0  0  0  0  0  0  0
  -24.3604  -13.2343   -5.7616 H   0  0  0  0  0  0  0  0  0  0  0  0
  -25.4332  -12.6049   -7.9234 H   0  0  0  0  0  0  0  0  0  0  0  0
  -26.4232  -14.8468   -8.4365 H   0  0  0  0  0  0  0  0  0  0  0  0
  -25.4158  -14.2558   -9.8056 H   0  0  0  0  0  0  0  0  0  0  0  0
  -24.9495  -16.6663   -9.3225 H   0  0  0  0  0  0  0  0  0  0  0  0
  -25.5334  -16.5905   -6.8914 H   0  0  0  0  0  0  0  0  0  0  0  0
  -23.8894  -17.2770   -7.1555 H   0  0  0  0  0  0  0  0  0  0  0  0
  -22.4818  -16.4501   -9.0797 H   0  0  0  0  0  0  0  0  0  0  0  0
  -23.1345  -15.1738  -10.1703 H   0  0  0  0  0  0  0  0  0  0  0  0
  -21.4668  -14.2589   -8.5609 H   0  0  0  0  0  0  0  0  0  0  0  0
  -22.9593  -12.4043   -7.6847 H   0  0  0  0  0  0  0  0  0  0  0  0
  -23.4088  -12.8526   -9.3706 H   0  0  0  0  0  0  0  0  0  0  0  0
  1  2  1  0
  2  3  1  0
  2  4  2  3
  4  5  1  0
  5  6  1  0
  6  7  1  0
  7  8  1  0
  7  9  2  0
  9 10  1  0
 10 11  1  0
 11 12  1  0
 12 13  1  0
 13 14  1  0
 14 15  1  0
 15 16  1  0
 16 17  1  0
 17 18  1  0
 18 19  1  0
 19 20  1  0
 20 21  1  0
 20 22  1  0
 22 23  1  0
 23 24  1  0
 23 15  1  0
 21 16  1  0
 24 18  1  0
  1 25  1  0
  1 26  1  0
  1 27  1  0
  3 28  1  0
  3 29  1  0
  3 30  1  0
  4 31  1  0
  5 32  1  0
  5 33  1  0
  6 34  1  0
  6 35  1  0
  8 36  1  0
  8 37  1  0
  8 38  1  0
  9 39  1  0
 10 40  1  0
 10 41  1  0
 11 42  1  0
 11 43  1  0
 12 44  1  0
 12 45  1  0
 13 46  1  0
 13 47  1  0
 14 48  1  0
 14 49  1  0
 15 50  1  6
 16 51  1  6
 17 52  1  0
 17 53  1  0
 18 54  1  6
 19 55  1  0
 19 56  1  0
 20 57  1  1
 21 58  1  0
 21 59  1  0
 22 60  1  0
 22 61  1  0
 23 62  1  1
 24 63  1  0
 24 64  1  0
M  CHG  2  11   1  14   1
M  END
>  <meeko>  (7) 
{"is_sidechain": [false], "free_energy": -7.529, "intermolecular_energy": -11.819, "internal_energy": -1.707}

$$$$
4ea2_ligand
     RDKit          3D

 64 66  0  0  0  0  0  0  0  0999 V2000
  -23.3660  -19.3360   -5.0670 C   0  0  0  0  0  0  0  0  0  0  0  0
  -24.2830  -18.7270   -6.0920 C   0  0  0  0  0  0  0  0  0  0  0  0
  -24.9490  -17.4480   -5.6490 C   0  0  0  0  0  0  0  0  0  0  0  0
  -24.4460  -19.1830   -7.3510 C   0  0  0  0  0  0  0  0  0  0  0  0
  -23.7900  -20.3960   -7.9600 C   0  0  0  0  0  0  0  0  0  0  0  0
  -22.4330  -20.1170   -8.6340 C   0  0  0  0  0  0  0  0  0  0  0  0
  -22.0770  -20.9020   -9.8870 C   0  0  0  0  0  0  0  0  0  0  0  0
  -23.1550  -21.8740  -10.3190 C   0  0  0  0  0  0  0  0  0  0  0  0
  -20.9600  -20.7750  -10.6330 C   0  0  0  0  0  0  0  0  0  0  0  0
  -19.8190  -19.8410  -10.4300 C   0  0  0  0  0  0  0  0  0  0  0  0
  -18.7180  -20.4720   -9.6200 N   0  0  0  0  0  0  0  0  0  0  0  0
  -18.1640  -19.6150   -8.5140 C   0  0  0  0  0  0  0  0  0  0  0  0
  -17.8220  -18.1730   -8.9780 C   0  0  0  0  0  0  0  0  0  0  0  0
  -18.5310  -17.0790   -8.2180 N   0  0  0  0  0  0  0  0  0  0  0  0
  -19.7710  -16.4380   -8.7810 C   0  0  2  0  0  0  0  0  0  0  0  0
  -19.8560  -14.9650   -8.3200 C   0  0  1  0  0  0  0  0  0  0  0  0
  -21.0540  -14.3110   -9.0400 C   0  0  0  0  0  0  0  0  0  0  0  0
  -22.3580  -15.0450   -8.6720 C   0  0  2  0  0  0  0  0  0  0  0  0
  -22.5730  -14.9570   -7.1510 C   0  0  0  0  0  0  0  0  0  0  0  0
  -21.3880  -15.6080   -6.4170 C   0  0  2  0  0  0  0  0  0  0  0  0
  -20.0940  -14.8680   -6.7990 C   0  0  0  0  0  0  0  0  0  0  0  0
  -21.2830  -17.0840   -6.8390 C   0  0  0  0  0  0  0  0  0  0  0  0
  -21.0520  -17.1860   -8.3590 C   0  0  1  0  0  0  0  0  0  0  0  0
  -22.2460  -16.5250   -9.0790 C   0  0  0  0  0  0  0  0  0  0  0  0
  -23.7312  -19.0935   -4.0581 H   0  0  0  0  0  0  0  0  0  0  0  0
  -23.3450  -20.4281   -5.1966 H   0  0  0  0  0  0  0  0  0  0  0  0
  -22.3512  -18.9318   -5.1966 H   0  0  0  0  0  0  0  0  0  0  0  0
  -24.9702  -17.4073   -4.5500 H   0  0  0  0  0  0  0  0  0  0  0  0
  -24.3846  -16.5872   -6.0370 H   0  0  0  0  0  0  0  0  0  0  0  0
  -25.9778  -17.4169   -6.0370 H   0  0  0  0  0  0  0  0  0  0  0  0
  -25.1268  -18.6117   -7.9992 H   0  0  0  0  0  0  0  0  0  0  0  0
  -23.6319  -21.1377   -7.1632 H   0  0  0  0  0  0  0  0  0  0  0  0
  -24.4653  -20.7529   -8.7516 H   0  0  0  0  0  0  0  0  0  0  0  0
  -22.4152  -19.0502   -8.9016 H   0  0  0  0  0  0  0  0  0  0  0  0
  -21.6887  -20.4387   -7.8907 H   0  0  0  0  0  0  0  0  0  0  0  0
  -23.6357  -22.3074   -9.4296 H   0  0  0  0  0  0  0  0  0  0  0  0
  -23.9076  -21.3433  -10.9206 H   0  0  0  0  0  0  0  0  0  0  0  0
  -22.7047  -22.6773  -10.9206 H   0  0  0  0  0  0  0  0  0  0  0  0
  -20.8828  -21.4465  -11.5008 H   0  0  0  0  0  0  0  0  0  0  0  0
  -19.4172  -19.5508  -11.4120 H   0  0  0  0  0  0  0  0  0  0  0  0
  -20.1889  -18.9635   -9.8795 H   0  0  0  0  0  0  0  0  0  0  0  0
  -19.0730  -21.3820   -9.3060 H   0  0  0  0  0  0  0  0  0  0  0  0
  -17.9750  -20.6790  -10.3080 H   0  0  0  0  0  0  0  0  0  0  0  0
  -18.9107  -19.5563   -7.7084 H   0  0  0  0  0  0  0  0  0  0  0  0
  -17.2282  -20.0819   -8.1729 H   0  0  0  0  0  0  0  0  0  0  0  0
  -16.7384  -18.0239   -8.8613 H   0  0  0  0  0  0  0  0  0  0  0  0
  -18.1609  -18.0949  -10.0216 H   0  0  0  0  0  0  0  0  0  0  0  0
  -17.8600  -16.3280   -7.9810 H   0  0  0  0  0  0  0  0  0  0  0  0
  -18.7650  -17.4670   -7.2880 H   0  0  0  0  0  0  0  0  0  0  0  0
  -19.6994  -16.4867   -9.8776 H   0  0  0  0  0  0  0  0  0  0  0  0
  -18.9083  -14.4604   -8.5594 H   0  0  0  0  0  0  0  0  0  0  0  0
  -21.1310  -13.2571   -8.7343 H   0  0  0  0  0  0  0  0  0  0  0  0
  -20.8993  -14.3751  -10.1272 H   0  0  0  0  0  0  0  0  0  0  0  0
  -23.2042  -14.5801   -9.1990 H   0  0  0  0  0  0  0  0  0  0  0  0
  -22.6504  -13.9007   -6.8539 H   0  0  0  0  0  0  0  0  0  0  0  0
  -23.4996  -15.4866   -6.8846 H   0  0  0  0  0  0  0  0  0  0  0  0
  -21.5391  -15.5479   -5.3291 H   0  0  0  0  0  0  0  0  0  0  0  0
  -20.1818  -13.8099   -6.5114 H   0  0  0  0  0  0  0  0  0  0  0  0
  -19.2463  -15.3305   -6.2722 H   0  0  0  0  0  0  0  0  0  0  0  0
  -20.4404  -17.5542   -6.3108 H   0  0  0  0  0  0  0  0  0  0  0  0
  -22.2205  -17.5990   -6.5824 H   0  0  0  0  0  0  0  0  0  0  0  0
  -20.9510  -18.2483   -8.6260 H   0  0  0  0  0  0  0  0  0  0  0  0
  -22.0972  -16.5926  -10.1668 H   0  0  0  0  0  0  0  0  0  0  0  0
  -23.1713  -17.0470   -8.7937 H   0  0  0  0  0  0  0  0  0  0  0  0
  1  2  1  0
  2  3  1  0
  2  4  2  3
  4  5  1  0
  5  6  1  0
  6  7  1  0
  7  8  1  0
  7  9  2  0
  9 10  1  0
 10 11  1  0
 11 12  1  0
 12 13  1  0
 13 14  1  0
 14 15  1  0
 15 16  1  0
 16 17  1  0
 17 18  1  0
 18 19  1  0
 19 20  1  0
 20 21  1  0
 20 22  1  0
 22 23  1  0
 23 24  1  0
 23 15  1  0
 21 16  1  0
 24 18  1  0
  1 25  1  0
  1 26  1  0
  1 27  1  0
  3 28  1  0
  3 29  1  0
  3 30  1  0
  4 31  1  0
  5 32  1  0
  5 33  1  0
  6 34  1  0
  6 35  1  0
  8 36  1  0
  8 37  1  0
  8 38  1  0
  9 39  1  0
 10 40  1  0
 10 41  1  0
 11 42  1  0
 11 43  1  0
 12 44  1  0
 12 45  1  0
 13 46  1  0
 13 47  1  0
 14 48  1  0
 14 49  1  0
 15 50  1  1
 16 51  1  6
 17 52  1  0
 17 53  1  0
 18 54  1  1
 19 55  1  0
 19 56  1  0
 20 57  1  6
 21 58  1  0
 21 59  1  0
 22 60  1  0
 22 61  1  0
 23 62  1  1
 24 63  1  0
 24 64  1  0
M  CHG  2  11   1  14   1
M  END
>  <meeko>  (8) 
{"is_sidechain": [false], "free_energy": -7.507, "intermolecular_energy": -11.434, "internal_energy": -2.059}

$$$$
4ea2_ligand
     RDKit          3D

 64 66  0  0  0  0  0  0  0  0999 V2000
  -23.4380  -14.2900   -7.0170 C   0  0  0  0  0  0  0  0  0  0  0  0
  -23.4460  -13.9110   -8.4730 C   0  0  0  0  0  0  0  0  0  0  0  0
  -24.8240  -13.7890   -9.0750 C   0  0  0  0  0  0  0  0  0  0  0  0
  -22.3530  -13.5910   -9.1950 C   0  0  0  0  0  0  0  0  0  0  0  0
  -20.9250  -13.5890   -8.7110 C   0  0  0  0  0  0  0  0  0  0  0  0
  -20.1040  -14.8210   -9.1380 C   0  0  0  0  0  0  0  0  0  0  0  0
  -19.5350  -15.7190   -8.0510 C   0  0  0  0  0  0  0  0  0  0  0  0
  -19.7410  -15.1790   -6.6510 C   0  0  0  0  0  0  0  0  0  0  0  0
  -18.9380  -16.9170   -8.2190 C   0  0  0  0  0  0  0  0  0  0  0  0
  -18.7010  -17.6560   -9.4890 C   0  0  0  0  0  0  0  0  0  0  0  0
  -19.9590  -18.3040  -10.0030 N   0  0  0  0  0  0  0  0  0  0  0  0
  -19.9740  -19.8070   -9.9490 C   0  0  0  0  0  0  0  0  0  0  0  0
  -21.3440  -20.4150  -10.3550 C   0  0  0  0  0  0  0  0  0  0  0  0
  -22.5050  -19.9940   -9.4880 N   0  0  0  0  0  0  0  0  0  0  0  0
  -22.2830  -19.6030   -8.0520 C   0  0  2  0  0  0  0  0  0  0  0  0
  -23.2770  -20.3600   -7.1420 C   0  0  1  0  0  0  0  0  0  0  0  0
  -22.9130  -20.0440   -5.6760 C   0  0  0  0  0  0  0  0  0  0  0  0
  -23.0240  -18.5290   -5.4170 C   0  0  2  0  0  0  0  0  0  0  0  0
  -24.4700  -18.0770   -5.6890 C   0  0  0  0  0  0  0  0  0  0  0  0
  -24.8490  -18.3820   -7.1480 C   0  0  2  0  0  0  0  0  0  0  0  0
  -24.7270  -19.8970   -7.3910 C   0  0  0  0  0  0  0  0  0  0  0  0
  -23.8880  -17.6290   -8.0850 C   0  0  0  0  0  0  0  0  0  0  0  0
  -22.4380  -18.0840   -7.8350 C   0  0  1  0  0  0  0  0  0  0  0  0
  -22.0760  -17.7750   -6.3670 C   0  0  0  0  0  0  0  0  0  0  0  0
  -23.4572  -13.3790   -6.4009 H   0  0  0  0  0  0  0  0  0  0  0  0
  -24.3234  -14.9030   -6.7928 H   0  0  0  0  0  0  0  0  0  0  0  0
  -22.5275  -14.8651   -6.7928 H   0  0  0  0  0  0  0  0  0  0  0  0
  -25.5711  -13.7229   -8.2704 H   0  0  0  0  0  0  0  0  0  0  0  0
  -24.8736  -12.8830   -9.6968 H   0  0  0  0  0  0  0  0  0  0  0  0
  -25.0320  -14.6722   -9.6968 H   0  0  0  0  0  0  0  0  0  0  0  0
  -22.5201  -13.3022  -10.2432 H   0  0  0  0  0  0  0  0  0  0  0  0
  -20.4289  -12.6911   -9.1080 H   0  0  0  0  0  0  0  0  0  0  0  0
  -20.9671  -13.6067   -7.6119 H   0  0  0  0  0  0  0  0  0  0  0  0
  -20.7556  -15.4445   -9.7678 H   0  0  0  0  0  0  0  0  0  0  0  0
  -19.2174  -14.3985   -9.6333 H   0  0  0  0  0  0  0  0  0  0  0  0
  -19.4492  -15.9439   -5.9163 H   0  0  0  0  0  0  0  0  0  0  0  0
  -19.1225  -14.2803   -6.5099 H   0  0  0  0  0  0  0  0  0  0  0  0
  -20.8009  -14.9206   -6.5099 H   0  0  0  0  0  0  0  0  0  0  0  0
  -18.5816  -17.4095   -7.3023 H   0  0  0  0  0  0  0  0  0  0  0  0
  -18.3286  -16.9510  -10.2468 H   0  0  0  0  0  0  0  0  0  0  0  0
  -17.9650  -18.4490   -9.2904 H   0  0  0  0  0  0  0  0  0  0  0  0
  -20.7380  -17.8600   -9.5050 H   0  0  0  0  0  0  0  0  0  0  0  0
  -20.0320  -17.9880  -10.9840 H   0  0  0  0  0  0  0  0  0  0  0  0
  -19.2036  -20.1901  -10.6343 H   0  0  0  0  0  0  0  0  0  0  0  0
  -19.7794  -20.1008   -8.9070 H   0  0  0  0  0  0  0  0  0  0  0  0
  -21.5609  -20.1096  -11.3893 H   0  0  0  0  0  0  0  0  0  0  0  0
  -21.2471  -21.5042  -10.2353 H   0  0  0  0  0  0  0  0  0  0  0  0
  -23.2400  -20.7220   -9.5130 H   0  0  0  0  0  0  0  0  0  0  0  0
  -22.9630  -19.2020   -9.9690 H   0  0  0  0  0  0  0  0  0  0  0  0
  -21.2498  -19.8759   -7.7913 H   0  0  0  0  0  0  0  0  0  0  0  0
  -23.2108  -21.4365   -7.3582 H   0  0  0  0  0  0  0  0  0  0  0  0
  -23.6027  -20.5789   -5.0066 H   0  0  0  0  0  0  0  0  0  0  0  0
  -21.8791  -20.3670   -5.4843 H   0  0  0  0  0  0  0  0  0  0  0  0
  -22.7511  -18.3124   -4.3736 H   0  0  0  0  0  0  0  0  0  0  0  0
  -25.1530  -18.6147   -5.0149 H   0  0  0  0  0  0  0  0  0  0  0  0
  -24.5496  -16.9940   -5.5133 H   0  0  0  0  0  0  0  0  0  0  0  0
  -25.8819  -18.0595   -7.3458 H   0  0  0  0  0  0  0  0  0  0  0  0
  -25.4018  -20.4307   -6.7056 H   0  0  0  0  0  0  0  0  0  0  0  0
  -25.0006  -20.1170   -8.4335 H   0  0  0  0  0  0  0  0  0  0  0  0
  -24.1600  -17.8391   -9.1299 H   0  0  0  0  0  0  0  0  0  0  0  0
  -23.9652  -16.5497   -7.8872 H   0  0  0  0  0  0  0  0  0  0  0  0
  -21.7799  -17.5530   -8.5385 H   0  0  0  0  0  0  0  0  0  0  0  0
  -21.0403  -18.0912   -6.1736 H   0  0  0  0  0  0  0  0  0  0  0  0
  -22.1768  -16.6937   -6.1919 H   0  0  0  0  0  0  0  0  0  0  0  0
  1  2  1  0
  2  3  1  0
  2  4  2  3
  4  5  1  0
  5  6  1  0
  6  7  1  0
  7  8  1  0
  7  9  2  0
  9 10  1  0
 10 11  1  0
 11 12  1  0
 12 13  1  0
 13 14  1  0
 14 15  1  0
 15 16  1  0
 16 17  1  0
 17 18  1  0
 18 19  1  0
 19 20  1  0
 20 21  1  0
 20 22  1  0
 22 23  1  0
 23 24  1  0
 23 15  1  0
 21 16  1  0
 24 18  1  0
  1 25  1  0
  1 26  1  0
  1 27  1  0
  3 28  1  0
  3 29  1  0
  3 30  1  0
  4 31  1  0
  5 32  1  0
  5 33  1  0
  6 34  1  0
  6 35  1  0
  8 36  1  0
  8 37  1  0
  8 38  1  0
  9 39  1  0
 10 40  1  0
 10 41  1  0
 11 42  1  0
 11 43  1  0
 12 44  1  0
 12 45  1  0
 13 46  1  0
 13 47  1  0
 14 48  1  0
 14 49  1  0
 15 50  1  6
 16 51  1  6
 17 52  1  0
 17 53  1  0
 18 54  1  6
 19 55  1  0
 19 56  1  0
 20 57  1  1
 21 58  1  0
 21 59  1  0
 22 60  1  0
 22 61  1  0
 23 62  1  1
 24 63  1  0
 24 64  1  0
M  CHG  2  11   1  14   1
M  END
>  <meeko>  (9) 
{"is_sidechain": [false], "free_energy": -7.499, "intermolecular_energy": -11.522, "internal_energy": -1.957}

$$$$
