2weg_ligand
     RDKit          3D

 17 17  0  0  0  0  0  0  0  0999 V2000
   13.7210    2.8160   16.8420 N   0  0  0  0  0  0  0  0  0  0  0  0
   15.4050    2.7840   16.8930 S   0  0  0  0  0  0  0  0  0  0  0  0
   15.7800    2.9720   18.2740 O   0  0  0  0  0  0  0  0  0  0  0  0
   15.8190    1.6250   16.1370 O   0  0  0  0  0  0  0  0  0  0  0  0
   15.8770    4.2200   15.9940 C   0  0  0  0  0  0  0  0  0  0  0  0
   14.9170    5.1630   15.6130 C   0  0  0  0  0  0  0  0  0  0  0  0
   15.3120    6.2890   14.8880 C   0  0  0  0  0  0  0  0  0  0  0  0
   16.6550    6.4700   14.5480 C   0  0  0  0  0  0  0  0  0  0  0  0
   17.6060    5.5250   14.9360 C   0  0  0  0  0  0  0  0  0  0  0  0
   17.2120    4.4020   15.6570 C   0  0  0  0  0  0  0  0  0  0  0  0
   18.1480    3.5260   16.0460 F   0  0  0  0  0  0  0  0  0  0  0  0
   13.2800    2.4670   17.6920 H   0  0  0  0  0  0  0  0  0  0  0  0
   13.4150    2.2870   16.0220 H   0  0  0  0  0  0  0  0  0  0  0  0
   13.8602    5.0189   15.8821 H   0  0  0  0  0  0  0  0  0  0  0  0
   14.5637    7.0357   14.5837 H   0  0  0  0  0  0  0  0  0  0  0  0
   16.9627    7.3569   13.9747 H   0  0  0  0  0  0  0  0  0  0  0  0
   18.6644    5.6676   14.6725 H   0  0  0  0  0  0  0  0  0  0  0  0
  1  2  1  0
  2  3  2  0
  2  4  2  0
  2  5  1  0
  5  6  2  0
  6  7  1  0
  7  8  2  0
  8  9  1  0
  9 10  2  0
 10 11  1  0
 10  5  1  0
  1 12  1  0
  1 13  1  0
  6 14  1  0
  7 15  1  0
  8 16  1  0
  9 17  1  0
M  END
>  <meeko>  (1) 
{"is_sidechain": [false], "free_energy": -6.16, "intermolecular_energy": -6.7, "internal_energy": -0.07}

$$$$
2weg_ligand
     RDKit          3D

 17 17  0  0  0  0  0  0  0  0999 V2000
   15.7560    1.9150   16.9800 N   0  0  0  0  0  0  0  0  0  0  0  0
   16.7030    2.6170   15.7760 S   0  0  0  0  0  0  0  0  0  0  0  0
   18.0330    2.7500   16.3230 O   0  0  0  0  0  0  0  0  0  0  0  0
   16.4430    1.8780   14.5620 O   0  0  0  0  0  0  0  0  0  0  0  0
   16.0200    4.2270   15.5930 C   0  0  0  0  0  0  0  0  0  0  0  0
   14.9070    4.6130   16.3470 C   0  0  0  0  0  0  0  0  0  0  0  0
   14.3720    5.8910   16.1760 C   0  0  0  0  0  0  0  0  0  0  0  0
   14.9460    6.7750   15.2590 C   0  0  0  0  0  0  0  0  0  0  0  0
   16.0580    6.3820   14.5120 C   0  0  0  0  0  0  0  0  0  0  0  0
   16.5900    5.1060   14.6830 C   0  0  0  0  0  0  0  0  0  0  0  0
   17.6770    4.7640   13.9790 F   0  0  0  0  0  0  0  0  0  0  0  0
   15.2720    1.0700   16.6780 H   0  0  0  0  0  0  0  0  0  0  0  0
   15.0960    2.6180   17.3200 H   0  0  0  0  0  0  0  0  0  0  0  0
   14.4570    3.9154   17.0687 H   0  0  0  0  0  0  0  0  0  0  0  0
   13.4965    6.2027   16.7646 H   0  0  0  0  0  0  0  0  0  0  0  0
   14.5216    7.7810   15.1255 H   0  0  0  0  0  0  0  0  0  0  0  0
   16.5124    7.0774   13.7910 H   0  0  0  0  0  0  0  0  0  0  0  0
  1  2  1  0
  2  3  2  0
  2  4  2  0
  2  5  1  0
  5  6  2  0
  6  7  1  0
  7  8  2  0
  8  9  1  0
  9 10  2  0
 10 11  1  0
 10  5  1  0
  1 12  1  0
  1 13  1  0
  6 14  1  0
  7 15  1  0
  8 16  1  0
  9 17  1  0
M  END
>  <meeko>  (2) 
{"is_sidechain": [false], "free_energy": -5.95, "intermolecular_energy": -6.443, "internal_energy": -0.1}

$$$$
2weg_ligand
     RDKit          3D

 17 17  0  0  0  0  0  0  0  0999 V2000
   15.7930    1.6470   16.4120 N   0  0  0  0  0  0  0  0  0  0  0  0
   14.9430    2.9640   17.0300 S   0  0  0  0  0  0  0  0  0  0  0  0
   13.5410    2.6330   16.9310 O   0  0  0  0  0  0  0  0  0  0  0  0
   15.5640    3.3030   18.2890 O   0  0  0  0  0  0  0  0  0  0  0  0
   15.2860    4.2550   15.8860 C   0  0  0  0  0  0  0  0  0  0  0  0
   16.1270    4.0260   14.7930 C   0  0  0  0  0  0  0  0  0  0  0  0
   16.3970    5.0690   13.9040 C   0  0  0  0  0  0  0  0  0  0  0  0
   15.8290    6.3290   14.1080 C   0  0  0  0  0  0  0  0  0  0  0  0
   14.9880    6.5480   15.2000 C   0  0  0  0  0  0  0  0  0  0  0  0
   14.7210    5.5070   16.0870 C   0  0  0  0  0  0  0  0  0  0  0  0
   13.8850    5.7320   17.1090 F   0  0  0  0  0  0  0  0  0  0  0  0
   15.2110    0.9920   15.8920 H   0  0  0  0  0  0  0  0  0  0  0  0
   16.2710    1.1810   17.1880 H   0  0  0  0  0  0  0  0  0  0  0  0
   16.5724    3.0328   14.6344 H   0  0  0  0  0  0  0  0  0  0  0  0
   17.0581    4.8980   13.0416 H   0  0  0  0  0  0  0  0  0  0  0  0
   16.0448    7.1491   13.4074 H   0  0  0  0  0  0  0  0  0  0  0  0
   14.5376    7.5387   15.3599 H   0  0  0  0  0  0  0  0  0  0  0  0
  1  2  1  0
  2  3  2  0
  2  4  2  0
  2  5  1  0
  5  6  2  0
  6  7  1  0
  7  8  2  0
  8  9  1  0
  9 10  2  0
 10 11  1  0
 10  5  1  0
  1 12  1  0
  1 13  1  0
  6 14  1  0
  7 15  1  0
  8 16  1  0
  9 17  1  0
M  END
>  <meeko>  (3) 
{"is_sidechain": [false], "free_energy": -5.861, "intermolecular_energy": -6.344, "internal_energy": -0.102}

$$$$
2weg_ligand
     RDKit          3D

 17 17  0  0  0  0  0  0  0  0999 V2000
   17.4460    3.2600   13.8700 N   0  0  0  0  0  0  0  0  0  0  0  0
   17.2060    2.8310   15.4820 S   0  0  0  0  0  0  0  0  0  0  0  0
   16.6680    1.4920   15.4760 O   0  0  0  0  0  0  0  0  0  0  0  0
   18.4220    3.1670   16.1850 O   0  0  0  0  0  0  0  0  0  0  0  0
   15.9420    3.9290   16.0210 C   0  0  0  0  0  0  0  0  0  0  0  0
   15.6140    5.0570   15.2630 C   0  0  0  0  0  0  0  0  0  0  0  0
   14.6170    5.9230   15.7170 C   0  0  0  0  0  0  0  0  0  0  0  0
   13.9550    5.6620   16.9180 C   0  0  0  0  0  0  0  0  0  0  0  0
   14.2870    4.5320   17.6680 C   0  0  0  0  0  0  0  0  0  0  0  0
   15.2830    3.6700   17.2150 C   0  0  0  0  0  0  0  0  0  0  0  0
   15.5610    2.5750   17.9350 F   0  0  0  0  0  0  0  0  0  0  0  0
   17.5230    2.4620   13.2420 H   0  0  0  0  0  0  0  0  0  0  0  0
   18.2780    3.8540   13.8170 H   0  0  0  0  0  0  0  0  0  0  0  0
   16.1369    5.2607   14.3169 H   0  0  0  0  0  0  0  0  0  0  0  0
   14.3527    6.8129   15.1269 H   0  0  0  0  0  0  0  0  0  0  0  0
   13.1713    6.3470   17.2737 H   0  0  0  0  0  0  0  0  0  0  0  0
   13.7640    4.3233   18.6130 H   0  0  0  0  0  0  0  0  0  0  0  0
  1  2  1  0
  2  3  2  0
  2  4  2  0
  2  5  1  0
  5  6  2  0
  6  7  1  0
  7  8  2  0
  8  9  1  0
  9 10  2  0
 10 11  1  0
 10  5  1  0
  1 12  1  0
  1 13  1  0
  6 14  1  0
  7 15  1  0
  8 16  1  0
  9 17  1  0
M  END
>  <meeko>  (4) 
{"is_sidechain": [false], "free_energy": -5.854, "intermolecular_energy": -6.418, "internal_energy": -0.019}

$$$$
2weg_ligand
     RDKit          3D

 17 17  0  0  0  0  0  0  0  0999 V2000
   16.9170    2.1570   13.1920 N   0  0  0  0  0  0  0  0  0  0  0  0
   16.7120    3.7650   13.6510 S   0  0  0  0  0  0  0  0  0  0  0  0
   18.0340    4.3040   13.8670 O   0  0  0  0  0  0  0  0  0  0  0  0
   15.7900    4.3500   12.7040 O   0  0  0  0  0  0  0  0  0  0  0  0
   15.9010    3.6550   15.2070 C   0  0  0  0  0  0  0  0  0  0  0  0
   16.0740    2.5290   16.0170 C   0  0  0  0  0  0  0  0  0  0  0  0
   15.4100    2.4570   17.2430 C   0  0  0  0  0  0  0  0  0  0  0  0
   14.5800    3.5030   17.6540 C   0  0  0  0  0  0  0  0  0  0  0  0
   14.4150    4.6250   16.8410 C   0  0  0  0  0  0  0  0  0  0  0  0
   15.0770    4.6950   15.6170 C   0  0  0  0  0  0  0  0  0  0  0  0
   14.9290    5.7960   14.8690 F   0  0  0  0  0  0  0  0  0  0  0  0
   17.8860    1.9070   12.9990 H   0  0  0  0  0  0  0  0  0  0  0  0
   16.3190    1.9750   12.3830 H   0  0  0  0  0  0  0  0  0  0  0  0
   16.7278    1.7066   15.6912 H   0  0  0  0  0  0  0  0  0  0  0  0
   15.5406    1.5747   17.8868 H   0  0  0  0  0  0  0  0  0  0  0  0
   14.0561    3.4420   18.6193 H   0  0  0  0  0  0  0  0  0  0  0  0
   13.7649    5.4510   17.1652 H   0  0  0  0  0  0  0  0  0  0  0  0
  1  2  1  0
  2  3  2  0
  2  4  2  0
  2  5  1  0
  5  6  2  0
  6  7  1  0
  7  8  2  0
  8  9  1  0
  9 10  2  0
 10 11  1  0
 10  5  1  0
  1 12  1  0
  1 13  1  0
  6 14  1  0
  7 15  1  0
  8 16  1  0
  9 17  1  0
M  END
>  <meeko>  (5) 
{"is_sidechain": [false], "free_energy": -5.587, "intermolecular_energy": -6.253, "internal_energy": 0.106}

$$$$
2weg_ligand
     RDKit          3D

 17 17  0  0  0  0  0  0  0  0999 V2000
   16.1330    5.4760   12.9400 N   0  0  0  0  0  0  0  0  0  0  0  0
   16.8800    4.2030   13.7540 S   0  0  0  0  0  0  0  0  0  0  0  0
   16.6100    3.0090   12.9890 O   0  0  0  0  0  0  0  0  0  0  0  0
   18.2260    4.6370   14.0500 O   0  0  0  0  0  0  0  0  0  0  0  0
   15.9940    4.1000   15.2690 C   0  0  0  0  0  0  0  0  0  0  0  0
   14.9270    4.9660   15.5250 C   0  0  0  0  0  0  0  0  0  0  0  0
   14.2460    4.8750   16.7410 C   0  0  0  0  0  0  0  0  0  0  0  0
   14.6280    3.9250   17.6900 C   0  0  0  0  0  0  0  0  0  0  0  0
   15.6930    3.0620   17.4250 C   0  0  0  0  0  0  0  0  0  0  0  0
   16.3720    3.1540   16.2130 C   0  0  0  0  0  0  0  0  0  0  0  0
   17.3690    2.2940   15.9680 F   0  0  0  0  0  0  0  0  0  0  0  0
   15.1350    5.5540   13.1330 H   0  0  0  0  0  0  0  0  0  0  0  0
   16.3090    5.3640   11.9390 H   0  0  0  0  0  0  0  0  0  0  0  0
   14.6263    5.7127   14.7753 H   0  0  0  0  0  0  0  0  0  0  0  0
   13.4064    5.5537   16.9515 H   0  0  0  0  0  0  0  0  0  0  0  0
   14.0897    3.8564   18.6468 H   0  0  0  0  0  0  0  0  0  0  0  0
   15.9946    2.3121   18.1711 H   0  0  0  0  0  0  0  0  0  0  0  0
  1  2  1  0
  2  3  2  0
  2  4  2  0
  2  5  1  0
  5  6  2  0
  6  7  1  0
  7  8  2  0
  8  9  1  0
  9 10  2  0
 10 11  1  0
 10  5  1  0
  1 12  1  0
  1 13  1  0
  6 14  1  0
  7 15  1  0
  8 16  1  0
  9 17  1  0
M  END
>  <meeko>  (6) 
{"is_sidechain": [false], "free_energy": -5.582, "intermolecular_energy": -6.039, "internal_energy": -0.103}

$$$$
2weg_ligand
     RDKit          3D

 17 17  0  0  0  0  0  0  0  0999 V2000
   15.3920    3.6040   11.1240 N   0  0  0  0  0  0  0  0  0  0  0  0
   16.7940    2.7800   11.5630 S   0  0  0  0  0  0  0  0  0  0  0  0
   16.4920    1.3720   11.4690 O   0  0  0  0  0  0  0  0  0  0  0  0
   17.8770    3.3840   10.8220 O   0  0  0  0  0  0  0  0  0  0  0  0
   17.0010    3.1860   13.2620 C   0  0  0  0  0  0  0  0  0  0  0  0
   16.8120    2.2160   14.2500 C   0  0  0  0  0  0  0  0  0  0  0  0
   16.9680    2.5640   15.5930 C   0  0  0  0  0  0  0  0  0  0  0  0
   17.3120    3.8720   15.9430 C   0  0  0  0  0  0  0  0  0  0  0  0
   17.5010    4.8340   14.9500 C   0  0  0  0  0  0  0  0  0  0  0  0
   17.3440    4.4860   13.6110 C   0  0  0  0  0  0  0  0  0  0  0  0
   17.5630    5.4190   12.6750 F   0  0  0  0  0  0  0  0  0  0  0  0
   15.5660    4.5330   10.7420 H   0  0  0  0  0  0  0  0  0  0  0  0
   14.7760    3.6480   11.9390 H   0  0  0  0  0  0  0  0  0  0  0  0
   16.5425    1.1865   13.9718 H   0  0  0  0  0  0  0  0  0  0  0  0
   16.8198    1.8069   16.3771 H   0  0  0  0  0  0  0  0  0  0  0  0
   17.4339    4.1437   17.0019 H   0  0  0  0  0  0  0  0  0  0  0  0
   17.7731    5.8639   15.2242 H   0  0  0  0  0  0  0  0  0  0  0  0
  1  2  1  0
  2  3  2  0
  2  4  2  0
  2  5  1  0
  5  6  2  0
  6  7  1  0
  7  8  2  0
  8  9  1  0
  9 10  2  0
 10 11  1  0
 10  5  1  0
  1 12  1  0
  1 13  1  0
  6 14  1  0
  7 15  1  0
  8 16  1  0
  9 17  1  0
M  END
>  <meeko>  (7) 
{"is_sidechain": [false], "free_energy": -5.443, "intermolecular_energy": -6.064, "internal_energy": 0.074}

$$$$
2weg_ligand
     RDKit          3D

 17 17  0  0  0  0  0  0  0  0999 V2000
   18.0490    3.3240   16.0400 N   0  0  0  0  0  0  0  0  0  0  0  0
   16.5980    2.9660   15.2610 S   0  0  0  0  0  0  0  0  0  0  0  0
   16.1860    1.6660   15.7340 O   0  0  0  0  0  0  0  0  0  0  0  0
   15.7590    4.1340   15.3960 O   0  0  0  0  0  0  0  0  0  0  0  0
   17.0580    2.8170   13.5700 C   0  0  0  0  0  0  0  0  0  0  0  0
   16.8610    1.6130   12.8870 C   0  0  0  0  0  0  0  0  0  0  0  0
   17.2470    1.5120   11.5490 C   0  0  0  0  0  0  0  0  0  0  0  0
   17.8240    2.6060   10.9010 C   0  0  0  0  0  0  0  0  0  0  0  0
   18.0150    3.8050   11.5890 C   0  0  0  0  0  0  0  0  0  0  0  0
   17.6310    3.9040   12.9240 C   0  0  0  0  0  0  0  0  0  0  0  0
   17.7940    5.0750   13.5550 F   0  0  0  0  0  0  0  0  0  0  0  0
   18.8700    2.9490   15.5660 H   0  0  0  0  0  0  0  0  0  0  0  0
   17.9890    2.9840   17.0020 H   0  0  0  0  0  0  0  0  0  0  0  0
   16.4058    0.7527   13.3994 H   0  0  0  0  0  0  0  0  0  0  0  0
   17.0962    0.5684   11.0041 H   0  0  0  0  0  0  0  0  0  0  0  0
   18.1283    2.5227    9.8472 H   0  0  0  0  0  0  0  0  0  0  0  0
   18.4670    4.6684   11.0789 H   0  0  0  0  0  0  0  0  0  0  0  0
  1  2  1  0
  2  3  2  0
  2  4  2  0
  2  5  1  0
  5  6  2  0
  6  7  1  0
  7  8  2  0
  8  9  1  0
  9 10  2  0
 10 11  1  0
 10  5  1  0
  1 12  1  0
  1 13  1  0
  6 14  1  0
  7 15  1  0
  8 16  1  0
  9 17  1  0
M  END
>  <meeko>  (8) 
{"is_sidechain": [false], "free_energy": -5.39, "intermolecular_energy": -5.973, "internal_energy": 0.041}

$$$$
2weg_ligand
     RDKit          3D

 17 17  0  0  0  0  0  0  0  0999 V2000
   16.4410    5.0100   10.5800 N   0  0  0  0  0  0  0  0  0  0  0  0
   16.8560    3.4850   11.1670 S   0  0  0  0  0  0  0  0  0  0  0  0
   15.7790    2.5960   10.8020 O   0  0  0  0  0  0  0  0  0  0  0  0
   18.2210    3.2450   10.7610 O   0  0  0  0  0  0  0  0  0  0  0  0
   16.8340    3.6910   12.9130 C   0  0  0  0  0  0  0  0  0  0  0  0
   16.7940    4.9700   13.4750 C   0  0  0  0  0  0  0  0  0  0  0  0
   16.7900    5.1100   14.8640 C   0  0  0  0  0  0  0  0  0  0  0  0
   16.8250    3.9800   15.6830 C   0  0  0  0  0  0  0  0  0  0  0  0
   16.8620    2.7060   15.1140 C   0  0  0  0  0  0  0  0  0  0  0  0
   16.8670    2.5670   13.7290 C   0  0  0  0  0  0  0  0  0  0  0  0
   16.8690    1.3340   13.2060 F   0  0  0  0  0  0  0  0  0  0  0  0
   16.3600    5.7190   11.3070 H   0  0  0  0  0  0  0  0  0  0  0  0
   15.5710    4.9230   10.0490 H   0  0  0  0  0  0  0  0  0  0  0  0
   16.7659    5.8592   12.8281 H   0  0  0  0  0  0  0  0  0  0  0  0
   16.7592    6.1132   15.3142 H   0  0  0  0  0  0  0  0  0  0  0  0
   16.8234    4.0937   16.7771 H   0  0  0  0  0  0  0  0  0  0  0  0
   16.8871    1.8146   15.7581 H   0  0  0  0  0  0  0  0  0  0  0  0
  1  2  1  0
  2  3  2  0
  2  4  2  0
  2  5  1  0
  5  6  2  0
  6  7  1  0
  7  8  2  0
  8  9  1  0
  9 10  2  0
 10 11  1  0
 10  5  1  0
  1 12  1  0
  1 13  1  0
  6 14  1  0
  7 15  1  0
  8 16  1  0
  9 17  1  0
M  END
>  <meeko>  (9) 
{"is_sidechain": [false], "free_energy": -5.326, "intermolecular_energy": -5.834, "internal_energy": -0.029}

$$$$
