3jya_ligand
     RDKit          3D

 20 22  0  0  0  0  0  0  0  0999 V2000
    3.4010   82.6800   -1.9040 O   0  0  0  0  0  0  0  0  0  0  0  0
    4.0890   82.6790   -0.8880 C   0  0  0  0  0  0  0  0  0  0  0  0
    3.5680   83.0890    0.3170 N   0  0  0  0  0  0  0  0  0  0  0  0
    4.3040   83.1030    1.4750 C   0  0  0  0  0  0  0  0  0  0  0  0
    5.5420   82.7480    1.5950 N   0  0  0  0  0  0  0  0  0  0  0  0
    6.1510   82.3150    0.4020 C   0  0  0  0  0  0  0  0  0  0  0  0
    5.4620   82.2820   -0.7780 C   0  0  0  0  0  0  0  0  0  0  0  0
    6.3970   81.7290   -2.0610 S   0  0  0  0  0  0  0  0  0  0  0  0
    7.7900   81.5120   -1.0450 C   0  0  0  0  0  0  0  0  0  0  0  0
    9.0690   81.0410   -1.4290 C   0  0  0  0  0  0  0  0  0  0  0  0
    9.4260   80.5940   -3.0590 Cl  0  0  0  0  0  0  0  0  0  0  0  0
   10.0850   80.9270   -0.4770 C   0  0  0  0  0  0  0  0  0  0  0  0
    9.8470   81.2730    0.8430 C   0  0  0  0  0  0  0  0  0  0  0  0
    8.5850   81.7380    1.2170 C   0  0  0  0  0  0  0  0  0  0  0  0
    8.3000   82.1640    2.8510 Cl  0  0  0  0  0  0  0  0  0  0  0  0
    7.5150   81.8740    0.2930 C   0  0  0  0  0  0  0  0  0  0  0  0
    2.6030   83.3830    0.3080 H   0  0  0  0  0  0  0  0  0  0  0  0
    3.7936   83.4483    2.3862 H   0  0  0  0  0  0  0  0  0  0  0  0
   11.0780   80.5610   -0.7768 H   0  0  0  0  0  0  0  0  0  0  0  0
   10.6475   81.1819    1.5919 H   0  0  0  0  0  0  0  0  0  0  0  0
  1  2  2  0
  2  3  1  0
  3  4  1  0
  4  5  2  0
  5  6  1  0
  6  7  2  0
  7  8  1  0
  8  9  1  0
  9 10  2  0
 10 11  1  0
 10 12  1  0
 12 13  2  0
 13 14  1  0
 14 15  1  0
 14 16  2  0
  7  2  1  0
 16  9  1  0
 16  6  1  0
  3 17  1  0
  4 18  1  0
 12 19  1  0
 13 20  1  0
M  END
>  <meeko>  (1) 
{"is_sidechain": [false], "free_energy": -8.352, "intermolecular_energy": -8.352, "internal_energy": 0.0}

$$$$
3jya_ligand
     RDKit          3D

 20 22  0  0  0  0  0  0  0  0999 V2000
    2.6240   83.4230    0.1960 O   0  0  0  0  0  0  0  0  0  0  0  0
    3.5010   82.9470   -0.5190 C   0  0  0  0  0  0  0  0  0  0  0  0
    3.2430   82.6280   -1.8320 N   0  0  0  0  0  0  0  0  0  0  0  0
    4.1950   82.0940   -2.6630 C   0  0  0  0  0  0  0  0  0  0  0  0
    5.4200   81.8250   -2.3470 N   0  0  0  0  0  0  0  0  0  0  0  0
    5.7640   82.1240   -1.0140 C   0  0  0  0  0  0  0  0  0  0  0  0
    4.8530   82.6570   -0.1460 C   0  0  0  0  0  0  0  0  0  0  0  0
    5.4960   82.9270    1.3840 S   0  0  0  0  0  0  0  0  0  0  0  0
    7.0560   82.3220    0.9140 C   0  0  0  0  0  0  0  0  0  0  0  0
    8.2170   82.2190    1.7180 C   0  0  0  0  0  0  0  0  0  0  0  0
    8.2270   82.7150    3.3720 Cl  0  0  0  0  0  0  0  0  0  0  0  0
    9.3970   81.7040    1.1770 C   0  0  0  0  0  0  0  0  0  0  0  0
    9.4380   81.2940   -0.1450 C   0  0  0  0  0  0  0  0  0  0  0  0
    8.2920   81.3960   -0.9340 C   0  0  0  0  0  0  0  0  0  0  0  0
    8.3510   80.8860   -2.5690 Cl  0  0  0  0  0  0  0  0  0  0  0  0
    7.0640   81.9110   -0.4390 C   0  0  0  0  0  0  0  0  0  0  0  0
    2.3060   82.8070   -2.1580 H   0  0  0  0  0  0  0  0  0  0  0  0
    3.8874   81.8738   -3.6959 H   0  0  0  0  0  0  0  0  0  0  0  0
   10.2975   81.6237    1.8036 H   0  0  0  0  0  0  0  0  0  0  0  0
   10.3686   80.8903   -0.5705 H   0  0  0  0  0  0  0  0  0  0  0  0
  1  2  2  0
  2  3  1  0
  3  4  1  0
  4  5  2  0
  5  6  1  0
  6  7  2  0
  7  8  1  0
  8  9  1  0
  9 10  2  0
 10 11  1  0
 10 12  1  0
 12 13  2  0
 13 14  1  0
 14 15  1  0
 14 16  2  0
  7  2  1  0
 16  9  1  0
 16  6  1  0
  3 17  1  0
  4 18  1  0
 12 19  1  0
 13 20  1  0
M  END
>  <meeko>  (2) 
{"is_sidechain": [false], "free_energy": -8.072, "intermolecular_energy": -8.072, "internal_energy": 0.0}

$$$$
3jya_ligand
     RDKit          3D

 20 22  0  0  0  0  0  0  0  0999 V2000
    5.9610   83.0210    4.4080 O   0  0  0  0  0  0  0  0  0  0  0  0
    5.4220   82.9220    3.3100 C   0  0  0  0  0  0  0  0  0  0  0  0
    4.0750   83.1550    3.1630 N   0  0  0  0  0  0  0  0  0  0  0  0
    3.4340   83.0550    1.9530 C   0  0  0  0  0  0  0  0  0  0  0  0
    3.9820   82.7410    0.8250 N   0  0  0  0  0  0  0  0  0  0  0  0
    5.3660   82.4850    0.8910 C   0  0  0  0  0  0  0  0  0  0  0  0
    6.0500   82.5710    2.0710 C   0  0  0  0  0  0  0  0  0  0  0  0
    7.6850   82.2230    1.8990 S   0  0  0  0  0  0  0  0  0  0  0  0
    7.5190   81.9390    0.1930 C   0  0  0  0  0  0  0  0  0  0  0  0
    8.5370   81.5730   -0.7210 C   0  0  0  0  0  0  0  0  0  0  0  0
   10.1750   81.3490   -0.2210 Cl  0  0  0  0  0  0  0  0  0  0  0  0
    8.2280   81.3830   -2.0700 C   0  0  0  0  0  0  0  0  0  0  0  0
    6.9290   81.5520   -2.5190 C   0  0  0  0  0  0  0  0  0  0  0  0
    5.9280   81.9120   -1.6150 C   0  0  0  0  0  0  0  0  0  0  0  0
    4.3240   82.1190   -2.1790 Cl  0  0  0  0  0  0  0  0  0  0  0  0
    6.1840   82.1190   -0.2330 C   0  0  0  0  0  0  0  0  0  0  0  0
    3.5720   83.4070    4.0010 H   0  0  0  0  0  0  0  0  0  0  0  0
    2.3536   83.2613    1.9424 H   0  0  0  0  0  0  0  0  0  0  0  0
    9.0197   81.0980   -2.7785 H   0  0  0  0  0  0  0  0  0  0  0  0
    6.6873   81.4034   -3.5818 H   0  0  0  0  0  0  0  0  0  0  0  0
  1  2  2  0
  2  3  1  0
  3  4  1  0
  4  5  2  0
  5  6  1  0
  6  7  2  0
  7  8  1  0
  8  9  1  0
  9 10  2  0
 10 11  1  0
 10 12  1  0
 12 13  2  0
 13 14  1  0
 14 15  1  0
 14 16  2  0
  7  2  1  0
 16  9  1  0
 16  6  1  0
  3 17  1  0
  4 18  1  0
 12 19  1  0
 13 20  1  0
M  END
>  <meeko>  (3) 
{"is_sidechain": [false], "free_energy": -7.944, "intermolecular_energy": -7.944, "internal_energy": 0.0}

$$$$
3jya_ligand
     RDKit          3D

 20 22  0  0  0  0  0  0  0  0999 V2000
    4.6070   83.4210    3.8630 O   0  0  0  0  0  0  0  0  0  0  0  0
    5.7140   83.0830    3.4530 C   0  0  0  0  0  0  0  0  0  0  0  0
    6.7950   83.0300    4.3020 N   0  0  0  0  0  0  0  0  0  0  0  0
    8.0470   82.6590    3.8820 C   0  0  0  0  0  0  0  0  0  0  0  0
    8.3790   82.3180    2.6800 N   0  0  0  0  0  0  0  0  0  0  0  0
    7.3240   82.3460    1.7470 C   0  0  0  0  0  0  0  0  0  0  0  0
    6.0580   82.7100    2.1130 C   0  0  0  0  0  0  0  0  0  0  0  0
    4.9730   82.6660    0.8300 S   0  0  0  0  0  0  0  0  0  0  0  0
    6.2010   82.1460   -0.2840 C   0  0  0  0  0  0  0  0  0  0  0  0
    6.0500   81.8730   -1.6660 C   0  0  0  0  0  0  0  0  0  0  0  0
    4.5280   82.0350   -2.4660 Cl  0  0  0  0  0  0  0  0  0  0  0  0
    7.1510   81.4610   -2.4200 C   0  0  0  0  0  0  0  0  0  0  0  0
    8.3920   81.3160   -1.8230 C   0  0  0  0  0  0  0  0  0  0  0  0
    8.5370   81.5870   -0.4610 C   0  0  0  0  0  0  0  0  0  0  0  0
   10.0760   81.4060    0.2690 Cl  0  0  0  0  0  0  0  0  0  0  0  0
    7.4540   82.0090    0.3550 C   0  0  0  0  0  0  0  0  0  0  0  0
    6.6190   83.2830    5.2620 H   0  0  0  0  0  0  0  0  0  0  0  0
    8.8442   82.6509    4.6399 H   0  0  0  0  0  0  0  0  0  0  0  0
    7.0318   81.2507   -3.4931 H   0  0  0  0  0  0  0  0  0  0  0  0
    9.2578   80.9895   -2.4178 H   0  0  0  0  0  0  0  0  0  0  0  0
  1  2  2  0
  2  3  1  0
  3  4  1  0
  4  5  2  0
  5  6  1  0
  6  7  2  0
  7  8  1  0
  8  9  1  0
  9 10  2  0
 10 11  1  0
 10 12  1  0
 12 13  2  0
 13 14  1  0
 14 15  1  0
 14 16  2  0
  7  2  1  0
 16  9  1  0
 16  6  1  0
  3 17  1  0
  4 18  1  0
 12 19  1  0
 13 20  1  0
M  END
>  <meeko>  (4) 
{"is_sidechain": [false], "free_energy": -7.912, "intermolecular_energy": -7.912, "internal_energy": 0.0}

$$$$
3jya_ligand
     RDKit          3D

 20 22  0  0  0  0  0  0  0  0999 V2000
    9.3670   80.6280   -2.9760 O   0  0  0  0  0  0  0  0  0  0  0  0
    9.2060   80.9480   -1.8020 C   0  0  0  0  0  0  0  0  0  0  0  0
   10.2370   80.8490   -0.8970 N   0  0  0  0  0  0  0  0  0  0  0  0
   10.0970   81.1950    0.4230 C   0  0  0  0  0  0  0  0  0  0  0  0
    9.0220   81.6460    0.9840 N   0  0  0  0  0  0  0  0  0  0  0  0
    7.9170   81.7760    0.1210 C   0  0  0  0  0  0  0  0  0  0  0  0
    8.0030   81.4450   -1.2020 C   0  0  0  0  0  0  0  0  0  0  0  0
    6.5590   81.6860   -2.0270 S   0  0  0  0  0  0  0  0  0  0  0  0
    5.7540   82.2560   -0.5960 C   0  0  0  0  0  0  0  0  0  0  0  0
    4.4090   82.6840   -0.4790 C   0  0  0  0  0  0  0  0  0  0  0  0
    3.3330   82.6940   -1.8300 Cl  0  0  0  0  0  0  0  0  0  0  0  0
    3.9200   83.1150    0.7570 C   0  0  0  0  0  0  0  0  0  0  0  0
    4.7450   83.1270    1.8690 C   0  0  0  0  0  0  0  0  0  0  0  0
    6.0690   82.7030    1.7490 C   0  0  0  0  0  0  0  0  0  0  0  0
    7.0820   82.7200    3.1300 Cl  0  0  0  0  0  0  0  0  0  0  0  0
    6.6210   82.2550    0.5190 C   0  0  0  0  0  0  0  0  0  0  0  0
   11.1140   80.5040   -1.2570 H   0  0  0  0  0  0  0  0  0  0  0  0
   10.9824   81.0779    1.0652 H   0  0  0  0  0  0  0  0  0  0  0  0
    2.8749   83.4463    0.8470 H   0  0  0  0  0  0  0  0  0  0  0  0
    4.3591   83.4686    2.8408 H   0  0  0  0  0  0  0  0  0  0  0  0
  1  2  2  0
  2  3  1  0
  3  4  1  0
  4  5  2  0
  5  6  1  0
  6  7  2  0
  7  8  1  0
  8  9  1  0
  9 10  2  0
 10 11  1  0
 10 12  1  0
 12 13  2  0
 13 14  1  0
 14 15  1  0
 14 16  2  0
  7  2  1  0
 16  9  1  0
 16  6  1  0
  3 17  1  0
  4 18  1  0
 12 19  1  0
 13 20  1  0
M  END
>  <meeko>  (5) 
{"is_sidechain": [false], "free_energy": -7.773, "intermolecular_energy": -7.773, "internal_energy": 0.0}

$$$$
3jya_ligand
     RDKit          3D

 20 22  0  0  0  0  0  0  0  0999 V2000
   10.9390   80.8610   -0.2740 O   0  0  0  0  0  0  0  0  0  0  0  0
    9.8910   80.9940   -0.8980 C   0  0  0  0  0  0  0  0  0  0  0  0
    9.8160   80.6550   -2.2290 N   0  0  0  0  0  0  0  0  0  0  0  0
    8.6640   80.7880   -2.9620 C   0  0  0  0  0  0  0  0  0  0  0  0
    7.5300   81.2320   -2.5270 N   0  0  0  0  0  0  0  0  0  0  0  0
    7.5240   81.6020   -1.1680 C   0  0  0  0  0  0  0  0  0  0  0  0
    8.6440   81.4890   -0.3940 C   0  0  0  0  0  0  0  0  0  0  0  0
    8.3920   81.9910    1.1900 S   0  0  0  0  0  0  0  0  0  0  0  0
    6.7290   82.3840    0.8770 C   0  0  0  0  0  0  0  0  0  0  0  0
    5.7810   82.9050    1.7910 C   0  0  0  0  0  0  0  0  0  0  0  0
    6.1870   83.2340    3.4370 Cl  0  0  0  0  0  0  0  0  0  0  0  0
    4.4750   83.1660    1.3690 C   0  0  0  0  0  0  0  0  0  0  0  0
    4.1020   82.9180    0.0590 C   0  0  0  0  0  0  0  0  0  0  0  0
    5.0400   82.4060   -0.8400 C   0  0  0  0  0  0  0  0  0  0  0  0
    4.5700   82.1020   -2.4590 Cl  0  0  0  0  0  0  0  0  0  0  0  0
    6.3810   82.1200   -0.4670 C   0  0  0  0  0  0  0  0  0  0  0  0
   10.6620   80.2990   -2.6460 H   0  0  0  0  0  0  0  0  0  0  0  0
    8.7092   80.4887   -4.0195 H   0  0  0  0  0  0  0  0  0  0  0  0
    3.7400   83.5702    2.0806 H   0  0  0  0  0  0  0  0  0  0  0  0
    3.0731   83.1230   -0.2717 H   0  0  0  0  0  0  0  0  0  0  0  0
  1  2  2  0
  2  3  1  0
  3  4  1  0
  4  5  2  0
  5  6  1  0
  6  7  2  0
  7  8  1  0
  8  9  1  0
  9 10  2  0
 10 11  1  0
 10 12  1  0
 12 13  2  0
 13 14  1  0
 14 15  1  0
 14 16  2  0
  7  2  1  0
 16  9  1  0
 16  6  1  0
  3 17  1  0
  4 18  1  0
 12 19  1  0
 13 20  1  0
M  END
>  <meeko>  (6) 
{"is_sidechain": [false], "free_energy": -7.578, "intermolecular_energy": -7.578, "internal_energy": 0.0}

$$$$
3jya_ligand
     RDKit          3D

 20 22  0  0  0  0  0  0  0  0999 V2000
    8.1490   82.6620    4.0020 O   0  0  0  0  0  0  0  0  0  0  0  0
    7.0210   82.8130    3.5420 C   0  0  0  0  0  0  0  0  0  0  0  0
    5.9810   83.2180    4.3460 N   0  0  0  0  0  0  0  0  0  0  0  0
    4.7060   83.3980    3.8710 C   0  0  0  0  0  0  0  0  0  0  0  0
    4.3150   83.2220    2.6500 N   0  0  0  0  0  0  0  0  0  0  0  0
    5.3250   82.8060    1.7620 C   0  0  0  0  0  0  0  0  0  0  0  0
    6.6100   82.6110    2.1840 C   0  0  0  0  0  0  0  0  0  0  0  0
    7.6330   82.1170    0.9450 S   0  0  0  0  0  0  0  0  0  0  0  0
    6.3490   82.1500   -0.2250 C   0  0  0  0  0  0  0  0  0  0  0  0
    6.4330   81.8340   -1.6030 C   0  0  0  0  0  0  0  0  0  0  0  0
    7.9170   81.3450   -2.3380 Cl  0  0  0  0  0  0  0  0  0  0  0  0
    5.2930   81.9130   -2.4070 C   0  0  0  0  0  0  0  0  0  0  0  0
    4.0800   82.3010   -1.8630 C   0  0  0  0  0  0  0  0  0  0  0  0
    4.0020   82.6110   -0.5040 C   0  0  0  0  0  0  0  0  0  0  0  0
    2.4970   83.0880    0.1610 Cl  0  0  0  0  0  0  0  0  0  0  0  0
    5.1260   82.5480    0.3610 C   0  0  0  0  0  0  0  0  0  0  0  0
    6.2040   83.3770    5.3170 H   0  0  0  0  0  0  0  0  0  0  0  0
    3.9451   83.7223    4.5962 H   0  0  0  0  0  0  0  0  0  0  0  0
    5.3593   81.6659   -3.4768 H   0  0  0  0  0  0  0  0  0  0  0  0
    3.1837   82.3645   -2.4976 H   0  0  0  0  0  0  0  0  0  0  0  0
  1  2  2  0
  2  3  1  0
  3  4  1  0
  4  5  2  0
  5  6  1  0
  6  7  2  0
  7  8  1  0
  8  9  1  0
  9 10  2  0
 10 11  1  0
 10 12  1  0
 12 13  2  0
 13 14  1  0
 14 15  1  0
 14 16  2  0
  7  2  1  0
 16  9  1  0
 16  6  1  0
  3 17  1  0
  4 18  1  0
 12 19  1  0
 13 20  1  0
M  END
>  <meeko>  (7) 
{"is_sidechain": [false], "free_energy": -7.306, "intermolecular_energy": -7.306, "internal_energy": 0.0}

$$$$
3jya_ligand
     RDKit          3D

 20 22  0  0  0  0  0  0  0  0999 V2000
    8.7400   82.0370    3.3000 O   0  0  0  0  0  0  0  0  0  0  0  0
    8.4240   81.9450    2.1180 C   0  0  0  0  0  0  0  0  0  0  0  0
    9.3480   81.5750    1.1680 N   0  0  0  0  0  0  0  0  0  0  0  0
    9.0350   81.4610   -0.1630 C   0  0  0  0  0  0  0  0  0  0  0  0
    7.8760   81.6760   -0.6950 N   0  0  0  0  0  0  0  0  0  0  0  0
    6.8720   82.0610    0.2140 C   0  0  0  0  0  0  0  0  0  0  0  0
    7.1320   82.1890    1.5500 C   0  0  0  0  0  0  0  0  0  0  0  0
    5.7790   82.6570    2.4320 S   0  0  0  0  0  0  0  0  0  0  0  0
    4.7800   82.7030    1.0110 C   0  0  0  0  0  0  0  0  0  0  0  0
    3.4060   83.0390    0.9360 C   0  0  0  0  0  0  0  0  0  0  0  0
    2.4950   83.4710    2.3390 Cl  0  0  0  0  0  0  0  0  0  0  0  0
    2.7510   83.0260   -0.2970 C   0  0  0  0  0  0  0  0  0  0  0  0
    3.4390   82.6850   -1.4490 C   0  0  0  0  0  0  0  0  0  0  0  0
    4.7930   82.3560   -1.3720 C   0  0  0  0  0  0  0  0  0  0  0  0
    5.6370   81.9360   -2.8020 Cl  0  0  0  0  0  0  0  0  0  0  0  0
    5.5110   82.3520   -0.1460 C   0  0  0  0  0  0  0  0  0  0  0  0
   10.2810   81.3890    1.5030 H   0  0  0  0  0  0  0  0  0  0  0  0
    9.8462   81.1582   -0.8414 H   0  0  0  0  0  0  0  0  0  0  0  0
    1.6841   83.2877   -0.3533 H   0  0  0  0  0  0  0  0  0  0  0  0
    2.9213   82.6734   -2.4195 H   0  0  0  0  0  0  0  0  0  0  0  0
  1  2  2  0
  2  3  1  0
  3  4  1  0
  4  5  2  0
  5  6  1  0
  6  7  2  0
  7  8  1  0
  8  9  1  0
  9 10  2  0
 10 11  1  0
 10 12  1  0
 12 13  2  0
 13 14  1  0
 14 15  1  0
 14 16  2  0
  7  2  1  0
 16  9  1  0
 16  6  1  0
  3 17  1  0
  4 18  1  0
 12 19  1  0
 13 20  1  0
M  END
>  <meeko>  (8) 
{"is_sidechain": [false], "free_energy": -7.304, "intermolecular_energy": -7.304, "internal_energy": 0.0}

$$$$
3jya_ligand
     RDKit          3D

 20 22  0  0  0  0  0  0  0  0999 V2000
    9.4700   81.5280    1.8530 O   0  0  0  0  0  0  0  0  0  0  0  0
    8.3700   81.8870    2.2640 C   0  0  0  0  0  0  0  0  0  0  0  0
    8.1660   82.1380    3.6010 N   0  0  0  0  0  0  0  0  0  0  0  0
    6.9520   82.5400    4.1000 C   0  0  0  0  0  0  0  0  0  0  0  0
    5.8720   82.7330    3.4160 N   0  0  0  0  0  0  0  0  0  0  0  0
    6.0000   82.4970    2.0330 C   0  0  0  0  0  0  0  0  0  0  0  0
    7.1850   82.0950    1.4860 C   0  0  0  0  0  0  0  0  0  0  0  0
    7.0910   81.8780   -0.1790 S   0  0  0  0  0  0  0  0  0  0  0  0
    5.4130   82.3280   -0.2140 C   0  0  0  0  0  0  0  0  0  0  0  0
    4.5630   82.3930   -1.3460 C   0  0  0  0  0  0  0  0  0  0  0  0
    5.1270   82.0090   -2.9320 Cl  0  0  0  0  0  0  0  0  0  0  0  0
    3.2290   82.7770   -1.1950 C   0  0  0  0  0  0  0  0  0  0  0  0
    2.7310   83.0960    0.0580 C   0  0  0  0  0  0  0  0  0  0  0  0
    3.5710   83.0290    1.1700 C   0  0  0  0  0  0  0  0  0  0  0  0
    2.9470   83.4250    2.7160 Cl  0  0  0  0  0  0  0  0  0  0  0  0
    4.9360   82.6460    1.0780 C   0  0  0  0  0  0  0  0  0  0  0  0
    8.9630   82.0090    4.2050 H   0  0  0  0  0  0  0  0  0  0  0  0
    6.8924   82.7144    5.1844 H   0  0  0  0  0  0  0  0  0  0  0  0
    2.5705   82.8265   -2.0748 H   0  0  0  0  0  0  0  0  0  0  0  0
    1.6804   83.4001    0.1753 H   0  0  0  0  0  0  0  0  0  0  0  0
  1  2  2  0
  2  3  1  0
  3  4  1  0
  4  5  2  0
  5  6  1  0
  6  7  2  0
  7  8  1  0
  8  9  1  0
  9 10  2  0
 10 11  1  0
 10 12  1  0
 12 13  2  0
 13 14  1  0
 14 15  1  0
 14 16  2  0
  7  2  1  0
 16  9  1  0
 16  6  1  0
  3 17  1  0
  4 18  1  0
 12 19  1  0
 13 20  1  0
M  END
>  <meeko>  (9) 
{"is_sidechain": [false], "free_energy": -7.204, "intermolecular_energy": -7.204, "internal_energy": 0.0}

$$$$
