2v00_ligand
     RDKit          3D

 29 30  0  0  0  0  0  0  0  0999 V2000
    2.0770    5.2150    9.2370 N   0  0  0  0  0  0  0  0  0  0  0  0
    0.7490    5.1350    9.4970 C   0  0  0  0  0  0  0  0  0  0  0  0
    0.2660    4.1140   10.1290 N   0  0  0  0  0  0  0  0  0  0  0  0
   -1.0880    4.0880   10.3700 C   0  0  0  0  0  0  0  0  0  0  0  0
   -1.5920    2.8840   11.1310 C   0  0  0  0  0  0  0  0  0  0  0  0
   -3.0980    2.9650   11.3990 C   0  0  0  0  0  0  0  0  0  0  0  0
   -3.7850    1.6520   11.1120 C   0  0  0  0  0  0  0  0  0  0  0  0
   -3.0370    0.4740   10.9830 C   0  0  0  0  0  0  0  0  0  0  0  0
   -3.6730   -0.7440   10.7370 C   0  0  0  0  0  0  0  0  0  0  0  0
   -5.0610   -0.7970   10.6230 C   0  0  0  0  0  0  0  0  0  0  0  0
   -5.8150    0.3690   10.7550 C   0  0  0  0  0  0  0  0  0  0  0  0
   -5.1810    1.5880   11.0010 C   0  0  0  0  0  0  0  0  0  0  0  0
   -1.9280    5.0590    9.9830 C   0  0  0  0  0  0  0  0  0  0  0  0
   -1.3700    6.2020    9.2500 C   0  0  0  0  0  0  0  0  0  0  0  0
   -2.0820    7.1070    8.8330 O   0  0  0  0  0  0  0  0  0  0  0  0
   -0.0210    6.1720    9.0710 N   0  0  0  0  0  0  0  0  0  0  0  0
    2.4410    4.5370    8.5820 H   0  0  0  0  0  0  0  0  0  0  0  0
    2.3460    6.1650    8.9970 H   0  0  0  0  0  0  0  0  0  0  0  0
   -1.3841    1.9787   10.5418 H   0  0  0  0  0  0  0  0  0  0  0  0
   -1.0749    2.8540   12.1014 H   0  0  0  0  0  0  0  0  0  0  0  0
   -3.2590    3.2288   12.4547 H   0  0  0  0  0  0  0  0  0  0  0  0
   -3.5252    3.7295   10.7334 H   0  0  0  0  0  0  0  0  0  0  0  0
   -1.9415    0.5094   11.0762 H   0  0  0  0  0  0  0  0  0  0  0  0
   -3.0779   -1.6632   10.6330 H   0  0  0  0  0  0  0  0  0  0  0  0
   -5.5613   -1.7573   10.4291 H   0  0  0  0  0  0  0  0  0  0  0  0
   -6.9106    0.3279   10.6651 H   0  0  0  0  0  0  0  0  0  0  0  0
   -5.7805    2.5040   11.1084 H   0  0  0  0  0  0  0  0  0  0  0  0
   -3.0032    5.0008   10.2081 H   0  0  0  0  0  0  0  0  0  0  0  0
    0.3790    6.9210    8.5320 H   0  0  0  0  0  0  0  0  0  0  0  0
  1  2  1  0
  2  3  2  0
  3  4  1  0
  4  5  1  0
  5  6  1  0
  6  7  1  0
  7  8  2  0
  8  9  1  0
  9 10  2  0
 10 11  1  0
 11 12  2  0
  4 13  2  0
 13 14  1  0
 14 15  2  0
 14 16  1  0
 16  2  1  0
 12  7  1  0
  1 17  1  0
  1 18  1  0
  5 19  1  0
  5 20  1  0
  6 21  1  0
  6 22  1  0
  8 23  1  0
  9 24  1  0
 10 25  1  0
 11 26  1  0
 12 27  1  0
 13 28  1  0
 16 29  1  0
M  END
>  <meeko>  (1) 
{"is_sidechain": [false], "free_energy": -7.648, "intermolecular_energy": -9.213, "internal_energy": -0.374}

$$$$
2v00_ligand
     RDKit          3D

 29 30  0  0  0  0  0  0  0  0999 V2000
   -2.1020    6.5230    7.2940 N   0  0  0  0  0  0  0  0  0  0  0  0
   -1.5670    5.8200    8.3230 C   0  0  0  0  0  0  0  0  0  0  0  0
   -2.3340    5.1830    9.1490 N   0  0  0  0  0  0  0  0  0  0  0  0
   -1.7360    4.4820   10.1710 C   0  0  0  0  0  0  0  0  0  0  0  0
   -2.6780    3.7390   11.0900 C   0  0  0  0  0  0  0  0  0  0  0  0
   -2.1450    2.3490   11.4540 C   0  0  0  0  0  0  0  0  0  0  0  0
   -3.1670    1.2730   11.1780 C   0  0  0  0  0  0  0  0  0  0  0  0
   -2.7830   -0.0740   11.1340 C   0  0  0  0  0  0  0  0  0  0  0  0
   -3.7310   -1.0710   10.8990 C   0  0  0  0  0  0  0  0  0  0  0  0
   -5.0690   -0.7330   10.7100 C   0  0  0  0  0  0  0  0  0  0  0  0
   -5.4620    0.6040   10.7570 C   0  0  0  0  0  0  0  0  0  0  0  0
   -4.5160    1.6030   10.9920 C   0  0  0  0  0  0  0  0  0  0  0  0
   -0.4090    4.4290   10.3550 C   0  0  0  0  0  0  0  0  0  0  0  0
    0.4470    5.1720    9.4230 C   0  0  0  0  0  0  0  0  0  0  0  0
    1.6650    5.1990    9.5530 O   0  0  0  0  0  0  0  0  0  0  0  0
   -0.2110    5.8200    8.4240 N   0  0  0  0  0  0  0  0  0  0  0  0
   -2.8260    6.0530    6.7690 H   0  0  0  0  0  0  0  0  0  0  0  0
   -2.3840    7.4510    7.5940 H   0  0  0  0  0  0  0  0  0  0  0  0
   -2.8080    4.3228   12.0132 H   0  0  0  0  0  0  0  0  0  0  0  0
   -3.6353    3.6095   10.5639 H   0  0  0  0  0  0  0  0  0  0  0  0
   -1.2426    2.1455   10.8589 H   0  0  0  0  0  0  0  0  0  0  0  0
   -1.9162    2.3388   12.5299 H   0  0  0  0  0  0  0  0  0  0  0  0
   -1.7283   -0.3471   11.2856 H   0  0  0  0  0  0  0  0  0  0  0  0
   -3.4209   -2.1258   10.8630 H   0  0  0  0  0  0  0  0  0  0  0  0
   -5.8147   -1.5199   10.5239 H   0  0  0  0  0  0  0  0  0  0  0  0
   -6.5186    0.8717   10.6087 H   0  0  0  0  0  0  0  0  0  0  0  0
   -4.8315    2.6560   11.0314 H   0  0  0  0  0  0  0  0  0  0  0  0
    0.0253    3.8457   11.1803 H   0  0  0  0  0  0  0  0  0  0  0  0
    0.3500    6.3730    7.7990 H   0  0  0  0  0  0  0  0  0  0  0  0
  1  2  1  0
  2  3  2  0
  3  4  1  0
  4  5  1  0
  5  6  1  0
  6  7  1  0
  7  8  2  0
  8  9  1  0
  9 10  2  0
 10 11  1  0
 11 12  2  0
  4 13  2  0
 13 14  1  0
 14 15  2  0
 14 16  1  0
 16  2  1  0
 12  7  1  0
  1 17  1  0
  1 18  1  0
  5 19  1  0
  5 20  1  0
  6 21  1  0
  6 22  1  0
  8 23  1  0
  9 24  1  0
 10 25  1  0
 11 26  1  0
 12 27  1  0
 13 28  1  0
 16 29  1  0
M  END
>  <meeko>  (2) 
{"is_sidechain": [false], "free_energy": -7.17, "intermolecular_energy": -8.653, "internal_energy": -0.358}

$$$$
2v00_ligand
     RDKit          3D

 29 30  0  0  0  0  0  0  0  0999 V2000
   -6.6070    2.2710   11.4350 N   0  0  0  0  0  0  0  0  0  0  0  0
   -5.3930    1.7660   11.1070 C   0  0  0  0  0  0  0  0  0  0  0  0
   -4.3140    2.2850   11.5990 N   0  0  0  0  0  0  0  0  0  0  0  0
   -3.1080    1.7290   11.2360 C   0  0  0  0  0  0  0  0  0  0  0  0
   -1.8850    2.3600   11.8590 C   0  0  0  0  0  0  0  0  0  0  0  0
   -0.7950    2.6440   10.8200 C   0  0  0  0  0  0  0  0  0  0  0  0
   -0.8390    4.0770   10.3470 C   0  0  0  0  0  0  0  0  0  0  0  0
   -2.0480    4.6490    9.9290 C   0  0  0  0  0  0  0  0  0  0  0  0
   -2.0930    5.9790    9.5100 C   0  0  0  0  0  0  0  0  0  0  0  0
   -0.9330    6.7510    9.5080 C   0  0  0  0  0  0  0  0  0  0  0  0
    0.2750    6.1930    9.9260 C   0  0  0  0  0  0  0  0  0  0  0  0
    0.3220    4.8620   10.3460 C   0  0  0  0  0  0  0  0  0  0  0  0
   -2.9960    0.6860   10.4000 C   0  0  0  0  0  0  0  0  0  0  0  0
   -4.2260    0.1210    9.8340 C   0  0  0  0  0  0  0  0  0  0  0  0
   -4.1970   -0.8070    9.0350 O   0  0  0  0  0  0  0  0  0  0  0  0
   -5.3800    0.7040   10.2580 N   0  0  0  0  0  0  0  0  0  0  0  0
   -7.3330    2.1590   10.7410 H   0  0  0  0  0  0  0  0  0  0  0  0
   -6.8990    1.9510   12.3530 H   0  0  0  0  0  0  0  0  0  0  0  0
   -2.1775    3.3074   12.3353 H   0  0  0  0  0  0  0  0  0  0  0  0
   -1.4762    1.6541   12.5969 H   0  0  0  0  0  0  0  0  0  0  0  0
    0.1886    2.4469   11.2713 H   0  0  0  0  0  0  0  0  0  0  0  0
   -0.9671    1.9896    9.9527 H   0  0  0  0  0  0  0  0  0  0  0  0
   -2.9676    4.0454    9.9312 H   0  0  0  0  0  0  0  0  0  0  0  0
   -3.0459    6.4189    9.1807 H   0  0  0  0  0  0  0  0  0  0  0  0
   -0.9699    7.7994    9.1771 H   0  0  0  0  0  0  0  0  0  0  0  0
    1.1912    6.8017    9.9248 H   0  0  0  0  0  0  0  0  0  0  0  0
    1.2762    4.4270   10.6781 H   0  0  0  0  0  0  0  0  0  0  0  0
   -2.0112    0.2667   10.1463 H   0  0  0  0  0  0  0  0  0  0  0  0
   -6.2340    0.3640    9.8490 H   0  0  0  0  0  0  0  0  0  0  0  0
  1  2  1  0
  2  3  2  0
  3  4  1  0
  4  5  1  0
  5  6  1  0
  6  7  1  0
  7  8  2  0
  8  9  1  0
  9 10  2  0
 10 11  1  0
 11 12  2  0
  4 13  2  0
 13 14  1  0
 14 15  2  0
 14 16  1  0
 16  2  1  0
 12  7  1  0
  1 17  1  0
  1 18  1  0
  5 19  1  0
  5 20  1  0
  6 21  1  0
  6 22  1  0
  8 23  1  0
  9 24  1  0
 10 25  1  0
 11 26  1  0
 12 27  1  0
 13 28  1  0
 16 29  1  0
M  END
>  <meeko>  (3) 
{"is_sidechain": [false], "free_energy": -6.984, "intermolecular_energy": -8.481, "internal_energy": -0.306}

$$$$
2v00_ligand
     RDKit          3D

 29 30  0  0  0  0  0  0  0  0999 V2000
    2.3910    5.2810    9.6320 N   0  0  0  0  0  0  0  0  0  0  0  0
    1.2080    5.9110    9.4320 C   0  0  0  0  0  0  0  0  0  0  0  0
    0.0970    5.3440    9.7770 N   0  0  0  0  0  0  0  0  0  0  0  0
   -1.0740    6.0320    9.5550 C   0  0  0  0  0  0  0  0  0  0  0  0
   -2.3370    5.3300    9.9990 C   0  0  0  0  0  0  0  0  0  0  0  0
   -2.6220    4.0800    9.1610 C   0  0  0  0  0  0  0  0  0  0  0  0
   -2.5980    2.8280   10.0060 C   0  0  0  0  0  0  0  0  0  0  0  0
   -3.1040    1.6230    9.5010 C   0  0  0  0  0  0  0  0  0  0  0  0
   -3.0650    0.4610   10.2730 C   0  0  0  0  0  0  0  0  0  0  0  0
   -2.5160    0.4920   11.5540 C   0  0  0  0  0  0  0  0  0  0  0  0
   -2.0040    1.6850   12.0630 C   0  0  0  0  0  0  0  0  0  0  0  0
   -2.0430    2.8480   11.2920 C   0  0  0  0  0  0  0  0  0  0  0  0
   -1.1220    7.2520    9.0010 C   0  0  0  0  0  0  0  0  0  0  0  0
    0.1430    7.8750    8.5960 C   0  0  0  0  0  0  0  0  0  0  0  0
    0.1730    8.9710    8.0490 O   0  0  0  0  0  0  0  0  0  0  0  0
    1.2610    7.1480    8.8690 N   0  0  0  0  0  0  0  0  0  0  0  0
    2.7060    5.2290   10.5910 H   0  0  0  0  0  0  0  0  0  0  0  0
    2.4050    4.3750    9.1720 H   0  0  0  0  0  0  0  0  0  0  0  0
   -2.2274    5.0340   11.0527 H   0  0  0  0  0  0  0  0  0  0  0  0
   -3.1779    6.0269    9.8675 H   0  0  0  0  0  0  0  0  0  0  0  0
   -3.6147    4.1793    8.6977 H   0  0  0  0  0  0  0  0  0  0  0  0
   -1.8381    3.9932    8.3942 H   0  0  0  0  0  0  0  0  0  0  0  0
   -3.5349    1.5926    8.4893 H   0  0  0  0  0  0  0  0  0  0  0  0
   -3.4678   -0.4801    9.8703 H   0  0  0  0  0  0  0  0  0  0  0  0
   -2.4867   -0.4238   12.1627 H   0  0  0  0  0  0  0  0  0  0  0  0
   -1.5690    1.7096   13.0730 H   0  0  0  0  0  0  0  0  0  0  0  0
   -1.6354    3.7861   11.6968 H   0  0  0  0  0  0  0  0  0  0  0  0
   -2.0811    7.7703    8.8545 H   0  0  0  0  0  0  0  0  0  0  0  0
    2.1370    7.5340    8.5600 H   0  0  0  0  0  0  0  0  0  0  0  0
  1  2  1  0
  2  3  2  0
  3  4  1  0
  4  5  1  0
  5  6  1  0
  6  7  1  0
  7  8  2  0
  8  9  1  0
  9 10  2  0
 10 11  1  0
 11 12  2  0
  4 13  2  0
 13 14  1  0
 14 15  2  0
 14 16  1  0
 16  2  1  0
 12  7  1  0
  1 17  1  0
  1 18  1  0
  5 19  1  0
  5 20  1  0
  6 21  1  0
  6 22  1  0
  8 23  1  0
  9 24  1  0
 10 25  1  0
 11 26  1  0
 12 27  1  0
 13 28  1  0
 16 29  1  0
M  END
>  <meeko>  (4) 
{"is_sidechain": [false], "free_energy": -6.9, "intermolecular_energy": -8.3, "internal_energy": -0.385}

$$$$
2v00_ligand
     RDKit          3D

 29 30  0  0  0  0  0  0  0  0999 V2000
    1.6160    9.8890    8.2550 N   0  0  0  0  0  0  0  0  0  0  0  0
    0.6700    8.9480    8.4920 C   0  0  0  0  0  0  0  0  0  0  0  0
    0.9070    7.9730    9.3100 N   0  0  0  0  0  0  0  0  0  0  0  0
   -0.0910    7.0490    9.5170 C   0  0  0  0  0  0  0  0  0  0  0  0
    0.2330    5.9480   10.4990 C   0  0  0  0  0  0  0  0  0  0  0  0
    0.1030    4.5590    9.8660 C   0  0  0  0  0  0  0  0  0  0  0  0
   -0.9570    3.7310   10.5540 C   0  0  0  0  0  0  0  0  0  0  0  0
   -2.3140    4.0360   10.3850 C   0  0  0  0  0  0  0  0  0  0  0  0
   -3.2940    3.2600   11.0060 C   0  0  0  0  0  0  0  0  0  0  0  0
   -2.9280    2.1710   11.7950 C   0  0  0  0  0  0  0  0  0  0  0  0
   -1.5800    1.8570   11.9640 C   0  0  0  0  0  0  0  0  0  0  0  0
   -0.5980    2.6320   11.3450 C   0  0  0  0  0  0  0  0  0  0  0  0
   -1.2880    7.1050    8.9150 C   0  0  0  0  0  0  0  0  0  0  0  0
   -1.5360    8.2030    7.9740 C   0  0  0  0  0  0  0  0  0  0  0  0
   -2.5920    8.2960    7.3600 O   0  0  0  0  0  0  0  0  0  0  0  0
   -0.5150    9.0930    7.8400 N   0  0  0  0  0  0  0  0  0  0  0  0
    1.8950   10.0010    7.2900 H   0  0  0  0  0  0  0  0  0  0  0  0
    1.3680   10.7730    8.6890 H   0  0  0  0  0  0  0  0  0  0  0  0
    1.2655    6.0813   10.8543 H   0  0  0  0  0  0  0  0  0  0  0  0
   -0.4847    6.0115   11.3302 H   0  0  0  0  0  0  0  0  0  0  0  0
   -0.1662    4.6738    8.8056 H   0  0  0  0  0  0  0  0  0  0  0  0
    1.0674    4.0407    9.9728 H   0  0  0  0  0  0  0  0  0  0  0  0
   -2.6086    4.8916    9.7596 H   0  0  0  0  0  0  0  0  0  0  0  0
   -4.3572    3.5084   10.8724 H   0  0  0  0  0  0  0  0  0  0  0  0
   -3.7014    1.5601   12.2837 H   0  0  0  0  0  0  0  0  0  0  0  0
   -1.2901    0.9973   12.5860 H   0  0  0  0  0  0  0  0  0  0  0  0
    0.4639    2.3783   11.4791 H   0  0  0  0  0  0  0  0  0  0  0  0
   -2.0611    6.3500    9.1206 H   0  0  0  0  0  0  0  0  0  0  0  0
   -0.6440    9.8290    7.1670 H   0  0  0  0  0  0  0  0  0  0  0  0
  1  2  1  0
  2  3  2  0
  3  4  1  0
  4  5  1  0
  5  6  1  0
  6  7  1  0
  7  8  2  0
  8  9  1  0
  9 10  2  0
 10 11  1  0
 11 12  2  0
  4 13  2  0
 13 14  1  0
 14 15  2  0
 14 16  1  0
 16  2  1  0
 12  7  1  0
  1 17  1  0
  1 18  1  0
  5 19  1  0
  5 20  1  0
  6 21  1  0
  6 22  1  0
  8 23  1  0
  9 24  1  0
 10 25  1  0
 11 26  1  0
 12 27  1  0
 13 28  1  0
 16 29  1  0
M  END
>  <meeko>  (5) 
{"is_sidechain": [false], "free_energy": -6.867, "intermolecular_energy": -8.263, "internal_energy": -0.382}

$$$$
2v00_ligand
     RDKit          3D

 29 30  0  0  0  0  0  0  0  0999 V2000
   -2.9550    9.5440    6.4830 N   0  0  0  0  0  0  0  0  0  0  0  0
   -2.8300    8.2390    6.8290 C   0  0  0  0  0  0  0  0  0  0  0  0
   -2.3790    7.9130    7.9980 N   0  0  0  0  0  0  0  0  0  0  0  0
   -2.2780    6.5740    8.2980 C   0  0  0  0  0  0  0  0  0  0  0  0
   -1.7680    6.2530    9.6840 C   0  0  0  0  0  0  0  0  0  0  0  0
   -0.8330    5.0390    9.6830 C   0  0  0  0  0  0  0  0  0  0  0  0
   -1.3850    3.9120   10.5220 C   0  0  0  0  0  0  0  0  0  0  0  0
   -0.5200    2.9890   11.1250 C   0  0  0  0  0  0  0  0  0  0  0  0
   -1.0290    1.9580   11.9170 C   0  0  0  0  0  0  0  0  0  0  0  0
   -2.4030    1.8430   12.1170 C   0  0  0  0  0  0  0  0  0  0  0  0
   -3.2710    2.7600   11.5250 C   0  0  0  0  0  0  0  0  0  0  0  0
   -2.7650    3.7920   10.7330 C   0  0  0  0  0  0  0  0  0  0  0  0
   -2.6180    5.5960    7.4460 C   0  0  0  0  0  0  0  0  0  0  0  0
   -3.1090    5.9800    6.1170 C   0  0  0  0  0  0  0  0  0  0  0  0
   -3.4020    5.1410    5.2740 O   0  0  0  0  0  0  0  0  0  0  0  0
   -3.2060    7.3200    5.9000 N   0  0  0  0  0  0  0  0  0  0  0  0
   -2.4010    9.8450    5.6930 H   0  0  0  0  0  0  0  0  0  0  0  0
   -3.9320    9.8050    6.3910 H   0  0  0  0  0  0  0  0  0  0  0  0
   -1.2191    7.1240   10.0713 H   0  0  0  0  0  0  0  0  0  0  0  0
   -2.6342    6.0151   10.3189 H   0  0  0  0  0  0  0  0  0  0  0  0
   -0.7076    4.6858    8.6488 H   0  0  0  0  0  0  0  0  0  0  0  0
    0.1316    5.3472   10.1125 H   0  0  0  0  0  0  0  0  0  0  0  0
    0.5659    3.0773   10.9735 H   0  0  0  0  0  0  0  0  0  0  0  0
   -0.3439    1.2351   12.3840 H   0  0  0  0  0  0  0  0  0  0  0  0
   -2.8026    1.0300   12.7410 H   0  0  0  0  0  0  0  0  0  0  0  0
   -4.3559    2.6699   11.6824 H   0  0  0  0  0  0  0  0  0  0  0  0
   -3.4536    4.5153   10.2718 H   0  0  0  0  0  0  0  0  0  0  0  0
   -2.5316    4.5380    7.7342 H   0  0  0  0  0  0  0  0  0  0  0  0
   -3.4980    7.6090    4.9820 H   0  0  0  0  0  0  0  0  0  0  0  0
  1  2  1  0
  2  3  2  0
  3  4  1  0
  4  5  1  0
  5  6  1  0
  6  7  1  0
  7  8  2  0
  8  9  1  0
  9 10  2  0
 10 11  1  0
 11 12  2  0
  4 13  2  0
 13 14  1  0
 14 15  2  0
 14 16  1  0
 16  2  1  0
 12  7  1  0
  1 17  1  0
  1 18  1  0
  5 19  1  0
  5 20  1  0
  6 21  1  0
  6 22  1  0
  8 23  1  0
  9 24  1  0
 10 25  1  0
 11 26  1  0
 12 27  1  0
 13 28  1  0
 16 29  1  0
M  END
>  <meeko>  (6) 
{"is_sidechain": [false], "free_energy": -6.844, "intermolecular_energy": -8.177, "internal_energy": -0.441}

$$$$
2v00_ligand
     RDKit          3D

 29 30  0  0  0  0  0  0  0  0999 V2000
   -2.3350    1.0490    5.8440 N   0  0  0  0  0  0  0  0  0  0  0  0
   -3.2820    0.6250    6.7170 C   0  0  0  0  0  0  0  0  0  0  0  0
   -2.9930    0.4600    7.9680 N   0  0  0  0  0  0  0  0  0  0  0  0
   -3.9940    0.0330    8.8090 C   0  0  0  0  0  0  0  0  0  0  0  0
   -3.6050   -0.1190   10.2610 C   0  0  0  0  0  0  0  0  0  0  0  0
   -3.8970    1.1510   11.0690 C   0  0  0  0  0  0  0  0  0  0  0  0
   -2.8190    2.1900   10.8800 C   0  0  0  0  0  0  0  0  0  0  0  0
   -1.5150    1.9490   11.3340 C   0  0  0  0  0  0  0  0  0  0  0  0
   -0.5130    2.9010   11.1420 C   0  0  0  0  0  0  0  0  0  0  0  0
   -0.8020    4.0990   10.4920 C   0  0  0  0  0  0  0  0  0  0  0  0
   -2.0950    4.3460   10.0320 C   0  0  0  0  0  0  0  0  0  0  0  0
   -3.0990    3.3960   10.2230 C   0  0  0  0  0  0  0  0  0  0  0  0
   -5.2460   -0.2210    8.4020 C   0  0  0  0  0  0  0  0  0  0  0  0
   -5.5550   -0.0490    6.9770 C   0  0  0  0  0  0  0  0  0  0  0  0
   -6.6670   -0.3000    6.5270 O   0  0  0  0  0  0  0  0  0  0  0  0
   -4.5240    0.3990    6.2100 N   0  0  0  0  0  0  0  0  0  0  0  0
   -2.3060    2.0450    5.6750 H   0  0  0  0  0  0  0  0  0  0  0  0
   -1.4230    0.6710    6.0830 H   0  0  0  0  0  0  0  0  0  0  0  0
   -4.1730   -0.9549   10.6954 H   0  0  0  0  0  0  0  0  0  0  0  0
   -2.5224   -0.3087   10.3050 H   0  0  0  0  0  0  0  0  0  0  0  0
   -4.8589    1.5706   10.7393 H   0  0  0  0  0  0  0  0  0  0  0  0
   -3.9310    0.8805   12.1347 H   0  0  0  0  0  0  0  0  0  0  0  0
   -1.2801    1.0036   11.8448 H   0  0  0  0  0  0  0  0  0  0  0  0
    0.5069    2.7053   11.5045 H   0  0  0  0  0  0  0  0  0  0  0  0
   -0.0113    4.8489   10.3419 H   0  0  0  0  0  0  0  0  0  0  0  0
   -2.3238    5.2911    9.5178 H   0  0  0  0  0  0  0  0  0  0  0  0
   -4.1166    3.5948    9.8556 H   0  0  0  0  0  0  0  0  0  0  0  0
   -6.0181   -0.5482    9.1139 H   0  0  0  0  0  0  0  0  0  0  0  0
   -4.6990    0.4820    5.2240 H   0  0  0  0  0  0  0  0  0  0  0  0
  1  2  1  0
  2  3  2  0
  3  4  1  0
  4  5  1  0
  5  6  1  0
  6  7  1  0
  7  8  2  0
  8  9  1  0
  9 10  2  0
 10 11  1  0
 11 12  2  0
  4 13  2  0
 13 14  1  0
 14 15  2  0
 14 16  1  0
 16  2  1  0
 12  7  1  0
  1 17  1  0
  1 18  1  0
  5 19  1  0
  5 20  1  0
  6 21  1  0
  6 22  1  0
  8 23  1  0
  9 24  1  0
 10 25  1  0
 11 26  1  0
 12 27  1  0
 13 28  1  0
 16 29  1  0
M  END
>  <meeko>  (7) 
{"is_sidechain": [false], "free_energy": -6.738, "intermolecular_energy": -8.08, "internal_energy": -0.41}

$$$$
2v00_ligand
     RDKit          3D

 29 30  0  0  0  0  0  0  0  0999 V2000
    1.0880   10.2850    8.8570 N   0  0  0  0  0  0  0  0  0  0  0  0
    1.0420    9.1520    9.5990 C   0  0  0  0  0  0  0  0  0  0  0  0
    0.4360    8.1000    9.1480 N   0  0  0  0  0  0  0  0  0  0  0  0
    0.4240    6.9750    9.9410 C   0  0  0  0  0  0  0  0  0  0  0  0
   -0.2770    5.7720    9.3550 C   0  0  0  0  0  0  0  0  0  0  0  0
    0.2150    4.4620    9.9800 C   0  0  0  0  0  0  0  0  0  0  0  0
   -0.9180    3.6860   10.6080 C   0  0  0  0  0  0  0  0  0  0  0  0
   -0.6500    2.6040   11.4570 C   0  0  0  0  0  0  0  0  0  0  0  0
   -1.6970    1.8990   12.0530 C   0  0  0  0  0  0  0  0  0  0  0  0
   -3.0170    2.2700   11.8100 C   0  0  0  0  0  0  0  0  0  0  0  0
   -3.2940    3.3480   10.9700 C   0  0  0  0  0  0  0  0  0  0  0  0
   -2.2490    4.0560   10.3730 C   0  0  0  0  0  0  0  0  0  0  0  0
    1.0030    6.9150   11.1490 C   0  0  0  0  0  0  0  0  0  0  0  0
    1.6690    8.1200   11.6560 C   0  0  0  0  0  0  0  0  0  0  0  0
    2.1850    8.1500   12.7660 O   0  0  0  0  0  0  0  0  0  0  0  0
    1.6630    9.1850   10.8080 N   0  0  0  0  0  0  0  0  0  0  0  0
    0.8580   11.1410    9.3440 H   0  0  0  0  0  0  0  0  0  0  0  0
    1.9660   10.3550    8.3500 H   0  0  0  0  0  0  0  0  0  0  0  0
   -1.3579    5.8678    9.5351 H   0  0  0  0  0  0  0  0  0  0  0  0
   -0.0552    5.7398    8.2781 H   0  0  0  0  0  0  0  0  0  0  0  0
    0.6792    3.8449    9.1966 H   0  0  0  0  0  0  0  0  0  0  0  0
    0.9418    4.7084   10.7681 H   0  0  0  0  0  0  0  0  0  0  0  0
    0.3910    2.3086   11.6549 H   0  0  0  0  0  0  0  0  0  0  0  0
   -1.4789    1.0487   12.7159 H   0  0  0  0  0  0  0  0  0  0  0  0
   -3.8407    1.7130   12.2804 H   0  0  0  0  0  0  0  0  0  0  0  0
   -4.3367    3.6409   10.7775 H   0  0  0  0  0  0  0  0  0  0  0  0
   -2.4717    4.9087    9.7147 H   0  0  0  0  0  0  0  0  0  0  0  0
    0.9793    5.9892   11.7426 H   0  0  0  0  0  0  0  0  0  0  0  0
    2.0740   10.0370   11.1510 H   0  0  0  0  0  0  0  0  0  0  0  0
  1  2  1  0
  2  3  2  0
  3  4  1  0
  4  5  1  0
  5  6  1  0
  6  7  1  0
  7  8  2  0
  8  9  1  0
  9 10  2  0
 10 11  1  0
 11 12  2  0
  4 13  2  0
 13 14  1  0
 14 15  2  0
 14 16  1  0
 16  2  1  0
 12  7  1  0
  1 17  1  0
  1 18  1  0
  5 19  1  0
  5 20  1  0
  6 21  1  0
  6 22  1  0
  8 23  1  0
  9 24  1  0
 10 25  1  0
 11 26  1  0
 12 27  1  0
 13 28  1  0
 16 29  1  0
M  END
>  <meeko>  (8) 
{"is_sidechain": [false], "free_energy": -6.731, "intermolecular_energy": -8.051, "internal_energy": -0.431}

$$$$
2v00_ligand
     RDKit          3D

 29 30  0  0  0  0  0  0  0  0999 V2000
    0.9490    4.4390    9.6230 N   0  0  0  0  0  0  0  0  0  0  0  0
    1.0100    5.7760    9.8310 C   0  0  0  0  0  0  0  0  0  0  0  0
    1.2930    6.2440   11.0050 N   0  0  0  0  0  0  0  0  0  0  0  0
    1.3470    7.6100   11.1580 C   0  0  0  0  0  0  0  0  0  0  0  0
    1.7040    8.0970   12.5430 C   0  0  0  0  0  0  0  0  0  0  0  0
    2.8910    9.0670   12.5200 C   0  0  0  0  0  0  0  0  0  0  0  0
    3.6020    9.1060   13.8520 C   0  0  0  0  0  0  0  0  0  0  0  0
    4.1260   10.3110   14.3390 C   0  0  0  0  0  0  0  0  0  0  0  0
    4.7660   10.3520   15.5790 C   0  0  0  0  0  0  0  0  0  0  0  0
    4.8840    9.1930   16.3430 C   0  0  0  0  0  0  0  0  0  0  0  0
    4.3610    7.9910   15.8690 C   0  0  0  0  0  0  0  0  0  0  0  0
    3.7200    7.9470   14.6300 C   0  0  0  0  0  0  0  0  0  0  0  0
    1.1190    8.4760   10.1600 C   0  0  0  0  0  0  0  0  0  0  0  0
    0.7800    7.9340    8.8400 C   0  0  0  0  0  0  0  0  0  0  0  0
    0.5230    8.6660    7.8920 O   0  0  0  0  0  0  0  0  0  0  0  0
    0.7700    6.5750    8.7570 N   0  0  0  0  0  0  0  0  0  0  0  0
    1.8320    3.9490    9.6370 H   0  0  0  0  0  0  0  0  0  0  0  0
    0.2580    4.0060   10.2280 H   0  0  0  0  0  0  0  0  0  0  0  0
    0.8327    8.6114   12.9746 H   0  0  0  0  0  0  0  0  0  0  0  0
    1.9891    7.2239   13.1482 H   0  0  0  0  0  0  0  0  0  0  0  0
    3.6016    8.7435   11.7452 H   0  0  0  0  0  0  0  0  0  0  0  0
    2.5077   10.0753   12.3045 H   0  0  0  0  0  0  0  0  0  0  0  0
    4.0325   11.2295   13.7410 H   0  0  0  0  0  0  0  0  0  0  0  0
    5.1777   11.3008   15.9534 H   0  0  0  0  0  0  0  0  0  0  0  0
    5.3894    9.2264   17.3194 H   0  0  0  0  0  0  0  0  0  0  0  0
    4.4536    7.0759   16.4723 H   0  0  0  0  0  0  0  0  0  0  0  0
    3.3051    6.9969   14.2623 H   0  0  0  0  0  0  0  0  0  0  0  0
    1.1843    9.5614   10.3264 H   0  0  0  0  0  0  0  0  0  0  0  0
    0.4970    6.1790    7.8740 H   0  0  0  0  0  0  0  0  0  0  0  0
  1  2  1  0
  2  3  2  0
  3  4  1  0
  4  5  1  0
  5  6  1  0
  6  7  1  0
  7  8  2  0
  8  9  1  0
  9 10  2  0
 10 11  1  0
 11 12  2  0
  4 13  2  0
 13 14  1  0
 14 15  2  0
 14 16  1  0
 16  2  1  0
 12  7  1  0
  1 17  1  0
  1 18  1  0
  5 19  1  0
  5 20  1  0
  6 21  1  0
  6 22  1  0
  8 23  1  0
  9 24  1  0
 10 25  1  0
 11 26  1  0
 12 27  1  0
 13 28  1  0
 16 29  1  0
M  END
>  <meeko>  (9) 
{"is_sidechain": [false], "free_energy": -6.721, "intermolecular_energy": -8.171, "internal_energy": -0.3}

$$$$
