4w9l_ligand
     RDKit          3D

 84 86  0  0  0  0  0  0  0  0999 V2000
   13.6040   54.8370   91.7900 C   0  0  0  0  0  0  0  0  0  0  0  0
   12.9810   54.4290   93.0970 C   0  0  0  0  0  0  0  0  0  0  0  0
   13.4690   53.5690   93.8230 O   0  0  0  0  0  0  0  0  0  0  0  0
   11.8210   55.1140   93.3850 N   0  0  0  0  0  0  0  0  0  0  0  0
   11.0890   54.9210   94.6500 C   0  0  2  0  0  0  0  0  0  0  0  0
    9.9420   53.8880   94.4600 C   0  0  0  0  0  0  0  0  0  0  0  0
    9.3460   53.3810   95.4070 O   0  0  0  0  0  0  0  0  0  0  0  0
    9.5890   53.6420   93.1470 N   0  0  0  0  0  0  0  0  0  0  0  0
    8.7470   52.4860   92.7840 C   0  0  2  0  0  0  0  0  0  0  0  0
    9.6300   51.4730   91.9820 C   0  0  0  0  0  0  0  0  0  0  0  0
    9.1900   50.4930   91.3830 O   0  0  0  0  0  0  0  0  0  0  0  0
   11.0110   51.6930   92.1020 N   0  0  0  0  0  0  0  0  0  0  0  0
   11.6650   50.6970   92.9710 C   0  0  0  0  0  0  0  0  0  0  0  0
   12.8740   50.1700   92.1790 C   0  0  2  0  0  0  0  0  0  0  0  0
   14.0730   50.8760   92.5030 O   0  0  0  0  0  0  0  0  0  0  0  0
   12.4940   50.4480   90.7250 C   0  0  0  0  0  0  0  0  0  0  0  0
   11.8160   51.8010   90.8780 C   0  0  1  0  0  0  0  0  0  0  0  0
   11.1760   52.4600   89.6430 C   0  0  0  0  0  0  0  0  0  0  0  0
   11.0960   53.6840   89.5430 O   0  0  0  0  0  0  0  0  0  0  0  0
   10.6160   51.5870   88.7370 N   0  0  0  0  0  0  0  0  0  0  0  0
    9.8960   52.0710   87.5820 C   0  0  0  0  0  0  0  0  0  0  0  0
   10.7320   51.9520   86.3350 C   0  0  0  0  0  0  0  0  0  0  0  0
   11.3230   50.7320   85.9820 C   0  0  0  0  0  0  0  0  0  0  0  0
   12.1150   50.6310   84.8360 C   0  0  0  0  0  0  0  0  0  0  0  0
   12.3410   51.7510   84.0240 C   0  0  0  0  0  0  0  0  0  0  0  0
   13.1630   51.6320   82.8210 C   0  0  0  0  0  0  0  0  0  0  0  0
   12.7430   50.5030   81.5940 S   0  0  0  0  0  0  0  0  0  0  0  0
   14.0830   51.0260   80.6690 C   0  0  0  0  0  0  0  0  0  0  0  0
   14.8200   51.9740   81.2010 N   0  0  0  0  0  0  0  0  0  0  0  0
   14.3030   52.3290   82.4390 C   0  0  0  0  0  0  0  0  0  0  0  0
   15.0060   53.3860   83.2130 C   0  0  0  0  0  0  0  0  0  0  0  0
   11.7600   52.9730   84.3810 C   0  0  0  0  0  0  0  0  0  0  0  0
   10.9660   53.0740   85.5280 C   0  0  0  0  0  0  0  0  0  0  0  0
    7.4510   52.9410   92.0380 C   0  0  0  0  0  0  0  0  0  0  0  0
    6.4290   51.7880   91.9460 C   0  0  0  0  0  0  0  0  0  0  0  0
    6.7670   54.0790   92.8290 C   0  0  0  0  0  0  0  0  0  0  0  0
    7.7600   53.4570   90.6200 C   0  0  0  0  0  0  0  0  0  0  0  0
   10.6070   56.2780   95.2570 C   0  0  0  0  0  0  0  0  0  0  0  0
   11.5560   57.4130   94.8100 C   0  0  0  0  0  0  0  0  0  0  0  0
   10.6530   56.2260   96.7990 C   0  0  0  0  0  0  0  0  0  0  0  0
    9.1750   56.6390   94.8260 C   0  0  0  0  0  0  0  0  0  0  0  0
   14.5097   55.4301   91.9848 H   0  0  0  0  0  0  0  0  0  0  0  0
   13.8710   53.9383   91.2147 H   0  0  0  0  0  0  0  0  0  0  0  0
   12.8869   55.4410   91.2147 H   0  0  0  0  0  0  0  0  0  0  0  0
   11.4830   55.8030   92.7240 H   0  0  0  0  0  0  0  0  0  0  0  0
   11.7802   54.4995   95.3946 H   0  0  0  0  0  0  0  0  0  0  0  0
   10.3060   53.8860   92.4750 H   0  0  0  0  0  0  0  0  0  0  0  0
    8.3776   51.9699   93.6824 H   0  0  0  0  0  0  0  0  0  0  0  0
   11.9978   51.1674   93.9080 H   0  0  0  0  0  0  0  0  0  0  0  0
   10.9752   49.8837   93.2408 H   0  0  0  0  0  0  0  0  0  0  0  0
   13.0770   49.1111   92.3970 H   0  0  0  0  0  0  0  0  0  0  0  0
   14.1050   51.7200   91.9980 H   0  0  0  0  0  0  0  0  0  0  0  0
   13.3805   50.5075   90.0765 H   0  0  0  0  0  0  0  0  0  0  0  0
   11.8735   49.6716   90.2537 H   0  0  0  0  0  0  0  0  0  0  0  0
   12.5780   52.5877   90.9805 H   0  0  0  0  0  0  0  0  0  0  0  0
   10.2420   50.7410   89.1650 H   0  0  0  0  0  0  0  0  0  0  0  0
    8.9774   51.4790   87.4569 H   0  0  0  0  0  0  0  0  0  0  0  0
    9.6526   53.1320   87.7404 H   0  0  0  0  0  0  0  0  0  0  0  0
   11.1619   49.8455   86.6131 H   0  0  0  0  0  0  0  0  0  0  0  0
   12.5655   49.6638   84.5683 H   0  0  0  0  0  0  0  0  0  0  0  0
   14.3144   50.5931   79.6846 H   0  0  0  0  0  0  0  0  0  0  0  0
   14.8804   53.1971   84.2894 H   0  0  0  0  0  0  0  0  0  0  0  0
   16.0767   53.3741   82.9611 H   0  0  0  0  0  0  0  0  0  0  0  0
   14.5810   54.3688   82.9611 H   0  0  0  0  0  0  0  0  0  0  0  0
   11.9291   53.8612   83.7545 H   0  0  0  0  0  0  0  0  0  0  0  0
   10.5211   54.0428   85.7993 H   0  0  0  0  0  0  0  0  0  0  0  0
    6.1452   51.4678   92.9594 H   0  0  0  0  0  0  0  0  0  0  0  0
    5.5346   52.1330   91.4065 H   0  0  0  0  0  0  0  0  0  0  0  0
    6.8788   50.9415   91.4065 H   0  0  0  0  0  0  0  0  0  0  0  0
    6.8782   53.8940   93.9076 H   0  0  0  0  0  0  0  0  0  0  0  0
    7.2378   55.0391   92.5712 H   0  0  0  0  0  0  0  0  0  0  0  0
    5.6982   54.1138   92.5712 H   0  0  0  0  0  0  0  0  0  0  0  0
    8.3241   54.3990   90.6874 H   0  0  0  0  0  0  0  0  0  0  0  0
    8.3588   52.7088   90.0800 H   0  0  0  0  0  0  0  0  0  0  0  0
    6.8178   53.6317   90.0800 H   0  0  0  0  0  0  0  0  0  0  0  0
   11.9735   57.9124   95.6967 H   0  0  0  0  0  0  0  0  0  0  0  0
   12.3740   56.9911   94.2076 H   0  0  0  0  0  0  0  0  0  0  0  0
   10.9959   58.1433   94.2076 H   0  0  0  0  0  0  0  0  0  0  0  0
    9.9775   56.9896   97.2119 H   0  0  0  0  0  0  0  0  0  0  0  0
   10.3345   55.2306   97.1420 H   0  0  0  0  0  0  0  0  0  0  0  0
   11.6799   56.4208   97.1420 H   0  0  0  0  0  0  0  0  0  0  0  0
    8.5520   56.7961   95.7188 H   0  0  0  0  0  0  0  0  0  0  0  0
    9.1941   57.5604   94.2255 H   0  0  0  0  0  0  0  0  0  0  0  0
    8.7550   55.8186   94.2255 H   0  0  0  0  0  0  0  0  0  0  0  0
  1  2  1  0
  2  3  2  0
  2  4  1  0
  4  5  1  0
  5  6  1  0
  6  7  2  0
  6  8  1  0
  8  9  1  0
  9 10  1  0
 10 11  2  0
 10 12  1  0
 12 13  1  0
 13 14  1  0
 14 15  1  0
 14 16  1  0
 16 17  1  0
 17 18  1  0
 18 19  2  0
 18 20  1  0
 20 21  1  0
 21 22  1  0
 22 23  2  0
 23 24  1  0
 24 25  2  0
 25 26  1  0
 26 27  1  0
 27 28  1  0
 28 29  2  0
 29 30  1  0
 30 31  1  0
 25 32  1  0
 32 33  2  0
  9 34  1  0
 34 35  1  0
 34 36  1  0
 34 37  1  0
  5 38  1  0
 38 39  1  0
 38 40  1  0
 38 41  1  0
 17 12  1  0
 33 22  1  0
 30 26  2  0
  1 42  1  0
  1 43  1  0
  1 44  1  0
  4 45  1  0
  5 46  1  1
  8 47  1  0
  9 48  1  1
 13 49  1  0
 13 50  1  0
 14 51  1  6
 15 52  1  0
 16 53  1  0
 16 54  1  0
 17 55  1  1
 20 56  1  0
 21 57  1  0
 21 58  1  0
 23 59  1  0
 24 60  1  0
 28 61  1  0
 31 62  1  0
 31 63  1  0
 31 64  1  0
 32 65  1  0
 33 66  1  0
 35 67  1  0
 35 68  1  0
 35 69  1  0
 36 70  1  0
 36 71  1  0
 36 72  1  0
 37 73  1  0
 37 74  1  0
 37 75  1  0
 39 76  1  0
 39 77  1  0
 39 78  1  0
 40 79  1  0
 40 80  1  0
 40 81  1  0
 41 82  1  0
 41 83  1  0
 41 84  1  0
M  END
>  <meeko>  (1) 
{"is_sidechain": [false], "free_energy": -6.124, "intermolecular_energy": -10.242, "internal_energy": -2.626}

$$$$
4w9l_ligand
     RDKit          3D

 84 86  0  0  0  0  0  0  0  0999 V2000
    7.1500   53.2490   94.4030 C   0  0  0  0  0  0  0  0  0  0  0  0
    8.1750   54.1590   93.7830 C   0  0  0  0  0  0  0  0  0  0  0  0
    8.2600   54.3320   92.5720 O   0  0  0  0  0  0  0  0  0  0  0  0
    8.9970   54.7650   94.7080 N   0  0  0  0  0  0  0  0  0  0  0  0
   10.0220   55.7510   94.3210 C   0  0  2  0  0  0  0  0  0  0  0  0
   11.4100   55.0620   94.1810 C   0  0  0  0  0  0  0  0  0  0  0  0
   12.4200   55.4940   94.7320 O   0  0  0  0  0  0  0  0  0  0  0  0
   11.4080   53.8850   93.4590 N   0  0  0  0  0  0  0  0  0  0  0  0
   12.6650   53.2770   92.9820 C   0  0  2  0  0  0  0  0  0  0  0  0
   12.6340   53.2590   91.4170 C   0  0  0  0  0  0  0  0  0  0  0  0
   12.5410   52.2380   90.7370 O   0  0  0  0  0  0  0  0  0  0  0  0
   12.8530   54.5120   90.8230 N   0  0  0  0  0  0  0  0  0  0  0  0
   14.2120   55.0240   91.0770 C   0  0  0  0  0  0  0  0  0  0  0  0
   14.7740   55.4400   89.7070 C   0  0  2  0  0  0  0  0  0  0  0  0
   14.5660   56.8280   89.4440 O   0  0  0  0  0  0  0  0  0  0  0  0
   13.9580   54.6050   88.7220 C   0  0  0  0  0  0  0  0  0  0  0  0
   12.5910   54.6640   89.3850 C   0  0  1  0  0  0  0  0  0  0  0  0
   11.4260   53.8670   88.7700 C   0  0  0  0  0  0  0  0  0  0  0  0
   10.2680   54.0360   89.1490 O   0  0  0  0  0  0  0  0  0  0  0  0
   11.7930   52.8970   87.8650 N   0  0  0  0  0  0  0  0  0  0  0  0
   10.8130   52.0090   87.2830 C   0  0  0  0  0  0  0  0  0  0  0  0
   11.4460   50.7110   86.8560 C   0  0  0  0  0  0  0  0  0  0  0  0
   11.7830   49.7340   87.8010 C   0  0  0  0  0  0  0  0  0  0  0  0
   12.3880   48.5390   87.4030 C   0  0  0  0  0  0  0  0  0  0  0  0
   12.6790   48.3020   86.0530 C   0  0  0  0  0  0  0  0  0  0  0  0
   13.3030   47.0440   85.6460 C   0  0  0  0  0  0  0  0  0  0  0  0
   12.4190   45.9010   84.7120 S   0  0  0  0  0  0  0  0  0  0  0  0
   13.7920   44.8830   84.6800 C   0  0  0  0  0  0  0  0  0  0  0  0
   14.8570   45.3230   85.3090 N   0  0  0  0  0  0  0  0  0  0  0  0
   14.5870   46.5640   85.8710 C   0  0  0  0  0  0  0  0  0  0  0  0
   15.6690   47.2320   86.6420 C   0  0  0  0  0  0  0  0  0  0  0  0
   12.3520   49.2820   85.1090 C   0  0  0  0  0  0  0  0  0  0  0  0
   11.7450   50.4770   85.5070 C   0  0  0  0  0  0  0  0  0  0  0  0
   12.9020   51.8780   93.6370 C   0  0  0  0  0  0  0  0  0  0  0  0
   13.9630   51.0730   92.8580 C   0  0  0  0  0  0  0  0  0  0  0  0
   13.4480   52.0610   95.0720 C   0  0  0  0  0  0  0  0  0  0  0  0
   11.6010   51.0570   93.7170 C   0  0  0  0  0  0  0  0  0  0  0  0
   10.0350   56.9850   95.2790 C   0  0  0  0  0  0  0  0  0  0  0  0
    8.6830   57.7280   95.1880 C   0  0  0  0  0  0  0  0  0  0  0  0
   11.1350   57.9840   94.8580 C   0  0  0  0  0  0  0  0  0  0  0  0
   10.2780   56.5870   96.7460 C   0  0  0  0  0  0  0  0  0  0  0  0
    7.2198   53.3110   95.4990 H   0  0  0  0  0  0  0  0  0  0  0  0
    6.1441   53.5570   94.0817 H   0  0  0  0  0  0  0  0  0  0  0  0
    7.3366   52.2137   94.0817 H   0  0  0  0  0  0  0  0  0  0  0  0
    8.8640   54.5580   95.6900 H   0  0  0  0  0  0  0  0  0  0  0  0
    9.7639   56.1563   93.3315 H   0  0  0  0  0  0  0  0  0  0  0  0
   10.6120   53.7830   92.8400 H   0  0  0  0  0  0  0  0  0  0  0  0
   13.5347   53.8745   93.2929 H   0  0  0  0  0  0  0  0  0  0  0  0
   14.1732   55.8909   91.7530 H   0  0  0  0  0  0  0  0  0  0  0  0
   14.8450   54.2630   91.5568 H   0  0  0  0  0  0  0  0  0  0  0  0
   15.8603   55.2790   89.6429 H   0  0  0  0  0  0  0  0  0  0  0  0
   14.3740   56.9570   88.4890 H   0  0  0  0  0  0  0  0  0  0  0  0
   13.9440   55.0568   87.7192 H   0  0  0  0  0  0  0  0  0  0  0  0
   14.3431   53.5892   88.5494 H   0  0  0  0  0  0  0  0  0  0  0  0
   12.1190   55.6351   89.1745 H   0  0  0  0  0  0  0  0  0  0  0  0
   12.7020   52.4790   88.0620 H   0  0  0  0  0  0  0  0  0  0  0  0
   10.0305   51.7997   88.0272 H   0  0  0  0  0  0  0  0  0  0  0  0
   10.3816   52.4965   86.3963 H   0  0  0  0  0  0  0  0  0  0  0  0
   11.5696   49.9088   88.8658 H   0  0  0  0  0  0  0  0  0  0  0  0
   12.6381   47.7774   88.1563 H   0  0  0  0  0  0  0  0  0  0  0  0
   13.7836   43.9131   84.1612 H   0  0  0  0  0  0  0  0  0  0  0  0
   15.4783   47.1142   87.7189 H   0  0  0  0  0  0  0  0  0  0  0  0
   16.6364   46.7737   86.3887 H   0  0  0  0  0  0  0  0  0  0  0  0
   15.6927   48.3022   86.3887 H   0  0  0  0  0  0  0  0  0  0  0  0
   12.5743   49.1108   84.0454 H   0  0  0  0  0  0  0  0  0  0  0  0
   11.4998   51.2407   84.7542 H   0  0  0  0  0  0  0  0  0  0  0  0
   14.6323   50.5652   93.5681 H   0  0  0  0  0  0  0  0  0  0  0  0
   13.4637   50.3244   92.2253 H   0  0  0  0  0  0  0  0  0  0  0  0
   14.5494   51.7555   92.2253 H   0  0  0  0  0  0  0  0  0  0  0  0
   12.6649   51.7985   95.7985 H   0  0  0  0  0  0  0  0  0  0  0  0
   14.3192   51.4057   95.2192 H   0  0  0  0  0  0  0  0  0  0  0  0
   13.7483   53.1089   95.2192 H   0  0  0  0  0  0  0  0  0  0  0  0
   11.3369   50.8903   94.7717 H   0  0  0  0  0  0  0  0  0  0  0  0
   10.7892   51.6068   93.2182 H   0  0  0  0  0  0  0  0  0  0  0  0
   11.7479   50.0877   93.2182 H   0  0  0  0  0  0  0  0  0  0  0  0
    8.3087   57.9337   96.2017 H   0  0  0  0  0  0  0  0  0  0  0  0
    8.8215   58.6767   94.6488 H   0  0  0  0  0  0  0  0  0  0  0  0
    7.9564   57.1025   94.6488 H   0  0  0  0  0  0  0  0  0  0  0  0
   11.6054   58.4112   95.7559 H   0  0  0  0  0  0  0  0  0  0  0  0
   11.8953   57.4613   94.2591 H   0  0  0  0  0  0  0  0  0  0  0  0
   10.6877   58.7910   94.2591 H   0  0  0  0  0  0  0  0  0  0  0  0
    9.8208   57.3358   97.4096 H   0  0  0  0  0  0  0  0  0  0  0  0
    9.8268   55.6024   96.9384 H   0  0  0  0  0  0  0  0  0  0  0  0
   11.3600   56.5384   96.9384 H   0  0  0  0  0  0  0  0  0  0  0  0
  1  2  1  0
  2  3  2  0
  2  4  1  0
  4  5  1  0
  5  6  1  0
  6  7  2  0
  6  8  1  0
  8  9  1  0
  9 10  1  0
 10 11  2  0
 10 12  1  0
 12 13  1  0
 13 14  1  0
 14 15  1  0
 14 16  1  0
 16 17  1  0
 17 18  1  0
 18 19  2  0
 18 20  1  0
 20 21  1  0
 21 22  1  0
 22 23  2  0
 23 24  1  0
 24 25  2  0
 25 26  1  0
 26 27  1  0
 27 28  1  0
 28 29  2  0
 29 30  1  0
 30 31  1  0
 25 32  1  0
 32 33  2  0
  9 34  1  0
 34 35  1  0
 34 36  1  0
 34 37  1  0
  5 38  1  0
 38 39  1  0
 38 40  1  0
 38 41  1  0
 17 12  1  0
 33 22  1  0
 30 26  2  0
  1 42  1  0
  1 43  1  0
  1 44  1  0
  4 45  1  0
  5 46  1  6
  8 47  1  0
  9 48  1  6
 13 49  1  0
 13 50  1  0
 14 51  1  1
 15 52  1  0
 16 53  1  0
 16 54  1  0
 17 55  1  1
 20 56  1  0
 21 57  1  0
 21 58  1  0
 23 59  1  0
 24 60  1  0
 28 61  1  0
 31 62  1  0
 31 63  1  0
 31 64  1  0
 32 65  1  0
 33 66  1  0
 35 67  1  0
 35 68  1  0
 35 69  1  0
 36 70  1  0
 36 71  1  0
 36 72  1  0
 37 73  1  0
 37 74  1  0
 37 75  1  0
 39 76  1  0
 39 77  1  0
 39 78  1  0
 40 79  1  0
 40 80  1  0
 40 81  1  0
 41 82  1  0
 41 83  1  0
 41 84  1  0
M  END
>  <meeko>  (2) 
{"is_sidechain": [false], "free_energy": -5.983, "intermolecular_energy": -12.071, "internal_energy": -0.561}

$$$$
4w9l_ligand
     RDKit          3D

 84 86  0  0  0  0  0  0  0  0999 V2000
    6.5530   58.0180   96.2530 C   0  0  0  0  0  0  0  0  0  0  0  0
    7.3290   57.3320   95.1620 C   0  0  0  0  0  0  0  0  0  0  0  0
    6.8510   57.0980   94.0560 O   0  0  0  0  0  0  0  0  0  0  0  0
    8.6130   56.9980   95.5320 N   0  0  0  0  0  0  0  0  0  0  0  0
    9.5680   56.3840   94.5920 C   0  0  2  0  0  0  0  0  0  0  0  0
    9.2170   54.8860   94.3650 C   0  0  0  0  0  0  0  0  0  0  0  0
    9.3060   54.0440   95.2560 O   0  0  0  0  0  0  0  0  0  0  0  0
    8.7220   54.5850   93.1110 N   0  0  0  0  0  0  0  0  0  0  0  0
    8.6280   53.1900   92.6390 C   0  0  2  0  0  0  0  0  0  0  0  0
    9.8140   52.9310   91.6520 C   0  0  0  0  0  0  0  0  0  0  0  0
    9.7620   53.1250   90.4380 O   0  0  0  0  0  0  0  0  0  0  0  0
   10.9330   52.3220   92.2430 N   0  0  0  0  0  0  0  0  0  0  0  0
   10.6450   50.9560   92.7150 C   0  0  0  0  0  0  0  0  0  0  0  0
   11.7650   50.0650   92.1500 C   0  0  2  0  0  0  0  0  0  0  0  0
   12.8350   49.8970   93.0810 O   0  0  0  0  0  0  0  0  0  0  0  0
   12.2610   50.8490   90.9360 C   0  0  0  0  0  0  0  0  0  0  0  0
   12.1890   52.2660   91.4810 C   0  0  1  0  0  0  0  0  0  0  0  0
   12.5270   53.4450   90.5500 C   0  0  0  0  0  0  0  0  0  0  0  0
   12.7330   54.5720   90.9980 O   0  0  0  0  0  0  0  0  0  0  0  0
   12.4730   53.1620   89.2040 N   0  0  0  0  0  0  0  0  0  0  0  0
   12.6710   54.1970   88.2160 C   0  0  0  0  0  0  0  0  0  0  0  0
   12.6560   53.6240   86.8230 C   0  0  0  0  0  0  0  0  0  0  0  0
   11.8640   52.5110   86.5150 C   0  0  0  0  0  0  0  0  0  0  0  0
   11.8680   51.9700   85.2270 C   0  0  0  0  0  0  0  0  0  0  0  0
   12.6730   52.5250   84.2230 C   0  0  0  0  0  0  0  0  0  0  0  0
   12.6620   51.9570   82.8750 C   0  0  0  0  0  0  0  0  0  0  0  0
   11.1760   51.4970   82.1420 S   0  0  0  0  0  0  0  0  0  0  0  0
   12.0280   51.0290   80.7350 C   0  0  0  0  0  0  0  0  0  0  0  0
   13.3320   51.1860   80.7670 N   0  0  0  0  0  0  0  0  0  0  0  0
   13.7080   51.7160   81.9940 C   0  0  0  0  0  0  0  0  0  0  0  0
   15.1550   51.9600   82.2340 C   0  0  0  0  0  0  0  0  0  0  0  0
   13.4730   53.6310   84.5320 C   0  0  0  0  0  0  0  0  0  0  0  0
   13.4670   54.1730   85.8210 C   0  0  0  0  0  0  0  0  0  0  0  0
    7.2160   52.8870   92.0420 C   0  0  0  0  0  0  0  0  0  0  0  0
    7.1100   51.4170   91.5860 C   0  0  0  0  0  0  0  0  0  0  0  0
    6.1360   53.0950   93.1280 C   0  0  0  0  0  0  0  0  0  0  0  0
    6.8880   53.8110   90.8530 C   0  0  0  0  0  0  0  0  0  0  0  0
   11.0490   56.6150   95.0320 C   0  0  0  0  0  0  0  0  0  0  0  0
   11.3930   58.1180   94.9300 C   0  0  0  0  0  0  0  0  0  0  0  0
   12.0150   55.8610   94.0920 C   0  0  0  0  0  0  0  0  0  0  0  0
   11.3130   56.1480   96.4740 C   0  0  0  0  0  0  0  0  0  0  0  0
    6.9274   57.6871   97.2330 H   0  0  0  0  0  0  0  0  0  0  0  0
    6.6770   59.1072   96.1619 H   0  0  0  0  0  0  0  0  0  0  0  0
    5.4872   57.7614   96.1619 H   0  0  0  0  0  0  0  0  0  0  0  0
    8.9240   57.2190   96.4700 H   0  0  0  0  0  0  0  0  0  0  0  0
    9.4742   56.8863   93.6179 H   0  0  0  0  0  0  0  0  0  0  0  0
    8.9520   55.2710   92.4020 H   0  0  0  0  0  0  0  0  0  0  0  0
    8.7268   52.4827   93.4756 H   0  0  0  0  0  0  0  0  0  0  0  0
   10.6489   50.9231   93.8145 H   0  0  0  0  0  0  0  0  0  0  0  0
    9.6536   50.6159   92.3812 H   0  0  0  0  0  0  0  0  0  0  0  0
   11.4054   49.0520   91.9166 H   0  0  0  0  0  0  0  0  0  0  0  0
   13.6880   50.1140   92.6440 H   0  0  0  0  0  0  0  0  0  0  0  0
   13.2893   50.5695   90.6632 H   0  0  0  0  0  0  0  0  0  0  0  0
   11.6870   50.6807   90.0129 H   0  0  0  0  0  0  0  0  0  0  0  0
   13.0529   52.4550   92.1352 H   0  0  0  0  0  0  0  0  0  0  0  0
   11.7800   52.4540   88.9650 H   0  0  0  0  0  0  0  0  0  0  0  0
   11.8656   54.9406   88.3077 H   0  0  0  0  0  0  0  0  0  0  0  0
   13.6505   54.6659   88.3914 H   0  0  0  0  0  0  0  0  0  0  0  0
   11.2330   52.0586   87.2942 H   0  0  0  0  0  0  0  0  0  0  0  0
   11.2337   51.1007   84.9989 H   0  0  0  0  0  0  0  0  0  0  0  0
   11.5134   50.6197   79.8532 H   0  0  0  0  0  0  0  0  0  0  0  0
   15.3468   51.9923   83.3167 H   0  0  0  0  0  0  0  0  0  0  0  0
   15.7437   51.1484   81.7814 H   0  0  0  0  0  0  0  0  0  0  0  0
   15.4450   52.9197   81.7814 H   0  0  0  0  0  0  0  0  0  0  0  0
   14.1112   54.0772   83.7551 H   0  0  0  0  0  0  0  0  0  0  0  0
   14.1053   55.0389   86.0506 H   0  0  0  0  0  0  0  0  0  0  0  0
    7.0628   50.7619   92.4684 H   0  0  0  0  0  0  0  0  0  0  0  0
    6.2000   51.2851   90.9822 H   0  0  0  0  0  0  0  0  0  0  0  0
    7.9916   51.1559   90.9822 H   0  0  0  0  0  0  0  0  0  0  0  0
    6.5953   53.0065   94.1236 H   0  0  0  0  0  0  0  0  0  0  0  0
    5.6919   54.0952   93.0166 H   0  0  0  0  0  0  0  0  0  0  0  0
    5.3522   52.3313   93.0166 H   0  0  0  0  0  0  0  0  0  0  0  0
    6.5423   54.7849   91.2299 H   0  0  0  0  0  0  0  0  0  0  0  0
    7.7902   53.9543   90.2402 H   0  0  0  0  0  0  0  0  0  0  0  0
    6.0974   53.3534   90.2402 H   0  0  0  0  0  0  0  0  0  0  0  0
   11.4899   58.5414   95.9406 H   0  0  0  0  0  0  0  0  0  0  0  0
   12.3425   58.2409   94.3884 H   0  0  0  0  0  0  0  0  0  0  0  0
   10.5915   58.6417   94.3884 H   0  0  0  0  0  0  0  0  0  0  0  0
   12.7419   55.2936   94.6917 H   0  0  0  0  0  0  0  0  0  0  0  0
   11.4429   55.1682   93.4574 H   0  0  0  0  0  0  0  0  0  0  0  0
   12.5482   56.5842   93.4574 H   0  0  0  0  0  0  0  0  0  0  0  0
   10.8976   56.8829   97.1793 H   0  0  0  0  0  0  0  0  0  0  0  0
   10.8332   55.1716   96.6369 H   0  0  0  0  0  0  0  0  0  0  0  0
   12.3969   56.0556   96.6369 H   0  0  0  0  0  0  0  0  0  0  0  0
  1  2  1  0
  2  3  2  0
  2  4  1  0
  4  5  1  0
  5  6  1  0
  6  7  2  0
  6  8  1  0
  8  9  1  0
  9 10  1  0
 10 11  2  0
 10 12  1  0
 12 13  1  0
 13 14  1  0
 14 15  1  0
 14 16  1  0
 16 17  1  0
 17 18  1  0
 18 19  2  0
 18 20  1  0
 20 21  1  0
 21 22  1  0
 22 23  2  0
 23 24  1  0
 24 25  2  0
 25 26  1  0
 26 27  1  0
 27 28  1  0
 28 29  2  0
 29 30  1  0
 30 31  1  0
 25 32  1  0
 32 33  2  0
  9 34  1  0
 34 35  1  0
 34 36  1  0
 34 37  1  0
  5 38  1  0
 38 39  1  0
 38 40  1  0
 38 41  1  0
 17 12  1  0
 33 22  1  0
 30 26  2  0
  1 42  1  0
  1 43  1  0
  1 44  1  0
  4 45  1  0
  5 46  1  6
  8 47  1  0
  9 48  1  1
 13 49  1  0
 13 50  1  0
 14 51  1  6
 15 52  1  0
 16 53  1  0
 16 54  1  0
 17 55  1  1
 20 56  1  0
 21 57  1  0
 21 58  1  0
 23 59  1  0
 24 60  1  0
 28 61  1  0
 31 62  1  0
 31 63  1  0
 31 64  1  0
 32 65  1  0
 33 66  1  0
 35 67  1  0
 35 68  1  0
 35 69  1  0
 36 70  1  0
 36 71  1  0
 36 72  1  0
 37 73  1  0
 37 74  1  0
 37 75  1  0
 39 76  1  0
 39 77  1  0
 39 78  1  0
 40 79  1  0
 40 80  1  0
 40 81  1  0
 41 82  1  0
 41 83  1  0
 41 84  1  0
M  END
>  <meeko>  (3) 
{"is_sidechain": [false], "free_energy": -5.895, "intermolecular_energy": -11.289, "internal_energy": -1.196}

$$$$
4w9l_ligand
     RDKit          3D

 84 86  0  0  0  0  0  0  0  0999 V2000
    7.1830   53.4530   93.6880 C   0  0  0  0  0  0  0  0  0  0  0  0
    8.3960   54.3050   93.4280 C   0  0  0  0  0  0  0  0  0  0  0  0
    8.9750   54.3190   92.3460 O   0  0  0  0  0  0  0  0  0  0  0  0
    8.7820   55.0520   94.5190 N   0  0  0  0  0  0  0  0  0  0  0  0
    9.9020   56.0090   94.4590 C   0  0  2  0  0  0  0  0  0  0  0  0
   11.2480   55.2860   94.7460 C   0  0  0  0  0  0  0  0  0  0  0  0
   12.3370   55.7760   94.4550 O   0  0  0  0  0  0  0  0  0  0  0  0
   11.1350   54.0880   95.4260 N   0  0  0  0  0  0  0  0  0  0  0  0
   12.2660   53.1440   95.5080 C   0  0  2  0  0  0  0  0  0  0  0  0
   12.0380   52.0200   94.4440 C   0  0  0  0  0  0  0  0  0  0  0  0
   10.9330   51.6580   94.0410 O   0  0  0  0  0  0  0  0  0  0  0  0
   13.2080   51.3440   94.0620 N   0  0  0  0  0  0  0  0  0  0  0  0
   13.1700   49.9120   94.4130 C   0  0  0  0  0  0  0  0  0  0  0  0
   13.5600   49.1500   93.1350 C   0  0  2  0  0  0  0  0  0  0  0  0
   14.9560   48.8510   93.0970 O   0  0  0  0  0  0  0  0  0  0  0  0
   13.2170   50.1340   92.0170 C   0  0  0  0  0  0  0  0  0  0  0  0
   13.6520   51.4390   92.6640 C   0  0  1  0  0  0  0  0  0  0  0  0
   13.4120   52.7620   91.9140 C   0  0  0  0  0  0  0  0  0  0  0  0
   13.7800   53.8380   92.3850 O   0  0  0  0  0  0  0  0  0  0  0  0
   12.6720   52.6540   90.7580 N   0  0  0  0  0  0  0  0  0  0  0  0
   12.2880   53.8260   90.0050 C   0  0  0  0  0  0  0  0  0  0  0  0
   12.1520   53.5070   88.5400 C   0  0  0  0  0  0  0  0  0  0  0  0
   11.1800   52.6040   88.0910 C   0  0  0  0  0  0  0  0  0  0  0  0
   11.0690   52.2950   86.7330 C   0  0  0  0  0  0  0  0  0  0  0  0
   11.9370   52.8740   85.7970 C   0  0  0  0  0  0  0  0  0  0  0  0
   11.8070   52.5510   84.3770 C   0  0  0  0  0  0  0  0  0  0  0  0
   13.1190   51.8310   83.5300 S   0  0  0  0  0  0  0  0  0  0  0  0
   12.1630   51.7860   82.1120 C   0  0  0  0  0  0  0  0  0  0  0  0
   10.9450   52.2660   82.2170 N   0  0  0  0  0  0  0  0  0  0  0  0
   10.7300   52.7110   83.5140 C   0  0  0  0  0  0  0  0  0  0  0  0
    9.4050   53.3050   83.8370 C   0  0  0  0  0  0  0  0  0  0  0  0
   12.9160   53.7680   86.2450 C   0  0  0  0  0  0  0  0  0  0  0  0
   13.0250   54.0790   87.6050 C   0  0  0  0  0  0  0  0  0  0  0  0
   12.4610   52.6190   96.9670 C   0  0  0  0  0  0  0  0  0  0  0  0
   12.1540   53.7230   98.0000 C   0  0  0  0  0  0  0  0  0  0  0  0
   11.4720   51.4640   97.2410 C   0  0  0  0  0  0  0  0  0  0  0  0
   13.8910   52.0940   97.1980 C   0  0  0  0  0  0  0  0  0  0  0  0
    9.6560   57.2510   95.3760 C   0  0  0  0  0  0  0  0  0  0  0  0
    9.7870   56.8370   96.8590 C   0  0  0  0  0  0  0  0  0  0  0  0
    8.2240   57.7930   95.1780 C   0  0  0  0  0  0  0  0  0  0  0  0
   10.6490   58.3930   95.0960 C   0  0  0  0  0  0  0  0  0  0  0  0
    7.0341   53.3484   94.7728 H   0  0  0  0  0  0  0  0  0  0  0  0
    6.2979   53.9289   93.2406 H   0  0  0  0  0  0  0  0  0  0  0  0
    7.3304   52.4590   93.2406 H   0  0  0  0  0  0  0  0  0  0  0  0
    8.2520   54.9730   95.3780 H   0  0  0  0  0  0  0  0  0  0  0  0
    9.9664   56.4113   93.4372 H   0  0  0  0  0  0  0  0  0  0  0  0
   10.2170   53.6650   95.3640 H   0  0  0  0  0  0  0  0  0  0  0  0
   13.2161   53.6442   95.2692 H   0  0  0  0  0  0  0  0  0  0  0  0
   13.8867   49.6973   95.2194 H   0  0  0  0  0  0  0  0  0  0  0  0
   12.1744   49.6122   94.7721 H   0  0  0  0  0  0  0  0  0  0  0  0
   13.0407   48.1833   93.0594 H   0  0  0  0  0  0  0  0  0  0  0  0
   15.2860   48.7020   94.0110 H   0  0  0  0  0  0  0  0  0  0  0  0
   13.7874   49.9239   91.1002 H   0  0  0  0  0  0  0  0  0  0  0  0
   12.1679   50.1099   91.6870 H   0  0  0  0  0  0  0  0  0  0  0  0
   14.7465   51.5328   92.6076 H   0  0  0  0  0  0  0  0  0  0  0  0
   11.9830   51.9040   90.7840 H   0  0  0  0  0  0  0  0  0  0  0  0
   11.3238   54.1963   90.3833 H   0  0  0  0  0  0  0  0  0  0  0  0
   13.0694   54.5908   90.1255 H   0  0  0  0  0  0  0  0  0  0  0  0
   10.4976   52.1337   88.8143 H   0  0  0  0  0  0  0  0  0  0  0  0
   10.2938   51.5913   86.3955 H   0  0  0  0  0  0  0  0  0  0  0  0
   12.5469   51.3779   81.1654 H   0  0  0  0  0  0  0  0  0  0  0  0
    9.2839   53.3593   84.9290 H   0  0  0  0  0  0  0  0  0  0  0  0
    9.3431   54.3170   83.4104 H   0  0  0  0  0  0  0  0  0  0  0  0
    8.6082   52.6779   83.4104 H   0  0  0  0  0  0  0  0  0  0  0  0
   13.6051   54.2298   85.5226 H   0  0  0  0  0  0  0  0  0  0  0  0
   13.8032   54.7790   87.9432 H   0  0  0  0  0  0  0  0  0  0  0  0
   12.2671   53.3164   99.0158 H   0  0  0  0  0  0  0  0  0  0  0  0
   12.8533   54.5605   97.8604 H   0  0  0  0  0  0  0  0  0  0  0  0
   11.1227   54.0793   97.8604 H   0  0  0  0  0  0  0  0  0  0  0  0
   11.3569   51.3296   98.3267 H   0  0  0  0  0  0  0  0  0  0  0  0
   10.4953   51.7042   96.7957 H   0  0  0  0  0  0  0  0  0  0  0  0
   11.8597   50.5359   96.7957 H   0  0  0  0  0  0  0  0  0  0  0  0
   14.0853   52.0227   98.2783 H   0  0  0  0  0  0  0  0  0  0  0  0
   13.9948   51.0991   96.7403 H   0  0  0  0  0  0  0  0  0  0  0  0
   14.6138   52.7854   96.7403 H   0  0  0  0  0  0  0  0  0  0  0  0
    9.5178   57.6877   97.5023 H   0  0  0  0  0  0  0  0  0  0  0  0
    9.1119   55.9933   97.0652 H   0  0  0  0  0  0  0  0  0  0  0  0
   10.8245   56.5353   97.0652 H   0  0  0  0  0  0  0  0  0  0  0  0
    7.7595   57.9688   96.1595 H   0  0  0  0  0  0  0  0  0  0  0  0
    8.2640   58.7382   94.6167 H   0  0  0  0  0  0  0  0  0  0  0  0
    7.6282   57.0582   94.6167 H   0  0  0  0  0  0  0  0  0  0  0  0
   11.0094   58.8075   96.0491 H   0  0  0  0  0  0  0  0  0  0  0  0
   11.5014   58.0046   94.5194 H   0  0  0  0  0  0  0  0  0  0  0  0
   10.1459   59.1832   94.5194 H   0  0  0  0  0  0  0  0  0  0  0  0
  1  2  1  0
  2  3  2  0
  2  4  1  0
  4  5  1  0
  5  6  1  0
  6  7  2  0
  6  8  1  0
  8  9  1  0
  9 10  1  0
 10 11  2  0
 10 12  1  0
 12 13  1  0
 13 14  1  0
 14 15  1  0
 14 16  1  0
 16 17  1  0
 17 18  1  0
 18 19  2  0
 18 20  1  0
 20 21  1  0
 21 22  1  0
 22 23  2  0
 23 24  1  0
 24 25  2  0
 25 26  1  0
 26 27  1  0
 27 28  1  0
 28 29  2  0
 29 30  1  0
 30 31  1  0
 25 32  1  0
 32 33  2  0
  9 34  1  0
 34 35  1  0
 34 36  1  0
 34 37  1  0
  5 38  1  0
 38 39  1  0
 38 40  1  0
 38 41  1  0
 17 12  1  0
 33 22  1  0
 30 26  2  0
  1 42  1  0
  1 43  1  0
  1 44  1  0
  4 45  1  0
  5 46  1  6
  8 47  1  0
  9 48  1  6
 13 49  1  0
 13 50  1  0
 14 51  1  6
 15 52  1  0
 16 53  1  0
 16 54  1  0
 17 55  1  1
 20 56  1  0
 21 57  1  0
 21 58  1  0
 23 59  1  0
 24 60  1  0
 28 61  1  0
 31 62  1  0
 31 63  1  0
 31 64  1  0
 32 65  1  0
 33 66  1  0
 35 67  1  0
 35 68  1  0
 35 69  1  0
 36 70  1  0
 36 71  1  0
 36 72  1  0
 37 73  1  0
 37 74  1  0
 37 75  1  0
 39 76  1  0
 39 77  1  0
 39 78  1  0
 40 79  1  0
 40 80  1  0
 40 81  1  0
 41 82  1  0
 41 83  1  0
 41 84  1  0
M  END
>  <meeko>  (4) 
{"is_sidechain": [false], "free_energy": -5.895, "intermolecular_energy": -10.752, "internal_energy": -1.732}

$$$$
4w9l_ligand
     RDKit          3D

 84 86  0  0  0  0  0  0  0  0999 V2000
   10.4790   52.4960   96.3760 C   0  0  0  0  0  0  0  0  0  0  0  0
   11.9030   52.6810   95.9270 C   0  0  0  0  0  0  0  0  0  0  0  0
   12.5960   53.6250   96.2960 O   0  0  0  0  0  0  0  0  0  0  0  0
   12.3370   51.6940   95.0700 N   0  0  0  0  0  0  0  0  0  0  0  0
   13.7230   51.6440   94.5680 C   0  0  2  0  0  0  0  0  0  0  0  0
   13.7430   51.1950   93.0790 C   0  0  0  0  0  0  0  0  0  0  0  0
   14.7020   51.4010   92.3390 O   0  0  0  0  0  0  0  0  0  0  0  0
   12.6360   50.4760   92.6710 N   0  0  0  0  0  0  0  0  0  0  0  0
   12.3600   50.2410   91.2400 C   0  0  2  0  0  0  0  0  0  0  0  0
   11.4740   51.4190   90.7160 C   0  0  0  0  0  0  0  0  0  0  0  0
   10.4060   51.7630   91.2220 O   0  0  0  0  0  0  0  0  0  0  0  0
   11.9290   51.9930   89.5180 N   0  0  0  0  0  0  0  0  0  0  0  0
   11.0170   51.7320   88.3890 C   0  0  0  0  0  0  0  0  0  0  0  0
   10.7600   53.0960   87.7260 C   0  0  2  0  0  0  0  0  0  0  0  0
   11.6480   53.3350   86.6340 O   0  0  0  0  0  0  0  0  0  0  0  0
   11.0470   54.0940   88.8470 C   0  0  0  0  0  0  0  0  0  0  0  0
   12.2470   53.4280   89.5010 C   0  0  1  0  0  0  0  0  0  0  0  0
   12.8500   54.0540   90.7710 C   0  0  0  0  0  0  0  0  0  0  0  0
   14.0680   54.0870   90.9490 O   0  0  0  0  0  0  0  0  0  0  0  0
   11.9350   54.4610   91.7150 N   0  0  0  0  0  0  0  0  0  0  0  0
   12.3620   54.9760   92.9950 C   0  0  0  0  0  0  0  0  0  0  0  0
   11.1970   55.5360   93.7690 C   0  0  0  0  0  0  0  0  0  0  0  0
    9.9420   54.9150   93.7230 C   0  0  0  0  0  0  0  0  0  0  0  0
    8.8590   55.4490   94.4260 C   0  0  0  0  0  0  0  0  0  0  0  0
    9.0050   56.6210   95.1790 C   0  0  0  0  0  0  0  0  0  0  0  0
    7.8680   57.1660   95.9190 C   0  0  0  0  0  0  0  0  0  0  0  0
    6.9990   58.5150   95.2990 S   0  0  0  0  0  0  0  0  0  0  0  0
    5.9480   58.4420   96.6460 C   0  0  0  0  0  0  0  0  0  0  0  0
    6.1920   57.4950   97.5220 N   0  0  0  0  0  0  0  0  0  0  0  0
    7.2950   56.7560   97.1160 C   0  0  0  0  0  0  0  0  0  0  0  0
    7.7430   55.6350   97.9850 C   0  0  0  0  0  0  0  0  0  0  0  0
   10.2560   57.2490   95.2170 C   0  0  0  0  0  0  0  0  0  0  0  0
   11.3410   56.7140   94.5150 C   0  0  0  0  0  0  0  0  0  0  0  0
   11.7480   48.8220   91.0060 C   0  0  0  0  0  0  0  0  0  0  0  0
   11.7330   48.4650   89.5050 C   0  0  0  0  0  0  0  0  0  0  0  0
   12.6200   47.7560   91.7090 C   0  0  0  0  0  0  0  0  0  0  0  0
   10.3160   48.7190   91.5660 C   0  0  0  0  0  0  0  0  0  0  0  0
   14.6450   50.7830   95.4890 C   0  0  0  0  0  0  0  0  0  0  0  0
   15.4970   51.7100   96.3850 C   0  0  0  0  0  0  0  0  0  0  0  0
   15.6250   49.9440   94.6390 C   0  0  0  0  0  0  0  0  0  0  0  0
   13.8460   49.8260   96.3910 C   0  0  0  0  0  0  0  0  0  0  0  0
   10.4389   52.4908   97.4753 H   0  0  0  0  0  0  0  0  0  0  0  0
    9.8628   53.3216   95.9905 H   0  0  0  0  0  0  0  0  0  0  0  0
   10.0942   51.5403   95.9905 H   0  0  0  0  0  0  0  0  0  0  0  0
   11.6960   50.9560   94.8090 H   0  0  0  0  0  0  0  0  0  0  0  0
   14.1466   52.6586   94.6024 H   0  0  0  0  0  0  0  0  0  0  0  0
   11.8200   50.6080   93.2560 H   0  0  0  0  0  0  0  0  0  0  0  0
   13.2912   50.2358   90.6545 H   0  0  0  0  0  0  0  0  0  0  0  0
   11.4845   51.0409   87.6722 H   0  0  0  0  0  0  0  0  0  0  0  0
   10.0799   51.2664   88.7280 H   0  0  0  0  0  0  0  0  0  0  0  0
    9.7439   53.1649   87.3103 H   0  0  0  0  0  0  0  0  0  0  0  0
   12.2400   52.5590   86.5150 H   0  0  0  0  0  0  0  0  0  0  0  0
   11.2988   55.0891   88.4517 H   0  0  0  0  0  0  0  0  0  0  0  0
   10.2002   54.2842   89.5228 H   0  0  0  0  0  0  0  0  0  0  0  0
   13.1498   53.6213   88.9030 H   0  0  0  0  0  0  0  0  0  0  0  0
   11.0860   53.8960   91.7300 H   0  0  0  0  0  0  0  0  0  0  0  0
   12.8209   54.1618   93.5751 H   0  0  0  0  0  0  0  0  0  0  0  0
   13.0882   55.7840   92.8225 H   0  0  0  0  0  0  0  0  0  0  0  0
    9.8081   53.9993   93.1284 H   0  0  0  0  0  0  0  0  0  0  0  0
    7.8824   54.9442   94.3877 H   0  0  0  0  0  0  0  0  0  0  0  0
    5.1144   59.1487   96.7715 H   0  0  0  0  0  0  0  0  0  0  0  0
    7.6286   55.9213   99.0409 H   0  0  0  0  0  0  0  0  0  0  0  0
    7.1319   54.7440   97.7784 H   0  0  0  0  0  0  0  0  0  0  0  0
    8.7999   55.4107   97.7784 H   0  0  0  0  0  0  0  0  0  0  0  0
   10.3864   58.1704   95.8036 H   0  0  0  0  0  0  0  0  0  0  0  0
   12.3160   57.2222   94.5486 H   0  0  0  0  0  0  0  0  0  0  0  0
   11.6871   47.3722   89.3885 H   0  0  0  0  0  0  0  0  0  0  0  0
   10.8533   48.9219   89.0282 H   0  0  0  0  0  0  0  0  0  0  0  0
   12.6480   48.8465   89.0282 H   0  0  0  0  0  0  0  0  0  0  0  0
   12.5282   47.8682   92.7994 H   0  0  0  0  0  0  0  0  0  0  0  0
   12.2809   46.7521   91.4138 H   0  0  0  0  0  0  0  0  0  0  0  0
   13.6712   47.8894   91.4138 H   0  0  0  0  0  0  0  0  0  0  0  0
   10.3512   48.7215   92.6654 H   0  0  0  0  0  0  0  0  0  0  0  0
    9.7229   49.5768   91.2162 H   0  0  0  0  0  0  0  0  0  0  0  0
    9.8518   47.7851   91.2162 H   0  0  0  0  0  0  0  0  0  0  0  0
   15.2922   51.4872   97.4426 H   0  0  0  0  0  0  0  0  0  0  0  0
   16.5639   51.5435   96.1751 H   0  0  0  0  0  0  0  0  0  0  0  0
   15.2413   52.7591   96.1751 H   0  0  0  0  0  0  0  0  0  0  0  0
   16.2910   49.3738   95.3033 H   0  0  0  0  0  0  0  0  0  0  0  0
   15.0568   49.2481   94.0043 H   0  0  0  0  0  0  0  0  0  0  0  0
   16.2250   50.6127   94.0043 H   0  0  0  0  0  0  0  0  0  0  0  0
   14.0452   50.0646   97.4462 H   0  0  0  0  0  0  0  0  0  0  0  0
   12.7714   49.9402   96.1858 H   0  0  0  0  0  0  0  0  0  0  0  0
   14.1502   48.7890   96.1858 H   0  0  0  0  0  0  0  0  0  0  0  0
  1  2  1  0
  2  3  2  0
  2  4  1  0
  4  5  1  0
  5  6  1  0
  6  7  2  0
  6  8  1  0
  8  9  1  0
  9 10  1  0
 10 11  2  0
 10 12  1  0
 12 13  1  0
 13 14  1  0
 14 15  1  0
 14 16  1  0
 16 17  1  0
 17 18  1  0
 18 19  2  0
 18 20  1  0
 20 21  1  0
 21 22  1  0
 22 23  2  0
 23 24  1  0
 24 25  2  0
 25 26  1  0
 26 27  1  0
 27 28  1  0
 28 29  2  0
 29 30  1  0
 30 31  1  0
 25 32  1  0
 32 33  2  0
  9 34  1  0
 34 35  1  0
 34 36  1  0
 34 37  1  0
  5 38  1  0
 38 39  1  0
 38 40  1  0
 38 41  1  0
 17 12  1  0
 33 22  1  0
 30 26  2  0
  1 42  1  0
  1 43  1  0
  1 44  1  0
  4 45  1  0
  5 46  1  6
  8 47  1  0
  9 48  1  6
 13 49  1  0
 13 50  1  0
 14 51  1  6
 15 52  1  0
 16 53  1  0
 16 54  1  0
 17 55  1  6
 20 56  1  0
 21 57  1  0
 21 58  1  0
 23 59  1  0
 24 60  1  0
 28 61  1  0
 31 62  1  0
 31 63  1  0
 31 64  1  0
 32 65  1  0
 33 66  1  0
 35 67  1  0
 35 68  1  0
 35 69  1  0
 36 70  1  0
 36 71  1  0
 36 72  1  0
 37 73  1  0
 37 74  1  0
 37 75  1  0
 39 76  1  0
 39 77  1  0
 39 78  1  0
 40 79  1  0
 40 80  1  0
 40 81  1  0
 41 82  1  0
 41 83  1  0
 41 84  1  0
M  END
>  <meeko>  (5) 
{"is_sidechain": [false], "free_energy": -5.703, "intermolecular_energy": -9.696, "internal_energy": -2.467}

$$$$
4w9l_ligand
     RDKit          3D

 84 86  0  0  0  0  0  0  0  0999 V2000
   13.3530   54.1230   85.4140 C   0  0  0  0  0  0  0  0  0  0  0  0
   12.1690   53.4630   84.7610 C   0  0  0  0  0  0  0  0  0  0  0  0
   11.1180   54.0550   84.5430 O   0  0  0  0  0  0  0  0  0  0  0  0
   12.3900   52.1410   84.4430 N   0  0  0  0  0  0  0  0  0  0  0  0
   11.3880   51.3260   83.7310 C   0  0  2  0  0  0  0  0  0  0  0  0
   10.7800   50.2600   84.6860 C   0  0  0  0  0  0  0  0  0  0  0  0
    9.8560   49.5220   84.3510 O   0  0  0  0  0  0  0  0  0  0  0  0
   11.4090   50.1460   85.9110 N   0  0  0  0  0  0  0  0  0  0  0  0
   10.7830   49.4120   87.0280 C   0  0  2  0  0  0  0  0  0  0  0  0
   10.0060   50.4420   87.9120 C   0  0  0  0  0  0  0  0  0  0  0  0
    9.6920   50.2510   89.0870 O   0  0  0  0  0  0  0  0  0  0  0  0
    9.5650   51.5800   87.2170 N   0  0  0  0  0  0  0  0  0  0  0  0
    8.1140   51.5520   86.9580 C   0  0  0  0  0  0  0  0  0  0  0  0
    7.5710   52.9120   87.4290 C   0  0  2  0  0  0  0  0  0  0  0  0
    7.4950   53.8560   86.3600 O   0  0  0  0  0  0  0  0  0  0  0  0
    8.6130   53.3750   88.4470 C   0  0  0  0  0  0  0  0  0  0  0  0
    9.8860   52.9060   87.7630 C   0  0  1  0  0  0  0  0  0  0  0  0
   11.2340   53.0880   88.4840 C   0  0  0  0  0  0  0  0  0  0  0  0
   12.2540   52.5300   88.0800 O   0  0  0  0  0  0  0  0  0  0  0  0
   11.1800   53.8160   89.6510 N   0  0  0  0  0  0  0  0  0  0  0  0
   12.3500   53.9830   90.4810 C   0  0  0  0  0  0  0  0  0  0  0  0
   11.9680   54.3890   91.8810 C   0  0  0  0  0  0  0  0  0  0  0  0
   12.9220   54.9210   92.7570 C   0  0  0  0  0  0  0  0  0  0  0  0
   12.5680   55.2780   94.0620 C   0  0  0  0  0  0  0  0  0  0  0  0
   11.2560   55.0990   94.5180 C   0  0  0  0  0  0  0  0  0  0  0  0
   10.8930   55.4840   95.8820 C   0  0  0  0  0  0  0  0  0  0  0  0
   11.3440   54.4890   97.2110 S   0  0  0  0  0  0  0  0  0  0  0  0
   10.6190   55.6100   98.2800 C   0  0  0  0  0  0  0  0  0  0  0  0
   10.0660   56.6650   97.7280 N   0  0  0  0  0  0  0  0  0  0  0  0
   10.2160   56.6030   96.3490 C   0  0  0  0  0  0  0  0  0  0  0  0
    9.6440   57.7080   95.5340 C   0  0  0  0  0  0  0  0  0  0  0  0
   10.3040   54.5570   93.6470 C   0  0  0  0  0  0  0  0  0  0  0  0
   10.6580   54.2010   92.3410 C   0  0  0  0  0  0  0  0  0  0  0  0
   11.8370   48.5600   87.8070 C   0  0  0  0  0  0  0  0  0  0  0  0
   11.1910   47.2990   88.4170 C   0  0  0  0  0  0  0  0  0  0  0  0
   12.9350   48.0720   86.8350 C   0  0  0  0  0  0  0  0  0  0  0  0
   12.5130   49.3750   88.9270 C   0  0  0  0  0  0  0  0  0  0  0  0
   11.9600   50.7220   82.4090 C   0  0  0  0  0  0  0  0  0  0  0  0
   13.2820   51.4340   82.0410 C   0  0  0  0  0  0  0  0  0  0  0  0
   10.9780   50.9520   81.2410 C   0  0  0  0  0  0  0  0  0  0  0  0
   12.2320   49.2120   82.5230 C   0  0  0  0  0  0  0  0  0  0  0  0
   13.2484   54.0647   86.5075 H   0  0  0  0  0  0  0  0  0  0  0  0
   14.2754   53.6089   85.1060 H   0  0  0  0  0  0  0  0  0  0  0  0
   13.4008   55.1779   85.1060 H   0  0  0  0  0  0  0  0  0  0  0  0
   13.2860   51.7260   84.6680 H   0  0  0  0  0  0  0  0  0  0  0  0
   10.5627   51.9811   83.4152 H   0  0  0  0  0  0  0  0  0  0  0  0
   11.9490   50.9610   86.1740 H   0  0  0  0  0  0  0  0  0  0  0  0
   10.0563   48.6741   86.6575 H   0  0  0  0  0  0  0  0  0  0  0  0
    7.9204   51.4147   85.8839 H   0  0  0  0  0  0  0  0  0  0  0  0
    7.6271   50.7195   87.4870 H   0  0  0  0  0  0  0  0  0  0  0  0
    6.5512   52.8291   87.8329 H   0  0  0  0  0  0  0  0  0  0  0  0
    7.1290   54.7050   86.6950 H   0  0  0  0  0  0  0  0  0  0  0  0
    8.5988   54.4673   88.5761 H   0  0  0  0  0  0  0  0  0  0  0  0
    8.4669   52.9861   89.4655 H   0  0  0  0  0  0  0  0  0  0  0  0
   10.1521   53.6062   86.9574 H   0  0  0  0  0  0  0  0  0  0  0  0
   10.2970   53.7190   90.1510 H   0  0  0  0  0  0  0  0  0  0  0  0
   12.9013   53.0319   90.5205 H   0  0  0  0  0  0  0  0  0  0  0  0
   12.9769   54.7753   90.0460 H   0  0  0  0  0  0  0  0  0  0  0  0
   13.9586   55.0593   92.4159 H   0  0  0  0  0  0  0  0  0  0  0  0
   13.3264   55.7030   94.7359 H   0  0  0  0  0  0  0  0  0  0  0  0
   10.6162   55.4557   99.3691 H   0  0  0  0  0  0  0  0  0  0  0  0
    9.2418   58.4850   96.2006 H   0  0  0  0  0  0  0  0  0  0  0  0
   10.4312   58.1410   94.8993 H   0  0  0  0  0  0  0  0  0  0  0  0
    8.8360   57.3152   94.8993 H   0  0  0  0  0  0  0  0  0  0  0  0
    9.2698   54.4098   93.9917 H   0  0  0  0  0  0  0  0  0  0  0  0
    9.9011   53.7697   91.6694 H   0  0  0  0  0  0  0  0  0  0  0  0
   11.2244   47.3643   89.5146 H   0  0  0  0  0  0  0  0  0  0  0  0
   10.1446   47.2263   88.0857 H   0  0  0  0  0  0  0  0  0  0  0  0
   11.7433   46.4073   88.0857 H   0  0  0  0  0  0  0  0  0  0  0  0
   13.7915   47.6913   87.4107 H   0  0  0  0  0  0  0  0  0  0  0  0
   12.5327   47.2679   86.2012 H   0  0  0  0  0  0  0  0  0  0  0  0
   13.2623   48.9094   86.2012 H   0  0  0  0  0  0  0  0  0  0  0  0
   12.1927   48.9888   89.9059 H   0  0  0  0  0  0  0  0  0  0  0  0
   13.6057   49.2855   88.8372 H   0  0  0  0  0  0  0  0  0  0  0  0
   12.2231   50.4323   88.8372 H   0  0  0  0  0  0  0  0  0  0  0  0
   13.8129   51.7199   82.9610 H   0  0  0  0  0  0  0  0  0  0  0  0
   13.9128   50.7536   81.4501 H   0  0  0  0  0  0  0  0  0  0  0  0
   13.0610   52.3351   81.4501 H   0  0  0  0  0  0  0  0  0  0  0  0
    9.9804   51.1856   81.6413 H   0  0  0  0  0  0  0  0  0  0  0  0
   11.3316   51.7916   80.6246 H   0  0  0  0  0  0  0  0  0  0  0  0
   10.9220   50.0427   80.6246 H   0  0  0  0  0  0  0  0  0  0  0  0
   12.2832   48.9278   83.5844 H   0  0  0  0  0  0  0  0  0  0  0  0
   11.4197   48.6551   82.0331 H   0  0  0  0  0  0  0  0  0  0  0  0
   13.1876   48.9735   82.0331 H   0  0  0  0  0  0  0  0  0  0  0  0
  1  2  1  0
  2  3  2  0
  2  4  1  0
  4  5  1  0
  5  6  1  0
  6  7  2  0
  6  8  1  0
  8  9  1  0
  9 10  1  0
 10 11  2  0
 10 12  1  0
 12 13  1  0
 13 14  1  0
 14 15  1  0
 14 16  1  0
 16 17  1  0
 17 18  1  0
 18 19  2  0
 18 20  1  0
 20 21  1  0
 21 22  1  0
 22 23  2  0
 23 24  1  0
 24 25  2  0
 25 26  1  0
 26 27  1  0
 27 28  1  0
 28 29  2  0
 29 30  1  0
 30 31  1  0
 25 32  1  0
 32 33  2  0
  9 34  1  0
 34 35  1  0
 34 36  1  0
 34 37  1  0
  5 38  1  0
 38 39  1  0
 38 40  1  0
 38 41  1  0
 17 12  1  0
 33 22  1  0
 30 26  2  0
  1 42  1  0
  1 43  1  0
  1 44  1  0
  4 45  1  0
  5 46  1  6
  8 47  1  0
  9 48  1  6
 13 49  1  0
 13 50  1  0
 14 51  1  1
 15 52  1  0
 16 53  1  0
 16 54  1  0
 17 55  1  6
 20 56  1  0
 21 57  1  0
 21 58  1  0
 23 59  1  0
 24 60  1  0
 28 61  1  0
 31 62  1  0
 31 63  1  0
 31 64  1  0
 32 65  1  0
 33 66  1  0
 35 67  1  0
 35 68  1  0
 35 69  1  0
 36 70  1  0
 36 71  1  0
 36 72  1  0
 37 73  1  0
 37 74  1  0
 37 75  1  0
 39 76  1  0
 39 77  1  0
 39 78  1  0
 40 79  1  0
 40 80  1  0
 40 81  1  0
 41 82  1  0
 41 83  1  0
 41 84  1  0
M  END
>  <meeko>  (6) 
{"is_sidechain": [false], "free_energy": -5.635, "intermolecular_energy": -10.548, "internal_energy": -1.502}

$$$$
4w9l_ligand
     RDKit          3D

 84 86  0  0  0  0  0  0  0  0999 V2000
   14.9740   51.2200   81.8800 C   0  0  0  0  0  0  0  0  0  0  0  0
   13.6790   51.5960   82.5460 C   0  0  0  0  0  0  0  0  0  0  0  0
   13.5500   52.6180   83.2130 O   0  0  0  0  0  0  0  0  0  0  0  0
   12.6700   50.6830   82.3330 N   0  0  0  0  0  0  0  0  0  0  0  0
   11.3000   50.8940   82.8350 C   0  0  2  0  0  0  0  0  0  0  0  0
   10.9610   49.8510   83.9380 C   0  0  0  0  0  0  0  0  0  0  0  0
   10.6160   48.7000   83.6760 O   0  0  0  0  0  0  0  0  0  0  0  0
   11.1540   50.2870   85.2340 N   0  0  0  0  0  0  0  0  0  0  0  0
   10.6020   49.5430   86.3830 C   0  0  2  0  0  0  0  0  0  0  0  0
    9.6550   50.5040   87.1740 C   0  0  0  0  0  0  0  0  0  0  0  0
    9.3150   50.3350   88.3450 O   0  0  0  0  0  0  0  0  0  0  0  0
    9.1000   51.5340   86.3980 N   0  0  0  0  0  0  0  0  0  0  0  0
    7.6270   51.4850   86.3700 C   0  0  0  0  0  0  0  0  0  0  0  0
    7.1470   52.9050   86.7160 C   0  0  2  0  0  0  0  0  0  0  0  0
    6.8980   53.6840   85.5450 O   0  0  0  0  0  0  0  0  0  0  0  0
    8.3260   53.4990   87.4850 C   0  0  0  0  0  0  0  0  0  0  0  0
    9.4860   52.9220   86.6890 C   0  0  1  0  0  0  0  0  0  0  0  0
   10.9260   53.1920   87.1630 C   0  0  0  0  0  0  0  0  0  0  0  0
   11.8930   52.9040   86.4580 O   0  0  0  0  0  0  0  0  0  0  0  0
   11.0400   53.6650   88.4500 N   0  0  0  0  0  0  0  0  0  0  0  0
   12.3340   53.8700   89.0580 C   0  0  0  0  0  0  0  0  0  0  0  0
   12.2040   54.1110   90.5390 C   0  0  0  0  0  0  0  0  0  0  0  0
   10.9950   53.8630   91.2010 C   0  0  0  0  0  0  0  0  0  0  0  0
   10.8720   54.1080   92.5720 C   0  0  0  0  0  0  0  0  0  0  0  0
   11.9520   54.6160   93.3050 C   0  0  0  0  0  0  0  0  0  0  0  0
   11.8160   54.8600   94.7410 C   0  0  0  0  0  0  0  0  0  0  0  0
   11.9250   53.5530   95.8540 S   0  0  0  0  0  0  0  0  0  0  0  0
   11.7100   54.6510   97.1460 C   0  0  0  0  0  0  0  0  0  0  0  0
   11.5620   55.9140   96.8170 N   0  0  0  0  0  0  0  0  0  0  0  0
   11.6190   56.0460   95.4360 C   0  0  0  0  0  0  0  0  0  0  0  0
   11.4610   57.4060   94.8570 C   0  0  0  0  0  0  0  0  0  0  0  0
   13.1580   54.8750   92.6420 C   0  0  0  0  0  0  0  0  0  0  0  0
   13.2810   54.6280   91.2710 C   0  0  0  0  0  0  0  0  0  0  0  0
   11.7400   48.9070   87.2460 C   0  0  0  0  0  0  0  0  0  0  0  0
   11.2440   47.6360   87.9680 C   0  0  0  0  0  0  0  0  0  0  0  0
   12.9070   48.4720   86.3300 C   0  0  0  0  0  0  0  0  0  0  0  0
   12.2890   49.8990   88.2880 C   0  0  0  0  0  0  0  0  0  0  0  0
   10.2540   50.9330   81.6750 C   0  0  0  0  0  0  0  0  0  0  0  0
   10.5110   52.1700   80.7850 C   0  0  0  0  0  0  0  0  0  0  0  0
    8.8240   51.0680   82.2420 C   0  0  0  0  0  0  0  0  0  0  0  0
   10.3080   49.6740   80.7930 C   0  0  0  0  0  0  0  0  0  0  0  0
   15.7308   51.0003   82.6475 H   0  0  0  0  0  0  0  0  0  0  0  0
   14.8188   50.3298   81.2527 H   0  0  0  0  0  0  0  0  0  0  0  0
   15.3196   52.0549   81.2527 H   0  0  0  0  0  0  0  0  0  0  0  0
   12.8650   49.8590   81.7770 H   0  0  0  0  0  0  0  0  0  0  0  0
   11.2473   51.8869   83.3056 H   0  0  0  0  0  0  0  0  0  0  0  0
   11.1650   51.2950   85.3320 H   0  0  0  0  0  0  0  0  0  0  0  0
   10.0030   48.6841   86.0460 H   0  0  0  0  0  0  0  0  0  0  0  0
    7.2735   51.1956   85.3694 H   0  0  0  0  0  0  0  0  0  0  0  0
    7.2357   50.7435   87.0821 H   0  0  0  0  0  0  0  0  0  0  0  0
    6.2019   52.8934   87.2787 H   0  0  0  0  0  0  0  0  0  0  0  0
    5.9350   53.8680   85.4710 H   0  0  0  0  0  0  0  0  0  0  0  0
    8.3189   54.5986   87.4556 H   0  0  0  0  0  0  0  0  0  0  0  0
    8.3415   53.2631   88.5593 H   0  0  0  0  0  0  0  0  0  0  0  0
    9.6187   53.4941   85.7589 H   0  0  0  0  0  0  0  0  0  0  0  0
   10.3100   53.3250   89.0750 H   0  0  0  0  0  0  0  0  0  0  0  0
   12.9546   52.9770   88.8922 H   0  0  0  0  0  0  0  0  0  0  0  0
   12.7999   54.7545   88.5992 H   0  0  0  0  0  0  0  0  0  0  0  0
   10.1349   53.4721   90.6375 H   0  0  0  0  0  0  0  0  0  0  0  0
    9.9185   53.8999   93.0795 H   0  0  0  0  0  0  0  0  0  0  0  0
   11.6963   54.3186   98.1945 H   0  0  0  0  0  0  0  0  0  0  0  0
   11.3754   58.1427   95.6694 H   0  0  0  0  0  0  0  0  0  0  0  0
   12.3375   57.6445   94.2366 H   0  0  0  0  0  0  0  0  0  0  0  0
   10.5532   57.4372   94.2366 H   0  0  0  0  0  0  0  0  0  0  0  0
   14.0148   55.2756   93.2037 H   0  0  0  0  0  0  0  0  0  0  0  0
   14.2326   54.8417   90.7623 H   0  0  0  0  0  0  0  0  0  0  0  0
   11.3025   47.7860   89.0562 H   0  0  0  0  0  0  0  0  0  0  0  0
   10.2013   47.4347   87.6812 H   0  0  0  0  0  0  0  0  0  0  0  0
   11.8747   46.7816   87.6812 H   0  0  0  0  0  0  0  0  0  0  0  0
   13.7595   48.1542   86.9482 H   0  0  0  0  0  0  0  0  0  0  0  0
   12.5822   47.6346   85.6950 H   0  0  0  0  0  0  0  0  0  0  0  0
   13.2096   49.3177   85.6950 H   0  0  0  0  0  0  0  0  0  0  0  0
   12.0799   49.5212   89.2997 H   0  0  0  0  0  0  0  0  0  0  0  0
   13.3755   50.0073   88.1543 H   0  0  0  0  0  0  0  0  0  0  0  0
   11.8038   50.8771   88.1543 H   0  0  0  0  0  0  0  0  0  0  0  0
   10.6935   53.0483   81.4217 H   0  0  0  0  0  0  0  0  0  0  0  0
   11.3906   51.9884   80.1499 H   0  0  0  0  0  0  0  0  0  0  0  0
    9.6319   52.3538   80.1499 H   0  0  0  0  0  0  0  0  0  0  0  0
    8.8636   51.0643   83.3413 H   0  0  0  0  0  0  0  0  0  0  0  0
    8.3793   52.0121   81.8943 H   0  0  0  0  0  0  0  0  0  0  0  0
    8.2105   50.2238   81.8943 H   0  0  0  0  0  0  0  0  0  0  0  0
   10.3464   48.7797   81.4324 H   0  0  0  0  0  0  0  0  0  0  0  0
    9.4108   49.6325   80.1579 H   0  0  0  0  0  0  0  0  0  0  0  0
   11.2055   49.7094   80.1579 H   0  0  0  0  0  0  0  0  0  0  0  0
  1  2  1  0
  2  3  2  0
  2  4  1  0
  4  5  1  0
  5  6  1  0
  6  7  2  0
  6  8  1  0
  8  9  1  0
  9 10  1  0
 10 11  2  0
 10 12  1  0
 12 13  1  0
 13 14  1  0
 14 15  1  0
 14 16  1  0
 16 17  1  0
 17 18  1  0
 18 19  2  0
 18 20  1  0
 20 21  1  0
 21 22  1  0
 22 23  2  0
 23 24  1  0
 24 25  2  0
 25 26  1  0
 26 27  1  0
 27 28  1  0
 28 29  2  0
 29 30  1  0
 30 31  1  0
 25 32  1  0
 32 33  2  0
  9 34  1  0
 34 35  1  0
 34 36  1  0
 34 37  1  0
  5 38  1  0
 38 39  1  0
 38 40  1  0
 38 41  1  0
 17 12  1  0
 33 22  1  0
 30 26  2  0
  1 42  1  0
  1 43  1  0
  1 44  1  0
  4 45  1  0
  5 46  1  1
  8 47  1  0
  9 48  1  6
 13 49  1  0
 13 50  1  0
 14 51  1  1
 15 52  1  0
 16 53  1  0
 16 54  1  0
 17 55  1  6
 20 56  1  0
 21 57  1  0
 21 58  1  0
 23 59  1  0
 24 60  1  0
 28 61  1  0
 31 62  1  0
 31 63  1  0
 31 64  1  0
 32 65  1  0
 33 66  1  0
 35 67  1  0
 35 68  1  0
 35 69  1  0
 36 70  1  0
 36 71  1  0
 36 72  1  0
 37 73  1  0
 37 74  1  0
 37 75  1  0
 39 76  1  0
 39 77  1  0
 39 78  1  0
 40 79  1  0
 40 80  1  0
 40 81  1  0
 41 82  1  0
 41 83  1  0
 41 84  1  0
M  END
>  <meeko>  (7) 
{"is_sidechain": [false], "free_energy": -5.616, "intermolecular_energy": -10.131, "internal_energy": -1.888}

$$$$
4w9l_ligand
     RDKit          3D

 84 86  0  0  0  0  0  0  0  0999 V2000
   13.1090   53.9420   85.3180 C   0  0  0  0  0  0  0  0  0  0  0  0
   11.7000   53.4150   85.3110 C   0  0  0  0  0  0  0  0  0  0  0  0
   10.8780   53.7360   84.4580 O   0  0  0  0  0  0  0  0  0  0  0  0
   11.4360   52.5490   86.3490 N   0  0  0  0  0  0  0  0  0  0  0  0
   10.1390   51.8610   86.4880 C   0  0  2  0  0  0  0  0  0  0  0  0
    9.6060   52.0000   87.9420 C   0  0  0  0  0  0  0  0  0  0  0  0
    8.4230   52.2220   88.1940 O   0  0  0  0  0  0  0  0  0  0  0  0
   10.5430   51.7750   88.9320 N   0  0  0  0  0  0  0  0  0  0  0  0
   10.2830   52.1570   90.3330 C   0  0  2  0  0  0  0  0  0  0  0  0
   10.9720   53.5370   90.5960 C   0  0  0  0  0  0  0  0  0  0  0  0
   10.3730   54.5580   90.9340 O   0  0  0  0  0  0  0  0  0  0  0  0
   12.3410   53.5660   90.2880 N   0  0  0  0  0  0  0  0  0  0  0  0
   12.6020   54.0980   88.9380 C   0  0  0  0  0  0  0  0  0  0  0  0
   13.6840   55.1780   89.1080 C   0  0  2  0  0  0  0  0  0  0  0  0
   14.9960   54.6590   88.8890 O   0  0  0  0  0  0  0  0  0  0  0  0
   13.5370   55.5990   90.5700 C   0  0  0  0  0  0  0  0  0  0  0  0
   13.2560   54.2500   91.2120 C   0  0  1  0  0  0  0  0  0  0  0  0
   12.9480   54.1890   92.7190 C   0  0  0  0  0  0  0  0  0  0  0  0
   13.1910   53.1790   93.3790 O   0  0  0  0  0  0  0  0  0  0  0  0
   12.2930   55.2880   93.2280 N   0  0  0  0  0  0  0  0  0  0  0  0
   11.8550   55.3240   94.6040 C   0  0  0  0  0  0  0  0  0  0  0  0
   10.4860   55.9400   94.7200 C   0  0  0  0  0  0  0  0  0  0  0  0
   10.3320   57.2730   95.1230 C   0  0  0  0  0  0  0  0  0  0  0  0
    9.0590   57.8350   95.2500 C   0  0  0  0  0  0  0  0  0  0  0  0
    7.9130   57.0720   94.9860 C   0  0  0  0  0  0  0  0  0  0  0  0
    6.5860   57.6730   95.1120 C   0  0  0  0  0  0  0  0  0  0  0  0
    5.8680   58.4730   93.7690 S   0  0  0  0  0  0  0  0  0  0  0  0
    4.4790   58.7880   94.7150 C   0  0  0  0  0  0  0  0  0  0  0  0
    4.5060   58.3470   95.9520 N   0  0  0  0  0  0  0  0  0  0  0  0
    5.7140   57.7060   96.1920 C   0  0  0  0  0  0  0  0  0  0  0  0
    5.9470   57.1410   97.5480 C   0  0  0  0  0  0  0  0  0  0  0  0
    8.0650   55.7370   94.5940 C   0  0  0  0  0  0  0  0  0  0  0  0
    9.3400   55.1750   94.4660 C   0  0  0  0  0  0  0  0  0  0  0  0
   10.7160   51.0240   91.3190 C   0  0  0  0  0  0  0  0  0  0  0  0
   10.4600   51.4340   92.7840 C   0  0  0  0  0  0  0  0  0  0  0  0
    9.8720   49.7560   91.0580 C   0  0  0  0  0  0  0  0  0  0  0  0
   12.2030   50.6560   91.1500 C   0  0  0  0  0  0  0  0  0  0  0  0
   10.2080   50.3820   85.9900 C   0  0  0  0  0  0  0  0  0  0  0  0
   11.6500   49.8490   86.1400 C   0  0  0  0  0  0  0  0  0  0  0  0
    9.8450   50.3000   84.4910 C   0  0  0  0  0  0  0  0  0  0  0  0
    9.2580   49.4550   86.7690 C   0  0  0  0  0  0  0  0  0  0  0  0
   13.4479   54.0688   86.3568 H   0  0  0  0  0  0  0  0  0  0  0  0
   13.7693   53.2301   84.8012 H   0  0  0  0  0  0  0  0  0  0  0  0
   13.1401   54.9125   84.8012 H   0  0  0  0  0  0  0  0  0  0  0  0
   12.1700   52.3460   87.0150 H   0  0  0  0  0  0  0  0  0  0  0  0
    9.4074   52.3533   85.8304 H   0  0  0  0  0  0  0  0  0  0  0  0
   11.5020   51.8780   88.6220 H   0  0  0  0  0  0  0  0  0  0  0  0
    9.2051   52.2798   90.5149 H   0  0  0  0  0  0  0  0  0  0  0  0
   12.9622   53.2975   88.2751 H   0  0  0  0  0  0  0  0  0  0  0  0
   11.6888   54.5113   88.4850 H   0  0  0  0  0  0  0  0  0  0  0  0
   13.5599   55.9999   88.3876 H   0  0  0  0  0  0  0  0  0  0  0  0
   15.0410   53.7320   89.2130 H   0  0  0  0  0  0  0  0  0  0  0  0
   14.4617   56.0504   90.9588 H   0  0  0  0  0  0  0  0  0  0  0  0
   12.7704   56.3661   90.7542 H   0  0  0  0  0  0  0  0  0  0  0  0
   14.1952   53.6873   91.3183 H   0  0  0  0  0  0  0  0  0  0  0  0
   11.6720   55.7380   92.5580 H   0  0  0  0  0  0  0  0  0  0  0  0
   11.8218   54.2974   94.9976 H   0  0  0  0  0  0  0  0  0  0  0  0
   12.5640   55.9359   95.1809 H   0  0  0  0  0  0  0  0  0  0  0  0
   11.2212   57.8826   95.3414 H   0  0  0  0  0  0  0  0  0  0  0  0
    8.9552   58.8853   95.5598 H   0  0  0  0  0  0  0  0  0  0  0  0
    3.6113   59.3297   94.3103 H   0  0  0  0  0  0  0  0  0  0  0  0
    5.6440   57.8758   98.3084 H   0  0  0  0  0  0  0  0  0  0  0  0
    5.3544   56.2223   97.6692 H   0  0  0  0  0  0  0  0  0  0  0  0
    7.0150   56.9071   97.6692 H   0  0  0  0  0  0  0  0  0  0  0  0
    7.1753   55.1249   94.3849 H   0  0  0  0  0  0  0  0  0  0  0  0
    9.4436   54.1226   94.1631 H   0  0  0  0  0  0  0  0  0  0  0  0
   10.9208   50.6960   93.4571 H   0  0  0  0  0  0  0  0  0  0  0  0
   10.9002   52.4248   92.9697 H   0  0  0  0  0  0  0  0  0  0  0  0
    9.3765   51.4735   92.9697 H   0  0  0  0  0  0  0  0  0  0  0  0
    9.5747   49.3093   92.0183 H   0  0  0  0  0  0  0  0  0  0  0  0
    8.9726   50.0257   90.4850 H   0  0  0  0  0  0  0  0  0  0  0  0
   10.4679   49.0304   90.4850 H   0  0  0  0  0  0  0  0  0  0  0  0
   12.6672   50.5411   92.1406 H   0  0  0  0  0  0  0  0  0  0  0  0
   12.2858   49.7103   90.5944 H   0  0  0  0  0  0  0  0  0  0  0  0
   12.7173   51.4539   90.5944 H   0  0  0  0  0  0  0  0  0  0  0  0
   11.8978   49.7574   87.2078 H   0  0  0  0  0  0  0  0  0  0  0  0
   11.7281   48.8626   85.6595 H   0  0  0  0  0  0  0  0  0  0  0  0
   12.3509   50.5475   85.6595 H   0  0  0  0  0  0  0  0  0  0  0  0
    8.7770   50.0587   84.3850 H   0  0  0  0  0  0  0  0  0  0  0  0
   10.0518   51.2675   84.0102 H   0  0  0  0  0  0  0  0  0  0  0  0
   10.4476   49.5154   84.0102 H   0  0  0  0  0  0  0  0  0  0  0  0
    9.4074   49.6008   87.8490 H   0  0  0  0  0  0  0  0  0  0  0  0
    8.2166   49.6937   86.5074 H   0  0  0  0  0  0  0  0  0  0  0  0
    9.4711   48.4080   86.5074 H   0  0  0  0  0  0  0  0  0  0  0  0
  1  2  1  0
  2  3  2  0
  2  4  1  0
  4  5  1  0
  5  6  1  0
  6  7  2  0
  6  8  1  0
  8  9  1  0
  9 10  1  0
 10 11  2  0
 10 12  1  0
 12 13  1  0
 13 14  1  0
 14 15  1  0
 14 16  1  0
 16 17  1  0
 17 18  1  0
 18 19  2  0
 18 20  1  0
 20 21  1  0
 21 22  1  0
 22 23  2  0
 23 24  1  0
 24 25  2  0
 25 26  1  0
 26 27  1  0
 27 28  1  0
 28 29  2  0
 29 30  1  0
 30 31  1  0
 25 32  1  0
 32 33  2  0
  9 34  1  0
 34 35  1  0
 34 36  1  0
 34 37  1  0
  5 38  1  0
 38 39  1  0
 38 40  1  0
 38 41  1  0
 17 12  1  0
 33 22  1  0
 30 26  2  0
  1 42  1  0
  1 43  1  0
  1 44  1  0
  4 45  1  0
  5 46  1  6
  8 47  1  0
  9 48  1  6
 13 49  1  0
 13 50  1  0
 14 51  1  6
 15 52  1  0
 16 53  1  0
 16 54  1  0
 17 55  1  1
 20 56  1  0
 21 57  1  0
 21 58  1  0
 23 59  1  0
 24 60  1  0
 28 61  1  0
 31 62  1  0
 31 63  1  0
 31 64  1  0
 32 65  1  0
 33 66  1  0
 35 67  1  0
 35 68  1  0
 35 69  1  0
 36 70  1  0
 36 71  1  0
 36 72  1  0
 37 73  1  0
 37 74  1  0
 37 75  1  0
 39 76  1  0
 39 77  1  0
 39 78  1  0
 40 79  1  0
 40 80  1  0
 40 81  1  0
 41 82  1  0
 41 83  1  0
 41 84  1  0
M  END
>  <meeko>  (8) 
{"is_sidechain": [false], "free_energy": -5.538, "intermolecular_energy": -10.15, "internal_energy": -1.738}

$$$$
4w9l_ligand
     RDKit          3D

 84 86  0  0  0  0  0  0  0  0999 V2000
   12.9750   49.1290   89.3820 C   0  0  0  0  0  0  0  0  0  0  0  0
   11.5980   48.8150   89.9000 C   0  0  0  0  0  0  0  0  0  0  0  0
   10.9960   47.7880   89.6010 O   0  0  0  0  0  0  0  0  0  0  0  0
   11.0920   49.7910   90.7300 N   0  0  0  0  0  0  0  0  0  0  0  0
    9.7890   49.6510   91.4050 C   0  0  2  0  0  0  0  0  0  0  0  0
    8.6620   50.2900   90.5440 C   0  0  0  0  0  0  0  0  0  0  0  0
    7.5110   49.8600   90.5380 O   0  0  0  0  0  0  0  0  0  0  0  0
    9.0300   51.4260   89.8500 N   0  0  0  0  0  0  0  0  0  0  0  0
    8.1860   51.9710   88.7690 C   0  0  2  0  0  0  0  0  0  0  0  0
    8.9180   51.7240   87.4090 C   0  0  0  0  0  0  0  0  0  0  0  0
    8.6040   52.2560   86.3450 O   0  0  0  0  0  0  0  0  0  0  0  0
    9.9060   50.7270   87.4590 N   0  0  0  0  0  0  0  0  0  0  0  0
    9.5250   49.5200   86.7030 C   0  0  0  0  0  0  0  0  0  0  0  0
   10.7200   49.1930   85.7910 C   0  0  2  0  0  0  0  0  0  0  0  0
   11.6020   48.2420   86.3880 O   0  0  0  0  0  0  0  0  0  0  0  0
   11.4350   50.5360   85.6510 C   0  0  0  0  0  0  0  0  0  0  0  0
   11.2780   51.0750   87.0640 C   0  0  1  0  0  0  0  0  0  0  0  0
   11.7900   52.4900   87.3860 C   0  0  0  0  0  0  0  0  0  0  0  0
   11.9860   53.3160   86.4950 O   0  0  0  0  0  0  0  0  0  0  0  0
   12.1080   52.7120   88.7070 N   0  0  0  0  0  0  0  0  0  0  0  0
   12.6910   53.9620   89.1350 C   0  0  0  0  0  0  0  0  0  0  0  0
   12.4700   54.1860   90.6080 C   0  0  0  0  0  0  0  0  0  0  0  0
   11.1980   54.0320   91.1730 C   0  0  0  0  0  0  0  0  0  0  0  0
   10.9920   54.2610   92.5360 C   0  0  0  0  0  0  0  0  0  0  0  0
   12.0530   54.6600   93.3600 C   0  0  0  0  0  0  0  0  0  0  0  0
   11.8300   54.8880   94.7870 C   0  0  0  0  0  0  0  0  0  0  0  0
   11.9260   53.5780   95.8970 S   0  0  0  0  0  0  0  0  0  0  0  0
   11.6000   54.6580   97.1820 C   0  0  0  0  0  0  0  0  0  0  0  0
   11.4240   55.9170   96.8510 N   0  0  0  0  0  0  0  0  0  0  0  0
   11.5510   56.0600   95.4770 C   0  0  0  0  0  0  0  0  0  0  0  0
   11.3730   57.4190   94.8970 C   0  0  0  0  0  0  0  0  0  0  0  0
   13.3230   54.8260   92.7940 C   0  0  0  0  0  0  0  0  0  0  0  0
   13.5290   54.5950   91.4300 C   0  0  0  0  0  0  0  0  0  0  0  0
    7.8150   53.4650   89.0380 C   0  0  0  0  0  0  0  0  0  0  0  0
    6.5310   53.8630   88.2810 C   0  0  0  0  0  0  0  0  0  0  0  0
    7.5250   53.6670   90.5430 C   0  0  0  0  0  0  0  0  0  0  0  0
    8.9560   54.4180   88.6350 C   0  0  0  0  0  0  0  0  0  0  0  0
    9.8310   50.1890   92.8710 C   0  0  0  0  0  0  0  0  0  0  0  0
   11.2440   50.7310   93.1860 C   0  0  0  0  0  0  0  0  0  0  0  0
    9.5470   49.0480   93.8730 C   0  0  0  0  0  0  0  0  0  0  0  0
    8.8090   51.3130   93.1140 C   0  0  0  0  0  0  0  0  0  0  0  0
   13.6588   49.2849   90.2294 H   0  0  0  0  0  0  0  0  0  0  0  0
   13.3362   48.2902   88.7689 H   0  0  0  0  0  0  0  0  0  0  0  0
   12.9369   50.0415   88.7689 H   0  0  0  0  0  0  0  0  0  0  0  0
   11.6530   50.6140   90.9160 H   0  0  0  0  0  0  0  0  0  0  0  0
    9.5543   48.5803   91.4969 H   0  0  0  0  0  0  0  0  0  0  0  0
   10.0290   51.5180   89.7110 H   0  0  0  0  0  0  0  0  0  0  0  0
    7.2165   51.4530   88.7266 H   0  0  0  0  0  0  0  0  0  0  0  0
    9.3300   48.6843   87.3911 H   0  0  0  0  0  0  0  0  0  0  0  0
    8.6072   49.6844   86.1194 H   0  0  0  0  0  0  0  0  0  0  0  0
   10.3992   48.7510   84.8362 H   0  0  0  0  0  0  0  0  0  0  0  0
   11.9890   48.6210   87.2080 H   0  0  0  0  0  0  0  0  0  0  0  0
   12.4932   50.4075   85.3795 H   0  0  0  0  0  0  0  0  0  0  0  0
   11.0365   51.1900   84.8615 H   0  0  0  0  0  0  0  0  0  0  0  0
   12.0101   50.5922   87.7279 H   0  0  0  0  0  0  0  0  0  0  0  0
   12.4490   51.8810   89.1890 H   0  0  0  0  0  0  0  0  0  0  0  0
   13.7720   53.9424   88.9326 H   0  0  0  0  0  0  0  0  0  0  0  0
   12.2092   54.7808   88.5805 H   0  0  0  0  0  0  0  0  0  0  0  0
   10.3530   53.7279   90.5379 H   0  0  0  0  0  0  0  0  0  0  0  0
    9.9884   54.1269   92.9659 H   0  0  0  0  0  0  0  0  0  0  0  0
   11.5410   54.3178   98.2264 H   0  0  0  0  0  0  0  0  0  0  0  0
   11.2767   58.1546   95.7092 H   0  0  0  0  0  0  0  0  0  0  0  0
   12.2459   57.6701   94.2766 H   0  0  0  0  0  0  0  0  0  0  0  0
   10.4649   57.4368   94.2766 H   0  0  0  0  0  0  0  0  0  0  0  0
   14.1656   55.1407   93.4273 H   0  0  0  0  0  0  0  0  0  0  0  0
   14.5310   54.7356   90.9986 H   0  0  0  0  0  0  0  0  0  0  0  0
    5.7398   54.1083   89.0047 H   0  0  0  0  0  0  0  0  0  0  0  0
    6.7348   54.7401   87.6493 H   0  0  0  0  0  0  0  0  0  0  0  0
    6.2029   53.0244   87.6493 H   0  0  0  0  0  0  0  0  0  0  0  0
    8.2847   53.1378   91.1370 H   0  0  0  0  0  0  0  0  0  0  0  0
    7.5553   54.7404   90.7814 H   0  0  0  0  0  0  0  0  0  0  0  0
    6.5286   53.2665   90.7814 H   0  0  0  0  0  0  0  0  0  0  0  0
    9.4359   54.8188   89.5400 H   0  0  0  0  0  0  0  0  0  0  0  0
    9.6992   53.8686   88.0386 H   0  0  0  0  0  0  0  0  0  0  0  0
    8.5477   55.2472   88.0386 H   0  0  0  0  0  0  0  0  0  0  0  0
   11.3818   50.7839   94.2760 H   0  0  0  0  0  0  0  0  0  0  0  0
   11.9995   50.0588   92.7530 H   0  0  0  0  0  0  0  0  0  0  0  0
   11.3562   51.7360   92.7530 H   0  0  0  0  0  0  0  0  0  0  0  0
    9.6421   49.4299   94.9002 H   0  0  0  0  0  0  0  0  0  0  0  0
    8.5268   48.6677   93.7161 H   0  0  0  0  0  0  0  0  0  0  0  0
   10.2699   48.2339   93.7161 H   0  0  0  0  0  0  0  0  0  0  0  0
    8.6756   51.4597   94.1960 H   0  0  0  0  0  0  0  0  0  0  0  0
    9.1748   52.2457   92.6599 H   0  0  0  0  0  0  0  0  0  0  0  0
    7.8458   51.0373   92.6599 H   0  0  0  0  0  0  0  0  0  0  0  0
  1  2  1  0
  2  3  2  0
  2  4  1  0
  4  5  1  0
  5  6  1  0
  6  7  2  0
  6  8  1  0
  8  9  1  0
  9 10  1  0
 10 11  2  0
 10 12  1  0
 12 13  1  0
 13 14  1  0
 14 15  1  0
 14 16  1  0
 16 17  1  0
 17 18  1  0
 18 19  2  0
 18 20  1  0
 20 21  1  0
 21 22  1  0
 22 23  2  0
 23 24  1  0
 24 25  2  0
 25 26  1  0
 26 27  1  0
 27 28  1  0
 28 29  2  0
 29 30  1  0
 30 31  1  0
 25 32  1  0
 32 33  2  0
  9 34  1  0
 34 35  1  0
 34 36  1  0
 34 37  1  0
  5 38  1  0
 38 39  1  0
 38 40  1  0
 38 41  1  0
 17 12  1  0
 33 22  1  0
 30 26  2  0
  1 42  1  0
  1 43  1  0
  1 44  1  0
  4 45  1  0
  5 46  1  1
  8 47  1  0
  9 48  1  6
 13 49  1  0
 13 50  1  0
 14 51  1  6
 15 52  1  0
 16 53  1  0
 16 54  1  0
 17 55  1  1
 20 56  1  0
 21 57  1  0
 21 58  1  0
 23 59  1  0
 24 60  1  0
 28 61  1  0
 31 62  1  0
 31 63  1  0
 31 64  1  0
 32 65  1  0
 33 66  1  0
 35 67  1  0
 35 68  1  0
 35 69  1  0
 36 70  1  0
 36 71  1  0
 36 72  1  0
 37 73  1  0
 37 74  1  0
 37 75  1  0
 39 76  1  0
 39 77  1  0
 39 78  1  0
 40 79  1  0
 40 80  1  0
 40 81  1  0
 41 82  1  0
 41 83  1  0
 41 84  1  0
M  END
>  <meeko>  (9) 
{"is_sidechain": [false], "free_energy": -5.483, "intermolecular_energy": -8.086, "internal_energy": -3.71}

$$$$
