4e6q_ligand
     RDKit          3D

 47 51  0  0  0  0  0  0  0  0999 V2000
    8.0510   20.6620    6.3390 C   0  0  0  0  0  0  0  0  0  0  0  0
    9.3840   20.7100    5.9360 C   0  0  0  0  0  0  0  0  0  0  0  0
   10.0770   21.9220    5.9560 C   0  0  0  0  0  0  0  0  0  0  0  0
    9.4390   23.0980    6.3850 C   0  0  0  0  0  0  0  0  0  0  0  0
   10.1950   24.3970    6.4380 C   0  0  0  0  0  0  0  0  0  0  0  0
   10.4850   24.8550    7.8610 N   0  0  2  0  0  0  0  0  0  0  0  0
   10.6710   26.3520    7.9530 C   0  0  0  0  0  0  0  0  0  0  0  0
   10.8200   26.7670    9.4080 C   0  0  0  0  0  0  0  0  0  0  0  0
   11.9140   25.9670   10.1180 C   0  0  1  0  0  0  0  0  0  0  0  0
   12.0920   26.3460   11.5130 N   0  0  0  0  0  0  0  0  0  0  0  0
   11.9660   25.4120   12.5250 C   0  0  0  0  0  0  0  0  0  0  0  0
   12.1490   25.9330   13.7150 N   0  0  0  0  0  0  0  0  0  0  0  0
   12.4070   27.2580   13.4840 C   0  0  0  0  0  0  0  0  0  0  0  0
   12.6800   28.3120   14.3740 C   0  0  0  0  0  0  0  0  0  0  0  0
   12.9160   29.5880   13.9530 N   0  0  0  0  0  0  0  0  0  0  0  0
   12.8700   29.7650   12.6240 C   0  0  0  0  0  0  0  0  0  0  0  0
   13.0710   30.9370   11.9530 N   0  0  0  0  0  0  0  0  0  0  0  0
   12.9420   30.7140   10.5980 C   0  0  0  0  0  0  0  0  0  0  0  0
   12.6530   29.3750   10.3960 C   0  0  0  0  0  0  0  0  0  0  0  0
   12.6100   28.7900   11.6850 C   0  0  0  0  0  0  0  0  0  0  0  0
   12.3740   27.5170   12.1190 C   0  0  0  0  0  0  0  0  0  0  0  0
   11.8190   24.4520    9.9110 C   0  0  0  0  0  0  0  0  0  0  0  0
   11.6520   24.0980    8.4430 C   0  0  0  0  0  0  0  0  0  0  0  0
    8.0950   23.0360    6.7820 C   0  0  0  0  0  0  0  0  0  0  0  0
    7.4070   21.8230    6.7590 C   0  0  0  0  0  0  0  0  0  0  0  0
    7.5069   19.7061    6.3253 H   0  0  0  0  0  0  0  0  0  0  0  0
    9.8906   19.7926    5.6019 H   0  0  0  0  0  0  0  0  0  0  0  0
   11.1283   21.9563    5.6341 H   0  0  0  0  0  0  0  0  0  0  0  0
   11.1507   24.2690    5.9086 H   0  0  0  0  0  0  0  0  0  0  0  0
    9.5655   25.1653    5.9653 H   0  0  0  0  0  0  0  0  0  0  0  0
    9.6400   24.6120    8.3930 H   0  0  0  0  0  0  0  0  0  0  0  0
   11.5746   26.6420    7.3967 H   0  0  0  0  0  0  0  0  0  0  0  0
    9.7918   26.8531    7.5219 H   0  0  0  0  0  0  0  0  0  0  0  0
   11.0771   27.8358    9.4489 H   0  0  0  0  0  0  0  0  0  0  0  0
    9.8661   26.5699    9.9191 H   0  0  0  0  0  0  0  0  0  0  0  0
   12.8441   26.2593    9.6086 H   0  0  0  0  0  0  0  0  0  0  0  0
   11.7377   24.3500   12.3514 H   0  0  0  0  0  0  0  0  0  0  0  0
   12.7042   28.0991   15.4529 H   0  0  0  0  0  0  0  0  0  0  0  0
   13.2830   31.8160   12.4050 H   0  0  0  0  0  0  0  0  0  0  0  0
   13.0506   31.4732    9.8094 H   0  0  0  0  0  0  0  0  0  0  0  0
   12.4903   28.8697    9.4326 H   0  0  0  0  0  0  0  0  0  0  0  0
   12.7385   23.9816   10.2894 H   0  0  0  0  0  0  0  0  0  0  0  0
   10.9371   24.0847   10.4562 H   0  0  0  0  0  0  0  0  0  0  0  0
   12.5687   24.3653    7.8970 H   0  0  0  0  0  0  0  0  0  0  0  0
   11.4650   23.0180    8.3504 H   0  0  0  0  0  0  0  0  0  0  0  0
    7.5804   23.9499    7.1136 H   0  0  0  0  0  0  0  0  0  0  0  0
    6.3536   21.7834    7.0733 H   0  0  0  0  0  0  0  0  0  0  0  0
  1  2  2  0
  2  3  1  0
  3  4  2  0
  4  5  1  0
  5  6  1  0
  6  7  1  0
  7  8  1  0
  8  9  1  0
  9 10  1  0
 10 11  1  0
 11 12  2  0
 12 13  1  0
 13 14  2  0
 14 15  1  0
 15 16  2  0
 16 17  1  0
 17 18  1  0
 18 19  2  0
 19 20  1  0
 20 21  2  0
  9 22  1  0
 22 23  1  0
  4 24  1  0
 24 25  2  0
 25  1  1  0
 23  6  1  0
 21 10  1  0
 21 13  1  0
 20 16  1  0
  1 26  1  0
  2 27  1  0
  3 28  1  0
  5 29  1  0
  5 30  1  0
  6 31  1  6
  7 32  1  0
  7 33  1  0
  8 34  1  0
  8 35  1  0
  9 36  1  1
 11 37  1  0
 14 38  1  0
 17 39  1  0
 18 40  1  0
 19 41  1  0
 22 42  1  0
 22 43  1  0
 23 44  1  0
 23 45  1  0
 24 46  1  0
 25 47  1  0
M  CHG  1   6   1
M  END
>  <meeko>  (1) 
{"is_sidechain": [false], "free_energy": -10.007, "intermolecular_energy": -11.762, "internal_energy": -0.422}

$$$$
4e6q_ligand
     RDKit          3D

 47 51  0  0  0  0  0  0  0  0999 V2000
    7.6240   22.2130    6.8700 C   0  0  0  0  0  0  0  0  0  0  0  0
    8.9260   21.7570    7.0620 C   0  0  0  0  0  0  0  0  0  0  0  0
   10.0080   22.5380    6.6510 C   0  0  0  0  0  0  0  0  0  0  0  0
    9.7930   23.7870    6.0460 C   0  0  0  0  0  0  0  0  0  0  0  0
   10.9590   24.6430    5.6340 C   0  0  0  0  0  0  0  0  0  0  0  0
   11.2700   25.7440    6.6390 N   0  0  2  0  0  0  0  0  0  0  0  0
   12.7520   25.8680    6.9100 C   0  0  0  0  0  0  0  0  0  0  0  0
   13.0140   27.0670    7.8090 C   0  0  0  0  0  0  0  0  0  0  0  0
   12.1580   27.0250    9.0760 C   0  0  1  0  0  0  0  0  0  0  0  0
   12.3920   28.1530    9.9670 N   0  0  0  0  0  0  0  0  0  0  0  0
   12.5830   29.4280    9.4660 C   0  0  0  0  0  0  0  0  0  0  0  0
   12.7900   30.3140   10.4110 N   0  0  0  0  0  0  0  0  0  0  0  0
   12.7310   29.6030   11.5800 C   0  0  0  0  0  0  0  0  0  0  0  0
   12.8770   30.0150   12.9160 C   0  0  0  0  0  0  0  0  0  0  0  0
   12.7850   29.1490   13.9670 N   0  0  0  0  0  0  0  0  0  0  0  0
   12.5440   27.8740   13.6320 C   0  0  0  0  0  0  0  0  0  0  0  0
   12.4050   26.8200   14.4900 N   0  0  0  0  0  0  0  0  0  0  0  0
   12.1630   25.6710   13.7660 C   0  0  0  0  0  0  0  0  0  0  0  0
   12.1450   25.9930   12.4190 C   0  0  0  0  0  0  0  0  0  0  0  0
   12.3870   27.3870   12.3520 C   0  0  0  0  0  0  0  0  0  0  0  0
   12.4830   28.2620   11.3080 C   0  0  0  0  0  0  0  0  0  0  0  0
   10.6720   26.7540    8.8220 C   0  0  0  0  0  0  0  0  0  0  0  0
   10.4710   25.5600    7.9040 C   0  0  0  0  0  0  0  0  0  0  0  0
    8.4770   24.2310    5.8520 C   0  0  0  0  0  0  0  0  0  0  0  0
    7.3990   23.4470    6.2640 C   0  0  0  0  0  0  0  0  0  0  0  0
    6.7726   21.5981    7.1972 H   0  0  0  0  0  0  0  0  0  0  0  0
    9.1020   20.7809    7.5377 H   0  0  0  0  0  0  0  0  0  0  0  0
   11.0346   22.1729    6.8019 H   0  0  0  0  0  0  0  0  0  0  0  0
   11.8464   24.0012    5.5306 H   0  0  0  0  0  0  0  0  0  0  0  0
   10.6924   25.1290    4.6839 H   0  0  0  0  0  0  0  0  0  0  0  0
   10.9630   26.6120    6.1810 H   0  0  0  0  0  0  0  0  0  0  0  0
   13.1099   24.9542    7.4068 H   0  0  0  0  0  0  0  0  0  0  0  0
   13.2847   26.0055    5.9575 H   0  0  0  0  0  0  0  0  0  0  0  0
   14.0757   27.0711    8.0966 H   0  0  0  0  0  0  0  0  0  0  0  0
   12.7523   27.9773    7.2497 H   0  0  0  0  0  0  0  0  0  0  0  0
   12.5130   26.1368    9.6193 H   0  0  0  0  0  0  0  0  0  0  0  0
   12.5635   29.6721    8.3936 H   0  0  0  0  0  0  0  0  0  0  0  0
   13.0732   31.0775   13.1227 H   0  0  0  0  0  0  0  0  0  0  0  0
   12.4730   26.9000   15.4950 H   0  0  0  0  0  0  0  0  0  0  0  0
   12.0099   24.6668   14.1880 H   0  0  0  0  0  0  0  0  0  0  0  0
   11.9773   25.3075   11.5752 H   0  0  0  0  0  0  0  0  0  0  0  0
   10.1763   26.5530    9.7832 H   0  0  0  0  0  0  0  0  0  0  0  0
   10.2387   27.6399    8.3347 H   0  0  0  0  0  0  0  0  0  0  0  0
   10.8051   24.6458    8.4165 H   0  0  0  0  0  0  0  0  0  0  0  0
    9.4043   25.4752    7.6490 H   0  0  0  0  0  0  0  0  0  0  0  0
    8.2935   25.2036    5.3720 H   0  0  0  0  0  0  0  0  0  0  0  0
    6.3699   23.8038    6.1101 H   0  0  0  0  0  0  0  0  0  0  0  0
  1  2  2  0
  2  3  1  0
  3  4  2  0
  4  5  1  0
  5  6  1  0
  6  7  1  0
  7  8  1  0
  8  9  1  0
  9 10  1  0
 10 11  1  0
 11 12  2  0
 12 13  1  0
 13 14  2  0
 14 15  1  0
 15 16  2  0
 16 17  1  0
 17 18  1  0
 18 19  2  0
 19 20  1  0
 20 21  2  0
  9 22  1  0
 22 23  1  0
  4 24  1  0
 24 25  2  0
 25  1  1  0
 23  6  1  0
 21 10  1  0
 21 13  1  0
 20 16  1  0
  1 26  1  0
  2 27  1  0
  3 28  1  0
  5 29  1  0
  5 30  1  0
  6 31  1  1
  7 32  1  0
  7 33  1  0
  8 34  1  0
  8 35  1  0
  9 36  1  6
 11 37  1  0
 14 38  1  0
 17 39  1  0
 18 40  1  0
 19 41  1  0
 22 42  1  0
 22 43  1  0
 23 44  1  0
 23 45  1  0
 24 46  1  0
 25 47  1  0
M  CHG  1   6   1
M  END
>  <meeko>  (2) 
{"is_sidechain": [false], "free_energy": -9.639, "intermolecular_energy": -11.511, "internal_energy": -0.24}

$$$$
4e6q_ligand
     RDKit          3D

 47 51  0  0  0  0  0  0  0  0999 V2000
   13.4970   28.9070    3.2820 C   0  0  0  0  0  0  0  0  0  0  0  0
   13.6950   28.9570    4.6600 C   0  0  0  0  0  0  0  0  0  0  0  0
   13.1570   27.9640    5.4800 C   0  0  0  0  0  0  0  0  0  0  0  0
   12.4170   26.9070    4.9240 C   0  0  0  0  0  0  0  0  0  0  0  0
   11.8650   25.8190    5.8040 C   0  0  0  0  0  0  0  0  0  0  0  0
   12.0370   26.1140    7.2880 N   0  0  2  0  0  0  0  0  0  0  0  0
   12.8670   25.0620    7.9870 C   0  0  0  0  0  0  0  0  0  0  0  0
   13.1210   25.4780    9.4280 C   0  0  0  0  0  0  0  0  0  0  0  0
   11.8210   25.8210   10.1580 C   0  0  1  0  0  0  0  0  0  0  0  0
   12.0250   26.2130   11.5460 N   0  0  0  0  0  0  0  0  0  0  0  0
   11.8840   25.2960   12.5720 C   0  0  0  0  0  0  0  0  0  0  0  0
   12.0950   25.8280   13.7520 N   0  0  0  0  0  0  0  0  0  0  0  0
   12.3890   27.1410   13.5010 C   0  0  0  0  0  0  0  0  0  0  0  0
   12.7030   28.1980   14.3740 C   0  0  0  0  0  0  0  0  0  0  0  0
   12.9710   29.4610   13.9330 N   0  0  0  0  0  0  0  0  0  0  0  0
   12.9150   29.6210   12.6030 C   0  0  0  0  0  0  0  0  0  0  0  0
   13.1430   30.7790   11.9140 N   0  0  0  0  0  0  0  0  0  0  0  0
   12.9930   30.5420   10.5630 C   0  0  0  0  0  0  0  0  0  0  0  0
   12.6620   29.2090   10.3820 C   0  0  0  0  0  0  0  0  0  0  0  0
   12.6170   28.6430   11.6800 C   0  0  0  0  0  0  0  0  0  0  0  0
   12.3480   27.3830   12.1330 C   0  0  0  0  0  0  0  0  0  0  0  0
   10.9020   26.7760    9.3900 C   0  0  0  0  0  0  0  0  0  0  0  0
   10.7010   26.3230    7.9540 C   0  0  0  0  0  0  0  0  0  0  0  0
   12.2200   26.8720    3.5360 C   0  0  0  0  0  0  0  0  0  0  0  0
   12.7590   27.8680    2.7210 C   0  0  0  0  0  0  0  0  0  0  0  0
   13.9239   29.6888    2.6366 H   0  0  0  0  0  0  0  0  0  0  0  0
   14.2759   29.7798    5.1022 H   0  0  0  0  0  0  0  0  0  0  0  0
   13.3132   28.0092    6.5679 H   0  0  0  0  0  0  0  0  0  0  0  0
   10.7919   25.7054    5.5906 H   0  0  0  0  0  0  0  0  0  0  0  0
   12.4256   24.8988    5.5828 H   0  0  0  0  0  0  0  0  0  0  0  0
   12.5610   26.9980    7.3210 H   0  0  0  0  0  0  0  0  0  0  0  0
   12.3278   24.1033    7.9735 H   0  0  0  0  0  0  0  0  0  0  0  0
   13.8295   24.9539    7.4656 H   0  0  0  0  0  0  0  0  0  0  0  0
   13.6177   24.6502    9.9553 H   0  0  0  0  0  0  0  0  0  0  0  0
   13.7547   26.3771    9.4176 H   0  0  0  0  0  0  0  0  0  0  0  0
   11.2671   24.8713   10.1945 H   0  0  0  0  0  0  0  0  0  0  0  0
   11.6239   24.2387   12.4156 H   0  0  0  0  0  0  0  0  0  0  0  0
   12.7337   27.9985   15.4553 H   0  0  0  0  0  0  0  0  0  0  0  0
   13.3850   31.6570   12.3520 H   0  0  0  0  0  0  0  0  0  0  0  0
   13.1158   31.2871    9.7632 H   0  0  0  0  0  0  0  0  0  0  0  0
   12.4731   28.6959    9.4275 H   0  0  0  0  0  0  0  0  0  0  0  0
    9.9245   26.8128    9.8931 H   0  0  0  0  0  0  0  0  0  0  0  0
   11.3731   27.7699    9.3750 H   0  0  0  0  0  0  0  0  0  0  0  0
   10.1378   25.3781    7.9455 H   0  0  0  0  0  0  0  0  0  0  0  0
   10.1413   27.0956    7.4064 H   0  0  0  0  0  0  0  0  0  0  0  0
   11.6370   26.0543    3.0871 H   0  0  0  0  0  0  0  0  0  0  0  0
   12.6006   27.8324    1.6330 H   0  0  0  0  0  0  0  0  0  0  0  0
  1  2  2  0
  2  3  1  0
  3  4  2  0
  4  5  1  0
  5  6  1  0
  6  7  1  0
  7  8  1  0
  8  9  1  0
  9 10  1  0
 10 11  1  0
 11 12  2  0
 12 13  1  0
 13 14  2  0
 14 15  1  0
 15 16  2  0
 16 17  1  0
 17 18  1  0
 18 19  2  0
 19 20  1  0
 20 21  2  0
  9 22  1  0
 22 23  1  0
  4 24  1  0
 24 25  2  0
 25  1  1  0
 23  6  1  0
 21 10  1  0
 21 13  1  0
 20 16  1  0
  1 26  1  0
  2 27  1  0
  3 28  1  0
  5 29  1  0
  5 30  1  0
  6 31  1  1
  7 32  1  0
  7 33  1  0
  8 34  1  0
  8 35  1  0
  9 36  1  6
 11 37  1  0
 14 38  1  0
 17 39  1  0
 18 40  1  0
 19 41  1  0
 22 42  1  0
 22 43  1  0
 23 44  1  0
 23 45  1  0
 24 46  1  0
 25 47  1  0
M  CHG  1   6   1
M  END
>  <meeko>  (3) 
{"is_sidechain": [false], "free_energy": -9.5, "intermolecular_energy": -11.164, "internal_energy": -0.424}

$$$$
4e6q_ligand
     RDKit          3D

 47 51  0  0  0  0  0  0  0  0999 V2000
   12.9630   30.2940   12.6500 C   0  0  0  0  0  0  0  0  0  0  0  0
   12.6930   29.3820   13.6670 C   0  0  0  0  0  0  0  0  0  0  0  0
   12.4100   28.0510   13.3570 C   0  0  0  0  0  0  0  0  0  0  0  0
   12.4010   27.6200   12.0200 C   0  0  0  0  0  0  0  0  0  0  0  0
   12.1290   26.1790   11.6860 C   0  0  0  0  0  0  0  0  0  0  0  0
   11.9080   25.9480   10.1970 N   0  0  2  0  0  0  0  0  0  0  0  0
   10.8740   26.8870    9.6200 C   0  0  0  0  0  0  0  0  0  0  0  0
   10.7960   26.7070    8.1120 C   0  0  0  0  0  0  0  0  0  0  0  0
   10.5800   25.2420    7.7260 C   0  0  1  0  0  0  0  0  0  0  0  0
   10.4890   25.0330    6.2870 N   0  0  0  0  0  0  0  0  0  0  0  0
   11.2750   25.7590    5.4120 C   0  0  0  0  0  0  0  0  0  0  0  0
   11.0510   25.4460    4.1580 N   0  0  0  0  0  0  0  0  0  0  0  0
   10.0850   24.4770    4.2030 C   0  0  0  0  0  0  0  0  0  0  0  0
    9.4480   23.7630    3.1720 C   0  0  0  0  0  0  0  0  0  0  0  0
    8.4920   22.8190    3.4130 N   0  0  0  0  0  0  0  0  0  0  0  0
    8.2060   22.6200    4.7080 C   0  0  0  0  0  0  0  0  0  0  0  0
    7.2950   21.7350    5.2110 N   0  0  0  0  0  0  0  0  0  0  0  0
    7.2890   21.8210    6.5880 C   0  0  0  0  0  0  0  0  0  0  0  0
    8.2120   22.7790    6.9750 C   0  0  0  0  0  0  0  0  0  0  0  0
    8.7810   23.2730    5.7760 C   0  0  0  0  0  0  0  0  0  0  0  0
    9.7350   24.2170    5.5230 C   0  0  0  0  0  0  0  0  0  0  0  0
   11.5320   24.2620    8.4190 C   0  0  0  0  0  0  0  0  0  0  0  0
   11.5850   24.5020    9.9190 C   0  0  0  0  0  0  0  0  0  0  0  0
   12.6680   28.5500   11.0040 C   0  0  0  0  0  0  0  0  0  0  0  0
   12.9490   29.8800   11.3200 C   0  0  0  0  0  0  0  0  0  0  0  0
   13.1875   31.3421   12.8970 H   0  0  0  0  0  0  0  0  0  0  0  0
   12.7028   29.7112   14.7165 H   0  0  0  0  0  0  0  0  0  0  0  0
   12.1928   27.3356   14.1639 H   0  0  0  0  0  0  0  0  0  0  0  0
   12.9888   25.5749   12.0112 H   0  0  0  0  0  0  0  0  0  0  0  0
   11.2045   25.8881   12.2063 H   0  0  0  0  0  0  0  0  0  0  0  0
   12.8110   26.1710    9.7600 H   0  0  0  0  0  0  0  0  0  0  0  0
    9.8924   26.6666   10.0649 H   0  0  0  0  0  0  0  0  0  0  0  0
   11.1603   27.9246    9.8467 H   0  0  0  0  0  0  0  0  0  0  0  0
    9.9577   27.3048    7.7248 H   0  0  0  0  0  0  0  0  0  0  0  0
   11.7509   27.0382    7.6778 H   0  0  0  0  0  0  0  0  0  0  0  0
    9.5863   24.9948    8.1278 H   0  0  0  0  0  0  0  0  0  0  0  0
   12.0070   26.5152    5.7317 H   0  0  0  0  0  0  0  0  0  0  0  0
    9.7315   23.9737    2.1303 H   0  0  0  0  0  0  0  0  0  0  0  0
    6.7290   21.1220    4.6400 H   0  0  0  0  0  0  0  0  0  0  0  0
    6.6570   21.2280    7.2654 H   0  0  0  0  0  0  0  0  0  0  0  0
    8.4531   23.0914    8.0018 H   0  0  0  0  0  0  0  0  0  0  0  0
   11.1846   23.2349    8.2336 H   0  0  0  0  0  0  0  0  0  0  0  0
   12.5416   24.4143    8.0096 H   0  0  0  0  0  0  0  0  0  0  0  0
   10.6092   24.2546   10.3625 H   0  0  0  0  0  0  0  0  0  0  0  0
   12.3664   23.8655   10.3598 H   0  0  0  0  0  0  0  0  0  0  0  0
   12.6558   28.2289    9.9520 H   0  0  0  0  0  0  0  0  0  0  0  0
   13.1597   30.6024   10.5177 H   0  0  0  0  0  0  0  0  0  0  0  0
  1  2  2  0
  2  3  1  0
  3  4  2  0
  4  5  1  0
  5  6  1  0
  6  7  1  0
  7  8  1  0
  8  9  1  0
  9 10  1  0
 10 11  1  0
 11 12  2  0
 12 13  1  0
 13 14  2  0
 14 15  1  0
 15 16  2  0
 16 17  1  0
 17 18  1  0
 18 19  2  0
 19 20  1  0
 20 21  2  0
  9 22  1  0
 22 23  1  0
  4 24  1  0
 24 25  2  0
 25  1  1  0
 23  6  1  0
 21 10  1  0
 21 13  1  0
 20 16  1  0
  1 26  1  0
  2 27  1  0
  3 28  1  0
  5 29  1  0
  5 30  1  0
  6 31  1  1
  7 32  1  0
  7 33  1  0
  8 34  1  0
  8 35  1  0
  9 36  1  6
 11 37  1  0
 14 38  1  0
 17 39  1  0
 18 40  1  0
 19 41  1  0
 22 42  1  0
 22 43  1  0
 23 44  1  0
 23 45  1  0
 24 46  1  0
 25 47  1  0
M  CHG  1   6   1
M  END
>  <meeko>  (4) 
{"is_sidechain": [false], "free_energy": -9.087, "intermolecular_energy": -11.145, "internal_energy": 0.043}

$$$$
4e6q_ligand
     RDKit          3D

 47 51  0  0  0  0  0  0  0  0999 V2000
   12.4490   28.3260   14.1120 C   0  0  0  0  0  0  0  0  0  0  0  0
   12.2350   27.1610   13.3800 C   0  0  0  0  0  0  0  0  0  0  0  0
   12.3620   27.1750   11.9900 C   0  0  0  0  0  0  0  0  0  0  0  0
   12.7100   28.3600   11.3210 C   0  0  0  0  0  0  0  0  0  0  0  0
   12.8790   28.3680    9.8260 C   0  0  0  0  0  0  0  0  0  0  0  0
   12.2680   27.1460    9.1550 N   0  0  2  0  0  0  0  0  0  0  0  0
   13.1320   26.6190    8.0320 C   0  0  0  0  0  0  0  0  0  0  0  0
   12.5460   25.3240    7.4930 C   0  0  0  0  0  0  0  0  0  0  0  0
   11.0720   25.4820    7.1120 C   0  0  1  0  0  0  0  0  0  0  0  0
   10.4800   24.2630    6.5800 N   0  0  0  0  0  0  0  0  0  0  0  0
   10.3320   23.1400    7.3730 C   0  0  0  0  0  0  0  0  0  0  0  0
    9.7910   22.1350    6.7250 N   0  0  0  0  0  0  0  0  0  0  0  0
    9.5710   22.6090    5.4590 C   0  0  0  0  0  0  0  0  0  0  0  0
    9.0150   21.9880    4.3270 C   0  0  0  0  0  0  0  0  0  0  0  0
    8.8730   22.6300    3.1300 N   0  0  0  0  0  0  0  0  0  0  0  0
    9.3030   23.9000    3.1140 C   0  0  0  0  0  0  0  0  0  0  0  0
    9.2710   24.7540    2.0490 N   0  0  0  0  0  0  0  0  0  0  0  0
    9.7990   25.9720    2.4250 C   0  0  0  0  0  0  0  0  0  0  0  0
   10.1770   25.8970    3.7560 C   0  0  0  0  0  0  0  0  0  0  0  0
    9.8570   24.5820    4.1750 C   0  0  0  0  0  0  0  0  0  0  0  0
    9.9960   23.9300    5.3660 C   0  0  0  0  0  0  0  0  0  0  0  0
   10.2130   26.1500    8.1910 C   0  0  0  0  0  0  0  0  0  0  0  0
   10.8570   27.4260    8.7060 C   0  0  0  0  0  0  0  0  0  0  0  0
   12.9150   29.5280   12.0690 C   0  0  0  0  0  0  0  0  0  0  0  0
   12.7860   29.5090   13.4590 C   0  0  0  0  0  0  0  0  0  0  0  0
   12.3517   28.3119   15.2076 H   0  0  0  0  0  0  0  0  0  0  0  0
   11.9656   26.2286   13.8977 H   0  0  0  0  0  0  0  0  0  0  0  0
   12.1886   26.2531   11.4155 H   0  0  0  0  0  0  0  0  0  0  0  0
   12.3942   29.2692    9.4227 H   0  0  0  0  0  0  0  0  0  0  0  0
   13.9586   28.3554    9.6155 H   0  0  0  0  0  0  0  0  0  0  0  0
   12.2410   26.4280    9.8910 H   0  0  0  0  0  0  0  0  0  0  0  0
   13.1747   27.3642    7.2240 H   0  0  0  0  0  0  0  0  0  0  0  0
   14.1454   26.4267    8.4141 H   0  0  0  0  0  0  0  0  0  0  0  0
   13.1137   25.0204    6.6010 H   0  0  0  0  0  0  0  0  0  0  0  0
   12.6149   24.5625    8.2838 H   0  0  0  0  0  0  0  0  0  0  0  0
   11.0779   26.1987    6.2775 H   0  0  0  0  0  0  0  0  0  0  0  0
   10.6341   23.0940    8.4297 H   0  0  0  0  0  0  0  0  0  0  0  0
    8.6809   20.9431    4.4086 H   0  0  0  0  0  0  0  0  0  0  0  0
    8.9080   24.5070    1.1390 H   0  0  0  0  0  0  0  0  0  0  0  0
    9.9025   26.8547    1.7768 H   0  0  0  0  0  0  0  0  0  0  0  0
   10.6318   26.6942    4.3623 H   0  0  0  0  0  0  0  0  0  0  0  0
    9.2289   26.3936    7.7641 H   0  0  0  0  0  0  0  0  0  0  0  0
   10.1125   25.4502    9.0337 H   0  0  0  0  0  0  0  0  0  0  0  0
   10.8727   28.1764    7.9019 H   0  0  0  0  0  0  0  0  0  0  0  0
   10.2751   27.8055    9.5589 H   0  0  0  0  0  0  0  0  0  0  0  0
   13.1792   30.4653   11.5574 H   0  0  0  0  0  0  0  0  0  0  0  0
   12.9507   30.4291   14.0389 H   0  0  0  0  0  0  0  0  0  0  0  0
  1  2  2  0
  2  3  1  0
  3  4  2  0
  4  5  1  0
  5  6  1  0
  6  7  1  0
  7  8  1  0
  8  9  1  0
  9 10  1  0
 10 11  1  0
 11 12  2  0
 12 13  1  0
 13 14  2  0
 14 15  1  0
 15 16  2  0
 16 17  1  0
 17 18  1  0
 18 19  2  0
 19 20  1  0
 20 21  2  0
  9 22  1  0
 22 23  1  0
  4 24  1  0
 24 25  2  0
 25  1  1  0
 23  6  1  0
 21 10  1  0
 21 13  1  0
 20 16  1  0
  1 26  1  0
  2 27  1  0
  3 28  1  0
  5 29  1  0
  5 30  1  0
  6 31  1  6
  7 32  1  0
  7 33  1  0
  8 34  1  0
  8 35  1  0
  9 36  1  1
 11 37  1  0
 14 38  1  0
 17 39  1  0
 18 40  1  0
 19 41  1  0
 22 42  1  0
 22 43  1  0
 23 44  1  0
 23 45  1  0
 24 46  1  0
 25 47  1  0
M  CHG  1   6   1
M  END
>  <meeko>  (5) 
{"is_sidechain": [false], "free_energy": -8.953, "intermolecular_energy": -10.253, "internal_energy": -0.692}

$$$$
4e6q_ligand
     RDKit          3D

 47 51  0  0  0  0  0  0  0  0999 V2000
   12.7750   30.2970   12.5430 C   0  0  0  0  0  0  0  0  0  0  0  0
   12.8150   29.9530   11.1930 C   0  0  0  0  0  0  0  0  0  0  0  0
   12.7450   28.6130   10.8100 C   0  0  0  0  0  0  0  0  0  0  0  0
   12.6320   27.6020   11.7800 C   0  0  0  0  0  0  0  0  0  0  0  0
   12.5240   26.1600   11.3660 C   0  0  0  0  0  0  0  0  0  0  0  0
   12.0870   25.9910    9.9180 N   0  0  2  0  0  0  0  0  0  0  0  0
   10.7620   26.6630    9.6390 C   0  0  0  0  0  0  0  0  0  0  0  0
   10.4430   26.5830    8.1540 C   0  0  0  0  0  0  0  0  0  0  0  0
   10.5260   25.1460    7.6330 C   0  0  1  0  0  0  0  0  0  0  0  0
   10.2150   25.0290    6.2150 N   0  0  0  0  0  0  0  0  0  0  0  0
    9.1880   24.2130    5.7770 C   0  0  0  0  0  0  0  0  0  0  0  0
    9.0600   24.2230    4.4720 N   0  0  0  0  0  0  0  0  0  0  0  0
   10.0330   25.0780    4.0280 C   0  0  0  0  0  0  0  0  0  0  0  0
   10.3790   25.4850    2.7270 C   0  0  0  0  0  0  0  0  0  0  0  0
   11.3960   26.3590    2.4760 N   0  0  0  0  0  0  0  0  0  0  0  0
   12.0430   26.8040    3.5630 C   0  0  0  0  0  0  0  0  0  0  0  0
   13.0900   27.6820    3.5820 N   0  0  0  0  0  0  0  0  0  0  0  0
   13.4810   27.8950    4.8880 C   0  0  0  0  0  0  0  0  0  0  0  0
   12.6710   27.1410    5.7210 C   0  0  0  0  0  0  0  0  0  0  0  0
   11.7690   26.4580    4.8680 C   0  0  0  0  0  0  0  0  0  0  0  0
   10.7510   25.5810    5.1070 C   0  0  0  0  0  0  0  0  0  0  0  0
   11.8050   24.4050    8.0340 C   0  0  0  0  0  0  0  0  0  0  0  0
   12.0830   24.5370    9.5220 C   0  0  0  0  0  0  0  0  0  0  0  0
   12.6010   27.9610   13.1350 C   0  0  0  0  0  0  0  0  0  0  0  0
   12.6710   29.3030   13.5130 C   0  0  0  0  0  0  0  0  0  0  0  0
   12.8256   31.3542   12.8426 H   0  0  0  0  0  0  0  0  0  0  0  0
   12.9019   30.7389   10.4283 H   0  0  0  0  0  0  0  0  0  0  0  0
   12.7784   28.3464    9.7433 H   0  0  0  0  0  0  0  0  0  0  0  0
   13.5072   25.6835   11.4939 H   0  0  0  0  0  0  0  0  0  0  0  0
   11.7565   25.6912   11.9994 H   0  0  0  0  0  0  0  0  0  0  0  0
   12.8050   26.4790    9.3670 H   0  0  0  0  0  0  0  0  0  0  0  0
    9.9693   26.1574   10.2100 H   0  0  0  0  0  0  0  0  0  0  0  0
   10.8214   27.7193    9.9401 H   0  0  0  0  0  0  0  0  0  0  0  0
    9.4248   26.9643    7.9872 H   0  0  0  0  0  0  0  0  0  0  0  0
   11.1845   27.1876    7.6112 H   0  0  0  0  0  0  0  0  0  0  0  0
    9.7204   24.6141    8.1604 H   0  0  0  0  0  0  0  0  0  0  0  0
    8.5492   23.6211    6.4489 H   0  0  0  0  0  0  0  0  0  0  0  0
    9.8068   25.0826    1.8780 H   0  0  0  0  0  0  0  0  0  0  0  0
   13.4930   28.0970    2.7540 H   0  0  0  0  0  0  0  0  0  0  0  0
   14.2996   28.5538    5.2134 H   0  0  0  0  0  0  0  0  0  0  0  0
   12.7182   27.0841    6.8185 H   0  0  0  0  0  0  0  0  0  0  0  0
   11.6937   23.3395    7.7845 H   0  0  0  0  0  0  0  0  0  0  0  0
   12.6478   24.8503    7.4850 H   0  0  0  0  0  0  0  0  0  0  0  0
   11.3017   24.0076   10.0870 H   0  0  0  0  0  0  0  0  0  0  0  0
   13.0668   24.0988    9.7460 H   0  0  0  0  0  0  0  0  0  0  0  0
   12.5210   27.1799   13.9054 H   0  0  0  0  0  0  0  0  0  0  0  0
   12.6440   29.5757   14.5783 H   0  0  0  0  0  0  0  0  0  0  0  0
  1  2  2  0
  2  3  1  0
  3  4  2  0
  4  5  1  0
  5  6  1  0
  6  7  1  0
  7  8  1  0
  8  9  1  0
  9 10  1  0
 10 11  1  0
 11 12  2  0
 12 13  1  0
 13 14  2  0
 14 15  1  0
 15 16  2  0
 16 17  1  0
 17 18  1  0
 18 19  2  0
 19 20  1  0
 20 21  2  0
  9 22  1  0
 22 23  1  0
  4 24  1  0
 24 25  2  0
 25  1  1  0
 23  6  1  0
 21 10  1  0
 21 13  1  0
 20 16  1  0
  1 26  1  0
  2 27  1  0
  3 28  1  0
  5 29  1  0
  5 30  1  0
  6 31  1  1
  7 32  1  0
  7 33  1  0
  8 34  1  0
  8 35  1  0
  9 36  1  6
 11 37  1  0
 14 38  1  0
 17 39  1  0
 18 40  1  0
 19 41  1  0
 22 42  1  0
 22 43  1  0
 23 44  1  0
 23 45  1  0
 24 46  1  0
 25 47  1  0
M  CHG  1   6   1
M  END
>  <meeko>  (6) 
{"is_sidechain": [false], "free_energy": -8.555, "intermolecular_energy": -10.335, "internal_energy": -0.143}

$$$$
4e6q_ligand
     RDKit          3D

 47 51  0  0  0  0  0  0  0  0999 V2000
   12.8770   29.6670   13.5280 C   0  0  0  0  0  0  0  0  0  0  0  0
   12.6900   28.4260   14.1320 C   0  0  0  0  0  0  0  0  0  0  0  0
   12.4280   27.2990   13.3500 C   0  0  0  0  0  0  0  0  0  0  0  0
   12.3540   27.4080   11.9510 C   0  0  0  0  0  0  0  0  0  0  0  0
   12.1030   26.1890   11.1060 C   0  0  0  0  0  0  0  0  0  0  0  0
   12.0810   26.4980    9.6150 N   0  0  2  0  0  0  0  0  0  0  0  0
   10.8070   26.0260    8.9530 C   0  0  0  0  0  0  0  0  0  0  0  0
   10.7780   26.4810    7.5020 C   0  0  0  0  0  0  0  0  0  0  0  0
   12.0480   26.0720    6.7530 C   0  0  1  0  0  0  0  0  0  0  0  0
   12.0510   26.4830    5.3560 N   0  0  0  0  0  0  0  0  0  0  0  0
   12.8890   27.4890    4.9120 C   0  0  0  0  0  0  0  0  0  0  0  0
   12.7480   27.7310    3.6300 N   0  0  0  0  0  0  0  0  0  0  0  0
   11.7850   26.8540    3.2090 C   0  0  0  0  0  0  0  0  0  0  0  0
   11.2180   26.6490    1.9380 C   0  0  0  0  0  0  0  0  0  0  0  0
   10.2530   25.7120    1.7060 N   0  0  0  0  0  0  0  0  0  0  0  0
    9.8840   24.9990    2.7800 C   0  0  0  0  0  0  0  0  0  0  0  0
    8.9460   24.0060    2.8140 N   0  0  0  0  0  0  0  0  0  0  0  0
    8.8510   23.5130    4.0980 C   0  0  0  0  0  0  0  0  0  0  0  0
    9.7430   24.2000    4.9040 C   0  0  0  0  0  0  0  0  0  0  0  0
   10.3870   25.1350    4.0560 C   0  0  0  0  0  0  0  0  0  0  0  0
   11.3510   26.0770    4.2770 C   0  0  0  0  0  0  0  0  0  0  0  0
   13.3490   26.4170    7.4860 C   0  0  0  0  0  0  0  0  0  0  0  0
   13.3120   25.9570    8.9340 C   0  0  0  0  0  0  0  0  0  0  0  0
   12.5360   28.6640   11.3560 C   0  0  0  0  0  0  0  0  0  0  0  0
   12.7980   29.7870   12.1420 C   0  0  0  0  0  0  0  0  0  0  0  0
   13.0872   30.5528   14.1454 H   0  0  0  0  0  0  0  0  0  0  0  0
   12.7488   28.3335   15.2265 H   0  0  0  0  0  0  0  0  0  0  0  0
   12.2788   26.3213   13.8315 H   0  0  0  0  0  0  0  0  0  0  0  0
   12.8997   25.4561   11.3012 H   0  0  0  0  0  0  0  0  0  0  0  0
   11.1118   25.7967   11.3773 H   0  0  0  0  0  0  0  0  0  0  0  0
   12.1000   27.5240    9.5580 H   0  0  0  0  0  0  0  0  0  0  0  0
   10.7612   24.9276    8.9918 H   0  0  0  0  0  0  0  0  0  0  0  0
    9.9434   26.4533    9.4837 H   0  0  0  0  0  0  0  0  0  0  0  0
    9.9088   26.0269    7.0037 H   0  0  0  0  0  0  0  0  0  0  0  0
   10.7119   27.5789    7.4891 H   0  0  0  0  0  0  0  0  0  0  0  0
   12.0183   24.9725    6.7410 H   0  0  0  0  0  0  0  0  0  0  0  0
   13.5955   28.0268    5.5613 H   0  0  0  0  0  0  0  0  0  0  0  0
   11.5660   27.2682    1.0981 H   0  0  0  0  0  0  0  0  0  0  0  0
    8.4210   23.7000    2.0060 H   0  0  0  0  0  0  0  0  0  0  0  0
    8.1782   22.7075    4.4275 H   0  0  0  0  0  0  0  0  0  0  0  0
    9.9159   24.0508    5.9800 H   0  0  0  0  0  0  0  0  0  0  0  0
   14.1887   25.9228    6.9754 H   0  0  0  0  0  0  0  0  0  0  0  0
   13.4719   27.5100    7.4744 H   0  0  0  0  0  0  0  0  0  0  0  0
   13.2931   24.8576    8.9667 H   0  0  0  0  0  0  0  0  0  0  0  0
   14.2063   26.3301    9.4546 H   0  0  0  0  0  0  0  0  0  0  0  0
   12.4719   28.7652   10.2625 H   0  0  0  0  0  0  0  0  0  0  0  0
   12.9424   30.7684   11.6667 H   0  0  0  0  0  0  0  0  0  0  0  0
  1  2  2  0
  2  3  1  0
  3  4  2  0
  4  5  1  0
  5  6  1  0
  6  7  1  0
  7  8  1  0
  8  9  1  0
  9 10  1  0
 10 11  1  0
 11 12  2  0
 12 13  1  0
 13 14  2  0
 14 15  1  0
 15 16  2  0
 16 17  1  0
 17 18  1  0
 18 19  2  0
 19 20  1  0
 20 21  2  0
  9 22  1  0
 22 23  1  0
  4 24  1  0
 24 25  2  0
 25  1  1  0
 23  6  1  0
 21 10  1  0
 21 13  1  0
 20 16  1  0
  1 26  1  0
  2 27  1  0
  3 28  1  0
  5 29  1  0
  5 30  1  0
  6 31  1  6
  7 32  1  0
  7 33  1  0
  8 34  1  0
  8 35  1  0
  9 36  1  1
 11 37  1  0
 14 38  1  0
 17 39  1  0
 18 40  1  0
 19 41  1  0
 22 42  1  0
 22 43  1  0
 23 44  1  0
 23 45  1  0
 24 46  1  0
 25 47  1  0
M  CHG  1   6   1
M  END
>  <meeko>  (7) 
{"is_sidechain": [false], "free_energy": -8.548, "intermolecular_energy": -9.776, "internal_energy": -0.693}

$$$$
4e6q_ligand
     RDKit          3D

 47 51  0  0  0  0  0  0  0  0999 V2000
    8.7090   22.8810    2.9140 C   0  0  0  0  0  0  0  0  0  0  0  0
    9.3920   24.0240    3.3240 C   0  0  0  0  0  0  0  0  0  0  0  0
   10.1030   24.0210    4.5250 C   0  0  0  0  0  0  0  0  0  0  0  0
   10.1400   22.8680    5.3260 C   0  0  0  0  0  0  0  0  0  0  0  0
   10.9330   22.8540    6.6040 C   0  0  0  0  0  0  0  0  0  0  0  0
   11.3020   24.2500    7.0860 N   0  0  2  0  0  0  0  0  0  0  0  0
   12.7340   24.3300    7.5630 C   0  0  0  0  0  0  0  0  0  0  0  0
   13.0880   25.7690    7.9000 C   0  0  0  0  0  0  0  0  0  0  0  0
   12.0810   26.3900    8.8710 C   0  0  1  0  0  0  0  0  0  0  0  0
   12.3960   27.7670    9.2260 N   0  0  0  0  0  0  0  0  0  0  0  0
   12.6090   28.7220    8.2480 C   0  0  0  0  0  0  0  0  0  0  0  0
   12.8900   29.9000    8.7510 N   0  0  0  0  0  0  0  0  0  0  0  0
   12.8600   29.7220   10.1080 C   0  0  0  0  0  0  0  0  0  0  0  0
   13.0810   30.6280   11.1610 C   0  0  0  0  0  0  0  0  0  0  0  0
   13.0060   30.2620   12.4740 N   0  0  0  0  0  0  0  0  0  0  0  0
   12.7050   28.9720   12.6870 C   0  0  0  0  0  0  0  0  0  0  0  0
   12.5690   28.3600   13.9000 N   0  0  0  0  0  0  0  0  0  0  0  0
   12.2530   27.0310   13.7070 C   0  0  0  0  0  0  0  0  0  0  0  0
   12.1840   26.7870   12.3450 C   0  0  0  0  0  0  0  0  0  0  0  0
   12.4730   28.0220   11.7160 C   0  0  0  0  0  0  0  0  0  0  0  0
   12.5520   28.4000   10.4060 C   0  0  0  0  0  0  0  0  0  0  0  0
   10.6170   26.1880    8.4700 C   0  0  0  0  0  0  0  0  0  0  0  0
   10.3260   24.7370    8.1260 C   0  0  0  0  0  0  0  0  0  0  0  0
    9.4420   21.7260    4.9050 C   0  0  0  0  0  0  0  0  0  0  0  0
    8.7320   21.7340    3.7040 C   0  0  0  0  0  0  0  0  0  0  0  0
    8.1513   22.8843    1.9659 H   0  0  0  0  0  0  0  0  0  0  0  0
    9.3709   24.9299    2.7004 H   0  0  0  0  0  0  0  0  0  0  0  0
   10.6376   24.9271    4.8461 H   0  0  0  0  0  0  0  0  0  0  0  0
   10.3342   22.3601    7.3835 H   0  0  0  0  0  0  0  0  0  0  0  0
   11.8706   22.3141    6.4055 H   0  0  0  0  0  0  0  0  0  0  0  0
   11.2180   24.8470    6.2530 H   0  0  0  0  0  0  0  0  0  0  0  0
   12.8549   23.7051    8.4601 H   0  0  0  0  0  0  0  0  0  0  0  0
   13.4015   23.9702    6.7661 H   0  0  0  0  0  0  0  0  0  0  0  0
   14.0868   25.7914    8.3603 H   0  0  0  0  0  0  0  0  0  0  0  0
   13.0688   26.3529    6.9680 H   0  0  0  0  0  0  0  0  0  0  0  0
   12.1973   25.8104    9.7986 H   0  0  0  0  0  0  0  0  0  0  0  0
   12.5493   28.5162    7.1691 H   0  0  0  0  0  0  0  0  0  0  0  0
   13.3239   31.6727   10.9168 H   0  0  0  0  0  0  0  0  0  0  0  0
   12.6850   28.8320   14.7860 H   0  0  0  0  0  0  0  0  0  0  0  0
   12.0841   26.2893   14.5015 H   0  0  0  0  0  0  0  0  0  0  0  0
   11.9524   25.8306   11.8535 H   0  0  0  0  0  0  0  0  0  0  0  0
    9.9723   26.4924    9.3076 H   0  0  0  0  0  0  0  0  0  0  0  0
   10.4173   26.7996    7.5778 H   0  0  0  0  0  0  0  0  0  0  0  0
   10.4216   24.1212    9.0324 H   0  0  0  0  0  0  0  0  0  0  0  0
    9.3036   24.6575    7.7281 H   0  0  0  0  0  0  0  0  0  0  0  0
    9.4546   20.8182    5.5261 H   0  0  0  0  0  0  0  0  0  0  0  0
    8.1897   20.8333    3.3805 H   0  0  0  0  0  0  0  0  0  0  0  0
  1  2  2  0
  2  3  1  0
  3  4  2  0
  4  5  1  0
  5  6  1  0
  6  7  1  0
  7  8  1  0
  8  9  1  0
  9 10  1  0
 10 11  1  0
 11 12  2  0
 12 13  1  0
 13 14  2  0
 14 15  1  0
 15 16  2  0
 16 17  1  0
 17 18  1  0
 18 19  2  0
 19 20  1  0
 20 21  2  0
  9 22  1  0
 22 23  1  0
  4 24  1  0
 24 25  2  0
 25  1  1  0
 23  6  1  0
 21 10  1  0
 21 13  1  0
 20 16  1  0
  1 26  1  0
  2 27  1  0
  3 28  1  0
  5 29  1  0
  5 30  1  0
  6 31  1  1
  7 32  1  0
  7 33  1  0
  8 34  1  0
  8 35  1  0
  9 36  1  6
 11 37  1  0
 14 38  1  0
 17 39  1  0
 18 40  1  0
 19 41  1  0
 22 42  1  0
 22 43  1  0
 23 44  1  0
 23 45  1  0
 24 46  1  0
 25 47  1  0
M  CHG  1   6   1
M  END
>  <meeko>  (8) 
{"is_sidechain": [false], "free_energy": -8.38, "intermolecular_energy": -9.559, "internal_energy": -0.712}

$$$$
4e6q_ligand
     RDKit          3D

 47 51  0  0  0  0  0  0  0  0999 V2000
    4.1300   14.4090    8.8410 C   0  0  0  0  0  0  0  0  0  0  0  0
    3.7620   14.4470    7.4980 C   0  0  0  0  0  0  0  0  0  0  0  0
    4.6640   14.9080    6.5380 C   0  0  0  0  0  0  0  0  0  0  0  0
    5.9480   15.3330    6.9170 C   0  0  0  0  0  0  0  0  0  0  0  0
    6.9310   15.8000    5.8790 C   0  0  0  0  0  0  0  0  0  0  0  0
    7.3890   17.2350    6.1010 N   0  0  2  0  0  0  0  0  0  0  0  0
    6.2760   18.2320    5.8710 C   0  0  0  0  0  0  0  0  0  0  0  0
    6.7490   19.6290    6.2400 C   0  0  0  0  0  0  0  0  0  0  0  0
    8.0550   19.9930    5.5310 C   0  0  1  0  0  0  0  0  0  0  0  0
    8.5320   21.3300    5.8520 N   0  0  0  0  0  0  0  0  0  0  0  0
    8.7160   21.7240    7.1650 C   0  0  0  0  0  0  0  0  0  0  0  0
    9.1390   22.9620    7.2640 N   0  0  0  0  0  0  0  0  0  0  0  0
    9.2420   23.4040    5.9720 C   0  0  0  0  0  0  0  0  0  0  0  0
    9.6450   24.6480    5.4540 C   0  0  0  0  0  0  0  0  0  0  0  0
    9.6850   24.9080    4.1150 N   0  0  0  0  0  0  0  0  0  0  0  0
    9.3120   23.8890    3.3270 C   0  0  0  0  0  0  0  0  0  0  0  0
    9.2670   23.8920    1.9620 N   0  0  0  0  0  0  0  0  0  0  0  0
    8.8360   22.6590    1.5180 C   0  0  0  0  0  0  0  0  0  0  0  0
    8.6010   21.8510    2.6180 C   0  0  0  0  0  0  0  0  0  0  0  0
    8.9060   22.6430    3.7520 C   0  0  0  0  0  0  0  0  0  0  0  0
    8.8680   22.3940    5.0940 C   0  0  0  0  0  0  0  0  0  0  0  0
    9.1450   18.9210    5.6350 C   0  0  0  0  0  0  0  0  0  0  0  0
    8.6120   17.5450    5.2750 C   0  0  0  0  0  0  0  0  0  0  0  0
    6.3040   15.2970    8.2730 C   0  0  0  0  0  0  0  0  0  0  0  0
    5.3980   14.8350    9.2290 C   0  0  0  0  0  0  0  0  0  0  0  0
    3.4186   14.0423    9.5956 H   0  0  0  0  0  0  0  0  0  0  0  0
    2.7590   14.1132    7.1937 H   0  0  0  0  0  0  0  0  0  0  0  0
    4.3679   14.9387    5.4791 H   0  0  0  0  0  0  0  0  0  0  0  0
    7.8118   15.1418    5.9083 H   0  0  0  0  0  0  0  0  0  0  0  0
    6.4244   15.7620    4.9034 H   0  0  0  0  0  0  0  0  0  0  0  0
    7.6460   17.2790    7.0960 H   0  0  0  0  0  0  0  0  0  0  0  0
    5.9834   18.2141    4.8108 H   0  0  0  0  0  0  0  0  0  0  0  0
    5.4137   17.9637    6.4990 H   0  0  0  0  0  0  0  0  0  0  0  0
    5.9738   20.3547    5.9528 H   0  0  0  0  0  0  0  0  0  0  0  0
    6.9309   19.6528    7.3246 H   0  0  0  0  0  0  0  0  0  0  0  0
    7.7916   20.0197    4.4633 H   0  0  0  0  0  0  0  0  0  0  0  0
    8.5284   21.0715    8.0305 H   0  0  0  0  0  0  0  0  0  0  0  0
    9.9394   25.4423    6.1557 H   0  0  0  0  0  0  0  0  0  0  0  0
    9.5190   24.6880    1.3920 H   0  0  0  0  0  0  0  0  0  0  0  0
    8.7015   22.3665    0.4662 H   0  0  0  0  0  0  0  0  0  0  0  0
    8.2497   20.8086    2.6122 H   0  0  0  0  0  0  0  0  0  0  0  0
    9.9646   19.1774    4.9476 H   0  0  0  0  0  0  0  0  0  0  0  0
    9.5000   18.8910    6.6757 H   0  0  0  0  0  0  0  0  0  0  0  0
    8.3459   17.5249    4.2079 H   0  0  0  0  0  0  0  0  0  0  0  0
    9.3872   16.7919    5.4797 H   0  0  0  0  0  0  0  0  0  0  0  0
    7.3032   15.6349    8.5851 H   0  0  0  0  0  0  0  0  0  0  0  0
    5.6858   14.8073   10.2903 H   0  0  0  0  0  0  0  0  0  0  0  0
  1  2  2  0
  2  3  1  0
  3  4  2  0
  4  5  1  0
  5  6  1  0
  6  7  1  0
  7  8  1  0
  8  9  1  0
  9 10  1  0
 10 11  1  0
 11 12  2  0
 12 13  1  0
 13 14  2  0
 14 15  1  0
 15 16  2  0
 16 17  1  0
 17 18  1  0
 18 19  2  0
 19 20  1  0
 20 21  2  0
  9 22  1  0
 22 23  1  0
  4 24  1  0
 24 25  2  0
 25  1  1  0
 23  6  1  0
 21 10  1  0
 21 13  1  0
 20 16  1  0
  1 26  1  0
  2 27  1  0
  3 28  1  0
  5 29  1  0
  5 30  1  0
  6 31  1  6
  7 32  1  0
  7 33  1  0
  8 34  1  0
  8 35  1  0
  9 36  1  1
 11 37  1  0
 14 38  1  0
 17 39  1  0
 18 40  1  0
 19 41  1  0
 22 42  1  0
 22 43  1  0
 23 44  1  0
 23 45  1  0
 24 46  1  0
 25 47  1  0
M  CHG  1   6   1
M  END
>  <meeko>  (9) 
{"is_sidechain": [false], "free_energy": -8.347, "intermolecular_energy": -9.529, "internal_energy": -0.704}

$$$$
