3ebp_ligand
     RDKit          3D

 49 52  0  0  0  0  0  0  0  0999 V2000
   14.5930   19.4860   60.8010 C   0  0  0  0  0  0  0  0  0  0  0  0
   13.9740   18.1470   60.5680 N   0  0  1  0  0  0  0  0  0  0  0  0
   13.2890   18.0360   59.2310 C   0  0  0  0  0  0  0  0  0  0  0  0
   12.5530   16.7020   59.1100 C   0  0  0  0  0  0  0  0  0  0  0  0
   13.4800   15.5170   59.4470 C   0  0  2  0  0  0  0  0  0  0  0  0
   12.8320   14.1750   59.1000 C   0  0  0  0  0  0  0  0  0  0  0  0
   11.7200   13.6260   59.7490 C   0  0  0  0  0  0  0  0  0  0  0  0
   11.0990   14.3130   60.7550 O   0  0  0  0  0  0  0  0  0  0  0  0
   11.2060   12.3740   59.3910 C   0  0  0  0  0  0  0  0  0  0  0  0
   11.8020   11.6390   58.3660 C   0  0  0  0  0  0  0  0  0  0  0  0
   11.2880   10.4170   58.0460 O   0  0  0  0  0  0  0  0  0  0  0  0
   12.9060   12.1540   57.6820 C   0  0  0  0  0  0  0  0  0  0  0  0
   13.5870   11.4140   56.5910 C   0  0  0  0  0  0  0  0  0  0  0  0
   13.2300   10.3290   56.1570 O   0  0  0  0  0  0  0  0  0  0  0  0
   14.7770   12.0530   56.0040 C   0  0  0  0  0  0  0  0  0  0  0  0
   15.1360   13.2730   56.4150 C   0  0  0  0  0  0  0  0  0  0  0  0
   16.3020   13.9710   55.8350 C   0  0  0  0  0  0  0  0  0  0  0  0
   16.0930   14.8620   54.7660 C   0  0  0  0  0  0  0  0  0  0  0  0
   17.1590   15.5540   54.1850 C   0  0  0  0  0  0  0  0  0  0  0  0
   18.4530   15.3700   54.6630 C   0  0  0  0  0  0  0  0  0  0  0  0
   18.6820   14.4980   55.7270 C   0  0  0  0  0  0  0  0  0  0  0  0
   17.6150   13.8040   56.3140 C   0  0  0  0  0  0  0  0  0  0  0  0
   18.0010   12.7440   57.6290 Cl  0  0  0  0  0  0  0  0  0  0  0  0
   14.4660   13.9930   57.3820 O   0  0  0  0  0  0  0  0  0  0  0  0
   13.4010   13.4150   58.0420 C   0  0  0  0  0  0  0  0  0  0  0  0
   14.0870   15.7190   60.8560 C   0  0  2  0  0  0  0  0  0  0  0  0
   13.0670   15.9930   61.8350 O   0  0  0  0  0  0  0  0  0  0  0  0
   14.9380   16.9970   60.8280 C   0  0  0  0  0  0  0  0  0  0  0  0
   14.6771   19.6679   61.8826 H   0  0  0  0  0  0  0  0  0  0  0  0
   15.5942   19.5113   60.3460 H   0  0  0  0  0  0  0  0  0  0  0  0
   13.9637   20.2651   60.3460 H   0  0  0  0  0  0  0  0  0  0  0  0
   13.2430   18.0020   61.2910 H   0  0  0  0  0  0  0  0  0  0  0  0
   12.5657   18.8582   59.1265 H   0  0  0  0  0  0  0  0  0  0  0  0
   14.0494   18.0935   58.4383 H   0  0  0  0  0  0  0  0  0  0  0  0
   11.7006   16.6989   59.8053 H   0  0  0  0  0  0  0  0  0  0  0  0
   12.2090   16.5887   58.0713 H   0  0  0  0  0  0  0  0  0  0  0  0
   14.3658   15.4861   58.7955 H   0  0  0  0  0  0  0  0  0  0  0  0
   11.3370   13.9050   61.6110 H   0  0  0  0  0  0  0  0  0  0  0  0
   10.3302   11.9689   59.9191 H   0  0  0  0  0  0  0  0  0  0  0  0
   10.4840   10.4900   57.5070 H   0  0  0  0  0  0  0  0  0  0  0  0
   15.3648   11.5311   55.2345 H   0  0  0  0  0  0  0  0  0  0  0  0
   15.0740   15.0163   54.3815 H   0  0  0  0  0  0  0  0  0  0  0  0
   16.9751   16.2449   53.3490 H   0  0  0  0  0  0  0  0  0  0  0  0
   19.2930   15.9109   54.2028 H   0  0  0  0  0  0  0  0  0  0  0  0
   19.7042   14.3543   56.1071 H   0  0  0  0  0  0  0  0  0  0  0  0
   14.6460   14.8065   61.1107 H   0  0  0  0  0  0  0  0  0  0  0  0
   12.2430   16.1260   61.3160 H   0  0  0  0  0  0  0  0  0  0  0  0
   15.4465   17.1372   61.7933 H   0  0  0  0  0  0  0  0  0  0  0  0
   15.7148   16.9431   60.0510 H   0  0  0  0  0  0  0  0  0  0  0  0
  1  2  1  0
  2  3  1  0
  3  4  1  0
  4  5  1  0
  5  6  1  0
  6  7  2  0
  7  8  1  0
  7  9  1  0
  9 10  2  0
 10 11  1  0
 10 12  1  0
 12 13  1  0
 13 14  2  0
 13 15  1  0
 15 16  2  0
 16 17  1  0
 17 18  2  0
 18 19  1  0
 19 20  2  0
 20 21  1  0
 21 22  2  0
 22 23  1  0
 16 24  1  0
 24 25  1  0
  5 26  1  0
 26 27  1  0
 26 28  1  0
 28  2  1  0
 25  6  1  0
 25 12  2  0
 22 17  1  0
  1 29  1  0
  1 30  1  0
  1 31  1  0
  2 32  1  1
  3 33  1  0
  3 34  1  0
  4 35  1  0
  4 36  1  0
  5 37  1  6
  8 38  1  0
  9 39  1  0
 11 40  1  0
 15 41  1  0
 18 42  1  0
 19 43  1  0
 20 44  1  0
 21 45  1  0
 26 46  1  1
 27 47  1  0
 28 48  1  0
 28 49  1  0
M  CHG  1   2   1
M  END
>  <meeko>  (1) 
{"is_sidechain": [false], "free_energy": -8.647, "intermolecular_energy": -10.417, "internal_energy": -1.038}

$$$$
3ebp_ligand
     RDKit          3D

 49 52  0  0  0  0  0  0  0  0999 V2000
   19.5770   14.5750   55.7220 C   0  0  0  0  0  0  0  0  0  0  0  0
   18.2300   13.9660   55.9400 N   0  0  1  0  0  0  0  0  0  0  0  0
   18.1090   13.2560   57.2620 C   0  0  0  0  0  0  0  0  0  0  0  0
   16.7660   12.5330   57.3660 C   0  0  0  0  0  0  0  0  0  0  0  0
   15.5930   13.4800   57.0460 C   0  0  2  0  0  0  0  0  0  0  0  0
   14.2420   12.8420   57.3770 C   0  0  0  0  0  0  0  0  0  0  0  0
   13.6930   11.7330   56.7220 C   0  0  0  0  0  0  0  0  0  0  0  0
   14.3890   11.1070   55.7250 O   0  0  0  0  0  0  0  0  0  0  0  0
   12.4340   11.2280   57.0660 C   0  0  0  0  0  0  0  0  0  0  0  0
   11.6910   11.8280   58.0810 C   0  0  0  0  0  0  0  0  0  0  0  0
   10.4620   11.3230   58.3870 O   0  0  0  0  0  0  0  0  0  0  0  0
   12.2040   12.9290   58.7710 C   0  0  0  0  0  0  0  0  0  0  0  0
   11.4560   13.6160   59.8520 C   0  0  0  0  0  0  0  0  0  0  0  0
   10.3640   13.2660   60.2730 O   0  0  0  0  0  0  0  0  0  0  0  0
   12.0950   14.8020   60.4470 C   0  0  0  0  0  0  0  0  0  0  0  0
   13.3230   15.1530   60.0500 C   0  0  0  0  0  0  0  0  0  0  0  0
   14.0220   16.3150   60.6380 C   0  0  0  0  0  0  0  0  0  0  0  0
   14.9120   16.0980   61.7060 C   0  0  0  0  0  0  0  0  0  0  0  0
   15.6040   17.1600   62.2940 C   0  0  0  0  0  0  0  0  0  0  0  0
   15.4220   18.4570   61.8240 C   0  0  0  0  0  0  0  0  0  0  0  0
   14.5510   18.6930   60.7610 C   0  0  0  0  0  0  0  0  0  0  0  0
   13.8560   17.6310   60.1670 C   0  0  0  0  0  0  0  0  0  0  0  0
   12.7970   18.0260   58.8540 Cl  0  0  0  0  0  0  0  0  0  0  0  0
   14.0500   14.4780   59.0920 O   0  0  0  0  0  0  0  0  0  0  0  0
   13.4730   13.4160   58.4260 C   0  0  0  0  0  0  0  0  0  0  0  0
   15.8040   14.1140   55.6500 C   0  0  2  0  0  0  0  0  0  0  0  0
   16.0680   13.1120   54.6510 O   0  0  0  0  0  0  0  0  0  0  0  0
   17.0930   14.9490   55.6980 C   0  0  0  0  0  0  0  0  0  0  0  0
   20.0454   14.7868   56.6945 H   0  0  0  0  0  0  0  0  0  0  0  0
   20.2086   13.8749   55.1555 H   0  0  0  0  0  0  0  0  0  0  0  0
   19.4686   15.5117   55.1555 H   0  0  0  0  0  0  0  0  0  0  0  0
   18.0780   13.2520   55.2020 H   0  0  0  0  0  0  0  0  0  0  0  0
   18.9226   12.5213   57.3531 H   0  0  0  0  0  0  0  0  0  0  0  0
   18.1739   13.9995   58.0701 H   0  0  0  0  0  0  0  0  0  0  0  0
   16.7543   11.6949   56.6536 H   0  0  0  0  0  0  0  0  0  0  0  0
   16.6468   12.1694   58.3973 H   0  0  0  0  0  0  0  0  0  0  0  0
   15.5725   14.3519   57.7164 H   0  0  0  0  0  0  0  0  0  0  0  0
   14.5060   10.1660   55.9650 H   0  0  0  0  0  0  0  0  0  0  0  0
   12.0295   10.3546   56.5335 H   0  0  0  0  0  0  0  0  0  0  0  0
   10.4810   10.7810   59.1920 H   0  0  0  0  0  0  0  0  0  0  0  0
   11.5677   15.3932   61.2102 H   0  0  0  0  0  0  0  0  0  0  0  0
   15.0654   15.0764   62.0839 H   0  0  0  0  0  0  0  0  0  0  0  0
   16.2937   16.9704   63.1297 H   0  0  0  0  0  0  0  0  0  0  0  0
   15.9636   19.2936   62.2896 H   0  0  0  0  0  0  0  0  0  0  0  0
   14.4088   19.7176   60.3869 H   0  0  0  0  0  0  0  0  0  0  0  0
   14.8985   14.6888   55.4056 H   0  0  0  0  0  0  0  0  0  0  0  0
   16.2810   13.6150   53.8330 H   0  0  0  0  0  0  0  0  0  0  0  0
   17.2414   15.4756   54.7437 H   0  0  0  0  0  0  0  0  0  0  0  0
   17.0470   15.7102   56.4908 H   0  0  0  0  0  0  0  0  0  0  0  0
  1  2  1  0
  2  3  1  0
  3  4  1  0
  4  5  1  0
  5  6  1  0
  6  7  2  0
  7  8  1  0
  7  9  1  0
  9 10  2  0
 10 11  1  0
 10 12  1  0
 12 13  1  0
 13 14  2  0
 13 15  1  0
 15 16  2  0
 16 17  1  0
 17 18  2  0
 18 19  1  0
 19 20  2  0
 20 21  1  0
 21 22  2  0
 22 23  1  0
 16 24  1  0
 24 25  1  0
  5 26  1  0
 26 27  1  0
 26 28  1  0
 28  2  1  0
 25  6  1  0
 25 12  2  0
 22 17  1  0
  1 29  1  0
  1 30  1  0
  1 31  1  0
  2 32  1  6
  3 33  1  0
  3 34  1  0
  4 35  1  0
  4 36  1  0
  5 37  1  1
  8 38  1  0
  9 39  1  0
 11 40  1  0
 15 41  1  0
 18 42  1  0
 19 43  1  0
 20 44  1  0
 21 45  1  0
 26 46  1  6
 27 47  1  0
 28 48  1  0
 28 49  1  0
M  CHG  1   2   1
M  END
>  <meeko>  (2) 
{"is_sidechain": [false], "free_energy": -8.644, "intermolecular_energy": -10.41, "internal_energy": -1.041}

$$$$
3ebp_ligand
     RDKit          3D

 49 52  0  0  0  0  0  0  0  0999 V2000
   15.2990   19.1230   61.1560 C   0  0  0  0  0  0  0  0  0  0  0  0
   14.5150   17.9000   60.8090 N   0  0  1  0  0  0  0  0  0  0  0  0
   14.1110   17.8460   59.3600 C   0  0  0  0  0  0  0  0  0  0  0  0
   13.1930   16.6530   59.0980 C   0  0  0  0  0  0  0  0  0  0  0  0
   13.8070   15.3440   59.6330 C   0  0  2  0  0  0  0  0  0  0  0  0
   13.0190   14.1180   59.1700 C   0  0  0  0  0  0  0  0  0  0  0  0
   11.7510   13.7510   59.6380 C   0  0  0  0  0  0  0  0  0  0  0  0
   11.1010   14.5310   60.5530 O   0  0  0  0  0  0  0  0  0  0  0  0
   11.1090   12.5930   59.1840 C   0  0  0  0  0  0  0  0  0  0  0  0
   11.7290   11.7690   58.2440 C   0  0  0  0  0  0  0  0  0  0  0  0
   11.0860   10.6410   57.8290 O   0  0  0  0  0  0  0  0  0  0  0  0
   12.9880   12.1030   57.7400 C   0  0  0  0  0  0  0  0  0  0  0  0
   13.7020   11.2610   56.7490 C   0  0  0  0  0  0  0  0  0  0  0  0
   13.2500   10.2430   56.2460 O   0  0  0  0  0  0  0  0  0  0  0  0
   15.0500   11.7040   56.3550 C   0  0  0  0  0  0  0  0  0  0  0  0
   15.5280   12.8560   56.8370 C   0  0  0  0  0  0  0  0  0  0  0  0
   16.8610   13.3620   56.4480 C   0  0  0  0  0  0  0  0  0  0  0  0
   17.9430   13.1580   57.3250 C   0  0  0  0  0  0  0  0  0  0  0  0
   19.2260   13.6100   57.0030 C   0  0  0  0  0  0  0  0  0  0  0  0
   19.4510   14.2690   55.7990 C   0  0  0  0  0  0  0  0  0  0  0  0
   18.3950   14.4740   54.9120 C   0  0  0  0  0  0  0  0  0  0  0  0
   17.1080   14.0220   55.2300 C   0  0  0  0  0  0  0  0  0  0  0  0
   15.8630   14.3250   54.0640 Cl  0  0  0  0  0  0  0  0  0  0  0  0
   14.8410   13.6750   57.7080 O   0  0  0  0  0  0  0  0  0  0  0  0
   13.6130   13.2730   58.1930 C   0  0  0  0  0  0  0  0  0  0  0  0
   14.1370   15.5040   61.1360 C   0  0  2  0  0  0  0  0  0  0  0  0
   13.0020   15.9910   61.8760 O   0  0  0  0  0  0  0  0  0  0  0  0
   15.1870   16.6160   61.2770 C   0  0  0  0  0  0  0  0  0  0  0  0
   15.3614   19.2204   62.2499 H   0  0  0  0  0  0  0  0  0  0  0  0
   16.3126   19.0400   60.7368 H   0  0  0  0  0  0  0  0  0  0  0  0
   14.8004   20.0094   60.7368 H   0  0  0  0  0  0  0  0  0  0  0  0
   13.6370   17.9140   61.3640 H   0  0  0  0  0  0  0  0  0  0  0  0
   13.5808   18.7736   59.0984 H   0  0  0  0  0  0  0  0  0  0  0  0
   15.0163   17.7367   58.7449 H   0  0  0  0  0  0  0  0  0  0  0  0
   12.2286   16.8267   59.5978 H   0  0  0  0  0  0  0  0  0  0  0  0
   13.0563   16.5529   58.0111 H   0  0  0  0  0  0  0  0  0  0  0  0
   14.7880   15.1328   59.1824 H   0  0  0  0  0  0  0  0  0  0  0  0
   10.2170   14.1480   60.7230 H   0  0  0  0  0  0  0  0  0  0  0  0
   10.1125   12.3317   59.5695 H   0  0  0  0  0  0  0  0  0  0  0  0
   10.3320   10.4210   58.3990 H   0  0  0  0  0  0  0  0  0  0  0  0
   15.6576   11.0933   55.6710 H   0  0  0  0  0  0  0  0  0  0  0  0
   17.7764   12.6349   58.2782 H   0  0  0  0  0  0  0  0  0  0  0  0
   20.0585   13.4443   57.7026 H   0  0  0  0  0  0  0  0  0  0  0  0
   20.4599   14.6277   55.5471 H   0  0  0  0  0  0  0  0  0  0  0  0
   18.5733   14.9928   53.9586 H   0  0  0  0  0  0  0  0  0  0  0  0
   14.4626   14.5223   61.5105 H   0  0  0  0  0  0  0  0  0  0  0  0
   12.2160   15.6810   61.3730 H   0  0  0  0  0  0  0  0  0  0  0  0
   15.5020   16.7116   62.3266 H   0  0  0  0  0  0  0  0  0  0  0  0
   16.0856   16.3952   60.6822 H   0  0  0  0  0  0  0  0  0  0  0  0
  1  2  1  0
  2  3  1  0
  3  4  1  0
  4  5  1  0
  5  6  1  0
  6  7  2  0
  7  8  1  0
  7  9  1  0
  9 10  2  0
 10 11  1  0
 10 12  1  0
 12 13  1  0
 13 14  2  0
 13 15  1  0
 15 16  2  0
 16 17  1  0
 17 18  2  0
 18 19  1  0
 19 20  2  0
 20 21  1  0
 21 22  2  0
 22 23  1  0
 16 24  1  0
 24 25  1  0
  5 26  1  0
 26 27  1  0
 26 28  1  0
 28  2  1  0
 25  6  1  0
 25 12  2  0
 22 17  1  0
  1 29  1  0
  1 30  1  0
  1 31  1  0
  2 32  1  1
  3 33  1  0
  3 34  1  0
  4 35  1  0
  4 36  1  0
  5 37  1  6
  8 38  1  0
  9 39  1  0
 11 40  1  0
 15 41  1  0
 18 42  1  0
 19 43  1  0
 20 44  1  0
 21 45  1  0
 26 46  1  1
 27 47  1  0
 28 48  1  0
 28 49  1  0
M  CHG  1   2   1
M  END
>  <meeko>  (3) 
{"is_sidechain": [false], "free_energy": -8.403, "intermolecular_energy": -10.172, "internal_energy": -0.989}

$$$$
3ebp_ligand
     RDKit          3D

 49 52  0  0  0  0  0  0  0  0999 V2000
   19.2730   15.3970   55.2450 C   0  0  0  0  0  0  0  0  0  0  0  0
   18.0500   14.6220   55.6130 N   0  0  1  0  0  0  0  0  0  0  0  0
   18.0000   14.2510   57.0720 C   0  0  0  0  0  0  0  0  0  0  0  0
   16.8060   13.3400   57.3570 C   0  0  0  0  0  0  0  0  0  0  0  0
   15.4970   13.9430   56.8120 C   0  0  2  0  0  0  0  0  0  0  0  0
   14.2710   13.1670   57.2960 C   0  0  0  0  0  0  0  0  0  0  0  0
   13.8930   11.8950   56.8480 C   0  0  0  0  0  0  0  0  0  0  0  0
   14.6620   11.2300   55.9330 O   0  0  0  0  0  0  0  0  0  0  0  0
   12.7360   11.2650   57.3200 C   0  0  0  0  0  0  0  0  0  0  0  0
   11.9250   11.9010   58.2600 C   0  0  0  0  0  0  0  0  0  0  0  0
   10.7970   11.2690   58.6930 O   0  0  0  0  0  0  0  0  0  0  0  0
   12.2690   13.1640   58.7450 C   0  0  0  0  0  0  0  0  0  0  0  0
   11.4410   13.8940   59.7360 C   0  0  0  0  0  0  0  0  0  0  0  0
   10.4250   13.4530   60.2530 O   0  0  0  0  0  0  0  0  0  0  0  0
   11.8940   15.2440   60.1090 C   0  0  0  0  0  0  0  0  0  0  0  0
   13.0440   15.7110   59.6100 C   0  0  0  0  0  0  0  0  0  0  0  0
   13.5590   17.0460   59.9780 C   0  0  0  0  0  0  0  0  0  0  0  0
   13.2530   18.1410   59.1480 C   0  0  0  0  0  0  0  0  0  0  0  0
   13.7100   19.4260   59.4530 C   0  0  0  0  0  0  0  0  0  0  0  0
   14.4770   19.6410   60.5930 C   0  0  0  0  0  0  0  0  0  0  0  0
   14.7850   18.5720   61.4340 C   0  0  0  0  0  0  0  0  0  0  0  0
   14.3280   17.2820   61.1330 C   0  0  0  0  0  0  0  0  0  0  0  0
   14.7640   16.0200   62.2380 Cl  0  0  0  0  0  0  0  0  0  0  0  0
   13.8510   15.0090   58.7400 O   0  0  0  0  0  0  0  0  0  0  0  0
   13.4380   13.7780   58.2740 C   0  0  0  0  0  0  0  0  0  0  0  0
   15.6520   14.2390   55.3010 C   0  0  2  0  0  0  0  0  0  0  0  0
   16.1370   13.0880   54.5860 O   0  0  0  0  0  0  0  0  0  0  0  0
   16.7650   15.2850   55.1340 C   0  0  0  0  0  0  0  0  0  0  0  0
   19.7890   15.7240   56.1598 H   0  0  0  0  0  0  0  0  0  0  0  0
   19.9460   14.7602   54.6521 H   0  0  0  0  0  0  0  0  0  0  0  0
   18.9845   16.2775   54.6521 H   0  0  0  0  0  0  0  0  0  0  0  0
   18.0620   13.7320   55.0780 H   0  0  0  0  0  0  0  0  0  0  0  0
   18.9277   13.7258   57.3431 H   0  0  0  0  0  0  0  0  0  0  0  0
   17.8939   15.1699   57.6672 H   0  0  0  0  0  0  0  0  0  0  0  0
   16.9775   12.3647   56.8781 H   0  0  0  0  0  0  0  0  0  0  0  0
   16.7083   13.2276   58.4469 H   0  0  0  0  0  0  0  0  0  0  0  0
   15.2894   14.9343   57.2412 H   0  0  0  0  0  0  0  0  0  0  0  0
   15.6000   11.4610   56.0820 H   0  0  0  0  0  0  0  0  0  0  0  0
   12.4653   10.2655   56.9487 H   0  0  0  0  0  0  0  0  0  0  0  0
   10.9950   10.5750   59.3420 H   0  0  0  0  0  0  0  0  0  0  0  0
   11.2928   15.8628   60.7914 H   0  0  0  0  0  0  0  0  0  0  0  0
   12.6447   17.9828   58.2453 H   0  0  0  0  0  0  0  0  0  0  0  0
   13.4627   20.2685   58.7905 H   0  0  0  0  0  0  0  0  0  0  0  0
   14.8399   20.6518   60.8308 H   0  0  0  0  0  0  0  0  0  0  0  0
   15.3892   18.7422   62.3373 H   0  0  0  0  0  0  0  0  0  0  0  0
   14.6693   14.5562   54.9218 H   0  0  0  0  0  0  0  0  0  0  0  0
   16.8760   12.7380   55.1330 H   0  0  0  0  0  0  0  0  0  0  0  0
   16.8579   15.5769   54.0775 H   0  0  0  0  0  0  0  0  0  0  0  0
   16.5467   16.1965   55.7097 H   0  0  0  0  0  0  0  0  0  0  0  0
  1  2  1  0
  2  3  1  0
  3  4  1  0
  4  5  1  0
  5  6  1  0
  6  7  2  0
  7  8  1  0
  7  9  1  0
  9 10  2  0
 10 11  1  0
 10 12  1  0
 12 13  1  0
 13 14  2  0
 13 15  1  0
 15 16  2  0
 16 17  1  0
 17 18  2  0
 18 19  1  0
 19 20  2  0
 20 21  1  0
 21 22  2  0
 22 23  1  0
 16 24  1  0
 24 25  1  0
  5 26  1  0
 26 27  1  0
 26 28  1  0
 28  2  1  0
 25  6  1  0
 25 12  2  0
 22 17  1  0
  1 29  1  0
  1 30  1  0
  1 31  1  0
  2 32  1  6
  3 33  1  0
  3 34  1  0
  4 35  1  0
  4 36  1  0
  5 37  1  1
  8 38  1  0
  9 39  1  0
 11 40  1  0
 15 41  1  0
 18 42  1  0
 19 43  1  0
 20 44  1  0
 21 45  1  0
 26 46  1  6
 27 47  1  0
 28 48  1  0
 28 49  1  0
M  CHG  1   2   1
M  END
>  <meeko>  (4) 
{"is_sidechain": [false], "free_energy": -8.368, "intermolecular_energy": -10.11, "internal_energy": -1.008}

$$$$
3ebp_ligand
     RDKit          3D

 49 52  0  0  0  0  0  0  0  0999 V2000
   14.4350   11.6690   56.3980 C   0  0  0  0  0  0  0  0  0  0  0  0
   15.6420   12.5260   56.1950 N   0  0  1  0  0  0  0  0  0  0  0  0
   15.5730   13.3580   54.9420 C   0  0  0  0  0  0  0  0  0  0  0  0
   16.8900   14.0990   54.7130 C   0  0  0  0  0  0  0  0  0  0  0  0
   17.3210   14.8810   55.9690 C   0  0  2  0  0  0  0  0  0  0  0  0
   18.5000   15.8120   55.6810 C   0  0  0  0  0  0  0  0  0  0  0  0
   19.8270   15.4010   55.5050 C   0  0  0  0  0  0  0  0  0  0  0  0
   20.1490   14.0720   55.5460 O   0  0  0  0  0  0  0  0  0  0  0  0
   20.8550   16.3220   55.2750 C   0  0  0  0  0  0  0  0  0  0  0  0
   20.5740   17.6870   55.2170 C   0  0  0  0  0  0  0  0  0  0  0  0
   21.5970   18.5630   55.0040 O   0  0  0  0  0  0  0  0  0  0  0  0
   19.2630   18.1420   55.3740 C   0  0  0  0  0  0  0  0  0  0  0  0
   18.9040   19.5810   55.3340 C   0  0  0  0  0  0  0  0  0  0  0  0
   19.6930   20.4880   55.1130 O   0  0  0  0  0  0  0  0  0  0  0  0
   17.4920   19.9160   55.5780 C   0  0  0  0  0  0  0  0  0  0  0  0
   16.6030   18.9310   55.7460 C   0  0  0  0  0  0  0  0  0  0  0  0
   15.1690   19.2130   55.9620 C   0  0  0  0  0  0  0  0  0  0  0  0
   14.7200   19.4670   57.2710 C   0  0  0  0  0  0  0  0  0  0  0  0
   13.3760   19.7470   57.5300 C   0  0  0  0  0  0  0  0  0  0  0  0
   12.4570   19.7810   56.4870 C   0  0  0  0  0  0  0  0  0  0  0  0
   12.8810   19.5400   55.1800 C   0  0  0  0  0  0  0  0  0  0  0  0
   14.2280   19.2610   54.9150 C   0  0  0  0  0  0  0  0  0  0  0  0
   14.6580   18.9750   53.2610 Cl  0  0  0  0  0  0  0  0  0  0  0  0
   16.9210   17.5900   55.7180 O   0  0  0  0  0  0  0  0  0  0  0  0
   18.2410   17.2070   55.5900 C   0  0  0  0  0  0  0  0  0  0  0  0
   17.4010   13.9160   57.1770 C   0  0  2  0  0  0  0  0  0  0  0  0
   18.2010   12.7590   56.8750 O   0  0  0  0  0  0  0  0  0  0  0  0
   15.9940   13.3500   57.4260 C   0  0  0  0  0  0  0  0  0  0  0  0
   14.2537   11.5403   57.4753 H   0  0  0  0  0  0  0  0  0  0  0  0
   13.5614   12.1502   55.9341 H   0  0  0  0  0  0  0  0  0  0  0  0
   14.6013   10.6856   55.9341 H   0  0  0  0  0  0  0  0  0  0  0  0
   16.4640   11.9000   56.0940 H   0  0  0  0  0  0  0  0  0  0  0  0
   15.3741   12.7008   54.0826 H   0  0  0  0  0  0  0  0  0  0  0  0
   14.7656   14.0970   55.0519 H   0  0  0  0  0  0  0  0  0  0  0  0
   17.6725   13.3683   54.4603 H   0  0  0  0  0  0  0  0  0  0  0  0
   16.7454   14.8160   53.8914 H   0  0  0  0  0  0  0  0  0  0  0  0
   16.5609   15.6122   56.2814 H   0  0  0  0  0  0  0  0  0  0  0  0
   20.3040   13.8140   56.4770 H   0  0  0  0  0  0  0  0  0  0  0  0
   21.8878   15.9685   55.1395 H   0  0  0  0  0  0  0  0  0  0  0  0
   21.3100   19.4860   55.0910 H   0  0  0  0  0  0  0  0  0  0  0  0
   17.1706   20.9671   55.6218 H   0  0  0  0  0  0  0  0  0  0  0  0
   15.4385   19.4448   58.1036 H   0  0  0  0  0  0  0  0  0  0  0  0
   13.0442   19.9409   58.5607 H   0  0  0  0  0  0  0  0  0  0  0  0
   11.3982   19.9974   56.6920 H   0  0  0  0  0  0  0  0  0  0  0  0
   12.1548   19.5692   54.3543 H   0  0  0  0  0  0  0  0  0  0  0  0
   17.8215   14.4777   58.0241 H   0  0  0  0  0  0  0  0  0  0  0  0
   18.9960   13.1100   56.4140 H   0  0  0  0  0  0  0  0  0  0  0  0
   15.9924   12.7140   58.3235 H   0  0  0  0  0  0  0  0  0  0  0  0
   15.2625   14.1546   57.5916 H   0  0  0  0  0  0  0  0  0  0  0  0
  1  2  1  0
  2  3  1  0
  3  4  1  0
  4  5  1  0
  5  6  1  0
  6  7  2  0
  7  8  1  0
  7  9  1  0
  9 10  2  0
 10 11  1  0
 10 12  1  0
 12 13  1  0
 13 14  2  0
 13 15  1  0
 15 16  2  0
 16 17  1  0
 17 18  2  0
 18 19  1  0
 19 20  2  0
 20 21  1  0
 21 22  2  0
 22 23  1  0
 16 24  1  0
 24 25  1  0
  5 26  1  0
 26 27  1  0
 26 28  1  0
 28  2  1  0
 25  6  1  0
 25 12  2  0
 22 17  1  0
  1 29  1  0
  1 30  1  0
  1 31  1  0
  2 32  1  6
  3 33  1  0
  3 34  1  0
  4 35  1  0
  4 36  1  0
  5 37  1  1
  8 38  1  0
  9 39  1  0
 11 40  1  0
 15 41  1  0
 18 42  1  0
 19 43  1  0
 20 44  1  0
 21 45  1  0
 26 46  1  1
 27 47  1  0
 28 48  1  0
 28 49  1  0
M  CHG  1   2   1
M  END
>  <meeko>  (5) 
{"is_sidechain": [false], "free_energy": -7.695, "intermolecular_energy": -9.312, "internal_energy": -0.996}

$$$$
3ebp_ligand
     RDKit          3D

 49 52  0  0  0  0  0  0  0  0999 V2000
   11.7830   14.7940   60.1060 C   0  0  0  0  0  0  0  0  0  0  0  0
   12.6490   16.0010   60.2690 N   0  0  1  0  0  0  0  0  0  0  0  0
   13.4090   16.0140   61.5690 C   0  0  0  0  0  0  0  0  0  0  0  0
   14.1590   17.3340   61.7430 C   0  0  0  0  0  0  0  0  0  0  0  0
   15.0170   17.6600   60.5050 C   0  0  2  0  0  0  0  0  0  0  0  0
   15.9520   18.8440   60.7580 C   0  0  0  0  0  0  0  0  0  0  0  0
   15.5430   20.1750   60.9100 C   0  0  0  0  0  0  0  0  0  0  0  0
   14.2150   20.4970   60.8740 O   0  0  0  0  0  0  0  0  0  0  0  0
   16.4670   21.2070   61.1090 C   0  0  0  0  0  0  0  0  0  0  0  0
   17.8320   20.9260   61.1590 C   0  0  0  0  0  0  0  0  0  0  0  0
   18.7110   21.9530   61.3420 O   0  0  0  0  0  0  0  0  0  0  0  0
   18.2850   19.6120   61.0260 C   0  0  0  0  0  0  0  0  0  0  0  0
   19.7240   19.2530   61.0610 C   0  0  0  0  0  0  0  0  0  0  0  0
   20.6340   20.0450   61.2560 O   0  0  0  0  0  0  0  0  0  0  0  0
   20.0560   17.8350   60.8440 C   0  0  0  0  0  0  0  0  0  0  0  0
   19.0690   16.9440   60.7050 C   0  0  0  0  0  0  0  0  0  0  0  0
   19.3480   15.5050   60.5170 C   0  0  0  0  0  0  0  0  0  0  0  0
   19.5370   15.0180   59.2100 C   0  0  0  0  0  0  0  0  0  0  0  0
   19.8110   13.6680   58.9770 C   0  0  0  0  0  0  0  0  0  0  0  0
   19.9040   12.7810   60.0450 C   0  0  0  0  0  0  0  0  0  0  0  0
   19.7280   13.2430   61.3480 C   0  0  0  0  0  0  0  0  0  0  0  0
   19.4560   14.5960   61.5870 C   0  0  0  0  0  0  0  0  0  0  0  0
   19.2530   15.0740   63.2400 Cl  0  0  0  0  0  0  0  0  0  0  0  0
   17.7280   17.2630   60.7390 O   0  0  0  0  0  0  0  0  0  0  0  0
   17.3470   18.5860   60.8420 C   0  0  0  0  0  0  0  0  0  0  0  0
   14.1230   17.6630   59.2420 C   0  0  2  0  0  0  0  0  0  0  0  0
   12.9650   18.5000   59.4180 O   0  0  0  0  0  0  0  0  0  0  0  0
   13.5470   16.2500   59.0650 C   0  0  0  0  0  0  0  0  0  0  0  0
   11.5046   14.4060   61.0969 H   0  0  0  0  0  0  0  0  0  0  0  0
   10.8737   15.0674   59.5506 H   0  0  0  0  0  0  0  0  0  0  0  0
   12.3332   14.0202   59.5506 H   0  0  0  0  0  0  0  0  0  0  0  0
   12.0340   16.8380   60.2740 H   0  0  0  0  0  0  0  0  0  0  0  0
   12.7017   15.8880   62.4020 H   0  0  0  0  0  0  0  0  0  0  0  0
   14.1388   15.1910   61.5602 H   0  0  0  0  0  0  0  0  0  0  0  0
   13.4294   18.1428   61.8960 H   0  0  0  0  0  0  0  0  0  0  0  0
   14.8265   17.2412   62.6124 H   0  0  0  0  0  0  0  0  0  0  0  0
   15.7506   16.8687   60.2912 H   0  0  0  0  0  0  0  0  0  0  0  0
   13.9720   20.9270   61.7180 H   0  0  0  0  0  0  0  0  0  0  0  0
   16.1156   22.2427   61.2263 H   0  0  0  0  0  0  0  0  0  0  0  0
   18.6130   22.3650   62.2150 H   0  0  0  0  0  0  0  0  0  0  0  0
   21.1064   17.5118   60.7967 H   0  0  0  0  0  0  0  0  0  0  0  0
   19.4679   15.7112   58.3587 H   0  0  0  0  0  0  0  0  0  0  0  0
   19.9534   13.3059   57.9481 H   0  0  0  0  0  0  0  0  0  0  0  0
   20.1160   11.7174   59.8612 H   0  0  0  0  0  0  0  0  0  0  0  0
   19.8030   12.5420   62.1924 H   0  0  0  0  0  0  0  0  0  0  0  0
   14.7386   18.0113   58.3996 H   0  0  0  0  0  0  0  0  0  0  0  0
   12.3020   18.1580   58.7770 H   0  0  0  0  0  0  0  0  0  0  0  0
   12.9625   16.1907   58.1351 H   0  0  0  0  0  0  0  0  0  0  0  0
   14.3466   15.4974   59.0000 H   0  0  0  0  0  0  0  0  0  0  0  0
  1  2  1  0
  2  3  1  0
  3  4  1  0
  4  5  1  0
  5  6  1  0
  6  7  2  0
  7  8  1  0
  7  9  1  0
  9 10  2  0
 10 11  1  0
 10 12  1  0
 12 13  1  0
 13 14  2  0
 13 15  1  0
 15 16  2  0
 16 17  1  0
 17 18  2  0
 18 19  1  0
 19 20  2  0
 20 21  1  0
 21 22  2  0
 22 23  1  0
 16 24  1  0
 24 25  1  0
  5 26  1  0
 26 27  1  0
 26 28  1  0
 28  2  1  0
 25  6  1  0
 25 12  2  0
 22 17  1  0
  1 29  1  0
  1 30  1  0
  1 31  1  0
  2 32  1  1
  3 33  1  0
  3 34  1  0
  4 35  1  0
  4 36  1  0
  5 37  1  6
  8 38  1  0
  9 39  1  0
 11 40  1  0
 15 41  1  0
 18 42  1  0
 19 43  1  0
 20 44  1  0
 21 45  1  0
 26 46  1  6
 27 47  1  0
 28 48  1  0
 28 49  1  0
M  CHG  1   2   1
M  END
>  <meeko>  (6) 
{"is_sidechain": [false], "free_energy": -7.611, "intermolecular_energy": -9.176, "internal_energy": -1.03}

$$$$
3ebp_ligand
     RDKit          3D

 49 52  0  0  0  0  0  0  0  0999 V2000
   20.1630   17.8150   54.7020 C   0  0  0  0  0  0  0  0  0  0  0  0
   19.1440   16.7490   54.9460 N   0  0  1  0  0  0  0  0  0  0  0  0
   19.2700   16.1090   56.3030 C   0  0  0  0  0  0  0  0  0  0  0  0
   18.3020   14.9350   56.4380 C   0  0  0  0  0  0  0  0  0  0  0  0
   16.8640   15.3460   56.0620 C   0  0  2  0  0  0  0  0  0  0  0  0
   15.8510   14.2560   56.4200 C   0  0  0  0  0  0  0  0  0  0  0  0
   15.7890   12.9890   55.8280 C   0  0  0  0  0  0  0  0  0  0  0  0
   16.7010   12.6260   54.8760 O   0  0  0  0  0  0  0  0  0  0  0  0
   14.8090   12.0580   56.1910 C   0  0  0  0  0  0  0  0  0  0  0  0
   13.8610   12.3800   57.1630 C   0  0  0  0  0  0  0  0  0  0  0  0
   12.9110   11.4580   57.4890 O   0  0  0  0  0  0  0  0  0  0  0  0
   13.8930   13.6280   57.7900 C   0  0  0  0  0  0  0  0  0  0  0  0
   12.9070   14.0310   58.8220 C   0  0  0  0  0  0  0  0  0  0  0  0
   12.0190   13.3110   59.2540 O   0  0  0  0  0  0  0  0  0  0  0  0
   13.0260   15.4000   59.3490 C   0  0  0  0  0  0  0  0  0  0  0  0
   14.0370   16.1740   58.9420 C   0  0  0  0  0  0  0  0  0  0  0  0
   14.2200   17.5440   59.4650 C   0  0  0  0  0  0  0  0  0  0  0  0
   15.1180   17.7460   60.5300 C   0  0  0  0  0  0  0  0  0  0  0  0
   15.3340   19.0220   61.0580 C   0  0  0  0  0  0  0  0  0  0  0  0
   14.6600   20.1190   60.5300 C   0  0  0  0  0  0  0  0  0  0  0  0
   13.7720   19.9420   59.4690 C   0  0  0  0  0  0  0  0  0  0  0  0
   13.5540   18.6650   58.9350 C   0  0  0  0  0  0  0  0  0  0  0  0
   12.4330   18.5480   57.6200 Cl  0  0  0  0  0  0  0  0  0  0  0  0
   14.9960   15.7800   58.0330 O   0  0  0  0  0  0  0  0  0  0  0  0
   14.8890   14.5450   57.4260 C   0  0  0  0  0  0  0  0  0  0  0  0
   16.8530   15.9450   54.6360 C   0  0  2  0  0  0  0  0  0  0  0  0
   17.5040   15.0730   53.6930 O   0  0  0  0  0  0  0  0  0  0  0  0
   17.7240   17.2100   54.6460 C   0  0  0  0  0  0  0  0  0  0  0  0
   20.5299   18.1989   55.6653 H   0  0  0  0  0  0  0  0  0  0  0  0
   21.0037   17.3947   54.1306 H   0  0  0  0  0  0  0  0  0  0  0  0
   19.7052   18.6359   54.1306 H   0  0  0  0  0  0  0  0  0  0  0  0
   19.2940   15.9970   54.2460 H   0  0  0  0  0  0  0  0  0  0  0  0
   20.2995   15.7454   56.4366 H   0  0  0  0  0  0  0  0  0  0  0  0
   19.0272   16.8579   57.0712 H   0  0  0  0  0  0  0  0  0  0  0  0
   18.6283   14.1234   55.7710 H   0  0  0  0  0  0  0  0  0  0  0  0
   18.3044   14.6029   57.4867 H   0  0  0  0  0  0  0  0  0  0  0  0
   16.4949   16.1745   56.6843 H   0  0  0  0  0  0  0  0  0  0  0  0
   16.2230   12.2650   54.1030 H   0  0  0  0  0  0  0  0  0  0  0  0
   14.7860   11.0696   55.7087 H   0  0  0  0  0  0  0  0  0  0  0  0
   12.1020   11.8740   57.8280 H   0  0  0  0  0  0  0  0  0  0  0  0
   12.2898   15.7827   60.0711 H   0  0  0  0  0  0  0  0  0  0  0  0
   15.6581   16.8863   60.9533 H   0  0  0  0  0  0  0  0  0  0  0  0
   16.0378   19.1593   61.8921 H   0  0  0  0  0  0  0  0  0  0  0  0
   14.8270   21.1227   60.9481 H   0  0  0  0  0  0  0  0  0  0  0  0
   13.2404   20.8089   59.0496 H   0  0  0  0  0  0  0  0  0  0  0  0
   15.8033   16.1181   54.3562 H   0  0  0  0  0  0  0  0  0  0  0  0
   17.4440   15.5400   52.8290 H   0  0  0  0  0  0  0  0  0  0  0  0
   17.6842   17.7076   53.6658 H   0  0  0  0  0  0  0  0  0  0  0  0
   17.3712   17.9323   55.3968 H   0  0  0  0  0  0  0  0  0  0  0  0
  1  2  1  0
  2  3  1  0
  3  4  1  0
  4  5  1  0
  5  6  1  0
  6  7  2  0
  7  8  1  0
  7  9  1  0
  9 10  2  0
 10 11  1  0
 10 12  1  0
 12 13  1  0
 13 14  2  0
 13 15  1  0
 15 16  2  0
 16 17  1  0
 17 18  2  0
 18 19  1  0
 19 20  2  0
 20 21  1  0
 21 22  2  0
 22 23  1  0
 16 24  1  0
 24 25  1  0
  5 26  1  0
 26 27  1  0
 26 28  1  0
 28  2  1  0
 25  6  1  0
 25 12  2  0
 22 17  1  0
  1 29  1  0
  1 30  1  0
  1 31  1  0
  2 32  1  6
  3 33  1  0
  3 34  1  0
  4 35  1  0
  4 36  1  0
  5 37  1  1
  8 38  1  0
  9 39  1  0
 11 40  1  0
 15 41  1  0
 18 42  1  0
 19 43  1  0
 20 44  1  0
 21 45  1  0
 26 46  1  6
 27 47  1  0
 28 48  1  0
 28 49  1  0
M  CHG  1   2   1
M  END
>  <meeko>  (7) 
{"is_sidechain": [false], "free_energy": -7.512, "intermolecular_energy": -9.045, "internal_energy": -1.042}

$$$$
3ebp_ligand
     RDKit          3D

 49 52  0  0  0  0  0  0  0  0999 V2000
   17.8760   20.3230   61.6090 C   0  0  0  0  0  0  0  0  0  0  0  0
   16.7920   19.3190   61.3910 N   0  0  1  0  0  0  0  0  0  0  0  0
   16.1370   19.4390   60.0400 C   0  0  0  0  0  0  0  0  0  0  0  0
   14.9450   18.4880   59.9310 C   0  0  0  0  0  0  0  0  0  0  0  0
   15.3380   17.0490   60.3180 C   0  0  2  0  0  0  0  0  0  0  0  0
   14.2290   16.0500   59.9860 C   0  0  0  0  0  0  0  0  0  0  0  0
   12.9210   16.1020   60.4850 C   0  0  0  0  0  0  0  0  0  0  0  0
   12.5380   17.1240   61.3090 O   0  0  0  0  0  0  0  0  0  0  0  0
   11.9720   15.1280   60.1550 C   0  0  0  0  0  0  0  0  0  0  0  0
   12.3150   14.0710   59.3130 C   0  0  0  0  0  0  0  0  0  0  0  0
   11.3730   13.1290   59.0180 O   0  0  0  0  0  0  0  0  0  0  0  0
   13.6040   13.9850   58.7810 C   0  0  0  0  0  0  0  0  0  0  0  0
   14.0300   12.8790   57.8890 C   0  0  0  0  0  0  0  0  0  0  0  0
   13.2990   11.9810   57.4970 O   0  0  0  0  0  0  0  0  0  0  0  0
   15.4370   12.8850   57.4560 C   0  0  0  0  0  0  0  0  0  0  0  0
   16.2280   13.9010   57.8140 C   0  0  0  0  0  0  0  0  0  0  0  0
   17.6390   13.9720   57.3790 C   0  0  0  0  0  0  0  0  0  0  0  0
   17.9160   14.2720   56.0320 C   0  0  0  0  0  0  0  0  0  0  0  0
   19.2320   14.3580   55.5700 C   0  0  0  0  0  0  0  0  0  0  0  0
   20.2940   14.1490   56.4440 C   0  0  0  0  0  0  0  0  0  0  0  0
   20.0420   13.8580   57.7840 C   0  0  0  0  0  0  0  0  0  0  0  0
   18.7240   13.7730   58.2530 C   0  0  0  0  0  0  0  0  0  0  0  0
   18.5140   13.4070   59.9330 Cl  0  0  0  0  0  0  0  0  0  0  0  0
   15.8190   14.9660   58.5880 O   0  0  0  0  0  0  0  0  0  0  0  0
   14.5400   14.9750   59.1080 C   0  0  0  0  0  0  0  0  0  0  0  0
   15.9550   17.0450   61.7380 C   0  0  2  0  0  0  0  0  0  0  0  0
   15.1060   17.7200   62.6830 O   0  0  0  0  0  0  0  0  0  0  0  0
   17.2340   17.8960   61.7020 C   0  0  0  0  0  0  0  0  0  0  0  0
   18.0311   20.4666   62.6885 H   0  0  0  0  0  0  0  0  0  0  0  0
   18.8080   19.9620   61.1495 H   0  0  0  0  0  0  0  0  0  0  0  0
   17.5874   21.2799   61.1495 H   0  0  0  0  0  0  0  0  0  0  0  0
   16.0510   19.4890   62.0980 H   0  0  0  0  0  0  0  0  0  0  0  0
   15.7884   20.4726   59.8982 H   0  0  0  0  0  0  0  0  0  0  0  0
   16.8723   19.1746   59.2658 H   0  0  0  0  0  0  0  0  0  0  0  0
   14.1474   18.8348   60.6045 H   0  0  0  0  0  0  0  0  0  0  0  0
   14.5991   18.4840   58.8868 H   0  0  0  0  0  0  0  0  0  0  0  0
   16.1526   16.6600   59.6894 H   0  0  0  0  0  0  0  0  0  0  0  0
   12.1440   16.7440   62.1190 H   0  0  0  0  0  0  0  0  0  0  0  0
   10.9521   15.1965   60.5612 H   0  0  0  0  0  0  0  0  0  0  0  0
   11.6470   12.2410   59.2970 H   0  0  0  0  0  0  0  0  0  0  0  0
   15.8333   12.0614   56.8439 H   0  0  0  0  0  0  0  0  0  0  0  0
   17.0841   14.4413   55.3325 H   0  0  0  0  0  0  0  0  0  0  0  0
   19.4286   14.5914   54.5132 H   0  0  0  0  0  0  0  0  0  0  0  0
   21.3296   14.2132   56.0788 H   0  0  0  0  0  0  0  0  0  0  0  0
   20.8812   13.6944   58.4761 H   0  0  0  0  0  0  0  0  0  0  0  0
   16.1149   15.9961   62.0281 H   0  0  0  0  0  0  0  0  0  0  0  0
   15.7190   18.2230   63.2650 H   0  0  0  0  0  0  0  0  0  0  0  0
   17.7431   17.8597   62.6764 H   0  0  0  0  0  0  0  0  0  0  0  0
   17.9412   17.5230   60.9465 H   0  0  0  0  0  0  0  0  0  0  0  0
  1  2  1  0
  2  3  1  0
  3  4  1  0
  4  5  1  0
  5  6  1  0
  6  7  2  0
  7  8  1  0
  7  9  1  0
  9 10  2  0
 10 11  1  0
 10 12  1  0
 12 13  1  0
 13 14  2  0
 13 15  1  0
 15 16  2  0
 16 17  1  0
 17 18  2  0
 18 19  1  0
 19 20  2  0
 20 21  1  0
 21 22  2  0
 22 23  1  0
 16 24  1  0
 24 25  1  0
  5 26  1  0
 26 27  1  0
 26 28  1  0
 28  2  1  0
 25  6  1  0
 25 12  2  0
 22 17  1  0
  1 29  1  0
  1 30  1  0
  1 31  1  0
  2 32  1  1
  3 33  1  0
  3 34  1  0
  4 35  1  0
  4 36  1  0
  5 37  1  6
  8 38  1  0
  9 39  1  0
 11 40  1  0
 15 41  1  0
 18 42  1  0
 19 43  1  0
 20 44  1  0
 21 45  1  0
 26 46  1  1
 27 47  1  0
 28 48  1  0
 28 49  1  0
M  CHG  1   2   1
M  END
>  <meeko>  (8) 
{"is_sidechain": [false], "free_energy": -7.385, "intermolecular_energy": -8.906, "internal_energy": -1.028}

$$$$
3ebp_ligand
     RDKit          3D

 49 52  0  0  0  0  0  0  0  0999 V2000
   15.2270   18.8320   53.5660 C   0  0  0  0  0  0  0  0  0  0  0  0
   16.3270   18.0200   54.1680 N   0  0  1  0  0  0  0  0  0  0  0  0
   17.1010   18.7620   55.2250 C   0  0  0  0  0  0  0  0  0  0  0  0
   18.2980   17.9370   55.6980 C   0  0  0  0  0  0  0  0  0  0  0  0
   17.8720   16.5140   56.1070 C   0  0  2  0  0  0  0  0  0  0  0  0
   19.0070   15.7600   56.8030 C   0  0  0  0  0  0  0  0  0  0  0  0
   20.2180   15.3940   56.2030 C   0  0  0  0  0  0  0  0  0  0  0  0
   20.4780   15.7410   54.9060 O   0  0  0  0  0  0  0  0  0  0  0  0
   21.1950   14.6770   56.9020 C   0  0  0  0  0  0  0  0  0  0  0  0
   20.9780   14.3070   58.2290 C   0  0  0  0  0  0  0  0  0  0  0  0
   21.9430   13.5980   58.8830 O   0  0  0  0  0  0  0  0  0  0  0  0
   19.7910   14.6620   58.8730 C   0  0  0  0  0  0  0  0  0  0  0  0
   19.4990   14.2870   60.2790 C   0  0  0  0  0  0  0  0  0  0  0  0
   20.2710   13.6890   61.0140 O   0  0  0  0  0  0  0  0  0  0  0  0
   18.1800   14.6760   60.8050 C   0  0  0  0  0  0  0  0  0  0  0  0
   17.3550   15.3960   60.0390 C   0  0  0  0  0  0  0  0  0  0  0  0
   16.0340   15.8390   60.5310 C   0  0  0  0  0  0  0  0  0  0  0  0
   15.9760   16.9130   61.4380 C   0  0  0  0  0  0  0  0  0  0  0  0
   14.7520   17.3760   61.9300 C   0  0  0  0  0  0  0  0  0  0  0  0
   13.5650   16.7770   61.5210 C   0  0  0  0  0  0  0  0  0  0  0  0
   13.5990   15.7170   60.6160 C   0  0  0  0  0  0  0  0  0  0  0  0
   14.8230   15.2500   60.1190 C   0  0  0  0  0  0  0  0  0  0  0  0
   14.7600   13.9290   59.0010 Cl  0  0  0  0  0  0  0  0  0  0  0  0
   17.6490   15.8040   58.7550 O   0  0  0  0  0  0  0  0  0  0  0  0
   18.8270   15.3930   58.1650 C   0  0  0  0  0  0  0  0  0  0  0  0
   17.1300   15.8360   54.9300 C   0  0  2  0  0  0  0  0  0  0  0  0
   17.8900   15.9180   53.7110 O   0  0  0  0  0  0  0  0  0  0  0  0
   15.8590   16.6500   54.6400 C   0  0  0  0  0  0  0  0  0  0  0  0
   14.6208   19.2795   54.3674 H   0  0  0  0  0  0  0  0  0  0  0  0
   15.6585   19.6298   52.9437 H   0  0  0  0  0  0  0  0  0  0  0  0
   14.5917   18.1846   52.9437 H   0  0  0  0  0  0  0  0  0  0  0  0
   17.0010   17.7850   53.4130 H   0  0  0  0  0  0  0  0  0  0  0  0
   17.4610   19.7139   54.8074 H   0  0  0  0  0  0  0  0  0  0  0  0
   16.4385   18.9477   56.0832 H   0  0  0  0  0  0  0  0  0  0  0  0
   19.0321   17.8703   54.8815 H   0  0  0  0  0  0  0  0  0  0  0  0
   18.7361   18.4337   56.5763 H   0  0  0  0  0  0  0  0  0  0  0  0
   17.1171   16.5241   56.9070 H   0  0  0  0  0  0  0  0  0  0  0  0
   21.3130   16.2500   54.8770 H   0  0  0  0  0  0  0  0  0  0  0  0
   22.1369   14.4043   56.4036 H   0  0  0  0  0  0  0  0  0  0  0  0
   22.3140   14.0910   59.6310 H   0  0  0  0  0  0  0  0  0  0  0  0
   17.8765   14.3767   61.8191 H   0  0  0  0  0  0  0  0  0  0  0  0
   16.9085   17.3961   61.7652 H   0  0  0  0  0  0  0  0  0  0  0  0
   14.7276   18.2148   62.6412 H   0  0  0  0  0  0  0  0  0  0  0  0
   12.6020   17.1387   61.9106 H   0  0  0  0  0  0  0  0  0  0  0  0
   12.6603   15.2450   60.2905 H   0  0  0  0  0  0  0  0  0  0  0  0
   16.9454   14.7888   55.2115 H   0  0  0  0  0  0  0  0  0  0  0  0
   18.0320   16.8790   53.5610 H   0  0  0  0  0  0  0  0  0  0  0  0
   15.2636   16.1599   53.8556 H   0  0  0  0  0  0  0  0  0  0  0  0
   15.2235   16.7309   55.5342 H   0  0  0  0  0  0  0  0  0  0  0  0
  1  2  1  0
  2  3  1  0
  3  4  1  0
  4  5  1  0
  5  6  1  0
  6  7  2  0
  7  8  1  0
  7  9  1  0
  9 10  2  0
 10 11  1  0
 10 12  1  0
 12 13  1  0
 13 14  2  0
 13 15  1  0
 15 16  2  0
 16 17  1  0
 17 18  2  0
 18 19  1  0
 19 20  2  0
 20 21  1  0
 21 22  2  0
 22 23  1  0
 16 24  1  0
 24 25  1  0
  5 26  1  0
 26 27  1  0
 26 28  1  0
 28  2  1  0
 25  6  1  0
 25 12  2  0
 22 17  1  0
  1 29  1  0
  1 30  1  0
  1 31  1  0
  2 32  1  6
  3 33  1  0
  3 34  1  0
  4 35  1  0
  4 36  1  0
  5 37  1  1
  8 38  1  0
  9 39  1  0
 11 40  1  0
 15 41  1  0
 18 42  1  0
 19 43  1  0
 20 44  1  0
 21 45  1  0
 26 46  1  1
 27 47  1  0
 28 48  1  0
 28 49  1  0
M  CHG  1   2   1
M  END
>  <meeko>  (9) 
{"is_sidechain": [false], "free_energy": -7.261, "intermolecular_energy": -8.723, "internal_energy": -1.061}

$$$$
