2xnb_ligand
     RDKit          3D

 50 53  0  0  0  0  0  0  0  0999 V2000
   26.1010   28.3010   24.9220 C   0  0  0  0  0  0  0  0  0  0  0  0
   27.3480   29.0970   25.1570 C   0  0  0  0  0  0  0  0  0  0  0  0
   27.4880   30.1700   25.9580 C   0  0  0  0  0  0  0  0  0  0  0  0
   26.4640   30.8730   26.7410 C   0  0  0  0  0  0  0  0  0  0  0  0
   26.3060   32.2390   26.6680 C   0  0  0  0  0  0  0  0  0  0  0  0
   25.3030   32.7640   27.4420 C   0  0  0  0  0  0  0  0  0  0  0  0
   24.5080   32.0180   28.2290 N   0  0  0  0  0  0  0  0  0  0  0  0
   24.7200   30.6970   28.2450 C   0  0  0  0  0  0  0  0  0  0  0  0
   23.9450   29.8310   29.0130 N   0  0  0  0  0  0  0  0  0  0  0  0
   23.3990   28.5650   28.7940 C   0  0  0  0  0  0  0  0  0  0  0  0
   23.8050   27.7030   27.7770 C   0  0  0  0  0  0  0  0  0  0  0  0
   23.2160   26.4390   27.6140 C   0  0  0  0  0  0  0  0  0  0  0  0
   22.2000   25.9800   28.4630 C   0  0  0  0  0  0  0  0  0  0  0  0
   21.6480   24.7020   28.2570 N   0  0  0  0  0  0  0  0  0  0  0  0
   20.2790   24.6330   27.7120 C   0  0  0  0  0  0  0  0  0  0  0  0
   19.9580   23.1930   27.2660 C   0  0  0  0  0  0  0  0  0  0  0  0
   20.1930   22.2270   28.4030 N   0  0  0  0  0  0  0  0  0  0  0  0
   21.5990   22.3190   28.9450 C   0  0  0  0  0  0  0  0  0  0  0  0
   21.9240   23.7640   29.3710 C   0  0  0  0  0  0  0  0  0  0  0  0
   21.7780   26.8560   29.4680 C   0  0  0  0  0  0  0  0  0  0  0  0
   22.3680   28.1200   29.6310 C   0  0  0  0  0  0  0  0  0  0  0  0
   25.6830   30.0980   27.5260 N   0  0  0  0  0  0  0  0  0  0  0  0
   29.1230   30.7770   25.9530 S   0  0  0  0  0  0  0  0  0  0  0  0
   29.6360   29.5270   24.8190 C   0  0  0  0  0  0  0  0  0  0  0  0
   30.7780   29.4240   24.4040 O   0  0  0  0  0  0  0  0  0  0  0  0
   28.5350   28.7350   24.5250 N   0  0  0  0  0  0  0  0  0  0  0  0
   28.6550   27.6180   23.6130 C   0  0  0  0  0  0  0  0  0  0  0  0
   25.6586   28.0186   25.8887 H   0  0  0  0  0  0  0  0  0  0  0  0
   25.3811   28.9070   24.3524 H   0  0  0  0  0  0  0  0  0  0  0  0
   26.3476   27.3929   24.3524 H   0  0  0  0  0  0  0  0  0  0  0  0
   26.9434   32.8687   26.0298 H   0  0  0  0  0  0  0  0  0  0  0  0
   25.1405   33.8517   27.4177 H   0  0  0  0  0  0  0  0  0  0  0  0
   23.8390   30.2290   29.9350 H   0  0  0  0  0  0  0  0  0  0  0  0
   24.6025   28.0191   27.0885 H   0  0  0  0  0  0  0  0  0  0  0  0
   23.5621   25.7901   26.7960 H   0  0  0  0  0  0  0  0  0  0  0  0
   19.5627   24.9418   28.4876 H   0  0  0  0  0  0  0  0  0  0  0  0
   20.2031   25.3040   26.8437 H   0  0  0  0  0  0  0  0  0  0  0  0
   18.9049   23.1362   26.9535 H   0  0  0  0  0  0  0  0  0  0  0  0
   20.6155   22.9237   26.4262 H   0  0  0  0  0  0  0  0  0  0  0  0
   20.0110   21.2680   28.0820 H   0  0  0  0  0  0  0  0  0  0  0  0
   19.5240   22.4220   29.1600 H   0  0  0  0  0  0  0  0  0  0  0  0
   21.6942   21.6552   29.8170 H   0  0  0  0  0  0  0  0  0  0  0  0
   22.3031   22.0155   28.1563 H   0  0  0  0  0  0  0  0  0  0  0  0
   21.3024   24.0358   30.2369 H   0  0  0  0  0  0  0  0  0  0  0  0
   22.9893   23.8279   29.6376 H   0  0  0  0  0  0  0  0  0  0  0  0
   20.9672   26.5487   30.1449 H   0  0  0  0  0  0  0  0  0  0  0  0
   22.0110   28.7778   30.4372 H   0  0  0  0  0  0  0  0  0  0  0  0
   28.7552   26.6851   24.1871 H   0  0  0  0  0  0  0  0  0  0  0  0
   27.7575   27.5640   22.9793 H   0  0  0  0  0  0  0  0  0  0  0  0
   29.5435   27.7558   22.9793 H   0  0  0  0  0  0  0  0  0  0  0  0
  1  2  1  0
  2  3  2  0
  3  4  1  0
  4  5  2  0
  5  6  1  0
  6  7  2  0
  7  8  1  0
  8  9  1  0
  9 10  1  0
 10 11  2  0
 11 12  1  0
 12 13  2  0
 13 14  1  0
 14 15  1  0
 15 16  1  0
 16 17  1  0
 17 18  1  0
 18 19  1  0
 13 20  1  0
 20 21  2  0
  8 22  2  0
  3 23  1  0
 23 24  1  0
 24 25  2  0
 24 26  1  0
 26 27  1  0
 26  2  1  0
 22  4  1  0
 21 10  1  0
 19 14  1  0
  1 28  1  0
  1 29  1  0
  1 30  1  0
  5 31  1  0
  6 32  1  0
  9 33  1  0
 11 34  1  0
 12 35  1  0
 15 36  1  0
 15 37  1  0
 16 38  1  0
 16 39  1  0
 17 40  1  0
 17 41  1  0
 18 42  1  0
 18 43  1  0
 19 44  1  0
 19 45  1  0
 20 46  1  0
 21 47  1  0
 27 48  1  0
 27 49  1  0
 27 50  1  0
M  CHG  1  17   1
M  END
>  <meeko>  (1) 
{"is_sidechain": [false], "free_energy": -10.741, "intermolecular_energy": -13.253, "internal_energy": -0.204}

$$$$
2xnb_ligand
     RDKit          3D

 50 53  0  0  0  0  0  0  0  0999 V2000
   26.1430   28.3320   27.3710 C   0  0  0  0  0  0  0  0  0  0  0  0
   26.2540   29.8170   27.2170 C   0  0  0  0  0  0  0  0  0  0  0  0
   27.1510   30.4910   26.4720 C   0  0  0  0  0  0  0  0  0  0  0  0
   28.2750   29.9660   25.6880 C   0  0  0  0  0  0  0  0  0  0  0  0
   29.5500   30.4700   25.8200 C   0  0  0  0  0  0  0  0  0  0  0  0
   30.5080   29.8790   25.0370 C   0  0  0  0  0  0  0  0  0  0  0  0
   30.2500   28.8690   24.1880 N   0  0  0  0  0  0  0  0  0  0  0  0
   28.9880   28.4300   24.1170 C   0  0  0  0  0  0  0  0  0  0  0  0
   28.6140   27.3790   23.2820 N   0  0  0  0  0  0  0  0  0  0  0  0
   27.7310   26.3060   23.4090 C   0  0  0  0  0  0  0  0  0  0  0  0
   27.0720   25.9710   24.5910 C   0  0  0  0  0  0  0  0  0  0  0  0
   26.1920   24.8790   24.6500 C   0  0  0  0  0  0  0  0  0  0  0  0
   25.9270   24.0780   23.5310 C   0  0  0  0  0  0  0  0  0  0  0  0
   25.0320   23.0000   23.6450 N   0  0  0  0  0  0  0  0  0  0  0  0
   24.4100   22.7690   24.9640 C   0  0  0  0  0  0  0  0  0  0  0  0
   23.2470   21.7660   24.8330 C   0  0  0  0  0  0  0  0  0  0  0  0
   23.7230   20.4950   24.1730 N   0  0  0  0  0  0  0  0  0  0  0  0
   24.3570   20.7560   22.8280 C   0  0  0  0  0  0  0  0  0  0  0  0
   25.5060   21.7750   22.9570 C   0  0  0  0  0  0  0  0  0  0  0  0
   26.6080   24.4020   22.3530 C   0  0  0  0  0  0  0  0  0  0  0  0
   27.4870   25.4950   22.2940 C   0  0  0  0  0  0  0  0  0  0  0  0
   27.9850   28.9540   24.8390 N   0  0  0  0  0  0  0  0  0  0  0  0
   26.9050   32.2150   26.5610 S   0  0  0  0  0  0  0  0  0  0  0  0
   25.5350   32.0140   27.6530 C   0  0  0  0  0  0  0  0  0  0  0  0
   24.8900   32.9460   28.1010 O   0  0  0  0  0  0  0  0  0  0  0  0
   25.3550   30.6550   27.8720 N   0  0  0  0  0  0  0  0  0  0  0  0
   24.2940   30.1830   28.7340 C   0  0  0  0  0  0  0  0  0  0  0  0
   26.1238   28.0747   28.4403 H   0  0  0  0  0  0  0  0  0  0  0  0
   25.2162   27.9820   26.8929 H   0  0  0  0  0  0  0  0  0  0  0  0
   27.0075   27.8482   26.8929 H   0  0  0  0  0  0  0  0  0  0  0  0
   29.7848   31.2942   26.5097 H   0  0  0  0  0  0  0  0  0  0  0  0
   31.5410   30.2505   25.1071 H   0  0  0  0  0  0  0  0  0  0  0  0
   29.0620   27.5080   22.3870 H   0  0  0  0  0  0  0  0  0  0  0  0
   27.2450   26.5739   25.4946 H   0  0  0  0  0  0  0  0  0  0  0  0
   25.6955   24.6449   25.6032 H   0  0  0  0  0  0  0  0  0  0  0  0
   25.1635   22.3641   25.6556 H   0  0  0  0  0  0  0  0  0  0  0  0
   24.0211   23.7226   25.3506 H   0  0  0  0  0  0  0  0  0  0  0  0
   22.8563   21.5307   25.8340 H   0  0  0  0  0  0  0  0  0  0  0  0
   22.4553   22.2150   24.2153 H   0  0  0  0  0  0  0  0  0  0  0  0
   22.9310   19.8500   24.0590 H   0  0  0  0  0  0  0  0  0  0  0  0
   24.4050   20.0270   24.7840 H   0  0  0  0  0  0  0  0  0  0  0  0
   24.7546   19.8121   22.4267 H   0  0  0  0  0  0  0  0  0  0  0  0
   23.5939   21.1668   22.1506 H   0  0  0  0  0  0  0  0  0  0  0  0
   26.3254   21.3265   23.5379 H   0  0  0  0  0  0  0  0  0  0  0  0
   25.8607   22.0439   21.9511 H   0  0  0  0  0  0  0  0  0  0  0  0
   26.4516   23.7876   21.4541 H   0  0  0  0  0  0  0  0  0  0  0  0
   27.9978   25.7204   21.3462 H   0  0  0  0  0  0  0  0  0  0  0  0
   24.5898   30.3146   29.7853 H   0  0  0  0  0  0  0  0  0  0  0  0
   23.3776   30.7583   28.5362 H   0  0  0  0  0  0  0  0  0  0  0  0
   24.1077   29.1171   28.5362 H   0  0  0  0  0  0  0  0  0  0  0  0
  1  2  1  0
  2  3  2  0
  3  4  1  0
  4  5  2  0
  5  6  1  0
  6  7  2  0
  7  8  1  0
  8  9  1  0
  9 10  1  0
 10 11  2  0
 11 12  1  0
 12 13  2  0
 13 14  1  0
 14 15  1  0
 15 16  1  0
 16 17  1  0
 17 18  1  0
 18 19  1  0
 13 20  1  0
 20 21  2  0
  8 22  2  0
  3 23  1  0
 23 24  1  0
 24 25  2  0
 24 26  1  0
 26 27  1  0
 26  2  1  0
 22  4  1  0
 21 10  1  0
 19 14  1  0
  1 28  1  0
  1 29  1  0
  1 30  1  0
  5 31  1  0
  6 32  1  0
  9 33  1  0
 11 34  1  0
 12 35  1  0
 15 36  1  0
 15 37  1  0
 16 38  1  0
 16 39  1  0
 17 40  1  0
 17 41  1  0
 18 42  1  0
 18 43  1  0
 19 44  1  0
 19 45  1  0
 20 46  1  0
 21 47  1  0
 27 48  1  0
 27 49  1  0
 27 50  1  0
M  CHG  1  17   1
M  END
>  <meeko>  (2) 
{"is_sidechain": [false], "free_energy": -9.684, "intermolecular_energy": -11.811, "internal_energy": -0.342}

$$$$
2xnb_ligand
     RDKit          3D

 50 53  0  0  0  0  0  0  0  0999 V2000
   25.5790   28.1220   27.3850 C   0  0  0  0  0  0  0  0  0  0  0  0
   25.8960   29.5670   27.1530 C   0  0  0  0  0  0  0  0  0  0  0  0
   26.7770   30.0740   26.2700 C   0  0  0  0  0  0  0  0  0  0  0  0
   27.6910   29.3590   25.3700 C   0  0  0  0  0  0  0  0  0  0  0  0
   29.0510   29.5730   25.3980 C   0  0  0  0  0  0  0  0  0  0  0  0
   29.7890   28.8300   24.5130 C   0  0  0  0  0  0  0  0  0  0  0  0
   29.2480   27.9400   23.6630 N   0  0  0  0  0  0  0  0  0  0  0  0
   27.9190   27.7850   23.6960 C   0  0  0  0  0  0  0  0  0  0  0  0
   27.2580   26.8790   22.8690 N   0  0  0  0  0  0  0  0  0  0  0  0
   26.9390   25.5240   22.9740 C   0  0  0  0  0  0  0  0  0  0  0  0
   27.1240   24.5950   21.9520 C   0  0  0  0  0  0  0  0  0  0  0  0
   26.7860   23.2440   22.1240 C   0  0  0  0  0  0  0  0  0  0  0  0
   26.2530   22.7610   23.3280 C   0  0  0  0  0  0  0  0  0  0  0  0
   25.9370   21.3960   23.4480 N   0  0  0  0  0  0  0  0  0  0  0  0
   25.1800   20.7740   22.3440 C   0  0  0  0  0  0  0  0  0  0  0  0
   25.1920   19.2390   22.4910 C   0  0  0  0  0  0  0  0  0  0  0  0
   24.6850   18.8400   23.8570 N   0  0  0  0  0  0  0  0  0  0  0  0
   25.4720   19.4900   24.9680 C   0  0  0  0  0  0  0  0  0  0  0  0
   25.4760   21.0230   24.8070 C   0  0  0  0  0  0  0  0  0  0  0  0
   26.0460   23.6990   24.3440 C   0  0  0  0  0  0  0  0  0  0  0  0
   26.3860   25.0510   24.1700 C   0  0  0  0  0  0  0  0  0  0  0  0
   27.1180   28.4750   24.5230 N   0  0  0  0  0  0  0  0  0  0  0  0
   26.8150   31.8170   26.3150 S   0  0  0  0  0  0  0  0  0  0  0  0
   25.5890   31.8590   27.5830 C   0  0  0  0  0  0  0  0  0  0  0  0
   25.1620   32.8920   28.0710 O   0  0  0  0  0  0  0  0  0  0  0  0
   25.2340   30.5520   27.8820 N   0  0  0  0  0  0  0  0  0  0  0  0
   24.2390   30.2730   28.8940 C   0  0  0  0  0  0  0  0  0  0  0  0
   25.5358   27.9251   28.4664 H   0  0  0  0  0  0  0  0  0  0  0  0
   24.6069   27.8822   26.9295 H   0  0  0  0  0  0  0  0  0  0  0  0
   26.3614   27.4972   26.9295 H   0  0  0  0  0  0  0  0  0  0  0  0
   29.5157   30.2941   26.0865 H   0  0  0  0  0  0  0  0  0  0  0  0
   30.8800   28.9693   24.4977 H   0  0  0  0  0  0  0  0  0  0  0  0
   26.9030   27.3790   22.0670 H   0  0  0  0  0  0  0  0  0  0  0  0
   27.5435   24.9274   20.9910 H   0  0  0  0  0  0  0  0  0  0  0  0
   26.9436   22.5436   21.2906 H   0  0  0  0  0  0  0  0  0  0  0  0
   24.1407   21.1335   22.3679 H   0  0  0  0  0  0  0  0  0  0  0  0
   25.6492   21.0474   21.3874 H   0  0  0  0  0  0  0  0  0  0  0  0
   24.5451   18.7954   21.7198 H   0  0  0  0  0  0  0  0  0  0  0  0
   26.2234   18.8758   22.3716 H   0  0  0  0  0  0  0  0  0  0  0  0
   24.7320   17.8180   23.9550 H   0  0  0  0  0  0  0  0  0  0  0  0
   23.6940   19.1030   23.9440 H   0  0  0  0  0  0  0  0  0  0  0  0
   25.0156   19.2294   25.9343 H   0  0  0  0  0  0  0  0  0  0  0  0
   26.5095   19.1269   24.9262 H   0  0  0  0  0  0  0  0  0  0  0  0
   24.4570   21.4070   24.9628 H   0  0  0  0  0  0  0  0  0  0  0  0
   26.1604   21.4592   25.5495 H   0  0  0  0  0  0  0  0  0  0  0  0
   25.6082   23.3718   25.2986 H   0  0  0  0  0  0  0  0  0  0  0  0
   26.2131   25.7569   24.9957 H   0  0  0  0  0  0  0  0  0  0  0  0
   24.6854   30.3982   29.8915 H   0  0  0  0  0  0  0  0  0  0  0  0
   23.3949   30.9691   28.7801 H   0  0  0  0  0  0  0  0  0  0  0  0
   23.8799   29.2395   28.7801 H   0  0  0  0  0  0  0  0  0  0  0  0
  1  2  1  0
  2  3  2  0
  3  4  1  0
  4  5  2  0
  5  6  1  0
  6  7  2  0
  7  8  1  0
  8  9  1  0
  9 10  1  0
 10 11  2  0
 11 12  1  0
 12 13  2  0
 13 14  1  0
 14 15  1  0
 15 16  1  0
 16 17  1  0
 17 18  1  0
 18 19  1  0
 13 20  1  0
 20 21  2  0
  8 22  2  0
  3 23  1  0
 23 24  1  0
 24 25  2  0
 24 26  1  0
 26 27  1  0
 26  2  1  0
 22  4  1  0
 21 10  1  0
 19 14  1  0
  1 28  1  0
  1 29  1  0
  1 30  1  0
  5 31  1  0
  6 32  1  0
  9 33  1  0
 11 34  1  0
 12 35  1  0
 15 36  1  0
 15 37  1  0
 16 38  1  0
 16 39  1  0
 17 40  1  0
 17 41  1  0
 18 42  1  0
 18 43  1  0
 19 44  1  0
 19 45  1  0
 20 46  1  0
 21 47  1  0
 27 48  1  0
 27 49  1  0
 27 50  1  0
M  CHG  1  17   1
M  END
>  <meeko>  (3) 
{"is_sidechain": [false], "free_energy": -9.361, "intermolecular_energy": -11.225, "internal_energy": -0.529}

$$$$
2xnb_ligand
     RDKit          3D

 50 53  0  0  0  0  0  0  0  0999 V2000
   26.7640   29.0370   27.0680 C   0  0  0  0  0  0  0  0  0  0  0  0
   27.7660   28.7620   25.9900 C   0  0  0  0  0  0  0  0  0  0  0  0
   27.7420   27.7560   25.0950 C   0  0  0  0  0  0  0  0  0  0  0  0
   26.7870   26.6460   24.9860 C   0  0  0  0  0  0  0  0  0  0  0  0
   27.1470   25.4290   24.4500 C   0  0  0  0  0  0  0  0  0  0  0  0
   26.1620   24.4770   24.4200 C   0  0  0  0  0  0  0  0  0  0  0  0
   24.9150   24.6870   24.8790 N   0  0  0  0  0  0  0  0  0  0  0  0
   24.6410   25.8940   25.3880 C   0  0  0  0  0  0  0  0  0  0  0  0
   23.3870   26.2120   25.9050 N   0  0  0  0  0  0  0  0  0  0  0  0
   22.7810   26.0460   27.1520 C   0  0  0  0  0  0  0  0  0  0  0  0
   21.9120   25.0030   27.4660 C   0  0  0  0  0  0  0  0  0  0  0  0
   21.3390   24.8910   28.7420 C   0  0  0  0  0  0  0  0  0  0  0  0
   21.6130   25.8140   29.7610 C   0  0  0  0  0  0  0  0  0  0  0  0
   21.0150   25.6510   31.0240 N   0  0  0  0  0  0  0  0  0  0  0  0
   21.4770   26.5320   32.1140 C   0  0  0  0  0  0  0  0  0  0  0  0
   20.5190   26.4340   33.3180 C   0  0  0  0  0  0  0  0  0  0  0  0
   20.3610   24.9940   33.7460 N   0  0  0  0  0  0  0  0  0  0  0  0
   19.8900   24.1130   32.6140 C   0  0  0  0  0  0  0  0  0  0  0  0
   20.8380   24.2290   31.4040 C   0  0  0  0  0  0  0  0  0  0  0  0
   22.4670   26.8720   29.4360 C   0  0  0  0  0  0  0  0  0  0  0  0
   23.0400   26.9830   28.1600 C   0  0  0  0  0  0  0  0  0  0  0  0
   25.5410   26.8870   25.4510 N   0  0  0  0  0  0  0  0  0  0  0  0
   29.0980   27.8250   24.0010 S   0  0  0  0  0  0  0  0  0  0  0  0
   29.7230   29.2740   24.7890 C   0  0  0  0  0  0  0  0  0  0  0  0
   30.7410   29.8450   24.4360 O   0  0  0  0  0  0  0  0  0  0  0  0
   28.8600   29.6080   25.8230 N   0  0  0  0  0  0  0  0  0  0  0  0
   29.1190   30.7630   26.6540 C   0  0  0  0  0  0  0  0  0  0  0  0
   27.2387   28.9067   28.0517 H   0  0  0  0  0  0  0  0  0  0  0  0
   26.3963   30.0693   26.9721 H   0  0  0  0  0  0  0  0  0  0  0  0
   25.9209   28.3370   26.9721 H   0  0  0  0  0  0  0  0  0  0  0  0
   28.1608   25.2340   24.0703 H   0  0  0  0  0  0  0  0  0  0  0  0
   26.4034   23.4899   23.9988 H   0  0  0  0  0  0  0  0  0  0  0  0
   22.8740   26.7260   25.2040 H   0  0  0  0  0  0  0  0  0  0  0  0
   21.6705   24.2528   26.6986 H   0  0  0  0  0  0  0  0  0  0  0  0
   20.6550   24.0547   28.9487 H   0  0  0  0  0  0  0  0  0  0  0  0
   22.4862   26.2254   32.4264 H   0  0  0  0  0  0  0  0  0  0  0  0
   21.4958   27.5709   31.7531 H   0  0  0  0  0  0  0  0  0  0  0  0
   20.9275   27.0188   34.1554 H   0  0  0  0  0  0  0  0  0  0  0  0
   19.5354   26.8306   33.0260 H   0  0  0  0  0  0  0  0  0  0  0  0
   19.6930   24.9390   34.5240 H   0  0  0  0  0  0  0  0  0  0  0  0
   21.2610   24.6420   34.0980 H   0  0  0  0  0  0  0  0  0  0  0  0
   19.8664   23.0676   32.9555 H   0  0  0  0  0  0  0  0  0  0  0  0
   18.8842   24.4368   32.3082 H   0  0  0  0  0  0  0  0  0  0  0  0
   21.8159   23.7991   31.6665 H   0  0  0  0  0  0  0  0  0  0  0  0
   20.4024   23.6829   30.5543 H   0  0  0  0  0  0  0  0  0  0  0  0
   22.6945   27.6334   30.1965 H   0  0  0  0  0  0  0  0  0  0  0  0
   23.7104   27.8284   27.9458 H   0  0  0  0  0  0  0  0  0  0  0  0
   29.0543   30.4744   27.7135 H   0  0  0  0  0  0  0  0  0  0  0  0
   30.1262   31.1500   26.4403 H   0  0  0  0  0  0  0  0  0  0  0  0
   28.3735   31.5431   26.4403 H   0  0  0  0  0  0  0  0  0  0  0  0
  1  2  1  0
  2  3  2  0
  3  4  1  0
  4  5  2  0
  5  6  1  0
  6  7  2  0
  7  8  1  0
  8  9  1  0
  9 10  1  0
 10 11  2  0
 11 12  1  0
 12 13  2  0
 13 14  1  0
 14 15  1  0
 15 16  1  0
 16 17  1  0
 17 18  1  0
 18 19  1  0
 13 20  1  0
 20 21  2  0
  8 22  2  0
  3 23  1  0
 23 24  1  0
 24 25  2  0
 24 26  1  0
 26 27  1  0
 26  2  1  0
 22  4  1  0
 21 10  1  0
 19 14  1  0
  1 28  1  0
  1 29  1  0
  1 30  1  0
  5 31  1  0
  6 32  1  0
  9 33  1  0
 11 34  1  0
 12 35  1  0
 15 36  1  0
 15 37  1  0
 16 38  1  0
 16 39  1  0
 17 40  1  0
 17 41  1  0
 18 42  1  0
 18 43  1  0
 19 44  1  0
 19 45  1  0
 20 46  1  0
 21 47  1  0
 27 48  1  0
 27 49  1  0
 27 50  1  0
M  CHG  1  17   1
M  END
>  <meeko>  (4) 
{"is_sidechain": [false], "free_energy": -9.326, "intermolecular_energy": -11.443, "internal_energy": -0.268}

$$$$
2xnb_ligand
     RDKit          3D

 50 53  0  0  0  0  0  0  0  0999 V2000
   18.1760   25.4190   32.1170 C   0  0  0  0  0  0  0  0  0  0  0  0
   19.2840   25.8190   33.0420 C   0  0  0  0  0  0  0  0  0  0  0  0
   20.5620   26.0870   32.7110 C   0  0  0  0  0  0  0  0  0  0  0  0
   21.2100   25.9930   31.3980 C   0  0  0  0  0  0  0  0  0  0  0  0
   21.3690   24.7860   30.7520 C   0  0  0  0  0  0  0  0  0  0  0  0
   21.9800   24.8430   29.5270 C   0  0  0  0  0  0  0  0  0  0  0  0
   22.4050   25.9880   28.9630 N   0  0  0  0  0  0  0  0  0  0  0  0
   22.2130   27.1210   29.6490 C   0  0  0  0  0  0  0  0  0  0  0  0
   22.6000   28.3630   29.1520 N   0  0  0  0  0  0  0  0  0  0  0  0
   23.7600   28.8460   28.5440 C   0  0  0  0  0  0  0  0  0  0  0  0
   24.5460   28.1070   27.6610 C   0  0  0  0  0  0  0  0  0  0  0  0
   25.7010   28.6550   27.0800 C   0  0  0  0  0  0  0  0  0  0  0  0
   26.1170   29.9660   27.3520 C   0  0  0  0  0  0  0  0  0  0  0  0
   27.2800   30.4660   26.7380 N   0  0  0  0  0  0  0  0  0  0  0  0
   27.1840   31.7760   26.0660 C   0  0  0  0  0  0  0  0  0  0  0  0
   28.5920   32.3030   25.7280 C   0  0  0  0  0  0  0  0  0  0  0  0
   29.3550   31.2790   24.9230 N   0  0  0  0  0  0  0  0  0  0  0  0
   29.4380   29.9470   25.6290 C   0  0  0  0  0  0  0  0  0  0  0  0
   28.0300   29.4330   25.9850 C   0  0  0  0  0  0  0  0  0  0  0  0
   25.3400   30.6960   28.2570 C   0  0  0  0  0  0  0  0  0  0  0  0
   24.1850   30.1480   28.8370 C   0  0  0  0  0  0  0  0  0  0  0  0
   21.6310   27.1590   30.8590 N   0  0  0  0  0  0  0  0  0  0  0  0
   21.5130   26.5370   34.1020 S   0  0  0  0  0  0  0  0  0  0  0  0
   20.1240   26.3520   35.1730 C   0  0  0  0  0  0  0  0  0  0  0  0
   20.1710   26.5500   36.3760 O   0  0  0  0  0  0  0  0  0  0  0  0
   19.0350   25.9660   34.4040 N   0  0  0  0  0  0  0  0  0  0  0  0
   17.7450   25.7370   35.0170 C   0  0  0  0  0  0  0  0  0  0  0  0
   17.3023   25.1036   32.7062 H   0  0  0  0  0  0  0  0  0  0  0  0
   17.9010   26.2746   31.4827 H   0  0  0  0  0  0  0  0  0  0  0  0
   18.5109   24.5850   31.4827 H   0  0  0  0  0  0  0  0  0  0  0  0
   21.0272   23.8375   31.1918 H   0  0  0  0  0  0  0  0  0  0  0  0
   22.1310   23.9032   28.9757 H   0  0  0  0  0  0  0  0  0  0  0  0
   21.8130   28.9920   29.2150 H   0  0  0  0  0  0  0  0  0  0  0  0
   24.2559   27.0749   27.4147 H   0  0  0  0  0  0  0  0  0  0  0  0
   26.2967   28.0377   26.3914 H   0  0  0  0  0  0  0  0  0  0  0  0
   26.6040   31.6669   25.1377 H   0  0  0  0  0  0  0  0  0  0  0  0
   26.6847   32.4894   26.7382 H   0  0  0  0  0  0  0  0  0  0  0  0
   28.5017   33.2304   25.1434 H   0  0  0  0  0  0  0  0  0  0  0  0
   29.1350   32.4993   26.6643 H   0  0  0  0  0  0  0  0  0  0  0  0
   30.3040   31.6270   24.7360 H   0  0  0  0  0  0  0  0  0  0  0  0
   28.8980   31.1510   24.0100 H   0  0  0  0  0  0  0  0  0  0  0  0
   29.9327   29.2186   24.9696 H   0  0  0  0  0  0  0  0  0  0  0  0
   30.0145   30.0731   26.5573 H   0  0  0  0  0  0  0  0  0  0  0  0
   27.4866   29.1928   25.0592 H   0  0  0  0  0  0  0  0  0  0  0  0
   28.1253   28.5332   26.6105 H   0  0  0  0  0  0  0  0  0  0  0  0
   25.6401   31.7211   28.5199 H   0  0  0  0  0  0  0  0  0  0  0  0
   23.5982   30.7573   29.5402 H   0  0  0  0  0  0  0  0  0  0  0  0
   17.8507   25.7558   36.1117 H   0  0  0  0  0  0  0  0  0  0  0  0
   17.0446   26.5249   34.7027 H   0  0  0  0  0  0  0  0  0  0  0  0
   17.3586   24.7562   34.7027 H   0  0  0  0  0  0  0  0  0  0  0  0
  1  2  1  0
  2  3  2  0
  3  4  1  0
  4  5  2  0
  5  6  1  0
  6  7  2  0
  7  8  1  0
  8  9  1  0
  9 10  1  0
 10 11  2  0
 11 12  1  0
 12 13  2  0
 13 14  1  0
 14 15  1  0
 15 16  1  0
 16 17  1  0
 17 18  1  0
 18 19  1  0
 13 20  1  0
 20 21  2  0
  8 22  2  0
  3 23  1  0
 23 24  1  0
 24 25  2  0
 24 26  1  0
 26 27  1  0
 26  2  1  0
 22  4  1  0
 21 10  1  0
 19 14  1  0
  1 28  1  0
  1 29  1  0
  1 30  1  0
  5 31  1  0
  6 32  1  0
  9 33  1  0
 11 34  1  0
 12 35  1  0
 15 36  1  0
 15 37  1  0
 16 38  1  0
 16 39  1  0
 17 40  1  0
 17 41  1  0
 18 42  1  0
 18 43  1  0
 19 44  1  0
 19 45  1  0
 20 46  1  0
 21 47  1  0
 27 48  1  0
 27 49  1  0
 27 50  1  0
M  CHG  1  17   1
M  END
>  <meeko>  (5) 
{"is_sidechain": [false], "free_energy": -9.293, "intermolecular_energy": -11.279, "internal_energy": -0.392}

$$$$
2xnb_ligand
     RDKit          3D

 50 53  0  0  0  0  0  0  0  0999 V2000
   21.3720   26.6050   34.2830 C   0  0  0  0  0  0  0  0  0  0  0  0
   20.0270   26.2750   33.7140 C   0  0  0  0  0  0  0  0  0  0  0  0
   19.7670   25.7020   32.5230 C   0  0  0  0  0  0  0  0  0  0  0  0
   20.7070   25.3240   31.4610 C   0  0  0  0  0  0  0  0  0  0  0  0
   21.2500   24.0600   31.3880 C   0  0  0  0  0  0  0  0  0  0  0  0
   22.1030   23.8370   30.3390 C   0  0  0  0  0  0  0  0  0  0  0  0
   22.4080   24.7720   29.4220 N   0  0  0  0  0  0  0  0  0  0  0  0
   21.8400   25.9760   29.5560 C   0  0  0  0  0  0  0  0  0  0  0  0
   22.0740   27.0110   28.6540 N   0  0  0  0  0  0  0  0  0  0  0  0
   23.2100   27.7280   28.2740 C   0  0  0  0  0  0  0  0  0  0  0  0
   24.1850   27.2460   27.4030 C   0  0  0  0  0  0  0  0  0  0  0  0
   25.3030   28.0210   27.0580 C   0  0  0  0  0  0  0  0  0  0  0  0
   25.4930   29.3140   27.5650 C   0  0  0  0  0  0  0  0  0  0  0  0
   26.6290   30.0490   27.1820 N   0  0  0  0  0  0  0  0  0  0  0  0
   26.4200   31.4390   26.7290 C   0  0  0  0  0  0  0  0  0  0  0  0
   27.7690   32.1790   26.6500 C   0  0  0  0  0  0  0  0  0  0  0  0
   28.7370   31.4130   25.7800 N   0  0  0  0  0  0  0  0  0  0  0  0
   28.9330   29.9960   26.2610 C   0  0  0  0  0  0  0  0  0  0  0  0
   27.5810   29.2630   26.3600 C   0  0  0  0  0  0  0  0  0  0  0  0
   24.5260   29.7870   28.4580 C   0  0  0  0  0  0  0  0  0  0  0  0
   23.4070   29.0110   28.8010 C   0  0  0  0  0  0  0  0  0  0  0  0
   20.9990   26.2850   30.5560 N   0  0  0  0  0  0  0  0  0  0  0  0
   18.0570   25.4770   32.2680 S   0  0  0  0  0  0  0  0  0  0  0  0
   17.6800   26.1890   33.8370 C   0  0  0  0  0  0  0  0  0  0  0  0
   16.5440   26.3160   34.2630 O   0  0  0  0  0  0  0  0  0  0  0  0
   18.8740   26.5450   34.4470 N   0  0  0  0  0  0  0  0  0  0  0  0
   18.8780   27.1580   35.7570 C   0  0  0  0  0  0  0  0  0  0  0  0
   21.3186   26.5919   35.3816 H   0  0  0  0  0  0  0  0  0  0  0  0
   22.1068   25.8605   33.9427 H   0  0  0  0  0  0  0  0  0  0  0  0
   21.6788   27.6050   33.9427 H   0  0  0  0  0  0  0  0  0  0  0  0
   21.0137   23.2788   32.1255 H   0  0  0  0  0  0  0  0  0  0  0  0
   22.5618   22.8420   30.2421 H   0  0  0  0  0  0  0  0  0  0  0  0
   21.2180   27.1990   28.1540 H   0  0  0  0  0  0  0  0  0  0  0  0
   24.0762   26.2376   26.9772 H   0  0  0  0  0  0  0  0  0  0  0  0
   26.0518   27.6017   26.3699 H   0  0  0  0  0  0  0  0  0  0  0  0
   25.9509   31.4307   25.7341 H   0  0  0  0  0  0  0  0  0  0  0  0
   25.7669   31.9570   27.4467 H   0  0  0  0  0  0  0  0  0  0  0  0
   27.6095   33.1795   26.2215 H   0  0  0  0  0  0  0  0  0  0  0  0
   28.1895   32.2654   27.6628 H   0  0  0  0  0  0  0  0  0  0  0  0
   29.6430   31.8980   25.7650 H   0  0  0  0  0  0  0  0  0  0  0  0
   28.3890   31.3980   24.8120 H   0  0  0  0  0  0  0  0  0  0  0  0
   29.5830   29.4609   25.5530 H   0  0  0  0  0  0  0  0  0  0  0  0
   29.3955   30.0217   27.2587 H   0  0  0  0  0  0  0  0  0  0  0  0
   27.1652   29.1304   25.3503 H   0  0  0  0  0  0  0  0  0  0  0  0
   27.7389   28.2829   26.8339 H   0  0  0  0  0  0  0  0  0  0  0  0
   24.6444   30.7871   28.9006 H   0  0  0  0  0  0  0  0  0  0  0  0
   22.6654   29.4215   29.5021 H   0  0  0  0  0  0  0  0  0  0  0  0
   18.8729   26.3741   36.5287 H   0  0  0  0  0  0  0  0  0  0  0  0
   19.7802   27.7772   35.8693 H   0  0  0  0  0  0  0  0  0  0  0  0
   17.9840   27.7889   35.8693 H   0  0  0  0  0  0  0  0  0  0  0  0
  1  2  1  0
  2  3  2  0
  3  4  1  0
  4  5  2  0
  5  6  1  0
  6  7  2  0
  7  8  1  0
  8  9  1  0
  9 10  1  0
 10 11  2  0
 11 12  1  0
 12 13  2  0
 13 14  1  0
 14 15  1  0
 15 16  1  0
 16 17  1  0
 17 18  1  0
 18 19  1  0
 13 20  1  0
 20 21  2  0
  8 22  2  0
  3 23  1  0
 23 24  1  0
 24 25  2  0
 24 26  1  0
 26 27  1  0
 26  2  1  0
 22  4  1  0
 21 10  1  0
 19 14  1  0
  1 28  1  0
  1 29  1  0
  1 30  1  0
  5 31  1  0
  6 32  1  0
  9 33  1  0
 11 34  1  0
 12 35  1  0
 15 36  1  0
 15 37  1  0
 16 38  1  0
 16 39  1  0
 17 40  1  0
 17 41  1  0
 18 42  1  0
 18 43  1  0
 19 44  1  0
 19 45  1  0
 20 46  1  0
 21 47  1  0
 27 48  1  0
 27 49  1  0
 27 50  1  0
M  CHG  1  17   1
M  END
>  <meeko>  (6) 
{"is_sidechain": [false], "free_energy": -9.151, "intermolecular_energy": -10.82, "internal_energy": -0.675}

$$$$
2xnb_ligand
     RDKit          3D

 50 53  0  0  0  0  0  0  0  0999 V2000
   28.2610   31.9720   26.2480 C   0  0  0  0  0  0  0  0  0  0  0  0
   28.3150   30.5370   25.8220 C   0  0  0  0  0  0  0  0  0  0  0  0
   27.4450   29.5610   26.1430 C   0  0  0  0  0  0  0  0  0  0  0  0
   26.2780   29.6250   27.0320 C   0  0  0  0  0  0  0  0  0  0  0  0
   26.0170   30.7330   27.8070 C   0  0  0  0  0  0  0  0  0  0  0  0
   24.8880   30.6660   28.5810 C   0  0  0  0  0  0  0  0  0  0  0  0
   24.0670   29.6010   28.6010 N   0  0  0  0  0  0  0  0  0  0  0  0
   24.3840   28.5630   27.8180 C   0  0  0  0  0  0  0  0  0  0  0  0
   23.5950   27.4170   27.7510 N   0  0  0  0  0  0  0  0  0  0  0  0
   22.5870   26.8850   28.5570 C   0  0  0  0  0  0  0  0  0  0  0  0
   21.5740   26.0480   28.0920 C   0  0  0  0  0  0  0  0  0  0  0  0
   20.5910   25.5430   28.9570 C   0  0  0  0  0  0  0  0  0  0  0  0
   20.5810   25.8470   30.3260 C   0  0  0  0  0  0  0  0  0  0  0  0
   19.5750   25.3090   31.1490 N   0  0  0  0  0  0  0  0  0  0  0  0
   19.4890   25.8110   32.5340 C   0  0  0  0  0  0  0  0  0  0  0  0
   18.1670   25.3560   33.1820 C   0  0  0  0  0  0  0  0  0  0  0  0
   18.0260   23.8550   33.0860 N   0  0  0  0  0  0  0  0  0  0  0  0
   18.1190   23.3660   31.6610 C   0  0  0  0  0  0  0  0  0  0  0  0
   19.4320   23.8410   31.0080 C   0  0  0  0  0  0  0  0  0  0  0  0
   21.5850   26.7060   30.7850 C   0  0  0  0  0  0  0  0  0  0  0  0
   22.5680   27.2100   29.9190 C   0  0  0  0  0  0  0  0  0  0  0  0
   25.4740   28.5390   27.0350 N   0  0  0  0  0  0  0  0  0  0  0  0
   27.8770   28.0380   25.4120 S   0  0  0  0  0  0  0  0  0  0  0  0
   29.2940   28.7530   24.6430 C   0  0  0  0  0  0  0  0  0  0  0  0
   30.0620   28.1260   23.9330 O   0  0  0  0  0  0  0  0  0  0  0  0
   29.3410   30.0950   24.9890 N   0  0  0  0  0  0  0  0  0  0  0  0
   30.4040   30.9450   24.5000 C   0  0  0  0  0  0  0  0  0  0  0  0
   28.2589   32.0285   27.3465 H   0  0  0  0  0  0  0  0  0  0  0  0
   29.1397   32.5044   25.8551 H   0  0  0  0  0  0  0  0  0  0  0  0
   27.3447   32.4369   25.8551 H   0  0  0  0  0  0  0  0  0  0  0  0
   26.6731   31.6159   27.8049 H   0  0  0  0  0  0  0  0  0  0  0  0
   24.6406   31.5275   29.2186 H   0  0  0  0  0  0  0  0  0  0  0  0
   23.7960   26.9410   26.8840 H   0  0  0  0  0  0  0  0  0  0  0  0
   21.5445   25.7780   27.0261 H   0  0  0  0  0  0  0  0  0  0  0  0
   19.8055   24.8897   28.5493 H   0  0  0  0  0  0  0  0  0  0  0  0
   20.3344   25.4166   33.1169 H   0  0  0  0  0  0  0  0  0  0  0  0
   19.5234   26.9104   32.5209 H   0  0  0  0  0  0  0  0  0  0  0  0
   18.1603   25.6542   34.2408 H   0  0  0  0  0  0  0  0  0  0  0  0
   17.3271   25.8291   32.6521 H   0  0  0  0  0  0  0  0  0  0  0  0
   17.1250   23.5690   33.4880 H   0  0  0  0  0  0  0  0  0  0  0  0
   18.7610   23.4060   33.6470 H   0  0  0  0  0  0  0  0  0  0  0  0
   18.0889   22.2664   31.6536 H   0  0  0  0  0  0  0  0  0  0  0  0
   17.2717   23.7742   31.0904 H   0  0  0  0  0  0  0  0  0  0  0  0
   20.2819   23.3448   31.4994 H   0  0  0  0  0  0  0  0  0  0  0  0
   19.4128   23.5845   29.9385 H   0  0  0  0  0  0  0  0  0  0  0  0
   21.6046   26.9925   31.8468 H   0  0  0  0  0  0  0  0  0  0  0  0
   23.3440   27.8780   30.3209 H   0  0  0  0  0  0  0  0  0  0  0  0
   30.9474   31.3795   25.3520 H   0  0  0  0  0  0  0  0  0  0  0  0
   31.0975   30.3495   23.8880 H   0  0  0  0  0  0  0  0  0  0  0  0
   29.9757   31.7525   23.8880 H   0  0  0  0  0  0  0  0  0  0  0  0
  1  2  1  0
  2  3  2  0
  3  4  1  0
  4  5  2  0
  5  6  1  0
  6  7  2  0
  7  8  1  0
  8  9  1  0
  9 10  1  0
 10 11  2  0
 11 12  1  0
 12 13  2  0
 13 14  1  0
 14 15  1  0
 15 16  1  0
 16 17  1  0
 17 18  1  0
 18 19  1  0
 13 20  1  0
 20 21  2  0
  8 22  2  0
  3 23  1  0
 23 24  1  0
 24 25  2  0
 24 26  1  0
 26 27  1  0
 26  2  1  0
 22  4  1  0
 21 10  1  0
 19 14  1  0
  1 28  1  0
  1 29  1  0
  1 30  1  0
  5 31  1  0
  6 32  1  0
  9 33  1  0
 11 34  1  0
 12 35  1  0
 15 36  1  0
 15 37  1  0
 16 38  1  0
 16 39  1  0
 17 40  1  0
 17 41  1  0
 18 42  1  0
 18 43  1  0
 19 44  1  0
 19 45  1  0
 20 46  1  0
 21 47  1  0
 27 48  1  0
 27 49  1  0
 27 50  1  0
M  CHG  1  17   1
M  END
>  <meeko>  (7) 
{"is_sidechain": [false], "free_energy": -8.995, "intermolecular_energy": -11.539, "internal_energy": 0.237}

$$$$
2xnb_ligand
     RDKit          3D

 50 53  0  0  0  0  0  0  0  0999 V2000
   28.2630   30.2650   25.0450 C   0  0  0  0  0  0  0  0  0  0  0  0
   27.7970   28.9080   25.4760 C   0  0  0  0  0  0  0  0  0  0  0  0
   26.8200   28.6270   26.3590 C   0  0  0  0  0  0  0  0  0  0  0  0
   26.0180   29.5540   27.1670 C   0  0  0  0  0  0  0  0  0  0  0  0
   26.3660   30.8790   27.3120 C   0  0  0  0  0  0  0  0  0  0  0  0
   25.5230   31.6350   28.0840 C   0  0  0  0  0  0  0  0  0  0  0  0
   24.4180   31.1440   28.6720 N   0  0  0  0  0  0  0  0  0  0  0  0
   24.1430   29.8480   28.4840 C   0  0  0  0  0  0  0  0  0  0  0  0
   23.0160   29.2410   29.0340 N   0  0  0  0  0  0  0  0  0  0  0  0
   22.5850   27.9180   29.1500 C   0  0  0  0  0  0  0  0  0  0  0  0
   22.2790   27.2980   30.3590 C   0  0  0  0  0  0  0  0  0  0  0  0
   21.8450   25.9640   30.4050 C   0  0  0  0  0  0  0  0  0  0  0  0
   21.6950   25.1930   29.2440 C   0  0  0  0  0  0  0  0  0  0  0  0
   21.2520   23.8620   29.3480 N   0  0  0  0  0  0  0  0  0  0  0  0
   21.2870   23.2360   30.6840 C   0  0  0  0  0  0  0  0  0  0  0  0
   20.4930   21.9150   30.6720 C   0  0  0  0  0  0  0  0  0  0  0  0
   21.0040   21.0070   29.5790 N   0  0  0  0  0  0  0  0  0  0  0  0
   20.9610   21.6690   28.2230 C   0  0  0  0  0  0  0  0  0  0  0  0
   21.7380   23.0000   28.2440 C   0  0  0  0  0  0  0  0  0  0  0  0
   22.0260   25.8100   28.0340 C   0  0  0  0  0  0  0  0  0  0  0  0
   22.4580   27.1450   27.9890 C   0  0  0  0  0  0  0  0  0  0  0  0
   24.9160   29.0310   27.7500 N   0  0  0  0  0  0  0  0  0  0  0  0
   26.5890   26.9100   26.5500 S   0  0  0  0  0  0  0  0  0  0  0  0
   27.8700   26.5590   25.3890 C   0  0  0  0  0  0  0  0  0  0  0  0
   28.2010   25.4280   25.0740 O   0  0  0  0  0  0  0  0  0  0  0  0
   28.3810   27.7660   24.9340 N   0  0  0  0  0  0  0  0  0  0  0  0
   29.4530   27.7920   23.9630 C   0  0  0  0  0  0  0  0  0  0  0  0
   28.4740   30.8793   25.9328 H   0  0  0  0  0  0  0  0  0  0  0  0
   29.1781   30.1643   24.4429 H   0  0  0  0  0  0  0  0  0  0  0  0
   27.4791   30.7477   24.4429 H   0  0  0  0  0  0  0  0  0  0  0  0
   27.2635   31.3033   26.8382 H   0  0  0  0  0  0  0  0  0  0  0  0
   25.7628   32.6985   28.2302 H   0  0  0  0  0  0  0  0  0  0  0  0
   22.4590   29.9520   29.4850 H   0  0  0  0  0  0  0  0  0  0  0  0
   22.3794   27.8649   31.2963 H   0  0  0  0  0  0  0  0  0  0  0  0
   21.6159   25.5103   31.3806 H   0  0  0  0  0  0  0  0  0  0  0  0
   22.3312   23.0301   30.9619 H   0  0  0  0  0  0  0  0  0  0  0  0
   20.8330   23.9218   31.4145 H   0  0  0  0  0  0  0  0  0  0  0  0
   20.6083   21.4133   31.6441 H   0  0  0  0  0  0  0  0  0  0  0  0
   19.4317   22.1368   30.4863 H   0  0  0  0  0  0  0  0  0  0  0  0
   20.4420   20.1460   29.5580 H   0  0  0  0  0  0  0  0  0  0  0  0
   21.9710   20.7290   29.7900 H   0  0  0  0  0  0  0  0  0  0  0  0
   21.4139   20.9977   27.4785 H   0  0  0  0  0  0  0  0  0  0  0  0
   19.9124   21.8747   27.9620 H   0  0  0  0  0  0  0  0  0  0  0  0
   22.8085   22.7930   28.3895 H   0  0  0  0  0  0  0  0  0  0  0  0
   21.5815   23.5209   27.2878 H   0  0  0  0  0  0  0  0  0  0  0  0
   21.9463   25.2377   27.0980 H   0  0  0  0  0  0  0  0  0  0  0  0
   22.7033   27.5959   27.0161 H   0  0  0  0  0  0  0  0  0  0  0  0
   30.4206   27.8155   24.4856 H   0  0  0  0  0  0  0  0  0  0  0  0
   29.3985   26.8923   23.3325 H   0  0  0  0  0  0  0  0  0  0  0  0
   29.3550   28.6880   23.3325 H   0  0  0  0  0  0  0  0  0  0  0  0
  1  2  1  0
  2  3  2  0
  3  4  1  0
  4  5  2  0
  5  6  1  0
  6  7  2  0
  7  8  1  0
  8  9  1  0
  9 10  1  0
 10 11  2  0
 11 12  1  0
 12 13  2  0
 13 14  1  0
 14 15  1  0
 15 16  1  0
 16 17  1  0
 17 18  1  0
 18 19  1  0
 13 20  1  0
 20 21  2  0
  8 22  2  0
  3 23  1  0
 23 24  1  0
 24 25  2  0
 24 26  1  0
 26 27  1  0
 26  2  1  0
 22  4  1  0
 21 10  1  0
 19 14  1  0
  1 28  1  0
  1 29  1  0
  1 30  1  0
  5 31  1  0
  6 32  1  0
  9 33  1  0
 11 34  1  0
 12 35  1  0
 15 36  1  0
 15 37  1  0
 16 38  1  0
 16 39  1  0
 17 40  1  0
 17 41  1  0
 18 42  1  0
 18 43  1  0
 19 44  1  0
 19 45  1  0
 20 46  1  0
 21 47  1  0
 27 48  1  0
 27 49  1  0
 27 50  1  0
M  CHG  1  17   1
M  END
>  <meeko>  (8) 
{"is_sidechain": [false], "free_energy": -8.919, "intermolecular_energy": -11.268, "internal_energy": 0.059}

$$$$
2xnb_ligand
     RDKit          3D

 50 53  0  0  0  0  0  0  0  0999 V2000
   25.4940   28.0300   27.3180 C   0  0  0  0  0  0  0  0  0  0  0  0
   25.8640   29.4650   27.1010 C   0  0  0  0  0  0  0  0  0  0  0  0
   26.7800   29.9470   26.2400 C   0  0  0  0  0  0  0  0  0  0  0  0
   27.6880   29.2060   25.3550 C   0  0  0  0  0  0  0  0  0  0  0  0
   29.0330   29.4980   25.2880 C   0  0  0  0  0  0  0  0  0  0  0  0
   29.7680   28.7210   24.4310 C   0  0  0  0  0  0  0  0  0  0  0  0
   29.2400   27.7290   23.6920 N   0  0  0  0  0  0  0  0  0  0  0  0
   27.9260   27.5030   23.8140 C   0  0  0  0  0  0  0  0  0  0  0  0
   27.2800   26.4910   23.1080 N   0  0  0  0  0  0  0  0  0  0  0  0
   26.4900   25.4010   23.4780 C   0  0  0  0  0  0  0  0  0  0  0  0
   26.5590   24.1450   22.8790 C   0  0  0  0  0  0  0  0  0  0  0  0
   25.7380   23.0890   23.3040 C   0  0  0  0  0  0  0  0  0  0  0  0
   24.8150   23.2410   24.3480 C   0  0  0  0  0  0  0  0  0  0  0  0
   24.0210   22.1470   24.7360 N   0  0  0  0  0  0  0  0  0  0  0  0
   23.4800   21.2860   23.6660 C   0  0  0  0  0  0  0  0  0  0  0  0
   22.9080   19.9880   24.2690 C   0  0  0  0  0  0  0  0  0  0  0  0
   21.8930   20.3100   25.3400 N   0  0  0  0  0  0  0  0  0  0  0  0
   22.4680   21.1930   26.4210 C   0  0  0  0  0  0  0  0  0  0  0  0
   23.0580   22.4800   25.8130 C   0  0  0  0  0  0  0  0  0  0  0  0
   24.7310   24.5090   24.9310 C   0  0  0  0  0  0  0  0  0  0  0  0
   25.5540   25.5640   24.5070 C   0  0  0  0  0  0  0  0  0  0  0  0
   27.1280   28.2180   24.6220 N   0  0  0  0  0  0  0  0  0  0  0  0
   26.8750   31.6870   26.2960 S   0  0  0  0  0  0  0  0  0  0  0  0
   25.6250   31.7640   27.5380 C   0  0  0  0  0  0  0  0  0  0  0  0
   25.2220   32.8080   28.0230 O   0  0  0  0  0  0  0  0  0  0  0  0
   25.2200   30.4680   27.8220 N   0  0  0  0  0  0  0  0  0  0  0  0
   24.1950   30.2170   28.8120 C   0  0  0  0  0  0  0  0  0  0  0  0
   25.4409   27.8242   28.3973 H   0  0  0  0  0  0  0  0  0  0  0  0
   24.5150   27.8302   26.8581 H   0  0  0  0  0  0  0  0  0  0  0  0
   26.2544   27.3817   26.8581 H   0  0  0  0  0  0  0  0  0  0  0  0
   29.4876   30.3030   25.8841 H   0  0  0  0  0  0  0  0  0  0  0  0
   30.8464   28.9191   24.3429 H   0  0  0  0  0  0  0  0  0  0  0  0
   27.3900   26.6700   22.1200 H   0  0  0  0  0  0  0  0  0  0  0  0
   27.2707   23.9778   22.0571 H   0  0  0  0  0  0  0  0  0  0  0  0
   25.8213   22.1132   22.8030 H   0  0  0  0  0  0  0  0  0  0  0  0
   22.6805   21.8239   23.1355 H   0  0  0  0  0  0  0  0  0  0  0  0
   24.2888   21.0315   22.9652 H   0  0  0  0  0  0  0  0  0  0  0  0
   22.4234   19.4016   23.4744 H   0  0  0  0  0  0  0  0  0  0  0  0
   23.7293   19.4095   24.7170 H   0  0  0  0  0  0  0  0  0  0  0  0
   21.5460   19.4370   25.7580 H   0  0  0  0  0  0  0  0  0  0  0  0
   21.0830   20.7790   24.9130 H   0  0  0  0  0  0  0  0  0  0  0  0
   21.6715   21.4607   27.1309 H   0  0  0  0  0  0  0  0  0  0  0  0
   23.2697   20.6449   26.9376 H   0  0  0  0  0  0  0  0  0  0  0  0
   22.2436   23.0903   25.3954 H   0  0  0  0  0  0  0  0  0  0  0  0
   23.5829   23.0396   26.6013 H   0  0  0  0  0  0  0  0  0  0  0  0
   24.0049   24.6834   25.7387 H   0  0  0  0  0  0  0  0  0  0  0  0
   25.4614   26.5450   24.9960 H   0  0  0  0  0  0  0  0  0  0  0  0
   24.6245   30.3222   29.8192 H   0  0  0  0  0  0  0  0  0  0  0  0
   23.3770   30.9414   28.6847 H   0  0  0  0  0  0  0  0  0  0  0  0
   23.8043   29.1966   28.6847 H   0  0  0  0  0  0  0  0  0  0  0  0
  1  2  1  0
  2  3  2  0
  3  4  1  0
  4  5  2  0
  5  6  1  0
  6  7  2  0
  7  8  1  0
  8  9  1  0
  9 10  1  0
 10 11  2  0
 11 12  1  0
 12 13  2  0
 13 14  1  0
 14 15  1  0
 15 16  1  0
 16 17  1  0
 17 18  1  0
 18 19  1  0
 13 20  1  0
 20 21  2  0
  8 22  2  0
  3 23  1  0
 23 24  1  0
 24 25  2  0
 24 26  1  0
 26 27  1  0
 26  2  1  0
 22  4  1  0
 21 10  1  0
 19 14  1  0
  1 28  1  0
  1 29  1  0
  1 30  1  0
  5 31  1  0
  6 32  1  0
  9 33  1  0
 11 34  1  0
 12 35  1  0
 15 36  1  0
 15 37  1  0
 16 38  1  0
 16 39  1  0
 17 40  1  0
 17 41  1  0
 18 42  1  0
 18 43  1  0
 19 44  1  0
 19 45  1  0
 20 46  1  0
 21 47  1  0
 27 48  1  0
 27 49  1  0
 27 50  1  0
M  CHG  1  17   1
M  END
>  <meeko>  (9) 
{"is_sidechain": [false], "free_energy": -8.873, "intermolecular_energy": -10.897, "internal_energy": -0.256}

$$$$
