4owm_ligand
     RDKit          3D

 16 16  0  0  0  0  0  0  0  0999 V2000
  -29.5000  -19.0490   14.7680 N   0  0  0  0  0  0  0  0  0  0  0  0
  -28.6040  -20.1400   14.8840 C   0  0  0  0  0  0  0  0  0  0  0  0
  -28.2510  -20.6080   16.1620 C   0  0  0  0  0  0  0  0  0  0  0  0
  -28.6440  -19.9300   17.2540 F   0  0  0  0  0  0  0  0  0  0  0  0
  -27.4910  -21.7600   16.3410 C   0  0  0  0  0  0  0  0  0  0  0  0
  -27.0850  -22.4910   15.2300 C   0  0  0  0  0  0  0  0  0  0  0  0
  -27.4430  -22.0560   13.9520 C   0  0  0  0  0  0  0  0  0  0  0  0
  -28.2080  -20.8850   13.7540 C   0  0  0  0  0  0  0  0  0  0  0  0
  -28.5220  -20.4390   12.3360 C   0  0  0  0  0  0  0  0  0  0  0  0
  -28.4650  -19.1890   12.0910 O   0  0  0  0  0  0  0  0  0  0  0  0
  -28.7930  -21.3470   11.4870 O   0  0  0  0  0  0  0  0  0  0  0  0
  -30.2030  -19.0480   15.4950 H   0  0  0  0  0  0  0  0  0  0  0  0
  -28.9360  -18.1740   14.7520 H   0  0  0  0  0  0  0  0  0  0  0  0
  -27.2137  -22.0896   17.3532 H   0  0  0  0  0  0  0  0  0  0  0  0
  -26.4863  -23.4051   15.3567 H   0  0  0  0  0  0  0  0  0  0  0  0
  -27.1211  -22.6401   13.0773 H   0  0  0  0  0  0  0  0  0  0  0  0
  1  2  1  0
  2  3  2  0
  3  4  1  0
  3  5  1  0
  5  6  2  0
  6  7  1  0
  7  8  2  0
  8  9  1  0
  9 10  2  0
  9 11  1  0
  8  2  1  0
  1 12  1  0
  1 13  1  0
  5 14  1  0
  6 15  1  0
  7 16  1  0
M  CHG  1  11  -1
M  END
>  <meeko>  (1) 
{"is_sidechain": [false], "free_energy": -6.252, "intermolecular_energy": -6.8, "internal_energy": -0.248}

$$$$
4owm_ligand
     RDKit          3D

 16 16  0  0  0  0  0  0  0  0999 V2000
  -29.1650  -18.1110   13.9560 N   0  0  0  0  0  0  0  0  0  0  0  0
  -28.7660  -19.4070   14.3650 C   0  0  0  0  0  0  0  0  0  0  0  0
  -28.4860  -20.3810   13.3900 C   0  0  0  0  0  0  0  0  0  0  0  0
  -28.7410  -20.1230   12.0960 F   0  0  0  0  0  0  0  0  0  0  0  0
  -27.9560  -21.6250   13.7220 C   0  0  0  0  0  0  0  0  0  0  0  0
  -27.6680  -21.9130   15.0510 C   0  0  0  0  0  0  0  0  0  0  0  0
  -27.9170  -20.9510   16.0330 C   0  0  0  0  0  0  0  0  0  0  0  0
  -28.4610  -19.6870   15.7130 C   0  0  0  0  0  0  0  0  0  0  0  0
  -28.7550  -18.7050   16.8330 C   0  0  0  0  0  0  0  0  0  0  0  0
  -28.2370  -17.5430   16.7420 O   0  0  0  0  0  0  0  0  0  0  0  0
  -29.5190  -19.1010   17.7700 O   0  0  0  0  0  0  0  0  0  0  0  0
  -30.1630  -17.9710   14.0390 H   0  0  0  0  0  0  0  0  0  0  0  0
  -28.6150  -17.4200   14.5060 H   0  0  0  0  0  0  0  0  0  0  0  0
  -27.7667  -22.3739   12.9388 H   0  0  0  0  0  0  0  0  0  0  0  0
  -27.2472  -22.8910   15.3274 H   0  0  0  0  0  0  0  0  0  0  0  0
  -27.6835  -21.1837   17.0824 H   0  0  0  0  0  0  0  0  0  0  0  0
  1  2  1  0
  2  3  2  0
  3  4  1  0
  3  5  1  0
  5  6  2  0
  6  7  1  0
  7  8  2  0
  8  9  1  0
  9 10  2  0
  9 11  1  0
  8  2  1  0
  1 12  1  0
  1 13  1  0
  5 14  1  0
  6 15  1  0
  7 16  1  0
M  CHG  1  11  -1
M  END
>  <meeko>  (2) 
{"is_sidechain": [false], "free_energy": -6.098, "intermolecular_energy": -6.612, "internal_energy": -0.269}

$$$$
4owm_ligand
     RDKit          3D

 16 16  0  0  0  0  0  0  0  0999 V2000
  -26.3650  -22.6030   11.9680 N   0  0  0  0  0  0  0  0  0  0  0  0
  -26.9180  -22.2980   13.2360 C   0  0  0  0  0  0  0  0  0  0  0  0
  -26.4010  -22.9280   14.3820 C   0  0  0  0  0  0  0  0  0  0  0  0
  -25.4970  -23.9140   14.2520 F   0  0  0  0  0  0  0  0  0  0  0  0
  -26.8030  -22.5680   15.6650 C   0  0  0  0  0  0  0  0  0  0  0  0
  -27.7240  -21.5390   15.8300 C   0  0  0  0  0  0  0  0  0  0  0  0
  -28.2330  -20.8850   14.7060 C   0  0  0  0  0  0  0  0  0  0  0  0
  -27.8400  -21.2440   13.3970 C   0  0  0  0  0  0  0  0  0  0  0  0
  -28.4690  -20.5270   12.2150 C   0  0  0  0  0  0  0  0  0  0  0  0
  -28.9000  -21.2480   11.2560 O   0  0  0  0  0  0  0  0  0  0  0  0
  -28.5460  -19.2590   12.2780 O   0  0  0  0  0  0  0  0  0  0  0  0
  -25.7130  -23.3760   12.0080 H   0  0  0  0  0  0  0  0  0  0  0  0
  -27.1520  -22.7740   11.3100 H   0  0  0  0  0  0  0  0  0  0  0  0
  -26.3955  -23.0931   16.5415 H   0  0  0  0  0  0  0  0  0  0  0  0
  -28.0490  -21.2426   16.8382 H   0  0  0  0  0  0  0  0  0  0  0  0
  -28.9584  -20.0695   14.8431 H   0  0  0  0  0  0  0  0  0  0  0  0
  1  2  1  0
  2  3  2  0
  3  4  1  0
  3  5  1  0
  5  6  2  0
  6  7  1  0
  7  8  2  0
  8  9  1  0
  9 10  2  0
  9 11  1  0
  8  2  1  0
  1 12  1  0
  1 13  1  0
  5 14  1  0
  6 15  1  0
  7 16  1  0
M  CHG  1  11  -1
M  END
>  <meeko>  (3) 
{"is_sidechain": [false], "free_energy": -5.942, "intermolecular_energy": -6.446, "internal_energy": -0.265}

$$$$
4owm_ligand
     RDKit          3D

 16 16  0  0  0  0  0  0  0  0999 V2000
  -28.5660  -20.8220   15.0440 N   0  0  0  0  0  0  0  0  0  0  0  0
  -27.5990  -21.6000   14.3620 C   0  0  0  0  0  0  0  0  0  0  0  0
  -26.7690  -22.4670   15.0940 C   0  0  0  0  0  0  0  0  0  0  0  0
  -26.7980  -22.4410   16.4380 F   0  0  0  0  0  0  0  0  0  0  0  0
  -25.9000  -23.3580   14.4720 C   0  0  0  0  0  0  0  0  0  0  0  0
  -25.8630  -23.4180   13.0830 C   0  0  0  0  0  0  0  0  0  0  0  0
  -26.6950  -22.5820   12.3350 C   0  0  0  0  0  0  0  0  0  0  0  0
  -27.5770  -21.6680   12.9530 C   0  0  0  0  0  0  0  0  0  0  0  0
  -28.4190  -20.7520   12.0820 C   0  0  0  0  0  0  0  0  0  0  0  0
  -28.4410  -19.5130   12.3880 O   0  0  0  0  0  0  0  0  0  0  0  0
  -29.0200  -21.2790   11.0930 O   0  0  0  0  0  0  0  0  0  0  0  0
  -29.5110  -21.1230   14.8470 H   0  0  0  0  0  0  0  0  0  0  0  0
  -28.3380  -20.8500   16.0590 H   0  0  0  0  0  0  0  0  0  0  0  0
  -25.2483  -24.0089   15.0733 H   0  0  0  0  0  0  0  0  0  0  0  0
  -25.1831  -24.1191   12.5770 H   0  0  0  0  0  0  0  0  0  0  0  0
  -26.6626  -22.6367   11.2368 H   0  0  0  0  0  0  0  0  0  0  0  0
  1  2  1  0
  2  3  2  0
  3  4  1  0
  3  5  1  0
  5  6  2  0
  6  7  1  0
  7  8  2  0
  8  9  1  0
  9 10  2  0
  9 11  1  0
  8  2  1  0
  1 12  1  0
  1 13  1  0
  5 14  1  0
  6 15  1  0
  7 16  1  0
M  CHG  1  11  -1
M  END
>  <meeko>  (4) 
{"is_sidechain": [false], "free_energy": -5.84, "intermolecular_energy": -6.334, "internal_energy": -0.265}

$$$$
4owm_ligand
     RDKit          3D

 16 16  0  0  0  0  0  0  0  0999 V2000
  -26.4600  -18.9740   19.5190 N   0  0  0  0  0  0  0  0  0  0  0  0
  -26.5050  -19.8270   18.3890 C   0  0  0  0  0  0  0  0  0  0  0  0
  -26.8390  -19.2900   17.1330 C   0  0  0  0  0  0  0  0  0  0  0  0
  -27.2550  -18.0150   17.0410 F   0  0  0  0  0  0  0  0  0  0  0  0
  -26.7620  -20.0440   15.9650 C   0  0  0  0  0  0  0  0  0  0  0  0
  -26.3190  -21.3600   16.0290 C   0  0  0  0  0  0  0  0  0  0  0  0
  -25.9600  -21.9070   17.2630 C   0  0  0  0  0  0  0  0  0  0  0  0
  -26.0390  -21.1560   18.4580 C   0  0  0  0  0  0  0  0  0  0  0  0
  -25.6820  -21.8250   19.7740 C   0  0  0  0  0  0  0  0  0  0  0  0
  -26.0770  -23.0260   19.9460 O   0  0  0  0  0  0  0  0  0  0  0  0
  -24.9900  -21.1500   20.6010 O   0  0  0  0  0  0  0  0  0  0  0  0
  -26.1400  -19.4520   20.3500 H   0  0  0  0  0  0  0  0  0  0  0  0
  -25.8700  -18.1520   19.2750 H   0  0  0  0  0  0  0  0  0  0  0  0
  -27.0494  -19.6019   14.9996 H   0  0  0  0  0  0  0  0  0  0  0  0
  -26.2516  -21.9666   15.1139 H   0  0  0  0  0  0  0  0  0  0  0  0
  -25.6071  -22.9480   17.3060 H   0  0  0  0  0  0  0  0  0  0  0  0
  1  2  1  0
  2  3  2  0
  3  4  1  0
  3  5  1  0
  5  6  2  0
  6  7  1  0
  7  8  2  0
  8  9  1  0
  9 10  2  0
  9 11  1  0
  8  2  1  0
  1 12  1  0
  1 13  1  0
  5 14  1  0
  6 15  1  0
  7 16  1  0
M  CHG  1  11  -1
M  END
>  <meeko>  (5) 
{"is_sidechain": [false], "free_energy": -5.796, "intermolecular_energy": -6.314, "internal_energy": -0.237}

$$$$
4owm_ligand
     RDKit          3D

 16 16  0  0  0  0  0  0  0  0999 V2000
  -29.8280  -19.1140   15.6000 N   0  0  0  0  0  0  0  0  0  0  0  0
  -28.6370  -19.6370   16.1620 C   0  0  0  0  0  0  0  0  0  0  0  0
  -28.3500  -19.3920   17.5170 C   0  0  0  0  0  0  0  0  0  0  0  0
  -29.1240  -18.5490   18.2220 F   0  0  0  0  0  0  0  0  0  0  0  0
  -27.2730  -19.9930   18.1620 C   0  0  0  0  0  0  0  0  0  0  0  0
  -26.4660  -20.8830   17.4620 C   0  0  0  0  0  0  0  0  0  0  0  0
  -26.7460  -21.1570   16.1220 C   0  0  0  0  0  0  0  0  0  0  0  0
  -27.8310  -20.5500   15.4510 C   0  0  0  0  0  0  0  0  0  0  0  0
  -28.0520  -20.8530   13.9790 C   0  0  0  0  0  0  0  0  0  0  0  0
  -28.3850  -22.0450   13.6720 O   0  0  0  0  0  0  0  0  0  0  0  0
  -27.9170  -19.8890   13.1600 O   0  0  0  0  0  0  0  0  0  0  0  0
  -30.4410  -18.7160   16.2980 H   0  0  0  0  0  0  0  0  0  0  0  0
  -29.5590  -18.4300   14.8630 H   0  0  0  0  0  0  0  0  0  0  0  0
  -27.0619  -19.7657   19.2173 H   0  0  0  0  0  0  0  0  0  0  0  0
  -25.6134  -21.3675   17.9603 H   0  0  0  0  0  0  0  0  0  0  0  0
  -26.1052  -21.8638   15.5745 H   0  0  0  0  0  0  0  0  0  0  0  0
  1  2  1  0
  2  3  2  0
  3  4  1  0
  3  5  1  0
  5  6  2  0
  6  7  1  0
  7  8  2  0
  8  9  1  0
  9 10  2  0
  9 11  1  0
  8  2  1  0
  1 12  1  0
  1 13  1  0
  5 14  1  0
  6 15  1  0
  7 16  1  0
M  CHG  1  11  -1
M  END
>  <meeko>  (6) 
{"is_sidechain": [false], "free_energy": -5.751, "intermolecular_energy": -6.246, "internal_energy": -0.257}

$$$$
4owm_ligand
     RDKit          3D

 16 16  0  0  0  0  0  0  0  0999 V2000
  -26.8780  -22.4340   14.3350 N   0  0  0  0  0  0  0  0  0  0  0  0
  -27.7750  -21.5160   14.9360 C   0  0  0  0  0  0  0  0  0  0  0  0
  -27.8050  -21.4000   16.3360 C   0  0  0  0  0  0  0  0  0  0  0  0
  -27.0990  -22.2580   17.0930 F   0  0  0  0  0  0  0  0  0  0  0  0
  -28.5580  -20.4210   16.9790 C   0  0  0  0  0  0  0  0  0  0  0  0
  -29.2850  -19.5100   16.2210 C   0  0  0  0  0  0  0  0  0  0  0  0
  -29.2510  -19.5930   14.8270 C   0  0  0  0  0  0  0  0  0  0  0  0
  -28.4970  -20.5850   14.1600 C   0  0  0  0  0  0  0  0  0  0  0  0
  -28.5420  -20.6520   12.6440 C   0  0  0  0  0  0  0  0  0  0  0  0
  -28.7400  -21.7950   12.1150 O   0  0  0  0  0  0  0  0  0  0  0  0
  -28.4060  -19.5580   12.0090 O   0  0  0  0  0  0  0  0  0  0  0  0
  -26.9210  -23.3490   14.7610 H   0  0  0  0  0  0  0  0  0  0  0  0
  -27.0810  -22.4550   13.3140 H   0  0  0  0  0  0  0  0  0  0  0  0
  -28.5775  -20.3688   18.0776 H   0  0  0  0  0  0  0  0  0  0  0  0
  -29.8824  -18.7298   16.7153 H   0  0  0  0  0  0  0  0  0  0  0  0
  -29.8260  -18.8674   14.2330 H   0  0  0  0  0  0  0  0  0  0  0  0
  1  2  1  0
  2  3  2  0
  3  4  1  0
  3  5  1  0
  5  6  2  0
  6  7  1  0
  7  8  2  0
  8  9  1  0
  9 10  2  0
  9 11  1  0
  8  2  1  0
  1 12  1  0
  1 13  1  0
  5 14  1  0
  6 15  1  0
  7 16  1  0
M  CHG  1  11  -1
M  END
>  <meeko>  (7) 
{"is_sidechain": [false], "free_energy": -5.743, "intermolecular_energy": -6.229, "internal_energy": -0.265}

$$$$
4owm_ligand
     RDKit          3D

 16 16  0  0  0  0  0  0  0  0999 V2000
  -27.4950  -22.4220   11.1190 N   0  0  0  0  0  0  0  0  0  0  0  0
  -26.6470  -22.1850   12.2280 C   0  0  0  0  0  0  0  0  0  0  0  0
  -25.4010  -22.8330   12.2940 C   0  0  0  0  0  0  0  0  0  0  0  0
  -25.0910  -23.7780   11.3890 F   0  0  0  0  0  0  0  0  0  0  0  0
  -24.4660  -22.5360   13.2820 C   0  0  0  0  0  0  0  0  0  0  0  0
  -24.7540  -21.5520   14.2210 C   0  0  0  0  0  0  0  0  0  0  0  0
  -25.9760  -20.8790   14.1610 C   0  0  0  0  0  0  0  0  0  0  0  0
  -26.9380  -21.1750   13.1680 C   0  0  0  0  0  0  0  0  0  0  0  0
  -28.2680  -20.4420   13.1880 C   0  0  0  0  0  0  0  0  0  0  0  0
  -29.0230  -20.6290   14.1980 O   0  0  0  0  0  0  0  0  0  0  0  0
  -28.5220  -19.6710   12.2080 O   0  0  0  0  0  0  0  0  0  0  0  0
  -27.0560  -23.0030   10.4160 H   0  0  0  0  0  0  0  0  0  0  0  0
  -28.3840  -22.8260   11.4770 H   0  0  0  0  0  0  0  0  0  0  0  0
  -23.5079  -23.0751   13.3193 H   0  0  0  0  0  0  0  0  0  0  0  0
  -24.0240  -21.3053   15.0060 H   0  0  0  0  0  0  0  0  0  0  0  0
  -26.1957  -20.0990   14.9049 H   0  0  0  0  0  0  0  0  0  0  0  0
  1  2  1  0
  2  3  2  0
  3  4  1  0
  3  5  1  0
  5  6  2  0
  6  7  1  0
  7  8  2  0
  8  9  1  0
  9 10  2  0
  9 11  1  0
  8  2  1  0
  1 12  1  0
  1 13  1  0
  5 14  1  0
  6 15  1  0
  7 16  1  0
M  CHG  1  11  -1
M  END
>  <meeko>  (8) 
{"is_sidechain": [false], "free_energy": -5.604, "intermolecular_energy": -6.077, "internal_energy": -0.266}

$$$$
4owm_ligand
     RDKit          3D

 16 16  0  0  0  0  0  0  0  0999 V2000
  -28.6170  -20.7000   12.1790 N   0  0  0  0  0  0  0  0  0  0  0  0
  -27.7590  -20.8790   13.2920 C   0  0  0  0  0  0  0  0  0  0  0  0
  -28.2580  -20.6680   14.5890 C   0  0  0  0  0  0  0  0  0  0  0  0
  -29.4910  -20.1580   14.7550 F   0  0  0  0  0  0  0  0  0  0  0  0
  -27.5100  -20.9640   15.7250 C   0  0  0  0  0  0  0  0  0  0  0  0
  -26.2390  -21.5080   15.5830 C   0  0  0  0  0  0  0  0  0  0  0  0
  -25.7310  -21.7470   14.3040 C   0  0  0  0  0  0  0  0  0  0  0  0
  -26.4760  -21.4460   13.1420 C   0  0  0  0  0  0  0  0  0  0  0  0
  -25.8470  -21.6830   11.7800 C   0  0  0  0  0  0  0  0  0  0  0  0
  -26.3400  -22.6160   11.0640 O   0  0  0  0  0  0  0  0  0  0  0  0
  -24.8910  -20.9170   11.4390 O   0  0  0  0  0  0  0  0  0  0  0  0
  -28.1230  -20.3680   11.3610 H   0  0  0  0  0  0  0  0  0  0  0  0
  -29.1140  -21.5980   12.0120 H   0  0  0  0  0  0  0  0  0  0  0  0
  -27.9213  -20.7690   16.7264 H   0  0  0  0  0  0  0  0  0  0  0  0
  -25.6372  -21.7487   16.4718 H   0  0  0  0  0  0  0  0  0  0  0  0
  -24.7255  -22.1805   14.1989 H   0  0  0  0  0  0  0  0  0  0  0  0
  1  2  1  0
  2  3  2  0
  3  4  1  0
  3  5  1  0
  5  6  2  0
  6  7  1  0
  7  8  2  0
  8  9  1  0
  9 10  2  0
  9 11  1  0
  8  2  1  0
  1 12  1  0
  1 13  1  0
  5 14  1  0
  6 15  1  0
  7 16  1  0
M  CHG  1  11  -1
M  END
>  <meeko>  (9) 
{"is_sidechain": [false], "free_energy": -5.32, "intermolecular_energy": -5.774, "internal_energy": -0.26}

$$$$
