3prs_ligand
     RDKit          3D

 98101  0  0  0  0  0  0  0  0999 V2000
   -4.5690    3.3220    4.7000 C   0  0  0  0  0  0  0  0  0  0  0  0
   -6.0240    3.1810    5.1500 C   0  0  0  0  0  0  0  0  0  0  0  0
   -6.3470    4.1890    6.2530 C   0  0  0  0  0  0  0  0  0  0  0  0
   -6.2950    1.7780    5.6290 C   0  0  0  0  0  0  0  0  0  0  0  0
   -5.9080    1.3020    6.7930 N   0  0  0  0  0  0  0  0  0  0  0  0
   -6.3240   -0.0180    6.9460 C   0  0  0  0  0  0  0  0  0  0  0  0
   -6.0130   -0.7730    8.2100 C   0  0  0  0  0  0  0  0  0  0  0  0
   -6.4970   -0.0570    9.3870 N   0  0  0  0  0  0  0  0  0  0  0  0
   -7.8840   -0.2810    9.7690 C   0  0  0  0  0  0  0  0  0  0  0  0
   -5.5540    0.5750   10.1740 C   0  0  0  0  0  0  0  0  0  0  0  0
   -5.8160    1.0640   11.2700 O   0  0  0  0  0  0  0  0  0  0  0  0
   -4.2840    0.5870    9.6650 N   0  0  0  0  0  0  0  0  0  0  0  0
   -3.1590    1.2670   10.3230 C   0  0  2  0  0  0  0  0  0  0  0  0
   -2.7360    2.5090    9.5010 C   0  0  0  0  0  0  0  0  0  0  0  0
   -3.1600    2.6970    8.3620 O   0  0  0  0  0  0  0  0  0  0  0  0
   -1.8390    3.3520   10.1240 N   0  0  0  0  0  0  0  0  0  0  0  0
   -1.1930    4.4590    9.4150 C   0  0  1  0  0  0  0  0  0  0  0  0
   -2.0730    5.7320    9.4260 C   0  0  0  0  0  0  0  0  0  0  0  0
   -2.3010    6.4260    8.0990 C   0  0  0  0  0  0  0  0  0  0  0  0
   -3.1120    5.8370    7.1180 C   0  0  0  0  0  0  0  0  0  0  0  0
   -3.3200    6.4680    5.8890 C   0  0  0  0  0  0  0  0  0  0  0  0
   -2.7260    7.7010    5.6290 C   0  0  0  0  0  0  0  0  0  0  0  0
   -1.9380    8.3090    6.6030 C   0  0  0  0  0  0  0  0  0  0  0  0
   -1.7360    7.6800    7.8340 C   0  0  0  0  0  0  0  0  0  0  0  0
    0.2350    4.6480    9.9670 C   0  0  0  0  0  0  0  0  0  0  0  0
    1.2000    5.4010    9.0420 C   0  0  2  0  0  0  0  0  0  0  0  0
    2.4180    4.6560    8.9510 O   0  0  0  0  0  0  0  0  0  0  0  0
    1.4610    6.8660    9.5160 C   0  0  2  0  0  0  0  0  0  0  0  0
    2.0340    7.7440    8.3810 C   0  0  0  0  0  0  0  0  0  0  0  0
    2.0810    9.2200    8.7140 C   0  0  0  0  0  0  0  0  0  0  0  0
    3.3000    9.8440    9.0130 C   0  0  0  0  0  0  0  0  0  0  0  0
    3.3420   11.2030    9.3250 C   0  0  0  0  0  0  0  0  0  0  0  0
    2.1670   11.9530    9.3380 C   0  0  0  0  0  0  0  0  0  0  0  0
    0.9510   11.3450    9.0390 C   0  0  0  0  0  0  0  0  0  0  0  0
    0.9070    9.9860    8.7250 C   0  0  0  0  0  0  0  0  0  0  0  0
    2.3530    6.8780   10.6770 N   0  0  0  0  0  0  0  0  0  0  0  0
    1.9930    7.3960   11.8800 C   0  0  0  0  0  0  0  0  0  0  0  0
    0.9230    7.9400   12.1150 O   0  0  0  0  0  0  0  0  0  0  0  0
    2.9910    7.2030   12.7690 O   0  0  0  0  0  0  0  0  0  0  0  0
    3.6120    8.4190   13.1920 C   0  0  0  0  0  0  0  0  0  0  0  0
    3.8280    8.2840   14.6600 C   0  0  0  0  0  0  0  0  0  0  0  0
    3.1410    8.8840   15.6980 C   0  0  0  0  0  0  0  0  0  0  0  0
    3.5690    8.5580   16.9710 N   0  0  0  0  0  0  0  0  0  0  0  0
    4.5800    7.7230   16.8850 C   0  0  0  0  0  0  0  0  0  0  0  0
    5.0640    7.2810   15.3000 S   0  0  0  0  0  0  0  0  0  0  0  0
   -1.9820    0.3390   10.7150 C   0  0  0  0  0  0  0  0  0  0  0  0
   -2.4480   -1.1100   10.9020 C   0  0  0  0  0  0  0  0  0  0  0  0
   -1.3140    0.8180   12.0120 C   0  0  0  0  0  0  0  0  0  0  0  0
   -7.0260   -0.5180    5.8630 C   0  0  0  0  0  0  0  0  0  0  0  0
   -7.1660    0.6730    4.6410 S   0  0  0  0  0  0  0  0  0  0  0  0
   -3.9165    3.3852    5.5833 H   0  0  0  0  0  0  0  0  0  0  0  0
   -4.2854    2.4471    4.0965 H   0  0  0  0  0  0  0  0  0  0  0  0
   -4.4587    4.2350    4.0965 H   0  0  0  0  0  0  0  0  0  0  0  0
   -6.6731    3.3889    4.2866 H   0  0  0  0  0  0  0  0  0  0  0  0
   -6.1961    3.7182    7.2356 H   0  0  0  0  0  0  0  0  0  0  0  0
   -5.6833    5.0611    6.1585 H   0  0  0  0  0  0  0  0  0  0  0  0
   -7.3939    4.5130    6.1585 H   0  0  0  0  0  0  0  0  0  0  0  0
   -6.4970   -1.7598    8.1665 H   0  0  0  0  0  0  0  0  0  0  0  0
   -4.9212   -0.8790    8.2920 H   0  0  0  0  0  0  0  0  0  0  0  0
   -7.9647   -0.2940   10.8660 H   0  0  0  0  0  0  0  0  0  0  0  0
   -8.5108    0.5276    9.3648 H   0  0  0  0  0  0  0  0  0  0  0  0
   -8.2244   -1.2458    9.3648 H   0  0  0  0  0  0  0  0  0  0  0  0
   -4.2560    0.6290    8.6590 H   0  0  0  0  0  0  0  0  0  0  0  0
   -3.5199    1.6168   11.3014 H   0  0  0  0  0  0  0  0  0  0  0  0
   -1.2920    2.9040   10.8640 H   0  0  0  0  0  0  0  0  0  0  0  0
   -1.0873    4.2207    8.3463 H   0  0  0  0  0  0  0  0  0  0  0  0
   -3.0582    5.4501    9.8258 H   0  0  0  0  0  0  0  0  0  0  0  0
   -1.5141    6.4585   10.0342 H   0  0  0  0  0  0  0  0  0  0  0  0
   -3.5899    4.8668    7.3186 H   0  0  0  0  0  0  0  0  0  0  0  0
   -3.9531    5.9910    5.1263 H   0  0  0  0  0  0  0  0  0  0  0  0
   -2.8790    8.1929    4.6571 H   0  0  0  0  0  0  0  0  0  0  0  0
   -1.4739    9.2860    6.4028 H   0  0  0  0  0  0  0  0  0  0  0  0
   -1.1262    8.1752    8.6040 H   0  0  0  0  0  0  0  0  0  0  0  0
    0.1632    5.2073   10.9114 H   0  0  0  0  0  0  0  0  0  0  0  0
    0.6524    3.6371   10.0848 H   0  0  0  0  0  0  0  0  0  0  0  0
    0.7400    5.4878    8.0466 H   0  0  0  0  0  0  0  0  0  0  0  0
    3.1330    5.1760    9.3740 H   0  0  0  0  0  0  0  0  0  0  0  0
    0.4921    7.2970    9.8082 H   0  0  0  0  0  0  0  0  0  0  0  0
    3.0576    7.4049    8.1634 H   0  0  0  0  0  0  0  0  0  0  0  0
    1.3607    7.6317    7.5184 H   0  0  0  0  0  0  0  0  0  0  0  0
    4.2306    9.2576    9.0015 H   0  0  0  0  0  0  0  0  0  0  0  0
    4.3031   11.6832    9.5610 H   0  0  0  0  0  0  0  0  0  0  0  0
    2.2007   13.0245    9.5844 H   0  0  0  0  0  0  0  0  0  0  0  0
    0.0236   11.9365    9.0502 H   0  0  0  0  0  0  0  0  0  0  0  0
   -0.0561    9.5123    8.4843 H   0  0  0  0  0  0  0  0  0  0  0  0
    3.2310    6.3790   10.6570 H   0  0  0  0  0  0  0  0  0  0  0  0
    4.5736    8.5562   12.6757 H   0  0  0  0  0  0  0  0  0  0  0  0
    2.9864    9.2926   12.9566 H   0  0  0  0  0  0  0  0  0  0  0  0
    2.3057    9.5777   15.5221 H   0  0  0  0  0  0  0  0  0  0  0  0
    5.0870    7.3299   17.7786 H   0  0  0  0  0  0  0  0  0  0  0  0
   -1.2554    0.3782    9.8901 H   0  0  0  0  0  0  0  0  0  0  0  0
   -2.5207   -1.3361   11.9761 H   0  0  0  0  0  0  0  0  0  0  0  0
   -3.4338   -1.2417   10.4320 H   0  0  0  0  0  0  0  0  0  0  0  0
   -1.7238   -1.7916   10.4320 H   0  0  0  0  0  0  0  0  0  0  0  0
   -1.8664    0.4219   12.8769 H   0  0  0  0  0  0  0  0  0  0  0  0
   -0.2752    0.4577   12.0441 H   0  0  0  0  0  0  0  0  0  0  0  0
   -1.3219    1.9175   12.0441 H   0  0  0  0  0  0  0  0  0  0  0  0
   -7.4360   -1.5366    5.7968 H   0  0  0  0  0  0  0  0  0  0  0  0
  1  2  1  0
  2  3  1  0
  2  4  1  0
  4  5  2  0
  5  6  1  0
  6  7  1  0
  7  8  1  0
  8  9  1  0
  8 10  1  0
 10 11  2  0
 10 12  1  0
 12 13  1  0
 13 14  1  0
 14 15  2  0
 14 16  1  0
 16 17  1  0
 17 18  1  0
 18 19  1  0
 19 20  2  0
 20 21  1  0
 21 22  2  0
 22 23  1  0
 23 24  2  0
 17 25  1  0
 25 26  1  0
 26 27  1  0
 26 28  1  0
 28 29  1  0
 29 30  1  0
 30 31  2  0
 31 32  1  0
 32 33  2  0
 33 34  1  0
 34 35  2  0
 28 36  1  0
 36 37  1  0
 37 38  2  0
 37 39  1  0
 39 40  1  0
 40 41  1  0
 41 42  2  0
 42 43  1  0
 43 44  2  0
 44 45  1  0
 13 46  1  0
 46 47  1  0
 46 48  1  0
  6 49  2  0
 49 50  1  0
 50  4  1  0
 24 19  1  0
 35 30  1  0
 45 41  1  0
  1 51  1  0
  1 52  1  0
  1 53  1  0
  2 54  1  0
  3 55  1  0
  3 56  1  0
  3 57  1  0
  7 58  1  0
  7 59  1  0
  9 60  1  0
  9 61  1  0
  9 62  1  0
 12 63  1  0
 13 64  1  1
 16 65  1  0
 17 66  1  6
 18 67  1  0
 18 68  1  0
 20 69  1  0
 21 70  1  0
 22 71  1  0
 23 72  1  0
 24 73  1  0
 25 74  1  0
 25 75  1  0
 26 76  1  6
 27 77  1  0
 28 78  1  1
 29 79  1  0
 29 80  1  0
 31 81  1  0
 32 82  1  0
 33 83  1  0
 34 84  1  0
 35 85  1  0
 36 86  1  0
 40 87  1  0
 40 88  1  0
 42 89  1  0
 44 90  1  0
 46 91  1  0
 47 92  1  0
 47 93  1  0
 47 94  1  0
 48 95  1  0
 48 96  1  0
 48 97  1  0
 49 98  1  0
M  END
>  <meeko>  (1) 
{"is_sidechain": [false], "free_energy": -9.189, "intermolecular_energy": -19.664, "internal_energy": -3.55}

$$$$
3prs_ligand
     RDKit          3D

 98101  0  0  0  0  0  0  0  0999 V2000
  -10.0120   -4.7030    7.1480 C   0  0  0  0  0  0  0  0  0  0  0  0
   -9.7180   -3.3460    6.5070 C   0  0  0  0  0  0  0  0  0  0  0  0
   -9.3990   -3.5110    5.0200 C   0  0  0  0  0  0  0  0  0  0  0  0
   -8.5740   -2.6650    7.2130 C   0  0  0  0  0  0  0  0  0  0  0  0
   -8.6690   -2.0800    8.3880 N   0  0  0  0  0  0  0  0  0  0  0  0
   -7.4370   -1.5590    8.7770 C   0  0  0  0  0  0  0  0  0  0  0  0
   -7.2910   -0.8550   10.1000 C   0  0  0  0  0  0  0  0  0  0  0  0
   -6.9340    0.5480    9.9160 N   0  0  0  0  0  0  0  0  0  0  0  0
   -7.9240    1.4000    9.2710 C   0  0  0  0  0  0  0  0  0  0  0  0
   -5.8080    1.0060   10.5720 C   0  0  0  0  0  0  0  0  0  0  0  0
   -5.8360    1.4530   11.7160 O   0  0  0  0  0  0  0  0  0  0  0  0
   -4.6380    0.8890    9.8720 N   0  0  0  0  0  0  0  0  0  0  0  0
   -3.3470    1.3780   10.3750 C   0  0  2  0  0  0  0  0  0  0  0  0
   -2.8440    2.5500    9.4960 C   0  0  0  0  0  0  0  0  0  0  0  0
   -3.1540    2.6370    8.3090 O   0  0  0  0  0  0  0  0  0  0  0  0
   -2.0130    3.4500   10.1300 N   0  0  0  0  0  0  0  0  0  0  0  0
   -1.3000    4.4980    9.3950 C   0  0  1  0  0  0  0  0  0  0  0  0
   -2.1140    5.8140    9.3500 C   0  0  0  0  0  0  0  0  0  0  0  0
   -2.4040    6.4010    7.9840 C   0  0  0  0  0  0  0  0  0  0  0  0
   -1.8270    7.6190    7.5960 C   0  0  0  0  0  0  0  0  0  0  0  0
   -2.0960    8.1700    6.3410 C   0  0  0  0  0  0  0  0  0  0  0  0
   -2.9380    7.5040    5.4540 C   0  0  0  0  0  0  0  0  0  0  0  0
   -3.4980    6.2820    5.8160 C   0  0  0  0  0  0  0  0  0  0  0  0
   -3.2240    5.7280    7.0690 C   0  0  0  0  0  0  0  0  0  0  0  0
    0.1280    4.6320    9.9650 C   0  0  0  0  0  0  0  0  0  0  0  0
    1.1220    5.3800    9.0680 C   0  0  2  0  0  0  0  0  0  0  0  0
    2.3390    4.6300    9.0140 O   0  0  0  0  0  0  0  0  0  0  0  0
    1.3740    6.8450    9.5460 C   0  0  2  0  0  0  0  0  0  0  0  0
    1.8560    7.7520    8.3930 C   0  0  0  0  0  0  0  0  0  0  0  0
    1.9260    9.2200    8.7560 C   0  0  0  0  0  0  0  0  0  0  0  0
    0.7590    9.9940    8.8150 C   0  0  0  0  0  0  0  0  0  0  0  0
    0.8250   11.3490    9.1460 C   0  0  0  0  0  0  0  0  0  0  0  0
    2.0560   11.9410    9.4230 C   0  0  0  0  0  0  0  0  0  0  0  0
    3.2200   11.1800    9.3710 C   0  0  0  0  0  0  0  0  0  0  0  0
    3.1570    9.8250    9.0430 C   0  0  0  0  0  0  0  0  0  0  0  0
    2.3340    6.8650   10.6520 N   0  0  0  0  0  0  0  0  0  0  0  0
    2.0330    7.3550   11.8830 C   0  0  0  0  0  0  0  0  0  0  0  0
    0.9650    7.8660   12.1900 O   0  0  0  0  0  0  0  0  0  0  0  0
    3.0880    7.1770   12.7080 O   0  0  0  0  0  0  0  0  0  0  0  0
    2.7090    6.9530   14.0670 C   0  0  0  0  0  0  0  0  0  0  0  0
    3.6010    7.8160   14.8920 C   0  0  0  0  0  0  0  0  0  0  0  0
    4.5700    7.4430   15.8040 C   0  0  0  0  0  0  0  0  0  0  0  0
    5.2490    8.4770   16.4180 N   0  0  0  0  0  0  0  0  0  0  0  0
    4.7820    9.6230   15.9730 C   0  0  0  0  0  0  0  0  0  0  0  0
    3.5280    9.5280   14.8070 S   0  0  0  0  0  0  0  0  0  0  0  0
   -2.2870    0.2750   10.6210 C   0  0  0  0  0  0  0  0  0  0  0  0
   -2.9440   -1.0900   10.8580 C   0  0  0  0  0  0  0  0  0  0  0  0
   -1.4050    0.6190   11.8290 C   0  0  0  0  0  0  0  0  0  0  0  0
   -6.4230   -1.7630    7.8580 C   0  0  0  0  0  0  0  0  0  0  0  0
   -7.0130   -2.6130    6.4950 S   0  0  0  0  0  0  0  0  0  0  0  0
   -9.9904   -4.6035    8.2433 H   0  0  0  0  0  0  0  0  0  0  0  0
  -11.0063   -5.0506    6.8309 H   0  0  0  0  0  0  0  0  0  0  0  0
   -9.2507   -5.4309    6.8309 H   0  0  0  0  0  0  0  0  0  0  0  0
  -10.6153   -2.7173    6.6047 H   0  0  0  0  0  0  0  0  0  0  0  0
   -8.4271   -4.0137    4.9071 H   0  0  0  0  0  0  0  0  0  0  0  0
  -10.1829   -4.1167    4.5418 H   0  0  0  0  0  0  0  0  0  0  0  0
   -9.3576   -2.5212    4.5418 H   0  0  0  0  0  0  0  0  0  0  0  0
   -8.2449   -0.9138   10.6447 H   0  0  0  0  0  0  0  0  0  0  0  0
   -6.4879   -1.3465   10.6688 H   0  0  0  0  0  0  0  0  0  0  0  0
   -8.5212    1.9140   10.0385 H   0  0  0  0  0  0  0  0  0  0  0  0
   -7.4133    2.1454    8.6437 H   0  0  0  0  0  0  0  0  0  0  0  0
   -8.5850    0.7839    8.6437 H   0  0  0  0  0  0  0  0  0  0  0  0
   -4.7550    0.9900    8.8770 H   0  0  0  0  0  0  0  0  0  0  0  0
   -3.5228    1.7668   11.3889 H   0  0  0  0  0  0  0  0  0  0  0  0
   -1.5420    3.0710   10.9550 H   0  0  0  0  0  0  0  0  0  0  0  0
   -1.1904    4.2193    8.3366 H   0  0  0  0  0  0  0  0  0  0  0  0
   -3.0800    5.6227    9.8401 H   0  0  0  0  0  0  0  0  0  0  0  0
   -1.4775    6.5589    9.8499 H   0  0  0  0  0  0  0  0  0  0  0  0
   -1.1545    8.1467    8.2883 H   0  0  0  0  0  0  0  0  0  0  0  0
   -1.6427    9.1301    6.0533 H   0  0  0  0  0  0  0  0  0  0  0  0
   -3.1600    7.9424    4.4699 H   0  0  0  0  0  0  0  0  0  0  0  0
   -4.1578    5.7513    5.1138 H   0  0  0  0  0  0  0  0  0  0  0  0
   -3.6565    4.7535    7.3398 H   0  0  0  0  0  0  0  0  0  0  0  0
    0.0630    5.1692   10.9227 H   0  0  0  0  0  0  0  0  0  0  0  0
    0.5155    3.6070   10.0613 H   0  0  0  0  0  0  0  0  0  0  0  0
    0.6917    5.4672    8.0594 H   0  0  0  0  0  0  0  0  0  0  0  0
    2.5490    4.3120    9.9170 H   0  0  0  0  0  0  0  0  0  0  0  0
    0.4134    7.2468    9.9007 H   0  0  0  0  0  0  0  0  0  0  0  0
    2.8604    7.4220    8.0894 H   0  0  0  0  0  0  0  0  0  0  0  0
    1.1179    7.6581    7.5828 H   0  0  0  0  0  0  0  0  0  0  0  0
   -0.2152    9.5311    8.5992 H   0  0  0  0  0  0  0  0  0  0  0  0
   -0.0955   11.9498    9.1882 H   0  0  0  0  0  0  0  0  0  0  0  0
    2.1074   13.0087    9.6825 H   0  0  0  0  0  0  0  0  0  0  0  0
    4.1916   11.6474    9.5889 H   0  0  0  0  0  0  0  0  0  0  0  0
    4.0801    9.2277    9.0095 H   0  0  0  0  0  0  0  0  0  0  0  0
    3.2220    6.3900   10.5720 H   0  0  0  0  0  0  0  0  0  0  0  0
    1.6567    7.2339   14.2212 H   0  0  0  0  0  0  0  0  0  0  0  0
    2.8083    5.8927   14.3425 H   0  0  0  0  0  0  0  0  0  0  0  0
    4.7870    6.3879   16.0270 H   0  0  0  0  0  0  0  0  0  0  0  0
    5.1734   10.5876   16.3284 H   0  0  0  0  0  0  0  0  0  0  0  0
   -1.6648    0.2220    9.7154 H   0  0  0  0  0  0  0  0  0  0  0  0
   -3.0316   -1.2720   11.9393 H   0  0  0  0  0  0  0  0  0  0  0  0
   -3.9452   -1.0991   10.4024 H   0  0  0  0  0  0  0  0  0  0  0  0
   -2.3266   -1.8782   10.4024 H   0  0  0  0  0  0  0  0  0  0  0  0
   -1.9548    0.4046   12.7573 H   0  0  0  0  0  0  0  0  0  0  0  0
   -0.4877    0.0127   11.7977 H   0  0  0  0  0  0  0  0  0  0  0  0
   -1.1404    1.6862   11.7977 H   0  0  0  0  0  0  0  0  0  0  0  0
   -5.3837   -1.4261    7.9856 H   0  0  0  0  0  0  0  0  0  0  0  0
  1  2  1  0
  2  3  1  0
  2  4  1  0
  4  5  2  0
  5  6  1  0
  6  7  1  0
  7  8  1  0
  8  9  1  0
  8 10  1  0
 10 11  2  0
 10 12  1  0
 12 13  1  0
 13 14  1  0
 14 15  2  0
 14 16  1  0
 16 17  1  0
 17 18  1  0
 18 19  1  0
 19 20  2  0
 20 21  1  0
 21 22  2  0
 22 23  1  0
 23 24  2  0
 17 25  1  0
 25 26  1  0
 26 27  1  0
 26 28  1  0
 28 29  1  0
 29 30  1  0
 30 31  2  0
 31 32  1  0
 32 33  2  0
 33 34  1  0
 34 35  2  0
 28 36  1  0
 36 37  1  0
 37 38  2  0
 37 39  1  0
 39 40  1  0
 40 41  1  0
 41 42  2  0
 42 43  1  0
 43 44  2  0
 44 45  1  0
 13 46  1  0
 46 47  1  0
 46 48  1  0
  6 49  2  0
 49 50  1  0
 50  4  1  0
 24 19  1  0
 35 30  1  0
 45 41  1  0
  1 51  1  0
  1 52  1  0
  1 53  1  0
  2 54  1  0
  3 55  1  0
  3 56  1  0
  3 57  1  0
  7 58  1  0
  7 59  1  0
  9 60  1  0
  9 61  1  0
  9 62  1  0
 12 63  1  0
 13 64  1  1
 16 65  1  0
 17 66  1  6
 18 67  1  0
 18 68  1  0
 20 69  1  0
 21 70  1  0
 22 71  1  0
 23 72  1  0
 24 73  1  0
 25 74  1  0
 25 75  1  0
 26 76  1  6
 27 77  1  0
 28 78  1  1
 29 79  1  0
 29 80  1  0
 31 81  1  0
 32 82  1  0
 33 83  1  0
 34 84  1  0
 35 85  1  0
 36 86  1  0
 40 87  1  0
 40 88  1  0
 42 89  1  0
 44 90  1  0
 46 91  1  0
 47 92  1  0
 47 93  1  0
 47 94  1  0
 48 95  1  0
 48 96  1  0
 48 97  1  0
 49 98  1  0
M  END
>  <meeko>  (2) 
{"is_sidechain": [false], "free_energy": -9.177, "intermolecular_energy": -20.279, "internal_energy": -2.911}

$$$$
3prs_ligand
     RDKit          3D

 98101  0  0  0  0  0  0  0  0999 V2000
   -8.6010    1.3510   -0.0300 C   0  0  0  0  0  0  0  0  0  0  0  0
   -9.8160    0.4430   -0.2230 C   0  0  0  0  0  0  0  0  0  0  0  0
  -10.9830    1.2250   -0.8270 C   0  0  0  0  0  0  0  0  0  0  0  0
  -10.2250   -0.1760    1.0880 C   0  0  0  0  0  0  0  0  0  0  0  0
   -9.7140    0.1490    2.2560 N   0  0  0  0  0  0  0  0  0  0  0  0
  -10.3120   -0.5880    3.2750 C   0  0  0  0  0  0  0  0  0  0  0  0
   -9.9020   -0.3770    4.7090 C   0  0  0  0  0  0  0  0  0  0  0  0
   -8.5660   -0.9080    4.9610 N   0  0  0  0  0  0  0  0  0  0  0  0
   -8.4690   -2.3330    5.2500 C   0  0  0  0  0  0  0  0  0  0  0  0
   -7.4940   -0.0870    4.6740 C   0  0  0  0  0  0  0  0  0  0  0  0
   -6.3760   -0.5160    4.4030 O   0  0  0  0  0  0  0  0  0  0  0  0
   -7.7720    1.2530    4.6720 N   0  0  0  0  0  0  0  0  0  0  0  0
   -6.7500    2.2860    4.4520 C   0  0  2  0  0  0  0  0  0  0  0  0
   -6.1280    2.7140    5.8050 C   0  0  0  0  0  0  0  0  0  0  0  0
   -6.7970    3.2880    6.6630 O   0  0  0  0  0  0  0  0  0  0  0  0
   -4.7860    2.4330    5.9530 N   0  0  0  0  0  0  0  0  0  0  0  0
   -4.0070    2.9420    7.0850 C   0  0  1  0  0  0  0  0  0  0  0  0
   -3.0980    1.8450    7.6880 C   0  0  0  0  0  0  0  0  0  0  0  0
   -3.7620    0.8000    8.5620 C   0  0  0  0  0  0  0  0  0  0  0  0
   -3.1270   -0.4250    8.8140 C   0  0  0  0  0  0  0  0  0  0  0  0
   -3.7380   -1.3950    9.6110 C   0  0  0  0  0  0  0  0  0  0  0  0
   -4.9870   -1.1490   10.1750 C   0  0  0  0  0  0  0  0  0  0  0  0
   -5.6180    0.0720    9.9540 C   0  0  0  0  0  0  0  0  0  0  0  0
   -5.0050    1.0450    9.1610 C   0  0  0  0  0  0  0  0  0  0  0  0
   -3.2770    4.2320    6.6560 C   0  0  0  0  0  0  0  0  0  0  0  0
   -3.1860    5.3200    7.7330 C   0  0  2  0  0  0  0  0  0  0  0  0
   -3.3980    6.5930    7.1130 O   0  0  0  0  0  0  0  0  0  0  0  0
   -1.8310    5.2810    8.5080 C   0  0  2  0  0  0  0  0  0  0  0  0
   -2.0420    5.1390   10.0310 C   0  0  0  0  0  0  0  0  0  0  0  0
   -1.7600    3.7500   10.5620 C   0  0  0  0  0  0  0  0  0  0  0  0
   -2.7430    3.0450   11.2680 C   0  0  0  0  0  0  0  0  0  0  0  0
   -2.4800    1.7660   11.7620 C   0  0  0  0  0  0  0  0  0  0  0  0
   -1.2330    1.1790   11.5520 C   0  0  0  0  0  0  0  0  0  0  0  0
   -0.2500    1.8700   10.8480 C   0  0  0  0  0  0  0  0  0  0  0  0
   -0.5110    3.1480   10.3520 C   0  0  0  0  0  0  0  0  0  0  0  0
   -1.0340    6.4730    8.2080 N   0  0  0  0  0  0  0  0  0  0  0  0
    0.3220    6.4970    8.2940 C   0  0  0  0  0  0  0  0  0  0  0  0
    1.0150    5.5610    8.6660 O   0  0  0  0  0  0  0  0  0  0  0  0
    0.7760    7.7040    7.8930 O   0  0  0  0  0  0  0  0  0  0  0  0
    2.1010    7.9870    8.3470 C   0  0  0  0  0  0  0  0  0  0  0  0
    2.1000    9.4190    8.7580 C   0  0  0  0  0  0  0  0  0  0  0  0
    3.1650   10.2180    9.1280 C   0  0  0  0  0  0  0  0  0  0  0  0
    2.8540   11.5240    9.4540 N   0  0  0  0  0  0  0  0  0  0  0  0
    1.5570   11.6990    9.3380 C   0  0  0  0  0  0  0  0  0  0  0  0
    0.6500   10.3340    8.8320 S   0  0  0  0  0  0  0  0  0  0  0  0
   -7.2080    3.4730    3.5660 C   0  0  0  0  0  0  0  0  0  0  0  0
   -8.7130    3.4090    3.2790 C   0  0  0  0  0  0  0  0  0  0  0  0
   -6.4470    3.4870    2.2330 C   0  0  0  0  0  0  0  0  0  0  0  0
  -11.2760   -1.4780    2.8370 C   0  0  0  0  0  0  0  0  0  0  0  0
  -11.4380   -1.3930    1.1360 S   0  0  0  0  0  0  0  0  0  0  0  0
   -8.4145    1.4904    1.0451 H   0  0  0  0  0  0  0  0  0  0  0  0
   -7.7196    0.8885   -0.4981 H   0  0  0  0  0  0  0  0  0  0  0  0
   -8.7949    2.3274   -0.4981 H   0  0  0  0  0  0  0  0  0  0  0  0
   -9.5379   -0.3614   -0.9199 H   0  0  0  0  0  0  0  0  0  0  0  0
  -11.6031    1.6406   -0.0191 H   0  0  0  0  0  0  0  0  0  0  0  0
  -10.5927    2.0446   -1.4482 H   0  0  0  0  0  0  0  0  0  0  0  0
  -11.5927    0.5524   -1.4482 H   0  0  0  0  0  0  0  0  0  0  0  0
   -9.9067    0.7009    4.9284 H   0  0  0  0  0  0  0  0  0  0  0  0
  -10.6152   -0.9084    5.3563 H   0  0  0  0  0  0  0  0  0  0  0  0
   -8.4586   -2.4863    6.3392 H   0  0  0  0  0  0  0  0  0  0  0  0
   -9.3337   -2.8552    4.8145 H   0  0  0  0  0  0  0  0  0  0  0  0
   -7.5415   -2.7332    4.8145 H   0  0  0  0  0  0  0  0  0  0  0  0
   -8.4850    1.5160    5.3330 H   0  0  0  0  0  0  0  0  0  0  0  0
   -5.9556    1.8291    3.8435 H   0  0  0  0  0  0  0  0  0  0  0  0
   -4.2850    2.3200    5.0690 H   0  0  0  0  0  0  0  0  0  0  0  0
   -4.6723    3.2192    7.9159 H   0  0  0  0  0  0  0  0  0  0  0  0
   -2.6148    1.3187    6.8516 H   0  0  0  0  0  0  0  0  0  0  0  0
   -2.4116    2.3821    8.3591 H   0  0  0  0  0  0  0  0  0  0  0  0
   -2.1365   -0.6237    8.3788 H   0  0  0  0  0  0  0  0  0  0  0  0
   -3.2321   -2.3546    9.7935 H   0  0  0  0  0  0  0  0  0  0  0  0
   -5.4738   -1.9174   10.7935 H   0  0  0  0  0  0  0  0  0  0  0  0
   -6.6014    0.2711   10.4048 H   0  0  0  0  0  0  0  0  0  0  0  0
   -5.5030    2.0133    9.0051 H   0  0  0  0  0  0  0  0  0  0  0  0
   -2.2532    3.9608    6.3589 H   0  0  0  0  0  0  0  0  0  0  0  0
   -3.8729    4.6620    5.8374 H   0  0  0  0  0  0  0  0  0  0  0  0
   -3.9655    5.1374    8.4873 H   0  0  0  0  0  0  0  0  0  0  0  0
   -3.6890    7.2280    7.8000 H   0  0  0  0  0  0  0  0  0  0  0  0
   -1.2820    4.3906    8.1679 H   0  0  0  0  0  0  0  0  0  0  0  0
   -1.3726    5.8473   10.5410 H   0  0  0  0  0  0  0  0  0  0  0  0
   -3.1044    5.3463   10.2270 H   0  0  0  0  0  0  0  0  0  0  0  0
   -3.7294    3.5024   11.4345 H   0  0  0  0  0  0  0  0  0  0  0  0
   -3.2574    1.2209   12.3174 H   0  0  0  0  0  0  0  0  0  0  0  0
   -1.0259    0.1715   11.9418 H   0  0  0  0  0  0  0  0  0  0  0  0
    0.7342    1.4075   10.6826 H   0  0  0  0  0  0  0  0  0  0  0  0
    0.2681    3.6867    9.7927 H   0  0  0  0  0  0  0  0  0  0  0  0
   -1.4640    7.2900    7.7980 H   0  0  0  0  0  0  0  0  0  0  0  0
    2.3568    7.3445    9.2024 H   0  0  0  0  0  0  0  0  0  0  0  0
    2.8450    7.7954    7.5597 H   0  0  0  0  0  0  0  0  0  0  0  0
    4.1966    9.8377    9.1609 H   0  0  0  0  0  0  0  0  0  0  0  0
    1.0797   12.6664    9.5533 H   0  0  0  0  0  0  0  0  0  0  0  0
   -6.9883    4.3946    4.1249 H   0  0  0  0  0  0  0  0  0  0  0  0
   -9.2668    3.3855    4.2291 H   0  0  0  0  0  0  0  0  0  0  0  0
   -9.0141    4.2952    2.7010 H   0  0  0  0  0  0  0  0  0  0  0  0
   -8.9377    2.5005    2.7010 H   0  0  0  0  0  0  0  0  0  0  0  0
   -5.3648    3.5069    2.4288 H   0  0  0  0  0  0  0  0  0  0  0  0
   -6.6989    2.5841    1.6575 H   0  0  0  0  0  0  0  0  0  0  0  0
   -6.7320    4.3801    1.6575 H   0  0  0  0  0  0  0  0  0  0  0  0
  -11.8565   -2.1461    3.4902 H   0  0  0  0  0  0  0  0  0  0  0  0
  1  2  1  0
  2  3  1  0
  2  4  1  0
  4  5  2  0
  5  6  1  0
  6  7  1  0
  7  8  1  0
  8  9  1  0
  8 10  1  0
 10 11  2  0
 10 12  1  0
 12 13  1  0
 13 14  1  0
 14 15  2  0
 14 16  1  0
 16 17  1  0
 17 18  1  0
 18 19  1  0
 19 20  2  0
 20 21  1  0
 21 22  2  0
 22 23  1  0
 23 24  2  0
 17 25  1  0
 25 26  1  0
 26 27  1  0
 26 28  1  0
 28 29  1  0
 29 30  1  0
 30 31  2  0
 31 32  1  0
 32 33  2  0
 33 34  1  0
 34 35  2  0
 28 36  1  0
 36 37  1  0
 37 38  2  0
 37 39  1  0
 39 40  1  0
 40 41  1  0
 41 42  2  0
 42 43  1  0
 43 44  2  0
 44 45  1  0
 13 46  1  0
 46 47  1  0
 46 48  1  0
  6 49  2  0
 49 50  1  0
 50  4  1  0
 24 19  1  0
 35 30  1  0
 45 41  1  0
  1 51  1  0
  1 52  1  0
  1 53  1  0
  2 54  1  0
  3 55  1  0
  3 56  1  0
  3 57  1  0
  7 58  1  0
  7 59  1  0
  9 60  1  0
  9 61  1  0
  9 62  1  0
 12 63  1  0
 13 64  1  6
 16 65  1  0
 17 66  1  1
 18 67  1  0
 18 68  1  0
 20 69  1  0
 21 70  1  0
 22 71  1  0
 23 72  1  0
 24 73  1  0
 25 74  1  0
 25 75  1  0
 26 76  1  1
 27 77  1  0
 28 78  1  6
 29 79  1  0
 29 80  1  0
 31 81  1  0
 32 82  1  0
 33 83  1  0
 34 84  1  0
 35 85  1  0
 36 86  1  0
 40 87  1  0
 40 88  1  0
 42 89  1  0
 44 90  1  0
 46 91  1  0
 47 92  1  0
 47 93  1  0
 47 94  1  0
 48 95  1  0
 48 96  1  0
 48 97  1  0
 49 98  1  0
M  END
>  <meeko>  (3) 
{"is_sidechain": [false], "free_energy": -8.699, "intermolecular_energy": -17.719, "internal_energy": -4.447}

$$$$
3prs_ligand
     RDKit          3D

 98101  0  0  0  0  0  0  0  0999 V2000
    3.1370   11.5730   11.3050 C   0  0  0  0  0  0  0  0  0  0  0  0
    2.8980   11.5710    9.7950 C   0  0  0  0  0  0  0  0  0  0  0  0
    1.9530   12.7070    9.3980 C   0  0  0  0  0  0  0  0  0  0  0  0
    2.3370   10.2460    9.3500 C   0  0  0  0  0  0  0  0  0  0  0  0
    2.9650    9.0950    9.4660 N   0  0  0  0  0  0  0  0  0  0  0  0
    2.1780    8.0550    8.9790 C   0  0  0  0  0  0  0  0  0  0  0  0
    2.6780    6.6360    9.0220 C   0  0  0  0  0  0  0  0  0  0  0  0
    1.9160    5.8340    9.9750 N   0  0  0  0  0  0  0  0  0  0  0  0
    1.9900    6.2300   11.3750 C   0  0  0  0  0  0  0  0  0  0  0  0
    1.0090    4.9320    9.4580 C   0  0  0  0  0  0  0  0  0  0  0  0
    1.1550    4.3840    8.3680 O   0  0  0  0  0  0  0  0  0  0  0  0
   -0.0600    4.6520   10.2670 N   0  0  0  0  0  0  0  0  0  0  0  0
   -1.1630    3.7670    9.8660 C   0  0  2  0  0  0  0  0  0  0  0  0
   -2.2410    4.5750    9.1020 C   0  0  0  0  0  0  0  0  0  0  0  0
   -2.7430    5.5880    9.5860 O   0  0  0  0  0  0  0  0  0  0  0  0
   -2.6070    4.0600    7.8760 N   0  0  0  0  0  0  0  0  0  0  0  0
   -3.7440    4.5910    7.1190 C   0  0  1  0  0  0  0  0  0  0  0  0
   -3.2810    5.5560    6.0010 C   0  0  0  0  0  0  0  0  0  0  0  0
   -3.3910    7.0400    6.2800 C   0  0  0  0  0  0  0  0  0  0  0  0
   -2.2400    7.8100    6.5030 C   0  0  0  0  0  0  0  0  0  0  0  0
   -2.3340    9.1780    6.7690 C   0  0  0  0  0  0  0  0  0  0  0  0
   -3.5820    9.7960    6.8060 C   0  0  0  0  0  0  0  0  0  0  0  0
   -4.7320    9.0490    6.5630 C   0  0  0  0  0  0  0  0  0  0  0  0
   -4.6360    7.6820    6.2910 C   0  0  0  0  0  0  0  0  0  0  0  0
   -4.6270    3.4180    6.6460 C   0  0  0  0  0  0  0  0  0  0  0  0
   -3.9040    2.0730    6.4990 C   0  0  2  0  0  0  0  0  0  0  0  0
   -3.1580    2.0890    5.2780 O   0  0  0  0  0  0  0  0  0  0  0  0
   -4.8830    0.8580    6.5540 C   0  0  2  0  0  0  0  0  0  0  0  0
   -4.1440   -0.4630    6.8620 C   0  0  0  0  0  0  0  0  0  0  0  0
   -4.3960   -0.9940    8.2570 C   0  0  0  0  0  0  0  0  0  0  0  0
   -5.6610   -1.4770    8.6170 C   0  0  0  0  0  0  0  0  0  0  0  0
   -5.8940   -1.9610    9.9050 C   0  0  0  0  0  0  0  0  0  0  0  0
   -4.8640   -1.9710   10.8440 C   0  0  0  0  0  0  0  0  0  0  0  0
   -3.6010   -1.4980   10.4960 C   0  0  0  0  0  0  0  0  0  0  0  0
   -3.3660   -1.0140    9.2080 C   0  0  0  0  0  0  0  0  0  0  0  0
   -5.6340    0.7480    5.3010 N   0  0  0  0  0  0  0  0  0  0  0  0
   -6.9890    0.6720    5.2560 C   0  0  0  0  0  0  0  0  0  0  0  0
   -7.7200    0.6420    6.2360 O   0  0  0  0  0  0  0  0  0  0  0  0
   -7.3960    0.6480    3.9690 O   0  0  0  0  0  0  0  0  0  0  0  0
   -8.6080    1.3720    3.7460 C   0  0  0  0  0  0  0  0  0  0  0  0
   -8.2050    2.6890    3.1780 C   0  0  0  0  0  0  0  0  0  0  0  0
   -7.4210    3.6760    3.7430 C   0  0  0  0  0  0  0  0  0  0  0  0
   -7.2120    4.7990    2.9650 N   0  0  0  0  0  0  0  0  0  0  0  0
   -7.8460    4.6540    1.8230 C   0  0  0  0  0  0  0  0  0  0  0  0
   -8.7090    3.1870    1.6150 S   0  0  0  0  0  0  0  0  0  0  0  0
   -1.7290    2.8810   11.0040 C   0  0  0  0  0  0  0  0  0  0  0  0
   -0.7730    1.7310   11.3470 C   0  0  0  0  0  0  0  0  0  0  0  0
   -3.0930    2.2940   10.6170 C   0  0  0  0  0  0  0  0  0  0  0  0
    0.9480    8.4600    8.4900 C   0  0  0  0  0  0  0  0  0  0  0  0
    0.7740   10.1560    8.6380 S   0  0  0  0  0  0  0  0  0  0  0  0
    2.1700   11.5649   11.8293 H   0  0  0  0  0  0  0  0  0  0  0  0
    3.7140   10.6797   11.5861 H   0  0  0  0  0  0  0  0  0  0  0  0
    3.6990   12.4759   11.5861 H   0  0  0  0  0  0  0  0  0  0  0  0
    3.8642   11.7286    9.2935 H   0  0  0  0  0  0  0  0  0  0  0  0
    1.5545   13.1861   10.3044 H   0  0  0  0  0  0  0  0  0  0  0  0
    2.5031   13.4502    8.8021 H   0  0  0  0  0  0  0  0  0  0  0  0
    1.1221   12.3014    8.8021 H   0  0  0  0  0  0  0  0  0  0  0  0
    2.5806    6.1912    8.0207 H   0  0  0  0  0  0  0  0  0  0  0  0
    3.7305    6.6481    9.3416 H   0  0  0  0  0  0  0  0  0  0  0  0
    1.8256    5.3500   12.0142 H   0  0  0  0  0  0  0  0  0  0  0  0
    2.9830    6.6545   11.5840 H   0  0  0  0  0  0  0  0  0  0  0  0
    1.2173    6.9845   11.5840 H   0  0  0  0  0  0  0  0  0  0  0  0
   -0.3460    5.4320   10.8360 H   0  0  0  0  0  0  0  0  0  0  0  0
   -0.7437    3.0228    9.1729 H   0  0  0  0  0  0  0  0  0  0  0  0
   -2.4170    3.0600    7.7720 H   0  0  0  0  0  0  0  0  0  0  0  0
   -4.3762    5.2192    7.7637 H   0  0  0  0  0  0  0  0  0  0  0  0
   -2.2240    5.3361    5.7905 H   0  0  0  0  0  0  0  0  0  0  0  0
   -3.9705    5.3725    5.1638 H   0  0  0  0  0  0  0  0  0  0  0  0
   -1.2507    7.3304    6.4680 H   0  0  0  0  0  0  0  0  0  0  0  0
   -1.4228    9.7672    6.9492 H   0  0  0  0  0  0  0  0  0  0  0  0
   -3.6589   10.8709    7.0265 H   0  0  0  0  0  0  0  0  0  0  0  0
   -5.7179    9.5363    6.5853 H   0  0  0  0  0  0  0  0  0  0  0  0
   -5.5482    7.1034    6.0832 H   0  0  0  0  0  0  0  0  0  0  0  0
   -5.4404    3.2890    7.3752 H   0  0  0  0  0  0  0  0  0  0  0  0
   -4.9778    3.6873    5.6388 H   0  0  0  0  0  0  0  0  0  0  0  0
   -3.2222    1.9433    7.3524 H   0  0  0  0  0  0  0  0  0  0  0  0
   -3.1870    2.9960    4.9070 H   0  0  0  0  0  0  0  0  0  0  0  0
   -5.5894    1.0392    7.3775 H   0  0  0  0  0  0  0  0  0  0  0  0
   -4.4740   -1.2219    6.1373 H   0  0  0  0  0  0  0  0  0  0  0  0
   -3.0669   -0.2515    6.7898 H   0  0  0  0  0  0  0  0  0  0  0  0
   -6.4766   -1.4747    7.8789 H   0  0  0  0  0  0  0  0  0  0  0  0
   -6.8914   -2.3349   10.1794 H   0  0  0  0  0  0  0  0  0  0  0  0
   -5.0485   -2.3522   11.8592 H   0  0  0  0  0  0  0  0  0  0  0  0
   -2.7880   -1.5059   11.2369 H   0  0  0  0  0  0  0  0  0  0  0  0
   -2.3655   -0.6456    8.9372 H   0  0  0  0  0  0  0  0  0  0  0  0
   -5.1690    0.8560    4.4110 H   0  0  0  0  0  0  0  0  0  0  0  0
   -9.2507    0.8308    3.0360 H   0  0  0  0  0  0  0  0  0  0  0  0
   -9.1797    1.4946    4.6777 H   0  0  0  0  0  0  0  0  0  0  0  0
   -6.9897    3.5745    4.7498 H   0  0  0  0  0  0  0  0  0  0  0  0
   -7.8242    5.4304    1.0441 H   0  0  0  0  0  0  0  0  0  0  0  0
   -1.8440    3.5283   11.8859 H   0  0  0  0  0  0  0  0  0  0  0  0
   -0.6927    1.6345   12.4398 H   0  0  0  0  0  0  0  0  0  0  0  0
   -1.1611    0.7929   10.9235 H   0  0  0  0  0  0  0  0  0  0  0  0
    0.2202    1.9412   10.9235 H   0  0  0  0  0  0  0  0  0  0  0  0
   -3.6592    2.0504   11.5281 H   0  0  0  0  0  0  0  0  0  0  0  0
   -3.6538    3.0304   10.0227 H   0  0  0  0  0  0  0  0  0  0  0  0
   -2.9438    1.3804   10.0227 H   0  0  0  0  0  0  0  0  0  0  0  0
    0.1890    7.7863    8.0658 H   0  0  0  0  0  0  0  0  0  0  0  0
  1  2  1  0
  2  3  1  0
  2  4  1  0
  4  5  2  0
  5  6  1  0
  6  7  1  0
  7  8  1  0
  8  9  1  0
  8 10  1  0
 10 11  2  0
 10 12  1  0
 12 13  1  0
 13 14  1  0
 14 15  2  0
 14 16  1  0
 16 17  1  0
 17 18  1  0
 18 19  1  0
 19 20  2  0
 20 21  1  0
 21 22  2  0
 22 23  1  0
 23 24  2  0
 17 25  1  0
 25 26  1  0
 26 27  1  0
 26 28  1  0
 28 29  1  0
 29 30  1  0
 30 31  2  0
 31 32  1  0
 32 33  2  0
 33 34  1  0
 34 35  2  0
 28 36  1  0
 36 37  1  0
 37 38  2  0
 37 39  1  0
 39 40  1  0
 40 41  1  0
 41 42  2  0
 42 43  1  0
 43 44  2  0
 44 45  1  0
 13 46  1  0
 46 47  1  0
 46 48  1  0
  6 49  2  0
 49 50  1  0
 50  4  1  0
 24 19  1  0
 35 30  1  0
 45 41  1  0
  1 51  1  0
  1 52  1  0
  1 53  1  0
  2 54  1  0
  3 55  1  0
  3 56  1  0
  3 57  1  0
  7 58  1  0
  7 59  1  0
  9 60  1  0
  9 61  1  0
  9 62  1  0
 12 63  1  0
 13 64  1  6
 16 65  1  0
 17 66  1  1
 18 67  1  0
 18 68  1  0
 20 69  1  0
 21 70  1  0
 22 71  1  0
 23 72  1  0
 24 73  1  0
 25 74  1  0
 25 75  1  0
 26 76  1  1
 27 77  1  0
 28 78  1  1
 29 79  1  0
 29 80  1  0
 31 81  1  0
 32 82  1  0
 33 83  1  0
 34 84  1  0
 35 85  1  0
 36 86  1  0
 40 87  1  0
 40 88  1  0
 42 89  1  0
 44 90  1  0
 46 91  1  0
 47 92  1  0
 47 93  1  0
 47 94  1  0
 48 95  1  0
 48 96  1  0
 48 97  1  0
 49 98  1  0
M  END
>  <meeko>  (4) 
{"is_sidechain": [false], "free_energy": -8.643, "intermolecular_energy": -18.536, "internal_energy": -3.509}

$$$$
3prs_ligand
     RDKit          3D

 98101  0  0  0  0  0  0  0  0999 V2000
   -3.1750   -0.0390    7.2930 C   0  0  0  0  0  0  0  0  0  0  0  0
   -3.0690   -0.4690    8.7570 C   0  0  0  0  0  0  0  0  0  0  0  0
   -4.3120   -1.2540    9.1790 C   0  0  0  0  0  0  0  0  0  0  0  0
   -2.8810    0.7320    9.6470 C   0  0  0  0  0  0  0  0  0  0  0  0
   -1.7820    1.4530    9.7020 N   0  0  0  0  0  0  0  0  0  0  0  0
   -1.9280    2.5010   10.6070 C   0  0  0  0  0  0  0  0  0  0  0  0
   -0.8040    3.4770   10.8300 C   0  0  0  0  0  0  0  0  0  0  0  0
   -0.6070    4.3330    9.6630 N   0  0  0  0  0  0  0  0  0  0  0  0
    0.6880    4.2550    9.0010 C   0  0  0  0  0  0  0  0  0  0  0  0
   -1.7230    4.9570    9.1420 C   0  0  0  0  0  0  0  0  0  0  0  0
   -2.4430    5.7020    9.8010 O   0  0  0  0  0  0  0  0  0  0  0  0
   -1.9550    4.7210    7.8140 N   0  0  0  0  0  0  0  0  0  0  0  0
   -3.1260    5.2430    7.0960 C   0  0  2  0  0  0  0  0  0  0  0  0
   -3.8520    4.0920    6.3560 C   0  0  0  0  0  0  0  0  0  0  0  0
   -3.2970    3.4580    5.4600 O   0  0  0  0  0  0  0  0  0  0  0  0
   -5.1530    3.8630    6.7520 N   0  0  0  0  0  0  0  0  0  0  0  0
   -6.0360    2.9480    6.0250 C   0  0  1  0  0  0  0  0  0  0  0  0
   -6.9500    2.1530    6.9900 C   0  0  0  0  0  0  0  0  0  0  0  0
   -6.9530    0.6450    6.8530 C   0  0  0  0  0  0  0  0  0  0  0  0
   -7.6240   -0.1540    7.7910 C   0  0  0  0  0  0  0  0  0  0  0  0
   -7.6240   -1.5460    7.6750 C   0  0  0  0  0  0  0  0  0  0  0  0
   -6.9620   -2.1570    6.6130 C   0  0  0  0  0  0  0  0  0  0  0  0
   -6.3130   -1.3760    5.6610 C   0  0  0  0  0  0  0  0  0  0  0  0
   -6.3180    0.0160    5.7740 C   0  0  0  0  0  0  0  0  0  0  0  0
   -6.7760    3.7310    4.9210 C   0  0  0  0  0  0  0  0  0  0  0  0
   -6.3970    3.3500    3.4840 C   0  0  2  0  0  0  0  0  0  0  0  0
   -5.1780    4.0180    3.1440 O   0  0  0  0  0  0  0  0  0  0  0  0
   -7.5300    3.6740    2.4610 C   0  0  2  0  0  0  0  0  0  0  0  0
   -7.4890    2.7320    1.2380 C   0  0  0  0  0  0  0  0  0  0  0  0
   -8.8550    2.3230    0.7320 C   0  0  0  0  0  0  0  0  0  0  0  0
  -10.0160    2.8610    1.3050 C   0  0  0  0  0  0  0  0  0  0  0  0
  -11.2760    2.4790    0.8420 C   0  0  0  0  0  0  0  0  0  0  0  0
  -11.3890    1.5590   -0.1990 C   0  0  0  0  0  0  0  0  0  0  0  0
  -10.2420    1.0220   -0.7790 C   0  0  0  0  0  0  0  0  0  0  0  0
   -8.9810    1.4030   -0.3190 C   0  0  0  0  0  0  0  0  0  0  0  0
   -7.4530    5.0730    2.0350 N   0  0  0  0  0  0  0  0  0  0  0  0
   -8.3590    6.0120    2.4140 C   0  0  0  0  0  0  0  0  0  0  0  0
   -9.3460    5.7930    3.1010 O   0  0  0  0  0  0  0  0  0  0  0  0
   -7.9890    7.2160    1.9250 O   0  0  0  0  0  0  0  0  0  0  0  0
   -8.7960    8.2920    2.4070 C   0  0  0  0  0  0  0  0  0  0  0  0
   -7.8540    9.3970    2.7440 C   0  0  0  0  0  0  0  0  0  0  0  0
   -7.6120   10.5710    2.0580 C   0  0  0  0  0  0  0  0  0  0  0  0
   -6.6780   11.4170    2.6240 N   0  0  0  0  0  0  0  0  0  0  0  0
   -6.2150   10.8710    3.7270 C   0  0  0  0  0  0  0  0  0  0  0  0
   -6.8670    9.3420    4.1460 S   0  0  0  0  0  0  0  0  0  0  0  0
   -2.8430    6.4830    6.2100 C   0  0  0  0  0  0  0  0  0  0  0  0
   -2.2370    7.6290    7.0280 C   0  0  0  0  0  0  0  0  0  0  0  0
   -4.1290    6.9790    5.5340 C   0  0  0  0  0  0  0  0  0  0  0  0
   -3.1620    2.5390   11.2320 C   0  0  0  0  0  0  0  0  0  0  0  0
   -4.1490    1.2530   10.6840 S   0  0  0  0  0  0  0  0  0  0  0  0
   -3.4380    1.0279    7.2423 H   0  0  0  0  0  0  0  0  0  0  0  0
   -2.2096   -0.2029    6.7919 H   0  0  0  0  0  0  0  0  0  0  0  0
   -3.9537   -0.6328    6.7919 H   0  0  0  0  0  0  0  0  0  0  0  0
   -2.1914   -1.1239    8.8619 H   0  0  0  0  0  0  0  0  0  0  0  0
   -4.3680   -1.2894   10.2770 H   0  0  0  0  0  0  0  0  0  0  0  0
   -5.2105   -0.7592    8.7817 H   0  0  0  0  0  0  0  0  0  0  0  0
   -4.2514   -2.2780    8.7817 H   0  0  0  0  0  0  0  0  0  0  0  0
   -1.0428    4.1062   11.7001 H   0  0  0  0  0  0  0  0  0  0  0  0
    0.1212    2.9081   11.0043 H   0  0  0  0  0  0  0  0  0  0  0  0
    1.4845    4.2070    9.7581 H   0  0  0  0  0  0  0  0  0  0  0  0
    0.7248    3.3530    8.3725 H   0  0  0  0  0  0  0  0  0  0  0  0
    0.8328    5.1461    8.3725 H   0  0  0  0  0  0  0  0  0  0  0  0
   -1.6650    3.8040    7.5140 H   0  0  0  0  0  0  0  0  0  0  0  0
   -3.8154    5.6456    7.8527 H   0  0  0  0  0  0  0  0  0  0  0  0
   -5.5990    4.6670    7.2000 H   0  0  0  0  0  0  0  0  0  0  0  0
   -5.4483    2.1692    5.5170 H   0  0  0  0  0  0  0  0  0  0  0  0
   -6.6350    2.3917    8.0166 H   0  0  0  0  0  0  0  0  0  0  0  0
   -7.9734    2.4638    6.7329 H   0  0  0  0  0  0  0  0  0  0  0  0
   -8.1565    0.3215    8.6279 H   0  0  0  0  0  0  0  0  0  0  0  0
   -8.1472   -2.1599    8.4229 H   0  0  0  0  0  0  0  0  0  0  0  0
   -6.9520   -3.2536    6.5267 H   0  0  0  0  0  0  0  0  0  0  0  0
   -5.7950   -1.8563    4.8178 H   0  0  0  0  0  0  0  0  0  0  0  0
   -5.8177    0.6255    5.0071 H   0  0  0  0  0  0  0  0  0  0  0  0
   -7.8550    3.5575    5.0457 H   0  0  0  0  0  0  0  0  0  0  0  0
   -6.4830    4.7840    5.0450 H   0  0  0  0  0  0  0  0  0  0  0  0
   -6.2539    2.2606    3.4326 H   0  0  0  0  0  0  0  0  0  0  0  0
   -4.7990    3.5870    2.3500 H   0  0  0  0  0  0  0  0  0  0  0  0
   -8.4908    3.5097    2.9709 H   0  0  0  0  0  0  0  0  0  0  0  0
   -6.9575    3.2455    0.4232 H   0  0  0  0  0  0  0  0  0  0  0  0
   -6.9800    1.8119    1.5611 H   0  0  0  0  0  0  0  0  0  0  0  0
   -9.9332    3.5893    2.1252 H   0  0  0  0  0  0  0  0  0  0  0  0
  -12.1813    2.9046    1.2993 H   0  0  0  0  0  0  0  0  0  0  0  0
  -12.3826    1.2574   -0.5620 H   0  0  0  0  0  0  0  0  0  0  0  0
  -10.3305    0.2964   -1.6010 H   0  0  0  0  0  0  0  0  0  0  0  0
   -8.0790    0.9786   -0.7841 H   0  0  0  0  0  0  0  0  0  0  0  0
   -6.6400    5.4180    1.5450 H   0  0  0  0  0  0  0  0  0  0  0  0
   -9.5030    8.6169    1.6294 H   0  0  0  0  0  0  0  0  0  0  0  0
   -9.3889    7.9886    3.2825 H   0  0  0  0  0  0  0  0  0  0  0  0
   -8.1305   10.8170    1.1196 H   0  0  0  0  0  0  0  0  0  0  0  0
   -5.4527   11.3672    4.3456 H   0  0  0  0  0  0  0  0  0  0  0  0
   -2.1208    6.1701    5.4416 H   0  0  0  0  0  0  0  0  0  0  0  0
   -2.3508    7.4139    8.1007 H   0  0  0  0  0  0  0  0  0  0  0  0
   -1.1687    7.7279    6.7851 H   0  0  0  0  0  0  0  0  0  0  0  0
   -2.7567    8.5676    6.7851 H   0  0  0  0  0  0  0  0  0  0  0  0
   -4.8622    7.2618    6.3037 H   0  0  0  0  0  0  0  0  0  0  0  0
   -3.8999    7.8533    4.9070 H   0  0  0  0  0  0  0  0  0  0  0  0
   -4.5463    6.1773    4.9070 H   0  0  0  0  0  0  0  0  0  0  0  0
   -3.4657    3.2900   11.9762 H   0  0  0  0  0  0  0  0  0  0  0  0
  1  2  1  0
  2  3  1  0
  2  4  1  0
  4  5  2  0
  5  6  1  0
  6  7  1  0
  7  8  1  0
  8  9  1  0
  8 10  1  0
 10 11  2  0
 10 12  1  0
 12 13  1  0
 13 14  1  0
 14 15  2  0
 14 16  1  0
 16 17  1  0
 17 18  1  0
 18 19  1  0
 19 20  2  0
 20 21  1  0
 21 22  2  0
 22 23  1  0
 23 24  2  0
 17 25  1  0
 25 26  1  0
 26 27  1  0
 26 28  1  0
 28 29  1  0
 29 30  1  0
 30 31  2  0
 31 32  1  0
 32 33  2  0
 33 34  1  0
 34 35  2  0
 28 36  1  0
 36 37  1  0
 37 38  2  0
 37 39  1  0
 39 40  1  0
 40 41  1  0
 41 42  2  0
 42 43  1  0
 43 44  2  0
 44 45  1  0
 13 46  1  0
 46 47  1  0
 46 48  1  0
  6 49  2  0
 49 50  1  0
 50  4  1  0
 24 19  1  0
 35 30  1  0
 45 41  1  0
  1 51  1  0
  1 52  1  0
  1 53  1  0
  2 54  1  0
  3 55  1  0
  3 56  1  0
  3 57  1  0
  7 58  1  0
  7 59  1  0
  9 60  1  0
  9 61  1  0
  9 62  1  0
 12 63  1  0
 13 64  1  1
 16 65  1  0
 17 66  1  6
 18 67  1  0
 18 68  1  0
 20 69  1  0
 21 70  1  0
 22 71  1  0
 23 72  1  0
 24 73  1  0
 25 74  1  0
 25 75  1  0
 26 76  1  1
 27 77  1  0
 28 78  1  1
 29 79  1  0
 29 80  1  0
 31 81  1  0
 32 82  1  0
 33 83  1  0
 34 84  1  0
 35 85  1  0
 36 86  1  0
 40 87  1  0
 40 88  1  0
 42 89  1  0
 44 90  1  0
 46 91  1  0
 47 92  1  0
 47 93  1  0
 47 94  1  0
 48 95  1  0
 48 96  1  0
 48 97  1  0
 49 98  1  0
M  END
>  <meeko>  (5) 
{"is_sidechain": [false], "free_energy": -8.518, "intermolecular_energy": -17.748, "internal_energy": -4.03}

$$$$
3prs_ligand
     RDKit          3D

 98101  0  0  0  0  0  0  0  0999 V2000
   -3.6220   -1.3740   10.3620 C   0  0  0  0  0  0  0  0  0  0  0  0
   -4.9570   -0.6330   10.2800 C   0  0  0  0  0  0  0  0  0  0  0  0
   -6.1230   -1.6240   10.2630 C   0  0  0  0  0  0  0  0  0  0  0  0
   -5.0000    0.2440    9.0550 C   0  0  0  0  0  0  0  0  0  0  0  0
   -3.9370    0.6530    8.3970 N   0  0  0  0  0  0  0  0  0  0  0  0
   -4.3080    1.4340    7.3050 C   0  0  0  0  0  0  0  0  0  0  0  0
   -3.2610    2.0050    6.3860 C   0  0  0  0  0  0  0  0  0  0  0  0
   -3.2600    3.4650    6.4260 N   0  0  0  0  0  0  0  0  0  0  0  0
   -3.8210    4.1540    5.2720 C   0  0  0  0  0  0  0  0  0  0  0  0
   -2.9590    4.0640    7.6330 C   0  0  0  0  0  0  0  0  0  0  0  0
   -3.3570    5.1840    7.9430 O   0  0  0  0  0  0  0  0  0  0  0  0
   -2.2100    3.3030    8.4900 N   0  0  0  0  0  0  0  0  0  0  0  0
   -1.7340    3.7900    9.7920 C   0  0  2  0  0  0  0  0  0  0  0  0
   -0.3860    4.5330    9.6210 C   0  0  0  0  0  0  0  0  0  0  0  0
    0.6880    3.9380    9.7090 O   0  0  0  0  0  0  0  0  0  0  0  0
   -0.4830    5.8910    9.3990 N   0  0  0  0  0  0  0  0  0  0  0  0
    0.6920    6.7650    9.4090 C   0  0  1  0  0  0  0  0  0  0  0  0
    0.5930    7.8640    8.3230 C   0  0  0  0  0  0  0  0  0  0  0  0
    1.3070    9.1710    8.5950 C   0  0  0  0  0  0  0  0  0  0  0  0
    0.5790   10.3560    8.7780 C   0  0  0  0  0  0  0  0  0  0  0  0
    1.2310   11.5660    9.0210 C   0  0  0  0  0  0  0  0  0  0  0  0
    2.6210   11.6070    9.0950 C   0  0  0  0  0  0  0  0  0  0  0  0
    3.3560   10.4340    8.9410 C   0  0  0  0  0  0  0  0  0  0  0  0
    2.7030    9.2230    8.7030 C   0  0  0  0  0  0  0  0  0  0  0  0
    0.9220    7.2840   10.8440 C   0  0  0  0  0  0  0  0  0  0  0  0
    2.3260    7.0350   11.4110 C   0  0  2  0  0  0  0  0  0  0  0  0
    2.4390    5.6500   11.7520 O   0  0  0  0  0  0  0  0  0  0  0  0
    2.6480    7.9520   12.6330 C   0  0  2  0  0  0  0  0  0  0  0  0
    2.3220    7.2590   13.9750 C   0  0  0  0  0  0  0  0  0  0  0  0
    3.2370    7.6630   15.1110 C   0  0  0  0  0  0  0  0  0  0  0  0
    4.5920    7.3030   15.0970 C   0  0  0  0  0  0  0  0  0  0  0  0
    5.4340    7.6720   16.1470 C   0  0  0  0  0  0  0  0  0  0  0  0
    4.9310    8.4060   17.2200 C   0  0  0  0  0  0  0  0  0  0  0  0
    3.5880    8.7730   17.2420 C   0  0  0  0  0  0  0  0  0  0  0  0
    2.7440    8.4070   16.1920 C   0  0  0  0  0  0  0  0  0  0  0  0
    1.9300    9.2240   12.5240 N   0  0  0  0  0  0  0  0  0  0  0  0
    2.5080   10.4240   12.7890 C   0  0  0  0  0  0  0  0  0  0  0  0
    3.6550   10.5750   13.1840 O   0  0  0  0  0  0  0  0  0  0  0  0
    1.6250   11.4140   12.5360 O   0  0  0  0  0  0  0  0  0  0  0  0
    0.2690   10.9640   12.4990 C   0  0  0  0  0  0  0  0  0  0  0  0
   -0.5710   12.1530   12.8170 C   0  0  0  0  0  0  0  0  0  0  0  0
   -1.7040   12.2310   13.6040 C   0  0  0  0  0  0  0  0  0  0  0  0
   -2.2700   13.4860   13.7220 N   0  0  0  0  0  0  0  0  0  0  0  0
   -1.5660   14.3440   13.0170 C   0  0  0  0  0  0  0  0  0  0  0  0
   -0.2040   13.7080   12.1910 S   0  0  0  0  0  0  0  0  0  0  0  0
   -1.7290    2.7260   10.9190 C   0  0  0  0  0  0  0  0  0  0  0  0
   -1.1350    1.3990   10.4330 C   0  0  0  0  0  0  0  0  0  0  0  0
   -3.1490    2.4740   11.4420 C   0  0  0  0  0  0  0  0  0  0  0  0
   -5.6750    1.6030    7.1700 C   0  0  0  0  0  0  0  0  0  0  0  0
   -6.5050    0.7790    8.4190 S   0  0  0  0  0  0  0  0  0  0  0  0
   -3.3505   -1.5247   11.4173 H   0  0  0  0  0  0  0  0  0  0  0  0
   -3.7134   -2.3505    9.8639 H   0  0  0  0  0  0  0  0  0  0  0  0
   -2.8417   -0.7799    9.8639 H   0  0  0  0  0  0  0  0  0  0  0  0
   -5.0527    0.0040   11.1717 H   0  0  0  0  0  0  0  0  0  0  0  0
   -6.4111   -1.8689   11.2960 H   0  0  0  0  0  0  0  0  0  0  0  0
   -6.9796   -1.1734    9.7404 H   0  0  0  0  0  0  0  0  0  0  0  0
   -5.8163   -2.5421    9.7404 H   0  0  0  0  0  0  0  0  0  0  0  0
   -2.2720    1.6372    6.6969 H   0  0  0  0  0  0  0  0  0  0  0  0
   -3.4891    1.6857    5.3584 H   0  0  0  0  0  0  0  0  0  0  0  0
   -4.4811    4.9647    5.6142 H   0  0  0  0  0  0  0  0  0  0  0  0
   -3.0063    4.5759    4.6651 H   0  0  0  0  0  0  0  0  0  0  0  0
   -4.3993    3.4418    4.6651 H   0  0  0  0  0  0  0  0  0  0  0  0
   -1.5630    2.6900    8.0200 H   0  0  0  0  0  0  0  0  0  0  0  0
   -2.4758    4.5163   10.1556 H   0  0  0  0  0  0  0  0  0  0  0  0
   -1.3610    6.3030    9.7230 H   0  0  0  0  0  0  0  0  0  0  0  0
    1.5938    6.2001    9.1304 H   0  0  0  0  0  0  0  0  0  0  0  0
    1.0068    7.4481    7.3925 H   0  0  0  0  0  0  0  0  0  0  0  0
   -0.4743    8.1269    8.2818 H   0  0  0  0  0  0  0  0  0  0  0  0
   -0.5196   10.3314    8.7294 H   0  0  0  0  0  0  0  0  0  0  0  0
    0.6463   12.4881    9.1542 H   0  0  0  0  0  0  0  0  0  0  0  0
    3.1365   12.5621    9.2744 H   0  0  0  0  0  0  0  0  0  0  0  0
    4.4537   10.4617    9.0070 H   0  0  0  0  0  0  0  0  0  0  0  0
    3.2912    8.2993    8.5991 H   0  0  0  0  0  0  0  0  0  0  0  0
    0.7413    8.3691   10.8466 H   0  0  0  0  0  0  0  0  0  0  0  0
    0.2287    6.7219   11.4870 H   0  0  0  0  0  0  0  0  0  0  0  0
    3.0692    7.2928   10.6421 H   0  0  0  0  0  0  0  0  0  0  0  0
    2.0230    5.5110   12.6280 H   0  0  0  0  0  0  0  0  0  0  0  0
    3.7297    8.1515   12.6193 H   0  0  0  0  0  0  0  0  0  0  0  0
    1.2891    7.5138   14.2546 H   0  0  0  0  0  0  0  0  0  0  0  0
    2.4628    6.1792   13.8197 H   0  0  0  0  0  0  0  0  0  0  0  0
    4.9945    6.7253   14.2519 H   0  0  0  0  0  0  0  0  0  0  0  0
    6.4953    7.3834   16.1279 H   0  0  0  0  0  0  0  0  0  0  0  0
    5.5944    8.6950   18.0485 H   0  0  0  0  0  0  0  0  0  0  0  0
    3.1912    9.3526   18.0886 H   0  0  0  0  0  0  0  0  0  0  0  0
    1.6852    8.7044   16.2130 H   0  0  0  0  0  0  0  0  0  0  0  0
    1.0060    9.2610   12.1180 H   0  0  0  0  0  0  0  0  0  0  0  0
    0.0220   10.5788   11.4987 H   0  0  0  0  0  0  0  0  0  0  0  0
    0.0972   10.1478   13.2162 H   0  0  0  0  0  0  0  0  0  0  0  0
   -2.1290   11.3489   14.1054 H   0  0  0  0  0  0  0  0  0  0  0  0
   -1.8352   15.4090   12.9602 H   0  0  0  0  0  0  0  0  0  0  0  0
   -1.1032    3.1230   11.7319 H   0  0  0  0  0  0  0  0  0  0  0  0
   -0.8586    0.7815   11.3003 H   0  0  0  0  0  0  0  0  0  0  0  0
   -1.8799    0.8647    9.8250 H   0  0  0  0  0  0  0  0  0  0  0  0
   -0.2403    1.5986    9.8250 H   0  0  0  0  0  0  0  0  0  0  0  0
   -3.1403    2.4755   12.5420 H   0  0  0  0  0  0  0  0  0  0  0  0
   -3.8194    3.2672   11.0795 H   0  0  0  0  0  0  0  0  0  0  0  0
   -3.5055    1.4986   11.0795 H   0  0  0  0  0  0  0  0  0  0  0  0
   -6.1596    2.1850    6.3722 H   0  0  0  0  0  0  0  0  0  0  0  0
  1  2  1  0
  2  3  1  0
  2  4  1  0
  4  5  2  0
  5  6  1  0
  6  7  1  0
  7  8  1  0
  8  9  1  0
  8 10  1  0
 10 11  2  0
 10 12  1  0
 12 13  1  0
 13 14  1  0
 14 15  2  0
 14 16  1  0
 16 17  1  0
 17 18  1  0
 18 19  1  0
 19 20  2  0
 20 21  1  0
 21 22  2  0
 22 23  1  0
 23 24  2  0
 17 25  1  0
 25 26  1  0
 26 27  1  0
 26 28  1  0
 28 29  1  0
 29 30  1  0
 30 31  2  0
 31 32  1  0
 32 33  2  0
 33 34  1  0
 34 35  2  0
 28 36  1  0
 36 37  1  0
 37 38  2  0
 37 39  1  0
 39 40  1  0
 40 41  1  0
 41 42  2  0
 42 43  1  0
 43 44  2  0
 44 45  1  0
 13 46  1  0
 46 47  1  0
 46 48  1  0
  6 49  2  0
 49 50  1  0
 50  4  1  0
 24 19  1  0
 35 30  1  0
 45 41  1  0
  1 51  1  0
  1 52  1  0
  1 53  1  0
  2 54  1  0
  3 55  1  0
  3 56  1  0
  3 57  1  0
  7 58  1  0
  7 59  1  0
  9 60  1  0
  9 61  1  0
  9 62  1  0
 12 63  1  0
 13 64  1  1
 16 65  1  0
 17 66  1  6
 18 67  1  0
 18 68  1  0
 20 69  1  0
 21 70  1  0
 22 71  1  0
 23 72  1  0
 24 73  1  0
 25 74  1  0
 25 75  1  0
 26 76  1  6
 27 77  1  0
 28 78  1  1
 29 79  1  0
 29 80  1  0
 31 81  1  0
 32 82  1  0
 33 83  1  0
 34 84  1  0
 35 85  1  0
 36 86  1  0
 40 87  1  0
 40 88  1  0
 42 89  1  0
 44 90  1  0
 46 91  1  0
 47 92  1  0
 47 93  1  0
 47 94  1  0
 48 95  1  0
 48 96  1  0
 48 97  1  0
 49 98  1  0
M  END
>  <meeko>  (6) 
{"is_sidechain": [false], "free_energy": -8.466, "intermolecular_energy": -17.994, "internal_energy": -3.673}

$$$$
3prs_ligand
     RDKit          3D

 98101  0  0  0  0  0  0  0  0999 V2000
    2.8870    9.9720    8.8470 C   0  0  0  0  0  0  0  0  0  0  0  0
    1.6480    9.2240    8.3510 C   0  0  0  0  0  0  0  0  0  0  0  0
    0.3940   10.0800    8.5340 C   0  0  0  0  0  0  0  0  0  0  0  0
    1.4970    7.9130    9.0760 C   0  0  0  0  0  0  0  0  0  0  0  0
    1.2570    6.7610    8.4870 N   0  0  0  0  0  0  0  0  0  0  0  0
    1.1880    5.7350    9.4270 C   0  0  0  0  0  0  0  0  0  0  0  0
    0.9390    4.3160    8.9890 C   0  0  0  0  0  0  0  0  0  0  0  0
   -0.3080    3.8020    9.5460 N   0  0  0  0  0  0  0  0  0  0  0  0
   -0.1950    2.8540   10.6460 C   0  0  0  0  0  0  0  0  0  0  0  0
   -1.4780    4.4240    9.1590 C   0  0  0  0  0  0  0  0  0  0  0  0
   -2.2340    4.9810    9.9510 O   0  0  0  0  0  0  0  0  0  0  0  0
   -1.7250    4.4150    7.8130 N   0  0  0  0  0  0  0  0  0  0  0  0
   -2.9470    4.9690    7.2150 C   0  0  2  0  0  0  0  0  0  0  0  0
   -3.7110    3.8620    6.4470 C   0  0  0  0  0  0  0  0  0  0  0  0
   -3.1970    3.2710    5.4970 O   0  0  0  0  0  0  0  0  0  0  0  0
   -4.9970    3.6190    6.8830 N   0  0  0  0  0  0  0  0  0  0  0  0
   -5.9150    2.7480    6.1460 C   0  0  1  0  0  0  0  0  0  0  0  0
   -6.8090    1.9230    7.1040 C   0  0  0  0  0  0  0  0  0  0  0  0
   -6.1290    0.8540    7.9330 C   0  0  0  0  0  0  0  0  0  0  0  0
   -6.5770    0.5670    9.2310 C   0  0  0  0  0  0  0  0  0  0  0  0
   -5.9500   -0.4130   10.0050 C   0  0  0  0  0  0  0  0  0  0  0  0
   -4.8710   -1.1250    9.4860 C   0  0  0  0  0  0  0  0  0  0  0  0
   -4.4310   -0.8680    8.1900 C   0  0  0  0  0  0  0  0  0  0  0  0
   -5.0620    0.1070    7.4150 C   0  0  0  0  0  0  0  0  0  0  0  0
   -6.6790    3.5870    5.1010 C   0  0  0  0  0  0  0  0  0  0  0  0
   -6.2540    3.3620    3.6440 C   0  0  2  0  0  0  0  0  0  0  0  0
   -5.1240    4.1960    3.3660 O   0  0  0  0  0  0  0  0  0  0  0  0
   -7.4160    3.6210    2.6350 C   0  0  2  0  0  0  0  0  0  0  0  0
   -7.3450    2.6720    1.4180 C   0  0  0  0  0  0  0  0  0  0  0  0
   -8.6990    2.2980    0.8530 C   0  0  0  0  0  0  0  0  0  0  0  0
   -9.8730    2.8200    1.4130 C   0  0  0  0  0  0  0  0  0  0  0  0
  -11.1210    2.4710    0.8950 C   0  0  0  0  0  0  0  0  0  0  0  0
  -11.2070    1.6000   -0.1900 C   0  0  0  0  0  0  0  0  0  0  0  0
  -10.0470    1.0790   -0.7570 C   0  0  0  0  0  0  0  0  0  0  0  0
   -8.7980    1.4280   -0.2410 C   0  0  0  0  0  0  0  0  0  0  0  0
   -7.4140    5.0190    2.1980 N   0  0  0  0  0  0  0  0  0  0  0  0
   -8.3350    5.9260    2.6170 C   0  0  0  0  0  0  0  0  0  0  0  0
   -9.2760    5.6760    3.3560 O   0  0  0  0  0  0  0  0  0  0  0  0
   -8.0370    7.1390    2.1030 O   0  0  0  0  0  0  0  0  0  0  0  0
   -8.7640    8.2050    2.7160 C   0  0  0  0  0  0  0  0  0  0  0  0
   -7.7510    9.0630    3.3930 C   0  0  0  0  0  0  0  0  0  0  0  0
   -7.1350   10.2100    2.9300 C   0  0  0  0  0  0  0  0  0  0  0  0
   -6.2320   10.8000    3.7950 N   0  0  0  0  0  0  0  0  0  0  0  0
   -6.1660   10.0890    4.8980 C   0  0  0  0  0  0  0  0  0  0  0  0
   -7.1700    8.7000    4.9660 S   0  0  0  0  0  0  0  0  0  0  0  0
   -2.7390    6.2710    6.4010 C   0  0  0  0  0  0  0  0  0  0  0  0
   -2.2690    7.4230    7.2980 C   0  0  0  0  0  0  0  0  0  0  0  0
   -4.0340    6.6890    5.6910 C   0  0  0  0  0  0  0  0  0  0  0  0
    1.3750    6.1520   10.7330 C   0  0  0  0  0  0  0  0  0  0  0  0
    1.6390    7.8420   10.7880 S   0  0  0  0  0  0  0  0  0  0  0  0
    2.8961    9.9775    9.9469 H   0  0  0  0  0  0  0  0  0  0  0  0
    3.7921    9.4693    8.4753 H   0  0  0  0  0  0  0  0  0  0  0  0
    2.8637   11.0070    8.4753 H   0  0  0  0  0  0  0  0  0  0  0  0
    1.7760    9.0177    7.2781 H   0  0  0  0  0  0  0  0  0  0  0  0
    0.1958   10.2153    9.6075 H   0  0  0  0  0  0  0  0  0  0  0  0
    0.5484   11.0620    8.0631 H   0  0  0  0  0  0  0  0  0  0  0  0
   -0.4643    9.5784    8.0631 H   0  0  0  0  0  0  0  0  0  0  0  0
    0.8812    4.2845    7.8910 H   0  0  0  0  0  0  0  0  0  0  0  0
    1.7668    3.6894    9.3524 H   0  0  0  0  0  0  0  0  0  0  0  0
   -0.2593    3.3931   11.6027 H   0  0  0  0  0  0  0  0  0  0  0  0
   -1.0120    2.1202   10.5830 H   0  0  0  0  0  0  0  0  0  0  0  0
    0.7716    2.3328   10.5830 H   0  0  0  0  0  0  0  0  0  0  0  0
   -1.3770    3.5920    7.3480 H   0  0  0  0  0  0  0  0  0  0  0  0
   -3.5853    5.3087    8.0440 H   0  0  0  0  0  0  0  0  0  0  0  0
   -5.4190    4.4020    7.3890 H   0  0  0  0  0  0  0  0  0  0  0  0
   -5.3538    1.9852    5.5863 H   0  0  0  0  0  0  0  0  0  0  0  0
   -7.2874    2.6278    7.8000 H   0  0  0  0  0  0  0  0  0  0  0  0
   -7.5012    1.3761    6.4469 H   0  0  0  0  0  0  0  0  0  0  0  0
   -7.4328    1.1205    9.6448 H   0  0  0  0  0  0  0  0  0  0  0  0
   -6.3083   -0.6222   11.0238 H   0  0  0  0  0  0  0  0  0  0  0  0
   -4.3680   -1.8880   10.0981 H   0  0  0  0  0  0  0  0  0  0  0  0
   -3.5841   -1.4347    7.7758 H   0  0  0  0  0  0  0  0  0  0  0  0
   -4.7180    0.2910    6.3865 H   0  0  0  0  0  0  0  0  0  0  0  0
   -7.7483    3.3431    5.1849 H   0  0  0  0  0  0  0  0  0  0  0  0
   -6.4486    4.6386    5.3268 H   0  0  0  0  0  0  0  0  0  0  0  0
   -5.9796    2.3046    3.5154 H   0  0  0  0  0  0  0  0  0  0  0  0
   -5.4460    5.1020    3.1790 H   0  0  0  0  0  0  0  0  0  0  0  0
   -8.3605    3.4132    3.1592 H   0  0  0  0  0  0  0  0  0  0  0  0
   -6.7638    3.1670    0.6261 H   0  0  0  0  0  0  0  0  0  0  0  0
   -6.8754    1.7402    1.7662 H   0  0  0  0  0  0  0  0  0  0  0  0
   -9.8102    3.5100    2.2673 H   0  0  0  0  0  0  0  0  0  0  0  0
  -12.0371    2.8833    1.3430 H   0  0  0  0  0  0  0  0  0  0  0  0
  -12.1907    1.3245   -0.5979 H   0  0  0  0  0  0  0  0  0  0  0  0
  -10.1150    0.3913   -1.6129 H   0  0  0  0  0  0  0  0  0  0  0  0
   -7.8848    1.0172   -0.6964 H   0  0  0  0  0  0  0  0  0  0  0  0
   -6.6420    5.3910    1.6640 H   0  0  0  0  0  0  0  0  0  0  0  0
   -9.3065    8.7841    1.9543 H   0  0  0  0  0  0  0  0  0  0  0  0
   -9.5086    7.8238    3.4304 H   0  0  0  0  0  0  0  0  0  0  0  0
   -7.3497   10.6276    1.9353 H   0  0  0  0  0  0  0  0  0  0  0  0
   -5.5041   10.3688    5.7309 H   0  0  0  0  0  0  0  0  0  0  0  0
   -1.9620    6.0591    5.6517 H   0  0  0  0  0  0  0  0  0  0  0  0
   -2.3858    7.1368    8.3537 H   0  0  0  0  0  0  0  0  0  0  0  0
   -1.2105    7.6399    7.0918 H   0  0  0  0  0  0  0  0  0  0  0  0
   -2.8737    8.3185    7.0918 H   0  0  0  0  0  0  0  0  0  0  0  0
   -4.7999    6.9362    6.4409 H   0  0  0  0  0  0  0  0  0  0  0  0
   -3.8392    7.5699    5.0617 H   0  0  0  0  0  0  0  0  0  0  0  0
   -4.3910    5.8605    5.0617 H   0  0  0  0  0  0  0  0  0  0  0  0
    1.3566    5.4907   11.6118 H   0  0  0  0  0  0  0  0  0  0  0  0
  1  2  1  0
  2  3  1  0
  2  4  1  0
  4  5  2  0
  5  6  1  0
  6  7  1  0
  7  8  1  0
  8  9  1  0
  8 10  1  0
 10 11  2  0
 10 12  1  0
 12 13  1  0
 13 14  1  0
 14 15  2  0
 14 16  1  0
 16 17  1  0
 17 18  1  0
 18 19  1  0
 19 20  2  0
 20 21  1  0
 21 22  2  0
 22 23  1  0
 23 24  2  0
 17 25  1  0
 25 26  1  0
 26 27  1  0
 26 28  1  0
 28 29  1  0
 29 30  1  0
 30 31  2  0
 31 32  1  0
 32 33  2  0
 33 34  1  0
 34 35  2  0
 28 36  1  0
 36 37  1  0
 37 38  2  0
 37 39  1  0
 39 40  1  0
 40 41  1  0
 41 42  2  0
 42 43  1  0
 43 44  2  0
 44 45  1  0
 13 46  1  0
 46 47  1  0
 46 48  1  0
  6 49  2  0
 49 50  1  0
 50  4  1  0
 24 19  1  0
 35 30  1  0
 45 41  1  0
  1 51  1  0
  1 52  1  0
  1 53  1  0
  2 54  1  0
  3 55  1  0
  3 56  1  0
  3 57  1  0
  7 58  1  0
  7 59  1  0
  9 60  1  0
  9 61  1  0
  9 62  1  0
 12 63  1  0
 13 64  1  1
 16 65  1  0
 17 66  1  6
 18 67  1  0
 18 68  1  0
 20 69  1  0
 21 70  1  0
 22 71  1  0
 23 72  1  0
 24 73  1  0
 25 74  1  0
 25 75  1  0
 26 76  1  1
 27 77  1  0
 28 78  1  1
 29 79  1  0
 29 80  1  0
 31 81  1  0
 32 82  1  0
 33 83  1  0
 34 84  1  0
 35 85  1  0
 36 86  1  0
 40 87  1  0
 40 88  1  0
 42 89  1  0
 44 90  1  0
 46 91  1  0
 47 92  1  0
 47 93  1  0
 47 94  1  0
 48 95  1  0
 48 96  1  0
 48 97  1  0
 49 98  1  0
M  END
>  <meeko>  (7) 
{"is_sidechain": [false], "free_energy": -8.432, "intermolecular_energy": -18.302, "internal_energy": -3.291}

$$$$
3prs_ligand
     RDKit          3D

 98101  0  0  0  0  0  0  0  0999 V2000
    5.0640    9.7850   14.6510 C   0  0  0  0  0  0  0  0  0  0  0  0
    4.3700    8.4650   14.9940 C   0  0  0  0  0  0  0  0  0  0  0  0
    5.3880    7.3260   15.0680 C   0  0  0  0  0  0  0  0  0  0  0  0
    3.3050    8.1490   13.9760 C   0  0  0  0  0  0  0  0  0  0  0  0
    3.2470    7.0320   13.2830 N   0  0  0  0  0  0  0  0  0  0  0  0
    2.1390    7.0350   12.4400 C   0  0  0  0  0  0  0  0  0  0  0  0
    1.8500    5.8510   11.5570 C   0  0  0  0  0  0  0  0  0  0  0  0
    1.6550    6.2600   10.1690 N   0  0  0  0  0  0  0  0  0  0  0  0
    2.5570    7.2790    9.6510 C   0  0  0  0  0  0  0  0  0  0  0  0
    0.8060    5.4930    9.3970 C   0  0  0  0  0  0  0  0  0  0  0  0
    0.7080    5.6220    8.1790 O   0  0  0  0  0  0  0  0  0  0  0  0
    0.0990    4.5400   10.0800 N   0  0  0  0  0  0  0  0  0  0  0  0
   -0.9000    3.6700    9.4450 C   0  0  2  0  0  0  0  0  0  0  0  0
   -2.0610    4.5230    8.8760 C   0  0  0  0  0  0  0  0  0  0  0  0
   -2.5670    5.4330    9.5320 O   0  0  0  0  0  0  0  0  0  0  0  0
   -2.4950    4.1660    7.6160 N   0  0  0  0  0  0  0  0  0  0  0  0
   -3.7030    4.7410    7.0190 C   0  0  1  0  0  0  0  0  0  0  0  0
   -3.3590    5.7070    5.8590 C   0  0  0  0  0  0  0  0  0  0  0  0
   -3.2770    7.1820    6.1890 C   0  0  0  0  0  0  0  0  0  0  0  0
   -2.1560    7.7010    6.8540 C   0  0  0  0  0  0  0  0  0  0  0  0
   -2.0770    9.0600    7.1690 C   0  0  0  0  0  0  0  0  0  0  0  0
   -3.1140    9.9190    6.8150 C   0  0  0  0  0  0  0  0  0  0  0  0
   -4.2220    9.4220    6.1330 C   0  0  0  0  0  0  0  0  0  0  0  0
   -4.2980    8.0650    5.8130 C   0  0  0  0  0  0  0  0  0  0  0  0
   -4.6770    3.6020    6.6540 C   0  0  0  0  0  0  0  0  0  0  0  0
   -4.0360    2.2160    6.5090 C   0  0  2  0  0  0  0  0  0  0  0  0
   -3.4120    2.1350    5.2230 O   0  0  0  0  0  0  0  0  0  0  0  0
   -5.0620    1.0580    6.7190 C   0  0  2  0  0  0  0  0  0  0  0  0
   -4.4660   -0.0940    7.5590 C   0  0  0  0  0  0  0  0  0  0  0  0
   -5.2180   -0.3670    8.8440 C   0  0  0  0  0  0  0  0  0  0  0  0
   -5.7230   -1.6470    9.1140 C   0  0  0  0  0  0  0  0  0  0  0  0
   -6.4200   -1.8970   10.2970 C   0  0  0  0  0  0  0  0  0  0  0  0
   -6.6180   -0.8720   11.2220 C   0  0  0  0  0  0  0  0  0  0  0  0
   -6.1170    0.4010   10.9650 C   0  0  0  0  0  0  0  0  0  0  0  0
   -5.4170    0.6530    9.7840 C   0  0  0  0  0  0  0  0  0  0  0  0
   -5.5430    0.5590    5.4290 N   0  0  0  0  0  0  0  0  0  0  0  0
   -6.8180    0.1340    5.2310 C   0  0  0  0  0  0  0  0  0  0  0  0
   -7.6790    0.0780    6.0970 O   0  0  0  0  0  0  0  0  0  0  0  0
   -6.9830   -0.2010    3.9320 O   0  0  0  0  0  0  0  0  0  0  0  0
   -8.3400   -0.1070    3.4940 C   0  0  0  0  0  0  0  0  0  0  0  0
   -8.3260    0.7660    2.2870 C   0  0  0  0  0  0  0  0  0  0  0  0
   -7.2820    1.5000    1.7580 C   0  0  0  0  0  0  0  0  0  0  0  0
   -7.5700    2.2170    0.6120 N   0  0  0  0  0  0  0  0  0  0  0  0
   -8.8300    2.0280    0.2920 C   0  0  0  0  0  0  0  0  0  0  0  0
   -9.7270    0.9900    1.3220 S   0  0  0  0  0  0  0  0  0  0  0  0
   -1.3640    2.4740   10.3140 C   0  0  0  0  0  0  0  0  0  0  0  0
   -2.5420    2.8610   11.2170 C   0  0  0  0  0  0  0  0  0  0  0  0
   -0.2160    1.9540   11.1900 C   0  0  0  0  0  0  0  0  0  0  0  0
    1.3750    8.1870   12.5160 C   0  0  0  0  0  0  0  0  0  0  0  0
    2.0490    9.2760   13.6510 S   0  0  0  0  0  0  0  0  0  0  0  0
    5.3385   10.3070   15.5795 H   0  0  0  0  0  0  0  0  0  0  0  0
    5.9712    9.5805   14.0635 H   0  0  0  0  0  0  0  0  0  0  0  0
    4.3812   10.4164   14.0635 H   0  0  0  0  0  0  0  0  0  0  0  0
    3.8928    8.5713   15.9794 H   0  0  0  0  0  0  0  0  0  0  0  0
    5.5986    7.0903   16.1216 H   0  0  0  0  0  0  0  0  0  0  0  0
    4.9791    6.4357   14.5678 H   0  0  0  0  0  0  0  0  0  0  0  0
    6.3184    7.6327   14.5678 H   0  0  0  0  0  0  0  0  0  0  0  0
    2.6964    5.1503   11.6086 H   0  0  0  0  0  0  0  0  0  0  0  0
    0.9256    5.3711   11.9109 H   0  0  0  0  0  0  0  0  0  0  0  0
    3.0287    7.8118   10.4898 H   0  0  0  0  0  0  0  0  0  0  0  0
    3.3344    6.8022    9.0359 H   0  0  0  0  0  0  0  0  0  0  0  0
    1.9893    7.9928    9.0359 H   0  0  0  0  0  0  0  0  0  0  0  0
   -0.1320    4.8110   11.0220 H   0  0  0  0  0  0  0  0  0  0  0  0
   -0.4024    3.1696    8.6012 H   0  0  0  0  0  0  0  0  0  0  0  0
   -2.2730    3.2020    7.3580 H   0  0  0  0  0  0  0  0  0  0  0  0
   -4.2256    5.3790    7.7469 H   0  0  0  0  0  0  0  0  0  0  0  0
   -2.3822    5.4036    5.4542 H   0  0  0  0  0  0  0  0  0  0  0  0
   -4.2018    5.6196    5.1575 H   0  0  0  0  0  0  0  0  0  0  0  0
   -1.3294    7.0301    7.1307 H   0  0  0  0  0  0  0  0  0  0  0  0
   -1.1950    9.4515    7.6970 H   0  0  0  0  0  0  0  0  0  0  0  0
   -3.0584   10.9868    7.0732 H   0  0  0  0  0  0  0  0  0  0  0  0
   -5.0391   10.1001    5.8458 H   0  0  0  0  0  0  0  0  0  0  0  0
   -5.1692    7.6848    5.2595 H   0  0  0  0  0  0  0  0  0  0  0  0
   -5.4418    3.5425    7.4424 H   0  0  0  0  0  0  0  0  0  0  0  0
   -5.0851    3.8547    5.6642 H   0  0  0  0  0  0  0  0  0  0  0  0
   -3.2811    2.0916    7.2994 H   0  0  0  0  0  0  0  0  0  0  0  0
   -2.4410    2.1700    5.3460 H   0  0  0  0  0  0  0  0  0  0  0  0
   -5.9135    1.4687    7.2814 H   0  0  0  0  0  0  0  0  0  0  0  0
   -4.4777   -1.0095    6.9494 H   0  0  0  0  0  0  0  0  0  0  0  0
   -3.4478    0.2106    7.8427 H   0  0  0  0  0  0  0  0  0  0  0  0
   -5.5688   -2.4594    8.3886 H   0  0  0  0  0  0  0  0  0  0  0  0
   -6.8138   -2.9038   10.5002 H   0  0  0  0  0  0  0  0  0  0  0  0
   -7.1693   -1.0693   12.1532 H   0  0  0  0  0  0  0  0  0  0  0  0
   -6.2730    1.2099   11.6940 H   0  0  0  0  0  0  0  0  0  0  0  0
   -5.0186    1.6597    9.5897 H   0  0  0  0  0  0  0  0  0  0  0  0
   -4.9710    0.6360    4.6010 H   0  0  0  0  0  0  0  0  0  0  0  0
   -8.7287   -1.1040    3.2393 H   0  0  0  0  0  0  0  0  0  0  0  0
   -8.9881    0.3062    4.2809 H   0  0  0  0  0  0  0  0  0  0  0  0
   -6.2838    1.5130    2.2200 H   0  0  0  0  0  0  0  0  0  0  0  0
   -9.2844    2.5084   -0.5871 H   0  0  0  0  0  0  0  0  0  0  0  0
   -1.6869    1.6820    9.6223 H   0  0  0  0  0  0  0  0  0  0  0  0
   -2.2436    2.7630   12.2712 H   0  0  0  0  0  0  0  0  0  0  0  0
   -2.8333    3.9021   11.0137 H   0  0  0  0  0  0  0  0  0  0  0  0
   -3.3939    2.1955   11.0137 H   0  0  0  0  0  0  0  0  0  0  0  0
   -0.4809    2.0740   12.2509 H   0  0  0  0  0  0  0  0  0  0  0  0
   -0.0427    0.8895   10.9735 H   0  0  0  0  0  0  0  0  0  0  0  0
    0.6984    2.5258   10.9735 H   0  0  0  0  0  0  0  0  0  0  0  0
    0.4636    8.3757   11.9297 H   0  0  0  0  0  0  0  0  0  0  0  0
  1  2  1  0
  2  3  1  0
  2  4  1  0
  4  5  2  0
  5  6  1  0
  6  7  1  0
  7  8  1  0
  8  9  1  0
  8 10  1  0
 10 11  2  0
 10 12  1  0
 12 13  1  0
 13 14  1  0
 14 15  2  0
 14 16  1  0
 16 17  1  0
 17 18  1  0
 18 19  1  0
 19 20  2  0
 20 21  1  0
 21 22  2  0
 22 23  1  0
 23 24  2  0
 17 25  1  0
 25 26  1  0
 26 27  1  0
 26 28  1  0
 28 29  1  0
 29 30  1  0
 30 31  2  0
 31 32  1  0
 32 33  2  0
 33 34  1  0
 34 35  2  0
 28 36  1  0
 36 37  1  0
 37 38  2  0
 37 39  1  0
 39 40  1  0
 40 41  1  0
 41 42  2  0
 42 43  1  0
 43 44  2  0
 44 45  1  0
 13 46  1  0
 46 47  1  0
 46 48  1  0
  6 49  2  0
 49 50  1  0
 50  4  1  0
 24 19  1  0
 35 30  1  0
 45 41  1  0
  1 51  1  0
  1 52  1  0
  1 53  1  0
  2 54  1  0
  3 55  1  0
  3 56  1  0
  3 57  1  0
  7 58  1  0
  7 59  1  0
  9 60  1  0
  9 61  1  0
  9 62  1  0
 12 63  1  0
 13 64  1  6
 16 65  1  0
 17 66  1  1
 18 67  1  0
 18 68  1  0
 20 69  1  0
 21 70  1  0
 22 71  1  0
 23 72  1  0
 24 73  1  0
 25 74  1  0
 25 75  1  0
 26 76  1  1
 27 77  1  0
 28 78  1  1
 29 79  1  0
 29 80  1  0
 31 81  1  0
 32 82  1  0
 33 83  1  0
 34 84  1  0
 35 85  1  0
 36 86  1  0
 40 87  1  0
 40 88  1  0
 42 89  1  0
 44 90  1  0
 46 91  1  0
 47 92  1  0
 47 93  1  0
 47 94  1  0
 48 95  1  0
 48 96  1  0
 48 97  1  0
 49 98  1  0
M  END
>  <meeko>  (8) 
{"is_sidechain": [false], "free_energy": -8.377, "intermolecular_energy": -19.035, "internal_energy": -2.443}

$$$$
3prs_ligand
     RDKit          3D

 98101  0  0  0  0  0  0  0  0999 V2000
    0.5110    6.1900   10.7450 C   0  0  0  0  0  0  0  0  0  0  0  0
    0.0950    5.8260    9.3190 C   0  0  0  0  0  0  0  0  0  0  0  0
   -0.3640    7.0710    8.5580 C   0  0  0  0  0  0  0  0  0  0  0  0
   -1.0000    4.7910    9.3360 C   0  0  0  0  0  0  0  0  0  0  0  0
   -1.1300    3.8620   10.2590 N   0  0  0  0  0  0  0  0  0  0  0  0
   -2.2480    3.0720   10.0030 C   0  0  0  0  0  0  0  0  0  0  0  0
   -2.6140    1.9470   10.9360 C   0  0  0  0  0  0  0  0  0  0  0  0
   -2.1240    0.6660   10.4370 N   0  0  0  0  0  0  0  0  0  0  0  0
   -0.6830    0.4540   10.4730 C   0  0  0  0  0  0  0  0  0  0  0  0
   -3.0600   -0.3220   10.2020 C   0  0  0  0  0  0  0  0  0  0  0  0
   -2.8900   -1.4950   10.5210 O   0  0  0  0  0  0  0  0  0  0  0  0
   -4.2220    0.1050    9.6190 N   0  0  0  0  0  0  0  0  0  0  0  0
   -5.3100   -0.8040    9.2320 C   0  0  2  0  0  0  0  0  0  0  0  0
   -5.8320   -0.4370    7.8210 C   0  0  0  0  0  0  0  0  0  0  0  0
   -5.7930   -1.2460    6.8950 O   0  0  0  0  0  0  0  0  0  0  0  0
   -6.3020    0.8520    7.6810 N   0  0  0  0  0  0  0  0  0  0  0  0
   -6.6480    1.4150    6.3730 C   0  0  1  0  0  0  0  0  0  0  0  0
   -8.1530    1.7660    6.2850 C   0  0  0  0  0  0  0  0  0  0  0  0
   -8.9620    1.0720    5.2100 C   0  0  0  0  0  0  0  0  0  0  0  0
   -8.3430    0.1940    4.3080 C   0  0  0  0  0  0  0  0  0  0  0  0
   -9.0820   -0.4440    3.3090 C   0  0  0  0  0  0  0  0  0  0  0  0
  -10.4520   -0.2180    3.2040 C   0  0  0  0  0  0  0  0  0  0  0  0
  -11.0850    0.6320    4.1070 C   0  0  0  0  0  0  0  0  0  0  0  0
  -10.3460    1.2640    5.1100 C   0  0  0  0  0  0  0  0  0  0  0  0
   -5.6860    2.5780    6.0540 C   0  0  0  0  0  0  0  0  0  0  0  0
   -5.2550    2.6850    4.5860 C   0  0  2  0  0  0  0  0  0  0  0  0
   -3.9520    3.2740    4.5360 O   0  0  0  0  0  0  0  0  0  0  0  0
   -6.2770    3.4880    3.7200 C   0  0  2  0  0  0  0  0  0  0  0  0
   -6.1690    3.1300    2.2220 C   0  0  0  0  0  0  0  0  0  0  0  0
   -7.4820    2.7130    1.5950 C   0  0  0  0  0  0  0  0  0  0  0  0
   -7.5110    1.7470    0.5800 C   0  0  0  0  0  0  0  0  0  0  0  0
   -8.7210    1.3660   -0.0010 C   0  0  0  0  0  0  0  0  0  0  0  0
   -9.9150    1.9450    0.4290 C   0  0  0  0  0  0  0  0  0  0  0  0
   -9.8980    2.9020    1.4400 C   0  0  0  0  0  0  0  0  0  0  0  0
   -8.6890    3.2830    2.0230 C   0  0  0  0  0  0  0  0  0  0  0  0
   -6.0990    4.9280    3.9190 N   0  0  0  0  0  0  0  0  0  0  0  0
   -6.9830    5.6930    4.6110 C   0  0  0  0  0  0  0  0  0  0  0  0
   -8.0280    5.2860    5.0980 O   0  0  0  0  0  0  0  0  0  0  0  0
   -6.5190    6.9600    4.6850 O   0  0  0  0  0  0  0  0  0  0  0  0
   -6.1440    7.3460    6.0090 C   0  0  0  0  0  0  0  0  0  0  0  0
   -4.7180    7.7700    5.9280 C   0  0  0  0  0  0  0  0  0  0  0  0
   -3.6500    7.1190    5.3410 C   0  0  0  0  0  0  0  0  0  0  0  0
   -2.4330    7.7670    5.4200 N   0  0  0  0  0  0  0  0  0  0  0  0
   -2.5880    8.8960    6.0730 C   0  0  0  0  0  0  0  0  0  0  0  0
   -4.1770    9.2450    6.6160 S   0  0  0  0  0  0  0  0  0  0  0  0
   -6.4270   -0.9680   10.2940 C   0  0  0  0  0  0  0  0  0  0  0  0
   -6.4730    0.2320   11.2480 C   0  0  0  0  0  0  0  0  0  0  0  0
   -6.2200   -2.2480   11.1150 C   0  0  0  0  0  0  0  0  0  0  0  0
   -2.9440    3.4300    8.8630 C   0  0  0  0  0  0  0  0  0  0  0  0
   -2.1950    4.7670    8.1010 S   0  0  0  0  0  0  0  0  0  0  0  0
   -0.1170    5.6405   11.4617 H   0  0  0  0  0  0  0  0  0  0  0  0
    1.5660    5.9197   10.8995 H   0  0  0  0  0  0  0  0  0  0  0  0
    0.3832    7.2716   10.8995 H   0  0  0  0  0  0  0  0  0  0  0  0
    0.9692    5.4032    8.8022 H   0  0  0  0  0  0  0  0  0  0  0  0
   -0.6525    7.8535    9.2752 H   0  0  0  0  0  0  0  0  0  0  0  0
    0.4579    7.4381    7.9258 H   0  0  0  0  0  0  0  0  0  0  0  0
   -1.2275    6.8167    7.9258 H   0  0  0  0  0  0  0  0  0  0  0  0
   -2.1697    2.1410   11.9234 H   0  0  0  0  0  0  0  0  0  0  0  0
   -3.7105    1.8964   11.0069 H   0  0  0  0  0  0  0  0  0  0  0  0
   -0.3457    0.4044   11.5188 H   0  0  0  0  0  0  0  0  0  0  0  0
   -0.4384   -0.4898    9.9637 H   0  0  0  0  0  0  0  0  0  0  0  0
   -0.1769    1.2874    9.9637 H   0  0  0  0  0  0  0  0  0  0  0  0
   -4.0930    0.8810    8.9900 H   0  0  0  0  0  0  0  0  0  0  0  0
   -4.8816   -1.8159    9.1816 H   0  0  0  0  0  0  0  0  0  0  0  0
   -5.9350    1.5060    8.3760 H   0  0  0  0  0  0  0  0  0  0  0  0
   -6.5063    0.6643    5.5815 H   0  0  0  0  0  0  0  0  0  0  0  0
   -8.6084    1.5171    7.2549 H   0  0  0  0  0  0  0  0  0  0  0  0
   -8.1809    2.8327    6.0177 H   0  0  0  0  0  0  0  0  0  0  0  0
   -7.2622    0.0056    4.3884 H   0  0  0  0  0  0  0  0  0  0  0  0
   -8.5816   -1.1252    2.6050 H   0  0  0  0  0  0  0  0  0  0  0  0
  -11.0327   -0.7098    2.4097 H   0  0  0  0  0  0  0  0  0  0  0  0
  -12.1684    0.8061    4.0305 H   0  0  0  0  0  0  0  0  0  0  0  0
  -10.8570    1.9203    5.8299 H   0  0  0  0  0  0  0  0  0  0  0  0
   -6.1849    3.5182    6.3316 H   0  0  0  0  0  0  0  0  0  0  0  0
   -4.7685    2.3814    6.6280 H   0  0  0  0  0  0  0  0  0  0  0  0
   -5.2258    1.6747    4.1520 H   0  0  0  0  0  0  0  0  0  0  0  0
   -3.7930    3.6010    3.6260 H   0  0  0  0  0  0  0  0  0  0  0  0
   -7.2862    3.2050    4.0539 H   0  0  0  0  0  0  0  0  0  0  0  0
   -5.7914    4.0107    1.6818 H   0  0  0  0  0  0  0  0  0  0  0  0
   -5.4914    2.2667    2.1480 H   0  0  0  0  0  0  0  0  0  0  0  0
   -6.5726    1.2856    0.2388 H   0  0  0  0  0  0  0  0  0  0  0  0
   -8.7334    0.6086   -0.7986 H   0  0  0  0  0  0  0  0  0  0  0  0
  -10.8688    1.6458   -0.0301 H   0  0  0  0  0  0  0  0  0  0  0  0
  -10.8393    3.3585    1.7798 H   0  0  0  0  0  0  0  0  0  0  0  0
   -8.6830    4.0363    2.8245 H   0  0  0  0  0  0  0  0  0  0  0  0
   -5.2360    5.3810    3.6560 H   0  0  0  0  0  0  0  0  0  0  0  0
   -6.7713    8.1806    6.3553 H   0  0  0  0  0  0  0  0  0  0  0  0
   -6.2772    6.5186    6.7215 H   0  0  0  0  0  0  0  0  0  0  0  0
   -3.7621    6.1452    4.8418 H   0  0  0  0  0  0  0  0  0  0  0  0
   -1.7464    9.5790    6.2610 H   0  0  0  0  0  0  0  0  0  0  0  0
   -7.3805   -1.0306    9.7491 H   0  0  0  0  0  0  0  0  0  0  0  0
   -6.4593   -0.1257   12.2881 H   0  0  0  0  0  0  0  0  0  0  0  0
   -5.5989    0.8756   11.0701 H   0  0  0  0  0  0  0  0  0  0  0  0
   -7.3938    0.8068   11.0701 H   0  0  0  0  0  0  0  0  0  0  0  0
   -6.2591   -2.0061   12.1874 H   0  0  0  0  0  0  0  0  0  0  0  0
   -7.0129   -2.9710   10.8730 H   0  0  0  0  0  0  0  0  0  0  0  0
   -5.2396   -2.6843   10.8730 H   0  0  0  0  0  0  0  0  0  0  0  0
   -3.8511    2.9265    8.4975 H   0  0  0  0  0  0  0  0  0  0  0  0
  1  2  1  0
  2  3  1  0
  2  4  1  0
  4  5  2  0
  5  6  1  0
  6  7  1  0
  7  8  1  0
  8  9  1  0
  8 10  1  0
 10 11  2  0
 10 12  1  0
 12 13  1  0
 13 14  1  0
 14 15  2  0
 14 16  1  0
 16 17  1  0
 17 18  1  0
 18 19  1  0
 19 20  2  0
 20 21  1  0
 21 22  2  0
 22 23  1  0
 23 24  2  0
 17 25  1  0
 25 26  1  0
 26 27  1  0
 26 28  1  0
 28 29  1  0
 29 30  1  0
 30 31  2  0
 31 32  1  0
 32 33  2  0
 33 34  1  0
 34 35  2  0
 28 36  1  0
 36 37  1  0
 37 38  2  0
 37 39  1  0
 39 40  1  0
 40 41  1  0
 41 42  2  0
 42 43  1  0
 43 44  2  0
 44 45  1  0
 13 46  1  0
 46 47  1  0
 46 48  1  0
  6 49  2  0
 49 50  1  0
 50  4  1  0
 24 19  1  0
 35 30  1  0
 45 41  1  0
  1 51  1  0
  1 52  1  0
  1 53  1  0
  2 54  1  0
  3 55  1  0
  3 56  1  0
  3 57  1  0
  7 58  1  0
  7 59  1  0
  9 60  1  0
  9 61  1  0
  9 62  1  0
 12 63  1  0
 13 64  1  6
 16 65  1  0
 17 66  1  6
 18 67  1  0
 18 68  1  0
 20 69  1  0
 21 70  1  0
 22 71  1  0
 23 72  1  0
 24 73  1  0
 25 74  1  0
 25 75  1  0
 26 76  1  6
 27 77  1  0
 28 78  1  1
 29 79  1  0
 29 80  1  0
 31 81  1  0
 32 82  1  0
 33 83  1  0
 34 84  1  0
 35 85  1  0
 36 86  1  0
 40 87  1  0
 40 88  1  0
 42 89  1  0
 44 90  1  0
 46 91  1  0
 47 92  1  0
 47 93  1  0
 47 94  1  0
 48 95  1  0
 48 96  1  0
 48 97  1  0
 49 98  1  0
M  END
>  <meeko>  (9) 
{"is_sidechain": [false], "free_energy": -8.363, "intermolecular_energy": -16.36, "internal_energy": -5.086}

$$$$
