2wvt_ligand
     RDKit          3D

 29 29  0  0  0  0  0  0  0  0999 V2000
  -18.7280    6.1510    3.2440 O   0  0  0  0  0  0  0  0  0  0  0  0
  -19.5740    5.2520    3.9460 C   0  0  0  0  0  0  0  0  0  0  0  0
  -18.8540    3.9070    4.1560 C   0  0  2  0  0  0  0  0  0  0  0  0
  -17.4850    4.1430    4.7460 N   0  0  0  0  0  0  0  0  0  0  0  0
  -16.3490    4.0670    3.7450 C   0  0  1  0  0  0  0  0  0  0  0  0
  -15.0970    4.5950    4.4610 C   0  0  0  0  0  0  0  0  0  0  0  0
  -14.0240    4.5570    3.5050 O   0  0  0  0  0  0  0  0  0  0  0  0
  -16.2570    2.6240    3.2260 C   0  0  1  0  0  0  0  0  0  0  0  0
  -15.5980    1.8110    4.2090 O   0  0  0  0  0  0  0  0  0  0  0  0
  -17.6550    2.0050    2.9900 C   0  0  0  0  0  0  0  0  0  0  0  0
  -17.5970    1.1770    1.8260 O   0  0  0  0  0  0  0  0  0  0  0  0
  -18.7640    3.0550    2.8550 C   0  0  2  0  0  0  0  0  0  0  0  0
  -18.4510    3.8550    1.7030 O   0  0  0  0  0  0  0  0  0  0  0  0
  -17.8260    6.0660    3.6100 H   0  0  0  0  0  0  0  0  0  0  0  0
  -19.8324    5.6836    4.9243 H   0  0  0  0  0  0  0  0  0  0  0  0
  -20.4890    5.0841    3.3590 H   0  0  0  0  0  0  0  0  0  0  0  0
  -19.4590    3.3196    4.8624 H   0  0  0  0  0  0  0  0  0  0  0  0
  -17.3830    5.0690    5.2000 H   0  0  0  0  0  0  0  0  0  0  0  0
  -17.2770    3.4620    5.4920 H   0  0  0  0  0  0  0  0  0  0  0  0
  -16.4920    4.6874    2.8480 H   0  0  0  0  0  0  0  0  0  0  0  0
  -15.2633    5.6273    4.8026 H   0  0  0  0  0  0  0  0  0  0  0  0
  -14.8603    3.9834    5.3442 H   0  0  0  0  0  0  0  0  0  0  0  0
  -13.5660    5.4210    3.5640 H   0  0  0  0  0  0  0  0  0  0  0  0
  -15.7053    2.6536    2.2748 H   0  0  0  0  0  0  0  0  0  0  0  0
  -16.0860    1.9370    5.0520 H   0  0  0  0  0  0  0  0  0  0  0  0
  -17.9160    1.4073    3.8758 H   0  0  0  0  0  0  0  0  0  0  0  0
  -16.6610    0.9330    1.6820 H   0  0  0  0  0  0  0  0  0  0  0  0
  -19.7504    2.5874    2.7192 H   0  0  0  0  0  0  0  0  0  0  0  0
  -17.9340    4.6240    2.0280 H   0  0  0  0  0  0  0  0  0  0  0  0
  1  2  1  0
  2  3  1  0
  3  4  1  0
  4  5  1  0
  5  6  1  0
  6  7  1  0
  5  8  1  0
  8  9  1  0
  8 10  1  0
 10 11  1  0
 10 12  1  0
 12 13  1  0
 12  3  1  0
  1 14  1  0
  2 15  1  0
  2 16  1  0
  3 17  1  1
  4 18  1  0
  4 19  1  0
  5 20  1  6
  6 21  1  0
  6 22  1  0
  7 23  1  0
  8 24  1  6
  9 25  1  0
 10 26  1  0
 11 27  1  0
 12 28  1  6
 13 29  1  0
M  CHG  1   4   1
M  END
>  <meeko>  (1) 
{"is_sidechain": [false], "free_energy": -5.987, "intermolecular_energy": -7.562, "internal_energy": -0.292}

$$$$
2wvt_ligand
     RDKit          3D

 29 29  0  0  0  0  0  0  0  0999 V2000
  -19.3010    6.4800    4.0430 O   0  0  0  0  0  0  0  0  0  0  0  0
  -19.4960    5.0740    3.9730 C   0  0  0  0  0  0  0  0  0  0  0  0
  -18.3510    4.4240    3.1740 C   0  0  2  0  0  0  0  0  0  0  0  0
  -18.9180    3.4930    2.1300 N   0  0  0  0  0  0  0  0  0  0  0  0
  -18.8690    2.0250    2.5060 C   0  0  1  0  0  0  0  0  0  0  0  0
  -19.7200    1.2780    1.4680 C   0  0  0  0  0  0  0  0  0  0  0  0
  -21.0510    1.8140    1.5600 O   0  0  0  0  0  0  0  0  0  0  0  0
  -17.3960    1.5960    2.5880 C   0  0  1  0  0  0  0  0  0  0  0  0
  -16.8890    1.3920    1.2610 O   0  0  0  0  0  0  0  0  0  0  0  0
  -16.5150    2.6830    3.2480 C   0  0  0  0  0  0  0  0  0  0  0  0
  -15.5220    2.0410    4.0510 O   0  0  0  0  0  0  0  0  0  0  0  0
  -17.3190    3.6890    4.0790 C   0  0  2  0  0  0  0  0  0  0  0  0
  -17.9510    2.9530    5.1380 O   0  0  0  0  0  0  0  0  0  0  0  0
  -20.1740    6.9010    4.1630 H   0  0  0  0  0  0  0  0  0  0  0  0
  -19.5127    4.6572    4.9908 H   0  0  0  0  0  0  0  0  0  0  0  0
  -20.4517    4.8660    3.4697 H   0  0  0  0  0  0  0  0  0  0  0  0
  -17.7966    5.2342    2.6778 H   0  0  0  0  0  0  0  0  0  0  0  0
  -19.9110    3.6810    1.9020 H   0  0  0  0  0  0  0  0  0  0  0  0
  -18.4200    3.5920    1.2320 H   0  0  0  0  0  0  0  0  0  0  0  0
  -19.2922    1.7947    3.4949 H   0  0  0  0  0  0  0  0  0  0  0  0
  -19.3150    1.4407    0.4583 H   0  0  0  0  0  0  0  0  0  0  0  0
  -19.7162    0.1948    1.6597 H   0  0  0  0  0  0  0  0  0  0  0  0
  -21.0700    2.6140    0.9950 H   0  0  0  0  0  0  0  0  0  0  0  0
  -17.3566    0.6771    3.1914 H   0  0  0  0  0  0  0  0  0  0  0  0
  -16.0530    1.9030    1.1970 H   0  0  0  0  0  0  0  0  0  0  0  0
  -16.0424    3.2694    2.4463 H   0  0  0  0  0  0  0  0  0  0  0  0
  -14.6690    2.1010    3.5750 H   0  0  0  0  0  0  0  0  0  0  0  0
  -16.6728    4.4676    4.5104 H   0  0  0  0  0  0  0  0  0  0  0  0
  -17.2300    2.5330    5.6560 H   0  0  0  0  0  0  0  0  0  0  0  0
  1  2  1  0
  2  3  1  0
  3  4  1  0
  4  5  1  0
  5  6  1  0
  6  7  1  0
  5  8  1  0
  8  9  1  0
  8 10  1  0
 10 11  1  0
 10 12  1  0
 12 13  1  0
 12  3  1  0
  1 14  1  0
  2 15  1  0
  2 16  1  0
  3 17  1  6
  4 18  1  0
  4 19  1  0
  5 20  1  1
  6 21  1  0
  6 22  1  0
  7 23  1  0
  8 24  1  1
  9 25  1  0
 10 26  1  0
 11 27  1  0
 12 28  1  1
 13 29  1  0
M  CHG  1   4   1
M  END
>  <meeko>  (2) 
{"is_sidechain": [false], "free_energy": -5.451, "intermolecular_energy": -7.1, "internal_energy": -0.077}

$$$$
2wvt_ligand
     RDKit          3D

 29 29  0  0  0  0  0  0  0  0999 V2000
  -15.0800    4.4660    3.4500 O   0  0  0  0  0  0  0  0  0  0  0  0
  -15.5380    3.9320    4.6830 C   0  0  0  0  0  0  0  0  0  0  0  0
  -16.8920    3.2260    4.4800 C   0  0  2  0  0  0  0  0  0  0  0  0
  -16.7720    2.1900    3.3890 N   0  0  0  0  0  0  0  0  0  0  0  0
  -17.3240    2.6270    2.0460 C   0  0  1  0  0  0  0  0  0  0  0  0
  -16.8730    1.5750    1.0230 C   0  0  0  0  0  0  0  0  0  0  0  0
  -16.6760    0.3480    1.7480 O   0  0  0  0  0  0  0  0  0  0  0  0
  -18.8430    2.8100    2.1840 C   0  0  1  0  0  0  0  0  0  0  0  0
  -19.4780    1.5230    2.1550 O   0  0  0  0  0  0  0  0  0  0  0  0
  -19.2250    3.4740    3.5290 C   0  0  0  0  0  0  0  0  0  0  0  0
  -20.3260    4.3570    3.3050 O   0  0  0  0  0  0  0  0  0  0  0  0
  -18.0570    4.2160    4.1870 C   0  0  2  0  0  0  0  0  0  0  0  0
  -17.6640    5.2670    3.2900 O   0  0  0  0  0  0  0  0  0  0  0  0
  -14.1450    4.2070    3.3370 H   0  0  0  0  0  0  0  0  0  0  0  0
  -14.8023    3.2073    5.0619 H   0  0  0  0  0  0  0  0  0  0  0  0
  -15.6622    4.7504    5.4074 H   0  0  0  0  0  0  0  0  0  0  0  0
  -17.1475    2.7299    5.4279 H   0  0  0  0  0  0  0  0  0  0  0  0
  -15.7960    1.8990    3.1980 H   0  0  0  0  0  0  0  0  0  0  0  0
  -17.2590    1.3180    3.6470 H   0  0  0  0  0  0  0  0  0  0  0  0
  -16.9475    3.5989    1.6944 H   0  0  0  0  0  0  0  0  0  0  0  0
  -17.6466    1.4397    0.2528 H   0  0  0  0  0  0  0  0  0  0  0  0
  -15.9475    1.8876    0.5172 H   0  0  0  0  0  0  0  0  0  0  0  0
  -17.1840    0.4320    2.5810 H   0  0  0  0  0  0  0  0  0  0  0  0
  -19.1710    3.4522    1.3533 H   0  0  0  0  0  0  0  0  0  0  0  0
  -19.3580    1.1710    1.2460 H   0  0  0  0  0  0  0  0  0  0  0  0
  -19.5071    2.6781    4.2340 H   0  0  0  0  0  0  0  0  0  0  0  0
  -20.0360    5.0390    2.6670 H   0  0  0  0  0  0  0  0  0  0  0  0
  -18.3474    4.6505    5.1549 H   0  0  0  0  0  0  0  0  0  0  0  0
  -18.4230    5.8890    3.2370 H   0  0  0  0  0  0  0  0  0  0  0  0
  1  2  1  0
  2  3  1  0
  3  4  1  0
  4  5  1  0
  5  6  1  0
  6  7  1  0
  5  8  1  0
  8  9  1  0
  8 10  1  0
 10 11  1  0
 10 12  1  0
 12 13  1  0
 12  3  1  0
  1 14  1  0
  2 15  1  0
  2 16  1  0
  3 17  1  1
  4 18  1  0
  4 19  1  0
  5 20  1  6
  6 21  1  0
  6 22  1  0
  7 23  1  0
  8 24  1  6
  9 25  1  0
 10 26  1  0
 11 27  1  0
 12 28  1  1
 13 29  1  0
M  CHG  1   4   1
M  END
>  <meeko>  (3) 
{"is_sidechain": [false], "free_energy": -5.438, "intermolecular_energy": -6.791, "internal_energy": -0.37}

$$$$
2wvt_ligand
     RDKit          3D

 29 29  0  0  0  0  0  0  0  0999 V2000
  -20.3510    4.9690    5.7590 O   0  0  0  0  0  0  0  0  0  0  0  0
  -19.6850    4.9310    4.5040 C   0  0  0  0  0  0  0  0  0  0  0  0
  -18.9960    3.5670    4.3160 C   0  0  2  0  0  0  0  0  0  0  0  0
  -18.0250    3.3220    5.4450 N   0  0  0  0  0  0  0  0  0  0  0  0
  -16.5740    3.5830    5.0920 C   0  0  1  0  0  0  0  0  0  0  0  0
  -15.7880    3.5480    6.4110 C   0  0  0  0  0  0  0  0  0  0  0  0
  -16.4710    2.6260    7.2770 O   0  0  0  0  0  0  0  0  0  0  0  0
  -16.1410    2.5560    4.0340 C   0  0  1  0  0  0  0  0  0  0  0  0
  -15.8780    1.3000    4.6770 O   0  0  0  0  0  0  0  0  0  0  0  0
  -17.2500    2.3050    2.9850 C   0  0  0  0  0  0  0  0  0  0  0  0
  -16.6370    2.1230    1.7070 O   0  0  0  0  0  0  0  0  0  0  0  0
  -18.2940    3.4260    2.9330 C   0  0  2  0  0  0  0  0  0  0  0  0
  -17.6070    4.6270    2.5470 O   0  0  0  0  0  0  0  0  0  0  0  0
  -19.9220    4.3180    6.3480 H   0  0  0  0  0  0  0  0  0  0  0  0
  -20.4177    5.0835    3.6978 H   0  0  0  0  0  0  0  0  0  0  0  0
  -18.9262    5.7267    4.4731 H   0  0  0  0  0  0  0  0  0  0  0  0
  -19.7819    2.7977    4.3377 H   0  0  0  0  0  0  0  0  0  0  0  0
  -18.2080    3.9030    6.2830 H   0  0  0  0  0  0  0  0  0  0  0  0
  -18.0830    2.3490    5.7830 H   0  0  0  0  0  0  0  0  0  0  0  0
  -16.3878    4.5653    4.6332 H   0  0  0  0  0  0  0  0  0  0  0  0
  -14.7586    3.2054    6.2295 H   0  0  0  0  0  0  0  0  0  0  0  0
  -15.7330    4.5487    6.8645 H   0  0  0  0  0  0  0  0  0  0  0  0
  -15.7780    2.1160    7.7450 H   0  0  0  0  0  0  0  0  0  0  0  0
  -15.2490    2.9597    3.5326 H   0  0  0  0  0  0  0  0  0  0  0  0
  -14.9140    1.1330    4.5850 H   0  0  0  0  0  0  0  0  0  0  0  0
  -17.7994    1.3991    3.2807 H   0  0  0  0  0  0  0  0  0  0  0  0
  -16.5560    3.0040    1.2880 H   0  0  0  0  0  0  0  0  0  0  0  0
  -19.0867    3.2076    2.2023 H   0  0  0  0  0  0  0  0  0  0  0  0
  -17.7440    4.7290    1.5800 H   0  0  0  0  0  0  0  0  0  0  0  0
  1  2  1  0
  2  3  1  0
  3  4  1  0
  4  5  1  0
  5  6  1  0
  6  7  1  0
  5  8  1  0
  8  9  1  0
  8 10  1  0
 10 11  1  0
 10 12  1  0
 12 13  1  0
 12  3  1  0
  1 14  1  0
  2 15  1  0
  2 16  1  0
  3 17  1  6
  4 18  1  0
  4 19  1  0
  5 20  1  6
  6 21  1  0
  6 22  1  0
  7 23  1  0
  8 24  1  6
  9 25  1  0
 10 26  1  0
 11 27  1  0
 12 28  1  6
 13 29  1  0
M  CHG  1   4   1
M  END
>  <meeko>  (4) 
{"is_sidechain": [false], "free_energy": -5.295, "intermolecular_energy": -6.681, "internal_energy": -0.299}

$$$$
2wvt_ligand
     RDKit          3D

 29 29  0  0  0  0  0  0  0  0999 V2000
  -15.6800    1.4560    4.5200 O   0  0  0  0  0  0  0  0  0  0  0  0
  -16.2660    2.1110    5.6350 C   0  0  0  0  0  0  0  0  0  0  0  0
  -16.8870    3.4500    5.1920 C   0  0  2  0  0  0  0  0  0  0  0  0
  -18.0130    3.8270    6.1230 N   0  0  0  0  0  0  0  0  0  0  0  0
  -19.3990    3.5360    5.5810 C   0  0  1  0  0  0  0  0  0  0  0  0
  -20.3760    3.7250    6.7510 C   0  0  0  0  0  0  0  0  0  0  0  0
  -19.5890    4.1130    7.8900 O   0  0  0  0  0  0  0  0  0  0  0  0
  -19.6400    4.4390    4.3620 C   0  0  1  0  0  0  0  0  0  0  0  0
  -19.9690    5.7620    4.8130 O   0  0  0  0  0  0  0  0  0  0  0  0
  -18.3780    4.5630    3.4760 C   0  0  0  0  0  0  0  0  0  0  0  0
  -18.7840    4.6030    2.1060 O   0  0  0  0  0  0  0  0  0  0  0  0
  -17.3650    3.4380    3.7100 C   0  0  2  0  0  0  0  0  0  0  0  0
  -18.0130    2.2050    3.3590 O   0  0  0  0  0  0  0  0  0  0  0  0
  -16.3300    0.8160    4.1690 H   0  0  0  0  0  0  0  0  0  0  0  0
  -17.0502    1.4697    6.0636 H   0  0  0  0  0  0  0  0  0  0  0  0
  -15.4894    2.3048    6.3895 H   0  0  0  0  0  0  0  0  0  0  0  0
  -16.0961    4.2123    5.2494 H   0  0  0  0  0  0  0  0  0  0  0  0
  -17.9740    3.3430    7.0390 H   0  0  0  0  0  0  0  0  0  0  0  0
  -17.9840    4.8310    6.3560 H   0  0  0  0  0  0  0  0  0  0  0  0
  -19.5366    2.5094    5.2108 H   0  0  0  0  0  0  0  0  0  0  0  0
  -21.1074    4.5106    6.5106 H   0  0  0  0  0  0  0  0  0  0  0  0
  -20.9338    2.7988    6.9534 H   0  0  0  0  0  0  0  0  0  0  0  0
  -19.3420    5.0500    7.7530 H   0  0  0  0  0  0  0  0  0  0  0  0
  -20.4538    3.9863    3.7765 H   0  0  0  0  0  0  0  0  0  0  0  0
  -20.7170    6.0710    4.2570 H   0  0  0  0  0  0  0  0  0  0  0  0
  -17.8594    5.4932    3.7514 H   0  0  0  0  0  0  0  0  0  0  0  0
  -19.7610    4.6620    2.0870 H   0  0  0  0  0  0  0  0  0  0  0  0
  -16.4653    3.5678    3.0905 H   0  0  0  0  0  0  0  0  0  0  0  0
  -18.3420    2.3140    2.4400 H   0  0  0  0  0  0  0  0  0  0  0  0
  1  2  1  0
  2  3  1  0
  3  4  1  0
  4  5  1  0
  5  6  1  0
  6  7  1  0
  5  8  1  0
  8  9  1  0
  8 10  1  0
 10 11  1  0
 10 12  1  0
 12 13  1  0
 12  3  1  0
  1 14  1  0
  2 15  1  0
  2 16  1  0
  3 17  1  6
  4 18  1  0
  4 19  1  0
  5 20  1  6
  6 21  1  0
  6 22  1  0
  7 23  1  0
  8 24  1  6
  9 25  1  0
 10 26  1  0
 11 27  1  0
 12 28  1  6
 13 29  1  0
M  CHG  1   4   1
M  END
>  <meeko>  (5) 
{"is_sidechain": [false], "free_energy": -5.217, "intermolecular_energy": -6.586, "internal_energy": -0.296}

$$$$
2wvt_ligand
     RDKit          3D

 29 29  0  0  0  0  0  0  0  0999 V2000
  -21.0750    1.7320    1.5110 O   0  0  0  0  0  0  0  0  0  0  0  0
  -19.6810    1.5160    1.6720 C   0  0  0  0  0  0  0  0  0  0  0  0
  -18.9530    2.8660    1.8170 C   0  0  2  0  0  0  0  0  0  0  0  0
  -17.5110    2.6340    2.1960 N   0  0  0  0  0  0  0  0  0  0  0  0
  -17.2080    2.8400    3.6670 C   0  0  1  0  0  0  0  0  0  0  0  0
  -15.7890    2.3020    3.9030 C   0  0  0  0  0  0  0  0  0  0  0  0
  -15.9100    1.1970    4.8150 O   0  0  0  0  0  0  0  0  0  0  0  0
  -17.4190    4.3250    4.0010 C   0  0  1  0  0  0  0  0  0  0  0  0
  -16.2840    5.0760    3.5440 O   0  0  0  0  0  0  0  0  0  0  0  0
  -18.6630    4.9060    3.2880 C   0  0  0  0  0  0  0  0  0  0  0  0
  -19.3030    5.8320    4.1690 O   0  0  0  0  0  0  0  0  0  0  0  0
  -19.6490    3.8280    2.8240 C   0  0  2  0  0  0  0  0  0  0  0  0
  -20.1120    3.1430    3.9980 O   0  0  0  0  0  0  0  0  0  0  0  0
  -21.3060    1.5420    0.5810 H   0  0  0  0  0  0  0  0  0  0  0  0
  -19.5078    0.9099    2.5734 H   0  0  0  0  0  0  0  0  0  0  0  0
  -19.2924    0.9888    0.7882 H   0  0  0  0  0  0  0  0  0  0  0  0
  -18.9969    3.3674    0.8389 H   0  0  0  0  0  0  0  0  0  0  0  0
  -17.1740    1.6770    1.9830 H   0  0  0  0  0  0  0  0  0  0  0  0
  -16.8810    3.2570    1.6680 H   0  0  0  0  0  0  0  0  0  0  0  0
  -17.8758    2.2935    4.3491 H   0  0  0  0  0  0  0  0  0  0  0  0
  -15.3498    1.9628    2.9532 H   0  0  0  0  0  0  0  0  0  0  0  0
  -15.1339    3.0838    4.3149 H   0  0  0  0  0  0  0  0  0  0  0  0
  -16.8610    1.1190    5.0360 H   0  0  0  0  0  0  0  0  0  0  0  0
  -17.5543    4.3990    5.0901 H   0  0  0  0  0  0  0  0  0  0  0  0
  -15.4860    4.5630    3.7990 H   0  0  0  0  0  0  0  0  0  0  0  0
  -18.3243    5.4149    2.3735 H   0  0  0  0  0  0  0  0  0  0  0  0
  -19.9940    5.3460    4.6620 H   0  0  0  0  0  0  0  0  0  0  0  0
  -20.5078    4.2661    2.2944 H   0  0  0  0  0  0  0  0  0  0  0  0
  -20.6260    3.7980    4.5200 H   0  0  0  0  0  0  0  0  0  0  0  0
  1  2  1  0
  2  3  1  0
  3  4  1  0
  4  5  1  0
  5  6  1  0
  6  7  1  0
  5  8  1  0
  8  9  1  0
  8 10  1  0
 10 11  1  0
 10 12  1  0
 12 13  1  0
 12  3  1  0
  1 14  1  0
  2 15  1  0
  2 16  1  0
  3 17  1  6
  4 18  1  0
  4 19  1  0
  5 20  1  1
  6 21  1  0
  6 22  1  0
  7 23  1  0
  8 24  1  1
  9 25  1  0
 10 26  1  0
 11 27  1  0
 12 28  1  6
 13 29  1  0
M  CHG  1   4   1
M  END
>  <meeko>  (6) 
{"is_sidechain": [false], "free_energy": -5.196, "intermolecular_energy": -6.585, "internal_energy": -0.271}

$$$$
2wvt_ligand
     RDKit          3D

 29 29  0  0  0  0  0  0  0  0999 V2000
  -18.1700    2.3380    0.3520 O   0  0  0  0  0  0  0  0  0  0  0  0
  -17.0490    1.9170    1.1160 C   0  0  0  0  0  0  0  0  0  0  0  0
  -17.4220    1.8620    2.6100 C   0  0  2  0  0  0  0  0  0  0  0  0
  -18.6040    2.7620    2.8780 N   0  0  0  0  0  0  0  0  0  0  0  0
  -18.2460    4.1010    3.4920 C   0  0  1  0  0  0  0  0  0  0  0  0
  -19.5150    4.9640    3.4340 C   0  0  0  0  0  0  0  0  0  0  0  0
  -19.2600    6.1320    4.2320 O   0  0  0  0  0  0  0  0  0  0  0  0
  -17.6760    3.8520    4.8960 C   0  0  1  0  0  0  0  0  0  0  0  0
  -18.7570    3.5940    5.8050 O   0  0  0  0  0  0  0  0  0  0  0  0
  -16.7490    2.6130    4.9320 C   0  0  0  0  0  0  0  0  0  0  0  0
  -15.6640    2.8800    5.8240 O   0  0  0  0  0  0  0  0  0  0  0  0
  -16.2290    2.2100    3.5480 C   0  0  2  0  0  0  0  0  0  0  0  0
  -15.4500    3.3100    3.0520 O   0  0  0  0  0  0  0  0  0  0  0  0
  -17.8410    2.7020   -0.4930 H   0  0  0  0  0  0  0  0  0  0  0  0
  -16.7347    0.9173    0.7817 H   0  0  0  0  0  0  0  0  0  0  0  0
  -16.2257    2.6327    0.9749 H   0  0  0  0  0  0  0  0  0  0  0  0
  -17.6960    0.8219    2.8406 H   0  0  0  0  0  0  0  0  0  0  0  0
  -19.1510    2.9920    2.0280 H   0  0  0  0  0  0  0  0  0  0  0  0
  -19.2810    2.3110    3.5110 H   0  0  0  0  0  0  0  0  0  0  0  0
  -17.4592    4.6513    2.9553 H   0  0  0  0  0  0  0  0  0  0  0  0
  -19.7281    5.2546    2.3947 H   0  0  0  0  0  0  0  0  0  0  0  0
  -20.3866    4.4100    3.8126 H   0  0  0  0  0  0  0  0  0  0  0  0
  -19.8740    6.0900    4.9940 H   0  0  0  0  0  0  0  0  0  0  0  0
  -17.1016    4.7467    5.1781 H   0  0  0  0  0  0  0  0  0  0  0  0
  -18.3500    3.3400    6.6620 H   0  0  0  0  0  0  0  0  0  0  0  0
  -17.3394    1.7566    5.2897 H   0  0  0  0  0  0  0  0  0  0  0  0
  -15.0530    2.1170    5.7850 H   0  0  0  0  0  0  0  0  0  0  0  0
  -15.5993    1.3095    3.5979 H   0  0  0  0  0  0  0  0  0  0  0  0
  -14.7250    3.4540    3.6980 H   0  0  0  0  0  0  0  0  0  0  0  0
  1  2  1  0
  2  3  1  0
  3  4  1  0
  4  5  1  0
  5  6  1  0
  6  7  1  0
  5  8  1  0
  8  9  1  0
  8 10  1  0
 10 11  1  0
 10 12  1  0
 12 13  1  0
 12  3  1  0
  1 14  1  0
  2 15  1  0
  2 16  1  0
  3 17  1  1
  4 18  1  0
  4 19  1  0
  5 20  1  6
  6 21  1  0
  6 22  1  0
  7 23  1  0
  8 24  1  1
  9 25  1  0
 10 26  1  0
 11 27  1  0
 12 28  1  1
 13 29  1  0
M  CHG  1   4   1
M  END
>  <meeko>  (7) 
{"is_sidechain": [false], "free_energy": -4.96, "intermolecular_energy": -6.247, "internal_energy": -0.311}

$$$$
2wvt_ligand
     RDKit          3D

 29 29  0  0  0  0  0  0  0  0999 V2000
  -21.1810   -0.6790   17.0920 O   0  0  0  0  0  0  0  0  0  0  0  0
  -22.2510   -0.2080   16.2850 C   0  0  0  0  0  0  0  0  0  0  0  0
  -22.4160   -1.1140   15.0510 C   0  0  2  0  0  0  0  0  0  0  0  0
  -21.3680   -2.2000   15.0660 N   0  0  0  0  0  0  0  0  0  0  0  0
  -20.1890   -1.9480   14.1470 C   0  0  1  0  0  0  0  0  0  0  0  0
  -19.1260   -2.9980   14.5000 C   0  0  0  0  0  0  0  0  0  0  0  0
  -18.4530   -2.5280   15.6800 O   0  0  0  0  0  0  0  0  0  0  0  0
  -20.6930   -1.9740   12.6960 C   0  0  1  0  0  0  0  0  0  0  0  0
  -20.8700   -3.3380   12.2830 O   0  0  0  0  0  0  0  0  0  0  0  0
  -22.0650   -1.2740   12.5490 C   0  0  0  0  0  0  0  0  0  0  0  0
  -22.0890   -0.5770   11.3010 O   0  0  0  0  0  0  0  0  0  0  0  0
  -22.3850   -0.3250   13.7090 C   0  0  2  0  0  0  0  0  0  0  0  0
  -21.3800    0.7010   13.7050 O   0  0  0  0  0  0  0  0  0  0  0  0
  -21.5620   -1.1990   17.8270 H   0  0  0  0  0  0  0  0  0  0  0  0
  -23.1816   -0.2177   16.8714 H   0  0  0  0  0  0  0  0  0  0  0  0
  -22.0302    0.8175   15.9540 H   0  0  0  0  0  0  0  0  0  0  0  0
  -23.4148   -1.5707   15.1124 H   0  0  0  0  0  0  0  0  0  0  0  0
  -20.9520   -2.3620   16.0020 H   0  0  0  0  0  0  0  0  0  0  0  0
  -21.7710   -3.1110   14.7980 H   0  0  0  0  0  0  0  0  0  0  0  0
  -19.7186   -0.9613   14.2703 H   0  0  0  0  0  0  0  0  0  0  0  0
  -19.6039   -3.9688   14.6980 H   0  0  0  0  0  0  0  0  0  0  0  0
  -18.4172   -3.1361   13.6702 H   0  0  0  0  0  0  0  0  0  0  0  0
  -19.1500   -2.2250   16.2980 H   0  0  0  0  0  0  0  0  0  0  0  0
  -19.9472   -1.4485   12.0814 H   0  0  0  0  0  0  0  0  0  0  0  0
  -20.0390   -3.6060   11.8340 H   0  0  0  0  0  0  0  0  0  0  0  0
  -22.8466   -2.0476   12.5738 H   0  0  0  0  0  0  0  0  0  0  0  0
  -21.2190   -0.1450   11.1850 H   0  0  0  0  0  0  0  0  0  0  0  0
  -23.3778    0.1348   13.5949 H   0  0  0  0  0  0  0  0  0  0  0  0
  -20.6000    0.3310   14.1730 H   0  0  0  0  0  0  0  0  0  0  0  0
  1  2  1  0
  2  3  1  0
  3  4  1  0
  4  5  1  0
  5  6  1  0
  6  7  1  0
  5  8  1  0
  8  9  1  0
  8 10  1  0
 10 11  1  0
 10 12  1  0
 12 13  1  0
 12  3  1  0
  1 14  1  0
  2 15  1  0
  2 16  1  0
  3 17  1  1
  4 18  1  0
  4 19  1  0
  5 20  1  1
  6 21  1  0
  6 22  1  0
  7 23  1  0
  8 24  1  6
  9 25  1  0
 10 26  1  0
 11 27  1  0
 12 28  1  6
 13 29  1  0
M  CHG  1   4   1
M  END
>  <meeko>  (8) 
{"is_sidechain": [false], "free_energy": -4.937, "intermolecular_energy": -6.432, "internal_energy": -0.097}

$$$$
2wvt_ligand
     RDKit          3D

 29 29  0  0  0  0  0  0  0  0999 V2000
  -27.1590    5.0240    3.1550 O   0  0  0  0  0  0  0  0  0  0  0  0
  -26.5420    5.9360    2.2580 C   0  0  0  0  0  0  0  0  0  0  0  0
  -25.8260    5.1630    1.1340 C   0  0  2  0  0  0  0  0  0  0  0  0
  -25.2580    6.1320    0.1260 N   0  0  0  0  0  0  0  0  0  0  0  0
  -26.0850    6.2810   -1.1360 C   0  0  1  0  0  0  0  0  0  0  0  0
  -25.5100    7.4830   -1.8980 C   0  0  0  0  0  0  0  0  0  0  0  0
  -24.1150    7.5620   -1.5580 O   0  0  0  0  0  0  0  0  0  0  0  0
  -26.0610    4.9430   -1.8900 C   0  0  1  0  0  0  0  0  0  0  0  0
  -24.8110    4.8170   -2.5870 O   0  0  0  0  0  0  0  0  0  0  0  0
  -26.1670    3.7360   -0.9290 C   0  0  0  0  0  0  0  0  0  0  0  0
  -26.9620    2.7240   -1.5520 O   0  0  0  0  0  0  0  0  0  0  0  0
  -26.7390    4.1070    0.4440 C   0  0  2  0  0  0  0  0  0  0  0  0
  -28.0710    4.5990    0.2290 O   0  0  0  0  0  0  0  0  0  0  0  0
  -27.4730    5.5290    3.9310 H   0  0  0  0  0  0  0  0  0  0  0  0
  -27.3090    6.5909    1.8189 H   0  0  0  0  0  0  0  0  0  0  0  0
  -25.8057    6.5415    2.8068 H   0  0  0  0  0  0  0  0  0  0  0  0
  -25.0052    4.5965    1.5981 H   0  0  0  0  0  0  0  0  0  0  0  0
  -25.1480    7.0960    0.4920 H   0  0  0  0  0  0  0  0  0  0  0  0
  -24.3080    5.8540   -0.1660 H   0  0  0  0  0  0  0  0  0  0  0  0
  -27.1499    6.4930   -0.9597 H   0  0  0  0  0  0  0  0  0  0  0  0
  -25.6279    7.3359   -2.9817 H   0  0  0  0  0  0  0  0  0  0  0  0
  -26.0355    8.4104   -1.6265 H   0  0  0  0  0  0  0  0  0  0  0  0
  -23.6190    7.5320   -2.4020 H   0  0  0  0  0  0  0  0  0  0  0  0
  -26.9208    4.9398   -2.5761 H   0  0  0  0  0  0  0  0  0  0  0  0
  -24.9140    5.2960   -3.4380 H   0  0  0  0  0  0  0  0  0  0  0  0
  -25.1496    3.3640   -0.7381 H   0  0  0  0  0  0  0  0  0  0  0  0
  -27.0150    1.9660   -0.9360 H   0  0  0  0  0  0  0  0  0  0  0  0
  -26.7747    3.2373    1.1166 H   0  0  0  0  0  0  0  0  0  0  0  0
  -28.6810    3.8630    0.4520 H   0  0  0  0  0  0  0  0  0  0  0  0
  1  2  1  0
  2  3  1  0
  3  4  1  0
  4  5  1  0
  5  6  1  0
  6  7  1  0
  5  8  1  0
  8  9  1  0
  8 10  1  0
 10 11  1  0
 10 12  1  0
 12 13  1  0
 12  3  1  0
  1 14  1  0
  2 15  1  0
  2 16  1  0
  3 17  1  1
  4 18  1  0
  4 19  1  0
  5 20  1  1
  6 21  1  0
  6 22  1  0
  7 23  1  0
  8 24  1  6
  9 25  1  0
 10 26  1  0
 11 27  1  0
 12 28  1  1
 13 29  1  0
M  CHG  1   4   1
M  END
>  <meeko>  (9) 
{"is_sidechain": [false], "free_energy": -4.842, "intermolecular_energy": -5.921, "internal_energy": -0.487}

$$$$
