2fxs_ligand
     RDKit          3D

 48 49  0  0  0  0  0  0  0  0999 V2000
   18.5600   34.5670    1.2510 C   0  0  0  0  0  0  0  0  0  0  0  0
   18.7480   34.1770    2.6120 O   0  0  0  0  0  0  0  0  0  0  0  0
   19.8560   33.4370    2.8290 C   0  0  0  0  0  0  0  0  0  0  0  0
   20.4130   32.6950    2.0340 O   0  0  0  0  0  0  0  0  0  0  0  0
   20.4390   33.7520    4.1500 C   0  0  0  0  0  0  0  0  0  0  0  0
   19.9370   33.0140    5.2380 C   0  0  0  0  0  0  0  0  0  0  0  0
   18.9250   32.0970    5.1230 O   0  0  0  0  0  0  0  0  0  0  0  0
   20.4500   33.1940    6.5170 C   0  0  0  0  0  0  0  0  0  0  0  0
   21.4380   34.1450    6.7200 C   0  0  0  0  0  0  0  0  0  0  0  0
   21.9010   34.2950    8.0000 O   0  0  0  0  0  0  0  0  0  0  0  0
   21.9150   34.9330    5.6590 C   0  0  0  0  0  0  0  0  0  0  0  0
   23.0930   36.1490    6.0380 Cl  0  0  0  0  0  0  0  0  0  0  0  0
   21.4250   34.7530    4.3460 C   0  0  0  0  0  0  0  0  0  0  0  0
   21.8660   35.6730    3.2220 C   0  0  0  0  0  0  0  0  0  0  0  0
   22.7500   34.9380    2.2140 C   0  0  0  0  0  0  0  0  0  0  0  0
   23.9660   34.3130    2.8780 C   0  0  0  0  0  0  0  0  0  0  0  0
   24.8640   34.9920    3.3630 O   0  0  0  0  0  0  0  0  0  0  0  0
   23.8930   32.9290    2.8730 N   0  0  0  0  0  0  0  0  0  0  0  0
   24.7950   31.9990    3.3730 C   0  0  0  0  0  0  0  0  0  0  0  0
   24.9200   31.6770    4.6710 C   0  0  0  0  0  0  0  0  0  0  0  0
   25.8490   30.6210    5.1880 C   0  0  2  0  0  0  0  0  0  0  0  0
   26.7700   31.2480    6.0700 O   0  0  0  0  0  0  0  0  0  0  0  0
   26.6280   29.8790    4.1140 C   0  0  0  0  0  0  0  0  0  0  0  0
   27.4330   28.8840    4.6350 O   0  0  0  0  0  0  0  0  0  0  0  0
   26.8050   27.7380    5.2000 C   0  0  0  0  0  0  0  0  0  0  0  0
   26.5190   30.2050    2.8120 C   0  0  0  0  0  0  0  0  0  0  0  0
   25.6620   31.3290    2.3150 C   0  0  1  0  0  0  0  0  0  0  0  0
   24.8050   30.8110    1.2990 O   0  0  0  0  0  0  0  0  0  0  0  0
   18.0826   35.5574    1.2160 H   0  0  0  0  0  0  0  0  0  0  0  0
   19.5354   34.6120    0.7444 H   0  0  0  0  0  0  0  0  0  0  0  0
   17.9173   33.8320    0.7444 H   0  0  0  0  0  0  0  0  0  0  0  0
   19.3040   31.2240    4.8850 H   0  0  0  0  0  0  0  0  0  0  0  0
   20.0770   32.5898    7.3572 H   0  0  0  0  0  0  0  0  0  0  0  0
   22.4700   35.0870    8.0160 H   0  0  0  0  0  0  0  0  0  0  0  0
   20.9751   36.0571    2.7035 H   0  0  0  0  0  0  0  0  0  0  0  0
   22.4496   36.4972    3.6580 H   0  0  0  0  0  0  0  0  0  0  0  0
   22.1587   34.1438    1.7348 H   0  0  0  0  0  0  0  0  0  0  0  0
   23.1041   35.6699    1.4731 H   0  0  0  0  0  0  0  0  0  0  0  0
   23.0380   32.5210    2.5030 H   0  0  0  0  0  0  0  0  0  0  0  0
   24.3021   32.2223    5.3996 H   0  0  0  0  0  0  0  0  0  0  0  0
   25.2258   29.8627    5.6846 H   0  0  0  0  0  0  0  0  0  0  0  0
   27.6530   31.0110    5.7350 H   0  0  0  0  0  0  0  0  0  0  0  0
   26.8411   27.8038    6.2974 H   0  0  0  0  0  0  0  0  0  0  0  0
   25.7567   27.6940    4.8695 H   0  0  0  0  0  0  0  0  0  0  0  0
   27.3320   26.8308    4.8695 H   0  0  0  0  0  0  0  0  0  0  0  0
   27.0875   29.6167    2.0766 H   0  0  0  0  0  0  0  0  0  0  0  0
   26.3516   32.1056    1.9527 H   0  0  0  0  0  0  0  0  0  0  0  0
   24.1650   31.5170    1.1040 H   0  0  0  0  0  0  0  0  0  0  0  0
  1  2  1  0
  2  3  1  0
  3  4  2  0
  3  5  1  0
  5  6  2  0
  6  7  1  0
  6  8  1  0
  8  9  2  0
  9 10  1  0
  9 11  1  0
 11 12  1  0
 11 13  2  0
 13 14  1  0
 14 15  1  0
 15 16  1  0
 16 17  2  0
 16 18  1  0
 18 19  1  0
 19 20  2  0
 20 21  1  0
 21 22  1  0
 21 23  1  0
 23 24  1  0
 24 25  1  0
 23 26  2  0
 26 27  1  0
 27 28  1  0
 13  5  1  0
 27 19  1  0
  1 29  1  0
  1 30  1  0
  1 31  1  0
  7 32  1  0
  8 33  1  0
 10 34  1  0
 14 35  1  0
 14 36  1  0
 15 37  1  0
 15 38  1  0
 18 39  1  0
 20 40  1  0
 21 41  1  1
 22 42  1  0
 25 43  1  0
 25 44  1  0
 25 45  1  0
 26 46  1  0
 27 47  1  6
 28 48  1  0
M  END
>  <meeko>  (1) 
{"is_sidechain": [false], "free_energy": -6.965, "intermolecular_energy": -10.63, "internal_energy": -1.242}

$$$$
2fxs_ligand
     RDKit          3D

 48 49  0  0  0  0  0  0  0  0999 V2000
   24.5760   35.6840    0.0420 C   0  0  0  0  0  0  0  0  0  0  0  0
   25.1100   34.5250    0.6840 O   0  0  0  0  0  0  0  0  0  0  0  0
   24.2950   33.9820    1.6140 C   0  0  0  0  0  0  0  0  0  0  0  0
   23.0730   33.9770    1.6100 O   0  0  0  0  0  0  0  0  0  0  0  0
   25.0790   33.2210    2.6090 C   0  0  0  0  0  0  0  0  0  0  0  0
   25.3400   31.8750    2.2910 C   0  0  0  0  0  0  0  0  0  0  0  0
   24.8560   31.2600    1.1660 O   0  0  0  0  0  0  0  0  0  0  0  0
   26.1110   31.0820    3.1320 C   0  0  0  0  0  0  0  0  0  0  0  0
   26.5880   31.6210    4.3170 C   0  0  0  0  0  0  0  0  0  0  0  0
   27.3300   30.7950    5.1180 O   0  0  0  0  0  0  0  0  0  0  0  0
   26.2930   32.9440    4.6820 C   0  0  0  0  0  0  0  0  0  0  0  0
   26.8710   33.4920    6.2230 Cl  0  0  0  0  0  0  0  0  0  0  0  0
   25.5310   33.7770    3.8330 C   0  0  0  0  0  0  0  0  0  0  0  0
   25.1280   35.1720    4.2750 C   0  0  0  0  0  0  0  0  0  0  0  0
   24.0530   35.1250    5.3610 C   0  0  0  0  0  0  0  0  0  0  0  0
   22.6530   35.1130    4.7710 C   0  0  0  0  0  0  0  0  0  0  0  0
   22.1470   36.1110    4.2720 O   0  0  0  0  0  0  0  0  0  0  0  0
   22.0750   33.8550    4.8590 N   0  0  0  0  0  0  0  0  0  0  0  0
   20.8200   33.4330    4.4430 C   0  0  0  0  0  0  0  0  0  0  0  0
   20.4690   33.2240    3.1630 C   0  0  0  0  0  0  0  0  0  0  0  0
   19.1320   32.7010    2.7340 C   0  0  2  0  0  0  0  0  0  0  0  0
   18.5240   33.6890    1.9120 O   0  0  0  0  0  0  0  0  0  0  0  0
   18.1860   32.3640    3.8740 C   0  0  0  0  0  0  0  0  0  0  0  0
   16.9860   31.8410    3.4310 O   0  0  0  0  0  0  0  0  0  0  0  0
   16.9520   30.4710    3.0470 C   0  0  0  0  0  0  0  0  0  0  0  0
   18.5240   32.5830    5.1600 C   0  0  0  0  0  0  0  0  0  0  0  0
   19.8260   33.1990    5.5730 C   0  0  1  0  0  0  0  0  0  0  0  0
   20.4350   32.3350    6.5310 O   0  0  0  0  0  0  0  0  0  0  0  0
   24.2439   36.4048    0.8037 H   0  0  0  0  0  0  0  0  0  0  0  0
   25.3522   36.1457   -0.5860 H   0  0  0  0  0  0  0  0  0  0  0  0
   23.7207   35.3940   -0.5860 H   0  0  0  0  0  0  0  0  0  0  0  0
   25.1540   30.3250    1.1540 H   0  0  0  0  0  0  0  0  0  0  0  0
   26.3398   30.0407    2.8613 H   0  0  0  0  0  0  0  0  0  0  0  0
   28.0440   30.4180    4.5700 H   0  0  0  0  0  0  0  0  0  0  0  0
   26.0132   35.6918    4.6701 H   0  0  0  0  0  0  0  0  0  0  0  0
   24.7176   35.7055    3.4049 H   0  0  0  0  0  0  0  0  0  0  0  0
   24.1937   34.2143    5.9617 H   0  0  0  0  0  0  0  0  0  0  0  0
   24.1544   36.0281    5.9809 H   0  0  0  0  0  0  0  0  0  0  0  0
   22.6620   33.1110    5.2290 H   0  0  0  0  0  0  0  0  0  0  0  0
   21.2091   33.4509    2.3815 H   0  0  0  0  0  0  0  0  0  0  0  0
   19.3141   31.7536    2.2056 H   0  0  0  0  0  0  0  0  0  0  0  0
   18.8380   34.5430    2.2580 H   0  0  0  0  0  0  0  0  0  0  0  0
   16.9363   29.8383    3.9467 H   0  0  0  0  0  0  0  0  0  0  0  0
   16.0488   30.2802    2.4488 H   0  0  0  0  0  0  0  0  0  0  0  0
   17.8446   30.2356    2.4488 H   0  0  0  0  0  0  0  0  0  0  0  0
   17.8091   32.2955    5.9450 H   0  0  0  0  0  0  0  0  0  0  0  0
   19.5830   34.1948    5.9722 H   0  0  0  0  0  0  0  0  0  0  0  0
   21.2240   31.9680    6.0950 H   0  0  0  0  0  0  0  0  0  0  0  0
  1  2  1  0
  2  3  1  0
  3  4  2  0
  3  5  1  0
  5  6  2  0
  6  7  1  0
  6  8  1  0
  8  9  2  0
  9 10  1  0
  9 11  1  0
 11 12  1  0
 11 13  2  0
 13 14  1  0
 14 15  1  0
 15 16  1  0
 16 17  2  0
 16 18  1  0
 18 19  1  0
 19 20  2  0
 20 21  1  0
 21 22  1  0
 21 23  1  0
 23 24  1  0
 24 25  1  0
 23 26  2  0
 26 27  1  0
 27 28  1  0
 13  5  1  0
 27 19  1  0
  1 29  1  0
  1 30  1  0
  1 31  1  0
  7 32  1  0
  8 33  1  0
 10 34  1  0
 14 35  1  0
 14 36  1  0
 15 37  1  0
 15 38  1  0
 18 39  1  0
 20 40  1  0
 21 41  1  6
 22 42  1  0
 25 43  1  0
 25 44  1  0
 25 45  1  0
 26 46  1  0
 27 47  1  1
 28 48  1  0
M  END
>  <meeko>  (2) 
{"is_sidechain": [false], "free_energy": -6.822, "intermolecular_energy": -10.208, "internal_energy": -1.444}

$$$$
2fxs_ligand
     RDKit          3D

 48 49  0  0  0  0  0  0  0  0999 V2000
   21.2610   36.1650    7.2720 C   0  0  0  0  0  0  0  0  0  0  0  0
   22.0980   35.8600    6.1550 O   0  0  0  0  0  0  0  0  0  0  0  0
   22.1730   34.5450    5.8610 C   0  0  0  0  0  0  0  0  0  0  0  0
   22.9960   33.7430    6.2770 O   0  0  0  0  0  0  0  0  0  0  0  0
   21.0030   34.1250    5.0620 C   0  0  0  0  0  0  0  0  0  0  0  0
   20.1440   33.1910    5.6700 C   0  0  0  0  0  0  0  0  0  0  0  0
   20.3840   32.6370    6.9010 O   0  0  0  0  0  0  0  0  0  0  0  0
   18.9870   32.7660    5.0280 C   0  0  0  0  0  0  0  0  0  0  0  0
   18.7080   33.2410    3.7560 C   0  0  0  0  0  0  0  0  0  0  0  0
   17.5640   32.7810    3.1610 O   0  0  0  0  0  0  0  0  0  0  0  0
   19.5800   34.1300    3.1070 C   0  0  0  0  0  0  0  0  0  0  0  0
   19.1760   34.5990    1.4860 Cl  0  0  0  0  0  0  0  0  0  0  0  0
   20.7500   34.5940    3.7480 C   0  0  0  0  0  0  0  0  0  0  0  0
   21.7410   35.4730    3.0070 C   0  0  0  0  0  0  0  0  0  0  0  0
   22.5970   34.6560    2.0380 C   0  0  0  0  0  0  0  0  0  0  0  0
   23.8630   34.1390    2.7000 C   0  0  0  0  0  0  0  0  0  0  0  0
   24.7230   34.8930    3.1400 O   0  0  0  0  0  0  0  0  0  0  0  0
   23.8820   32.7540    2.7490 N   0  0  0  0  0  0  0  0  0  0  0  0
   24.8520   31.9060    3.2640 C   0  0  0  0  0  0  0  0  0  0  0  0
   25.0510   31.6780    4.5740 C   0  0  0  0  0  0  0  0  0  0  0  0
   26.0560   30.7060    5.1130 C   0  0  2  0  0  0  0  0  0  0  0  0
   26.9820   31.4360    5.9080 O   0  0  0  0  0  0  0  0  0  0  0  0
   26.8240   29.9330    4.0550 C   0  0  0  0  0  0  0  0  0  0  0  0
   27.7030   29.0150    4.6000 O   0  0  0  0  0  0  0  0  0  0  0  0
   27.1610   27.9050    5.3060 C   0  0  0  0  0  0  0  0  0  0  0  0
   26.6410   30.1640    2.7400 C   0  0  0  0  0  0  0  0  0  0  0  0
   25.7050   31.2090    2.2120 C   0  0  1  0  0  0  0  0  0  0  0  0
   24.8320   30.5820    1.2750 O   0  0  0  0  0  0  0  0  0  0  0  0
   21.8080   35.9657    8.2053 H   0  0  0  0  0  0  0  0  0  0  0  0
   20.9728   37.2259    7.2353 H   0  0  0  0  0  0  0  0  0  0  0  0
   20.3578   35.5382    7.2353 H   0  0  0  0  0  0  0  0  0  0  0  0
   20.1640   33.2910    7.5980 H   0  0  0  0  0  0  0  0  0  0  0  0
   18.3017   32.0620    5.5227 H   0  0  0  0  0  0  0  0  0  0  0  0
   17.2500   32.0160    3.6790 H   0  0  0  0  0  0  0  0  0  0  0  0
   21.1879   36.2361    2.4397 H   0  0  0  0  0  0  0  0  0  0  0  0
   22.4073   35.9420    3.7460 H   0  0  0  0  0  0  0  0  0  0  0  0
   22.0081   33.7993    1.6784 H   0  0  0  0  0  0  0  0  0  0  0  0
   22.8906   35.3121    1.2053 H   0  0  0  0  0  0  0  0  0  0  0  0
   23.0490   32.2770    2.4130 H   0  0  0  0  0  0  0  0  0  0  0  0
   24.4383   32.2396    5.2945 H   0  0  0  0  0  0  0  0  0  0  0  0
   25.4955   29.9530    5.6864 H   0  0  0  0  0  0  0  0  0  0  0  0
   27.8100   31.4480    5.3950 H   0  0  0  0  0  0  0  0  0  0  0  0
   27.2471   28.0814    6.3883 H   0  0  0  0  0  0  0  0  0  0  0  0
   26.1013   27.7818    5.0377 H   0  0  0  0  0  0  0  0  0  0  0  0
   27.7155   26.9936    5.0377 H   0  0  0  0  0  0  0  0  0  0  0  0
   27.2063   29.5558    2.0186 H   0  0  0  0  0  0  0  0  0  0  0  0
   26.3366   31.9921    1.7672 H   0  0  0  0  0  0  0  0  0  0  0  0
   23.9290   30.7720    1.5820 H   0  0  0  0  0  0  0  0  0  0  0  0
  1  2  1  0
  2  3  1  0
  3  4  2  0
  3  5  1  0
  5  6  2  0
  6  7  1  0
  6  8  1  0
  8  9  2  0
  9 10  1  0
  9 11  1  0
 11 12  1  0
 11 13  2  0
 13 14  1  0
 14 15  1  0
 15 16  1  0
 16 17  2  0
 16 18  1  0
 18 19  1  0
 19 20  2  0
 20 21  1  0
 21 22  1  0
 21 23  1  0
 23 24  1  0
 24 25  1  0
 23 26  2  0
 26 27  1  0
 27 28  1  0
 13  5  1  0
 27 19  1  0
  1 29  1  0
  1 30  1  0
  1 31  1  0
  7 32  1  0
  8 33  1  0
 10 34  1  0
 14 35  1  0
 14 36  1  0
 15 37  1  0
 15 38  1  0
 18 39  1  0
 20 40  1  0
 21 41  1  1
 22 42  1  0
 25 43  1  0
 25 44  1  0
 25 45  1  0
 26 46  1  0
 27 47  1  6
 28 48  1  0
M  END
>  <meeko>  (3) 
{"is_sidechain": [false], "free_energy": -6.819, "intermolecular_energy": -10.22, "internal_energy": -1.428}

$$$$
2fxs_ligand
     RDKit          3D

 48 49  0  0  0  0  0  0  0  0999 V2000
   26.2500   37.8050    5.2780 C   0  0  0  0  0  0  0  0  0  0  0  0
   26.2260   36.8310    4.2330 O   0  0  0  0  0  0  0  0  0  0  0  0
   25.0010   36.3300    3.9700 C   0  0  0  0  0  0  0  0  0  0  0  0
   23.9260   36.8880    4.1360 O   0  0  0  0  0  0  0  0  0  0  0  0
   25.1100   35.0260    3.2840 C   0  0  0  0  0  0  0  0  0  0  0  0
   24.9120   35.0440    1.8910 C   0  0  0  0  0  0  0  0  0  0  0  0
   24.5730   36.1740    1.1930 O   0  0  0  0  0  0  0  0  0  0  0  0
   25.0420   33.8830    1.1390 C   0  0  0  0  0  0  0  0  0  0  0  0
   25.3280   32.6900    1.7840 C   0  0  0  0  0  0  0  0  0  0  0  0
   25.4320   31.5710    1.0010 O   0  0  0  0  0  0  0  0  0  0  0  0
   25.4750   32.6380    3.1800 C   0  0  0  0  0  0  0  0  0  0  0  0
   25.7510   31.0810    3.8930 Cl  0  0  0  0  0  0  0  0  0  0  0  0
   25.3700   33.8090    3.9630 C   0  0  0  0  0  0  0  0  0  0  0  0
   25.4270   33.7340    5.4780 C   0  0  0  0  0  0  0  0  0  0  0  0
   24.0940   34.1400    6.1080 C   0  0  0  0  0  0  0  0  0  0  0  0
   22.9610   33.2280    5.6690 C   0  0  0  0  0  0  0  0  0  0  0  0
   23.0150   32.0110    5.8020 O   0  0  0  0  0  0  0  0  0  0  0  0
   21.9000   33.9500    5.1460 N   0  0  0  0  0  0  0  0  0  0  0  0
   20.6910   33.4950    4.6370 C   0  0  0  0  0  0  0  0  0  0  0  0
   20.4380   33.2930    3.3330 C   0  0  0  0  0  0  0  0  0  0  0  0
   19.1520   32.7340    2.8040 C   0  0  2  0  0  0  0  0  0  0  0  0
   18.5720   33.7140    1.9530 O   0  0  0  0  0  0  0  0  0  0  0  0
   18.1400   32.3500    3.8700 C   0  0  0  0  0  0  0  0  0  0  0  0
   16.9920   31.7960    3.3370 O   0  0  0  0  0  0  0  0  0  0  0  0
   17.0190   30.4220    2.9670 C   0  0  0  0  0  0  0  0  0  0  0  0
   18.3800   32.5620    5.1790 C   0  0  0  0  0  0  0  0  0  0  0  0
   19.6290   33.2130    5.6910 C   0  0  1  0  0  0  0  0  0  0  0  0
   20.1970   32.3550    6.6790 O   0  0  0  0  0  0  0  0  0  0  0  0
   26.2375   37.2966    6.2534 H   0  0  0  0  0  0  0  0  0  0  0  0
   27.1634   38.4120    5.1926 H   0  0  0  0  0  0  0  0  0  0  0  0
   25.3676   38.4562    5.1926 H   0  0  0  0  0  0  0  0  0  0  0  0
   23.6860   36.0530    0.7900 H   0  0  0  0  0  0  0  0  0  0  0  0
   24.9196   33.9102    0.0462 H   0  0  0  0  0  0  0  0  0  0  0  0
   24.6860   31.5830    0.3710 H   0  0  0  0  0  0  0  0  0  0  0  0
   25.6642   32.7022    5.7765 H   0  0  0  0  0  0  0  0  0  0  0  0
   26.2023   34.4305    5.8299 H   0  0  0  0  0  0  0  0  0  0  0  0
   24.1877   34.0896    7.2028 H   0  0  0  0  0  0  0  0  0  0  0  0
   23.8573   35.1622    5.7779 H   0  0  0  0  0  0  0  0  0  0  0  0
   21.9790   34.9640    5.1820 H   0  0  0  0  0  0  0  0  0  0  0  0
   21.2236   33.5541    2.6087 H   0  0  0  0  0  0  0  0  0  0  0  0
   19.4011   31.8005    2.2781 H   0  0  0  0  0  0  0  0  0  0  0  0
   18.6400   34.5540    2.4410 H   0  0  0  0  0  0  0  0  0  0  0  0
   17.0313   29.7984    3.8731 H   0  0  0  0  0  0  0  0  0  0  0  0
   16.1253   30.1851    2.3710 H   0  0  0  0  0  0  0  0  0  0  0  0
   17.9213   30.2204    2.3710 H   0  0  0  0  0  0  0  0  0  0  0  0
   17.6213   32.2412    5.9080 H   0  0  0  0  0  0  0  0  0  0  0  0
   19.3264   34.1945    6.0848 H   0  0  0  0  0  0  0  0  0  0  0  0
   20.8980   31.8550    6.2260 H   0  0  0  0  0  0  0  0  0  0  0  0
  1  2  1  0
  2  3  1  0
  3  4  2  0
  3  5  1  0
  5  6  2  0
  6  7  1  0
  6  8  1  0
  8  9  2  0
  9 10  1  0
  9 11  1  0
 11 12  1  0
 11 13  2  0
 13 14  1  0
 14 15  1  0
 15 16  1  0
 16 17  2  0
 16 18  1  0
 18 19  1  0
 19 20  2  0
 20 21  1  0
 21 22  1  0
 21 23  1  0
 23 24  1  0
 24 25  1  0
 23 26  2  0
 26 27  1  0
 27 28  1  0
 13  5  1  0
 27 19  1  0
  1 29  1  0
  1 30  1  0
  1 31  1  0
  7 32  1  0
  8 33  1  0
 10 34  1  0
 14 35  1  0
 14 36  1  0
 15 37  1  0
 15 38  1  0
 18 39  1  0
 20 40  1  0
 21 41  1  6
 22 42  1  0
 25 43  1  0
 25 44  1  0
 25 45  1  0
 26 46  1  0
 27 47  1  1
 28 48  1  0
M  END
>  <meeko>  (4) 
{"is_sidechain": [false], "free_energy": -6.755, "intermolecular_energy": -10.283, "internal_energy": -1.267}

$$$$
2fxs_ligand
     RDKit          3D

 48 49  0  0  0  0  0  0  0  0999 V2000
   18.6530   34.7330    1.2070 C   0  0  0  0  0  0  0  0  0  0  0  0
   18.9610   33.4360    1.7200 O   0  0  0  0  0  0  0  0  0  0  0  0
   20.1470   33.3620    2.3600 C   0  0  0  0  0  0  0  0  0  0  0  0
   21.2380   33.1220    1.8650 O   0  0  0  0  0  0  0  0  0  0  0  0
   20.0000   33.7710    3.7730 C   0  0  0  0  0  0  0  0  0  0  0  0
   19.1560   32.9680    4.5630 C   0  0  0  0  0  0  0  0  0  0  0  0
   18.4500   31.9020    4.0670 O   0  0  0  0  0  0  0  0  0  0  0  0
   18.9860   33.2320    5.9160 C   0  0  0  0  0  0  0  0  0  0  0  0
   19.6240   34.3290    6.4750 C   0  0  0  0  0  0  0  0  0  0  0  0
   19.4130   34.5550    7.8090 O   0  0  0  0  0  0  0  0  0  0  0  0
   20.4260   35.1760    5.6940 C   0  0  0  0  0  0  0  0  0  0  0  0
   21.1130   36.5650    6.4760 Cl  0  0  0  0  0  0  0  0  0  0  0  0
   20.6330   34.9150    4.3210 C   0  0  0  0  0  0  0  0  0  0  0  0
   21.4150   35.8880    3.4570 C   0  0  0  0  0  0  0  0  0  0  0  0
   22.8280   36.1050    4.0000 C   0  0  0  0  0  0  0  0  0  0  0  0
   23.8310   35.1630    3.3570 C   0  0  0  0  0  0  0  0  0  0  0  0
   24.6180   35.5380    2.4950 O   0  0  0  0  0  0  0  0  0  0  0  0
   23.7410   33.8850    3.8860 N   0  0  0  0  0  0  0  0  0  0  0  0
   24.4710   32.7480    3.5690 C   0  0  0  0  0  0  0  0  0  0  0  0
   24.8000   32.3740    2.3210 C   0  0  0  0  0  0  0  0  0  0  0  0
   25.6480   31.1820    1.9980 C   0  0  2  0  0  0  0  0  0  0  0  0
   24.8660   30.2940    1.2100 O   0  0  0  0  0  0  0  0  0  0  0  0
   26.1720   30.4280    3.2090 C   0  0  0  0  0  0  0  0  0  0  0  0
   26.9870   29.3670    2.8620 O   0  0  0  0  0  0  0  0  0  0  0  0
   26.8880   28.1680    3.6210 C   0  0  0  0  0  0  0  0  0  0  0  0
   25.8360   30.7870    4.4630 C   0  0  0  0  0  0  0  0  0  0  0  0
   24.9070   31.9210    4.7720 C   0  0  1  0  0  0  0  0  0  0  0  0
   25.5650   32.7880    5.6940 O   0  0  0  0  0  0  0  0  0  0  0  0
   18.4879   35.4283    2.0432 H   0  0  0  0  0  0  0  0  0  0  0  0
   19.4908   35.0923    0.5914 H   0  0  0  0  0  0  0  0  0  0  0  0
   17.7431   34.6772    0.5914 H   0  0  0  0  0  0  0  0  0  0  0  0
   18.9100   31.0700    4.3080 H   0  0  0  0  0  0  0  0  0  0  0  0
   18.3536   32.5795    6.5359 H   0  0  0  0  0  0  0  0  0  0  0  0
   20.2820   34.5250    8.2530 H   0  0  0  0  0  0  0  0  0  0  0  0
   21.4820   35.4855    2.4355 H   0  0  0  0  0  0  0  0  0  0  0  0
   20.8900   36.8546    3.4620 H   0  0  0  0  0  0  0  0  0  0  0  0
   23.1323   37.1422    3.7959 H   0  0  0  0  0  0  0  0  0  0  0  0
   22.8134   35.9023    5.0811 H   0  0  0  0  0  0  0  0  0  0  0  0
   23.0890   33.7580    4.6570 H   0  0  0  0  0  0  0  0  0  0  0  0
   24.4232   32.9808    1.4845 H   0  0  0  0  0  0  0  0  0  0  0  0
   26.5372   31.5568    1.4699 H   0  0  0  0  0  0  0  0  0  0  0  0
   25.3730   29.4640    1.1740 H   0  0  0  0  0  0  0  0  0  0  0  0
   26.9080   28.4104    4.6938 H   0  0  0  0  0  0  0  0  0  0  0  0
   25.9446   27.6571    3.3781 H   0  0  0  0  0  0  0  0  0  0  0  0
   27.7348   27.5093    3.3781 H   0  0  0  0  0  0  0  0  0  0  0  0
   26.2650   30.2194    5.3019 H   0  0  0  0  0  0  0  0  0  0  0  0
   23.9898   31.4669    5.1751 H   0  0  0  0  0  0  0  0  0  0  0  0
   25.2780   33.6890    5.4640 H   0  0  0  0  0  0  0  0  0  0  0  0
  1  2  1  0
  2  3  1  0
  3  4  2  0
  3  5  1  0
  5  6  2  0
  6  7  1  0
  6  8  1  0
  8  9  2  0
  9 10  1  0
  9 11  1  0
 11 12  1  0
 11 13  2  0
 13 14  1  0
 14 15  1  0
 15 16  1  0
 16 17  2  0
 16 18  1  0
 18 19  1  0
 19 20  2  0
 20 21  1  0
 21 22  1  0
 21 23  1  0
 23 24  1  0
 24 25  1  0
 23 26  2  0
 26 27  1  0
 27 28  1  0
 13  5  1  0
 27 19  1  0
  1 29  1  0
  1 30  1  0
  1 31  1  0
  7 32  1  0
  8 33  1  0
 10 34  1  0
 14 35  1  0
 14 36  1  0
 15 37  1  0
 15 38  1  0
 18 39  1  0
 20 40  1  0
 21 41  1  6
 22 42  1  0
 25 43  1  0
 25 44  1  0
 25 45  1  0
 26 46  1  0
 27 47  1  1
 28 48  1  0
M  END
>  <meeko>  (5) 
{"is_sidechain": [false], "free_energy": -6.72, "intermolecular_energy": -10.475, "internal_energy": -1.022}

$$$$
2fxs_ligand
     RDKit          3D

 48 49  0  0  0  0  0  0  0  0999 V2000
   23.8410   36.2410    6.9450 C   0  0  0  0  0  0  0  0  0  0  0  0
   22.8380   35.4840    6.2660 O   0  0  0  0  0  0  0  0  0  0  0  0
   22.2490   34.5360    7.0260 C   0  0  0  0  0  0  0  0  0  0  0  0
   22.7980   33.7730    7.8070 O   0  0  0  0  0  0  0  0  0  0  0  0
   20.7780   34.6270    6.9210 C   0  0  0  0  0  0  0  0  0  0  0  0
   20.1470   35.4980    7.8300 C   0  0  0  0  0  0  0  0  0  0  0  0
   20.8220   36.1840    8.8060 O   0  0  0  0  0  0  0  0  0  0  0  0
   18.7740   35.6980    7.7860 C   0  0  0  0  0  0  0  0  0  0  0  0
   18.0180   34.9940    6.8600 C   0  0  0  0  0  0  0  0  0  0  0  0
   16.6670   35.2160    6.8660 O   0  0  0  0  0  0  0  0  0  0  0  0
   18.6190   34.0790    5.9810 C   0  0  0  0  0  0  0  0  0  0  0  0
   17.5720   33.1920    4.9190 Cl  0  0  0  0  0  0  0  0  0  0  0  0
   20.0160   33.8750    5.9910 C   0  0  0  0  0  0  0  0  0  0  0  0
   20.6500   32.8110    5.1120 C   0  0  0  0  0  0  0  0  0  0  0  0
   21.0060   33.3670    3.7330 C   0  0  0  0  0  0  0  0  0  0  0  0
   22.4660   33.1270    3.3860 C   0  0  0  0  0  0  0  0  0  0  0  0
   22.8670   33.1130    2.2290 O   0  0  0  0  0  0  0  0  0  0  0  0
   23.2380   32.9600    4.5250 N   0  0  0  0  0  0  0  0  0  0  0  0
   24.6010   32.7190    4.6370 C   0  0  0  0  0  0  0  0  0  0  0  0
   25.5420   33.6750    4.7230 C   0  0  0  0  0  0  0  0  0  0  0  0
   27.0020   33.3990    4.9130 C   0  0  2  0  0  0  0  0  0  0  0  0
   27.6930   33.9280    3.7880 O   0  0  0  0  0  0  0  0  0  0  0  0
   27.3580   31.9290    5.0570 C   0  0  0  0  0  0  0  0  0  0  0  0
   28.7080   31.7290    5.2790 O   0  0  0  0  0  0  0  0  0  0  0  0
   29.1000   31.0550    6.4690 C   0  0  0  0  0  0  0  0  0  0  0  0
   26.4230   30.9640    4.9590 C   0  0  0  0  0  0  0  0  0  0  0  0
   24.9800   31.2450    4.6700 C   0  0  1  0  0  0  0  0  0  0  0  0
   24.1990   30.6050    5.6780 O   0  0  0  0  0  0  0  0  0  0  0  0
   23.7050   36.1383    8.0317 H   0  0  0  0  0  0  0  0  0  0  0  0
   24.8363   35.8670    6.6631 H   0  0  0  0  0  0  0  0  0  0  0  0
   23.7542   37.3007    6.6631 H   0  0  0  0  0  0  0  0  0  0  0  0
   21.7190   36.4130    8.4800 H   0  0  0  0  0  0  0  0  0  0  0  0
   18.2917   36.4056    8.4765 H   0  0  0  0  0  0  0  0  0  0  0  0
   16.5050   36.0550    6.3950 H   0  0  0  0  0  0  0  0  0  0  0  0
   21.5664   32.4447    5.5978 H   0  0  0  0  0  0  0  0  0  0  0  0
   19.9254   31.9940    4.9797 H   0  0  0  0  0  0  0  0  0  0  0  0
   20.3753   32.8756    2.9775 H   0  0  0  0  0  0  0  0  0  0  0  0
   20.8327   34.4532    3.7477 H   0  0  0  0  0  0  0  0  0  0  0  0
   22.7640   33.0830    5.4170 H   0  0  0  0  0  0  0  0  0  0  0  0
   25.2202   34.7243    4.6493 H   0  0  0  0  0  0  0  0  0  0  0  0
   27.2953   33.8730    5.8613 H   0  0  0  0  0  0  0  0  0  0  0  0
   27.6240   33.2460    3.0970 H   0  0  0  0  0  0  0  0  0  0  0  0
   28.7649   31.6312    7.3441 H   0  0  0  0  0  0  0  0  0  0  0  0
   28.6427   30.0548    6.4915 H   0  0  0  0  0  0  0  0  0  0  0  0
   30.1955   30.9579    6.4915 H   0  0  0  0  0  0  0  0  0  0  0  0
   26.7344   29.9182    5.0980 H   0  0  0  0  0  0  0  0  0  0  0  0
   24.7875   30.8617    3.6571 H   0  0  0  0  0  0  0  0  0  0  0  0
   23.2760   30.6600    5.3740 H   0  0  0  0  0  0  0  0  0  0  0  0
  1  2  1  0
  2  3  1  0
  3  4  2  0
  3  5  1  0
  5  6  2  0
  6  7  1  0
  6  8  1  0
  8  9  2  0
  9 10  1  0
  9 11  1  0
 11 12  1  0
 11 13  2  0
 13 14  1  0
 14 15  1  0
 15 16  1  0
 16 17  2  0
 16 18  1  0
 18 19  1  0
 19 20  2  0
 20 21  1  0
 21 22  1  0
 21 23  1  0
 23 24  1  0
 24 25  1  0
 23 26  2  0
 26 27  1  0
 27 28  1  0
 13  5  1  0
 27 19  1  0
  1 29  1  0
  1 30  1  0
  1 31  1  0
  7 32  1  0
  8 33  1  0
 10 34  1  0
 14 35  1  0
 14 36  1  0
 15 37  1  0
 15 38  1  0
 18 39  1  0
 20 40  1  0
 21 41  1  1
 22 42  1  0
 25 43  1  0
 25 44  1  0
 25 45  1  0
 26 46  1  0
 27 47  1  6
 28 48  1  0
M  END
>  <meeko>  (6) 
{"is_sidechain": [false], "free_energy": -6.684, "intermolecular_energy": -9.686, "internal_energy": -1.755}

$$$$
2fxs_ligand
     RDKit          3D

 48 49  0  0  0  0  0  0  0  0999 V2000
   22.6740   33.6230    2.6650 C   0  0  0  0  0  0  0  0  0  0  0  0
   23.6410   32.9110    3.4380 O   0  0  0  0  0  0  0  0  0  0  0  0
   24.9120   33.0570    3.0090 C   0  0  0  0  0  0  0  0  0  0  0  0
   25.4190   34.0650    2.5400 O   0  0  0  0  0  0  0  0  0  0  0  0
   25.7070   31.8520    3.3240 C   0  0  0  0  0  0  0  0  0  0  0  0
   25.6570   30.8140    2.3740 C   0  0  0  0  0  0  0  0  0  0  0  0
   24.8780   30.8630    1.2470 O   0  0  0  0  0  0  0  0  0  0  0  0
   26.4060   29.6570    2.5440 C   0  0  0  0  0  0  0  0  0  0  0  0
   27.1750   29.5140    3.6890 C   0  0  0  0  0  0  0  0  0  0  0  0
   27.8840   28.3490    3.8170 O   0  0  0  0  0  0  0  0  0  0  0  0
   27.1970   30.5110    4.6770 C   0  0  0  0  0  0  0  0  0  0  0  0
   28.1280   30.1960    6.1060 Cl  0  0  0  0  0  0  0  0  0  0  0  0
   26.4610   31.7070    4.5150 C   0  0  0  0  0  0  0  0  0  0  0  0
   26.4050   32.7370    5.6290 C   0  0  0  0  0  0  0  0  0  0  0  0
   25.7130   32.1780    6.8720 C   0  0  0  0  0  0  0  0  0  0  0  0
   24.7140   33.1630    7.4550 C   0  0  0  0  0  0  0  0  0  0  0  0
   24.9700   33.8470    8.4390 O   0  0  0  0  0  0  0  0  0  0  0  0
   23.5360   33.1840    6.7230 N   0  0  0  0  0  0  0  0  0  0  0  0
   22.3880   33.9370    6.9270 C   0  0  0  0  0  0  0  0  0  0  0  0
   22.0970   35.0780    6.2800 C   0  0  0  0  0  0  0  0  0  0  0  0
   20.8210   35.8430    6.4600 C   0  0  2  0  0  0  0  0  0  0  0  0
   21.1550   37.1340    6.9500 O   0  0  0  0  0  0  0  0  0  0  0  0
   19.8240   35.2020    7.4110 C   0  0  0  0  0  0  0  0  0  0  0  0
   18.6460   35.9170    7.5070 O   0  0  0  0  0  0  0  0  0  0  0  0
   17.4330   35.2640    7.1500 C   0  0  0  0  0  0  0  0  0  0  0  0
   20.1140   34.0650    8.0750 C   0  0  0  0  0  0  0  0  0  0  0  0
   21.4320   33.3620    7.9630 C   0  0  1  0  0  0  0  0  0  0  0  0
   21.1740   32.0000    7.6250 O   0  0  0  0  0  0  0  0  0  0  0  0
   21.9737   34.1386    3.3386 H   0  0  0  0  0  0  0  0  0  0  0  0
   23.1843   34.3626    2.0305 H   0  0  0  0  0  0  0  0  0  0  0  0
   22.1192   32.9161    2.0305 H   0  0  0  0  0  0  0  0  0  0  0  0
   23.9740   30.5500    1.4640 H   0  0  0  0  0  0  0  0  0  0  0  0
   26.3895   28.8649    1.7809 H   0  0  0  0  0  0  0  0  0  0  0  0
   28.0210   28.1920    4.7710 H   0  0  0  0  0  0  0  0  0  0  0  0
   27.4306   33.0340    5.8936 H   0  0  0  0  0  0  0  0  0  0  0  0
   25.8277   33.6023    5.2714 H   0  0  0  0  0  0  0  0  0  0  0  0
   25.1830   31.2537    6.5987 H   0  0  0  0  0  0  0  0  0  0  0  0
   26.4834   31.9831    7.6326 H   0  0  0  0  0  0  0  0  0  0  0  0
   23.5140   32.6130    5.8820 H   0  0  0  0  0  0  0  0  0  0  0  0
   22.8415   35.4753    5.5744 H   0  0  0  0  0  0  0  0  0  0  0  0
   20.3244   35.8702    5.4788 H   0  0  0  0  0  0  0  0  0  0  0  0
   20.3840   37.6950    6.7510 H   0  0  0  0  0  0  0  0  0  0  0  0
   16.8914   34.9724    8.0619 H   0  0  0  0  0  0  0  0  0  0  0  0
   16.8093   35.9482    6.5561 H   0  0  0  0  0  0  0  0  0  0  0  0
   17.6607   34.3666    6.5561 H   0  0  0  0  0  0  0  0  0  0  0  0
   19.3447   33.6322    8.7314 H   0  0  0  0  0  0  0  0  0  0  0  0
   21.9313   33.4861    8.9352 H   0  0  0  0  0  0  0  0  0  0  0  0
   20.2870   31.8020    7.9730 H   0  0  0  0  0  0  0  0  0  0  0  0
  1  2  1  0
  2  3  1  0
  3  4  2  0
  3  5  1  0
  5  6  2  0
  6  7  1  0
  6  8  1  0
  8  9  2  0
  9 10  1  0
  9 11  1  0
 11 12  1  0
 11 13  2  0
 13 14  1  0
 14 15  1  0
 15 16  1  0
 16 17  2  0
 16 18  1  0
 18 19  1  0
 19 20  2  0
 20 21  1  0
 21 22  1  0
 21 23  1  0
 23 24  1  0
 24 25  1  0
 23 26  2  0
 26 27  1  0
 27 28  1  0
 13  5  1  0
 27 19  1  0
  1 29  1  0
  1 30  1  0
  1 31  1  0
  7 32  1  0
  8 33  1  0
 10 34  1  0
 14 35  1  0
 14 36  1  0
 15 37  1  0
 15 38  1  0
 18 39  1  0
 20 40  1  0
 21 41  1  6
 22 42  1  0
 25 43  1  0
 25 44  1  0
 25 45  1  0
 26 46  1  0
 27 47  1  1
 28 48  1  0
M  END
>  <meeko>  (7) 
{"is_sidechain": [false], "free_energy": -6.639, "intermolecular_energy": -10.005, "internal_energy": -1.369}

$$$$
2fxs_ligand
     RDKit          3D

 48 49  0  0  0  0  0  0  0  0999 V2000
   22.8050   34.5520    7.0350 C   0  0  0  0  0  0  0  0  0  0  0  0
   21.3950   34.3770    6.8790 O   0  0  0  0  0  0  0  0  0  0  0  0
   20.8610   35.0760    5.8550 C   0  0  0  0  0  0  0  0  0  0  0  0
   21.2670   36.1320    5.3930 O   0  0  0  0  0  0  0  0  0  0  0  0
   19.7660   34.3120    5.2220 C   0  0  0  0  0  0  0  0  0  0  0  0
   18.5190   34.3650    5.8740 C   0  0  0  0  0  0  0  0  0  0  0  0
   18.3170   35.0240    7.0590 O   0  0  0  0  0  0  0  0  0  0  0  0
   17.4090   33.7250    5.3380 C   0  0  0  0  0  0  0  0  0  0  0  0
   17.5510   32.9910    4.1700 C   0  0  0  0  0  0  0  0  0  0  0  0
   16.4300   32.3670    3.6910 O   0  0  0  0  0  0  0  0  0  0  0  0
   18.7970   32.8780    3.5330 C   0  0  0  0  0  0  0  0  0  0  0  0
   18.8800   31.8700    2.1230 Cl  0  0  0  0  0  0  0  0  0  0  0  0
   19.9350   33.5380    4.0460 C   0  0  0  0  0  0  0  0  0  0  0  0
   21.3000   33.3320    3.4140 C   0  0  0  0  0  0  0  0  0  0  0  0
   21.4940   34.2360    2.1960 C   0  0  0  0  0  0  0  0  0  0  0  0
   22.8560   34.9080    2.2020 C   0  0  0  0  0  0  0  0  0  0  0  0
   23.4280   35.2340    1.1680 O   0  0  0  0  0  0  0  0  0  0  0  0
   23.3190   35.1090    3.4940 N   0  0  0  0  0  0  0  0  0  0  0  0
   24.5080   35.6820    3.9230 C   0  0  0  0  0  0  0  0  0  0  0  0
   24.5970   36.8380    4.6030 C   0  0  0  0  0  0  0  0  0  0  0  0
   25.8820   37.4090    5.1210 C   0  0  2  0  0  0  0  0  0  0  0  0
   26.0740   38.6750    4.5020 O   0  0  0  0  0  0  0  0  0  0  0  0
   27.1080   36.5490    4.8670 C   0  0  0  0  0  0  0  0  0  0  0  0
   28.2590   37.0940    5.4040 O   0  0  0  0  0  0  0  0  0  0  0  0
   29.4980   36.8130    4.7620 C   0  0  0  0  0  0  0  0  0  0  0  0
   27.0300   35.3960    4.1740 C   0  0  0  0  0  0  0  0  0  0  0  0
   25.7560   34.8830    3.5740 C   0  0  1  0  0  0  0  0  0  0  0  0
   25.5690   33.5430    4.0250 O   0  0  0  0  0  0  0  0  0  0  0  0
   23.0544   34.5829    8.1059 H   0  0  0  0  0  0  0  0  0  0  0  0
   23.3335   33.7126    6.5596 H   0  0  0  0  0  0  0  0  0  0  0  0
   23.1122   35.4952    6.5596 H   0  0  0  0  0  0  0  0  0  0  0  0
   17.9920   35.9310    6.8740 H   0  0  0  0  0  0  0  0  0  0  0  0
   16.4298   33.7994    5.8336 H   0  0  0  0  0  0  0  0  0  0  0  0
   15.8140   33.0610    3.3900 H   0  0  0  0  0  0  0  0  0  0  0  0
   22.0770   33.5623    4.1578 H   0  0  0  0  0  0  0  0  0  0  0  0
   21.3736   32.2855    3.0832 H   0  0  0  0  0  0  0  0  0  0  0  0
   21.4009   33.6286    1.2836 H   0  0  0  0  0  0  0  0  0  0  0  0
   20.7253   35.0222    2.2285 H   0  0  0  0  0  0  0  0  0  0  0  0
   22.6840   34.8550    4.2470 H   0  0  0  0  0  0  0  0  0  0  0  0
   23.6698   37.3993    4.7908 H   0  0  0  0  0  0  0  0  0  0  0  0
   25.7844   37.4748    6.2147 H   0  0  0  0  0  0  0  0  0  0  0  0
   26.9890   38.6630    4.1690 H   0  0  0  0  0  0  0  0  0  0  0  0
   30.2733   36.6372    5.5223 H   0  0  0  0  0  0  0  0  0  0  0  0
   29.3904   35.9164    4.1338 H   0  0  0  0  0  0  0  0  0  0  0  0
   29.7877   37.6682    4.1338 H   0  0  0  0  0  0  0  0  0  0  0  0
   27.9464   34.8021    4.0422 H   0  0  0  0  0  0  0  0  0  0  0  0
   25.8723   34.9666    2.4834 H   0  0  0  0  0  0  0  0  0  0  0  0
   25.5330   33.5910    4.9970 H   0  0  0  0  0  0  0  0  0  0  0  0
  1  2  1  0
  2  3  1  0
  3  4  2  0
  3  5  1  0
  5  6  2  0
  6  7  1  0
  6  8  1  0
  8  9  2  0
  9 10  1  0
  9 11  1  0
 11 12  1  0
 11 13  2  0
 13 14  1  0
 14 15  1  0
 15 16  1  0
 16 17  2  0
 16 18  1  0
 18 19  1  0
 19 20  2  0
 20 21  1  0
 21 22  1  0
 21 23  1  0
 23 24  1  0
 24 25  1  0
 23 26  2  0
 26 27  1  0
 27 28  1  0
 13  5  1  0
 27 19  1  0
  1 29  1  0
  1 30  1  0
  1 31  1  0
  7 32  1  0
  8 33  1  0
 10 34  1  0
 14 35  1  0
 14 36  1  0
 15 37  1  0
 15 38  1  0
 18 39  1  0
 20 40  1  0
 21 41  1  1
 22 42  1  0
 25 43  1  0
 25 44  1  0
 25 45  1  0
 26 46  1  0
 27 47  1  6
 28 48  1  0
M  END
>  <meeko>  (8) 
{"is_sidechain": [false], "free_energy": -6.572, "intermolecular_energy": -9.595, "internal_energy": -1.677}

$$$$
2fxs_ligand
     RDKit          3D

 48 49  0  0  0  0  0  0  0  0999 V2000
   25.4360   32.5660    7.2790 C   0  0  0  0  0  0  0  0  0  0  0  0
   26.7960   32.5030    6.8470 O   0  0  0  0  0  0  0  0  0  0  0  0
   27.0780   33.2890    5.7870 C   0  0  0  0  0  0  0  0  0  0  0  0
   27.8380   34.2460    5.7610 O   0  0  0  0  0  0  0  0  0  0  0  0
   26.4540   32.7500    4.5610 C   0  0  0  0  0  0  0  0  0  0  0  0
   26.8500   31.4520    4.1870 C   0  0  0  0  0  0  0  0  0  0  0  0
   27.8010   30.7310    4.8630 O   0  0  0  0  0  0  0  0  0  0  0  0
   26.2890   30.8280    3.0800 C   0  0  0  0  0  0  0  0  0  0  0  0
   25.3600   31.5180    2.3160 C   0  0  0  0  0  0  0  0  0  0  0  0
   24.8470   30.8650    1.2270 O   0  0  0  0  0  0  0  0  0  0  0  0
   24.9920   32.8340    2.6370 C   0  0  0  0  0  0  0  0  0  0  0  0
   23.8840   33.6340    1.5670 Cl  0  0  0  0  0  0  0  0  0  0  0  0
   25.5320   33.4810    3.7700 C   0  0  0  0  0  0  0  0  0  0  0  0
   25.2110   34.9370    4.0570 C   0  0  0  0  0  0  0  0  0  0  0  0
   24.1270   35.0690    5.1270 C   0  0  0  0  0  0  0  0  0  0  0  0
   22.7320   35.0450    4.5240 C   0  0  0  0  0  0  0  0  0  0  0  0
   22.2550   36.0140    3.9450 O   0  0  0  0  0  0  0  0  0  0  0  0
   22.1240   33.8120    4.6990 N   0  0  0  0  0  0  0  0  0  0  0  0
   20.8620   33.3890    4.3020 C   0  0  0  0  0  0  0  0  0  0  0  0
   20.4910   33.1860    3.0270 C   0  0  0  0  0  0  0  0  0  0  0  0
   19.1480   32.6630    2.6180 C   0  0  2  0  0  0  0  0  0  0  0  0
   18.5240   33.6530    1.8120 O   0  0  0  0  0  0  0  0  0  0  0  0
   18.2210   32.3170    3.7720 C   0  0  0  0  0  0  0  0  0  0  0  0
   17.0150   31.7930    3.3460 O   0  0  0  0  0  0  0  0  0  0  0  0
   16.9510   30.4000    3.0640 C   0  0  0  0  0  0  0  0  0  0  0  0
   18.5810   32.5310    5.0530 C   0  0  0  0  0  0  0  0  0  0  0  0
   19.8880   33.1470    5.4470 C   0  0  1  0  0  0  0  0  0  0  0  0
   20.5150   32.2800    6.3900 O   0  0  0  0  0  0  0  0  0  0  0  0
   25.4002   32.5677    8.3784 H   0  0  0  0  0  0  0  0  0  0  0  0
   24.9718   33.4866    6.8956 H   0  0  0  0  0  0  0  0  0  0  0  0
   24.8887   31.6923    6.8956 H   0  0  0  0  0  0  0  0  0  0  0  0
   27.3760   29.9610    5.2970 H   0  0  0  0  0  0  0  0  0  0  0  0
   26.5777   29.8007    2.8131 H   0  0  0  0  0  0  0  0  0  0  0  0
   25.2160   31.2900    0.4290 H   0  0  0  0  0  0  0  0  0  0  0  0
   26.1231   35.4422    4.4074 H   0  0  0  0  0  0  0  0  0  0  0  0
   24.8404   35.3989    3.1300 H   0  0  0  0  0  0  0  0  0  0  0  0
   24.2228   34.2333    5.8358 H   0  0  0  0  0  0  0  0  0  0  0  0
   24.2634   36.0355    5.6342 H   0  0  0  0  0  0  0  0  0  0  0  0
   22.6890   33.0840    5.1300 H   0  0  0  0  0  0  0  0  0  0  0  0
   21.2179   33.4180    2.2346 H   0  0  0  0  0  0  0  0  0  0  0  0
   19.3240   31.7189    2.0816 H   0  0  0  0  0  0  0  0  0  0  0  0
   19.2410   34.2500    1.5340 H   0  0  0  0  0  0  0  0  0  0  0  0
   16.9251   29.8356    4.0078 H   0  0  0  0  0  0  0  0  0  0  0  0
   16.0420   30.1849    2.4831 H   0  0  0  0  0  0  0  0  0  0  0  0
   17.8364   30.1024    2.4831 H   0  0  0  0  0  0  0  0  0  0  0  0
   17.8800   32.2387    5.8487 H   0  0  0  0  0  0  0  0  0  0  0  0
   19.6495   34.1401    5.8555 H   0  0  0  0  0  0  0  0  0  0  0  0
   21.4480   32.2220    6.1210 H   0  0  0  0  0  0  0  0  0  0  0  0
  1  2  1  0
  2  3  1  0
  3  4  2  0
  3  5  1  0
  5  6  2  0
  6  7  1  0
  6  8  1  0
  8  9  2  0
  9 10  1  0
  9 11  1  0
 11 12  1  0
 11 13  2  0
 13 14  1  0
 14 15  1  0
 15 16  1  0
 16 17  2  0
 16 18  1  0
 18 19  1  0
 19 20  2  0
 20 21  1  0
 21 22  1  0
 21 23  1  0
 23 24  1  0
 24 25  1  0
 23 26  2  0
 26 27  1  0
 27 28  1  0
 13  5  1  0
 27 19  1  0
  1 29  1  0
  1 30  1  0
  1 31  1  0
  7 32  1  0
  8 33  1  0
 10 34  1  0
 14 35  1  0
 14 36  1  0
 15 37  1  0
 15 38  1  0
 18 39  1  0
 20 40  1  0
 21 41  1  6
 22 42  1  0
 25 43  1  0
 25 44  1  0
 25 45  1  0
 26 46  1  0
 27 47  1  1
 28 48  1  0
M  END
>  <meeko>  (9) 
{"is_sidechain": [false], "free_energy": -6.357, "intermolecular_energy": -9.653, "internal_energy": -1.29}

$$$$
