3l7b_ligand
     RDKit          3D

 34 35  0  0  0  0  0  0  0  0999 V2000
   12.0590   12.5940   59.2180 N   0  0  0  0  0  0  0  0  0  0  0  0
   13.0630   12.7540   58.3880 C   0  0  0  0  0  0  0  0  0  0  0  0
   14.2020   13.7040   58.7920 C   0  0  0  0  0  0  0  0  0  0  0  0
   15.2280   13.8520   57.9530 C   0  0  0  0  0  0  0  0  0  0  0  0
   15.2730   13.1630   56.7540 N   0  0  0  0  0  0  0  0  0  0  0  0
   16.3900   13.3590   55.8190 C   0  0  2  0  0  0  0  0  0  0  0  0
   17.5460   13.7720   56.5690 O   0  0  0  0  0  0  0  0  0  0  0  0
   18.5430   14.3560   55.7290 C   0  0  2  0  0  0  0  0  0  0  0  0
   19.8540   14.4990   56.5120 C   0  0  0  0  0  0  0  0  0  0  0  0
   20.9380   14.7240   55.6140 O   0  0  0  0  0  0  0  0  0  0  0  0
   18.0640   15.7270   55.2140 C   0  0  1  0  0  0  0  0  0  0  0  0
   18.7960   16.1040   54.0450 O   0  0  0  0  0  0  0  0  0  0  0  0
   16.5640   15.7210   54.9100 C   0  0  2  0  0  0  0  0  0  0  0  0
   15.8900   16.2360   55.9830 F   0  0  0  0  0  0  0  0  0  0  0  0
   16.0220   14.3190   54.6470 C   0  0  1  0  0  0  0  0  0  0  0  0
   16.5400   13.7810   53.4210 O   0  0  0  0  0  0  0  0  0  0  0  0
   14.2570   12.3310   56.3230 C   0  0  0  0  0  0  0  0  0  0  0  0
   14.1630   11.7250   55.2740 O   0  0  0  0  0  0  0  0  0  0  0  0
   13.1740   12.1680   57.2250 N   0  0  0  0  0  0  0  0  0  0  0  0
   12.1310   12.8940   60.1840 H   0  0  0  0  0  0  0  0  0  0  0  0
   11.1870   12.1690   58.9320 H   0  0  0  0  0  0  0  0  0  0  0  0
   14.1716   14.2474   59.7479 H   0  0  0  0  0  0  0  0  0  0  0  0
   16.0509   14.5321   58.2182 H   0  0  0  0  0  0  0  0  0  0  0  0
   16.6276   12.4089   55.3180 H   0  0  0  0  0  0  0  0  0  0  0  0
   18.7179   13.7037   54.8607 H   0  0  0  0  0  0  0  0  0  0  0  0
   19.7731   15.3493   57.2051 H   0  0  0  0  0  0  0  0  0  0  0  0
   20.0396   13.5731   57.0762 H   0  0  0  0  0  0  0  0  0  0  0  0
   21.2680   13.8470   55.3410 H   0  0  0  0  0  0  0  0  0  0  0  0
   18.2477   16.4629   56.0106 H   0  0  0  0  0  0  0  0  0  0  0  0
   18.9820   15.2700   53.5580 H   0  0  0  0  0  0  0  0  0  0  0  0
   16.4160   16.3239   54.0019 H   0  0  0  0  0  0  0  0  0  0  0  0
   14.9281   14.4015   54.5665 H   0  0  0  0  0  0  0  0  0  0  0  0
   17.4960   13.6110   53.5230 H   0  0  0  0  0  0  0  0  0  0  0  0
   12.4510   11.5430   56.9040 H   0  0  0  0  0  0  0  0  0  0  0  0
  1  2  1  0
  2  3  1  0
  3  4  2  0
  4  5  1  0
  5  6  1  0
  6  7  1  0
  7  8  1  0
  8  9  1  0
  9 10  1  0
  8 11  1  0
 11 12  1  0
 11 13  1  0
 13 14  1  0
 13 15  1  0
 15 16  1  0
  5 17  1  0
 17 18  2  0
 17 19  1  0
 19  2  2  0
 15  6  1  0
  1 20  1  0
  1 21  1  0
  3 22  1  0
  4 23  1  0
  6 24  1  6
  8 25  1  6
  9 26  1  0
  9 27  1  0
 10 28  1  0
 11 29  1  1
 12 30  1  0
 13 31  1  6
 15 32  1  6
 16 33  1  0
 19 34  1  0
M  CHG  1  19   1
M  END
>  <meeko>  (1) 
{"is_sidechain": [false], "free_energy": -5.997, "intermolecular_energy": -7.399, "internal_energy": -0.542}

$$$$
3l7b_ligand
     RDKit          3D

 34 35  0  0  0  0  0  0  0  0999 V2000
   12.8090   11.6950   58.0010 N   0  0  0  0  0  0  0  0  0  0  0  0
   12.9200   12.7500   58.7730 C   0  0  0  0  0  0  0  0  0  0  0  0
   13.8810   13.8710   58.3460 C   0  0  0  0  0  0  0  0  0  0  0  0
   13.9790   14.9500   59.1250 C   0  0  0  0  0  0  0  0  0  0  0  0
   13.2300   15.0620   60.2830 N   0  0  0  0  0  0  0  0  0  0  0  0
   13.3710   16.2370   61.1550 C   0  0  2  0  0  0  0  0  0  0  0  0
   13.7460   17.3650   60.3440 O   0  0  0  0  0  0  0  0  0  0  0  0
   14.2810   18.4300   61.1300 C   0  0  2  0  0  0  0  0  0  0  0  0
   14.3800   19.7000   60.2760 C   0  0  0  0  0  0  0  0  0  0  0  0
   14.5110   20.8460   61.1130 O   0  0  0  0  0  0  0  0  0  0  0  0
   15.6640   18.0380   61.6840 C   0  0  1  0  0  0  0  0  0  0  0  0
   15.9980   18.8490   62.8130 O   0  0  0  0  0  0  0  0  0  0  0  0
   15.7140   16.5580   62.0730 C   0  0  2  0  0  0  0  0  0  0  0  0
   16.2680   15.8460   61.0450 F   0  0  0  0  0  0  0  0  0  0  0  0
   14.3320   15.9750   62.3540 C   0  0  1  0  0  0  0  0  0  0  0  0
   13.7600   16.5400   63.5440 O   0  0  0  0  0  0  0  0  0  0  0  0
   12.3850   14.0660   60.7350 C   0  0  0  0  0  0  0  0  0  0  0  0
   11.7270   14.0330   61.7560 O   0  0  0  0  0  0  0  0  0  0  0  0
   12.2750   12.9270   59.8960 N   0  0  0  0  0  0  0  0  0  0  0  0
   13.3110   11.6400   57.1220 H   0  0  0  0  0  0  0  0  0  0  0  0
   12.2250   10.9070   58.2470 H   0  0  0  0  0  0  0  0  0  0  0  0
   14.4725   13.7860   57.4225 H   0  0  0  0  0  0  0  0  0  0  0  0
   14.6651   15.7621   58.8425 H   0  0  0  0  0  0  0  0  0  0  0  0
   12.4067   16.4635   61.6334 H   0  0  0  0  0  0  0  0  0  0  0  0
   13.6123   18.6261   61.9811 H   0  0  0  0  0  0  0  0  0  0  0  0
   15.2586   19.6281   59.6181 H   0  0  0  0  0  0  0  0  0  0  0  0
   13.4661   19.7989   59.6719 H   0  0  0  0  0  0  0  0  0  0  0  0
   13.6820   20.9220   61.6230 H   0  0  0  0  0  0  0  0  0  0  0  0
   16.4012   18.2072   60.8853 H   0  0  0  0  0  0  0  0  0  0  0  0
   16.1250   19.7610   62.4660 H   0  0  0  0  0  0  0  0  0  0  0  0
   16.3116   16.4863   62.9937 H   0  0  0  0  0  0  0  0  0  0  0  0
   14.4574   14.8916   62.4972 H   0  0  0  0  0  0  0  0  0  0  0  0
   14.4460   17.0420   64.0240 H   0  0  0  0  0  0  0  0  0  0  0  0
   11.6400   12.2200   60.2310 H   0  0  0  0  0  0  0  0  0  0  0  0
  1  2  1  0
  2  3  1  0
  3  4  2  0
  4  5  1  0
  5  6  1  0
  6  7  1  0
  7  8  1  0
  8  9  1  0
  9 10  1  0
  8 11  1  0
 11 12  1  0
 11 13  1  0
 13 14  1  0
 13 15  1  0
 15 16  1  0
  5 17  1  0
 17 18  2  0
 17 19  1  0
 19  2  2  0
 15  6  1  0
  1 20  1  0
  1 21  1  0
  3 22  1  0
  4 23  1  0
  6 24  1  1
  8 25  1  1
  9 26  1  0
  9 27  1  0
 10 28  1  0
 11 29  1  6
 12 30  1  0
 13 31  1  1
 15 32  1  1
 16 33  1  0
 19 34  1  0
M  CHG  1  19   1
M  END
>  <meeko>  (2) 
{"is_sidechain": [false], "free_energy": -5.983, "intermolecular_energy": -7.378, "internal_energy": -0.546}

$$$$
3l7b_ligand
     RDKit          3D

 34 35  0  0  0  0  0  0  0  0999 V2000
   17.9790   13.2980   54.4630 N   0  0  0  0  0  0  0  0  0  0  0  0
   18.7160   13.5040   55.5300 C   0  0  0  0  0  0  0  0  0  0  0  0
   18.2640   12.8830   56.8610 C   0  0  0  0  0  0  0  0  0  0  0  0
   19.0230   13.0790   57.9400 C   0  0  0  0  0  0  0  0  0  0  0  0
   20.1920   13.8160   57.8620 N   0  0  0  0  0  0  0  0  0  0  0  0
   21.0040   14.0590   59.0630 C   0  0  2  0  0  0  0  0  0  0  0  0
   20.9750   12.8770   59.8810 O   0  0  0  0  0  0  0  0  0  0  0  0
   21.3940   13.1460   61.2200 C   0  0  2  0  0  0  0  0  0  0  0  0
   21.6350   11.8230   61.9590 C   0  0  0  0  0  0  0  0  0  0  0  0
   22.4100   10.9440   61.1500 O   0  0  0  0  0  0  0  0  0  0  0  0
   20.3310   13.9910   61.9480 C   0  0  1  0  0  0  0  0  0  0  0  0
   20.9070   14.6520   63.0770 O   0  0  0  0  0  0  0  0  0  0  0  0
   19.6930   15.0200   61.0110 C   0  0  2  0  0  0  0  0  0  0  0  0
   18.5160   14.5160   60.5310 F   0  0  0  0  0  0  0  0  0  0  0  0
   20.5790   15.3570   59.8150 C   0  0  1  0  0  0  0  0  0  0  0  0
   21.7570   16.0690   60.2230 O   0  0  0  0  0  0  0  0  0  0  0  0
   20.6210   14.4320   56.7020 C   0  0  0  0  0  0  0  0  0  0  0  0
   21.5920   15.1430   56.5330 O   0  0  0  0  0  0  0  0  0  0  0  0
   19.8160   14.2080   55.5550 N   0  0  0  0  0  0  0  0  0  0  0  0
   18.0970   12.4610   53.9030 H   0  0  0  0  0  0  0  0  0  0  0  0
   17.2760   13.9590   54.1590 H   0  0  0  0  0  0  0  0  0  0  0  0
   17.3383   12.2920   56.9222 H   0  0  0  0  0  0  0  0  0  0  0  0
   18.7159   12.6492   58.9048 H   0  0  0  0  0  0  0  0  0  0  0  0
   22.0479   14.2504   58.7737 H   0  0  0  0  0  0  0  0  0  0  0  0
   22.3339   13.7172   61.2009 H   0  0  0  0  0  0  0  0  0  0  0  0
   22.1732   12.0233   62.8972 H   0  0  0  0  0  0  0  0  0  0  0  0
   20.6657   11.3508   62.1767 H   0  0  0  0  0  0  0  0  0  0  0  0
   23.1690   10.6540   61.6910 H   0  0  0  0  0  0  0  0  0  0  0  0
   19.5415   13.3066   62.2921 H   0  0  0  0  0  0  0  0  0  0  0  0
   20.3880   14.3580   63.8600 H   0  0  0  0  0  0  0  0  0  0  0  0
   19.5400   15.9385   61.5966 H   0  0  0  0  0  0  0  0  0  0  0  0
   19.9900   15.9975   59.1421 H   0  0  0  0  0  0  0  0  0  0  0  0
   22.4620   15.4290   60.4370 H   0  0  0  0  0  0  0  0  0  0  0  0
   20.1540   14.6480   54.7140 H   0  0  0  0  0  0  0  0  0  0  0  0
  1  2  1  0
  2  3  1  0
  3  4  2  0
  4  5  1  0
  5  6  1  0
  6  7  1  0
  7  8  1  0
  8  9  1  0
  9 10  1  0
  8 11  1  0
 11 12  1  0
 11 13  1  0
 13 14  1  0
 13 15  1  0
 15 16  1  0
  5 17  1  0
 17 18  2  0
 17 19  1  0
 19  2  2  0
 15  6  1  0
  1 20  1  0
  1 21  1  0
  3 22  1  0
  4 23  1  0
  6 24  1  6
  8 25  1  6
  9 26  1  0
  9 27  1  0
 10 28  1  0
 11 29  1  1
 12 30  1  0
 13 31  1  1
 15 32  1  6
 16 33  1  0
 19 34  1  0
M  CHG  1  19   1
M  END
>  <meeko>  (3) 
{"is_sidechain": [false], "free_energy": -5.834, "intermolecular_energy": -7.415, "internal_energy": -0.325}

$$$$
3l7b_ligand
     RDKit          3D

 34 35  0  0  0  0  0  0  0  0999 V2000
   21.4220   13.4600   60.8120 N   0  0  0  0  0  0  0  0  0  0  0  0
   20.8840   13.6180   59.6250 C   0  0  0  0  0  0  0  0  0  0  0  0
   19.5410   12.9320   59.3330 C   0  0  0  0  0  0  0  0  0  0  0  0
   18.9900   13.1080   58.1310 C   0  0  0  0  0  0  0  0  0  0  0  0
   19.6070   13.8930   57.1740 N   0  0  0  0  0  0  0  0  0  0  0  0
   19.0110   14.0520   55.8390 C   0  0  2  0  0  0  0  0  0  0  0  0
   18.2950   15.2990   55.8040 O   0  0  0  0  0  0  0  0  0  0  0  0
   17.3760   15.3540   54.7120 C   0  0  2  0  0  0  0  0  0  0  0  0
   16.8680   16.7910   54.5390 C   0  0  0  0  0  0  0  0  0  0  0  0
   15.4430   16.8100   54.5310 O   0  0  0  0  0  0  0  0  0  0  0  0
   16.2020   14.3880   54.9590 C   0  0  1  0  0  0  0  0  0  0  0  0
   15.5440   14.0770   53.7280 O   0  0  0  0  0  0  0  0  0  0  0  0
   16.6680   13.1000   55.6410 C   0  0  2  0  0  0  0  0  0  0  0  0
   16.4570   13.2070   56.9880 F   0  0  0  0  0  0  0  0  0  0  0  0
   18.1520   12.8200   55.4210 C   0  0  1  0  0  0  0  0  0  0  0  0
   18.4250   12.5030   54.0480 O   0  0  0  0  0  0  0  0  0  0  0  0
   20.8340   14.4960   57.3690 C   0  0  0  0  0  0  0  0  0  0  0  0
   21.4900   15.1550   56.5860 O   0  0  0  0  0  0  0  0  0  0  0  0
   21.4090   14.3160   58.6530 N   0  0  0  0  0  0  0  0  0  0  0  0
   21.7560   12.5520   61.1140 H   0  0  0  0  0  0  0  0  0  0  0  0
   21.5200   14.2270   61.4650 H   0  0  0  0  0  0  0  0  0  0  0  0
   19.0466   12.3118   60.0952 H   0  0  0  0  0  0  0  0  0  0  0  0
   18.0312   12.6219   57.8976 H   0  0  0  0  0  0  0  0  0  0  0  0
   19.8055   14.0908   55.0793 H   0  0  0  0  0  0  0  0  0  0  0  0
   17.8877   15.0456   53.7884 H   0  0  0  0  0  0  0  0  0  0  0  0
   17.2353   17.4092   55.3714 H   0  0  0  0  0  0  0  0  0  0  0  0
   17.2384   17.1908   53.5835 H   0  0  0  0  0  0  0  0  0  0  0  0
   15.1650   16.9150   53.6010 H   0  0  0  0  0  0  0  0  0  0  0  0
   15.4930   14.8930   55.6315 H   0  0  0  0  0  0  0  0  0  0  0  0
   15.6390   14.8730   53.1590 H   0  0  0  0  0  0  0  0  0  0  0  0
   16.0921   12.2741   55.1980 H   0  0  0  0  0  0  0  0  0  0  0  0
   18.4176   11.9550   56.0464 H   0  0  0  0  0  0  0  0  0  0  0  0
   17.8710   11.7480   53.7760 H   0  0  0  0  0  0  0  0  0  0  0  0
   22.2950   14.7790   58.7850 H   0  0  0  0  0  0  0  0  0  0  0  0
  1  2  1  0
  2  3  1  0
  3  4  2  0
  4  5  1  0
  5  6  1  0
  6  7  1  0
  7  8  1  0
  8  9  1  0
  9 10  1  0
  8 11  1  0
 11 12  1  0
 11 13  1  0
 13 14  1  0
 13 15  1  0
 15 16  1  0
  5 17  1  0
 17 18  2  0
 17 19  1  0
 19  2  2  0
 15  6  1  0
  1 20  1  0
  1 21  1  0
  3 22  1  0
  4 23  1  0
  6 24  1  6
  8 25  1  6
  9 26  1  0
  9 27  1  0
 10 28  1  0
 11 29  1  1
 12 30  1  0
 13 31  1  6
 15 32  1  1
 16 33  1  0
 19 34  1  0
M  CHG  1  19   1
M  END
>  <meeko>  (4) 
{"is_sidechain": [false], "free_energy": -5.815, "intermolecular_energy": -7.542, "internal_energy": -0.176}

$$$$
3l7b_ligand
     RDKit          3D

 34 35  0  0  0  0  0  0  0  0999 V2000
   13.3060   21.2130   56.1230 N   0  0  0  0  0  0  0  0  0  0  0  0
   13.5110   20.7100   57.3180 C   0  0  0  0  0  0  0  0  0  0  0  0
   12.9310   19.3230   57.6370 C   0  0  0  0  0  0  0  0  0  0  0  0
   13.1570   18.8070   58.8470 C   0  0  0  0  0  0  0  0  0  0  0  0
   13.8990   19.4980   59.7880 N   0  0  0  0  0  0  0  0  0  0  0  0
   14.1110   18.9390   61.1310 C   0  0  2  0  0  0  0  0  0  0  0  0
   15.3510   18.2100   61.1310 O   0  0  0  0  0  0  0  0  0  0  0  0
   15.4440   17.3210   62.2460 C   0  0  2  0  0  0  0  0  0  0  0  0
   16.8820   16.8010   62.3690 C   0  0  0  0  0  0  0  0  0  0  0  0
   16.8890   15.3760   62.3690 O   0  0  0  0  0  0  0  0  0  0  0  0
   14.4550   16.1520   62.0770 C   0  0  1  0  0  0  0  0  0  0  0  0
   14.1920   15.5350   63.3390 O   0  0  0  0  0  0  0  0  0  0  0  0
   13.1430   16.6150   61.4390 C   0  0  2  0  0  0  0  0  0  0  0  0
   13.1870   16.3640   60.0950 F   0  0  0  0  0  0  0  0  0  0  0  0
   12.8890   18.1080   61.6280 C   0  0  1  0  0  0  0  0  0  0  0  0
   12.6380   18.4240   63.0060 O   0  0  0  0  0  0  0  0  0  0  0  0
   14.4050   20.7650   59.5680 C   0  0  0  0  0  0  0  0  0  0  0  0
   15.0170   21.4820   60.3350 O   0  0  0  0  0  0  0  0  0  0  0  0
   14.1740   21.3020   58.2760 N   0  0  0  0  0  0  0  0  0  0  0  0
   14.0490   21.6900   55.6260 H   0  0  0  0  0  0  0  0  0  0  0  0
   12.4090   21.1480   55.6590 H   0  0  0  0  0  0  0  0  0  0  0  0
   12.3451   18.7702   56.8879 H   0  0  0  0  0  0  0  0  0  0  0  0
   12.7473   17.8179   59.0996 H   0  0  0  0  0  0  0  0  0  0  0  0
   14.1924   19.7536   61.8657 H   0  0  0  0  0  0  0  0  0  0  0  0
   15.1820   17.8621   63.1672 H   0  0  0  0  0  0  0  0  0  0  0  0
   17.4755   17.1678   61.5186 H   0  0  0  0  0  0  0  0  0  0  0  0
   17.3164   17.1632   63.3124 H   0  0  0  0  0  0  0  0  0  0  0  0
   17.6210   15.0960   61.7860 H   0  0  0  0  0  0  0  0  0  0  0  0
   14.9212   15.4168   61.4045 H   0  0  0  0  0  0  0  0  0  0  0  0
   14.0440   16.2690   63.9770 H   0  0  0  0  0  0  0  0  0  0  0  0
   12.3315   16.0624   61.9350 H   0  0  0  0  0  0  0  0  0  0  0  0
   11.9994   18.3663   61.0348 H   0  0  0  0  0  0  0  0  0  0  0  0
   13.1740   19.1980   63.2610 H   0  0  0  0  0  0  0  0  0  0  0  0
   14.5670   22.2180   58.1260 H   0  0  0  0  0  0  0  0  0  0  0  0
  1  2  1  0
  2  3  1  0
  3  4  2  0
  4  5  1  0
  5  6  1  0
  6  7  1  0
  7  8  1  0
  8  9  1  0
  9 10  1  0
  8 11  1  0
 11 12  1  0
 11 13  1  0
 13 14  1  0
 13 15  1  0
 15 16  1  0
  5 17  1  0
 17 18  2  0
 17 19  1  0
 19  2  2  0
 15  6  1  0
  1 20  1  0
  1 21  1  0
  3 22  1  0
  4 23  1  0
  6 24  1  1
  8 25  1  1
  9 26  1  0
  9 27  1  0
 10 28  1  0
 11 29  1  6
 12 30  1  0
 13 31  1  1
 15 32  1  6
 16 33  1  0
 19 34  1  0
M  CHG  1  19   1
M  END
>  <meeko>  (5) 
{"is_sidechain": [false], "free_energy": -5.809, "intermolecular_energy": -7.568, "internal_energy": -0.141}

$$$$
3l7b_ligand
     RDKit          3D

 34 35  0  0  0  0  0  0  0  0999 V2000
   10.0540   10.2830   59.3800 N   0  0  0  0  0  0  0  0  0  0  0  0
   10.9530   11.2390   59.4130 C   0  0  0  0  0  0  0  0  0  0  0  0
   10.8830   12.2700   60.5510 C   0  0  0  0  0  0  0  0  0  0  0  0
   11.8080   13.2300   60.5910 C   0  0  0  0  0  0  0  0  0  0  0  0
   12.8090   13.2940   59.6370 N   0  0  0  0  0  0  0  0  0  0  0  0
   13.8030   14.3770   59.6670 C   0  0  2  0  0  0  0  0  0  0  0  0
   14.0400   14.7420   61.0380 O   0  0  0  0  0  0  0  0  0  0  0  0
   14.6710   16.0190   61.1460 C   0  0  2  0  0  0  0  0  0  0  0  0
   15.1700   16.2250   62.5820 C   0  0  0  0  0  0  0  0  0  0  0  0
   14.2770   15.6080   63.5050 O   0  0  0  0  0  0  0  0  0  0  0  0
   13.6850   17.1340   60.7470 C   0  0  1  0  0  0  0  0  0  0  0  0
   14.3940   18.3250   60.3990 O   0  0  0  0  0  0  0  0  0  0  0  0
   12.7890   16.7010   59.5840 C   0  0  2  0  0  0  0  0  0  0  0  0
   11.5970   16.2530   60.0830 F   0  0  0  0  0  0  0  0  0  0  0  0
   13.4020   15.5760   58.7540 C   0  0  1  0  0  0  0  0  0  0  0  0
   14.5610   16.0280   58.0380 O   0  0  0  0  0  0  0  0  0  0  0  0
   12.8920   12.4200   58.5700 C   0  0  0  0  0  0  0  0  0  0  0  0
   13.6870   12.4160   57.6510 O   0  0  0  0  0  0  0  0  0  0  0  0
   11.9140   11.3930   58.5410 N   0  0  0  0  0  0  0  0  0  0  0  0
    9.0790   10.4800   59.5750 H   0  0  0  0  0  0  0  0  0  0  0  0
   10.2960    9.3250   59.1650 H   0  0  0  0  0  0  0  0  0  0  0  0
   10.0908   12.2174   61.3124 H   0  0  0  0  0  0  0  0  0  0  0  0
   11.7750   13.9816   61.3935 H   0  0  0  0  0  0  0  0  0  0  0  0
   14.7523   14.0237   59.2380 H   0  0  0  0  0  0  0  0  0  0  0  0
   15.5313   16.0601   60.4618 H   0  0  0  0  0  0  0  0  0  0  0  0
   16.1690   15.7768   62.6876 H   0  0  0  0  0  0  0  0  0  0  0  0
   15.2185   17.3032   62.7946 H   0  0  0  0  0  0  0  0  0  0  0  0
   13.5880   16.2650   63.7170 H   0  0  0  0  0  0  0  0  0  0  0  0
   13.0420   17.3361   61.6163 H   0  0  0  0  0  0  0  0  0  0  0  0
   15.1430   18.3940   61.0340 H   0  0  0  0  0  0  0  0  0  0  0  0
   12.6596   17.5777   58.9324 H   0  0  0  0  0  0  0  0  0  0  0  0
   12.6404   15.2509   58.0300 H   0  0  0  0  0  0  0  0  0  0  0  0
   14.5530   17.0030   57.9960 H   0  0  0  0  0  0  0  0  0  0  0  0
   12.0010   10.7530   57.7670 H   0  0  0  0  0  0  0  0  0  0  0  0
  1  2  1  0
  2  3  1  0
  3  4  2  0
  4  5  1  0
  5  6  1  0
  6  7  1  0
  7  8  1  0
  8  9  1  0
  9 10  1  0
  8 11  1  0
 11 12  1  0
 11 13  1  0
 13 14  1  0
 13 15  1  0
 15 16  1  0
  5 17  1  0
 17 18  2  0
 17 19  1  0
 19  2  2  0
 15  6  1  0
  1 20  1  0
  1 21  1  0
  3 22  1  0
  4 23  1  0
  6 24  1  6
  8 25  1  6
  9 26  1  0
  9 27  1  0
 10 28  1  0
 11 29  1  1
 12 30  1  0
 13 31  1  6
 15 32  1  6
 16 33  1  0
 19 34  1  0
M  CHG  1  19   1
M  END
>  <meeko>  (6) 
{"is_sidechain": [false], "free_energy": -5.784, "intermolecular_energy": -7.325, "internal_energy": -0.354}

$$$$
3l7b_ligand
     RDKit          3D

 34 35  0  0  0  0  0  0  0  0999 V2000
   13.3230   17.8170   62.7010 N   0  0  0  0  0  0  0  0  0  0  0  0
   13.5420   18.5520   61.6360 C   0  0  0  0  0  0  0  0  0  0  0  0
   12.9740   18.0770   60.2900 C   0  0  0  0  0  0  0  0  0  0  0  0
   13.1840   18.8350   59.2120 C   0  0  0  0  0  0  0  0  0  0  0  0
   13.8890   20.0220   59.3040 N   0  0  0  0  0  0  0  0  0  0  0  0
   14.1480   20.8330   58.1060 C   0  0  2  0  0  0  0  0  0  0  0  0
   13.0060   20.7420   57.2370 O   0  0  0  0  0  0  0  0  0  0  0  0
   13.3160   21.1590   55.9060 C   0  0  2  0  0  0  0  0  0  0  0  0
   12.0180   21.3310   55.1060 C   0  0  0  0  0  0  0  0  0  0  0  0
   12.0000   22.6060   54.4690 O   0  0  0  0  0  0  0  0  0  0  0  0
   14.2400   20.1290   55.2290 C   0  0  1  0  0  0  0  0  0  0  0  0
   14.9240   20.7240   54.1230 O   0  0  0  0  0  0  0  0  0  0  0  0
   15.2540   19.5490   56.2180 C   0  0  2  0  0  0  0  0  0  0  0  0
   14.7840   18.3540   56.6880 F   0  0  0  0  0  0  0  0  0  0  0  0
   15.4970   20.4610   57.4170 C   0  0  1  0  0  0  0  0  0  0  0  0
   16.1720   21.6670   57.0270 O   0  0  0  0  0  0  0  0  0  0  0  0
   14.4580   20.4730   60.4800 C   0  0  0  0  0  0  0  0  0  0  0  0
   15.1400   21.4620   60.6640 O   0  0  0  0  0  0  0  0  0  0  0  0
   14.2200   19.6690   61.6240 N   0  0  0  0  0  0  0  0  0  0  0  0
   12.4910   17.9540   63.2640 H   0  0  0  0  0  0  0  0  0  0  0  0
   13.9670   17.0960   62.9990 H   0  0  0  0  0  0  0  0  0  0  0  0
   12.4087   17.1362   60.2167 H   0  0  0  0  0  0  0  0  0  0  0  0
   12.7912   18.5117   58.2367 H   0  0  0  0  0  0  0  0  0  0  0  0
   14.2784   21.8873   58.3913 H   0  0  0  0  0  0  0  0  0  0  0  0
   13.8428   22.1241   55.9394 H   0  0  0  0  0  0  0  0  0  0  0  0
   11.9542   20.5419   54.3423 H   0  0  0  0  0  0  0  0  0  0  0  0
   11.1607   21.2591   55.7914 H   0  0  0  0  0  0  0  0  0  0  0  0
   11.9980   23.2780   55.1780 H   0  0  0  0  0  0  0  0  0  0  0  0
   13.6086   19.3053   54.8646 H   0  0  0  0  0  0  0  0  0  0  0  0
   15.0340   21.6760   54.3490 H   0  0  0  0  0  0  0  0  0  0  0  0
   16.2041   19.4338   55.6758 H   0  0  0  0  0  0  0  0  0  0  0  0
   16.1335   19.9089   58.1242 H   0  0  0  0  0  0  0  0  0  0  0  0
   16.6300   21.5180   56.1780 H   0  0  0  0  0  0  0  0  0  0  0  0
   14.6260   20.0230   62.4770 H   0  0  0  0  0  0  0  0  0  0  0  0
  1  2  1  0
  2  3  1  0
  3  4  2  0
  4  5  1  0
  5  6  1  0
  6  7  1  0
  7  8  1  0
  8  9  1  0
  9 10  1  0
  8 11  1  0
 11 12  1  0
 11 13  1  0
 13 14  1  0
 13 15  1  0
 15 16  1  0
  5 17  1  0
 17 18  2  0
 17 19  1  0
 19  2  2  0
 15  6  1  0
  1 20  1  0
  1 21  1  0
  3 22  1  0
  4 23  1  0
  6 24  1  1
  8 25  1  1
  9 26  1  0
  9 27  1  0
 10 28  1  0
 11 29  1  6
 12 30  1  0
 13 31  1  6
 15 32  1  1
 16 33  1  0
 19 34  1  0
M  CHG  1  19   1
M  END
>  <meeko>  (7) 
{"is_sidechain": [false], "free_energy": -5.781, "intermolecular_energy": -7.331, "internal_energy": -0.344}

$$$$
3l7b_ligand
     RDKit          3D

 34 35  0  0  0  0  0  0  0  0999 V2000
   10.4790    9.9170   57.4320 N   0  0  0  0  0  0  0  0  0  0  0  0
   11.3970   10.8550   57.4110 C   0  0  0  0  0  0  0  0  0  0  0  0
   12.4580   10.8140   56.2990 C   0  0  0  0  0  0  0  0  0  0  0  0
   13.3790   11.7780   56.2700 C   0  0  0  0  0  0  0  0  0  0  0  0
   13.3780   12.7920   57.2110 N   0  0  0  0  0  0  0  0  0  0  0  0
   14.4200   13.8290   57.1940 C   0  0  2  0  0  0  0  0  0  0  0  0
   14.8850   13.9880   55.8420 O   0  0  0  0  0  0  0  0  0  0  0  0
   16.1400   14.6690   55.7880 C   0  0  2  0  0  0  0  0  0  0  0  0
   16.4410   15.0770   54.3400 C   0  0  0  0  0  0  0  0  0  0  0  0
   15.5900   14.3670   53.4440 O   0  0  0  0  0  0  0  0  0  0  0  0
   17.2570   13.7640   56.3420 C   0  0  1  0  0  0  0  0  0  0  0  0
   18.3870   14.5490   56.7300 O   0  0  0  0  0  0  0  0  0  0  0  0
   16.7680   12.9310   57.5300 C   0  0  2  0  0  0  0  0  0  0  0  0
   16.4100   11.6880   57.0850 F   0  0  0  0  0  0  0  0  0  0  0  0
   15.5570   13.5470   58.2230 C   0  0  1  0  0  0  0  0  0  0  0  0
   15.9020   14.7720   58.8870 O   0  0  0  0  0  0  0  0  0  0  0  0
   12.4760   12.8520   58.2560 C   0  0  0  0  0  0  0  0  0  0  0  0
   12.4170   13.6570   59.1640 O   0  0  0  0  0  0  0  0  0  0  0  0
   11.4900   11.8320   58.2730 N   0  0  0  0  0  0  0  0  0  0  0  0
   10.0150    9.6250   56.5790 H   0  0  0  0  0  0  0  0  0  0  0  0
   10.2000    9.4570   58.2890 H   0  0  0  0  0  0  0  0  0  0  0  0
   12.4574   10.0109   55.5473 H   0  0  0  0  0  0  0  0  0  0  0  0
   14.1508   11.7667   55.4863 H   0  0  0  0  0  0  0  0  0  0  0  0
   13.9951   14.7879   57.5257 H   0  0  0  0  0  0  0  0  0  0  0  0
   16.0913   15.5757   56.4088 H   0  0  0  0  0  0  0  0  0  0  0  0
   16.2712   16.1576   54.2237 H   0  0  0  0  0  0  0  0  0  0  0  0
   17.4889   14.8357   54.1085 H   0  0  0  0  0  0  0  0  0  0  0  0
   16.0320   14.3660   52.5740 H   0  0  0  0  0  0  0  0  0  0  0  0
   17.5533   13.0726   55.5394 H   0  0  0  0  0  0  0  0  0  0  0  0
   18.8420   14.0410   57.4390 H   0  0  0  0  0  0  0  0  0  0  0  0
   17.5938   12.8870   58.2554 H   0  0  0  0  0  0  0  0  0  0  0  0
   15.2062   12.8222   58.9724 H   0  0  0  0  0  0  0  0  0  0  0  0
   16.5970   15.2300   58.3760 H   0  0  0  0  0  0  0  0  0  0  0  0
   10.8280   11.9020   59.0310 H   0  0  0  0  0  0  0  0  0  0  0  0
  1  2  1  0
  2  3  1  0
  3  4  2  0
  4  5  1  0
  5  6  1  0
  6  7  1  0
  7  8  1  0
  8  9  1  0
  9 10  1  0
  8 11  1  0
 11 12  1  0
 11 13  1  0
 13 14  1  0
 13 15  1  0
 15 16  1  0
  5 17  1  0
 17 18  2  0
 17 19  1  0
 19  2  2  0
 15  6  1  0
  1 20  1  0
  1 21  1  0
  3 22  1  0
  4 23  1  0
  6 24  1  1
  8 25  1  1
  9 26  1  0
  9 27  1  0
 10 28  1  0
 11 29  1  6
 12 30  1  0
 13 31  1  1
 15 32  1  1
 16 33  1  0
 19 34  1  0
M  CHG  1  19   1
M  END
>  <meeko>  (8) 
{"is_sidechain": [false], "free_energy": -5.767, "intermolecular_energy": -7.3, "internal_energy": -0.357}

$$$$
3l7b_ligand
     RDKit          3D

 34 35  0  0  0  0  0  0  0  0999 V2000
    9.9780   10.3900   57.8330 N   0  0  0  0  0  0  0  0  0  0  0  0
   10.7620   11.2750   58.4050 C   0  0  0  0  0  0  0  0  0  0  0  0
   12.0850   11.6360   57.7120 C   0  0  0  0  0  0  0  0  0  0  0  0
   12.8710   12.5470   58.2870 C   0  0  0  0  0  0  0  0  0  0  0  0
   12.5030   13.1570   59.4730 N   0  0  0  0  0  0  0  0  0  0  0  0
   13.3920   14.1340   60.1200 C   0  0  2  0  0  0  0  0  0  0  0  0
   12.6900   15.3830   60.2370 O   0  0  0  0  0  0  0  0  0  0  0  0
   13.5810   16.4730   60.4810 C   0  0  2  0  0  0  0  0  0  0  0  0
   12.7770   17.7120   60.8940 C   0  0  0  0  0  0  0  0  0  0  0  0
   12.7060   17.7990   62.3140 O   0  0  0  0  0  0  0  0  0  0  0  0
   14.4210   16.7630   59.2220 C   0  0  1  0  0  0  0  0  0  0  0  0
   15.6010   17.4930   59.5670 O   0  0  0  0  0  0  0  0  0  0  0  0
   14.8010   15.4730   58.4910 C   0  0  2  0  0  0  0  0  0  0  0  0
   13.9150   15.2610   57.4710 F   0  0  0  0  0  0  0  0  0  0  0  0
   14.7710   14.2490   59.4010 C   0  0  1  0  0  0  0  0  0  0  0  0
   15.8100   14.3060   60.3890 O   0  0  0  0  0  0  0  0  0  0  0  0
   11.3470   12.8380   60.1590 C   0  0  0  0  0  0  0  0  0  0  0  0
   10.9540   13.2650   61.2270 O   0  0  0  0  0  0  0  0  0  0  0  0
   10.5090   11.8780   59.5360 N   0  0  0  0  0  0  0  0  0  0  0  0
    9.3100    9.8580   58.3800 H   0  0  0  0  0  0  0  0  0  0  0  0
   10.0100   10.2050   56.8390 H   0  0  0  0  0  0  0  0  0  0  0  0
   12.3762   11.1555   56.7663 H   0  0  0  0  0  0  0  0  0  0  0  0
   13.8254   12.8173   57.8116 H   0  0  0  0  0  0  0  0  0  0  0  0
   13.6495   13.7901   61.1326 H   0  0  0  0  0  0  0  0  0  0  0  0
   14.2671   16.2076   61.2988 H   0  0  0  0  0  0  0  0  0  0  0  0
   13.2686   18.6131   60.4985 H   0  0  0  0  0  0  0  0  0  0  0  0
   11.7582   17.6320   60.4870 H   0  0  0  0  0  0  0  0  0  0  0  0
   12.1760   18.5920   62.5250 H   0  0  0  0  0  0  0  0  0  0  0  0
   13.8039   17.3707   58.5439 H   0  0  0  0  0  0  0  0  0  0  0  0
   15.2980   18.2750   60.0830 H   0  0  0  0  0  0  0  0  0  0  0  0
   15.8294   15.6017   58.1224 H   0  0  0  0  0  0  0  0  0  0  0  0
   14.9325   13.3659   58.7653 H   0  0  0  0  0  0  0  0  0  0  0  0
   16.6250   13.9130   60.0220 H   0  0  0  0  0  0  0  0  0  0  0  0
    9.6610   11.6720   60.0400 H   0  0  0  0  0  0  0  0  0  0  0  0
  1  2  1  0
  2  3  1  0
  3  4  2  0
  4  5  1  0
  5  6  1  0
  6  7  1  0
  7  8  1  0
  8  9  1  0
  9 10  1  0
  8 11  1  0
 11 12  1  0
 11 13  1  0
 13 14  1  0
 13 15  1  0
 15 16  1  0
  5 17  1  0
 17 18  2  0
 17 19  1  0
 19  2  2  0
 15  6  1  0
  1 20  1  0
  1 21  1  0
  3 22  1  0
  4 23  1  0
  6 24  1  1
  8 25  1  1
  9 26  1  0
  9 27  1  0
 10 28  1  0
 11 29  1  6
 12 30  1  0
 13 31  1  6
 15 32  1  6
 16 33  1  0
 19 34  1  0
M  CHG  1  19   1
M  END
>  <meeko>  (9) 
{"is_sidechain": [false], "free_energy": -5.607, "intermolecular_energy": -7.432, "internal_energy": -0.027}

$$$$
