1o3f_ligand
     RDKit          3D

 43 46  0  0  0  0  0  0  0  0999 V2000
   44.2930   -2.9830   24.1100 N   0  0  0  0  0  0  0  0  0  0  0  0
   44.1800   -3.6850   25.2160 C   0  0  0  0  0  0  0  0  0  0  0  0
   44.1340   -5.0000   25.1960 N   0  0  0  0  0  0  0  0  0  0  0  0
   44.1060   -2.9860   26.5040 C   0  0  0  0  0  0  0  0  0  0  0  0
   44.3240   -1.6020   26.5720 C   0  0  0  0  0  0  0  0  0  0  0  0
   44.2620   -0.9130   27.7880 C   0  0  0  0  0  0  0  0  0  0  0  0
   43.9720   -1.6560   28.9350 C   0  0  0  0  0  0  0  0  0  0  0  0
   43.8490   -1.2580   30.2440 N   0  0  0  0  0  0  0  0  0  0  0  0
   43.5480   -2.3180   31.0730 C   0  0  0  0  0  0  0  0  0  0  0  0
   43.3600   -2.1580   32.5300 C   0  0  0  0  0  0  0  0  0  0  0  0
   42.4610   -3.0000   33.2030 C   0  0  0  0  0  0  0  0  0  0  0  0
   42.2500   -2.8860   34.5790 C   0  0  0  0  0  0  0  0  0  0  0  0
   42.9370   -1.9230   35.3130 C   0  0  0  0  0  0  0  0  0  0  0  0
   43.8460   -1.0570   34.6870 C   0  0  0  0  0  0  0  0  0  0  0  0
   44.5480   -0.0570   35.5000 C   0  0  0  0  0  0  0  0  0  0  0  0
   43.9910    1.2130   35.7100 C   0  0  0  0  0  0  0  0  0  0  0  0
   44.6500    2.1570   36.5000 C   0  0  0  0  0  0  0  0  0  0  0  0
   45.8740    1.8420   37.0870 C   0  0  0  0  0  0  0  0  0  0  0  0
   46.4410    0.5850   36.8850 C   0  0  0  0  0  0  0  0  0  0  0  0
   45.7820   -0.3580   36.0950 C   0  0  0  0  0  0  0  0  0  0  0  0
   44.0480   -1.1850   33.2940 C   0  0  0  0  0  0  0  0  0  0  0  0
   44.9380   -0.3460   32.6510 O   0  0  0  0  0  0  0  0  0  0  0  0
   43.4820   -3.4310   30.2480 C   0  0  0  0  0  0  0  0  0  0  0  0
   43.7480   -3.0280   28.9100 C   0  0  0  0  0  0  0  0  0  0  0  0
   43.8160   -3.7050   27.6780 C   0  0  0  0  0  0  0  0  0  0  0  0
   44.2990   -1.9690   24.1600 H   0  0  0  0  0  0  0  0  0  0  0  0
   44.3500   -3.4080   23.1950 H   0  0  0  0  0  0  0  0  0  0  0  0
   44.1840   -5.5360   24.3410 H   0  0  0  0  0  0  0  0  0  0  0  0
   44.0720   -5.5130   26.0700 H   0  0  0  0  0  0  0  0  0  0  0  0
   44.5485   -1.0465   25.6495 H   0  0  0  0  0  0  0  0  0  0  0  0
   44.4350    0.1721   27.8390 H   0  0  0  0  0  0  0  0  0  0  0  0
   43.9580   -0.3110   30.5880 H   0  0  0  0  0  0  0  0  0  0  0  0
   41.9114   -3.7652   32.6352 H   0  0  0  0  0  0  0  0  0  0  0  0
   41.5401   -3.5580   35.0834 H   0  0  0  0  0  0  0  0  0  0  0  0
   42.7651   -1.8402   36.3963 H   0  0  0  0  0  0  0  0  0  0  0  0
   43.0258    1.4677   35.2479 H   0  0  0  0  0  0  0  0  0  0  0  0
   44.2030    3.1494   36.6590 H   0  0  0  0  0  0  0  0  0  0  0  0
   46.3927    2.5856   37.7099 H   0  0  0  0  0  0  0  0  0  0  0  0
   47.4073    0.3363   37.3480 H   0  0  0  0  0  0  0  0  0  0  0  0
   46.2351   -1.3478   35.9373 H   0  0  0  0  0  0  0  0  0  0  0  0
   45.4710   -0.8820   32.0340 H   0  0  0  0  0  0  0  0  0  0  0  0
   43.2602   -4.4576   30.5750 H   0  0  0  0  0  0  0  0  0  0  0  0
   43.6433   -4.7904   27.6332 H   0  0  0  0  0  0  0  0  0  0  0  0
  1  2  1  0
  2  3  2  0
  2  4  1  0
  4  5  2  0
  5  6  1  0
  6  7  2  0
  7  8  1  0
  8  9  1  0
  9 10  1  0
 10 11  2  0
 11 12  1  0
 12 13  2  0
 13 14  1  0
 14 15  1  0
 15 16  2  0
 16 17  1  0
 17 18  2  0
 18 19  1  0
 19 20  2  0
 14 21  2  0
 21 22  1  0
  9 23  2  0
 23 24  1  0
 24 25  2  0
 25  4  1  0
 24  7  1  0
 21 10  1  0
 20 15  1  0
  1 26  1  0
  1 27  1  0
  3 28  1  0
  3 29  1  0
  5 30  1  0
  6 31  1  0
  8 32  1  0
 11 33  1  0
 12 34  1  0
 13 35  1  0
 16 36  1  0
 17 37  1  0
 18 38  1  0
 19 39  1  0
 20 40  1  0
 22 41  1  0
 23 42  1  0
 25 43  1  0
M  CHG  1   3   1
M  END
>  <meeko>  (1) 
{"is_sidechain": [false], "free_energy": -8.963, "intermolecular_energy": -10.797, "internal_energy": -0.9}

$$$$
1o3f_ligand
     RDKit          3D

 43 46  0  0  0  0  0  0  0  0999 V2000
   44.0990   -5.0270   25.2160 N   0  0  0  0  0  0  0  0  0  0  0  0
   44.2000   -3.7160   25.2420 C   0  0  0  0  0  0  0  0  0  0  0  0
   44.3240   -3.0140   24.1360 N   0  0  0  0  0  0  0  0  0  0  0  0
   44.1720   -3.0210   26.5330 C   0  0  0  0  0  0  0  0  0  0  0  0
   44.5910   -1.6860   26.6280 C   0  0  0  0  0  0  0  0  0  0  0  0
   44.5770   -1.0020   27.8480 C   0  0  0  0  0  0  0  0  0  0  0  0
   44.1260   -1.7000   28.9720 C   0  0  0  0  0  0  0  0  0  0  0  0
   44.0030   -1.2940   30.2790 N   0  0  0  0  0  0  0  0  0  0  0  0
   43.5090   -2.3020   31.0810 C   0  0  0  0  0  0  0  0  0  0  0  0
   43.2800   -2.1230   32.5290 C   0  0  0  0  0  0  0  0  0  0  0  0
   43.0570   -3.2520   33.3340 C   0  0  0  0  0  0  0  0  0  0  0  0
   42.8360   -3.1330   34.7070 C   0  0  0  0  0  0  0  0  0  0  0  0
   42.8320   -1.8770   35.3080 C   0  0  0  0  0  0  0  0  0  0  0  0
   43.0490   -0.7180   34.5480 C   0  0  0  0  0  0  0  0  0  0  0  0
   43.0370    0.5860   35.2220 C   0  0  0  0  0  0  0  0  0  0  0  0
   41.8250    1.2290   35.5110 C   0  0  0  0  0  0  0  0  0  0  0  0
   41.8130    2.4600   36.1710 C   0  0  0  0  0  0  0  0  0  0  0  0
   43.0130    3.0610   36.5460 C   0  0  0  0  0  0  0  0  0  0  0  0
   44.2250    2.4340   36.2630 C   0  0  0  0  0  0  0  0  0  0  0  0
   44.2370    1.2040   35.6030 C   0  0  0  0  0  0  0  0  0  0  0  0
   43.2720   -0.8550   33.1580 C   0  0  0  0  0  0  0  0  0  0  0  0
   43.4880    0.2700   32.3840 O   0  0  0  0  0  0  0  0  0  0  0  0
   43.3150   -3.3880   30.2400 C   0  0  0  0  0  0  0  0  0  0  0  0
   43.7010   -3.0220   28.9200 C   0  0  0  0  0  0  0  0  0  0  0  0
   43.7240   -3.6950   27.6840 C   0  0  0  0  0  0  0  0  0  0  0  0
   44.0330   -5.5410   26.0900 H   0  0  0  0  0  0  0  0  0  0  0  0
   44.1100   -5.5610   24.3590 H   0  0  0  0  0  0  0  0  0  0  0  0
   44.3450   -3.4370   23.2190 H   0  0  0  0  0  0  0  0  0  0  0  0
   44.3740   -2.0010   24.1890 H   0  0  0  0  0  0  0  0  0  0  0  0
   44.9382   -1.1654   25.7233 H   0  0  0  0  0  0  0  0  0  0  0  0
   44.9080    0.0445   27.9201 H   0  0  0  0  0  0  0  0  0  0  0  0
   44.2370   -0.3760   30.6390 H   0  0  0  0  0  0  0  0  0  0  0  0
   43.0565   -4.2507   32.8729 H   0  0  0  0  0  0  0  0  0  0  0  0
   42.6647   -4.0332   35.3155 H   0  0  0  0  0  0  0  0  0  0  0  0
   42.6568   -1.7926   36.3907 H   0  0  0  0  0  0  0  0  0  0  0  0
   40.8750    0.7598   35.2153 H   0  0  0  0  0  0  0  0  0  0  0  0
   40.8564    2.9549   36.3947 H   0  0  0  0  0  0  0  0  0  0  0  0
   43.0036    4.0305   37.0655 H   0  0  0  0  0  0  0  0  0  0  0  0
   45.1721    2.9083   36.5597 H   0  0  0  0  0  0  0  0  0  0  0  0
   45.1966    0.7149   35.3796 H   0  0  0  0  0  0  0  0  0  0  0  0
   43.5000   -0.0030   31.4480 H   0  0  0  0  0  0  0  0  0  0  0  0
   42.9264   -4.3712   30.5437 H   0  0  0  0  0  0  0  0  0  0  0  0
   43.3935   -4.7421   27.6182 H   0  0  0  0  0  0  0  0  0  0  0  0
  1  2  1  0
  2  3  2  0
  2  4  1  0
  4  5  2  0
  5  6  1  0
  6  7  2  0
  7  8  1  0
  8  9  1  0
  9 10  1  0
 10 11  2  0
 11 12  1  0
 12 13  2  0
 13 14  1  0
 14 15  1  0
 15 16  2  0
 16 17  1  0
 17 18  2  0
 18 19  1  0
 19 20  2  0
 14 21  2  0
 21 22  1  0
  9 23  2  0
 23 24  1  0
 24 25  2  0
 25  4  1  0
 24  7  1  0
 21 10  1  0
 20 15  1  0
  1 26  1  0
  1 27  1  0
  3 28  1  0
  3 29  1  0
  5 30  1  0
  6 31  1  0
  8 32  1  0
 11 33  1  0
 12 34  1  0
 13 35  1  0
 16 36  1  0
 17 37  1  0
 18 38  1  0
 19 39  1  0
 20 40  1  0
 22 41  1  0
 23 42  1  0
 25 43  1  0
M  CHG  1   3   1
M  END
>  <meeko>  (2) 
{"is_sidechain": [false], "free_energy": -8.715, "intermolecular_energy": -10.673, "internal_energy": -0.725}

$$$$
1o3f_ligand
     RDKit          3D

 43 46  0  0  0  0  0  0  0  0999 V2000
   44.6360   -3.0280   24.1900 N   0  0  0  0  0  0  0  0  0  0  0  0
   44.3200   -3.7360   25.2530 C   0  0  0  0  0  0  0  0  0  0  0  0
   44.0630   -5.0230   25.1720 N   0  0  0  0  0  0  0  0  0  0  0  0
   44.2560   -3.0730   26.5610 C   0  0  0  0  0  0  0  0  0  0  0  0
   44.8080   -1.7970   26.7360 C   0  0  0  0  0  0  0  0  0  0  0  0
   44.7620   -1.1450   27.9740 C   0  0  0  0  0  0  0  0  0  0  0  0
   44.1410   -1.8160   29.0310 C   0  0  0  0  0  0  0  0  0  0  0  0
   43.9500   -1.4320   30.3370 N   0  0  0  0  0  0  0  0  0  0  0  0
   43.2810   -2.3980   31.0590 C   0  0  0  0  0  0  0  0  0  0  0  0
   42.9480   -2.2300   32.4880 C   0  0  0  0  0  0  0  0  0  0  0  0
   43.1210   -3.3130   33.3650 C   0  0  0  0  0  0  0  0  0  0  0  0
   42.8190   -3.2030   34.7240 C   0  0  0  0  0  0  0  0  0  0  0  0
   42.3360   -2.0020   35.2370 C   0  0  0  0  0  0  0  0  0  0  0  0
   42.1440   -0.8910   34.4020 C   0  0  0  0  0  0  0  0  0  0  0  0
   41.6330    0.3550   34.9850 C   0  0  0  0  0  0  0  0  0  0  0  0
   40.2580    0.6340   34.9810 C   0  0  0  0  0  0  0  0  0  0  0  0
   39.7700    1.8100   35.5540 C   0  0  0  0  0  0  0  0  0  0  0  0
   40.6500    2.7200   36.1350 C   0  0  0  0  0  0  0  0  0  0  0  0
   42.0190    2.4570   36.1450 C   0  0  0  0  0  0  0  0  0  0  0  0
   42.5070    1.2820   35.5710 C   0  0  0  0  0  0  0  0  0  0  0  0
   42.4540   -1.0190   33.0290 C   0  0  0  0  0  0  0  0  0  0  0  0
   42.2760    0.0600   32.1830 O   0  0  0  0  0  0  0  0  0  0  0  0
   43.0440   -3.4340   30.1680 C   0  0  0  0  0  0  0  0  0  0  0  0
   43.5810   -3.0810   28.8990 C   0  0  0  0  0  0  0  0  0  0  0  0
   43.6380   -3.7220   27.6470 C   0  0  0  0  0  0  0  0  0  0  0  0
   44.8020   -2.0310   24.2850 H   0  0  0  0  0  0  0  0  0  0  0  0
   44.6970   -3.4280   23.2650 H   0  0  0  0  0  0  0  0  0  0  0  0
   44.0950   -5.5340   24.3000 H   0  0  0  0  0  0  0  0  0  0  0  0
   43.8470   -5.5450   26.0160 H   0  0  0  0  0  0  0  0  0  0  0  0
   45.2879   -1.2967   25.8820 H   0  0  0  0  0  0  0  0  0  0  0  0
   45.1975   -0.1440   28.1095 H   0  0  0  0  0  0  0  0  0  0  0  0
   44.2510   -0.5550   30.7460 H   0  0  0  0  0  0  0  0  0  0  0  0
   43.5022   -4.2676   32.9735 H   0  0  0  0  0  0  0  0  0  0  0  0
   42.9629   -4.0664   35.3902 H   0  0  0  0  0  0  0  0  0  0  0  0
   42.1023   -1.9234   36.3090 H   0  0  0  0  0  0  0  0  0  0  0  0
   39.5582   -0.0801   34.5224 H   0  0  0  0  0  0  0  0  0  0  0  0
   38.6899    2.0180   35.5466 H   0  0  0  0  0  0  0  0  0  0  0  0
   40.2647    3.6463   36.5860 H   0  0  0  0  0  0  0  0  0  0  0  0
   42.7141    3.1749   36.6049 H   0  0  0  0  0  0  0  0  0  0  0  0
   43.5885    1.0810   35.5784 H   0  0  0  0  0  0  0  0  0  0  0  0
   42.0360    0.8340   32.7240 H   0  0  0  0  0  0  0  0  0  0  0  0
   42.5255   -4.3750   30.4041 H   0  0  0  0  0  0  0  0  0  0  0  0
   43.2024   -4.7238   27.5179 H   0  0  0  0  0  0  0  0  0  0  0  0
  1  2  1  0
  2  3  2  0
  2  4  1  0
  4  5  2  0
  5  6  1  0
  6  7  2  0
  7  8  1  0
  8  9  1  0
  9 10  1  0
 10 11  2  0
 11 12  1  0
 12 13  2  0
 13 14  1  0
 14 15  1  0
 15 16  2  0
 16 17  1  0
 17 18  2  0
 18 19  1  0
 19 20  2  0
 14 21  2  0
 21 22  1  0
  9 23  2  0
 23 24  1  0
 24 25  2  0
 25  4  1  0
 24  7  1  0
 21 10  1  0
 20 15  1  0
  1 26  1  0
  1 27  1  0
  3 28  1  0
  3 29  1  0
  5 30  1  0
  6 31  1  0
  8 32  1  0
 11 33  1  0
 12 34  1  0
 13 35  1  0
 16 36  1  0
 17 37  1  0
 18 38  1  0
 19 39  1  0
 20 40  1  0
 22 41  1  0
 23 42  1  0
 25 43  1  0
M  CHG  1   3   1
M  END
>  <meeko>  (3) 
{"is_sidechain": [false], "free_energy": -8.371, "intermolecular_energy": -10.054, "internal_energy": -0.93}

$$$$
1o3f_ligand
     RDKit          3D

 43 46  0  0  0  0  0  0  0  0999 V2000
   41.7940    3.0300   35.9120 N   0  0  0  0  0  0  0  0  0  0  0  0
   43.0160    3.3660   36.2620 C   0  0  0  0  0  0  0  0  0  0  0  0
   43.2920    4.5600   36.7410 N   0  0  0  0  0  0  0  0  0  0  0  0
   44.0970    2.3850   36.1180 C   0  0  0  0  0  0  0  0  0  0  0  0
   44.2900    1.7170   34.9010 C   0  0  0  0  0  0  0  0  0  0  0  0
   45.3120    0.7750   34.7390 C   0  0  0  0  0  0  0  0  0  0  0  0
   46.1380    0.5260   35.8390 C   0  0  0  0  0  0  0  0  0  0  0  0
   47.2040   -0.3310   35.9740 N   0  0  0  0  0  0  0  0  0  0  0  0
   47.7510   -0.2670   37.2380 C   0  0  0  0  0  0  0  0  0  0  0  0
   48.9110   -1.0880   37.6420 C   0  0  0  0  0  0  0  0  0  0  0  0
   48.7090   -2.1990   38.4760 C   0  0  0  0  0  0  0  0  0  0  0  0
   49.7740   -3.0050   38.8850 C   0  0  0  0  0  0  0  0  0  0  0  0
   51.0700   -2.7150   38.4660 C   0  0  0  0  0  0  0  0  0  0  0  0
   51.3250   -1.6150   37.6320 C   0  0  0  0  0  0  0  0  0  0  0  0
   52.7050   -1.3460   37.2140 C   0  0  0  0  0  0  0  0  0  0  0  0
   53.7860   -1.7720   38.0010 C   0  0  0  0  0  0  0  0  0  0  0  0
   55.1000   -1.5330   37.5930 C   0  0  0  0  0  0  0  0  0  0  0  0
   55.3480   -0.8650   36.3950 C   0  0  0  0  0  0  0  0  0  0  0  0
   54.2840   -0.4340   35.6040 C   0  0  0  0  0  0  0  0  0  0  0  0
   52.9710   -0.6720   36.0130 C   0  0  0  0  0  0  0  0  0  0  0  0
   50.2350   -0.8090   37.2280 C   0  0  0  0  0  0  0  0  0  0  0  0
   50.4570    0.2800   36.4060 O   0  0  0  0  0  0  0  0  0  0  0  0
   46.9940    0.6680   37.9270 C   0  0  0  0  0  0  0  0  0  0  0  0
   45.9810    1.1680   37.0630 C   0  0  0  0  0  0  0  0  0  0  0  0
   44.9470    2.1110   37.2070 C   0  0  0  0  0  0  0  0  0  0  0  0
   41.6210    2.1080   35.5210 H   0  0  0  0  0  0  0  0  0  0  0  0
   41.0090    3.6610   35.9900 H   0  0  0  0  0  0  0  0  0  0  0  0
   42.5890    5.2750   36.8660 H   0  0  0  0  0  0  0  0  0  0  0  0
   44.2420    4.7790   37.0250 H   0  0  0  0  0  0  0  0  0  0  0  0
   43.6233    1.9382   34.0545 H   0  0  0  0  0  0  0  0  0  0  0  0
   45.4597    0.2508   33.7833 H   0  0  0  0  0  0  0  0  0  0  0  0
   47.5660   -0.9430   35.2530 H   0  0  0  0  0  0  0  0  0  0  0  0
   47.6905   -2.4399   38.8146 H   0  0  0  0  0  0  0  0  0  0  0  0
   49.5887   -3.8699   39.5389 H   0  0  0  0  0  0  0  0  0  0  0  0
   51.9031   -3.3550   38.7922 H   0  0  0  0  0  0  0  0  0  0  0  0
   53.5966   -2.2989   38.9478 H   0  0  0  0  0  0  0  0  0  0  0  0
   55.9398   -1.8721   38.2174 H   0  0  0  0  0  0  0  0  0  0  0  0
   56.3833   -0.6779   36.0737 H   0  0  0  0  0  0  0  0  0  0  0  0
   54.4791    0.0931   34.6585 H   0  0  0  0  0  0  0  0  0  0  0  0
   52.1353   -0.3271   35.3864 H   0  0  0  0  0  0  0  0  0  0  0  0
   51.4150    0.4580   36.3890 H   0  0  0  0  0  0  0  0  0  0  0  0
   47.1513    0.9735   38.9720 H   0  0  0  0  0  0  0  0  0  0  0  0
   44.8031    2.6317   38.1652 H   0  0  0  0  0  0  0  0  0  0  0  0
  1  2  1  0
  2  3  2  0
  2  4  1  0
  4  5  2  0
  5  6  1  0
  6  7  2  0
  7  8  1  0
  8  9  1  0
  9 10  1  0
 10 11  2  0
 11 12  1  0
 12 13  2  0
 13 14  1  0
 14 15  1  0
 15 16  2  0
 16 17  1  0
 17 18  2  0
 18 19  1  0
 19 20  2  0
 14 21  2  0
 21 22  1  0
  9 23  2  0
 23 24  1  0
 24 25  2  0
 25  4  1  0
 24  7  1  0
 21 10  1  0
 20 15  1  0
  1 26  1  0
  1 27  1  0
  3 28  1  0
  3 29  1  0
  5 30  1  0
  6 31  1  0
  8 32  1  0
 11 33  1  0
 12 34  1  0
 13 35  1  0
 16 36  1  0
 17 37  1  0
 18 38  1  0
 19 39  1  0
 20 40  1  0
 22 41  1  0
 23 42  1  0
 25 43  1  0
M  CHG  1   3   1
M  END
>  <meeko>  (4) 
{"is_sidechain": [false], "free_energy": -7.826, "intermolecular_energy": -10.138, "internal_energy": -0.19}

$$$$
1o3f_ligand
     RDKit          3D

 43 46  0  0  0  0  0  0  0  0999 V2000
   44.3970   -4.7150   25.5050 N   0  0  0  0  0  0  0  0  0  0  0  0
   44.2300   -3.5090   26.0010 C   0  0  0  0  0  0  0  0  0  0  0  0
   44.3350   -2.4340   25.2490 N   0  0  0  0  0  0  0  0  0  0  0  0
   43.9150   -3.3580   27.4260 C   0  0  0  0  0  0  0  0  0  0  0  0
   44.0600   -4.4430   28.3020 C   0  0  0  0  0  0  0  0  0  0  0  0
   43.7640   -4.3260   29.6650 C   0  0  0  0  0  0  0  0  0  0  0  0
   43.3200   -3.0820   30.1220 C   0  0  0  0  0  0  0  0  0  0  0  0
   42.9600   -2.6760   31.3840 N   0  0  0  0  0  0  0  0  0  0  0  0
   42.5800   -1.3500   31.4040 C   0  0  0  0  0  0  0  0  0  0  0  0
   42.1490   -0.6680   32.6410 C   0  0  0  0  0  0  0  0  0  0  0  0
   40.8170   -0.7930   33.0670 C   0  0  0  0  0  0  0  0  0  0  0  0
   40.3630   -0.1660   34.2290 C   0  0  0  0  0  0  0  0  0  0  0  0
   41.2360    0.6030   34.9940 C   0  0  0  0  0  0  0  0  0  0  0  0
   42.5760    0.7600   34.6120 C   0  0  0  0  0  0  0  0  0  0  0  0
   43.4610    1.5800   35.4470 C   0  0  0  0  0  0  0  0  0  0  0  0
   43.2840    2.9690   35.5280 C   0  0  0  0  0  0  0  0  0  0  0  0
   44.1140    3.7460   36.3390 C   0  0  0  0  0  0  0  0  0  0  0  0
   45.1300    3.1430   37.0770 C   0  0  0  0  0  0  0  0  0  0  0  0
   45.3200    1.7640   37.0060 C   0  0  0  0  0  0  0  0  0  0  0  0
   44.4910    0.9870   36.1940 C   0  0  0  0  0  0  0  0  0  0  0  0
   43.0200    0.1190   33.4320 C   0  0  0  0  0  0  0  0  0  0  0  0
   44.3360    0.2560   33.0310 O   0  0  0  0  0  0  0  0  0  0  0  0
   42.7050   -0.9060   30.0970 C   0  0  0  0  0  0  0  0  0  0  0  0
   43.1640   -1.9810   29.2870 C   0  0  0  0  0  0  0  0  0  0  0  0
   43.4650   -2.1190   27.9190 C   0  0  0  0  0  0  0  0  0  0  0  0
   44.3350   -5.5220   26.1200 H   0  0  0  0  0  0  0  0  0  0  0  0
   44.6130   -4.8820   24.5320 H   0  0  0  0  0  0  0  0  0  0  0  0
   44.5460   -2.4760   24.2620 H   0  0  0  0  0  0  0  0  0  0  0  0
   44.1750   -1.5190   25.6590 H   0  0  0  0  0  0  0  0  0  0  0  0
   44.4142   -5.4076   27.9094 H   0  0  0  0  0  0  0  0  0  0  0  0
   43.8764   -5.1796   30.3496 H   0  0  0  0  0  0  0  0  0  0  0  0
   42.9640   -3.2550   32.2160 H   0  0  0  0  0  0  0  0  0  0  0  0
   40.1162   -1.3977   32.4727 H   0  0  0  0  0  0  0  0  0  0  0  0
   39.3142   -0.2797   34.5405 H   0  0  0  0  0  0  0  0  0  0  0  0
   40.8703    1.0929   35.9085 H   0  0  0  0  0  0  0  0  0  0  0  0
   42.4838    3.4510   34.9472 H   0  0  0  0  0  0  0  0  0  0  0  0
   43.9654    4.8345   36.3950 H   0  0  0  0  0  0  0  0  0  0  0  0
   45.7828    3.7556   37.7162 H   0  0  0  0  0  0  0  0  0  0  0  0
   46.1222    1.2881   37.5891 H   0  0  0  0  0  0  0  0  0  0  0  0
   44.6467   -0.1005   36.1392 H   0  0  0  0  0  0  0  0  0  0  0  0
   44.7630    0.9150   33.6100 H   0  0  0  0  0  0  0  0  0  0  0  0
   42.4850    0.1122   29.7437 H   0  0  0  0  0  0  0  0  0  0  0  0
   43.3491   -1.2626   27.2385 H   0  0  0  0  0  0  0  0  0  0  0  0
  1  2  1  0
  2  3  2  0
  2  4  1  0
  4  5  2  0
  5  6  1  0
  6  7  2  0
  7  8  1  0
  8  9  1  0
  9 10  1  0
 10 11  2  0
 11 12  1  0
 12 13  2  0
 13 14  1  0
 14 15  1  0
 15 16  2  0
 16 17  1  0
 17 18  2  0
 18 19  1  0
 19 20  2  0
 14 21  2  0
 21 22  1  0
  9 23  2  0
 23 24  1  0
 24 25  2  0
 25  4  1  0
 24  7  1  0
 21 10  1  0
 20 15  1  0
  1 26  1  0
  1 27  1  0
  3 28  1  0
  3 29  1  0
  5 30  1  0
  6 31  1  0
  8 32  1  0
 11 33  1  0
 12 34  1  0
 13 35  1  0
 16 36  1  0
 17 37  1  0
 18 38  1  0
 19 39  1  0
 20 40  1  0
 22 41  1  0
 23 42  1  0
 25 43  1  0
M  CHG  1   3   1
M  END
>  <meeko>  (5) 
{"is_sidechain": [false], "free_energy": -7.661, "intermolecular_energy": -9.486, "internal_energy": -0.642}

$$$$
1o3f_ligand
     RDKit          3D

 43 46  0  0  0  0  0  0  0  0999 V2000
   47.4040    0.6100   37.7080 N   0  0  0  0  0  0  0  0  0  0  0  0
   46.2060    1.1460   37.6220 C   0  0  0  0  0  0  0  0  0  0  0  0
   45.6760    1.8100   38.6270 N   0  0  0  0  0  0  0  0  0  0  0  0
   45.4440    1.0020   36.3770 C   0  0  0  0  0  0  0  0  0  0  0  0
   44.9140    2.1310   35.7360 C   0  0  0  0  0  0  0  0  0  0  0  0
   44.1810    2.0190   34.5490 C   0  0  0  0  0  0  0  0  0  0  0  0
   43.9990    0.7370   34.0230 C   0  0  0  0  0  0  0  0  0  0  0  0
   43.3360    0.3260   32.8920 N   0  0  0  0  0  0  0  0  0  0  0  0
   43.3990   -1.0420   32.7330 C   0  0  0  0  0  0  0  0  0  0  0  0
   42.7670   -1.7370   31.5930 C   0  0  0  0  0  0  0  0  0  0  0  0
   41.4900   -2.3000   31.7540 C   0  0  0  0  0  0  0  0  0  0  0  0
   40.8530   -2.9670   30.7060 C   0  0  0  0  0  0  0  0  0  0  0  0
   41.4810   -3.0860   29.4690 C   0  0  0  0  0  0  0  0  0  0  0  0
   42.7570   -2.5430   29.2580 C   0  0  0  0  0  0  0  0  0  0  0  0
   43.3830   -2.6920   27.9390 C   0  0  0  0  0  0  0  0  0  0  0  0
   43.4860   -3.9540   27.3350 C   0  0  0  0  0  0  0  0  0  0  0  0
   44.0630   -4.0930   26.0710 C   0  0  0  0  0  0  0  0  0  0  0  0
   44.5440   -2.9720   25.3970 C   0  0  0  0  0  0  0  0  0  0  0  0
   44.4500   -1.7120   25.9850 C   0  0  0  0  0  0  0  0  0  0  0  0
   43.8740   -1.5730   27.2490 C   0  0  0  0  0  0  0  0  0  0  0  0
   43.3890   -1.8700   30.3290 C   0  0  0  0  0  0  0  0  0  0  0  0
   44.6470   -1.3240   30.1490 O   0  0  0  0  0  0  0  0  0  0  0  0
   44.1320   -1.5110   33.8120 C   0  0  0  0  0  0  0  0  0  0  0  0
   44.5100   -0.4070   34.6270 C   0  0  0  0  0  0  0  0  0  0  0  0
   45.2430   -0.2760   35.8210 C   0  0  0  0  0  0  0  0  0  0  0  0
   47.7720    0.0810   36.9230 H   0  0  0  0  0  0  0  0  0  0  0  0
   47.9760    0.6780   38.5380 H   0  0  0  0  0  0  0  0  0  0  0  0
   46.1540    1.9450   39.5070 H   0  0  0  0  0  0  0  0  0  0  0  0
   44.7580    2.2330   38.5190 H   0  0  0  0  0  0  0  0  0  0  0  0
   45.0779    3.1260   36.1755 H   0  0  0  0  0  0  0  0  0  0  0  0
   43.7642    2.9059   34.0493 H   0  0  0  0  0  0  0  0  0  0  0  0
   42.8530    0.9300   32.2370 H   0  0  0  0  0  0  0  0  0  0  0  0
   40.9817   -2.2135   32.7256 H   0  0  0  0  0  0  0  0  0  0  0  0
   39.8530   -3.3994   30.8578 H   0  0  0  0  0  0  0  0  0  0  0  0
   40.9709   -3.6116   28.6483 H   0  0  0  0  0  0  0  0  0  0  0  0
   43.1086   -4.8426   27.8622 H   0  0  0  0  0  0  0  0  0  0  0  0
   44.1379   -5.0876   25.6071 H   0  0  0  0  0  0  0  0  0  0  0  0
   44.9978   -3.0817   24.4010 H   0  0  0  0  0  0  0  0  0  0  0  0
   44.8296   -0.8271   25.4532 H   0  0  0  0  0  0  0  0  0  0  0  0
   43.8043   -0.5762   27.7088 H   0  0  0  0  0  0  0  0  0  0  0  0
   44.6080   -0.3830   30.3990 H   0  0  0  0  0  0  0  0  0  0  0  0
   44.3810   -2.5646   34.0067 H   0  0  0  0  0  0  0  0  0  0  0  0
   45.6565   -1.1665   36.3170 H   0  0  0  0  0  0  0  0  0  0  0  0
  1  2  1  0
  2  3  2  0
  2  4  1  0
  4  5  2  0
  5  6  1  0
  6  7  2  0
  7  8  1  0
  8  9  1  0
  9 10  1  0
 10 11  2  0
 11 12  1  0
 12 13  2  0
 13 14  1  0
 14 15  1  0
 15 16  2  0
 16 17  1  0
 17 18  2  0
 18 19  1  0
 19 20  2  0
 14 21  2  0
 21 22  1  0
  9 23  2  0
 23 24  1  0
 24 25  2  0
 25  4  1  0
 24  7  1  0
 21 10  1  0
 20 15  1  0
  1 26  1  0
  1 27  1  0
  3 28  1  0
  3 29  1  0
  5 30  1  0
  6 31  1  0
  8 32  1  0
 11 33  1  0
 12 34  1  0
 13 35  1  0
 16 36  1  0
 17 37  1  0
 18 38  1  0
 19 39  1  0
 20 40  1  0
 22 41  1  0
 23 42  1  0
 25 43  1  0
M  CHG  1   3   1
M  END
>  <meeko>  (6) 
{"is_sidechain": [false], "free_energy": -7.638, "intermolecular_energy": -9.64, "internal_energy": -0.461}

$$$$
1o3f_ligand
     RDKit          3D

 43 46  0  0  0  0  0  0  0  0999 V2000
   36.3570    4.5160   37.6930 N   0  0  0  0  0  0  0  0  0  0  0  0
   37.0690    4.2280   36.6250 C   0  0  0  0  0  0  0  0  0  0  0  0
   38.1570    4.9020   36.3220 N   0  0  0  0  0  0  0  0  0  0  0  0
   36.6400    3.1280   35.7540 C   0  0  0  0  0  0  0  0  0  0  0  0
   35.4200    2.4770   35.9830 C   0  0  0  0  0  0  0  0  0  0  0  0
   34.9910    1.4230   35.1680 C   0  0  0  0  0  0  0  0  0  0  0  0
   35.8240    1.0460   34.1120 C   0  0  0  0  0  0  0  0  0  0  0  0
   35.6680    0.0630   33.1650 N   0  0  0  0  0  0  0  0  0  0  0  0
   36.7340    0.0240   32.2910 C   0  0  0  0  0  0  0  0  0  0  0  0
   36.8100   -0.9420   31.1750 C   0  0  0  0  0  0  0  0  0  0  0  0
   37.9480   -1.7550   31.0480 C   0  0  0  0  0  0  0  0  0  0  0  0
   38.0650   -2.6820   30.0100 C   0  0  0  0  0  0  0  0  0  0  0  0
   37.0430   -2.8160   29.0740 C   0  0  0  0  0  0  0  0  0  0  0  0
   35.8860   -2.0270   29.1570 C   0  0  0  0  0  0  0  0  0  0  0  0
   34.8340   -2.2010   28.1500 C   0  0  0  0  0  0  0  0  0  0  0  0
   34.3720   -1.1080   27.4020 C   0  0  0  0  0  0  0  0  0  0  0  0
   33.3850   -1.2780   26.4290 C   0  0  0  0  0  0  0  0  0  0  0  0
   32.8480   -2.5420   26.1940 C   0  0  0  0  0  0  0  0  0  0  0  0
   33.2960   -3.6370   26.9310 C   0  0  0  0  0  0  0  0  0  0  0  0
   34.2820   -3.4670   27.9040 C   0  0  0  0  0  0  0  0  0  0  0  0
   35.7830   -1.0920   30.2140 C   0  0  0  0  0  0  0  0  0  0  0  0
   34.6540   -0.3010   30.3210 O   0  0  0  0  0  0  0  0  0  0  0  0
   37.5990    1.0240   32.7100 C   0  0  0  0  0  0  0  0  0  0  0  0
   37.0400    1.6670   33.8500 C   0  0  0  0  0  0  0  0  0  0  0  0
   37.4570    2.7230   34.6810 C   0  0  0  0  0  0  0  0  0  0  0  0
   35.5070    3.9930   37.8830 H   0  0  0  0  0  0  0  0  0  0  0  0
   36.6020    5.2600   38.3310 H   0  0  0  0  0  0  0  0  0  0  0  0
   38.5030    5.6660   36.8850 H   0  0  0  0  0  0  0  0  0  0  0  0
   38.6980    4.6370   35.5030 H   0  0  0  0  0  0  0  0  0  0  0  0
   34.7860    2.8014   36.8213 H   0  0  0  0  0  0  0  0  0  0  0  0
   34.0348    0.9113   35.3520 H   0  0  0  0  0  0  0  0  0  0  0  0
   34.8780   -0.5680   33.0900 H   0  0  0  0  0  0  0  0  0  0  0  0
   38.7632   -1.6598   31.7804 H   0  0  0  0  0  0  0  0  0  0  0  0
   38.9664   -3.3075   29.9318 H   0  0  0  0  0  0  0  0  0  0  0  0
   37.1439   -3.5490   28.2600 H   0  0  0  0  0  0  0  0  0  0  0  0
   34.7912   -0.1074   27.5837 H   0  0  0  0  0  0  0  0  0  0  0  0
   33.0313   -0.4137   25.8478 H   0  0  0  0  0  0  0  0  0  0  0  0
   32.0708   -2.6757   25.4271 H   0  0  0  0  0  0  0  0  0  0  0  0
   32.8724   -4.6351   26.7457 H   0  0  0  0  0  0  0  0  0  0  0  0
   34.6299   -4.3346   28.4839 H   0  0  0  0  0  0  0  0  0  0  0  0
   33.9060   -0.7830   29.9220 H   0  0  0  0  0  0  0  0  0  0  0  0
   38.5597    1.2784   32.2384 H   0  0  0  0  0  0  0  0  0  0  0  0
   38.4155    3.2292   34.4936 H   0  0  0  0  0  0  0  0  0  0  0  0
  1  2  1  0
  2  3  2  0
  2  4  1  0
  4  5  2  0
  5  6  1  0
  6  7  2  0
  7  8  1  0
  8  9  1  0
  9 10  1  0
 10 11  2  0
 11 12  1  0
 12 13  2  0
 13 14  1  0
 14 15  1  0
 15 16  2  0
 16 17  1  0
 17 18  2  0
 18 19  1  0
 19 20  2  0
 14 21  2  0
 21 22  1  0
  9 23  2  0
 23 24  1  0
 24 25  2  0
 25  4  1  0
 24  7  1  0
 21 10  1  0
 20 15  1  0
  1 26  1  0
  1 27  1  0
  3 28  1  0
  3 29  1  0
  5 30  1  0
  6 31  1  0
  8 32  1  0
 11 33  1  0
 12 34  1  0
 13 35  1  0
 16 36  1  0
 17 37  1  0
 18 38  1  0
 19 39  1  0
 20 40  1  0
 22 41  1  0
 23 42  1  0
 25 43  1  0
M  CHG  1   3   1
M  END
>  <meeko>  (7) 
{"is_sidechain": [false], "free_energy": -7.396, "intermolecular_energy": -9.141, "internal_energy": -0.668}

$$$$
1o3f_ligand
     RDKit          3D

 43 46  0  0  0  0  0  0  0  0999 V2000
   54.7350   -0.8420   36.4620 N   0  0  0  0  0  0  0  0  0  0  0  0
   54.0940   -1.5900   37.3340 C   0  0  0  0  0  0  0  0  0  0  0  0
   54.7360   -2.3620   38.1830 N   0  0  0  0  0  0  0  0  0  0  0  0
   52.6270   -1.5600   37.3600 C   0  0  0  0  0  0  0  0  0  0  0  0
   51.9200   -2.3290   38.2960 C   0  0  0  0  0  0  0  0  0  0  0  0
   50.5210   -2.3200   38.3400 C   0  0  0  0  0  0  0  0  0  0  0  0
   49.8540   -1.5120   37.4150 C   0  0  0  0  0  0  0  0  0  0  0  0
   48.5090   -1.3060   37.2240 N   0  0  0  0  0  0  0  0  0  0  0  0
   48.2710   -0.4180   36.1960 C   0  0  0  0  0  0  0  0  0  0  0  0
   46.9070   -0.0230   35.7890 C   0  0  0  0  0  0  0  0  0  0  0  0
   46.3390   -0.5990   34.6410 C   0  0  0  0  0  0  0  0  0  0  0  0
   45.0530   -0.2570   34.2170 C   0  0  0  0  0  0  0  0  0  0  0  0
   44.3050    0.6720   34.9350 C   0  0  0  0  0  0  0  0  0  0  0  0
   44.8270    1.2760   36.0880 C   0  0  0  0  0  0  0  0  0  0  0  0
   44.0040    2.2500   36.8150 C   0  0  0  0  0  0  0  0  0  0  0  0
   43.0570    1.8230   37.7580 C   0  0  0  0  0  0  0  0  0  0  0  0
   42.2890    2.7510   38.4640 C   0  0  0  0  0  0  0  0  0  0  0  0
   42.4560    4.1150   38.2330 C   0  0  0  0  0  0  0  0  0  0  0  0
   43.3910    4.5530   37.2970 C   0  0  0  0  0  0  0  0  0  0  0  0
   44.1590    3.6260   36.5910 C   0  0  0  0  0  0  0  0  0  0  0  0
   46.1310    0.9190   36.5050 C   0  0  0  0  0  0  0  0  0  0  0  0
   46.6710    1.4980   37.6380 O   0  0  0  0  0  0  0  0  0  0  0  0
   49.5210   -0.0530   35.7200 C   0  0  0  0  0  0  0  0  0  0  0  0
   50.5170   -0.7340   36.4730 C   0  0  0  0  0  0  0  0  0  0  0  0
   51.9240   -0.7570   36.4430 C   0  0  0  0  0  0  0  0  0  0  0  0
   54.2070   -0.2780   35.8030 H   0  0  0  0  0  0  0  0  0  0  0  0
   55.7430   -0.8190   36.3970 H   0  0  0  0  0  0  0  0  0  0  0  0
   55.7440   -2.4220   38.2140 H   0  0  0  0  0  0  0  0  0  0  0  0
   54.2110   -2.9080   38.8600 H   0  0  0  0  0  0  0  0  0  0  0  0
   52.4769   -2.9526   39.0108 H   0  0  0  0  0  0  0  0  0  0  0  0
   49.9683   -2.9251   39.0737 H   0  0  0  0  0  0  0  0  0  0  0  0
   47.7620   -1.7360   37.7570 H   0  0  0  0  0  0  0  0  0  0  0  0
   46.9188   -1.3345   34.0640 H   0  0  0  0  0  0  0  0  0  0  0  0
   44.6305   -0.7224   33.3143 H   0  0  0  0  0  0  0  0  0  0  0  0
   43.2929    0.9353   34.5940 H   0  0  0  0  0  0  0  0  0  0  0  0
   42.9183    0.7475   37.9428 H   0  0  0  0  0  0  0  0  0  0  0  0
   41.5515    2.4051   39.2032 H   0  0  0  0  0  0  0  0  0  0  0  0
   41.8502    4.8456   38.7891 H   0  0  0  0  0  0  0  0  0  0  0  0
   43.5237    5.6296   37.1146 H   0  0  0  0  0  0  0  0  0  0  0  0
   44.8933    3.9779   35.8514 H   0  0  0  0  0  0  0  0  0  0  0  0
   47.4660    1.9970   37.3750 H   0  0  0  0  0  0  0  0  0  0  0  0
   49.7113    0.6488   34.8946 H   0  0  0  0  0  0  0  0  0  0  0  0
   52.4712   -0.1503   35.7065 H   0  0  0  0  0  0  0  0  0  0  0  0
  1  2  1  0
  2  3  2  0
  2  4  1  0
  4  5  2  0
  5  6  1  0
  6  7  2  0
  7  8  1  0
  8  9  1  0
  9 10  1  0
 10 11  2  0
 11 12  1  0
 12 13  2  0
 13 14  1  0
 14 15  1  0
 15 16  2  0
 16 17  1  0
 17 18  2  0
 18 19  1  0
 19 20  2  0
 14 21  2  0
 21 22  1  0
  9 23  2  0
 23 24  1  0
 24 25  2  0
 25  4  1  0
 24  7  1  0
 21 10  1  0
 20 15  1  0
  1 26  1  0
  1 27  1  0
  3 28  1  0
  3 29  1  0
  5 30  1  0
  6 31  1  0
  8 32  1  0
 11 33  1  0
 12 34  1  0
 13 35  1  0
 16 36  1  0
 17 37  1  0
 18 38  1  0
 19 39  1  0
 20 40  1  0
 22 41  1  0
 23 42  1  0
 25 43  1  0
M  CHG  1   3   1
M  END
>  <meeko>  (8) 
{"is_sidechain": [false], "free_energy": -7.324, "intermolecular_energy": -8.892, "internal_energy": -0.831}

$$$$
1o3f_ligand
     RDKit          3D

 43 46  0  0  0  0  0  0  0  0999 V2000
   36.4410    3.7500   34.6120 N   0  0  0  0  0  0  0  0  0  0  0  0
   35.9020    2.5600   34.4620 C   0  0  0  0  0  0  0  0  0  0  0  0
   34.7310    2.2640   34.9840 N   0  0  0  0  0  0  0  0  0  0  0  0
   36.6220    1.5390   33.6930 C   0  0  0  0  0  0  0  0  0  0  0  0
   35.9520    0.7790   32.7230 C   0  0  0  0  0  0  0  0  0  0  0  0
   36.6150   -0.2020   31.9780 C   0  0  0  0  0  0  0  0  0  0  0  0
   37.9760   -0.3950   32.2360 C   0  0  0  0  0  0  0  0  0  0  0  0
   38.8710   -1.2720   31.6720 N   0  0  0  0  0  0  0  0  0  0  0  0
   40.1300   -1.1340   32.2160 C   0  0  0  0  0  0  0  0  0  0  0  0
   41.2770   -1.9580   31.7800 C   0  0  0  0  0  0  0  0  0  0  0  0
   41.8720   -2.8430   32.6930 C   0  0  0  0  0  0  0  0  0  0  0  0
   42.9580   -3.6420   32.3280 C   0  0  0  0  0  0  0  0  0  0  0  0
   43.4730   -3.5720   31.0360 C   0  0  0  0  0  0  0  0  0  0  0  0
   42.9140   -2.7030   30.0870 C   0  0  0  0  0  0  0  0  0  0  0  0
   43.4890   -2.6610   28.7380 C   0  0  0  0  0  0  0  0  0  0  0  0
   44.1960   -1.5330   28.2960 C   0  0  0  0  0  0  0  0  0  0  0  0
   44.7600   -1.5020   27.0190 C   0  0  0  0  0  0  0  0  0  0  0  0
   44.6230   -2.5970   26.1700 C   0  0  0  0  0  0  0  0  0  0  0  0
   43.9210   -3.7240   26.5930 C   0  0  0  0  0  0  0  0  0  0  0  0
   43.3560   -3.7550   27.8700 C   0  0  0  0  0  0  0  0  0  0  0  0
   41.8150   -1.9010   30.4730 C   0  0  0  0  0  0  0  0  0  0  0  0
   41.2450   -1.0350   29.5580 O   0  0  0  0  0  0  0  0  0  0  0  0
   40.0200   -0.1290   33.1650 C   0  0  0  0  0  0  0  0  0  0  0  0
   38.6760    0.3370   33.1870 C   0  0  0  0  0  0  0  0  0  0  0  0
   37.9920    1.3190   33.9280 C   0  0  0  0  0  0  0  0  0  0  0  0
   37.3590    3.9360   34.2180 H   0  0  0  0  0  0  0  0  0  0  0  0
   35.9930    4.4940   35.1290 H   0  0  0  0  0  0  0  0  0  0  0  0
   34.1880    2.9260   35.5200 H   0  0  0  0  0  0  0  0  0  0  0  0
   34.3310    1.3430   34.8280 H   0  0  0  0  0  0  0  0  0  0  0  0
   34.8816    0.9583   32.5441 H   0  0  0  0  0  0  0  0  0  0  0  0
   36.0868   -0.7981   31.2192 H   0  0  0  0  0  0  0  0  0  0  0  0
   38.6610   -1.9450   30.9440 H   0  0  0  0  0  0  0  0  0  0  0  0
   41.4749   -2.9086   33.7167 H   0  0  0  0  0  0  0  0  0  0  0  0
   43.4070   -4.3273   33.0620 H   0  0  0  0  0  0  0  0  0  0  0  0
   44.3278   -4.2053   30.7564 H   0  0  0  0  0  0  0  0  0  0  0  0
   44.3072   -0.6645   28.9618 H   0  0  0  0  0  0  0  0  0  0  0  0
   45.3128   -0.6121   26.6836 H   0  0  0  0  0  0  0  0  0  0  0  0
   45.0691   -2.5725   25.1648 H   0  0  0  0  0  0  0  0  0  0  0  0
   43.8119   -4.5886   25.9217 H   0  0  0  0  0  0  0  0  0  0  0  0
   42.8012   -4.6462   28.1984 H   0  0  0  0  0  0  0  0  0  0  0  0
   41.6130   -1.2370   28.6780 H   0  0  0  0  0  0  0  0  0  0  0  0
   40.8380    0.2465   33.7973 H   0  0  0  0  0  0  0  0  0  0  0  0
   38.5252    1.9110   34.6864 H   0  0  0  0  0  0  0  0  0  0  0  0
  1  2  1  0
  2  3  2  0
  2  4  1  0
  4  5  2  0
  5  6  1  0
  6  7  2  0
  7  8  1  0
  8  9  1  0
  9 10  1  0
 10 11  2  0
 11 12  1  0
 12 13  2  0
 13 14  1  0
 14 15  1  0
 15 16  2  0
 16 17  1  0
 17 18  2  0
 18 19  1  0
 19 20  2  0
 14 21  2  0
 21 22  1  0
  9 23  2  0
 23 24  1  0
 24 25  2  0
 25  4  1  0
 24  7  1  0
 21 10  1  0
 20 15  1  0
  1 26  1  0
  1 27  1  0
  3 28  1  0
  3 29  1  0
  5 30  1  0
  6 31  1  0
  8 32  1  0
 11 33  1  0
 12 34  1  0
 13 35  1  0
 16 36  1  0
 17 37  1  0
 18 38  1  0
 19 39  1  0
 20 40  1  0
 22 41  1  0
 23 42  1  0
 25 43  1  0
M  CHG  1   3   1
M  END
>  <meeko>  (9) 
{"is_sidechain": [false], "free_energy": -7.307, "intermolecular_energy": -8.898, "internal_energy": -0.804}

$$$$
