4f09_ligand
     RDKit          3D

 37 40  0  0  0  0  0  0  0  0999 V2000
   17.5800    6.3240   12.2250 C   0  0  0  0  0  0  0  0  0  0  0  0
   17.0110    7.6980   12.1640 C   0  0  0  0  0  0  0  0  0  0  0  0
   17.6510    8.7670   12.5920 N   0  0  0  0  0  0  0  0  0  0  0  0
   16.8210    9.8240   12.3550 C   0  0  0  0  0  0  0  0  0  0  0  0
   16.9860   11.1970   12.6070 C   0  0  0  0  0  0  0  0  0  0  0  0
   16.0340   12.1220   12.2900 N   0  0  0  0  0  0  0  0  0  0  0  0
   14.9310   11.6230   11.7120 C   0  0  0  0  0  0  0  0  0  0  0  0
   13.8450   12.3330   11.2880 N   0  0  0  0  0  0  0  0  0  0  0  0
   12.9250   11.4690   10.7340 C   0  0  0  0  0  0  0  0  0  0  0  0
   13.4290   10.1810   10.8060 C   0  0  0  0  0  0  0  0  0  0  0  0
   14.6930   10.2950   11.4330 C   0  0  0  0  0  0  0  0  0  0  0  0
   15.6470    9.3760   11.7660 C   0  0  0  0  0  0  0  0  0  0  0  0
   15.7490    8.0310   11.6620 N   0  0  0  0  0  0  0  0  0  0  0  0
   14.7950    7.0350   11.1910 C   0  0  0  0  0  0  0  0  0  0  0  0
   13.5300    6.9350   12.0500 C   0  0  0  0  0  0  0  0  0  0  0  0
   12.6570    5.7510   11.6470 C   0  0  0  0  0  0  0  0  0  0  0  0
   12.7880    5.4260   10.1920 N   0  0  0  0  0  0  0  0  0  0  0  0
   13.1420    6.5710    9.3090 C   0  0  0  0  0  0  0  0  0  0  0  0
   14.5220    7.0920    9.6790 C   0  0  0  0  0  0  0  0  0  0  0  0
   17.7039    6.0248   13.2762 H   0  0  0  0  0  0  0  0  0  0  0  0
   16.8985    5.6222   11.7219 H   0  0  0  0  0  0  0  0  0  0  0  0
   18.5581    6.3095   11.7219 H   0  0  0  0  0  0  0  0  0  0  0  0
   17.9191   11.5393   13.0782 H   0  0  0  0  0  0  0  0  0  0  0  0
   13.7600   13.3370   11.3730 H   0  0  0  0  0  0  0  0  0  0  0  0
   11.9528   11.7548   10.3061 H   0  0  0  0  0  0  0  0  0  0  0  0
   12.9464    9.2591   10.4493 H   0  0  0  0  0  0  0  0  0  0  0  0
   15.3069    6.0725   11.3374 H   0  0  0  0  0  0  0  0  0  0  0  0
   13.8245    6.8167   13.1032 H   0  0  0  0  0  0  0  0  0  0  0  0
   12.9449    7.8545   11.9010 H   0  0  0  0  0  0  0  0  0  0  0  0
   12.9577    4.8717   12.2356 H   0  0  0  0  0  0  0  0  0  0  0  0
   11.6085    6.0209   11.8413 H   0  0  0  0  0  0  0  0  0  0  0  0
   11.8930    5.0230    9.8690 H   0  0  0  0  0  0  0  0  0  0  0  0
   13.4690    4.6640   10.0610 H   0  0  0  0  0  0  0  0  0  0  0  0
   13.1453    6.2377    8.2607 H   0  0  0  0  0  0  0  0  0  0  0  0
   12.4015    7.3742    9.4373 H   0  0  0  0  0  0  0  0  0  0  0  0
   15.2779    6.4825    9.1622 H   0  0  0  0  0  0  0  0  0  0  0  0
   14.5702    8.1476    9.3734 H   0  0  0  0  0  0  0  0  0  0  0  0
  1  2  1  0
  2  3  2  0
  3  4  1  0
  4  5  2  0
  5  6  1  0
  6  7  2  0
  7  8  1  0
  8  9  1  0
  9 10  2  0
 10 11  1  0
 11 12  2  0
 12 13  1  0
 13 14  1  0
 14 15  1  0
 15 16  1  0
 16 17  1  0
 17 18  1  0
 18 19  1  0
 13  2  1  0
 19 14  1  0
 12  4  1  0
 11  7  1  0
  1 20  1  0
  1 21  1  0
  1 22  1  0
  5 23  1  0
  8 24  1  0
  9 25  1  0
 10 26  1  0
 14 27  1  0
 15 28  1  0
 15 29  1  0
 16 30  1  0
 16 31  1  0
 17 32  1  0
 17 33  1  0
 18 34  1  0
 18 35  1  0
 19 36  1  0
 19 37  1  0
M  CHG  1  17   1
M  END
>  <meeko>  (1) 
{"is_sidechain": [false], "free_energy": -8.348, "intermolecular_energy": -8.836, "internal_energy": -0.381}

$$$$
4f09_ligand
     RDKit          3D

 37 40  0  0  0  0  0  0  0  0999 V2000
   12.8310   11.4690   10.7270 C   0  0  0  0  0  0  0  0  0  0  0  0
   14.0310   10.7360   11.2140 C   0  0  0  0  0  0  0  0  0  0  0  0
   15.1520   11.3320   11.5620 N   0  0  0  0  0  0  0  0  0  0  0  0
   16.0000   10.3400   11.9620 C   0  0  0  0  0  0  0  0  0  0  0  0
   17.3220   10.3950   12.4360 C   0  0  0  0  0  0  0  0  0  0  0  0
   18.0190    9.2800   12.8010 N   0  0  0  0  0  0  0  0  0  0  0  0
   17.3450    8.1270   12.6800 C   0  0  0  0  0  0  0  0  0  0  0  0
   17.8070    6.8800   12.9900 N   0  0  0  0  0  0  0  0  0  0  0  0
   16.8160    5.9540   12.7440 C   0  0  0  0  0  0  0  0  0  0  0  0
   15.6980    6.6180   12.2660 C   0  0  0  0  0  0  0  0  0  0  0  0
   16.0510    7.9880   12.2240 C   0  0  0  0  0  0  0  0  0  0  0  0
   15.3670    9.1100   11.8500 C   0  0  0  0  0  0  0  0  0  0  0  0
   14.1300    9.3480   11.3570 N   0  0  0  0  0  0  0  0  0  0  0  0
   13.0630    8.4330   10.9710 C   0  0  0  0  0  0  0  0  0  0  0  0
   13.4690    7.4320    9.8850 C   0  0  0  0  0  0  0  0  0  0  0  0
   12.2780    6.6330    9.3680 C   0  0  0  0  0  0  0  0  0  0  0  0
   11.2280    6.4480   10.4180 N   0  0  0  0  0  0  0  0  0  0  0  0
   11.7210    6.4430   11.8230 C   0  0  0  0  0  0  0  0  0  0  0  0
   12.3190    7.8010   12.1580 C   0  0  0  0  0  0  0  0  0  0  0  0
   12.2457   11.8265   11.5870 H   0  0  0  0  0  0  0  0  0  0  0  0
   13.1483   12.3276   10.1170 H   0  0  0  0  0  0  0  0  0  0  0  0
   12.2120   10.7947   10.1170 H   0  0  0  0  0  0  0  0  0  0  0  0
   17.8142   11.3755   12.5159 H   0  0  0  0  0  0  0  0  0  0  0  0
   18.7340    6.6970   13.3490 H   0  0  0  0  0  0  0  0  0  0  0  0
   16.8990    4.8684   12.9011 H   0  0  0  0  0  0  0  0  0  0  0  0
   14.7344    6.1723   11.9783 H   0  0  0  0  0  0  0  0  0  0  0  0
   12.3102    9.0743   10.4894 H   0  0  0  0  0  0  0  0  0  0  0  0
   13.9184    7.9824    9.0453 H   0  0  0  0  0  0  0  0  0  0  0  0
   14.1857    6.7243   10.3272 H   0  0  0  0  0  0  0  0  0  0  0  0
   11.8359    7.1672    8.5141 H   0  0  0  0  0  0  0  0  0  0  0  0
   12.6401    5.6377    9.0709 H   0  0  0  0  0  0  0  0  0  0  0  0
   10.7410    5.5560   10.2350 H   0  0  0  0  0  0  0  0  0  0  0  0
   10.4930    7.1630   10.3120 H   0  0  0  0  0  0  0  0  0  0  0  0
   10.8832    6.2336   12.5043 H   0  0  0  0  0  0  0  0  0  0  0  0
   12.4912    5.6660   11.9375 H   0  0  0  0  0  0  0  0  0  0  0  0
   11.5069    8.4769   12.4639 H   0  0  0  0  0  0  0  0  0  0  0  0
   13.0506    7.6507   12.9655 H   0  0  0  0  0  0  0  0  0  0  0  0
  1  2  1  0
  2  3  2  0
  3  4  1  0
  4  5  2  0
  5  6  1  0
  6  7  2  0
  7  8  1  0
  8  9  1  0
  9 10  2  0
 10 11  1  0
 11 12  2  0
 12 13  1  0
 13 14  1  0
 14 15  1  0
 15 16  1  0
 16 17  1  0
 17 18  1  0
 18 19  1  0
 13  2  1  0
 19 14  1  0
 12  4  1  0
 11  7  1  0
  1 20  1  0
  1 21  1  0
  1 22  1  0
  5 23  1  0
  8 24  1  0
  9 25  1  0
 10 26  1  0
 14 27  1  0
 15 28  1  0
 15 29  1  0
 16 30  1  0
 16 31  1  0
 17 32  1  0
 17 33  1  0
 18 34  1  0
 18 35  1  0
 19 36  1  0
 19 37  1  0
M  CHG  1  17   1
M  END
>  <meeko>  (2) 
{"is_sidechain": [false], "free_energy": -7.627, "intermolecular_energy": -8.117, "internal_energy": -0.337}

$$$$
4f09_ligand
     RDKit          3D

 37 40  0  0  0  0  0  0  0  0999 V2000
   11.7400    8.6450    9.9790 C   0  0  0  0  0  0  0  0  0  0  0  0
   12.9470    9.3120   10.5400 C   0  0  0  0  0  0  0  0  0  0  0  0
   13.0590   10.6180   10.6650 N   0  0  0  0  0  0  0  0  0  0  0  0
   14.2840   10.8390   11.2250 C   0  0  0  0  0  0  0  0  0  0  0  0
   14.9290   12.0360   11.5840 C   0  0  0  0  0  0  0  0  0  0  0  0
   16.1710   12.0610   12.1480 N   0  0  0  0  0  0  0  0  0  0  0  0
   16.7290   10.8560   12.3420 C   0  0  0  0  0  0  0  0  0  0  0  0
   17.9500   10.6080   12.8980 N   0  0  0  0  0  0  0  0  0  0  0  0
   18.1620    9.2460   12.9400 C   0  0  0  0  0  0  0  0  0  0  0  0
   17.0570    8.6100   12.3970 C   0  0  0  0  0  0  0  0  0  0  0  0
   16.1650    9.6410   12.0170 C   0  0  0  0  0  0  0  0  0  0  0  0
   14.9260    9.6290   11.4420 C   0  0  0  0  0  0  0  0  0  0  0  0
   14.0970    8.6590   10.9910 N   0  0  0  0  0  0  0  0  0  0  0  0
   14.2770    7.2160   10.8990 C   0  0  0  0  0  0  0  0  0  0  0  0
   13.8880    6.4600   12.1740 C   0  0  0  0  0  0  0  0  0  0  0  0
   14.2780    4.9880   12.1100 C   0  0  0  0  0  0  0  0  0  0  0  0
   14.2590    4.4620   10.7090 N   0  0  0  0  0  0  0  0  0  0  0  0
   13.3090    5.1400    9.7840 C   0  0  0  0  0  0  0  0  0  0  0  0
   13.7180    6.5950    9.6090 C   0  0  0  0  0  0  0  0  0  0  0  0
   11.1007    8.2917   10.8015 H   0  0  0  0  0  0  0  0  0  0  0  0
   11.1793    9.3613    9.3605 H   0  0  0  0  0  0  0  0  0  0  0  0
   12.0482    7.7891    9.3605 H   0  0  0  0  0  0  0  0  0  0  0  0
   14.4117   12.9897   11.4029 H   0  0  0  0  0  0  0  0  0  0  0  0
   18.5770   11.3290   13.2270 H   0  0  0  0  0  0  0  0  0  0  0  0
   19.0583    8.7478   13.3380 H   0  0  0  0  0  0  0  0  0  0  0  0
   16.9045    7.5265   12.2845 H   0  0  0  0  0  0  0  0  0  0  0  0
   15.3654    7.0795   10.8170 H   0  0  0  0  0  0  0  0  0  0  0  0
   14.3972    6.9248   13.0311 H   0  0  0  0  0  0  0  0  0  0  0  0
   12.7946    6.5161   12.2805 H   0  0  0  0  0  0  0  0  0  0  0  0
   15.2924    4.8715   12.5191 H   0  0  0  0  0  0  0  0  0  0  0  0
   13.5436    4.4167   12.6968 H   0  0  0  0  0  0  0  0  0  0  0  0
   14.0270    3.4570   10.7430 H   0  0  0  0  0  0  0  0  0  0  0  0
   15.2090    4.4880   10.3090 H   0  0  0  0  0  0  0  0  0  0  0  0
   13.3259    4.6349    8.8070 H   0  0  0  0  0  0  0  0  0  0  0  0
   12.2937    5.0939   10.2047 H   0  0  0  0  0  0  0  0  0  0  0  0
   14.4909    6.6513    8.8283 H   0  0  0  0  0  0  0  0  0  0  0  0
   12.8165    7.1614    9.3325 H   0  0  0  0  0  0  0  0  0  0  0  0
  1  2  1  0
  2  3  2  0
  3  4  1  0
  4  5  2  0
  5  6  1  0
  6  7  2  0
  7  8  1  0
  8  9  1  0
  9 10  2  0
 10 11  1  0
 11 12  2  0
 12 13  1  0
 13 14  1  0
 14 15  1  0
 15 16  1  0
 16 17  1  0
 17 18  1  0
 18 19  1  0
 13  2  1  0
 19 14  1  0
 12  4  1  0
 11  7  1  0
  1 20  1  0
  1 21  1  0
  1 22  1  0
  5 23  1  0
  8 24  1  0
  9 25  1  0
 10 26  1  0
 14 27  1  0
 15 28  1  0
 15 29  1  0
 16 30  1  0
 16 31  1  0
 17 32  1  0
 17 33  1  0
 18 34  1  0
 18 35  1  0
 19 36  1  0
 19 37  1  0
M  CHG  1  17   1
M  END
>  <meeko>  (3) 
{"is_sidechain": [false], "free_energy": -7.595, "intermolecular_energy": -8.584, "internal_energy": 0.164}

$$$$
4f09_ligand
     RDKit          3D

 37 40  0  0  0  0  0  0  0  0999 V2000
   18.5690    7.6130   12.8000 C   0  0  0  0  0  0  0  0  0  0  0  0
   17.5340    8.6270   12.4610 C   0  0  0  0  0  0  0  0  0  0  0  0
   17.6950    9.9200   12.6560 N   0  0  0  0  0  0  0  0  0  0  0  0
   16.5500   10.5140   12.2110 C   0  0  0  0  0  0  0  0  0  0  0  0
   16.1710   11.8670   12.1730 C   0  0  0  0  0  0  0  0  0  0  0  0
   14.9690   12.2800   11.6780 N   0  0  0  0  0  0  0  0  0  0  0  0
   14.1770   11.2980   11.2230 C   0  0  0  0  0  0  0  0  0  0  0  0
   12.9380   11.4450   10.6690 N   0  0  0  0  0  0  0  0  0  0  0  0
   12.4500   10.2070   10.3100 C   0  0  0  0  0  0  0  0  0  0  0  0
   13.3920    9.2470   10.6430 C   0  0  0  0  0  0  0  0  0  0  0  0
   14.4730    9.9520   11.2260 C   0  0  0  0  0  0  0  0  0  0  0  0
   15.6750    9.5490   11.7350 C   0  0  0  0  0  0  0  0  0  0  0  0
   16.2790    8.3500   11.9090 N   0  0  0  0  0  0  0  0  0  0  0  0
   15.8030    6.9960   11.6600 C   0  0  0  0  0  0  0  0  0  0  0  0
   15.0140    6.3930   12.8260 C   0  0  0  0  0  0  0  0  0  0  0  0
   14.7100    4.9150   12.6090 C   0  0  0  0  0  0  0  0  0  0  0  0
   14.5750    4.5760   11.1570 N   0  0  0  0  0  0  0  0  0  0  0  0
   14.1070    5.6860   10.2820 C   0  0  0  0  0  0  0  0  0  0  0  0
   15.1350    6.8080   10.2880 C   0  0  0  0  0  0  0  0  0  0  0  0
   18.6553    7.5285   13.8934 H   0  0  0  0  0  0  0  0  0  0  0  0
   18.2799    6.6389   12.3786 H   0  0  0  0  0  0  0  0  0  0  0  0
   19.5370    7.9220   12.3786 H   0  0  0  0  0  0  0  0  0  0  0  0
   16.8716   12.6228   12.5577 H   0  0  0  0  0  0  0  0  0  0  0  0
   12.4790   12.3380   10.5460 H   0  0  0  0  0  0  0  0  0  0  0  0
   11.4755   10.0134    9.8380 H   0  0  0  0  0  0  0  0  0  0  0  0
   13.3158    8.1608   10.4867 H   0  0  0  0  0  0  0  0  0  0  0  0
   16.7181    6.3884   11.6014 H   0  0  0  0  0  0  0  0  0  0  0  0
   15.6043    6.5021   13.7478 H   0  0  0  0  0  0  0  0  0  0  0  0
   14.0561    6.9286   12.8998 H   0  0  0  0  0  0  0  0  0  0  0  0
   15.5279    4.3177   13.0383 H   0  0  0  0  0  0  0  0  0  0  0  0
   13.7518    4.6902   13.1003 H   0  0  0  0  0  0  0  0  0  0  0  0
   13.9160    3.7860   11.0690 H   0  0  0  0  0  0  0  0  0  0  0  0
   15.4660    4.2030   10.7970 H   0  0  0  0  0  0  0  0  0  0  0  0
   13.9777    5.3133    9.2552 H   0  0  0  0  0  0  0  0  0  0  0  0
   13.1466    6.0681   10.6583 H   0  0  0  0  0  0  0  0  0  0  0  0
   15.9137    6.5753    9.5468 H   0  0  0  0  0  0  0  0  0  0  0  0
   14.6074    7.7422   10.0455 H   0  0  0  0  0  0  0  0  0  0  0  0
  1  2  1  0
  2  3  2  0
  3  4  1  0
  4  5  2  0
  5  6  1  0
  6  7  2  0
  7  8  1  0
  8  9  1  0
  9 10  2  0
 10 11  1  0
 11 12  2  0
 12 13  1  0
 13 14  1  0
 14 15  1  0
 15 16  1  0
 16 17  1  0
 17 18  1  0
 18 19  1  0
 13  2  1  0
 19 14  1  0
 12  4  1  0
 11  7  1  0
  1 20  1  0
  1 21  1  0
  1 22  1  0
  5 23  1  0
  8 24  1  0
  9 25  1  0
 10 26  1  0
 14 27  1  0
 15 28  1  0
 15 29  1  0
 16 30  1  0
 16 31  1  0
 17 32  1  0
 17 33  1  0
 18 34  1  0
 18 35  1  0
 19 36  1  0
 19 37  1  0
M  CHG  1  17   1
M  END
>  <meeko>  (4) 
{"is_sidechain": [false], "free_energy": -7.289, "intermolecular_energy": -8.206, "internal_energy": 0.11}

$$$$
4f09_ligand
     RDKit          3D

 37 40  0  0  0  0  0  0  0  0999 V2000
   18.3810    9.3780   12.7500 C   0  0  0  0  0  0  0  0  0  0  0  0
   17.0320    9.8030   12.2850 C   0  0  0  0  0  0  0  0  0  0  0  0
   16.6240   11.0560   12.2940 N   0  0  0  0  0  0  0  0  0  0  0  0
   15.3580   11.0440   11.7840 C   0  0  0  0  0  0  0  0  0  0  0  0
   14.4470   12.0900   11.5610 C   0  0  0  0  0  0  0  0  0  0  0  0
   13.2080   11.8850   11.0280 N   0  0  0  0  0  0  0  0  0  0  0  0
   12.9270   10.6090   10.7250 C   0  0  0  0  0  0  0  0  0  0  0  0
   11.7700   10.1420   10.1710 N   0  0  0  0  0  0  0  0  0  0  0  0
   11.8670    8.7780    9.9960 C   0  0  0  0  0  0  0  0  0  0  0  0
   13.1090    8.3620   10.4490 C   0  0  0  0  0  0  0  0  0  0  0  0
   13.7620    9.5290   10.9130 C   0  0  0  0  0  0  0  0  0  0  0  0
   14.9960    9.7440   11.4590 C   0  0  0  0  0  0  0  0  0  0  0  0
   16.0390    8.9500   11.7920 N   0  0  0  0  0  0  0  0  0  0  0  0
   16.1920    7.5020   11.7420 C   0  0  0  0  0  0  0  0  0  0  0  0
   16.0350    6.8160   13.1030 C   0  0  0  0  0  0  0  0  0  0  0  0
   16.3990    5.3360   13.0440 C   0  0  0  0  0  0  0  0  0  0  0  0
   16.1240    4.7440   11.6970 N   0  0  0  0  0  0  0  0  0  0  0  0
   15.0270    5.3890   10.9250 C   0  0  0  0  0  0  0  0  0  0  0  0
   15.4050    6.8270   10.6070 C   0  0  0  0  0  0  0  0  0  0  0  0
   18.4043    9.3707   13.8497 H   0  0  0  0  0  0  0  0  0  0  0  0
   18.5978    8.3680   12.3719 H   0  0  0  0  0  0  0  0  0  0  0  0
   19.1376   10.0813   12.3719 H   0  0  0  0  0  0  0  0  0  0  0  0
   14.7446   13.1151   11.8267 H   0  0  0  0  0  0  0  0  0  0  0  0
   10.9840   10.7300    9.9300 H   0  0  0  0  0  0  0  0  0  0  0  0
   11.0889    8.1286    9.5684 H   0  0  0  0  0  0  0  0  0  0  0  0
   13.5057    7.3360   10.4481 H   0  0  0  0  0  0  0  0  0  0  0  0
   17.2467    7.3450   11.4718 H   0  0  0  0  0  0  0  0  0  0  0  0
   16.6932    7.3146   13.8297 H   0  0  0  0  0  0  0  0  0  0  0  0
   14.9793    6.8939   13.4022 H   0  0  0  0  0  0  0  0  0  0  0  0
   17.4700    5.2245   13.2690 H   0  0  0  0  0  0  0  0  0  0  0  0
   15.7799    4.8043   13.7816 H   0  0  0  0  0  0  0  0  0  0  0  0
   15.8960    3.7440   11.8240 H   0  0  0  0  0  0  0  0  0  0  0  0
   16.9860    4.7360   11.1320 H   0  0  0  0  0  0  0  0  0  0  0  0
   14.8654    4.8369    9.9874 H   0  0  0  0  0  0  0  0  0  0  0  0
   14.1036    5.3774   11.5227 H   0  0  0  0  0  0  0  0  0  0  0  0
   16.0238    6.8347    9.6976 H   0  0  0  0  0  0  0  0  0  0  0  0
   14.4711    7.3920   10.4705 H   0  0  0  0  0  0  0  0  0  0  0  0
  1  2  1  0
  2  3  2  0
  3  4  1  0
  4  5  2  0
  5  6  1  0
  6  7  2  0
  7  8  1  0
  8  9  1  0
  9 10  2  0
 10 11  1  0
 11 12  2  0
 12 13  1  0
 13 14  1  0
 14 15  1  0
 15 16  1  0
 16 17  1  0
 17 18  1  0
 18 19  1  0
 13  2  1  0
 19 14  1  0
 12  4  1  0
 11  7  1  0
  1 20  1  0
  1 21  1  0
  1 22  1  0
  5 23  1  0
  8 24  1  0
  9 25  1  0
 10 26  1  0
 14 27  1  0
 15 28  1  0
 15 29  1  0
 16 30  1  0
 16 31  1  0
 17 32  1  0
 17 33  1  0
 18 34  1  0
 18 35  1  0
 19 36  1  0
 19 37  1  0
M  CHG  1  17   1
M  END
>  <meeko>  (5) 
{"is_sidechain": [false], "free_energy": -6.675, "intermolecular_energy": -8.239, "internal_energy": 0.794}

$$$$
4f09_ligand
     RDKit          3D

 37 40  0  0  0  0  0  0  0  0999 V2000
   11.9640    6.1640   10.4280 C   0  0  0  0  0  0  0  0  0  0  0  0
   12.5900    7.4950   10.6580 C   0  0  0  0  0  0  0  0  0  0  0  0
   11.9660    8.6350   10.4440 N   0  0  0  0  0  0  0  0  0  0  0  0
   12.8510    9.6180   10.7800 C   0  0  0  0  0  0  0  0  0  0  0  0
   12.7250   11.0180   10.7530 C   0  0  0  0  0  0  0  0  0  0  0  0
   13.7310   11.8540   11.1390 N   0  0  0  0  0  0  0  0  0  0  0  0
   14.8490   11.2400   11.5550 C   0  0  0  0  0  0  0  0  0  0  0  0
   15.9870   11.8440   12.0040 N   0  0  0  0  0  0  0  0  0  0  0  0
   16.9070   10.8780   12.3530 C   0  0  0  0  0  0  0  0  0  0  0  0
   16.3490    9.6320   12.1210 C   0  0  0  0  0  0  0  0  0  0  0  0
   15.0520    9.8780   11.6100 C   0  0  0  0  0  0  0  0  0  0  0  0
   14.0420    9.0500   11.2090 C   0  0  0  0  0  0  0  0  0  0  0  0
   13.8940    7.7090   11.1140 N   0  0  0  0  0  0  0  0  0  0  0  0
   14.8360    6.6240   11.3590 C   0  0  0  0  0  0  0  0  0  0  0  0
   15.0950    6.3530   12.8450 C   0  0  0  0  0  0  0  0  0  0  0  0
   16.2300    5.3560   13.0550 C   0  0  0  0  0  0  0  0  0  0  0  0
   16.3350    4.3780   11.9280 N   0  0  0  0  0  0  0  0  0  0  0  0
   15.0630    4.0910   11.2080 C   0  0  0  0  0  0  0  0  0  0  0  0
   14.5650    5.3590   10.5300 C   0  0  0  0  0  0  0  0  0  0  0  0
   11.7416    5.6912   11.3960 H   0  0  0  0  0  0  0  0  0  0  0  0
   11.0312    6.2909    9.8590 H   0  0  0  0  0  0  0  0  0  0  0  0
   12.6567    5.5264    9.8590 H   0  0  0  0  0  0  0  0  0  0  0  0
   11.7774   11.4565   10.4068 H   0  0  0  0  0  0  0  0  0  0  0  0
   16.1060   12.8460   12.0670 H   0  0  0  0  0  0  0  0  0  0  0  0
   17.9157   11.0658   12.7495 H   0  0  0  0  0  0  0  0  0  0  0  0
   16.8173    8.6525   12.2975 H   0  0  0  0  0  0  0  0  0  0  0  0
   15.7957    6.9995   10.9743 H   0  0  0  0  0  0  0  0  0  0  0  0
   15.3588    7.3003   13.3380 H   0  0  0  0  0  0  0  0  0  0  0  0
   14.1797    5.9213   13.2761 H   0  0  0  0  0  0  0  0  0  0  0  0
   17.1777    5.9088   13.1345 H   0  0  0  0  0  0  0  0  0  0  0  0
   16.0192    4.7914   13.9752 H   0  0  0  0  0  0  0  0  0  0  0  0
   16.7100    3.4920   12.3030 H   0  0  0  0  0  0  0  0  0  0  0  0
   17.0500    4.6900   11.2550 H   0  0  0  0  0  0  0  0  0  0  0  0
   15.2388    3.3145   10.4490 H   0  0  0  0  0  0  0  0  0  0  0  0
   14.3075    3.7388   11.9258 H   0  0  0  0  0  0  0  0  0  0  0  0
   15.0715    5.4602    9.5588 H   0  0  0  0  0  0  0  0  0  0  0  0
   13.4750    5.2663   10.4145 H   0  0  0  0  0  0  0  0  0  0  0  0
  1  2  1  0
  2  3  2  0
  3  4  1  0
  4  5  2  0
  5  6  1  0
  6  7  2  0
  7  8  1  0
  8  9  1  0
  9 10  2  0
 10 11  1  0
 11 12  2  0
 12 13  1  0
 13 14  1  0
 14 15  1  0
 15 16  1  0
 16 17  1  0
 17 18  1  0
 18 19  1  0
 13  2  1  0
 19 14  1  0
 12  4  1  0
 11  7  1  0
  1 20  1  0
  1 21  1  0
  1 22  1  0
  5 23  1  0
  8 24  1  0
  9 25  1  0
 10 26  1  0
 14 27  1  0
 15 28  1  0
 15 29  1  0
 16 30  1  0
 16 31  1  0
 17 32  1  0
 17 33  1  0
 18 34  1  0
 18 35  1  0
 19 36  1  0
 19 37  1  0
M  CHG  1  17   1
M  END
>  <meeko>  (6) 
{"is_sidechain": [false], "free_energy": -6.614, "intermolecular_energy": -7.85, "internal_energy": 0.467}

$$$$
4f09_ligand
     RDKit          3D

 37 40  0  0  0  0  0  0  0  0999 V2000
   15.2290   11.0570   11.5240 C   0  0  0  0  0  0  0  0  0  0  0  0
   15.8380    9.7440   11.8710 C   0  0  0  0  0  0  0  0  0  0  0  0
   17.0860    9.6070   12.2660 N   0  0  0  0  0  0  0  0  0  0  0  0
   17.2630    8.2750   12.5020 C   0  0  0  0  0  0  0  0  0  0  0  0
   18.3910    7.5600   12.9420 C   0  0  0  0  0  0  0  0  0  0  0  0
   18.3780    6.2100   13.1310 N   0  0  0  0  0  0  0  0  0  0  0  0
   17.2050    5.6140   12.8730 C   0  0  0  0  0  0  0  0  0  0  0  0
   16.9260    4.2830   12.9960 N   0  0  0  0  0  0  0  0  0  0  0  0
   15.6080    4.0610   12.6540 C   0  0  0  0  0  0  0  0  0  0  0  0
   15.0330    5.2710   12.3030 C   0  0  0  0  0  0  0  0  0  0  0  0
   16.0560    6.2400   12.4390 C   0  0  0  0  0  0  0  0  0  0  0  0
   16.0840    7.5920   12.2410 C   0  0  0  0  0  0  0  0  0  0  0  0
   15.1840    8.5090   11.8200 N   0  0  0  0  0  0  0  0  0  0  0  0
   13.8150    8.3560   11.3430 C   0  0  0  0  0  0  0  0  0  0  0  0
   13.7000    7.5550   10.0420 C   0  0  0  0  0  0  0  0  0  0  0  0
   12.2860    7.5890    9.4720 C   0  0  0  0  0  0  0  0  0  0  0  0
   11.2510    7.7220   10.5450 N   0  0  0  0  0  0  0  0  0  0  0  0
   11.6280    7.1610   11.8720 C   0  0  0  0  0  0  0  0  0  0  0  0
   12.8160    7.9300   12.4310 C   0  0  0  0  0  0  0  0  0  0  0  0
   14.9772   11.5998   12.4470 H   0  0  0  0  0  0  0  0  0  0  0  0
   15.9446   11.6487   10.9343 H   0  0  0  0  0  0  0  0  0  0  0  0
   14.3151   10.8929   10.9343 H   0  0  0  0  0  0  0  0  0  0  0  0
   19.3212    8.1121   13.1417 H   0  0  0  0  0  0  0  0  0  0  0  0
   17.5980    3.5920   13.3000 H   0  0  0  0  0  0  0  0  0  0  0  0
   15.0989    3.0859   12.6592 H   0  0  0  0  0  0  0  0  0  0  0  0
   13.9945    5.4437   11.9840 H   0  0  0  0  0  0  0  0  0  0  0  0
   13.5011    9.3745   11.0707 H   0  0  0  0  0  0  0  0  0  0  0  0
   14.3919    7.9810    9.3005 H   0  0  0  0  0  0  0  0  0  0  0  0
   13.9507    6.5075   10.2652 H   0  0  0  0  0  0  0  0  0  0  0  0
   12.1997    8.4457    8.7875 H   0  0  0  0  0  0  0  0  0  0  0  0
   12.1093    6.6393    8.9459 H   0  0  0  0  0  0  0  0  0  0  0  0
   10.3880    7.2550   10.2220 H   0  0  0  0  0  0  0  0  0  0  0  0
   10.9780    8.7100   10.6520 H   0  0  0  0  0  0  0  0  0  0  0  0
   10.7764    7.2498   12.5626 H   0  0  0  0  0  0  0  0  0  0  0  0
   11.8994    6.1012   11.7574 H   0  0  0  0  0  0  0  0  0  0  0  0
   12.4435    8.8319   12.9387 H   0  0  0  0  0  0  0  0  0  0  0  0
   13.3468    7.2612   13.1246 H   0  0  0  0  0  0  0  0  0  0  0  0
  1  2  1  0
  2  3  2  0
  3  4  1  0
  4  5  2  0
  5  6  1  0
  6  7  2  0
  7  8  1  0
  8  9  1  0
  9 10  2  0
 10 11  1  0
 11 12  2  0
 12 13  1  0
 13 14  1  0
 14 15  1  0
 15 16  1  0
 16 17  1  0
 17 18  1  0
 18 19  1  0
 13  2  1  0
 19 14  1  0
 12  4  1  0
 11  7  1  0
  1 20  1  0
  1 21  1  0
  1 22  1  0
  5 23  1  0
  8 24  1  0
  9 25  1  0
 10 26  1  0
 14 27  1  0
 15 28  1  0
 15 29  1  0
 16 30  1  0
 16 31  1  0
 17 32  1  0
 17 33  1  0
 18 34  1  0
 18 35  1  0
 19 36  1  0
 19 37  1  0
M  CHG  1  17   1
M  END
>  <meeko>  (7) 
{"is_sidechain": [false], "free_energy": -6.516, "intermolecular_energy": -6.896, "internal_energy": -0.381}

$$$$
4f09_ligand
     RDKit          3D

 37 40  0  0  0  0  0  0  0  0999 V2000
   13.2950   11.1790   10.2960 C   0  0  0  0  0  0  0  0  0  0  0  0
   13.1200    9.7170   10.5090 C   0  0  0  0  0  0  0  0  0  0  0  0
   12.1130    9.0280   10.0140 N   0  0  0  0  0  0  0  0  0  0  0  0
   12.3080    7.7370   10.4090 C   0  0  0  0  0  0  0  0  0  0  0  0
   11.5510    6.5770   10.1690 C   0  0  0  0  0  0  0  0  0  0  0  0
   11.9120    5.3510   10.6460 N   0  0  0  0  0  0  0  0  0  0  0  0
   13.0500    5.3340   11.3560 C   0  0  0  0  0  0  0  0  0  0  0  0
   13.6340    4.2400   11.9270 N   0  0  0  0  0  0  0  0  0  0  0  0
   14.7990    4.6230   12.5580 C   0  0  0  0  0  0  0  0  0  0  0  0
   14.9630    5.9880   12.3900 C   0  0  0  0  0  0  0  0  0  0  0  0
   13.8470    6.4230   11.6360 C   0  0  0  0  0  0  0  0  0  0  0  0
   13.4690    7.6470   11.1630 C   0  0  0  0  0  0  0  0  0  0  0  0
   13.9780    8.8980   11.2510 N   0  0  0  0  0  0  0  0  0  0  0  0
   15.1340    9.4110   11.9750 C   0  0  0  0  0  0  0  0  0  0  0  0
   16.4540    8.7350   11.5910 C   0  0  0  0  0  0  0  0  0  0  0  0
   17.5990    9.1520   12.5070 C   0  0  0  0  0  0  0  0  0  0  0  0
   17.4170   10.5400   13.0370 N   0  0  0  0  0  0  0  0  0  0  0  0
   16.6340   11.4600   12.1670 C   0  0  0  0  0  0  0  0  0  0  0  0
   15.2090   10.9450   12.0310 C   0  0  0  0  0  0  0  0  0  0  0  0
   13.3558   11.6867   11.2699 H   0  0  0  0  0  0  0  0  0  0  0  0
   14.2211   11.3589    9.7303 H   0  0  0  0  0  0  0  0  0  0  0  0
   12.4375   11.5724    9.7303 H   0  0  0  0  0  0  0  0  0  0  0  0
   10.6306    6.6613    9.5726 H   0  0  0  0  0  0  0  0  0  0  0  0
   13.2520    3.3050   11.8730 H   0  0  0  0  0  0  0  0  0  0  0  0
   15.4832    3.9562   13.1033 H   0  0  0  0  0  0  0  0  0  0  0  0
   15.7910    6.6072   12.7656 H   0  0  0  0  0  0  0  0  0  0  0  0
   14.9619    9.1102   13.0190 H   0  0  0  0  0  0  0  0  0  0  0  0
   16.3263    7.6444   11.6566 H   0  0  0  0  0  0  0  0  0  0  0  0
   16.7087    9.0459   10.5670 H   0  0  0  0  0  0  0  0  0  0  0  0
   17.6488    8.4522   13.3542 H   0  0  0  0  0  0  0  0  0  0  0  0
   18.5285    9.1323   11.9191 H   0  0  0  0  0  0  0  0  0  0  0  0
   18.3510   10.9500   13.1970 H   0  0  0  0  0  0  0  0  0  0  0  0
   16.9920   10.5060   13.9760 H   0  0  0  0  0  0  0  0  0  0  0  0
   16.6190   12.4641   12.6160 H   0  0  0  0  0  0  0  0  0  0  0  0
   17.1014   11.5081   11.1724 H   0  0  0  0  0  0  0  0  0  0  0  0
   14.6249   11.2943   12.8952 H   0  0  0  0  0  0  0  0  0  0  0  0
   14.8057   11.3315   11.0834 H   0  0  0  0  0  0  0  0  0  0  0  0
  1  2  1  0
  2  3  2  0
  3  4  1  0
  4  5  2  0
  5  6  1  0
  6  7  2  0
  7  8  1  0
  8  9  1  0
  9 10  2  0
 10 11  1  0
 11 12  2  0
 12 13  1  0
 13 14  1  0
 14 15  1  0
 15 16  1  0
 16 17  1  0
 17 18  1  0
 18 19  1  0
 13  2  1  0
 19 14  1  0
 12  4  1  0
 11  7  1  0
  1 20  1  0
  1 21  1  0
  1 22  1  0
  5 23  1  0
  8 24  1  0
  9 25  1  0
 10 26  1  0
 14 27  1  0
 15 28  1  0
 15 29  1  0
 16 30  1  0
 16 31  1  0
 17 32  1  0
 17 33  1  0
 18 34  1  0
 18 35  1  0
 19 36  1  0
 19 37  1  0
M  CHG  1  17   1
M  END
>  <meeko>  (8) 
{"is_sidechain": [false], "free_energy": -6.245, "intermolecular_energy": -8.059, "internal_energy": 1.069}

$$$$
4f09_ligand
     RDKit          3D

 37 40  0  0  0  0  0  0  0  0999 V2000
   18.3810    9.5160   12.9700 C   0  0  0  0  0  0  0  0  0  0  0  0
   17.0320    9.4390   12.3470 C   0  0  0  0  0  0  0  0  0  0  0  0
   16.2230   10.4730   12.2420 N   0  0  0  0  0  0  0  0  0  0  0  0
   15.1040   10.0140   11.6090 C   0  0  0  0  0  0  0  0  0  0  0  0
   13.9230   10.6770   11.2340 C   0  0  0  0  0  0  0  0  0  0  0  0
   12.8980   10.0460   10.5910 N   0  0  0  0  0  0  0  0  0  0  0  0
   13.1060    8.7450   10.3360 C   0  0  0  0  0  0  0  0  0  0  0  0
   12.2500    7.8970    9.6960 N   0  0  0  0  0  0  0  0  0  0  0  0
   12.8270    6.6470    9.6120 C   0  0  0  0  0  0  0  0  0  0  0  0
   14.0750    6.6950   10.2110 C   0  0  0  0  0  0  0  0  0  0  0  0
   14.2330    8.0250   10.6700 C   0  0  0  0  0  0  0  0  0  0  0  0
   15.2470    8.6640   11.3240 C   0  0  0  0  0  0  0  0  0  0  0  0
   16.4530    8.2860   11.8070 N   0  0  0  0  0  0  0  0  0  0  0  0
   17.0960    6.9790   11.8570 C   0  0  0  0  0  0  0  0  0  0  0  0
   18.6270    7.0420   11.8690 C   0  0  0  0  0  0  0  0  0  0  0  0
   19.2580    5.6620   11.7170 C   0  0  0  0  0  0  0  0  0  0  0  0
   18.3950    4.5830   12.2920 N   0  0  0  0  0  0  0  0  0  0  0  0
   17.5050    5.0030   13.4110 C   0  0  0  0  0  0  0  0  0  0  0  0
   16.5000    6.0270   12.9070 C   0  0  0  0  0  0  0  0  0  0  0  0
   18.2799    9.5102   14.0653 H   0  0  0  0  0  0  0  0  0  0  0  0
   18.9814    8.6507   12.6526 H   0  0  0  0  0  0  0  0  0  0  0  0
   18.8790   10.4440   12.6526 H   0  0  0  0  0  0  0  0  0  0  0  0
   13.8208   11.7469   11.4680 H   0  0  0  0  0  0  0  0  0  0  0  0
   11.3440    8.1720    9.3420 H   0  0  0  0  0  0  0  0  0  0  0  0
   12.3720    5.7600    9.1469 H   0  0  0  0  0  0  0  0  0  0  0  0
   14.7953    5.8695   10.3098 H   0  0  0  0  0  0  0  0  0  0  0  0
   16.8460    6.5111   10.8934 H   0  0  0  0  0  0  0  0  0  0  0  0
   18.9625    7.6792   11.0375 H   0  0  0  0  0  0  0  0  0  0  0  0
   18.9420    7.4540   12.8391 H   0  0  0  0  0  0  0  0  0  0  0  0
   19.4143    5.4591   10.6472 H   0  0  0  0  0  0  0  0  0  0  0  0
   20.2112    5.6626   12.2660 H   0  0  0  0  0  0  0  0  0  0  0  0
   19.0070    3.8210   12.6240 H   0  0  0  0  0  0  0  0  0  0  0  0
   17.8310    4.1470   11.5470 H   0  0  0  0  0  0  0  0  0  0  0  0
   16.9689    4.1254   13.8015 H   0  0  0  0  0  0  0  0  0  0  0  0
   18.1118    5.4504   14.2120 H   0  0  0  0  0  0  0  0  0  0  0  0
   15.6505    5.4933   12.4558 H   0  0  0  0  0  0  0  0  0  0  0  0
   16.1878    6.6365   13.7678 H   0  0  0  0  0  0  0  0  0  0  0  0
  1  2  1  0
  2  3  2  0
  3  4  1  0
  4  5  2  0
  5  6  1  0
  6  7  2  0
  7  8  1  0
  8  9  1  0
  9 10  2  0
 10 11  1  0
 11 12  2  0
 12 13  1  0
 13 14  1  0
 14 15  1  0
 15 16  1  0
 16 17  1  0
 17 18  1  0
 18 19  1  0
 13  2  1  0
 19 14  1  0
 12  4  1  0
 11  7  1  0
  1 20  1  0
  1 21  1  0
  1 22  1  0
  5 23  1  0
  8 24  1  0
  9 25  1  0
 10 26  1  0
 14 27  1  0
 15 28  1  0
 15 29  1  0
 16 30  1  0
 16 31  1  0
 17 32  1  0
 17 33  1  0
 18 34  1  0
 18 35  1  0
 19 36  1  0
 19 37  1  0
M  CHG  1  17   1
M  END
>  <meeko>  (9) 
{"is_sidechain": [false], "free_energy": -6.005, "intermolecular_energy": -7.203, "internal_energy": 0.466}

$$$$
