2iwx_ligand
     RDKit          3D

 45 46  0  0  0  0  0  0  0  0999 V2000
   59.3920   74.6990   -5.1420 O   0  0  0  0  0  0  0  0  0  0  0  0
   58.6660   75.5480   -5.6590 C   0  0  0  0  0  0  0  0  0  0  0  0
   58.0210   75.3310   -7.0240 C   0  0  0  0  0  0  0  0  0  0  0  0
   56.6600   74.6440   -6.9140 C   0  0  0  0  0  0  0  0  0  0  0  0
   55.5140   75.6420   -7.1150 C   0  0  0  0  0  0  0  0  0  0  0  0
   54.5070   75.6060   -5.9710 C   0  0  0  0  0  0  0  0  0  0  0  0
   54.3870   76.9460   -5.2330 C   0  0  0  0  0  0  0  0  0  0  0  0
   54.7640   76.9780   -3.7710 C   0  0  0  0  0  0  0  0  0  0  0  0
   55.6720   77.7770   -3.1850 C   0  0  0  0  0  0  0  0  0  0  0  0
   56.0340   77.7310   -1.7270 C   0  0  0  0  0  0  0  0  0  0  0  0
   56.9600   76.5570   -1.3940 C   0  0  0  0  0  0  0  0  0  0  0  0
   58.3280   77.0020   -1.3330 O   0  0  0  0  0  0  0  0  0  0  0  0
   59.1930   76.3100   -2.1030 C   0  0  0  0  0  0  0  0  0  0  0  0
   59.4470   75.1150   -2.0350 O   0  0  0  0  0  0  0  0  0  0  0  0
   59.9560   77.2070   -2.9960 C   0  0  0  0  0  0  0  0  0  0  0  0
   61.1460   77.7430   -2.4660 C   0  0  0  0  0  0  0  0  0  0  0  0
   61.6310   77.4170   -1.2250 O   0  0  0  0  0  0  0  0  0  0  0  0
   61.9160   78.6430   -3.1930 C   0  0  0  0  0  0  0  0  0  0  0  0
   61.5220   78.9870   -4.4810 C   0  0  0  0  0  0  0  0  0  0  0  0
   62.2840   79.8670   -5.2030 O   0  0  0  0  0  0  0  0  0  0  0  0
   60.3690   78.4230   -5.0510 C   0  0  0  0  0  0  0  0  0  0  0  0
   59.9570   78.8530   -6.6860 Cl  0  0  0  0  0  0  0  0  0  0  0  0
   59.5700   77.5100   -4.3230 C   0  0  0  0  0  0  0  0  0  0  0  0
   58.3610   76.8710   -4.9770 C   0  0  0  0  0  0  0  0  0  0  0  0
   57.8870   76.3075   -7.5123 H   0  0  0  0  0  0  0  0  0  0  0  0
   58.6834   74.6785   -7.6118 H   0  0  0  0  0  0  0  0  0  0  0  0
   56.5913   73.8600   -7.6826 H   0  0  0  0  0  0  0  0  0  0  0  0
   56.5703   74.2109   -5.9069 H   0  0  0  0  0  0  0  0  0  0  0  0
   55.9357   76.6557   -7.1831 H   0  0  0  0  0  0  0  0  0  0  0  0
   54.9842   75.3640   -8.0381 H   0  0  0  0  0  0  0  0  0  0  0  0
   53.5208   75.3424   -6.3807 H   0  0  0  0  0  0  0  0  0  0  0  0
   54.8630   74.8615   -5.2437 H   0  0  0  0  0  0  0  0  0  0  0  0
   55.0329   77.6675   -5.7548 H   0  0  0  0  0  0  0  0  0  0  0  0
   53.3115   77.1766   -5.2481 H   0  0  0  0  0  0  0  0  0  0  0  0
   54.2379   76.2699   -3.1138 H   0  0  0  0  0  0  0  0  0  0  0  0
   56.1862   78.5163   -3.8166 H   0  0  0  0  0  0  0  0  0  0  0  0
   56.5420   78.6691   -1.4590 H   0  0  0  0  0  0  0  0  0  0  0  0
   55.1045   77.5992   -1.1538 H   0  0  0  0  0  0  0  0  0  0  0  0
   56.6726   76.1327   -0.4207 H   0  0  0  0  0  0  0  0  0  0  0  0
   56.8666   75.7932   -2.1801 H   0  0  0  0  0  0  0  0  0  0  0  0
   60.9960   76.8140   -0.7810 H   0  0  0  0  0  0  0  0  0  0  0  0
   62.8263   79.0779   -2.7545 H   0  0  0  0  0  0  0  0  0  0  0  0
   61.7530   80.2410   -5.9250 H   0  0  0  0  0  0  0  0  0  0  0  0
   57.5991   76.6957   -4.2032 H   0  0  0  0  0  0  0  0  0  0  0  0
   58.0131   77.5635   -5.7577 H   0  0  0  0  0  0  0  0  0  0  0  0
  1  2  2  0
  2  3  1  0
  3  4  1  0
  4  5  1  0
  5  6  1  0
  6  7  1  0
  7  8  1  0
  8  9  2  0
  9 10  1  0
 10 11  1  0
 11 12  1  0
 12 13  1  0
 13 14  2  0
 13 15  1  0
 15 16  2  0
 16 17  1  0
 16 18  1  0
 18 19  2  0
 19 20  1  0
 19 21  1  0
 21 22  1  0
 21 23  2  0
 23 24  1  0
 24  2  1  0
 23 15  1  0
  3 25  1  0
  3 26  1  0
  4 27  1  0
  4 28  1  0
  5 29  1  0
  5 30  1  0
  6 31  1  0
  6 32  1  0
  7 33  1  0
  7 34  1  0
  8 35  1  0
  9 36  1  0
 10 37  1  0
 10 38  1  0
 11 39  1  0
 11 40  1  0
 17 41  1  0
 18 42  1  0
 20 43  1  0
 24 44  1  0
 24 45  1  0
M  END
>  <meeko>  (1) 
{"is_sidechain": [false], "free_energy": -5.075, "intermolecular_energy": -8.932, "internal_energy": -1.51}

$$$$
2iwx_ligand
     RDKit          3D

 45 46  0  0  0  0  0  0  0  0999 V2000
   59.5060   76.0640   -4.8110 O   0  0  0  0  0  0  0  0  0  0  0  0
   59.4870   77.2380   -5.1810 C   0  0  0  0  0  0  0  0  0  0  0  0
   60.6030   78.2120   -4.8210 C   0  0  0  0  0  0  0  0  0  0  0  0
   61.5640   77.6270   -3.7860 C   0  0  0  0  0  0  0  0  0  0  0  0
   61.5230   78.4210   -2.4750 C   0  0  0  0  0  0  0  0  0  0  0  0
   61.3310   77.5140   -1.2380 C   0  0  0  0  0  0  0  0  0  0  0  0
   60.6410   76.1860   -1.5780 C   0  0  0  0  0  0  0  0  0  0  0  0
   59.1750   76.0510   -1.2400 C   0  0  0  0  0  0  0  0  0  0  0  0
   58.1580   76.7750   -1.7370 C   0  0  0  0  0  0  0  0  0  0  0  0
   56.7200   76.6200   -1.3280 C   0  0  0  0  0  0  0  0  0  0  0  0
   55.7650   77.3680   -2.2620 C   0  0  0  0  0  0  0  0  0  0  0  0
   56.4690   77.8310   -3.4290 O   0  0  0  0  0  0  0  0  0  0  0  0
   55.7060   78.0070   -4.5290 C   0  0  0  0  0  0  0  0  0  0  0  0
   54.8090   78.8240   -4.6810 O   0  0  0  0  0  0  0  0  0  0  0  0
   55.9740   76.9630   -5.5410 C   0  0  0  0  0  0  0  0  0  0  0  0
   54.9030   76.0990   -5.8390 C   0  0  0  0  0  0  0  0  0  0  0  0
   53.6520   76.2330   -5.2900 O   0  0  0  0  0  0  0  0  0  0  0  0
   55.0550   75.0450   -6.7330 C   0  0  0  0  0  0  0  0  0  0  0  0
   56.2770   74.8710   -7.3720 C   0  0  0  0  0  0  0  0  0  0  0  0
   56.4270   73.8390   -8.2600 O   0  0  0  0  0  0  0  0  0  0  0  0
   57.3430   75.7530   -7.1330 C   0  0  0  0  0  0  0  0  0  0  0  0
   58.8300   75.5120   -8.0030 Cl  0  0  0  0  0  0  0  0  0  0  0  0
   57.2070   76.8270   -6.2210 C   0  0  0  0  0  0  0  0  0  0  0  0
   58.3510   77.8000   -6.0200 C   0  0  0  0  0  0  0  0  0  0  0  0
   61.1686   78.4561   -5.7323 H   0  0  0  0  0  0  0  0  0  0  0  0
   60.1415   79.1105   -4.3855 H   0  0  0  0  0  0  0  0  0  0  0  0
   61.2794   76.5842   -3.5822 H   0  0  0  0  0  0  0  0  0  0  0  0
   62.5850   77.6800   -4.1918 H   0  0  0  0  0  0  0  0  0  0  0  0
   62.4697   78.9704   -2.3658 H   0  0  0  0  0  0  0  0  0  0  0  0
   60.6620   79.1037   -2.5251 H   0  0  0  0  0  0  0  0  0  0  0  0
   62.3183   77.2966   -0.8045 H   0  0  0  0  0  0  0  0  0  0  0  0
   60.6846   78.0520   -0.5289 H   0  0  0  0  0  0  0  0  0  0  0  0
   60.7442   76.0300   -2.6620 H   0  0  0  0  0  0  0  0  0  0  0  0
   61.1429   75.4408   -0.9433 H   0  0  0  0  0  0  0  0  0  0  0  0
   58.9110   75.2749   -0.5066 H   0  0  0  0  0  0  0  0  0  0  0  0
   58.3945   77.5346   -2.4967 H   0  0  0  0  0  0  0  0  0  0  0  0
   56.4620   75.5508   -1.3411 H   0  0  0  0  0  0  0  0  0  0  0  0
   56.6091   77.0484   -0.3209 H   0  0  0  0  0  0  0  0  0  0  0  0
   54.9553   76.6908   -2.5714 H   0  0  0  0  0  0  0  0  0  0  0  0
   55.3477   78.2346   -1.7283 H   0  0  0  0  0  0  0  0  0  0  0  0
   52.9870   75.8750   -5.9180 H   0  0  0  0  0  0  0  0  0  0  0  0
   54.2193   74.3580   -6.9319 H   0  0  0  0  0  0  0  0  0  0  0  0
   55.8560   73.0980   -7.9970 H   0  0  0  0  0  0  0  0  0  0  0  0
   58.7509   78.0754   -7.0070 H   0  0  0  0  0  0  0  0  0  0  0  0
   57.9462   78.6663   -5.4763 H   0  0  0  0  0  0  0  0  0  0  0  0
  1  2  2  0
  2  3  1  0
  3  4  1  0
  4  5  1  0
  5  6  1  0
  6  7  1  0
  7  8  1  0
  8  9  2  0
  9 10  1  0
 10 11  1  0
 11 12  1  0
 12 13  1  0
 13 14  2  0
 13 15  1  0
 15 16  2  0
 16 17  1  0
 16 18  1  0
 18 19  2  0
 19 20  1  0
 19 21  1  0
 21 22  1  0
 21 23  2  0
 23 24  1  0
 24  2  1  0
 23 15  1  0
  3 25  1  0
  3 26  1  0
  4 27  1  0
  4 28  1  0
  5 29  1  0
  5 30  1  0
  6 31  1  0
  6 32  1  0
  7 33  1  0
  7 34  1  0
  8 35  1  0
  9 36  1  0
 10 37  1  0
 10 38  1  0
 11 39  1  0
 11 40  1  0
 17 41  1  0
 18 42  1  0
 20 43  1  0
 24 44  1  0
 24 45  1  0
M  END
>  <meeko>  (2) 
{"is_sidechain": [false], "free_energy": -5.024, "intermolecular_energy": -8.974, "internal_energy": -1.378}

$$$$
2iwx_ligand
     RDKit          3D

 45 46  0  0  0  0  0  0  0  0999 V2000
   59.4260   76.5540   -5.0390 O   0  0  0  0  0  0  0  0  0  0  0  0
   59.1810   75.6270   -4.2670 C   0  0  0  0  0  0  0  0  0  0  0  0
   60.2850   74.8990   -3.5090 C   0  0  0  0  0  0  0  0  0  0  0  0
   61.6390   75.0200   -4.2090 C   0  0  0  0  0  0  0  0  0  0  0  0
   61.8210   73.9210   -5.2620 C   0  0  0  0  0  0  0  0  0  0  0  0
   61.8720   74.4960   -6.6880 C   0  0  0  0  0  0  0  0  0  0  0  0
   60.9170   73.7780   -7.6500 C   0  0  0  0  0  0  0  0  0  0  0  0
   59.6140   74.4630   -7.9850 C   0  0  0  0  0  0  0  0  0  0  0  0
   59.4540   75.6730   -8.5460 C   0  0  0  0  0  0  0  0  0  0  0  0
   58.1240   76.3200   -8.8160 C   0  0  0  0  0  0  0  0  0  0  0  0
   56.9930   75.6870   -8.0000 C   0  0  0  0  0  0  0  0  0  0  0  0
   56.6370   76.5400   -6.8950 O   0  0  0  0  0  0  0  0  0  0  0  0
   55.6990   76.0410   -6.0630 C   0  0  0  0  0  0  0  0  0  0  0  0
   54.7810   75.2870   -6.3540 O   0  0  0  0  0  0  0  0  0  0  0  0
   55.8020   76.6400   -4.7150 C   0  0  0  0  0  0  0  0  0  0  0  0
   54.8370   77.6150   -4.3940 C   0  0  0  0  0  0  0  0  0  0  0  0
   53.8080   77.9600   -5.2340 O   0  0  0  0  0  0  0  0  0  0  0  0
   54.8690   78.2860   -3.1780 C   0  0  0  0  0  0  0  0  0  0  0  0
   55.8490   77.9580   -2.2490 C   0  0  0  0  0  0  0  0  0  0  0  0
   55.8780   78.6120   -1.0460 O   0  0  0  0  0  0  0  0  0  0  0  0
   56.7890   76.9520   -2.5240 C   0  0  0  0  0  0  0  0  0  0  0  0
   57.9590   76.5520   -1.3000 Cl  0  0  0  0  0  0  0  0  0  0  0  0
   56.7740   76.2620   -3.7600 C   0  0  0  0  0  0  0  0  0  0  0  0
   57.7630   75.1420   -4.0150 C   0  0  0  0  0  0  0  0  0  0  0  0
   60.3671   75.3307   -2.5006 H   0  0  0  0  0  0  0  0  0  0  0  0
   60.0199   73.8323   -3.4659 H   0  0  0  0  0  0  0  0  0  0  0  0
   61.7017   76.0018   -4.7011 H   0  0  0  0  0  0  0  0  0  0  0  0
   62.4315   74.9123   -3.4538 H   0  0  0  0  0  0  0  0  0  0  0  0
   62.7612   73.3870   -5.0600 H   0  0  0  0  0  0  0  0  0  0  0  0
   60.9580   73.2419   -5.1988 H   0  0  0  0  0  0  0  0  0  0  0  0
   61.5972   75.5604   -6.6484 H   0  0  0  0  0  0  0  0  0  0  0  0
   62.8947   74.3540   -7.0673 H   0  0  0  0  0  0  0  0  0  0  0  0
   61.4584   73.6213   -8.5946 H   0  0  0  0  0  0  0  0  0  0  0  0
   60.6213   72.8623   -7.1171 H   0  0  0  0  0  0  0  0  0  0  0  0
   58.6942   73.9103   -7.7430 H   0  0  0  0  0  0  0  0  0  0  0  0
   60.3599   76.2297   -8.8277 H   0  0  0  0  0  0  0  0  0  0  0  0
   58.1912   77.3874   -8.5587 H   0  0  0  0  0  0  0  0  0  0  0  0
   57.8906   76.1774   -9.8815 H   0  0  0  0  0  0  0  0  0  0  0  0
   56.1145   75.5448   -8.6465 H   0  0  0  0  0  0  0  0  0  0  0  0
   57.3332   74.7169   -7.6086 H   0  0  0  0  0  0  0  0  0  0  0  0
   52.9530   77.7780   -4.7850 H   0  0  0  0  0  0  0  0  0  0  0  0
   54.1279   79.0672   -2.9534 H   0  0  0  0  0  0  0  0  0  0  0  0
   56.7790   78.9280   -0.8690 H   0  0  0  0  0  0  0  0  0  0  0  0
   57.7730   74.4803   -3.1363 H   0  0  0  0  0  0  0  0  0  0  0  0
   57.4334   74.6225   -4.9268 H   0  0  0  0  0  0  0  0  0  0  0  0
  1  2  2  0
  2  3  1  0
  3  4  1  0
  4  5  1  0
  5  6  1  0
  6  7  1  0
  7  8  1  0
  8  9  2  0
  9 10  1  0
 10 11  1  0
 11 12  1  0
 12 13  1  0
 13 14  2  0
 13 15  1  0
 15 16  2  0
 16 17  1  0
 16 18  1  0
 18 19  2  0
 19 20  1  0
 19 21  1  0
 21 22  1  0
 21 23  2  0
 23 24  1  0
 24  2  1  0
 23 15  1  0
  3 25  1  0
  3 26  1  0
  4 27  1  0
  4 28  1  0
  5 29  1  0
  5 30  1  0
  6 31  1  0
  6 32  1  0
  7 33  1  0
  7 34  1  0
  8 35  1  0
  9 36  1  0
 10 37  1  0
 10 38  1  0
 11 39  1  0
 11 40  1  0
 17 41  1  0
 18 42  1  0
 20 43  1  0
 24 44  1  0
 24 45  1  0
M  END
>  <meeko>  (3) 
{"is_sidechain": [false], "free_energy": -4.913, "intermolecular_energy": -8.663, "internal_energy": -1.493}

$$$$
2iwx_ligand
     RDKit          3D

 45 46  0  0  0  0  0  0  0  0999 V2000
   59.1310   77.4920   -3.5920 O   0  0  0  0  0  0  0  0  0  0  0  0
   58.7980   76.6310   -2.7770 C   0  0  0  0  0  0  0  0  0  0  0  0
   59.4240   76.5540   -1.3890 C   0  0  0  0  0  0  0  0  0  0  0  0
   60.4580   75.4340   -1.2860 C   0  0  0  0  0  0  0  0  0  0  0  0
   61.8850   75.9770   -1.4260 C   0  0  0  0  0  0  0  0  0  0  0  0
   62.7180   75.1500   -2.4040 C   0  0  0  0  0  0  0  0  0  0  0  0
   61.9020   74.0620   -3.1130 C   0  0  0  0  0  0  0  0  0  0  0  0
   61.7660   74.1540   -4.6150 C   0  0  0  0  0  0  0  0  0  0  0  0
   60.7390   74.6770   -5.3060 C   0  0  0  0  0  0  0  0  0  0  0  0
   60.6450   74.7000   -6.8060 C   0  0  0  0  0  0  0  0  0  0  0  0
   59.2410   75.0670   -7.2950 C   0  0  0  0  0  0  0  0  0  0  0  0
   58.4480   75.5710   -6.2040 O   0  0  0  0  0  0  0  0  0  0  0  0
   57.2520   74.9680   -6.0350 C   0  0  0  0  0  0  0  0  0  0  0  0
   56.8730   73.9270   -6.5530 O   0  0  0  0  0  0  0  0  0  0  0  0
   56.3370   75.8040   -5.2300 C   0  0  0  0  0  0  0  0  0  0  0  0
   55.1700   76.2490   -5.8820 C   0  0  0  0  0  0  0  0  0  0  0  0
   54.8400   75.8900   -7.1640 O   0  0  0  0  0  0  0  0  0  0  0  0
   54.2640   77.0870   -5.2420 C   0  0  0  0  0  0  0  0  0  0  0  0
   54.4980   77.4570   -3.9230 C   0  0  0  0  0  0  0  0  0  0  0  0
   53.6030   78.2760   -3.2880 O   0  0  0  0  0  0  0  0  0  0  0  0
   55.6260   76.9810   -3.2350 C   0  0  0  0  0  0  0  0  0  0  0  0
   55.8360   77.4390   -1.5700 Cl  0  0  0  0  0  0  0  0  0  0  0  0
   56.5620   76.1320   -3.8730 C   0  0  0  0  0  0  0  0  0  0  0  0
   57.7420   75.5850   -3.0950 C   0  0  0  0  0  0  0  0  0  0  0  0
   59.9163   77.5126   -1.1683 H   0  0  0  0  0  0  0  0  0  0  0  0
   58.6217   76.3417   -0.6670 H   0  0  0  0  0  0  0  0  0  0  0  0
   60.3565   74.9418   -0.3075 H   0  0  0  0  0  0  0  0  0  0  0  0
   60.2774   74.7193   -2.1024 H   0  0  0  0  0  0  0  0  0  0  0  0
   61.8364   77.0141   -1.7894 H   0  0  0  0  0  0  0  0  0  0  0  0
   62.3674   75.9238   -0.4389 H   0  0  0  0  0  0  0  0  0  0  0  0
   63.1385   75.8246   -3.1643 H   0  0  0  0  0  0  0  0  0  0  0  0
   63.5045   74.6462   -1.8230 H   0  0  0  0  0  0  0  0  0  0  0  0
   62.3744   73.0953   -2.8843 H   0  0  0  0  0  0  0  0  0  0  0  0
   60.8779   74.1895   -2.7324 H   0  0  0  0  0  0  0  0  0  0  0  0
   62.5990   73.7484   -5.2079 H   0  0  0  0  0  0  0  0  0  0  0  0
   59.9096   75.1189   -4.7343 H   0  0  0  0  0  0  0  0  0  0  0  0
   61.3595   75.4409   -7.1939 H   0  0  0  0  0  0  0  0  0  0  0  0
   60.8755   73.6890   -7.1731 H   0  0  0  0  0  0  0  0  0  0  0  0
   59.3185   75.8393   -8.0744 H   0  0  0  0  0  0  0  0  0  0  0  0
   58.7575   74.1672   -7.7031 H   0  0  0  0  0  0  0  0  0  0  0  0
   54.3640   75.0310   -7.1440 H   0  0  0  0  0  0  0  0  0  0  0  0
   53.3728   77.4527   -5.7731 H   0  0  0  0  0  0  0  0  0  0  0  0
   52.6980   77.9880   -3.4920 H   0  0  0  0  0  0  0  0  0  0  0  0
   57.3704   75.1667   -2.1479 H   0  0  0  0  0  0  0  0  0  0  0  0
   58.2216   74.8242   -3.7284 H   0  0  0  0  0  0  0  0  0  0  0  0
  1  2  2  0
  2  3  1  0
  3  4  1  0
  4  5  1  0
  5  6  1  0
  6  7  1  0
  7  8  1  0
  8  9  2  0
  9 10  1  0
 10 11  1  0
 11 12  1  0
 12 13  1  0
 13 14  2  0
 13 15  1  0
 15 16  2  0
 16 17  1  0
 16 18  1  0
 18 19  2  0
 19 20  1  0
 19 21  1  0
 21 22  1  0
 21 23  2  0
 23 24  1  0
 24  2  1  0
 23 15  1  0
  3 25  1  0
  3 26  1  0
  4 27  1  0
  4 28  1  0
  5 29  1  0
  5 30  1  0
  6 31  1  0
  6 32  1  0
  7 33  1  0
  7 34  1  0
  8 35  1  0
  9 36  1  0
 10 37  1  0
 10 38  1  0
 11 39  1  0
 11 40  1  0
 17 41  1  0
 18 42  1  0
 20 43  1  0
 24 44  1  0
 24 45  1  0
M  END
>  <meeko>  (4) 
{"is_sidechain": [false], "free_energy": -4.854, "intermolecular_energy": -8.588, "internal_energy": -1.464}

$$$$
2iwx_ligand
     RDKit          3D

 45 46  0  0  0  0  0  0  0  0999 V2000
   57.4160   74.9270   -2.9630 O   0  0  0  0  0  0  0  0  0  0  0  0
   57.8350   75.9930   -2.5090 C   0  0  0  0  0  0  0  0  0  0  0  0
   57.1360   76.7060   -1.3570 C   0  0  0  0  0  0  0  0  0  0  0  0
   55.6200   76.7510   -1.5440 C   0  0  0  0  0  0  0  0  0  0  0  0
   55.1890   78.0140   -2.2980 C   0  0  0  0  0  0  0  0  0  0  0  0
   54.6930   77.7010   -3.7280 C   0  0  0  0  0  0  0  0  0  0  0  0
   55.7270   78.0760   -4.7980 C   0  0  0  0  0  0  0  0  0  0  0  0
   56.2880   76.9640   -5.6510 C   0  0  0  0  0  0  0  0  0  0  0  0
   55.7330   75.7640   -5.8880 C   0  0  0  0  0  0  0  0  0  0  0  0
   56.3640   74.6800   -6.7160 C   0  0  0  0  0  0  0  0  0  0  0  0
   57.7750   75.0500   -7.1820 C   0  0  0  0  0  0  0  0  0  0  0  0
   58.7430   74.6940   -6.1770 O   0  0  0  0  0  0  0  0  0  0  0  0
   59.6410   75.6560   -5.8770 C   0  0  0  0  0  0  0  0  0  0  0  0
   59.8760   76.6710   -6.5170 O   0  0  0  0  0  0  0  0  0  0  0  0
   60.4650   75.2770   -4.7090 C   0  0  0  0  0  0  0  0  0  0  0  0
   61.5850   74.4670   -4.9780 C   0  0  0  0  0  0  0  0  0  0  0  0
   61.9560   74.0910   -6.2440 O   0  0  0  0  0  0  0  0  0  0  0  0
   62.4000   74.0020   -3.9520 C   0  0  0  0  0  0  0  0  0  0  0  0
   62.1230   74.3800   -2.6430 C   0  0  0  0  0  0  0  0  0  0  0  0
   62.9300   73.9310   -1.6320 O   0  0  0  0  0  0  0  0  0  0  0  0
   61.0440   75.2320   -2.3570 C   0  0  0  0  0  0  0  0  0  0  0  0
   60.7810   75.7100   -0.7050 Cl  0  0  0  0  0  0  0  0  0  0  0  0
   60.2010   75.7090   -3.3880 C   0  0  0  0  0  0  0  0  0  0  0  0
   59.0760   76.6720   -3.0640 C   0  0  0  0  0  0  0  0  0  0  0  0
   57.3623   76.1741   -0.4211 H   0  0  0  0  0  0  0  0  0  0  0  0
   57.5044   77.7420   -1.3264 H   0  0  0  0  0  0  0  0  0  0  0  0
   55.3031   75.8665   -2.1161 H   0  0  0  0  0  0  0  0  0  0  0  0
   55.1478   76.7617   -0.5505 H   0  0  0  0  0  0  0  0  0  0  0  0
   54.3752   78.4995   -1.7393 H   0  0  0  0  0  0  0  0  0  0  0  0
   56.0661   78.6725   -2.3819 H   0  0  0  0  0  0  0  0  0  0  0  0
   54.4825   76.6238   -3.8016 H   0  0  0  0  0  0  0  0  0  0  0  0
   53.7886   78.3003   -3.9093 H   0  0  0  0  0  0  0  0  0  0  0  0
   55.2515   78.8013   -5.4746 H   0  0  0  0  0  0  0  0  0  0  0  0
   56.5902   78.4540   -4.2305 H   0  0  0  0  0  0  0  0  0  0  0  0
   57.2583   77.1578   -6.1315 H   0  0  0  0  0  0  0  0  0  0  0  0
   54.7471   75.5603   -5.4448 H   0  0  0  0  0  0  0  0  0  0  0  0
   56.4203   73.7619   -6.1128 H   0  0  0  0  0  0  0  0  0  0  0  0
   55.7415   74.5356   -7.6113 H   0  0  0  0  0  0  0  0  0  0  0  0
   58.0030   74.5099   -8.1128 H   0  0  0  0  0  0  0  0  0  0  0  0
   57.8215   76.1353   -7.3548 H   0  0  0  0  0  0  0  0  0  0  0  0
   61.2670   73.4990   -6.6170 H   0  0  0  0  0  0  0  0  0  0  0  0
   63.2530   73.3435   -4.1731 H   0  0  0  0  0  0  0  0  0  0  0  0
   62.7180   74.4060   -0.8110 H   0  0  0  0  0  0  0  0  0  0  0  0
   59.4402   77.3941   -2.3184 H   0  0  0  0  0  0  0  0  0  0  0  0
   58.7841   77.1563   -4.0075 H   0  0  0  0  0  0  0  0  0  0  0  0
  1  2  2  0
  2  3  1  0
  3  4  1  0
  4  5  1  0
  5  6  1  0
  6  7  1  0
  7  8  1  0
  8  9  2  0
  9 10  1  0
 10 11  1  0
 11 12  1  0
 12 13  1  0
 13 14  2  0
 13 15  1  0
 15 16  2  0
 16 17  1  0
 16 18  1  0
 18 19  2  0
 19 20  1  0
 19 21  1  0
 21 22  1  0
 21 23  2  0
 23 24  1  0
 24  2  1  0
 23 15  1  0
  3 25  1  0
  3 26  1  0
  4 27  1  0
  4 28  1  0
  5 29  1  0
  5 30  1  0
  6 31  1  0
  6 32  1  0
  7 33  1  0
  7 34  1  0
  8 35  1  0
  9 36  1  0
 10 37  1  0
 10 38  1  0
 11 39  1  0
 11 40  1  0
 17 41  1  0
 18 42  1  0
 20 43  1  0
 24 44  1  0
 24 45  1  0
M  END
>  <meeko>  (5) 
{"is_sidechain": [false], "free_energy": -4.837, "intermolecular_energy": -8.216, "internal_energy": -1.807}

$$$$
2iwx_ligand
     RDKit          3D

 45 46  0  0  0  0  0  0  0  0999 V2000
   57.3970   77.7670   -6.4890 O   0  0  0  0  0  0  0  0  0  0  0  0
   56.9760   76.6290   -6.6960 C   0  0  0  0  0  0  0  0  0  0  0  0
   57.0440   75.9850   -8.0760 C   0  0  0  0  0  0  0  0  0  0  0  0
   58.2170   76.5150   -8.9000 C   0  0  0  0  0  0  0  0  0  0  0  0
   59.1900   75.3900   -9.2730 C   0  0  0  0  0  0  0  0  0  0  0  0
   60.6130   75.7140   -8.8140 C   0  0  0  0  0  0  0  0  0  0  0  0
   60.6720   76.8880   -7.8290 C   0  0  0  0  0  0  0  0  0  0  0  0
   61.3020   76.6400   -6.4790 C   0  0  0  0  0  0  0  0  0  0  0  0
   60.6790   76.2660   -5.3490 C   0  0  0  0  0  0  0  0  0  0  0  0
   61.3580   76.0750   -4.0220 C   0  0  0  0  0  0  0  0  0  0  0  0
   60.3710   76.1090   -2.8520 C   0  0  0  0  0  0  0  0  0  0  0  0
   59.1110   76.6620   -3.2770 O   0  0  0  0  0  0  0  0  0  0  0  0
   58.0350   75.8790   -3.0540 C   0  0  0  0  0  0  0  0  0  0  0  0
   58.0280   74.6710   -2.8650 O   0  0  0  0  0  0  0  0  0  0  0  0
   56.7760   76.6390   -3.2100 C   0  0  0  0  0  0  0  0  0  0  0  0
   56.4210   77.4780   -2.1360 C   0  0  0  0  0  0  0  0  0  0  0  0
   57.2080   77.6550   -1.0260 O   0  0  0  0  0  0  0  0  0  0  0  0
   55.2310   78.1970   -2.1470 C   0  0  0  0  0  0  0  0  0  0  0  0
   54.4000   78.1130   -3.2570 C   0  0  0  0  0  0  0  0  0  0  0  0
   53.2310   78.8270   -3.2740 O   0  0  0  0  0  0  0  0  0  0  0  0
   54.7590   77.3260   -4.3640 C   0  0  0  0  0  0  0  0  0  0  0  0
   53.7010   77.3050   -5.7450 Cl  0  0  0  0  0  0  0  0  0  0  0  0
   55.9640   76.5840   -4.3660 C   0  0  0  0  0  0  0  0  0  0  0  0
   56.3590   75.7850   -5.5930 C   0  0  0  0  0  0  0  0  0  0  0  0
   57.1581   74.8977   -7.9549 H   0  0  0  0  0  0  0  0  0  0  0  0
   56.1151   76.2314   -8.6112 H   0  0  0  0  0  0  0  0  0  0  0  0
   57.8292   76.9734   -9.8217 H   0  0  0  0  0  0  0  0  0  0  0  0
   58.7593   77.2563   -8.2947 H   0  0  0  0  0  0  0  0  0  0  0  0
   58.8614   74.4572   -8.7915 H   0  0  0  0  0  0  0  0  0  0  0  0
   59.1935   75.2813  -10.3676 H   0  0  0  0  0  0  0  0  0  0  0  0
   61.0346   74.8239   -8.3241 H   0  0  0  0  0  0  0  0  0  0  0  0
   61.1886   76.0032   -9.7056 H   0  0  0  0  0  0  0  0  0  0  0  0
   61.2406   77.6954   -8.3137 H   0  0  0  0  0  0  0  0  0  0  0  0
   59.6195   77.1181   -7.6069 H   0  0  0  0  0  0  0  0  0  0  0  0
   62.3910   76.7811   -6.4138 H   0  0  0  0  0  0  0  0  0  0  0  0
   59.5948   76.0868   -5.3986 H   0  0  0  0  0  0  0  0  0  0  0  0
   61.8703   75.1016   -4.0240 H   0  0  0  0  0  0  0  0  0  0  0  0
   62.0685   76.9037   -3.8861 H   0  0  0  0  0  0  0  0  0  0  0  0
   60.2117   75.0855   -2.4818 H   0  0  0  0  0  0  0  0  0  0  0  0
   60.7864   76.7388   -2.0516 H   0  0  0  0  0  0  0  0  0  0  0  0
   57.2100   78.6060   -0.7830 H   0  0  0  0  0  0  0  0  0  0  0  0
   54.9512   78.8243   -1.2878 H   0  0  0  0  0  0  0  0  0  0  0  0
   53.3040   79.5850   -2.6710 H   0  0  0  0  0  0  0  0  0  0  0  0
   57.0898   75.0207   -5.2899 H   0  0  0  0  0  0  0  0  0  0  0  0
   55.4376   75.3442   -6.0013 H   0  0  0  0  0  0  0  0  0  0  0  0
  1  2  2  0
  2  3  1  0
  3  4  1  0
  4  5  1  0
  5  6  1  0
  6  7  1  0
  7  8  1  0
  8  9  2  0
  9 10  1  0
 10 11  1  0
 11 12  1  0
 12 13  1  0
 13 14  2  0
 13 15  1  0
 15 16  2  0
 16 17  1  0
 16 18  1  0
 18 19  2  0
 19 20  1  0
 19 21  1  0
 21 22  1  0
 21 23  2  0
 23 24  1  0
 24  2  1  0
 23 15  1  0
  3 25  1  0
  3 26  1  0
  4 27  1  0
  4 28  1  0
  5 29  1  0
  5 30  1  0
  6 31  1  0
  6 32  1  0
  7 33  1  0
  7 34  1  0
  8 35  1  0
  9 36  1  0
 10 37  1  0
 10 38  1  0
 11 39  1  0
 11 40  1  0
 17 41  1  0
 18 42  1  0
 20 43  1  0
 24 44  1  0
 24 45  1  0
M  END
>  <meeko>  (6) 
{"is_sidechain": [false], "free_energy": -4.774, "intermolecular_energy": -8.373, "internal_energy": -1.538}

$$$$
2iwx_ligand
     RDKit          3D

 45 46  0  0  0  0  0  0  0  0999 V2000
   58.5250   77.2270   -7.7560 O   0  0  0  0  0  0  0  0  0  0  0  0
   58.8170   76.0820   -7.4110 C   0  0  0  0  0  0  0  0  0  0  0  0
   59.7430   75.2030   -8.2440 C   0  0  0  0  0  0  0  0  0  0  0  0
   60.2730   74.0100   -7.4480 C   0  0  0  0  0  0  0  0  0  0  0  0
   61.6230   74.3300   -6.7960 C   0  0  0  0  0  0  0  0  0  0  0  0
   61.5980   74.0570   -5.2800 C   0  0  0  0  0  0  0  0  0  0  0  0
   62.0440   75.2640   -4.4440 C   0  0  0  0  0  0  0  0  0  0  0  0
   61.0340   75.8790   -3.5060 C   0  0  0  0  0  0  0  0  0  0  0  0
   60.3930   75.2720   -2.4930 C   0  0  0  0  0  0  0  0  0  0  0  0
   59.3630   75.9310   -1.6180 C   0  0  0  0  0  0  0  0  0  0  0  0
   58.0040   76.0580   -2.3140 C   0  0  0  0  0  0  0  0  0  0  0  0
   57.7790   77.4190   -2.7230 O   0  0  0  0  0  0  0  0  0  0  0  0
   57.8790   77.6450   -4.0500 C   0  0  0  0  0  0  0  0  0  0  0  0
   58.6950   78.3570   -4.6170 O   0  0  0  0  0  0  0  0  0  0  0  0
   56.7540   77.0300   -4.7870 C   0  0  0  0  0  0  0  0  0  0  0  0
   55.4770   77.5610   -4.5250 C   0  0  0  0  0  0  0  0  0  0  0  0
   55.2620   78.6310   -3.6930 O   0  0  0  0  0  0  0  0  0  0  0  0
   54.3390   77.0250   -5.1170 C   0  0  0  0  0  0  0  0  0  0  0  0
   54.4750   75.9710   -6.0130 C   0  0  0  0  0  0  0  0  0  0  0  0
   53.3560   75.4460   -6.6040 O   0  0  0  0  0  0  0  0  0  0  0  0
   55.7440   75.4600   -6.3320 C   0  0  0  0  0  0  0  0  0  0  0  0
   55.8510   74.1750   -7.5000 Cl  0  0  0  0  0  0  0  0  0  0  0  0
   56.9110   75.9910   -5.7340 C   0  0  0  0  0  0  0  0  0  0  0  0
   58.2750   75.4620   -6.1340 C   0  0  0  0  0  0  0  0  0  0  0  0
   59.1871   74.8287   -9.1162 H   0  0  0  0  0  0  0  0  0  0  0  0
   60.6041   75.8143   -8.5520 H   0  0  0  0  0  0  0  0  0  0  0  0
   59.5476   73.7531   -6.6620 H   0  0  0  0  0  0  0  0  0  0  0  0
   60.4131   73.1662   -8.1396 H   0  0  0  0  0  0  0  0  0  0  0  0
   62.4005   73.7044   -7.2588 H   0  0  0  0  0  0  0  0  0  0  0  0
   61.8357   75.3981   -6.9504 H   0  0  0  0  0  0  0  0  0  0  0  0
   60.5713   73.7898   -4.9892 H   0  0  0  0  0  0  0  0  0  0  0  0
   62.3077   73.2403   -5.0819 H   0  0  0  0  0  0  0  0  0  0  0  0
   62.9037   74.9437   -3.8371 H   0  0  0  0  0  0  0  0  0  0  0  0
   62.2535   76.0518   -5.1826 H   0  0  0  0  0  0  0  0  0  0  0  0
   60.7966   76.9405   -3.6696 H   0  0  0  0  0  0  0  0  0  0  0  0
   60.6390   74.2193   -2.2896 H   0  0  0  0  0  0  0  0  0  0  0  0
   59.2380   75.3304   -0.7049 H   0  0  0  0  0  0  0  0  0  0  0  0
   59.7183   76.9458   -1.3859 H   0  0  0  0  0  0  0  0  0  0  0  0
   57.9870   75.4053   -3.1993 H   0  0  0  0  0  0  0  0  0  0  0  0
   57.2122   75.7595   -1.6112 H   0  0  0  0  0  0  0  0  0  0  0  0
   54.4710   79.1230   -4.0020 H   0  0  0  0  0  0  0  0  0  0  0  0
   53.3441   77.4296   -4.8795 H   0  0  0  0  0  0  0  0  0  0  0  0
   52.8500   74.9370   -5.9490 H   0  0  0  0  0  0  0  0  0  0  0  0
   58.9823   75.6717   -5.3181 H   0  0  0  0  0  0  0  0  0  0  0  0
   58.1608   74.3842   -6.3218 H   0  0  0  0  0  0  0  0  0  0  0  0
  1  2  2  0
  2  3  1  0
  3  4  1  0
  4  5  1  0
  5  6  1  0
  6  7  1  0
  7  8  1  0
  8  9  2  0
  9 10  1  0
 10 11  1  0
 11 12  1  0
 12 13  1  0
 13 14  2  0
 13 15  1  0
 15 16  2  0
 16 17  1  0
 16 18  1  0
 18 19  2  0
 19 20  1  0
 19 21  1  0
 21 22  1  0
 21 23  2  0
 23 24  1  0
 24  2  1  0
 23 15  1  0
  3 25  1  0
  3 26  1  0
  4 27  1  0
  4 28  1  0
  5 29  1  0
  5 30  1  0
  6 31  1  0
  6 32  1  0
  7 33  1  0
  7 34  1  0
  8 35  1  0
  9 36  1  0
 10 37  1  0
 10 38  1  0
 11 39  1  0
 11 40  1  0
 17 41  1  0
 18 42  1  0
 20 43  1  0
 24 44  1  0
 24 45  1  0
M  END
>  <meeko>  (7) 
{"is_sidechain": [false], "free_energy": -4.74, "intermolecular_energy": -8.124, "internal_energy": -1.728}

$$$$
2iwx_ligand
     RDKit          3D

 45 46  0  0  0  0  0  0  0  0999 V2000
   60.7530   76.7710   -5.1960 O   0  0  0  0  0  0  0  0  0  0  0  0
   60.4450   75.5850   -5.3240 C   0  0  0  0  0  0  0  0  0  0  0  0
   60.2750   74.9430   -6.6960 C   0  0  0  0  0  0  0  0  0  0  0  0
   58.8100   74.8900   -7.1290 C   0  0  0  0  0  0  0  0  0  0  0  0
   58.3210   76.2610   -7.6110 C   0  0  0  0  0  0  0  0  0  0  0  0
   57.1230   76.7560   -6.7860 C   0  0  0  0  0  0  0  0  0  0  0  0
   57.5030   77.8650   -5.7970 C   0  0  0  0  0  0  0  0  0  0  0  0
   57.2250   77.6240   -4.3320 C   0  0  0  0  0  0  0  0  0  0  0  0
   56.9250   76.4530   -3.7460 C   0  0  0  0  0  0  0  0  0  0  0  0
   56.6160   76.2850   -2.2840 C   0  0  0  0  0  0  0  0  0  0  0  0
   57.8080   76.6450   -1.3930 C   0  0  0  0  0  0  0  0  0  0  0  0
   58.9500   75.8390   -1.7360 O   0  0  0  0  0  0  0  0  0  0  0  0
   60.1410   76.4700   -1.6670 C   0  0  0  0  0  0  0  0  0  0  0  0
   60.3320   77.6690   -1.5170 O   0  0  0  0  0  0  0  0  0  0  0  0
   61.2580   75.5440   -1.9490 C   0  0  0  0  0  0  0  0  0  0  0  0
   62.2700   75.4770   -0.9720 C   0  0  0  0  0  0  0  0  0  0  0  0
   62.2190   76.1660    0.2130 O   0  0  0  0  0  0  0  0  0  0  0  0
   63.3970   74.6830   -1.1560 C   0  0  0  0  0  0  0  0  0  0  0  0
   63.5020   73.9130   -2.3080 C   0  0  0  0  0  0  0  0  0  0  0  0
   64.6060   73.1240   -2.4870 O   0  0  0  0  0  0  0  0  0  0  0  0
   62.4790   73.9210   -3.2710 C   0  0  0  0  0  0  0  0  0  0  0  0
   62.6460   72.8950   -4.6660 Cl  0  0  0  0  0  0  0  0  0  0  0  0
   61.3290   74.7280   -3.1020 C   0  0  0  0  0  0  0  0  0  0  0  0
   60.2120   74.6790   -4.1260 C   0  0  0  0  0  0  0  0  0  0  0  0
   60.8420   75.5289   -7.4344 H   0  0  0  0  0  0  0  0  0  0  0  0
   60.6475   73.9098   -6.6348 H   0  0  0  0  0  0  0  0  0  0  0  0
   58.7047   74.1637   -7.9484 H   0  0  0  0  0  0  0  0  0  0  0  0
   58.2027   74.5900   -6.2623 H   0  0  0  0  0  0  0  0  0  0  0  0
   59.1428   76.9862   -7.5177 H   0  0  0  0  0  0  0  0  0  0  0  0
   58.0005   76.1633   -8.6587 H   0  0  0  0  0  0  0  0  0  0  0  0
   56.3584   77.1452   -7.4744 H   0  0  0  0  0  0  0  0  0  0  0  0
   56.7476   75.9035   -6.2010 H   0  0  0  0  0  0  0  0  0  0  0  0
   58.5835   78.0425   -5.9016 H   0  0  0  0  0  0  0  0  0  0  0  0
   56.8560   78.7126   -6.0673 H   0  0  0  0  0  0  0  0  0  0  0  0
   57.2735   78.5034   -3.6730 H   0  0  0  0  0  0  0  0  0  0  0  0
   56.9039   75.5543   -4.3799 H   0  0  0  0  0  0  0  0  0  0  0  0
   55.7700   76.9382   -2.0239 H   0  0  0  0  0  0  0  0  0  0  0  0
   56.3741   75.2260   -2.1107 H   0  0  0  0  0  0  0  0  0  0  0  0
   58.0581   77.7069   -1.5333 H   0  0  0  0  0  0  0  0  0  0  0  0
   57.5395   76.4564   -0.3431 H   0  0  0  0  0  0  0  0  0  0  0  0
   61.9170   77.0840    0.0380 H   0  0  0  0  0  0  0  0  0  0  0  0
   64.1951   74.6648   -0.3992 H   0  0  0  0  0  0  0  0  0  0  0  0
   65.0160   72.9360   -1.6260 H   0  0  0  0  0  0  0  0  0  0  0  0
   60.1154   73.6441   -4.4861 H   0  0  0  0  0  0  0  0  0  0  0  0
   59.2993   75.0344   -3.6253 H   0  0  0  0  0  0  0  0  0  0  0  0
  1  2  2  0
  2  3  1  0
  3  4  1  0
  4  5  1  0
  5  6  1  0
  6  7  1  0
  7  8  1  0
  8  9  2  0
  9 10  1  0
 10 11  1  0
 11 12  1  0
 12 13  1  0
 13 14  2  0
 13 15  1  0
 15 16  2  0
 16 17  1  0
 16 18  1  0
 18 19  2  0
 19 20  1  0
 19 21  1  0
 21 22  1  0
 21 23  2  0
 23 24  1  0
 24  2  1  0
 23 15  1  0
  3 25  1  0
  3 26  1  0
  4 27  1  0
  4 28  1  0
  5 29  1  0
  5 30  1  0
  6 31  1  0
  6 32  1  0
  7 33  1  0
  7 34  1  0
  8 35  1  0
  9 36  1  0
 10 37  1  0
 10 38  1  0
 11 39  1  0
 11 40  1  0
 17 41  1  0
 18 42  1  0
 20 43  1  0
 24 44  1  0
 24 45  1  0
M  END
>  <meeko>  (8) 
{"is_sidechain": [false], "free_energy": -4.657, "intermolecular_energy": -8.182, "internal_energy": -1.525}

$$$$
2iwx_ligand
     RDKit          3D

 45 46  0  0  0  0  0  0  0  0999 V2000
   57.4210   77.6960   -6.4320 O   0  0  0  0  0  0  0  0  0  0  0  0
   57.1920   76.4910   -6.5430 C   0  0  0  0  0  0  0  0  0  0  0  0
   57.7810   75.6630   -7.6800 C   0  0  0  0  0  0  0  0  0  0  0  0
   59.3100   75.6590   -7.6550 C   0  0  0  0  0  0  0  0  0  0  0  0
   59.8850   76.7220   -8.5980 C   0  0  0  0  0  0  0  0  0  0  0  0
   61.1190   77.4120   -7.9930 C   0  0  0  0  0  0  0  0  0  0  0  0
   60.7910   78.7640   -7.3460 C   0  0  0  0  0  0  0  0  0  0  0  0
   60.7540   78.8290   -5.8380 C   0  0  0  0  0  0  0  0  0  0  0  0
   61.0810   77.8520   -4.9760 C   0  0  0  0  0  0  0  0  0  0  0  0
   60.9820   77.9660   -3.4800 C   0  0  0  0  0  0  0  0  0  0  0  0
   60.1880   76.8130   -2.8600 C   0  0  0  0  0  0  0  0  0  0  0  0
   59.0640   76.4740   -3.6940 O   0  0  0  0  0  0  0  0  0  0  0  0
   58.0450   75.8540   -3.0630 C   0  0  0  0  0  0  0  0  0  0  0  0
   58.0660   74.7490   -2.5400 O   0  0  0  0  0  0  0  0  0  0  0  0
   56.7860   76.6180   -3.1950 C   0  0  0  0  0  0  0  0  0  0  0  0
   56.4620   77.4690   -2.1200 C   0  0  0  0  0  0  0  0  0  0  0  0
   57.2770   77.6520   -1.0320 O   0  0  0  0  0  0  0  0  0  0  0  0
   55.2750   78.1930   -2.1090 C   0  0  0  0  0  0  0  0  0  0  0  0
   54.4160   78.1030   -3.1980 C   0  0  0  0  0  0  0  0  0  0  0  0
   53.2510   78.8230   -3.1920 O   0  0  0  0  0  0  0  0  0  0  0  0
   54.7450   77.3050   -4.3050 C   0  0  0  0  0  0  0  0  0  0  0  0
   53.6530   77.2750   -5.6590 Cl  0  0  0  0  0  0  0  0  0  0  0  0
   55.9460   76.5560   -4.3310 C   0  0  0  0  0  0  0  0  0  0  0  0
   56.3070   75.7440   -5.5590 C   0  0  0  0  0  0  0  0  0  0  0  0
   57.4218   74.6274   -7.5879 H   0  0  0  0  0  0  0  0  0  0  0  0
   57.4584   76.1136   -8.6302 H   0  0  0  0  0  0  0  0  0  0  0  0
   59.6522   75.8661   -6.6303 H   0  0  0  0  0  0  0  0  0  0  0  0
   59.6602   74.6715   -7.9900 H   0  0  0  0  0  0  0  0  0  0  0  0
   60.1738   76.2406   -9.5440 H   0  0  0  0  0  0  0  0  0  0  0  0
   59.1120   77.4867   -8.7645 H   0  0  0  0  0  0  0  0  0  0  0  0
   61.5496   76.7514   -7.2261 H   0  0  0  0  0  0  0  0  0  0  0  0
   61.8260   77.6022   -8.8140 H   0  0  0  0  0  0  0  0  0  0  0  0
   61.5490   79.4843   -7.6875 H   0  0  0  0  0  0  0  0  0  0  0  0
   59.7588   78.9794   -7.6593 H   0  0  0  0  0  0  0  0  0  0  0  0
   60.4230   79.7807   -5.3968 H   0  0  0  0  0  0  0  0  0  0  0  0
   61.4467   76.9024   -5.3937 H   0  0  0  0  0  0  0  0  0  0  0  0
   61.9975   77.9636   -3.0572 H   0  0  0  0  0  0  0  0  0  0  0  0
   60.4523   78.9018   -3.2484 H   0  0  0  0  0  0  0  0  0  0  0  0
   60.8427   75.9348   -2.7590 H   0  0  0  0  0  0  0  0  0  0  0  0
   59.8188   77.1240   -1.8716 H   0  0  0  0  0  0  0  0  0  0  0  0
   57.8210   76.8450   -0.9000 H   0  0  0  0  0  0  0  0  0  0  0  0
   55.0189   78.8292   -1.2490 H   0  0  0  0  0  0  0  0  0  0  0  0
   52.7570   78.6360   -2.3770 H   0  0  0  0  0  0  0  0  0  0  0  0
   56.8376   74.8373   -5.2329 H   0  0  0  0  0  0  0  0  0  0  0  0
   55.3668   75.5132   -6.0812 H   0  0  0  0  0  0  0  0  0  0  0  0
  1  2  2  0
  2  3  1  0
  3  4  1  0
  4  5  1  0
  5  6  1  0
  6  7  1  0
  7  8  1  0
  8  9  2  0
  9 10  1  0
 10 11  1  0
 11 12  1  0
 12 13  1  0
 13 14  2  0
 13 15  1  0
 15 16  2  0
 16 17  1  0
 16 18  1  0
 18 19  2  0
 19 20  1  0
 19 21  1  0
 21 22  1  0
 21 23  2  0
 23 24  1  0
 24  2  1  0
 23 15  1  0
  3 25  1  0
  3 26  1  0
  4 27  1  0
  4 28  1  0
  5 29  1  0
  5 30  1  0
  6 31  1  0
  6 32  1  0
  7 33  1  0
  7 34  1  0
  8 35  1  0
  9 36  1  0
 10 37  1  0
 10 38  1  0
 11 39  1  0
 11 40  1  0
 17 41  1  0
 18 42  1  0
 20 43  1  0
 24 44  1  0
 24 45  1  0
M  END
>  <meeko>  (9) 
{"is_sidechain": [false], "free_energy": -4.612, "intermolecular_energy": -8.241, "internal_energy": -1.385}

$$$$
