1s38_ligand
     RDKit          3D

 22 23  0  0  0  0  0  0  0  0999 V2000
   14.8750   16.1310   19.3180 C   0  0  0  0  0  0  0  0  0  0  0  0
   16.1910   16.6180   19.8560 C   0  0  0  0  0  0  0  0  0  0  0  0
   17.2490   16.8960   18.9740 C   0  0  0  0  0  0  0  0  0  0  0  0
   18.4790   17.3520   19.4530 C   0  0  0  0  0  0  0  0  0  0  0  0
   18.6660   17.5370   20.8200 C   0  0  0  0  0  0  0  0  0  0  0  0
   17.6130   17.2590   21.6970 C   0  0  0  0  0  0  0  0  0  0  0  0
   17.7750   17.4440   23.1490 C   0  0  0  0  0  0  0  0  0  0  0  0
   18.8160   17.8640   23.6440 O   0  0  0  0  0  0  0  0  0  0  0  0
   16.6840   17.1190   23.9130 N   0  0  0  0  0  0  0  0  0  0  0  0
   15.5030   16.6910   23.3920 C   0  0  0  0  0  0  0  0  0  0  0  0
   14.5080   16.4300   24.2750 N   0  0  0  0  0  0  0  0  0  0  0  0
   15.3120   16.5230   22.1240 N   0  0  0  0  0  0  0  0  0  0  0  0
   16.3730   16.8010   21.2400 C   0  0  0  0  0  0  0  0  0  0  0  0
   14.2057   15.8833   20.1551 H   0  0  0  0  0  0  0  0  0  0  0  0
   14.4163   16.9189   18.7026 H   0  0  0  0  0  0  0  0  0  0  0  0
   15.0397   15.2343   18.7026 H   0  0  0  0  0  0  0  0  0  0  0  0
   17.1066   16.7526   17.8927 H   0  0  0  0  0  0  0  0  0  0  0  0
   19.2989   17.5647   18.7511 H   0  0  0  0  0  0  0  0  0  0  0  0
   19.6309   17.8977   21.2058 H   0  0  0  0  0  0  0  0  0  0  0  0
   16.7690   17.2910   24.9010 H   0  0  0  0  0  0  0  0  0  0  0  0
   14.8050   15.7560   24.9740 H   0  0  0  0  0  0  0  0  0  0  0  0
   14.0580   17.2370   24.6860 H   0  0  0  0  0  0  0  0  0  0  0  0
  1  2  1  0
  2  3  2  0
  3  4  1  0
  4  5  2  0
  5  6  1  0
  6  7  1  0
  7  8  2  0
  7  9  1  0
  9 10  1  0
 10 11  1  0
 10 12  2  0
 12 13  1  0
 13  2  1  0
 13  6  2  0
  1 14  1  0
  1 15  1  0
  1 16  1  0
  3 17  1  0
  4 18  1  0
  5 19  1  0
  9 20  1  0
 11 21  1  0
 11 22  1  0
M  END
>  <meeko>  (1) 
{"is_sidechain": [false], "free_energy": -8.115, "intermolecular_energy": -8.352, "internal_energy": 0.0}

$$$$
1s38_ligand
     RDKit          3D

 22 23  0  0  0  0  0  0  0  0999 V2000
   17.7300   17.6740   16.3640 C   0  0  0  0  0  0  0  0  0  0  0  0
   17.7020   17.7180   17.8670 C   0  0  0  0  0  0  0  0  0  0  0  0
   18.6480   18.4880   18.5630 C   0  0  0  0  0  0  0  0  0  0  0  0
   18.6380   18.5450   19.9590 C   0  0  0  0  0  0  0  0  0  0  0  0
   17.6790   17.8320   20.6740 C   0  0  0  0  0  0  0  0  0  0  0  0
   16.7380   17.0650   19.9810 C   0  0  0  0  0  0  0  0  0  0  0  0
   15.7100   16.3010   20.7050 C   0  0  0  0  0  0  0  0  0  0  0  0
   15.6200   16.3190   21.9280 O   0  0  0  0  0  0  0  0  0  0  0  0
   14.8550   15.5680   19.9230 N   0  0  0  0  0  0  0  0  0  0  0  0
   14.9020   15.5590   18.5630 C   0  0  0  0  0  0  0  0  0  0  0  0
   13.9750   14.8010   17.9280 N   0  0  0  0  0  0  0  0  0  0  0  0
   15.7810   16.2230   17.8850 N   0  0  0  0  0  0  0  0  0  0  0  0
   16.7310   16.9940   18.5830 C   0  0  0  0  0  0  0  0  0  0  0  0
   18.2933   16.7888   16.0335 H   0  0  0  0  0  0  0  0  0  0  0  0
   16.7009   17.6183   15.9796 H   0  0  0  0  0  0  0  0  0  0  0  0
   18.2163   18.5827   15.9796 H   0  0  0  0  0  0  0  0  0  0  0  0
   19.4066   19.0535   18.0019 H   0  0  0  0  0  0  0  0  0  0  0  0
   19.3854   19.1513   20.4917 H   0  0  0  0  0  0  0  0  0  0  0  0
   17.6621   17.8720   21.7731 H   0  0  0  0  0  0  0  0  0  0  0  0
   14.1190   15.0820   20.4070 H   0  0  0  0  0  0  0  0  0  0  0  0
   13.2430   14.5040   18.5660 H   0  0  0  0  0  0  0  0  0  0  0  0
   13.6040   15.1840   17.0690 H   0  0  0  0  0  0  0  0  0  0  0  0
  1  2  1  0
  2  3  2  0
  3  4  1  0
  4  5  2  0
  5  6  1  0
  6  7  1  0
  7  8  2  0
  7  9  1  0
  9 10  1  0
 10 11  1  0
 10 12  2  0
 12 13  1  0
 13  2  1  0
 13  6  2  0
  1 14  1  0
  1 15  1  0
  1 16  1  0
  3 17  1  0
  4 18  1  0
  5 19  1  0
  9 20  1  0
 11 21  1  0
 11 22  1  0
M  END
>  <meeko>  (2) 
{"is_sidechain": [false], "free_energy": -6.317, "intermolecular_energy": -6.501, "internal_energy": 0.0}

$$$$
1s38_ligand
     RDKit          3D

 22 23  0  0  0  0  0  0  0  0999 V2000
   17.1490   16.7870   21.2170 C   0  0  0  0  0  0  0  0  0  0  0  0
   17.1720   17.1170   19.7500 C   0  0  0  0  0  0  0  0  0  0  0  0
   18.1640   17.9710   19.2390 C   0  0  0  0  0  0  0  0  0  0  0  0
   18.2060   18.2880   17.8800 C   0  0  0  0  0  0  0  0  0  0  0  0
   17.2550   17.7530   17.0150 C   0  0  0  0  0  0  0  0  0  0  0  0
   16.2680   16.9040   17.5230 C   0  0  0  0  0  0  0  0  0  0  0  0
   15.2480   16.3190   16.6360 C   0  0  0  0  0  0  0  0  0  0  0  0
   15.2330   16.5300   15.4290 O   0  0  0  0  0  0  0  0  0  0  0  0
   14.3180   15.5200   17.2490 N   0  0  0  0  0  0  0  0  0  0  0  0
   14.3330   15.2340   18.5790 C   0  0  0  0  0  0  0  0  0  0  0  0
   13.3570   14.4100   19.0340 N   0  0  0  0  0  0  0  0  0  0  0  0
   15.2140   15.7160   19.3940 N   0  0  0  0  0  0  0  0  0  0  0  0
   16.2080   16.5740   18.8820 C   0  0  0  0  0  0  0  0  0  0  0  0
   17.2137   17.7158   21.8028 H   0  0  0  0  0  0  0  0  0  0  0  0
   16.2122   16.2644   21.4606 H   0  0  0  0  0  0  0  0  0  0  0  0
   18.0042   16.1395   21.4606 H   0  0  0  0  0  0  0  0  0  0  0  0
   18.9175   18.3954   19.9188 H   0  0  0  0  0  0  0  0  0  0  0  0
   18.9880   18.9583   17.4938 H   0  0  0  0  0  0  0  0  0  0  0  0
   17.2803   17.9962   15.9425 H   0  0  0  0  0  0  0  0  0  0  0  0
   13.6480   15.0770   16.6430 H   0  0  0  0  0  0  0  0  0  0  0  0
   12.5460   14.4280   18.4230 H   0  0  0  0  0  0  0  0  0  0  0  0
   13.6450   13.4680   19.2630 H   0  0  0  0  0  0  0  0  0  0  0  0
  1  2  1  0
  2  3  2  0
  3  4  1  0
  4  5  2  0
  5  6  1  0
  6  7  1  0
  7  8  2  0
  7  9  1  0
  9 10  1  0
 10 11  1  0
 10 12  2  0
 12 13  1  0
 13  2  1  0
 13  6  2  0
  1 14  1  0
  1 15  1  0
  1 16  1  0
  3 17  1  0
  4 18  1  0
  5 19  1  0
  9 20  1  0
 11 21  1  0
 11 22  1  0
M  END
>  <meeko>  (3) 
{"is_sidechain": [false], "free_energy": -6.139, "intermolecular_energy": -6.319, "internal_energy": 0.0}

$$$$
1s38_ligand
     RDKit          3D

 22 23  0  0  0  0  0  0  0  0999 V2000
   13.7610   18.1800   15.6340 C   0  0  0  0  0  0  0  0  0  0  0  0
   13.2420   16.9460   16.3170 C   0  0  0  0  0  0  0  0  0  0  0  0
   11.9910   16.4170   15.9560 C   0  0  0  0  0  0  0  0  0  0  0  0
   11.4930   15.2700   16.5760 C   0  0  0  0  0  0  0  0  0  0  0  0
   12.2400   14.6360   17.5650 C   0  0  0  0  0  0  0  0  0  0  0  0
   13.4850   15.1620   17.9240 C   0  0  0  0  0  0  0  0  0  0  0  0
   14.3020   14.5170   18.9650 C   0  0  0  0  0  0  0  0  0  0  0  0
   13.9450   13.4930   19.5370 O   0  0  0  0  0  0  0  0  0  0  0  0
   15.4930   15.1340   19.2500 N   0  0  0  0  0  0  0  0  0  0  0  0
   15.9370   16.2450   18.6030 C   0  0  0  0  0  0  0  0  0  0  0  0
   17.1460   16.7270   18.9830 N   0  0  0  0  0  0  0  0  0  0  0  0
   15.2580   16.8400   17.6770 N   0  0  0  0  0  0  0  0  0  0  0  0
   14.0030   16.3110   17.3160 C   0  0  0  0  0  0  0  0  0  0  0  0
   14.0703   18.9155   16.3912 H   0  0  0  0  0  0  0  0  0  0  0  0
   14.6242   17.9156   15.0055 H   0  0  0  0  0  0  0  0  0  0  0  0
   12.9684   18.6120   15.0055 H   0  0  0  0  0  0  0  0  0  0  0  0
   11.3967   16.9133   15.1747 H   0  0  0  0  0  0  0  0  0  0  0  0
   10.5119   14.8676   16.2837 H   0  0  0  0  0  0  0  0  0  0  0  0
   11.8552   13.7314   18.0586 H   0  0  0  0  0  0  0  0  0  0  0  0
   16.0810   14.6710   19.9230 H   0  0  0  0  0  0  0  0  0  0  0  0
   17.6610   16.0410   19.5270 H   0  0  0  0  0  0  0  0  0  0  0  0
   17.7100   17.1360   18.2490 H   0  0  0  0  0  0  0  0  0  0  0  0
  1  2  1  0
  2  3  2  0
  3  4  1  0
  4  5  2  0
  5  6  1  0
  6  7  1  0
  7  8  2  0
  7  9  1  0
  9 10  1  0
 10 11  1  0
 10 12  2  0
 12 13  1  0
 13  2  1  0
 13  6  2  0
  1 14  1  0
  1 15  1  0
  1 16  1  0
  3 17  1  0
  4 18  1  0
  5 19  1  0
  9 20  1  0
 11 21  1  0
 11 22  1  0
M  END
>  <meeko>  (4) 
{"is_sidechain": [false], "free_energy": -6.109, "intermolecular_energy": -6.287, "internal_energy": 0.0}

$$$$
1s38_ligand
     RDKit          3D

 22 23  0  0  0  0  0  0  0  0999 V2000
   14.5220   15.6640   17.5280 C   0  0  0  0  0  0  0  0  0  0  0  0
   15.3840   16.1540   18.6570 C   0  0  0  0  0  0  0  0  0  0  0  0
   15.0800   15.7910   19.9800 C   0  0  0  0  0  0  0  0  0  0  0  0
   15.8710   16.2330   21.0430 C   0  0  0  0  0  0  0  0  0  0  0  0
   16.9750   17.0430   20.7950 C   0  0  0  0  0  0  0  0  0  0  0  0
   17.2770   17.4050   19.4790 C   0  0  0  0  0  0  0  0  0  0  0  0
   18.4390   18.2590   19.1810 C   0  0  0  0  0  0  0  0  0  0  0  0
   19.1940   18.6660   20.0560 O   0  0  0  0  0  0  0  0  0  0  0  0
   18.6240   18.5660   17.8580 N   0  0  0  0  0  0  0  0  0  0  0  0
   17.8290   18.0960   16.8590 C   0  0  0  0  0  0  0  0  0  0  0  0
   18.1520   18.4720   15.5970 N   0  0  0  0  0  0  0  0  0  0  0  0
   16.8040   17.3360   17.0720 N   0  0  0  0  0  0  0  0  0  0  0  0
   16.4990   16.9740   18.3990 C   0  0  0  0  0  0  0  0  0  0  0  0
   13.6342   15.1593   17.9369 H   0  0  0  0  0  0  0  0  0  0  0  0
   14.2065   16.5178   16.9103 H   0  0  0  0  0  0  0  0  0  0  0  0
   15.0942   14.9562   16.9103 H   0  0  0  0  0  0  0  0  0  0  0  0
   14.2083   15.1509   20.1810 H   0  0  0  0  0  0  0  0  0  0  0  0
   15.6218   15.9414   22.0740 H   0  0  0  0  0  0  0  0  0  0  0  0
   17.6037   17.3949   21.6262 H   0  0  0  0  0  0  0  0  0  0  0  0
   19.4440   19.1080   17.6400 H   0  0  0  0  0  0  0  0  0  0  0  0
   17.3540   18.3960   14.9740 H   0  0  0  0  0  0  0  0  0  0  0  0
   18.6260   19.3610   15.5070 H   0  0  0  0  0  0  0  0  0  0  0  0
  1  2  1  0
  2  3  2  0
  3  4  1  0
  4  5  2  0
  5  6  1  0
  6  7  1  0
  7  8  2  0
  7  9  1  0
  9 10  1  0
 10 11  1  0
 10 12  2  0
 12 13  1  0
 13  2  1  0
 13  6  2  0
  1 14  1  0
  1 15  1  0
  1 16  1  0
  3 17  1  0
  4 18  1  0
  5 19  1  0
  9 20  1  0
 11 21  1  0
 11 22  1  0
M  END
>  <meeko>  (5) 
{"is_sidechain": [false], "free_energy": -6.001, "intermolecular_energy": -6.176, "internal_energy": 0.0}

$$$$
1s38_ligand
     RDKit          3D

 22 23  0  0  0  0  0  0  0  0999 V2000
   15.6390   17.8090   15.6780 C   0  0  0  0  0  0  0  0  0  0  0  0
   14.2350   17.9890   15.1730 C   0  0  0  0  0  0  0  0  0  0  0  0
   13.9940   18.7820   14.0380 C   0  0  0  0  0  0  0  0  0  0  0  0
   12.6980   18.9600   13.5500 C   0  0  0  0  0  0  0  0  0  0  0  0
   11.6260   18.3460   14.1920 C   0  0  0  0  0  0  0  0  0  0  0  0
   11.8650   17.5580   15.3210 C   0  0  0  0  0  0  0  0  0  0  0  0
   10.7550   16.8920   16.0230 C   0  0  0  0  0  0  0  0  0  0  0  0
    9.5930   16.9800   15.6420 O   0  0  0  0  0  0  0  0  0  0  0  0
   11.1060   16.1640   17.1300 N   0  0  0  0  0  0  0  0  0  0  0  0
   12.3900   16.0130   17.5540 C   0  0  0  0  0  0  0  0  0  0  0  0
   12.5800   15.2430   18.6540 N   0  0  0  0  0  0  0  0  0  0  0  0
   13.3970   16.5700   16.9640 N   0  0  0  0  0  0  0  0  0  0  0  0
   13.1560   17.3660   15.8270 C   0  0  0  0  0  0  0  0  0  0  0  0
   15.6359   17.8094   16.7780 H   0  0  0  0  0  0  0  0  0  0  0  0
   16.0402   16.8521   15.3128 H   0  0  0  0  0  0  0  0  0  0  0  0
   16.2686   18.6338   15.3128 H   0  0  0  0  0  0  0  0  0  0  0  0
   14.8378   19.2690   13.5272 H   0  0  0  0  0  0  0  0  0  0  0  0
   12.5244   19.5837   12.6607 H   0  0  0  0  0  0  0  0  0  0  0  0
   10.6015   18.4798   13.8144 H   0  0  0  0  0  0  0  0  0  0  0  0
   10.3600   15.6650   17.5860 H   0  0  0  0  0  0  0  0  0  0  0  0
   13.5480   15.2730   18.9610 H   0  0  0  0  0  0  0  0  0  0  0  0
   11.9310   15.3920   19.4160 H   0  0  0  0  0  0  0  0  0  0  0  0
  1  2  1  0
  2  3  2  0
  3  4  1  0
  4  5  2  0
  5  6  1  0
  6  7  1  0
  7  8  2  0
  7  9  1  0
  9 10  1  0
 10 11  1  0
 10 12  2  0
 12 13  1  0
 13  2  1  0
 13  6  2  0
  1 14  1  0
  1 15  1  0
  1 16  1  0
  3 17  1  0
  4 18  1  0
  5 19  1  0
  9 20  1  0
 11 21  1  0
 11 22  1  0
M  END
>  <meeko>  (6) 
{"is_sidechain": [false], "free_energy": -5.72, "intermolecular_energy": -5.887, "internal_energy": 0.0}

$$$$
1s38_ligand
     RDKit          3D

 22 23  0  0  0  0  0  0  0  0999 V2000
   11.2160   15.4110   15.8880 C   0  0  0  0  0  0  0  0  0  0  0  0
   12.5020   16.1840   15.9760 C   0  0  0  0  0  0  0  0  0  0  0  0
   12.7610   17.2200   15.0630 C   0  0  0  0  0  0  0  0  0  0  0  0
   13.9480   17.9530   15.1300 C   0  0  0  0  0  0  0  0  0  0  0  0
   14.8900   17.6590   16.1120 C   0  0  0  0  0  0  0  0  0  0  0  0
   14.6320   16.6280   17.0200 C   0  0  0  0  0  0  0  0  0  0  0  0
   15.6050   16.2910   18.0730 C   0  0  0  0  0  0  0  0  0  0  0  0
   16.6580   16.9040   18.2120 O   0  0  0  0  0  0  0  0  0  0  0  0
   15.2550   15.2480   18.8910 N   0  0  0  0  0  0  0  0  0  0  0  0
   14.0770   14.5750   18.7890 C   0  0  0  0  0  0  0  0  0  0  0  0
   13.8650   13.5810   19.6860 N   0  0  0  0  0  0  0  0  0  0  0  0
   13.1890   14.8430   17.8880 N   0  0  0  0  0  0  0  0  0  0  0  0
   13.4500   15.8800   16.9710 C   0  0  0  0  0  0  0  0  0  0  0  0
   10.8502   15.1911   16.9018 H   0  0  0  0  0  0  0  0  0  0  0  0
   10.4656   16.0078   15.3489 H   0  0  0  0  0  0  0  0  0  0  0  0
   11.3910   14.4683   15.3489 H   0  0  0  0  0  0  0  0  0  0  0  0
   12.0196   17.4568   14.2856 H   0  0  0  0  0  0  0  0  0  0  0  0
   14.1382   18.7610   14.4083 H   0  0  0  0  0  0  0  0  0  0  0  0
   15.8271   18.2318   16.1727 H   0  0  0  0  0  0  0  0  0  0  0  0
   15.8910   15.0440   19.6440 H   0  0  0  0  0  0  0  0  0  0  0  0
   13.8830   13.9340   20.6380 H   0  0  0  0  0  0  0  0  0  0  0  0
   13.0640   12.9890   19.5100 H   0  0  0  0  0  0  0  0  0  0  0  0
  1  2  1  0
  2  3  2  0
  3  4  1  0
  4  5  2  0
  5  6  1  0
  6  7  1  0
  7  8  2  0
  7  9  1  0
  9 10  1  0
 10 11  1  0
 10 12  2  0
 12 13  1  0
 13  2  1  0
 13  6  2  0
  1 14  1  0
  1 15  1  0
  1 16  1  0
  3 17  1  0
  4 18  1  0
  5 19  1  0
  9 20  1  0
 11 21  1  0
 11 22  1  0
M  END
>  <meeko>  (7) 
{"is_sidechain": [false], "free_energy": -5.703, "intermolecular_energy": -5.87, "internal_energy": 0.0}

$$$$
1s38_ligand
     RDKit          3D

 22 23  0  0  0  0  0  0  0  0999 V2000
   18.2030   18.2090   17.8090 C   0  0  0  0  0  0  0  0  0  0  0  0
   17.2950   17.4360   18.7250 C   0  0  0  0  0  0  0  0  0  0  0  0
   17.5050   17.4710   20.1130 C   0  0  0  0  0  0  0  0  0  0  0  0
   16.6720   16.7640   20.9820 C   0  0  0  0  0  0  0  0  0  0  0  0
   15.6170   16.0130   20.4710 C   0  0  0  0  0  0  0  0  0  0  0  0
   15.4080   15.9770   19.0890 C   0  0  0  0  0  0  0  0  0  0  0  0
   14.3010   15.1950   18.5150 C   0  0  0  0  0  0  0  0  0  0  0  0
   13.5120   14.5670   19.2130 O   0  0  0  0  0  0  0  0  0  0  0  0
   14.2080   15.2160   17.1470 N   0  0  0  0  0  0  0  0  0  0  0  0
   15.0410   15.9360   16.3480 C   0  0  0  0  0  0  0  0  0  0  0  0
   14.8080   15.8730   15.0140 N   0  0  0  0  0  0  0  0  0  0  0  0
   16.0200   16.6450   16.8090 N   0  0  0  0  0  0  0  0  0  0  0  0
   16.2310   16.6780   18.2010 C   0  0  0  0  0  0  0  0  0  0  0  0
   18.9055   18.8070   18.4081 H   0  0  0  0  0  0  0  0  0  0  0  0
   18.7661   17.5088   17.1744 H   0  0  0  0  0  0  0  0  0  0  0  0
   17.6017   18.8766   17.1744 H   0  0  0  0  0  0  0  0  0  0  0  0
   18.3371   18.0635   20.5211 H   0  0  0  0  0  0  0  0  0  0  0  0
   16.8487   16.8002   22.0671 H   0  0  0  0  0  0  0  0  0  0  0  0
   14.9544   15.4535   21.1478 H   0  0  0  0  0  0  0  0  0  0  0  0
   13.4240   14.7250   16.7500 H   0  0  0  0  0  0  0  0  0  0  0  0
   14.3200   16.7010   14.6870 H   0  0  0  0  0  0  0  0  0  0  0  0
   15.6050   15.6430   14.4360 H   0  0  0  0  0  0  0  0  0  0  0  0
  1  2  1  0
  2  3  2  0
  3  4  1  0
  4  5  2  0
  5  6  1  0
  6  7  1  0
  7  8  2  0
  7  9  1  0
  9 10  1  0
 10 11  1  0
 10 12  2  0
 12 13  1  0
 13  2  1  0
 13  6  2  0
  1 14  1  0
  1 15  1  0
  1 16  1  0
  3 17  1  0
  4 18  1  0
  5 19  1  0
  9 20  1  0
 11 21  1  0
 11 22  1  0
M  END
>  <meeko>  (8) 
{"is_sidechain": [false], "free_energy": -5.692, "intermolecular_energy": -5.858, "internal_energy": 0.0}

$$$$
1s38_ligand
     RDKit          3D

 22 23  0  0  0  0  0  0  0  0999 V2000
   16.6720   17.6530   16.4280 C   0  0  0  0  0  0  0  0  0  0  0  0
   15.2310   17.4630   16.0440 C   0  0  0  0  0  0  0  0  0  0  0  0
   14.6520   18.2880   15.0660 C   0  0  0  0  0  0  0  0  0  0  0  0
   13.3160   18.1270   14.6920 C   0  0  0  0  0  0  0  0  0  0  0  0
   12.5440   17.1360   15.2920 C   0  0  0  0  0  0  0  0  0  0  0  0
   13.1200   16.3150   16.2660 C   0  0  0  0  0  0  0  0  0  0  0  0
   12.3330   15.2570   16.9200 C   0  0  0  0  0  0  0  0  0  0  0  0
   11.1620   15.0370   16.6290 O   0  0  0  0  0  0  0  0  0  0  0  0
   12.9960   14.5300   17.8750 N   0  0  0  0  0  0  0  0  0  0  0  0
   14.3050   14.7220   18.1910 C   0  0  0  0  0  0  0  0  0  0  0  0
   14.8260   13.9080   19.1420 N   0  0  0  0  0  0  0  0  0  0  0  0
   15.0370   15.6320   17.6360 N   0  0  0  0  0  0  0  0  0  0  0  0
   14.4560   16.4600   16.6560 C   0  0  0  0  0  0  0  0  0  0  0  0
   16.7608   17.6647   17.5243 H   0  0  0  0  0  0  0  0  0  0  0  0
   17.2722   16.8262   16.0203 H   0  0  0  0  0  0  0  0  0  0  0  0
   17.0374   18.6071   16.0203 H   0  0  0  0  0  0  0  0  0  0  0  0
   15.2587   19.0713   14.5882 H   0  0  0  0  0  0  0  0  0  0  0  0
   12.8751   18.7813   13.9256 H   0  0  0  0  0  0  0  0  0  0  0  0
   11.4914   17.0003   15.0027 H   0  0  0  0  0  0  0  0  0  0  0  0
   12.4800   13.7720   18.2910 H   0  0  0  0  0  0  0  0  0  0  0  0
   14.8230   14.3580   20.0530 H   0  0  0  0  0  0  0  0  0  0  0  0
   14.4510   12.9700   19.1760 H   0  0  0  0  0  0  0  0  0  0  0  0
  1  2  1  0
  2  3  2  0
  3  4  1  0
  4  5  2  0
  5  6  1  0
  6  7  1  0
  7  8  2  0
  7  9  1  0
  9 10  1  0
 10 11  1  0
 10 12  2  0
 12 13  1  0
 13  2  1  0
 13  6  2  0
  1 14  1  0
  1 15  1  0
  1 16  1  0
  3 17  1  0
  4 18  1  0
  5 19  1  0
  9 20  1  0
 11 21  1  0
 11 22  1  0
M  END
>  <meeko>  (9) 
{"is_sidechain": [false], "free_energy": -5.615, "intermolecular_energy": -5.78, "internal_energy": 0.0}

$$$$
