4ddk_ligand
     RDKit          3D

 17 18  0  0  0  0  0  0  0  0999 V2000
  -15.6230   -0.0960    0.4360 O   0  0  0  0  0  0  0  0  0  0  0  0
  -15.9970   -0.6330    1.5260 C   0  0  0  0  0  0  0  0  0  0  0  0
  -17.1760   -1.0200    1.8000 O   0  0  0  0  0  0  0  0  0  0  0  0
  -14.9390   -0.8290    2.5960 C   0  0  0  0  0  0  0  0  0  0  0  0
  -15.2830   -0.7560    3.9690 C   0  0  0  0  0  0  0  0  0  0  0  0
  -14.3240   -0.9340    4.9720 C   0  0  0  0  0  0  0  0  0  0  0  0
  -13.0280   -1.1830    4.5780 C   0  0  0  0  0  0  0  0  0  0  0  0
  -12.6760   -1.2580    3.2500 C   0  0  0  0  0  0  0  0  0  0  0  0
  -13.6020   -1.0870    2.2420 C   0  0  0  0  0  0  0  0  0  0  0  0
  -11.3500   -1.5120    3.0800 O   0  0  0  0  0  0  0  0  0  0  0  0
  -10.9140   -1.5870    4.4490 C   0  0  0  0  0  0  0  0  0  0  0  0
  -11.9690   -1.3810    5.4100 O   0  0  0  0  0  0  0  0  0  0  0  0
  -16.3267   -0.5550    4.2522 H   0  0  0  0  0  0  0  0  0  0  0  0
  -14.5952   -0.8771    6.0365 H   0  0  0  0  0  0  0  0  0  0  0  0
  -13.3020   -1.1509    1.1856 H   0  0  0  0  0  0  0  0  0  0  0  0
  -10.4793   -2.5829    4.6200 H   0  0  0  0  0  0  0  0  0  0  0  0
  -10.1847   -0.7769    4.5968 H   0  0  0  0  0  0  0  0  0  0  0  0
  1  2  2  0
  2  3  1  0
  2  4  1  0
  4  5  2  0
  5  6  1  0
  6  7  2  0
  7  8  1  0
  8  9  2  0
  8 10  1  0
 10 11  1  0
 11 12  1  0
  9  4  1  0
 12  7  1  0
  5 13  1  0
  6 14  1  0
  9 15  1  0
 11 16  1  0
 11 17  1  0
M  CHG  1   3  -1
M  END
>  <meeko>  (1) 
{"is_sidechain": [false], "free_energy": -6.328, "intermolecular_energy": -6.698, "internal_energy": -0.055}

$$$$
4ddk_ligand
     RDKit          3D

 17 18  0  0  0  0  0  0  0  0999 V2000
  -14.6480   -1.0660    5.6050 O   0  0  0  0  0  0  0  0  0  0  0  0
  -13.6520   -1.0800    4.8140 C   0  0  0  0  0  0  0  0  0  0  0  0
  -12.4350   -1.2210    5.1530 O   0  0  0  0  0  0  0  0  0  0  0  0
  -13.9430   -0.9150    3.3350 C   0  0  0  0  0  0  0  0  0  0  0  0
  -12.8830   -0.8380    2.3970 C   0  0  0  0  0  0  0  0  0  0  0  0
  -13.1280   -0.6850    1.0280 C   0  0  0  0  0  0  0  0  0  0  0  0
  -14.4410   -0.6130    0.6200 C   0  0  0  0  0  0  0  0  0  0  0  0
  -15.4830   -0.6870    1.5160 C   0  0  0  0  0  0  0  0  0  0  0  0
  -15.2690   -0.8370    2.8700 C   0  0  0  0  0  0  0  0  0  0  0  0
  -16.6970   -0.5950    0.9060 O   0  0  0  0  0  0  0  0  0  0  0  0
  -16.2960   -0.4560   -0.4690 C   0  0  0  0  0  0  0  0  0  0  0  0
  -14.8670   -0.4660   -0.6640 O   0  0  0  0  0  0  0  0  0  0  0  0
  -11.8442   -0.8999    2.7535 H   0  0  0  0  0  0  0  0  0  0  0  0
  -12.3019   -0.6245    0.3042 H   0  0  0  0  0  0  0  0  0  0  0  0
  -16.1152   -0.8944    3.5705 H   0  0  0  0  0  0  0  0  0  0  0  0
  -16.7298   -1.2885   -1.0423 H   0  0  0  0  0  0  0  0  0  0  0  0
  -16.6583    0.5250   -0.8101 H   0  0  0  0  0  0  0  0  0  0  0  0
  1  2  2  0
  2  3  1  0
  2  4  1  0
  4  5  2  0
  5  6  1  0
  6  7  2  0
  7  8  1  0
  8  9  2  0
  8 10  1  0
 10 11  1  0
 11 12  1  0
  9  4  1  0
 12  7  1  0
  5 13  1  0
  6 14  1  0
  9 15  1  0
 11 16  1  0
 11 17  1  0
M  CHG  1   3  -1
M  END
>  <meeko>  (2) 
{"is_sidechain": [false], "free_energy": -6.325, "intermolecular_energy": -6.692, "internal_energy": -0.058}

$$$$
4ddk_ligand
     RDKit          3D

 17 18  0  0  0  0  0  0  0  0999 V2000
  -12.5060   -1.2620    5.0550 O   0  0  0  0  0  0  0  0  0  0  0  0
  -13.7300   -1.0370    4.7940 C   0  0  0  0  0  0  0  0  0  0  0  0
  -14.6410   -0.7980    5.6470 O   0  0  0  0  0  0  0  0  0  0  0  0
  -14.1380   -1.0540    3.3330 C   0  0  0  0  0  0  0  0  0  0  0  0
  -15.4650   -0.7340    2.9540 C   0  0  0  0  0  0  0  0  0  0  0  0
  -15.8640   -0.7440    1.6130 C   0  0  0  0  0  0  0  0  0  0  0  0
  -14.9180   -1.0760    0.6690 C   0  0  0  0  0  0  0  0  0  0  0  0
  -13.6240   -1.3890    1.0190 C   0  0  0  0  0  0  0  0  0  0  0  0
  -13.2060   -1.3870    2.3330 C   0  0  0  0  0  0  0  0  0  0  0  0
  -12.8530   -1.6880   -0.0630 O   0  0  0  0  0  0  0  0  0  0  0  0
  -13.8100   -1.5260   -1.1260 C   0  0  0  0  0  0  0  0  0  0  0  0
  -15.1240   -1.1380   -0.6750 O   0  0  0  0  0  0  0  0  0  0  0  0
  -16.1979   -0.4719    3.7312 H   0  0  0  0  0  0  0  0  0  0  0  0
  -16.8957   -0.4957    1.3233 H   0  0  0  0  0  0  0  0  0  0  0  0
  -12.1676   -1.6400    2.5934 H   0  0  0  0  0  0  0  0  0  0  0  0
  -13.4370   -0.7521   -1.8129 H   0  0  0  0  0  0  0  0  0  0  0  0
  -13.9160   -2.5068   -1.6126 H   0  0  0  0  0  0  0  0  0  0  0  0
  1  2  2  0
  2  3  1  0
  2  4  1  0
  4  5  2  0
  5  6  1  0
  6  7  2  0
  7  8  1  0
  8  9  2  0
  8 10  1  0
 10 11  1  0
 11 12  1  0
  9  4  1  0
 12  7  1  0
  5 13  1  0
  6 14  1  0
  9 15  1  0
 11 16  1  0
 11 17  1  0
M  CHG  1   3  -1
M  END
>  <meeko>  (3) 
{"is_sidechain": [false], "free_energy": -6.292, "intermolecular_energy": -6.657, "internal_energy": -0.058}

$$$$
4ddk_ligand
     RDKit          3D

 17 18  0  0  0  0  0  0  0  0999 V2000
  -11.0780   -1.6470    3.8940 O   0  0  0  0  0  0  0  0  0  0  0  0
  -12.2760   -1.3210    4.1690 C   0  0  0  0  0  0  0  0  0  0  0  0
  -12.7580   -1.1680    5.3360 O   0  0  0  0  0  0  0  0  0  0  0  0
  -13.2150   -1.0940    2.9990 C   0  0  0  0  0  0  0  0  0  0  0  0
  -12.7030   -0.9400    1.6860 C   0  0  0  0  0  0  0  0  0  0  0  0
  -13.5500   -0.7300    0.5920 C   0  0  0  0  0  0  0  0  0  0  0  0
  -14.9040   -0.6780    0.8360 C   0  0  0  0  0  0  0  0  0  0  0  0
  -15.4190   -0.8270    2.1040 C   0  0  0  0  0  0  0  0  0  0  0  0
  -14.6070   -1.0340    3.1980 C   0  0  0  0  0  0  0  0  0  0  0  0
  -16.7780   -0.7420    2.1240 O   0  0  0  0  0  0  0  0  0  0  0  0
  -17.0530   -0.5260    0.7280 C   0  0  0  0  0  0  0  0  0  0  0  0
  -15.8730   -0.4830   -0.1000 O   0  0  0  0  0  0  0  0  0  0  0  0
  -11.6161   -0.9866    1.5236 H   0  0  0  0  0  0  0  0  0  0  0  0
  -13.1488   -0.6109   -0.4253 H   0  0  0  0  0  0  0  0  0  0  0  0
  -15.0370   -1.1497    4.2039 H   0  0  0  0  0  0  0  0  0  0  0  0
  -17.6969   -1.3434    0.3713 H   0  0  0  0  0  0  0  0  0  0  0  0
  -17.5365    0.4587    0.6463 H   0  0  0  0  0  0  0  0  0  0  0  0
  1  2  2  0
  2  3  1  0
  2  4  1  0
  4  5  2  0
  5  6  1  0
  6  7  2  0
  7  8  1  0
  8  9  2  0
  8 10  1  0
 10 11  1  0
 11 12  1  0
  9  4  1  0
 12  7  1  0
  5 13  1  0
  6 14  1  0
  9 15  1  0
 11 16  1  0
 11 17  1  0
M  CHG  1   3  -1
M  END
>  <meeko>  (4) 
{"is_sidechain": [false], "free_energy": -6.09, "intermolecular_energy": -6.444, "internal_energy": -0.058}

$$$$
4ddk_ligand
     RDKit          3D

 17 18  0  0  0  0  0  0  0  0999 V2000
  -17.7380   -1.0780    1.7370 O   0  0  0  0  0  0  0  0  0  0  0  0
  -16.7920   -0.3890    1.2410 C   0  0  0  0  0  0  0  0  0  0  0  0
  -16.9060    0.4810    0.3210 O   0  0  0  0  0  0  0  0  0  0  0  0
  -15.4000   -0.6280    1.7960 C   0  0  0  0  0  0  0  0  0  0  0  0
  -14.2750   -0.6480    0.9350 C   0  0  0  0  0  0  0  0  0  0  0  0
  -12.9830   -0.8660    1.4240 C   0  0  0  0  0  0  0  0  0  0  0  0
  -12.8410   -1.0620    2.7800 C   0  0  0  0  0  0  0  0  0  0  0  0
  -13.9220   -1.0450    3.6320 C   0  0  0  0  0  0  0  0  0  0  0  0
  -15.2040   -0.8320    3.1750 C   0  0  0  0  0  0  0  0  0  0  0  0
  -13.5620   -1.2590    4.9280 O   0  0  0  0  0  0  0  0  0  0  0  0
  -12.1380   -1.4100    4.7890 C   0  0  0  0  0  0  0  0  0  0  0  0
  -11.6670   -1.2870    3.4320 O   0  0  0  0  0  0  0  0  0  0  0  0
  -14.4212   -0.4883   -0.1435 H   0  0  0  0  0  0  0  0  0  0  0  0
  -12.1130   -0.8804    0.7511 H   0  0  0  0  0  0  0  0  0  0  0  0
  -16.0551   -0.8216    3.8718 H   0  0  0  0  0  0  0  0  0  0  0  0
  -11.6467   -0.6365    5.3975 H   0  0  0  0  0  0  0  0  0  0  0  0
  -11.8911   -2.4291    5.1214 H   0  0  0  0  0  0  0  0  0  0  0  0
  1  2  2  0
  2  3  1  0
  2  4  1  0
  4  5  2  0
  5  6  1  0
  6  7  2  0
  7  8  1  0
  8  9  2  0
  8 10  1  0
 10 11  1  0
 11 12  1  0
  9  4  1  0
 12  7  1  0
  5 13  1  0
  6 14  1  0
  9 15  1  0
 11 16  1  0
 11 17  1  0
M  CHG  1   3  -1
M  END
>  <meeko>  (5) 
{"is_sidechain": [false], "free_energy": -6.029, "intermolecular_energy": -6.383, "internal_energy": -0.053}

$$$$
4ddk_ligand
     RDKit          3D

 17 18  0  0  0  0  0  0  0  0999 V2000
  -11.2050   -1.1940    5.7810 O   0  0  0  0  0  0  0  0  0  0  0  0
  -11.3500   -1.5090    4.5580 C   0  0  0  0  0  0  0  0  0  0  0  0
  -10.4610   -2.0270    3.8110 O   0  0  0  0  0  0  0  0  0  0  0  0
  -12.7070   -1.2420    3.9340 C   0  0  0  0  0  0  0  0  0  0  0  0
  -13.8580   -1.1010    4.7480 C   0  0  0  0  0  0  0  0  0  0  0  0
  -15.1190   -0.8550    4.1950 C   0  0  0  0  0  0  0  0  0  0  0  0
  -15.2050   -0.7540    2.8240 C   0  0  0  0  0  0  0  0  0  0  0  0
  -14.0980   -0.8880    2.0170 C   0  0  0  0  0  0  0  0  0  0  0  0
  -12.8440   -1.1310    2.5380 C   0  0  0  0  0  0  0  0  0  0  0  0
  -14.4010   -0.7550    0.6970 O   0  0  0  0  0  0  0  0  0  0  0  0
  -15.8190   -0.5220    0.7700 C   0  0  0  0  0  0  0  0  0  0  0  0
  -16.3420   -0.5190    2.1140 O   0  0  0  0  0  0  0  0  0  0  0  0
  -13.7576   -1.1870    5.8400 H   0  0  0  0  0  0  0  0  0  0  0  0
  -16.0094   -0.7462    4.8317 H   0  0  0  0  0  0  0  0  0  0  0  0
  -11.9709   -1.2356    1.8771 H   0  0  0  0  0  0  0  0  0  0  0  0
  -16.0335    0.4552    0.3127 H   0  0  0  0  0  0  0  0  0  0  0  0
  -16.3070   -1.3528    0.2392 H   0  0  0  0  0  0  0  0  0  0  0  0
  1  2  2  0
  2  3  1  0
  2  4  1  0
  4  5  2  0
  5  6  1  0
  6  7  2  0
  7  8  1  0
  8  9  2  0
  8 10  1  0
 10 11  1  0
 11 12  1  0
  9  4  1  0
 12  7  1  0
  5 13  1  0
  6 14  1  0
  9 15  1  0
 11 16  1  0
 11 17  1  0
M  CHG  1   3  -1
M  END
>  <meeko>  (6) 
{"is_sidechain": [false], "free_energy": -5.784, "intermolecular_energy": -6.12, "internal_energy": -0.057}

$$$$
4ddk_ligand
     RDKit          3D

 17 18  0  0  0  0  0  0  0  0999 V2000
  -15.5340   -0.9390   -0.7540 O   0  0  0  0  0  0  0  0  0  0  0  0
  -14.3080   -0.9840   -0.4210 C   0  0  0  0  0  0  0  0  0  0  0  0
  -13.3200   -1.0300   -1.2210 O   0  0  0  0  0  0  0  0  0  0  0  0
  -13.9950   -0.9810    1.0630 C   0  0  0  0  0  0  0  0  0  0  0  0
  -12.6650   -1.1600    1.5180 C   0  0  0  0  0  0  0  0  0  0  0  0
  -12.3530   -1.1620    2.8820 C   0  0  0  0  0  0  0  0  0  0  0  0
  -13.3890   -0.9810    3.7720 C   0  0  0  0  0  0  0  0  0  0  0  0
  -14.6860   -0.8040    3.3490 C   0  0  0  0  0  0  0  0  0  0  0  0
  -15.0190   -0.7990    2.0110 C   0  0  0  0  0  0  0  0  0  0  0  0
  -15.5520   -0.6440    4.3870 O   0  0  0  0  0  0  0  0  0  0  0  0
  -14.6500   -0.7400    5.5040 C   0  0  0  0  0  0  0  0  0  0  0  0
  -13.2750   -0.9530    5.1280 O   0  0  0  0  0  0  0  0  0  0  0  0
  -11.8595   -1.3006    0.7822 H   0  0  0  0  0  0  0  0  0  0  0  0
  -11.3193   -1.3028    3.2307 H   0  0  0  0  0  0  0  0  0  0  0  0
  -16.0619   -0.6559    1.6917 H   0  0  0  0  0  0  0  0  0  0  0  0
  -14.7107    0.1955    6.0795 H   0  0  0  0  0  0  0  0  0  0  0  0
  -14.9602   -1.6176    6.0902 H   0  0  0  0  0  0  0  0  0  0  0  0
  1  2  2  0
  2  3  1  0
  2  4  1  0
  4  5  2  0
  5  6  1  0
  6  7  2  0
  7  8  1  0
  8  9  2  0
  8 10  1  0
 10 11  1  0
 11 12  1  0
  9  4  1  0
 12  7  1  0
  5 13  1  0
  6 14  1  0
  9 15  1  0
 11 16  1  0
 11 17  1  0
M  CHG  1   3  -1
M  END
>  <meeko>  (7) 
{"is_sidechain": [false], "free_energy": -5.784, "intermolecular_energy": -6.119, "internal_energy": -0.058}

$$$$
4ddk_ligand
     RDKit          3D

 17 18  0  0  0  0  0  0  0  0999 V2000
  -11.4810   -1.1050    2.6650 O   0  0  0  0  0  0  0  0  0  0  0  0
  -12.6030   -1.3370    3.2180 C   0  0  0  0  0  0  0  0  0  0  0  0
  -12.7750   -1.7640    4.4030 O   0  0  0  0  0  0  0  0  0  0  0  0
  -13.8470   -1.0810    2.3880 C   0  0  0  0  0  0  0  0  0  0  0  0
  -15.1150   -0.9690    3.0100 C   0  0  0  0  0  0  0  0  0  0  0  0
  -16.2760   -0.7340    2.2650 C   0  0  0  0  0  0  0  0  0  0  0  0
  -16.1430   -0.6120    0.9000 C   0  0  0  0  0  0  0  0  0  0  0  0
  -14.9190   -0.7170    0.2790 C   0  0  0  0  0  0  0  0  0  0  0  0
  -13.7610   -0.9500    0.9900 C   0  0  0  0  0  0  0  0  0  0  0  0
  -15.0090   -0.5680   -1.0710 O   0  0  0  0  0  0  0  0  0  0  0  0
  -16.4250   -0.3570   -1.2230 C   0  0  0  0  0  0  0  0  0  0  0  0
  -17.1550   -0.3830    0.0200 O   0  0  0  0  0  0  0  0  0  0  0  0
  -15.1885   -1.0690    4.1030 H   0  0  0  0  0  0  0  0  0  0  0  0
  -17.2587   -0.6498    2.7520 H   0  0  0  0  0  0  0  0  0  0  0  0
  -12.7920   -1.0316    0.4759 H   0  0  0  0  0  0  0  0  0  0  0  0
  -16.5805    0.6240   -1.6958 H   0  0  0  0  0  0  0  0  0  0  0  0
  -16.8079   -1.1860   -1.8362 H   0  0  0  0  0  0  0  0  0  0  0  0
  1  2  2  0
  2  3  1  0
  2  4  1  0
  4  5  2  0
  5  6  1  0
  6  7  2  0
  7  8  1  0
  8  9  2  0
  8 10  1  0
 10 11  1  0
 11 12  1  0
  9  4  1  0
 12  7  1  0
  5 13  1  0
  6 14  1  0
  9 15  1  0
 11 16  1  0
 11 17  1  0
M  CHG  1   3  -1
M  END
>  <meeko>  (8) 
{"is_sidechain": [false], "free_energy": -5.163, "intermolecular_energy": -5.463, "internal_energy": -0.057}

$$$$
4ddk_ligand
     RDKit          3D

 17 18  0  0  0  0  0  0  0  0999 V2000
  -13.5090   -1.9840   -1.1480 O   0  0  0  0  0  0  0  0  0  0  0  0
  -14.0890   -2.6980   -0.2700 C   0  0  0  0  0  0  0  0  0  0  0  0
  -14.4170   -3.9190   -0.4000 O   0  0  0  0  0  0  0  0  0  0  0  0
  -14.4200   -2.0310    1.0520 C   0  0  0  0  0  0  0  0  0  0  0  0
  -15.6560   -1.3620    1.2300 C   0  0  0  0  0  0  0  0  0  0  0  0
  -15.9820   -0.7400    2.4400 C   0  0  0  0  0  0  0  0  0  0  0  0
  -15.0560   -0.8010    3.4580 C   0  0  0  0  0  0  0  0  0  0  0  0
  -13.8510   -1.4470    3.3030 C   0  0  0  0  0  0  0  0  0  0  0  0
  -13.5060   -2.0670    2.1210 C   0  0  0  0  0  0  0  0  0  0  0  0
  -13.0850   -1.3890    4.4270 O   0  0  0  0  0  0  0  0  0  0  0  0
  -13.9470   -0.6360    5.2990 C   0  0  0  0  0  0  0  0  0  0  0  0
  -15.2000   -0.2560    4.6970 O   0  0  0  0  0  0  0  0  0  0  0  0
  -16.3753   -1.3309    0.3984 H   0  0  0  0  0  0  0  0  0  0  0  0
  -16.9427   -0.2212    2.5736 H   0  0  0  0  0  0  0  0  0  0  0  0
  -12.5378   -2.5784    2.0160 H   0  0  0  0  0  0  0  0  0  0  0  0
  -14.1613   -1.2484    6.1873 H   0  0  0  0  0  0  0  0  0  0  0  0
  -13.4162    0.2954    5.5457 H   0  0  0  0  0  0  0  0  0  0  0  0
  1  2  2  0
  2  3  1  0
  2  4  1  0
  4  5  2  0
  5  6  1  0
  6  7  2  0
  7  8  1  0
  8  9  2  0
  8 10  1  0
 10 11  1  0
 11 12  1  0
  9  4  1  0
 12  7  1  0
  5 13  1  0
  6 14  1  0
  9 15  1  0
 11 16  1  0
 11 17  1  0
M  CHG  1   3  -1
M  END
>  <meeko>  (9) 
{"is_sidechain": [false], "free_energy": -5.085, "intermolecular_energy": -5.39, "internal_energy": -0.047}

$$$$
