1oyt_ligand
     RDKit          3D

 55 59  0  0  0  0  0  0  0  0999 V2000
   11.1740   -9.8870   23.9290 N   0  0  0  0  0  0  0  0  0  0  0  0
   11.4420  -11.0210   23.3210 C   0  0  0  0  0  0  0  0  0  0  0  0
   10.8170  -12.1310   23.6550 N   0  0  0  0  0  0  0  0  0  0  0  0
   12.4530  -11.0540   22.2460 C   0  0  0  0  0  0  0  0  0  0  0  0
   12.4510  -12.0790   21.2920 C   0  0  0  0  0  0  0  0  0  0  0  0
   13.3940  -12.0990   20.2560 C   0  0  0  0  0  0  0  0  0  0  0  0
   14.3760  -11.0990   20.1360 C   0  0  0  0  0  0  0  0  0  0  0  0
   15.3310  -11.1620   18.9450 C   0  0  1  0  0  0  0  0  0  0  0  0
   16.7080  -11.7850   19.1680 C   0  0  1  0  0  0  0  0  0  0  0  0
   17.1040  -11.9060   20.6100 C   0  0  0  0  0  0  0  0  0  0  0  0
   17.3910  -10.9520   21.3140 O   0  0  0  0  0  0  0  0  0  0  0  0
   16.9650  -13.2100   20.9880 N   0  0  0  0  0  0  0  0  0  0  0  0
   17.1620  -13.6790   22.3470 C   0  0  0  0  0  0  0  0  0  0  0  0
   18.6310  -13.7020   22.6890 C   0  0  0  0  0  0  0  0  0  0  0  0
   19.0500  -13.6770   24.0290 C   0  0  0  0  0  0  0  0  0  0  0  0
   20.4090  -13.6630   24.3420 C   0  0  0  0  0  0  0  0  0  0  0  0
   21.3510  -13.6690   23.3190 C   0  0  0  0  0  0  0  0  0  0  0  0
   22.6540  -13.6520   23.6220 F   0  0  0  0  0  0  0  0  0  0  0  0
   20.9570  -13.6870   21.9870 C   0  0  0  0  0  0  0  0  0  0  0  0
   19.5980  -13.6990   21.6690 C   0  0  0  0  0  0  0  0  0  0  0  0
   16.4610  -13.9860   19.9870 C   0  0  0  0  0  0  0  0  0  0  0  0
   15.9290  -15.0770   20.0810 O   0  0  0  0  0  0  0  0  0  0  0  0
   16.6090  -13.2270   18.7010 C   0  0  1  0  0  0  0  0  0  0  0  0
   15.4000  -13.3530   17.7890 C   0  0  2  0  0  0  0  0  0  0  0  0
   15.7470  -13.6090   16.3270 C   0  0  0  0  0  0  0  0  0  0  0  0
   16.0750  -12.2370   15.7740 C   0  0  0  0  0  0  0  0  0  0  0  0
   15.0080  -11.3540   16.3890 C   0  0  0  0  0  0  0  0  0  0  0  0
   14.7630  -11.9530   17.7710 N   0  0  2  0  0  0  0  0  0  0  0  0
   14.3820  -10.0790   21.0990 C   0  0  0  0  0  0  0  0  0  0  0  0
   13.4360  -10.0590   22.1380 C   0  0  0  0  0  0  0  0  0  0  0  0
   10.4870   -9.8170   24.6700 H   0  0  0  0  0  0  0  0  0  0  0  0
   11.6790   -9.0390   23.6960 H   0  0  0  0  0  0  0  0  0  0  0  0
   10.1160  -12.1640   24.3850 H   0  0  0  0  0  0  0  0  0  0  0  0
   11.0090  -13.0020   23.1700 H   0  0  0  0  0  0  0  0  0  0  0  0
   11.6990  -12.8792   21.3568 H   0  0  0  0  0  0  0  0  0  0  0  0
   13.3658  -12.9155   19.5195 H   0  0  0  0  0  0  0  0  0  0  0  0
   15.4479  -10.0848   18.7554 H   0  0  0  0  0  0  0  0  0  0  0  0
   17.4323  -11.1436   18.6446 H   0  0  0  0  0  0  0  0  0  0  0  0
   16.6388  -13.0057   23.0419 H   0  0  0  0  0  0  0  0  0  0  0  0
   16.7601  -14.6993   22.4336 H   0  0  0  0  0  0  0  0  0  0  0  0
   18.3025  -13.6684   24.8360 H   0  0  0  0  0  0  0  0  0  0  0  0
   20.7341  -13.6473   25.3927 H   0  0  0  0  0  0  0  0  0  0  0  0
   21.7121  -13.6918   21.1871 H   0  0  0  0  0  0  0  0  0  0  0  0
   19.2823  -13.7061   20.6153 H   0  0  0  0  0  0  0  0  0  0  0  0
   17.4647  -13.5992   18.1186 H   0  0  0  0  0  0  0  0  0  0  0  0
   14.7856  -14.1853   18.1629 H   0  0  0  0  0  0  0  0  0  0  0  0
   16.6146  -14.2801   16.2442 H   0  0  0  0  0  0  0  0  0  0  0  0
   14.9272  -14.0975   15.7799 H   0  0  0  0  0  0  0  0  0  0  0  0
   17.0803  -11.9161   16.0846 H   0  0  0  0  0  0  0  0  0  0  0  0
   16.0820  -12.2045   14.6745 H   0  0  0  0  0  0  0  0  0  0  0  0
   15.3634  -10.3164   16.4728 H   0  0  0  0  0  0  0  0  0  0  0  0
   14.0923  -11.3203   15.7804 H   0  0  0  0  0  0  0  0  0  0  0  0
   13.7400  -12.0270   17.8760 H   0  0  0  0  0  0  0  0  0  0  0  0
   15.1387   -9.2828   21.0400 H   0  0  0  0  0  0  0  0  0  0  0  0
   13.4669   -9.2480   22.8805 H   0  0  0  0  0  0  0  0  0  0  0  0
  1  2  1  0
  2  3  2  0
  2  4  1  0
  4  5  2  0
  5  6  1  0
  6  7  2  0
  7  8  1  0
  8  9  1  0
  9 10  1  0
 10 11  2  0
 10 12  1  0
 12 13  1  0
 13 14  1  0
 14 15  2  0
 15 16  1  0
 16 17  2  0
 17 18  1  0
 17 19  1  0
 19 20  2  0
 12 21  1  0
 21 22  2  0
 21 23  1  0
 23 24  1  0
 24 25  1  0
 25 26  1  0
 26 27  1  0
 27 28  1  0
  7 29  1  0
 29 30  2  0
 30  4  1  0
 28  8  1  0
 23  9  1  0
 28 24  1  0
 20 14  1  0
  1 31  1  0
  1 32  1  0
  3 33  1  0
  3 34  1  0
  5 35  1  0
  6 36  1  0
  8 37  1  6
  9 38  1  6
 13 39  1  0
 13 40  1  0
 15 41  1  0
 16 42  1  0
 19 43  1  0
 20 44  1  0
 23 45  1  6
 24 46  1  1
 25 47  1  0
 25 48  1  0
 26 49  1  0
 26 50  1  0
 27 51  1  0
 27 52  1  0
 28 53  1  1
 29 54  1  0
 30 55  1  0
M  CHG  2   3   1  28   1
M  END
>  <meeko>  (1) 
{"is_sidechain": [false], "free_energy": -10.069, "intermolecular_energy": -12.423, "internal_energy": -0.531}

$$$$
1oyt_ligand
     RDKit          3D

 55 59  0  0  0  0  0  0  0  0999 V2000
   12.8090  -18.8480   18.3750 N   0  0  0  0  0  0  0  0  0  0  0  0
   12.6000  -17.6130   17.9760 C   0  0  0  0  0  0  0  0  0  0  0  0
   12.3150  -17.3480   16.7180 N   0  0  0  0  0  0  0  0  0  0  0  0
   12.6800  -16.5060   18.9500 C   0  0  0  0  0  0  0  0  0  0  0  0
   12.9450  -16.7600   20.3010 C   0  0  0  0  0  0  0  0  0  0  0  0
   13.0460  -15.7110   21.2240 C   0  0  0  0  0  0  0  0  0  0  0  0
   12.8850  -14.3690   20.8320 C   0  0  0  0  0  0  0  0  0  0  0  0
   13.0690  -13.2800   21.8880 C   0  0  1  0  0  0  0  0  0  0  0  0
   14.3980  -12.5250   21.9090 C   0  0  1  0  0  0  0  0  0  0  0  0
   15.5020  -13.2010   21.1500 C   0  0  0  0  0  0  0  0  0  0  0  0
   16.0480  -14.2270   21.5210 O   0  0  0  0  0  0  0  0  0  0  0  0
   15.6780  -12.5430   19.9670 N   0  0  0  0  0  0  0  0  0  0  0  0
   16.5950  -12.9810   18.9320 C   0  0  0  0  0  0  0  0  0  0  0  0
   18.0020  -12.5410   19.2540 C   0  0  0  0  0  0  0  0  0  0  0  0
   18.9940  -12.5480   18.2590 C   0  0  0  0  0  0  0  0  0  0  0  0
   20.3020  -12.1730   18.5670 C   0  0  0  0  0  0  0  0  0  0  0  0
   20.6220  -11.7980   19.8670 C   0  0  0  0  0  0  0  0  0  0  0  0
   21.8790  -11.4430   20.1610 F   0  0  0  0  0  0  0  0  0  0  0  0
   19.6570  -11.7920   20.8660 C   0  0  0  0  0  0  0  0  0  0  0  0
   18.3480  -12.1660   20.5640 C   0  0  0  0  0  0  0  0  0  0  0  0
   14.7790  -11.5310   19.8020 C   0  0  0  0  0  0  0  0  0  0  0  0
   14.4570  -10.9780   18.7660 O   0  0  0  0  0  0  0  0  0  0  0  0
   14.1720  -11.2350   21.1410 C   0  0  1  0  0  0  0  0  0  0  0  0
   12.6760  -10.9720   21.0750 C   0  0  2  0  0  0  0  0  0  0  0  0
   12.2170   -9.7740   21.8990 C   0  0  0  0  0  0  0  0  0  0  0  0
   12.1040  -10.3120   23.3100 C   0  0  0  0  0  0  0  0  0  0  0  0
   11.4620  -11.6690   23.1110 C   0  0  0  0  0  0  0  0  0  0  0  0
   12.0260  -12.1720   21.7860 N   0  0  2  0  0  0  0  0  0  0  0  0
   12.6110  -14.1180   19.4800 C   0  0  0  0  0  0  0  0  0  0  0  0
   12.5090  -15.1710   18.5550 C   0  0  0  0  0  0  0  0  0  0  0  0
   12.7620  -19.6370   17.7420 H   0  0  0  0  0  0  0  0  0  0  0  0
   13.0610  -19.0500   19.3350 H   0  0  0  0  0  0  0  0  0  0  0  0
   12.2490  -18.0680   16.0100 H   0  0  0  0  0  0  0  0  0  0  0  0
   12.1330  -16.3950   16.4160 H   0  0  0  0  0  0  0  0  0  0  0  0
   13.0757  -17.7975   20.6424 H   0  0  0  0  0  0  0  0  0  0  0  0
   13.2559  -15.9415   22.2789 H   0  0  0  0  0  0  0  0  0  0  0  0
   12.9897  -13.8983   22.7943 H   0  0  0  0  0  0  0  0  0  0  0  0
   14.6891  -12.4274   22.9653 H   0  0  0  0  0  0  0  0  0  0  0  0
   16.5655  -14.0784   18.8626 H   0  0  0  0  0  0  0  0  0  0  0  0
   16.2918  -12.5330   17.9742 H   0  0  0  0  0  0  0  0  0  0  0  0
   18.7382  -12.8504   17.2328 H   0  0  0  0  0  0  0  0  0  0  0  0
   21.0761  -12.1740   17.7854 H   0  0  0  0  0  0  0  0  0  0  0  0
   19.9241  -11.4936   21.8905 H   0  0  0  0  0  0  0  0  0  0  0  0
   17.5828  -12.1676   21.3542 H   0  0  0  0  0  0  0  0  0  0  0  0
   14.6164  -10.3323   21.5855 H   0  0  0  0  0  0  0  0  0  0  0  0
   12.4132  -10.8035   20.0202 H   0  0  0  0  0  0  0  0  0  0  0  0
   12.9563   -8.9610   21.8499 H   0  0  0  0  0  0  0  0  0  0  0  0
   11.2699   -9.3504   21.5335 H   0  0  0  0  0  0  0  0  0  0  0  0
   13.0957  -10.4091   23.7760 H   0  0  0  0  0  0  0  0  0  0  0  0
   11.5274   -9.6551   23.9778 H   0  0  0  0  0  0  0  0  0  0  0  0
   11.7320  -12.3502   23.9314 H   0  0  0  0  0  0  0  0  0  0  0  0
   10.3635  -11.6130   23.1019 H   0  0  0  0  0  0  0  0  0  0  0  0
   11.2220  -12.5130   21.2400 H   0  0  0  0  0  0  0  0  0  0  0  0
   12.4738  -13.0815   19.1383 H   0  0  0  0  0  0  0  0  0  0  0  0
   12.2909  -14.9440   17.5010 H   0  0  0  0  0  0  0  0  0  0  0  0
  1  2  1  0
  2  3  2  0
  2  4  1  0
  4  5  2  0
  5  6  1  0
  6  7  2  0
  7  8  1  0
  8  9  1  0
  9 10  1  0
 10 11  2  0
 10 12  1  0
 12 13  1  0
 13 14  1  0
 14 15  2  0
 15 16  1  0
 16 17  2  0
 17 18  1  0
 17 19  1  0
 19 20  2  0
 12 21  1  0
 21 22  2  0
 21 23  1  0
 23 24  1  0
 24 25  1  0
 25 26  1  0
 26 27  1  0
 27 28  1  0
  7 29  1  0
 29 30  2  0
 30  4  1  0
 28  8  1  0
 23  9  1  0
 28 24  1  0
 20 14  1  0
  1 31  1  0
  1 32  1  0
  3 33  1  0
  3 34  1  0
  5 35  1  0
  6 36  1  0
  8 37  1  1
  9 38  1  1
 13 39  1  0
 13 40  1  0
 15 41  1  0
 16 42  1  0
 19 43  1  0
 20 44  1  0
 23 45  1  1
 24 46  1  6
 25 47  1  0
 25 48  1  0
 26 49  1  0
 26 50  1  0
 27 51  1  0
 27 52  1  0
 28 53  1  6
 29 54  1  0
 30 55  1  0
M  CHG  2   3   1  28   1
M  END
>  <meeko>  (2) 
{"is_sidechain": [false], "free_energy": -9.197, "intermolecular_energy": -11.494, "internal_energy": -0.385}

$$$$
1oyt_ligand
     RDKit          3D

 55 59  0  0  0  0  0  0  0  0999 V2000
   12.4560   -9.2840   23.5840 N   0  0  0  0  0  0  0  0  0  0  0  0
   11.9540  -10.4580   23.2670 C   0  0  0  0  0  0  0  0  0  0  0  0
   10.8680  -10.9100   23.8570 N   0  0  0  0  0  0  0  0  0  0  0  0
   12.6130  -11.2800   22.2320 C   0  0  0  0  0  0  0  0  0  0  0  0
   13.0300  -10.7100   21.0240 C   0  0  0  0  0  0  0  0  0  0  0  0
   13.6780  -11.4820   20.0500 C   0  0  0  0  0  0  0  0  0  0  0  0
   13.9310  -12.8520   20.2470 C   0  0  0  0  0  0  0  0  0  0  0  0
   14.6940  -13.6090   19.1610 C   0  0  1  0  0  0  0  0  0  0  0  0
   16.2040  -13.7720   19.3340 C   0  0  1  0  0  0  0  0  0  0  0  0
   16.8130  -12.8410   20.3400 C   0  0  0  0  0  0  0  0  0  0  0  0
   16.9350  -11.6400   20.1640 O   0  0  0  0  0  0  0  0  0  0  0  0
   17.0750  -13.5480   21.4780 N   0  0  0  0  0  0  0  0  0  0  0  0
   17.5740  -12.9480   22.7010 C   0  0  0  0  0  0  0  0  0  0  0  0
   18.9780  -13.4200   22.9850 C   0  0  0  0  0  0  0  0  0  0  0  0
   19.3070  -13.9570   24.2400 C   0  0  0  0  0  0  0  0  0  0  0  0
   20.6150  -14.3620   24.5120 C   0  0  0  0  0  0  0  0  0  0  0  0
   21.5940  -14.2250   23.5350 C   0  0  0  0  0  0  0  0  0  0  0  0
   22.8480  -14.6090   23.8000 F   0  0  0  0  0  0  0  0  0  0  0  0
   21.2900  -13.6880   22.2900 C   0  0  0  0  0  0  0  0  0  0  0  0
   19.9850  -13.2820   22.0140 C   0  0  0  0  0  0  0  0  0  0  0  0
   16.6580  -14.8430   21.3880 C   0  0  0  0  0  0  0  0  0  0  0  0
   16.4490  -15.6270   22.2950 O   0  0  0  0  0  0  0  0  0  0  0  0
   16.4230  -15.1480   19.9380 C   0  0  1  0  0  0  0  0  0  0  0  0
   15.1750  -15.9810   19.6960 C   0  0  2  0  0  0  0  0  0  0  0  0
   15.3720  -17.1240   18.7060 C   0  0  0  0  0  0  0  0  0  0  0  0
   15.2480  -16.4670   17.3470 C   0  0  0  0  0  0  0  0  0  0  0  0
   14.0830  -15.5160   17.5290 C   0  0  0  0  0  0  0  0  0  0  0  0
   14.1970  -15.0390   18.9730 N   0  0  2  0  0  0  0  0  0  0  0  0
   13.5040  -13.4230   21.4550 C   0  0  0  0  0  0  0  0  0  0  0  0
   12.8550  -12.6480   22.4310 C   0  0  0  0  0  0  0  0  0  0  0  0
   12.0370   -8.6870   24.2860 H   0  0  0  0  0  0  0  0  0  0  0  0
   13.3110   -8.9500   23.1540 H   0  0  0  0  0  0  0  0  0  0  0  0
   10.3780  -10.3880   24.5730 H   0  0  0  0  0  0  0  0  0  0  0  0
   10.4690  -11.8070   23.5960 H   0  0  0  0  0  0  0  0  0  0  0  0
   12.8468   -9.6417   20.8363 H   0  0  0  0  0  0  0  0  0  0  0  0
   13.9959  -11.0062   19.1106 H   0  0  0  0  0  0  0  0  0  0  0  0
   14.4962  -12.9420   18.3090 H   0  0  0  0  0  0  0  0  0  0  0  0
   16.6556  -13.5875   18.3481 H   0  0  0  0  0  0  0  0  0  0  0  0
   17.5747  -11.8533   22.5933 H   0  0  0  0  0  0  0  0  0  0  0  0
   16.9223  -13.2459   23.5356 H   0  0  0  0  0  0  0  0  0  0  0  0
   18.5305  -14.0590   25.0124 H   0  0  0  0  0  0  0  0  0  0  0  0
   20.8694  -14.7872   25.4941 H   0  0  0  0  0  0  0  0  0  0  0  0
   22.0747  -13.5838   21.5262 H   0  0  0  0  0  0  0  0  0  0  0  0
   19.7422  -12.8515   21.0313 H   0  0  0  0  0  0  0  0  0  0  0  0
   17.2573  -15.7271   19.5155 H   0  0  0  0  0  0  0  0  0  0  0  0
   14.8577  -16.3954   20.6643 H   0  0  0  0  0  0  0  0  0  0  0  0
   16.3656  -17.5796   18.8294 H   0  0  0  0  0  0  0  0  0  0  0  0
   14.6424  -17.9347   18.8492 H   0  0  0  0  0  0  0  0  0  0  0  0
   16.1667  -15.9206   17.0874 H   0  0  0  0  0  0  0  0  0  0  0  0
   15.0934  -17.1883   16.5310 H   0  0  0  0  0  0  0  0  0  0  0  0
   14.1616  -14.6681   16.8327 H   0  0  0  0  0  0  0  0  0  0  0  0
   13.1156  -15.9978   17.3242 H   0  0  0  0  0  0  0  0  0  0  0  0
   13.2550  -15.1260   19.3810 H   0  0  0  0  0  0  0  0  0  0  0  0
   13.6797  -14.4928   21.6409 H   0  0  0  0  0  0  0  0  0  0  0  0
   12.5305  -13.1225   23.3688 H   0  0  0  0  0  0  0  0  0  0  0  0
  1  2  1  0
  2  3  2  0
  2  4  1  0
  4  5  2  0
  5  6  1  0
  6  7  2  0
  7  8  1  0
  8  9  1  0
  9 10  1  0
 10 11  2  0
 10 12  1  0
 12 13  1  0
 13 14  1  0
 14 15  2  0
 15 16  1  0
 16 17  2  0
 17 18  1  0
 17 19  1  0
 19 20  2  0
 12 21  1  0
 21 22  2  0
 21 23  1  0
 23 24  1  0
 24 25  1  0
 25 26  1  0
 26 27  1  0
 27 28  1  0
  7 29  1  0
 29 30  2  0
 30  4  1  0
 28  8  1  0
 23  9  1  0
 28 24  1  0
 20 14  1  0
  1 31  1  0
  1 32  1  0
  3 33  1  0
  3 34  1  0
  5 35  1  0
  6 36  1  0
  8 37  1  6
  9 38  1  6
 13 39  1  0
 13 40  1  0
 15 41  1  0
 16 42  1  0
 19 43  1  0
 20 44  1  0
 23 45  1  6
 24 46  1  1
 25 47  1  0
 25 48  1  0
 26 49  1  0
 26 50  1  0
 27 51  1  0
 27 52  1  0
 28 53  1  1
 29 54  1  0
 30 55  1  0
M  CHG  2   3   1  28   1
M  END
>  <meeko>  (3) 
{"is_sidechain": [false], "free_energy": -9.068, "intermolecular_energy": -10.783, "internal_energy": -0.936}

$$$$
1oyt_ligand
     RDKit          3D

 55 59  0  0  0  0  0  0  0  0999 V2000
   16.5750  -11.4690   14.4560 N   0  0  0  0  0  0  0  0  0  0  0  0
   16.8740  -11.0960   15.6810 C   0  0  0  0  0  0  0  0  0  0  0  0
   17.2540   -9.8620   15.9380 N   0  0  0  0  0  0  0  0  0  0  0  0
   16.7800  -12.0710   16.7860 C   0  0  0  0  0  0  0  0  0  0  0  0
   17.6300  -11.9800   17.8950 C   0  0  0  0  0  0  0  0  0  0  0  0
   17.5270  -12.8880   18.9570 C   0  0  0  0  0  0  0  0  0  0  0  0
   16.5740  -13.9240   18.9490 C   0  0  0  0  0  0  0  0  0  0  0  0
   16.4870  -14.8360   20.1710 C   0  0  1  0  0  0  0  0  0  0  0  0
   15.4910  -14.4630   21.2690 C   0  0  1  0  0  0  0  0  0  0  0  0
   15.0000  -13.0480   21.2020 C   0  0  0  0  0  0  0  0  0  0  0  0
   15.6920  -12.0780   21.4630 O   0  0  0  0  0  0  0  0  0  0  0  0
   13.7320  -13.0550   20.6970 N   0  0  0  0  0  0  0  0  0  0  0  0
   12.9790  -11.8520   20.3950 C   0  0  0  0  0  0  0  0  0  0  0  0
   12.6120  -11.1270   21.6670 C   0  0  0  0  0  0  0  0  0  0  0  0
   11.7740  -11.7360   22.6150 C   0  0  0  0  0  0  0  0  0  0  0  0
   11.4080  -11.0510   23.7740 C   0  0  0  0  0  0  0  0  0  0  0  0
   11.8740   -9.7570   23.9840 C   0  0  0  0  0  0  0  0  0  0  0  0
   11.5190   -9.1010   25.0950 F   0  0  0  0  0  0  0  0  0  0  0  0
   12.6980   -9.1360   23.0550 C   0  0  0  0  0  0  0  0  0  0  0  0
   13.0650   -9.8170   21.8940 C   0  0  0  0  0  0  0  0  0  0  0  0
   13.3210  -14.3090   20.3540 C   0  0  0  0  0  0  0  0  0  0  0  0
   12.4120  -14.6210   19.6060 O   0  0  0  0  0  0  0  0  0  0  0  0
   14.2430  -15.2900   21.0170 C   0  0  1  0  0  0  0  0  0  0  0  0
   14.6160  -16.4600   20.1210 C   0  0  2  0  0  0  0  0  0  0  0  0
   14.5590  -17.8170   20.8140 C   0  0  0  0  0  0  0  0  0  0  0  0
   15.8740  -17.9120   21.5590 C   0  0  0  0  0  0  0  0  0  0  0  0
   16.8740  -17.3590   20.5640 C   0  0  0  0  0  0  0  0  0  0  0  0
   16.1110  -16.2710   19.8160 N   0  0  2  0  0  0  0  0  0  0  0  0
   15.7300  -14.0180   17.8330 C   0  0  0  0  0  0  0  0  0  0  0  0
   15.8340  -13.1070   16.7680 C   0  0  0  0  0  0  0  0  0  0  0  0
   16.6240  -10.8340   13.6690 H   0  0  0  0  0  0  0  0  0  0  0  0
   16.3160  -12.4280   14.2520 H   0  0  0  0  0  0  0  0  0  0  0  0
   17.3360   -9.1550   15.2180 H   0  0  0  0  0  0  0  0  0  0  0  0
   17.4640   -9.5700   16.8880 H   0  0  0  0  0  0  0  0  0  0  0  0
   18.3890  -11.1847   17.9329 H   0  0  0  0  0  0  0  0  0  0  0  0
   18.2062  -12.7891   19.8166 H   0  0  0  0  0  0  0  0  0  0  0  0
   17.5110  -14.7147   20.5540 H   0  0  0  0  0  0  0  0  0  0  0  0
   16.0052  -14.6231   22.2282 H   0  0  0  0  0  0  0  0  0  0  0  0
   13.5909  -11.1902   19.7644 H   0  0  0  0  0  0  0  0  0  0  0  0
   12.0565  -12.1323   19.8655 H   0  0  0  0  0  0  0  0  0  0  0  0
   11.4045  -12.7577   22.4430 H   0  0  0  0  0  0  0  0  0  0  0  0
   10.7548  -11.5312   24.5175 H   0  0  0  0  0  0  0  0  0  0  0  0
   13.0595   -8.1125   23.2334 H   0  0  0  0  0  0  0  0  0  0  0  0
   13.7123   -9.3256   21.1527 H   0  0  0  0  0  0  0  0  0  0  0  0
   13.7758  -15.7322   21.9093 H   0  0  0  0  0  0  0  0  0  0  0  0
   13.9207  -16.4626   19.2686 H   0  0  0  0  0  0  0  0  0  0  0  0
   13.7109  -17.8623   21.5131 H   0  0  0  0  0  0  0  0  0  0  0  0
   14.4170  -18.6456   20.1046 H   0  0  0  0  0  0  0  0  0  0  0  0
   15.8528  -17.3051   22.4762 H   0  0  0  0  0  0  0  0  0  0  0  0
   16.1116  -18.9345   21.8877 H   0  0  0  0  0  0  0  0  0  0  0  0
   17.7453  -16.9345   21.0843 H   0  0  0  0  0  0  0  0  0  0  0  0
   17.2632  -18.1351   19.8886 H   0  0  0  0  0  0  0  0  0  0  0  0
   16.2910  -16.4290   18.8130 H   0  0  0  0  0  0  0  0  0  0  0  0
   14.9751  -14.8169   17.7906 H   0  0  0  0  0  0  0  0  0  0  0  0
   15.1609  -13.2081   15.9038 H   0  0  0  0  0  0  0  0  0  0  0  0
  1  2  1  0
  2  3  2  0
  2  4  1  0
  4  5  2  0
  5  6  1  0
  6  7  2  0
  7  8  1  0
  8  9  1  0
  9 10  1  0
 10 11  2  0
 10 12  1  0
 12 13  1  0
 13 14  1  0
 14 15  2  0
 15 16  1  0
 16 17  2  0
 17 18  1  0
 17 19  1  0
 19 20  2  0
 12 21  1  0
 21 22  2  0
 21 23  1  0
 23 24  1  0
 24 25  1  0
 25 26  1  0
 26 27  1  0
 27 28  1  0
  7 29  1  0
 29 30  2  0
 30  4  1  0
 28  8  1  0
 23  9  1  0
 28 24  1  0
 20 14  1  0
  1 31  1  0
  1 32  1  0
  3 33  1  0
  3 34  1  0
  5 35  1  0
  6 36  1  0
  8 37  1  1
  9 38  1  1
 13 39  1  0
 13 40  1  0
 15 41  1  0
 16 42  1  0
 19 43  1  0
 20 44  1  0
 23 45  1  1
 24 46  1  6
 25 47  1  0
 25 48  1  0
 26 49  1  0
 26 50  1  0
 27 51  1  0
 27 52  1  0
 28 53  1  6
 29 54  1  0
 30 55  1  0
M  CHG  2   3   1  28   1
M  END
>  <meeko>  (4) 
{"is_sidechain": [false], "free_energy": -8.971, "intermolecular_energy": -10.752, "internal_energy": -0.847}

$$$$
1oyt_ligand
     RDKit          3D

 55 59  0  0  0  0  0  0  0  0999 V2000
   20.1880  -14.6470   23.4710 N   0  0  0  0  0  0  0  0  0  0  0  0
   19.9290  -14.6100   22.1830 C   0  0  0  0  0  0  0  0  0  0  0  0
   20.7570  -15.1470   21.3110 N   0  0  0  0  0  0  0  0  0  0  0  0
   18.6920  -13.9610   21.7040 C   0  0  0  0  0  0  0  0  0  0  0  0
   17.6290  -13.7140   22.5800 C   0  0  0  0  0  0  0  0  0  0  0  0
   16.4630  -13.0760   22.1350 C   0  0  0  0  0  0  0  0  0  0  0  0
   16.3160  -12.6640   20.7970 C   0  0  0  0  0  0  0  0  0  0  0  0
   15.0380  -11.9230   20.4060 C   0  0  1  0  0  0  0  0  0  0  0  0
   13.9080  -12.7370   19.7760 C   0  0  1  0  0  0  0  0  0  0  0  0
   14.3290  -14.0820   19.2610 C   0  0  0  0  0  0  0  0  0  0  0  0
   15.0290  -14.2390   18.2750 O   0  0  0  0  0  0  0  0  0  0  0  0
   13.8990  -15.0330   20.1400 N   0  0  0  0  0  0  0  0  0  0  0  0
   14.2160  -16.4440   20.0170 C   0  0  0  0  0  0  0  0  0  0  0  0
   15.4830  -16.7670   20.7690 C   0  0  0  0  0  0  0  0  0  0  0  0
   16.6960  -16.9340   20.0810 C   0  0  0  0  0  0  0  0  0  0  0  0
   17.8600  -17.2670   20.7750 C   0  0  0  0  0  0  0  0  0  0  0  0
   17.8120  -17.4380   22.1540 C   0  0  0  0  0  0  0  0  0  0  0  0
   18.9290  -17.7610   22.8170 F   0  0  0  0  0  0  0  0  0  0  0  0
   16.6210  -17.2840   22.8520 C   0  0  0  0  0  0  0  0  0  0  0  0
   15.4550  -16.9530   22.1620 C   0  0  0  0  0  0  0  0  0  0  0  0
   13.2850  -14.4890   21.2290 C   0  0  0  0  0  0  0  0  0  0  0  0
   13.0830  -15.0090   22.3120 O   0  0  0  0  0  0  0  0  0  0  0  0
   12.9390  -13.0680   20.8970 C   0  0  1  0  0  0  0  0  0  0  0  0
   13.1910  -12.1070   22.0470 C   0  0  2  0  0  0  0  0  0  0  0  0
   12.0650  -11.1050   22.2780 C   0  0  0  0  0  0  0  0  0  0  0  0
   12.3180  -10.0160   21.2560 C   0  0  0  0  0  0  0  0  0  0  0  0
   13.8210   -9.8330   21.3120 C   0  0  0  0  0  0  0  0  0  0  0  0
   14.3680  -11.2300   21.5870 N   0  0  2  0  0  0  0  0  0  0  0  0
   17.3790  -12.9210   19.9190 C   0  0  0  0  0  0  0  0  0  0  0  0
   18.5480  -13.5610   20.3670 C   0  0  0  0  0  0  0  0  0  0  0  0
   21.0230  -15.0830   23.8440 H   0  0  0  0  0  0  0  0  0  0  0  0
   19.5690  -14.2040   24.1400 H   0  0  0  0  0  0  0  0  0  0  0  0
   21.6180  -15.6030   21.5850 H   0  0  0  0  0  0  0  0  0  0  0  0
   20.5440  -15.1370   20.3180 H   0  0  0  0  0  0  0  0  0  0  0  0
   17.7096  -14.0248   23.6321 H   0  0  0  0  0  0  0  0  0  0  0  0
   15.6447  -12.8932   22.8470 H   0  0  0  0  0  0  0  0  0  0  0  0
   15.4549  -11.2378   19.6532 H   0  0  0  0  0  0  0  0  0  0  0  0
   13.5141  -12.1365   18.9428 H   0  0  0  0  0  0  0  0  0  0  0  0
   13.3879  -17.0386   20.4302 H   0  0  0  0  0  0  0  0  0  0  0  0
   14.3615  -16.6851   18.9537 H   0  0  0  0  0  0  0  0  0  0  0  0
   16.7287  -16.8016   18.9895 H   0  0  0  0  0  0  0  0  0  0  0  0
   18.8096  -17.3934   20.2344 H   0  0  0  0  0  0  0  0  0  0  0  0
   16.5976  -17.4224   23.9430 H   0  0  0  0  0  0  0  0  0  0  0  0
   14.5087  -16.8369   22.7107 H   0  0  0  0  0  0  0  0  0  0  0  0
   11.8718  -12.9678   20.6497 H   0  0  0  0  0  0  0  0  0  0  0  0
   13.3312  -12.7066   22.9585 H   0  0  0  0  0  0  0  0  0  0  0  0
   11.0846  -11.5753   22.1118 H   0  0  0  0  0  0  0  0  0  0  0  0
   12.0501  -10.7195   23.3081 H   0  0  0  0  0  0  0  0  0  0  0  0
   11.9961  -10.3334   20.2532 H   0  0  0  0  0  0  0  0  0  0  0  0
   11.7621   -9.0901   21.4648 H   0  0  0  0  0  0  0  0  0  0  0  0
   14.2014   -9.4485   20.3542 H   0  0  0  0  0  0  0  0  0  0  0  0
   14.1248   -9.1070   22.0806 H   0  0  0  0  0  0  0  0  0  0  0  0
   15.0520  -11.1270   22.3510 H   0  0  0  0  0  0  0  0  0  0  0  0
   17.2970  -12.6176   18.8649 H   0  0  0  0  0  0  0  0  0  0  0  0
   19.3652  -13.7517   19.6557 H   0  0  0  0  0  0  0  0  0  0  0  0
  1  2  1  0
  2  3  2  0
  2  4  1  0
  4  5  2  0
  5  6  1  0
  6  7  2  0
  7  8  1  0
  8  9  1  0
  9 10  1  0
 10 11  2  0
 10 12  1  0
 12 13  1  0
 13 14  1  0
 14 15  2  0
 15 16  1  0
 16 17  2  0
 17 18  1  0
 17 19  1  0
 19 20  2  0
 12 21  1  0
 21 22  2  0
 21 23  1  0
 23 24  1  0
 24 25  1  0
 25 26  1  0
 26 27  1  0
 27 28  1  0
  7 29  1  0
 29 30  2  0
 30  4  1  0
 28  8  1  0
 23  9  1  0
 28 24  1  0
 20 14  1  0
  1 31  1  0
  1 32  1  0
  3 33  1  0
  3 34  1  0
  5 35  1  0
  6 36  1  0
  8 37  1  6
  9 38  1  6
 13 39  1  0
 13 40  1  0
 15 41  1  0
 16 42  1  0
 19 43  1  0
 20 44  1  0
 23 45  1  6
 24 46  1  1
 25 47  1  0
 25 48  1  0
 26 49  1  0
 26 50  1  0
 27 51  1  0
 27 52  1  0
 28 53  1  1
 29 54  1  0
 30 55  1  0
M  CHG  2   3   1  28   1
M  END
>  <meeko>  (5) 
{"is_sidechain": [false], "free_energy": -8.881, "intermolecular_energy": -9.406, "internal_energy": -2.083}

$$$$
1oyt_ligand
     RDKit          3D

 55 59  0  0  0  0  0  0  0  0999 V2000
   20.9250  -15.7020   20.9670 N   0  0  0  0  0  0  0  0  0  0  0  0
   20.2120  -14.8750   21.7010 C   0  0  0  0  0  0  0  0  0  0  0  0
   20.7960  -13.9930   22.4830 N   0  0  0  0  0  0  0  0  0  0  0  0
   18.7380  -14.9320   21.6440 C   0  0  0  0  0  0  0  0  0  0  0  0
   18.0850  -15.5000   20.5440 C   0  0  0  0  0  0  0  0  0  0  0  0
   16.6870  -15.5780   20.4980 C   0  0  0  0  0  0  0  0  0  0  0  0
   15.8890  -15.0890   21.5490 C   0  0  0  0  0  0  0  0  0  0  0  0
   14.3750  -15.2640   21.4490 C   0  0  1  0  0  0  0  0  0  0  0  0
   13.5450  -14.0590   21.0070 C   0  0  1  0  0  0  0  0  0  0  0  0
   14.2670  -12.7470   21.1000 C   0  0  0  0  0  0  0  0  0  0  0  0
   14.5460  -12.2020   22.1550 O   0  0  0  0  0  0  0  0  0  0  0  0
   14.6370  -12.3680   19.8420 N   0  0  0  0  0  0  0  0  0  0  0  0
   15.4450  -11.1960   19.5600 C   0  0  0  0  0  0  0  0  0  0  0  0
   16.9110  -11.5500   19.5840 C   0  0  0  0  0  0  0  0  0  0  0  0
   17.6920  -11.2650   20.7170 C   0  0  0  0  0  0  0  0  0  0  0  0
   19.0560  -11.5610   20.7250 C   0  0  0  0  0  0  0  0  0  0  0  0
   19.6410  -12.1360   19.6020 C   0  0  0  0  0  0  0  0  0  0  0  0
   20.9500  -12.4150   19.6100 F   0  0  0  0  0  0  0  0  0  0  0  0
   18.8870  -12.4180   18.4700 C   0  0  0  0  0  0  0  0  0  0  0  0
   17.5240  -12.1230   18.4570 C   0  0  0  0  0  0  0  0  0  0  0  0
   14.3050  -13.3000   18.9040 C   0  0  0  0  0  0  0  0  0  0  0  0
   14.7580  -13.4260   17.7810 O   0  0  0  0  0  0  0  0  0  0  0  0
   13.2980  -14.2280   19.5180 C   0  0  1  0  0  0  0  0  0  0  0  0
   13.5310  -15.6860   19.1570 C   0  0  2  0  0  0  0  0  0  0  0  0
   12.2640  -16.4410   18.7690 C   0  0  0  0  0  0  0  0  0  0  0  0
   11.6370  -16.8250   20.0940 C   0  0  0  0  0  0  0  0  0  0  0  0
   12.8260  -17.2640   20.9230 C   0  0  0  0  0  0  0  0  0  0  0  0
   13.9680  -16.3600   20.4690 N   0  0  2  0  0  0  0  0  0  0  0  0
   16.5450  -14.5120   22.6460 C   0  0  0  0  0  0  0  0  0  0  0  0
   17.9480  -14.4340   22.6910 C   0  0  0  0  0  0  0  0  0  0  0  0
   21.9370  -15.6980   20.9730 H   0  0  0  0  0  0  0  0  0  0  0  0
   20.4760  -16.4050   20.3900 H   0  0  0  0  0  0  0  0  0  0  0  0
   21.8030  -13.9110   22.5600 H   0  0  0  0  0  0  0  0  0  0  0  0
   20.2450  -13.3400   23.0330 H   0  0  0  0  0  0  0  0  0  0  0  0
   18.6778  -15.8906   19.7038 H   0  0  0  0  0  0  0  0  0  0  0  0
   16.2023  -16.0315   19.6209 H   0  0  0  0  0  0  0  0  0  0  0  0
   14.1542  -15.4885   22.5030 H   0  0  0  0  0  0  0  0  0  0  0  0
   12.6569  -14.0330   21.6556 H   0  0  0  0  0  0  0  0  0  0  0  0
   15.1826  -10.8056   18.5657 H   0  0  0  0  0  0  0  0  0  0  0  0
   15.2492  -10.4341   20.3289 H   0  0  0  0  0  0  0  0  0  0  0  0
   17.2262  -10.8065   21.6017 H   0  0  0  0  0  0  0  0  0  0  0  0
   19.6647  -11.3407   21.6144 H   0  0  0  0  0  0  0  0  0  0  0  0
   19.3627  -12.8718   17.5881 H   0  0  0  0  0  0  0  0  0  0  0  0
   16.9257  -12.3400   17.5598 H   0  0  0  0  0  0  0  0  0  0  0  0
   12.2804  -13.9913   19.1739 H   0  0  0  0  0  0  0  0  0  0  0  0
   14.2370  -15.7123   18.3139 H   0  0  0  0  0  0  0  0  0  0  0  0
   11.5873  -15.7952   18.1902 H   0  0  0  0  0  0  0  0  0  0  0  0
   12.4729  -17.3145   18.1338 H   0  0  0  0  0  0  0  0  0  0  0  0
   11.1304  -15.9644   20.5552 H   0  0  0  0  0  0  0  0  0  0  0  0
   10.8662  -17.6038   19.9977 H   0  0  0  0  0  0  0  0  0  0  0  0
   12.6240  -17.1252   21.9953 H   0  0  0  0  0  0  0  0  0  0  0  0
   13.0588  -18.3303   20.7857 H   0  0  0  0  0  0  0  0  0  0  0  0
   14.7750  -16.9780   20.2980 H   0  0  0  0  0  0  0  0  0  0  0  0
   15.9531  -14.1146   23.4836 H   0  0  0  0  0  0  0  0  0  0  0  0
   18.4354  -13.9740   23.5633 H   0  0  0  0  0  0  0  0  0  0  0  0
  1  2  1  0
  2  3  2  0
  2  4  1  0
  4  5  2  0
  5  6  1  0
  6  7  2  0
  7  8  1  0
  8  9  1  0
  9 10  1  0
 10 11  2  0
 10 12  1  0
 12 13  1  0
 13 14  1  0
 14 15  2  0
 15 16  1  0
 16 17  2  0
 17 18  1  0
 17 19  1  0
 19 20  2  0
 12 21  1  0
 21 22  2  0
 21 23  1  0
 23 24  1  0
 24 25  1  0
 25 26  1  0
 26 27  1  0
 27 28  1  0
  7 29  1  0
 29 30  2  0
 30  4  1  0
 28  8  1  0
 23  9  1  0
 28 24  1  0
 20 14  1  0
  1 31  1  0
  1 32  1  0
  3 33  1  0
  3 34  1  0
  5 35  1  0
  6 36  1  0
  8 37  1  1
  9 38  1  1
 13 39  1  0
 13 40  1  0
 15 41  1  0
 16 42  1  0
 19 43  1  0
 20 44  1  0
 23 45  1  1
 24 46  1  6
 25 47  1  0
 25 48  1  0
 26 49  1  0
 26 50  1  0
 27 51  1  0
 27 52  1  0
 28 53  1  6
 29 54  1  0
 30 55  1  0
M  CHG  2   3   1  28   1
M  END
>  <meeko>  (6) 
{"is_sidechain": [false], "free_energy": -8.881, "intermolecular_energy": -9.485, "internal_energy": -2.004}

$$$$
1oyt_ligand
     RDKit          3D

 55 59  0  0  0  0  0  0  0  0999 V2000
   21.3330  -13.3780   22.3800 N   0  0  0  0  0  0  0  0  0  0  0  0
   20.3990  -13.9850   21.6810 C   0  0  0  0  0  0  0  0  0  0  0  0
   20.5950  -15.1940   21.1980 N   0  0  0  0  0  0  0  0  0  0  0  0
   19.1110  -13.3060   21.4360 C   0  0  0  0  0  0  0  0  0  0  0  0
   18.9730  -12.3900   20.3860 C   0  0  0  0  0  0  0  0  0  0  0  0
   17.7460  -11.7630   20.1350 C   0  0  0  0  0  0  0  0  0  0  0  0
   16.6110  -12.0240   20.9260 C   0  0  0  0  0  0  0  0  0  0  0  0
   15.2960  -11.3440   20.5510 C   0  0  1  0  0  0  0  0  0  0  0  0
   14.3140  -12.1240   19.6780 C   0  0  1  0  0  0  0  0  0  0  0  0
   14.9170  -13.3040   18.9740 C   0  0  0  0  0  0  0  0  0  0  0  0
   15.7050  -13.2080   18.0490 O   0  0  0  0  0  0  0  0  0  0  0  0
   14.5250  -14.4390   19.6220 N   0  0  0  0  0  0  0  0  0  0  0  0
   15.0010  -15.7660   19.2800 C   0  0  0  0  0  0  0  0  0  0  0  0
   13.8490  -16.6500   18.8690 C   0  0  0  0  0  0  0  0  0  0  0  0
   13.5890  -17.8460   19.5580 C   0  0  0  0  0  0  0  0  0  0  0  0
   12.5440  -18.6780   19.1550 C   0  0  0  0  0  0  0  0  0  0  0  0
   11.7630  -18.3210   18.0620 C   0  0  0  0  0  0  0  0  0  0  0  0
   10.7650  -19.1230   17.6740 F   0  0  0  0  0  0  0  0  0  0  0  0
   12.0090  -17.1460   17.3620 C   0  0  0  0  0  0  0  0  0  0  0  0
   13.0530  -16.3110   17.7610 C   0  0  0  0  0  0  0  0  0  0  0  0
   13.7710  -14.1680   20.7260 C   0  0  0  0  0  0  0  0  0  0  0  0
   13.5420  -14.8990   21.6730 O   0  0  0  0  0  0  0  0  0  0  0  0
   13.3010  -12.7480   20.6220 C   0  0  1  0  0  0  0  0  0  0  0  0
   13.3550  -12.0010   21.9450 C   0  0  2  0  0  0  0  0  0  0  0  0
   12.1130  -11.1680   22.2410 C   0  0  0  0  0  0  0  0  0  0  0  0
   12.3270   -9.8880   21.4600 C   0  0  0  0  0  0  0  0  0  0  0  0
   13.7920   -9.5820   21.6930 C   0  0  0  0  0  0  0  0  0  0  0  0
   14.4640  -10.9490   21.7660 N   0  0  2  0  0  0  0  0  0  0  0  0
   16.7540  -12.9350   21.9830 C   0  0  0  0  0  0  0  0  0  0  0  0
   17.9860  -13.5640   22.2340 C   0  0  0  0  0  0  0  0  0  0  0  0
   22.2300  -13.8060   22.5740 H   0  0  0  0  0  0  0  0  0  0  0  0
   21.1960  -12.4340   22.7230 H   0  0  0  0  0  0  0  0  0  0  0  0
   21.4590  -15.7030   21.3360 H   0  0  0  0  0  0  0  0  0  0  0  0
   19.8650  -15.6700   20.6770 H   0  0  0  0  0  0  0  0  0  0  0  0
   19.8401  -12.1597   19.7495 H   0  0  0  0  0  0  0  0  0  0  0  0
   17.6674  -11.0503   19.3008 H   0  0  0  0  0  0  0  0  0  0  0  0
   15.6949  -10.4949   19.9767 H   0  0  0  0  0  0  0  0  0  0  0  0
   13.9247  -11.4158   18.9317 H   0  0  0  0  0  0  0  0  0  0  0  0
   15.7152  -15.6910   18.4467 H   0  0  0  0  0  0  0  0  0  0  0  0
   15.4914  -16.2064   20.1606 H   0  0  0  0  0  0  0  0  0  0  0  0
   14.2122  -18.1281   20.4194 H   0  0  0  0  0  0  0  0  0  0  0  0
   12.3392  -19.6116   19.6994 H   0  0  0  0  0  0  0  0  0  0  0  0
   11.3840  -16.8758   16.4981 H   0  0  0  0  0  0  0  0  0  0  0  0
   13.2543  -15.3829   17.2059 H   0  0  0  0  0  0  0  0  0  0  0  0
   12.2522  -12.7017   20.2937 H   0  0  0  0  0  0  0  0  0  0  0  0
   13.4857  -12.7457   22.7439 H   0  0  0  0  0  0  0  0  0  0  0  0
   11.2052  -11.6864   21.8986 H   0  0  0  0  0  0  0  0  0  0  0  0
   11.9752  -10.9861   23.3171 H   0  0  0  0  0  0  0  0  0  0  0  0
   12.1209  -10.0394   20.3902 H   0  0  0  0  0  0  0  0  0  0  0  0
   11.6601   -9.0726   21.7766 H   0  0  0  0  0  0  0  0  0  0  0  0
   14.2025   -8.9915   20.8606 H   0  0  0  0  0  0  0  0  0  0  0  0
   13.9541   -8.9884   22.6048 H   0  0  0  0  0  0  0  0  0  0  0  0
   15.0700  -10.9290   22.5990 H   0  0  0  0  0  0  0  0  0  0  0  0
   15.8896  -13.1605   22.6248 H   0  0  0  0  0  0  0  0  0  0  0  0
   18.0696  -14.2718   23.0718 H   0  0  0  0  0  0  0  0  0  0  0  0
  1  2  1  0
  2  3  2  0
  2  4  1  0
  4  5  2  0
  5  6  1  0
  6  7  2  0
  7  8  1  0
  8  9  1  0
  9 10  1  0
 10 11  2  0
 10 12  1  0
 12 13  1  0
 13 14  1  0
 14 15  2  0
 15 16  1  0
 16 17  2  0
 17 18  1  0
 17 19  1  0
 19 20  2  0
 12 21  1  0
 21 22  2  0
 21 23  1  0
 23 24  1  0
 24 25  1  0
 25 26  1  0
 26 27  1  0
 27 28  1  0
  7 29  1  0
 29 30  2  0
 30  4  1  0
 28  8  1  0
 23  9  1  0
 28 24  1  0
 20 14  1  0
  1 31  1  0
  1 32  1  0
  3 33  1  0
  3 34  1  0
  5 35  1  0
  6 36  1  0
  8 37  1  6
  9 38  1  6
 13 39  1  0
 13 40  1  0
 15 41  1  0
 16 42  1  0
 19 43  1  0
 20 44  1  0
 23 45  1  6
 24 46  1  1
 25 47  1  0
 25 48  1  0
 26 49  1  0
 26 50  1  0
 27 51  1  0
 27 52  1  0
 28 53  1  1
 29 54  1  0
 30 55  1  0
M  CHG  2   3   1  28   1
M  END
>  <meeko>  (7) 
{"is_sidechain": [false], "free_energy": -8.837, "intermolecular_energy": -10.514, "internal_energy": -0.921}

$$$$
1oyt_ligand
     RDKit          3D

 55 59  0  0  0  0  0  0  0  0999 V2000
   13.1190   -9.0240   23.2980 N   0  0  0  0  0  0  0  0  0  0  0  0
   12.2390   -9.9950   23.1920 C   0  0  0  0  0  0  0  0  0  0  0  0
   11.1710  -10.0270   23.9610 N   0  0  0  0  0  0  0  0  0  0  0  0
   12.4470  -11.0650   22.1950 C   0  0  0  0  0  0  0  0  0  0  0  0
   12.8090  -10.7550   20.8790 C   0  0  0  0  0  0  0  0  0  0  0  0
   13.0320  -11.7680   19.9370 C   0  0  0  0  0  0  0  0  0  0  0  0
   12.8970  -13.1280   20.2740 C   0  0  0  0  0  0  0  0  0  0  0  0
   13.2130  -14.1720   19.2050 C   0  0  1  0  0  0  0  0  0  0  0  0
   14.6500  -14.6850   19.1140 C   0  0  1  0  0  0  0  0  0  0  0  0
   15.6580  -13.8250   19.8180 C   0  0  0  0  0  0  0  0  0  0  0  0
   15.9970  -12.7220   19.4250 O   0  0  0  0  0  0  0  0  0  0  0  0
   16.0050  -14.4380   20.9880 N   0  0  0  0  0  0  0  0  0  0  0  0
   16.8830  -13.8430   21.9780 C   0  0  0  0  0  0  0  0  0  0  0  0
   18.1130  -13.2730   21.3160 C   0  0  0  0  0  0  0  0  0  0  0  0
   19.0700  -14.1260   20.7410 C   0  0  0  0  0  0  0  0  0  0  0  0
   20.2240  -13.5990   20.1600 C   0  0  0  0  0  0  0  0  0  0  0  0
   20.4260  -12.2230   20.1570 C   0  0  0  0  0  0  0  0  0  0  0  0
   21.5360  -11.7210   19.6030 F   0  0  0  0  0  0  0  0  0  0  0  0
   19.4960  -11.3640   20.7270 C   0  0  0  0  0  0  0  0  0  0  0  0
   18.3410  -11.8860   21.3110 C   0  0  0  0  0  0  0  0  0  0  0  0
   15.3040  -15.5890   21.1940 C   0  0  0  0  0  0  0  0  0  0  0  0
   15.1370  -16.1850   22.2420 O   0  0  0  0  0  0  0  0  0  0  0  0
   14.6910  -15.9920   19.8850 C   0  0  1  0  0  0  0  0  0  0  0  0
   13.2690  -16.5100   20.0260 C   0  0  2  0  0  0  0  0  0  0  0  0
   12.9840  -17.7730   19.2210 C   0  0  0  0  0  0  0  0  0  0  0  0
   12.7080  -17.2690   17.8190 C   0  0  0  0  0  0  0  0  0  0  0  0
   11.8510  -16.0430   18.0570 C   0  0  0  0  0  0  0  0  0  0  0  0
   12.3860  -15.4450   19.3540 N   0  0  2  0  0  0  0  0  0  0  0  0
   12.5240  -13.4350   21.5910 C   0  0  0  0  0  0  0  0  0  0  0  0
   12.3020  -12.4180   22.5350 C   0  0  0  0  0  0  0  0  0  0  0  0
   13.0160   -8.2700   23.9660 H   0  0  0  0  0  0  0  0  0  0  0  0
   13.9580   -9.0170   22.7300 H   0  0  0  0  0  0  0  0  0  0  0  0
   10.9810   -9.3200   24.6610 H   0  0  0  0  0  0  0  0  0  0  0  0
   10.4810  -10.7660   23.8630 H   0  0  0  0  0  0  0  0  0  0  0  0
   12.9199   -9.7022   20.5803 H   0  0  0  0  0  0  0  0  0  0  0  0
   13.3190  -11.4943   18.9110 H   0  0  0  0  0  0  0  0  0  0  0  0
   12.9807  -13.5802   18.3073 H   0  0  0  0  0  0  0  0  0  0  0  0
   14.8991  -14.7343   18.0437 H   0  0  0  0  0  0  0  0  0  0  0  0
   16.3465  -13.0374   22.5007 H   0  0  0  0  0  0  0  0  0  0  0  0
   17.1907  -14.6191   22.6942 H   0  0  0  0  0  0  0  0  0  0  0  0
   18.9088  -15.2141   20.7489 H   0  0  0  0  0  0  0  0  0  0  0  0
   20.9700  -14.2683   19.7068 H   0  0  0  0  0  0  0  0  0  0  0  0
   19.6687  -10.2777   20.7183 H   0  0  0  0  0  0  0  0  0  0  0  0
   17.6055  -11.2087   21.7696 H   0  0  0  0  0  0  0  0  0  0  0  0
   15.2623  -16.8053   19.4136 H   0  0  0  0  0  0  0  0  0  0  0  0
   13.0931  -16.7165   21.0920 H   0  0  0  0  0  0  0  0  0  0  0  0
   13.8548  -18.4451   19.2291 H   0  0  0  0  0  0  0  0  0  0  0  0
   12.1445  -18.3529   19.6320 H   0  0  0  0  0  0  0  0  0  0  0  0
   13.6428  -17.0033   17.3037 H   0  0  0  0  0  0  0  0  0  0  0  0
   12.2213  -18.0189   17.1780 H   0  0  0  0  0  0  0  0  0  0  0  0
   11.9567  -15.3284   17.2274 H   0  0  0  0  0  0  0  0  0  0  0  0
   10.7807  -16.2885   18.1214 H   0  0  0  0  0  0  0  0  0  0  0  0
   11.5620  -15.2460   19.9420 H   0  0  0  0  0  0  0  0  0  0  0  0
   12.4036  -14.4870   21.8891 H   0  0  0  0  0  0  0  0  0  0  0  0
   12.0089  -12.6882   23.5602 H   0  0  0  0  0  0  0  0  0  0  0  0
  1  2  1  0
  2  3  2  0
  2  4  1  0
  4  5  2  0
  5  6  1  0
  6  7  2  0
  7  8  1  0
  8  9  1  0
  9 10  1  0
 10 11  2  0
 10 12  1  0
 12 13  1  0
 13 14  1  0
 14 15  2  0
 15 16  1  0
 16 17  2  0
 17 18  1  0
 17 19  1  0
 19 20  2  0
 12 21  1  0
 21 22  2  0
 21 23  1  0
 23 24  1  0
 24 25  1  0
 25 26  1  0
 26 27  1  0
 27 28  1  0
  7 29  1  0
 29 30  2  0
 30  4  1  0
 28  8  1  0
 23  9  1  0
 28 24  1  0
 20 14  1  0
  1 31  1  0
  1 32  1  0
  3 33  1  0
  3 34  1  0
  5 35  1  0
  6 36  1  0
  8 37  1  6
  9 38  1  6
 13 39  1  0
 13 40  1  0
 15 41  1  0
 16 42  1  0
 19 43  1  0
 20 44  1  0
 23 45  1  6
 24 46  1  1
 25 47  1  0
 25 48  1  0
 26 49  1  0
 26 50  1  0
 27 51  1  0
 27 52  1  0
 28 53  1  1
 29 54  1  0
 30 55  1  0
M  CHG  2   3   1  28   1
M  END
>  <meeko>  (8) 
{"is_sidechain": [false], "free_energy": -8.628, "intermolecular_energy": -10.924, "internal_energy": -0.252}

$$$$
1oyt_ligand
     RDKit          3D

 55 59  0  0  0  0  0  0  0  0999 V2000
   12.2020  -18.7990   19.0600 N   0  0  0  0  0  0  0  0  0  0  0  0
   12.1240  -17.5730   18.5910 C   0  0  0  0  0  0  0  0  0  0  0  0
   11.7750  -17.3480   17.3420 N   0  0  0  0  0  0  0  0  0  0  0  0
   12.4270  -16.4300   19.4760 C   0  0  0  0  0  0  0  0  0  0  0  0
   12.1530  -15.1190   19.0710 C   0  0  0  0  0  0  0  0  0  0  0  0
   12.4160  -14.0340   19.9180 C   0  0  0  0  0  0  0  0  0  0  0  0
   12.9670  -14.2190   21.2000 C   0  0  0  0  0  0  0  0  0  0  0  0
   13.1690  -12.9900   22.0840 C   0  0  1  0  0  0  0  0  0  0  0  0
   14.4930  -12.2360   21.9620 C   0  0  1  0  0  0  0  0  0  0  0  0
   15.5830  -13.0090   21.2810 C   0  0  0  0  0  0  0  0  0  0  0  0
   16.1450  -13.9700   21.7810 O   0  0  0  0  0  0  0  0  0  0  0  0
   15.7260  -12.5280   20.0120 N   0  0  0  0  0  0  0  0  0  0  0  0
   16.6200  -13.1070   19.0270 C   0  0  0  0  0  0  0  0  0  0  0  0
   16.1660  -14.4970   18.6570 C   0  0  0  0  0  0  0  0  0  0  0  0
   16.4630  -15.5870   19.4930 C   0  0  0  0  0  0  0  0  0  0  0  0
   16.0730  -16.8770   19.1320 C   0  0  0  0  0  0  0  0  0  0  0  0
   15.3920  -17.0810   17.9360 C   0  0  0  0  0  0  0  0  0  0  0  0
   15.0230  -18.3200   17.5900 F   0  0  0  0  0  0  0  0  0  0  0  0
   15.0970  -16.0170   17.0930 C   0  0  0  0  0  0  0  0  0  0  0  0
   15.4860  -14.7260   17.4490 C   0  0  0  0  0  0  0  0  0  0  0  0
   14.8160  -11.5530   19.7260 C   0  0  0  0  0  0  0  0  0  0  0  0
   14.4660  -11.1550   18.6300 O   0  0  0  0  0  0  0  0  0  0  0  0
   14.2400  -11.0690   21.0240 C   0  0  1  0  0  0  0  0  0  0  0  0
   12.7410  -10.8230   20.9580 C   0  0  2  0  0  0  0  0  0  0  0  0
   12.2950   -9.5210   21.6130 C   0  0  0  0  0  0  0  0  0  0  0  0
   12.2200   -9.8510   23.0900 C   0  0  0  0  0  0  0  0  0  0  0  0
   11.5820  -11.2250   23.1030 C   0  0  0  0  0  0  0  0  0  0  0  0
   12.1170  -11.9110   21.8500 N   0  0  2  0  0  0  0  0  0  0  0  0
   13.2490  -15.5330   21.6000 C   0  0  0  0  0  0  0  0  0  0  0  0
   12.9850  -16.6210   20.7490 C   0  0  0  0  0  0  0  0  0  0  0  0
   12.0020  -19.6110   18.4900 H   0  0  0  0  0  0  0  0  0  0  0  0
   12.5040  -18.9740   20.0120 H   0  0  0  0  0  0  0  0  0  0  0  0
   11.5570  -18.0950   16.6930 H   0  0  0  0  0  0  0  0  0  0  0  0
   11.6940  -16.4000   16.9870 H   0  0  0  0  0  0  0  0  0  0  0  0
   11.7252  -14.9375   18.0740 H   0  0  0  0  0  0  0  0  0  0  0  0
   12.1867  -13.0149   19.5733 H   0  0  0  0  0  0  0  0  0  0  0  0
   13.1154  -13.4717   23.0715 H   0  0  0  0  0  0  0  0  0  0  0  0
   14.8089  -11.9881   22.9861 H   0  0  0  0  0  0  0  0  0  0  0  0
   16.6247  -12.4755   18.1263 H   0  0  0  0  0  0  0  0  0  0  0  0
   17.6321  -13.1642   19.4540 H   0  0  0  0  0  0  0  0  0  0  0  0
   17.0052  -15.4224   20.4358 H   0  0  0  0  0  0  0  0  0  0  0  0
   16.3027  -17.7284   19.7895 H   0  0  0  0  0  0  0  0  0  0  0  0
   14.5593  -16.1919   16.1495 H   0  0  0  0  0  0  0  0  0  0  0  0
   15.2592  -13.8824   16.7805 H   0  0  0  0  0  0  0  0  0  0  0  0
   14.6889  -10.1106   21.3239 H   0  0  0  0  0  0  0  0  0  0  0  0
   12.4509  -10.8084   19.8970 H   0  0  0  0  0  0  0  0  0  0  0  0
   13.0277   -8.7214   21.4292 H   0  0  0  0  0  0  0  0  0  0  0  0
   11.3364   -9.1571   21.2146 H   0  0  0  0  0  0  0  0  0  0  0  0
   13.2233   -9.8772   23.5402 H   0  0  0  0  0  0  0  0  0  0  0  0
   11.6559   -9.1068   23.6713 H   0  0  0  0  0  0  0  0  0  0  0  0
   11.8761  -11.7810   24.0054 H   0  0  0  0  0  0  0  0  0  0  0  0
   10.4832  -11.1741   23.1132 H   0  0  0  0  0  0  0  0  0  0  0  0
   11.3020  -12.3300   21.3790 H   0  0  0  0  0  0  0  0  0  0  0  0
   13.6831  -15.7155   22.5941 H   0  0  0  0  0  0  0  0  0  0  0  0
   13.2204  -17.6407   21.0877 H   0  0  0  0  0  0  0  0  0  0  0  0
  1  2  1  0
  2  3  2  0
  2  4  1  0
  4  5  2  0
  5  6  1  0
  6  7  2  0
  7  8  1  0
  8  9  1  0
  9 10  1  0
 10 11  2  0
 10 12  1  0
 12 13  1  0
 13 14  1  0
 14 15  2  0
 15 16  1  0
 16 17  2  0
 17 18  1  0
 17 19  1  0
 19 20  2  0
 12 21  1  0
 21 22  2  0
 21 23  1  0
 23 24  1  0
 24 25  1  0
 25 26  1  0
 26 27  1  0
 27 28  1  0
  7 29  1  0
 29 30  2  0
 30  4  1  0
 28  8  1  0
 23  9  1  0
 28 24  1  0
 20 14  1  0
  1 31  1  0
  1 32  1  0
  3 33  1  0
  3 34  1  0
  5 35  1  0
  6 36  1  0
  8 37  1  1
  9 38  1  1
 13 39  1  0
 13 40  1  0
 15 41  1  0
 16 42  1  0
 19 43  1  0
 20 44  1  0
 23 45  1  1
 24 46  1  6
 25 47  1  0
 25 48  1  0
 26 49  1  0
 26 50  1  0
 27 51  1  0
 27 52  1  0
 28 53  1  6
 29 54  1  0
 30 55  1  0
M  CHG  2   3   1  28   1
M  END
>  <meeko>  (9) 
{"is_sidechain": [false], "free_energy": -8.52, "intermolecular_energy": -9.575, "internal_energy": -1.469}

$$$$
