2fvd_ligand
     RDKit          3D

 51 53  0  0  0  0  0  0  0  0999 V2000
    0.1150   28.4330    9.1350 C   0  0  0  0  0  0  0  0  0  0  0  0
   -1.2290   28.7260    8.7450 O   0  0  0  0  0  0  0  0  0  0  0  0
   -1.6860   29.8460    9.3850 C   0  0  0  0  0  0  0  0  0  0  0  0
   -0.9600   31.0360    9.2950 C   0  0  0  0  0  0  0  0  0  0  0  0
   -1.3760   32.1600   10.0130 C   0  0  0  0  0  0  0  0  0  0  0  0
   -2.5030   32.0780   10.8280 C   0  0  0  0  0  0  0  0  0  0  0  0
   -2.8880   33.1550   11.5240 F   0  0  0  0  0  0  0  0  0  0  0  0
   -3.2170   30.8900   10.9340 C   0  0  0  0  0  0  0  0  0  0  0  0
   -4.2880   30.8260   11.7390 F   0  0  0  0  0  0  0  0  0  0  0  0
   -2.8050   29.7700   10.2200 C   0  0  0  0  0  0  0  0  0  0  0  0
   -3.5870   28.5290   10.3200 C   0  0  0  0  0  0  0  0  0  0  0  0
   -4.5100   28.3640    9.5280 O   0  0  0  0  0  0  0  0  0  0  0  0
   -3.2820   27.5220   11.3600 C   0  0  0  0  0  0  0  0  0  0  0  0
   -2.0490   27.4450   11.9690 C   0  0  0  0  0  0  0  0  0  0  0  0
   -1.7350   26.5390   12.9150 N   0  0  0  0  0  0  0  0  0  0  0  0
   -2.6840   25.6550   13.2420 C   0  0  0  0  0  0  0  0  0  0  0  0
   -2.4480   24.6720   14.1800 N   0  0  0  0  0  0  0  0  0  0  0  0
   -3.5370   24.0720   14.9440 C   0  0  0  0  0  0  0  0  0  0  0  0
   -3.5570   22.5400   14.8590 C   0  0  0  0  0  0  0  0  0  0  0  0
   -3.3830   21.8870   16.2250 C   0  0  0  0  0  0  0  0  0  0  0  0
   -4.4160   22.3850   17.1610 N   0  0  0  0  0  0  0  0  0  0  0  0
   -4.6310   21.5440   18.6140 S   0  0  0  0  0  0  0  0  0  0  0  0
   -6.1000   22.3070   19.2770 C   0  0  0  0  0  0  0  0  0  0  0  0
   -4.9510   20.1700   18.2890 O   0  0  0  0  0  0  0  0  0  0  0  0
   -3.5310   21.8700   19.4950 O   0  0  0  0  0  0  0  0  0  0  0  0
   -4.6650   23.8450   17.1690 C   0  0  0  0  0  0  0  0  0  0  0  0
   -3.6120   24.6040   16.3760 C   0  0  0  0  0  0  0  0  0  0  0  0
   -3.9070   25.6500   12.7040 N   0  0  0  0  0  0  0  0  0  0  0  0
   -4.2020   26.5670   11.7640 C   0  0  0  0  0  0  0  0  0  0  0  0
   -5.5220   26.5350   11.2760 N   0  0  0  0  0  0  0  0  0  0  0  0
    0.1833   28.4181   10.2328 H   0  0  0  0  0  0  0  0  0  0  0  0
    0.4066   27.4502    8.7361 H   0  0  0  0  0  0  0  0  0  0  0  0
    0.7892   29.2053    8.7361 H   0  0  0  0  0  0  0  0  0  0  0  0
   -0.0630   31.0880    8.6604 H   0  0  0  0  0  0  0  0  0  0  0  0
   -0.8170   33.1042    9.9353 H   0  0  0  0  0  0  0  0  0  0  0  0
   -1.2754   28.1656   11.6650 H   0  0  0  0  0  0  0  0  0  0  0  0
   -1.8130   24.0130   13.7370 H   0  0  0  0  0  0  0  0  0  0  0  0
   -4.4683   24.3979   14.4576 H   0  0  0  0  0  0  0  0  0  0  0  0
   -4.5200   22.2210   14.4336 H   0  0  0  0  0  0  0  0  0  0  0  0
   -2.7159   22.2253   14.2238 H   0  0  0  0  0  0  0  0  0  0  0  0
   -3.4805   20.7962   16.1221 H   0  0  0  0  0  0  0  0  0  0  0  0
   -2.3875   22.1376   16.6202 H   0  0  0  0  0  0  0  0  0  0  0  0
   -6.0599   22.2862   20.3761 H   0  0  0  0  0  0  0  0  0  0  0  0
   -6.1592   23.3498   18.9320 H   0  0  0  0  0  0  0  0  0  0  0  0
   -6.9871   21.7557   18.9320 H   0  0  0  0  0  0  0  0  0  0  0  0
   -5.6528   24.0398   16.7260 H   0  0  0  0  0  0  0  0  0  0  0  0
   -4.6228   24.1925   18.2118 H   0  0  0  0  0  0  0  0  0  0  0  0
   -3.8756   25.6717   16.3527 H   0  0  0  0  0  0  0  0  0  0  0  0
   -2.6335   24.4668   16.8594 H   0  0  0  0  0  0  0  0  0  0  0  0
   -6.1560   26.8610   12.0000 H   0  0  0  0  0  0  0  0  0  0  0  0
   -5.6030   27.2380   10.5350 H   0  0  0  0  0  0  0  0  0  0  0  0
  1  2  1  0
  2  3  1  0
  3  4  2  0
  4  5  1  0
  5  6  2  0
  6  7  1  0
  6  8  1  0
  8  9  1  0
  8 10  2  0
 10 11  1  0
 11 12  2  0
 11 13  1  0
 13 14  2  0
 14 15  1  0
 15 16  2  0
 16 17  1  0
 17 18  1  0
 18 19  1  0
 19 20  1  0
 20 21  1  0
 21 22  1  0
 22 23  1  0
 22 24  2  0
 22 25  2  0
 21 26  1  0
 26 27  1  0
 16 28  1  0
 28 29  2  0
 29 30  1  0
 10  3  1  0
 29 13  1  0
 27 18  1  0
  1 31  1  0
  1 32  1  0
  1 33  1  0
  4 34  1  0
  5 35  1  0
 14 36  1  0
 17 37  1  0
 18 38  1  0
 19 39  1  0
 19 40  1  0
 20 41  1  0
 20 42  1  0
 23 43  1  0
 23 44  1  0
 23 45  1  0
 26 46  1  0
 26 47  1  0
 27 48  1  0
 27 49  1  0
 30 50  1  0
 30 51  1  0
M  END
>  <meeko>  (1) 
{"is_sidechain": [false], "free_energy": -9.057, "intermolecular_energy": -12.498, "internal_energy": -1.117}

$$$$
2fvd_ligand
     RDKit          3D

 51 53  0  0  0  0  0  0  0  0999 V2000
    2.9250   27.4880    8.5280 C   0  0  0  0  0  0  0  0  0  0  0  0
    1.8910   27.5630    9.5130 O   0  0  0  0  0  0  0  0  0  0  0  0
    0.9960   28.5510    9.2020 C   0  0  0  0  0  0  0  0  0  0  0  0
    0.9660   29.0700    7.9050 C   0  0  0  0  0  0  0  0  0  0  0  0
    0.1140   30.1360    7.6040 C   0  0  0  0  0  0  0  0  0  0  0  0
   -0.6860   30.6830    8.6050 C   0  0  0  0  0  0  0  0  0  0  0  0
   -1.4900   31.7130    8.3120 F   0  0  0  0  0  0  0  0  0  0  0  0
   -0.6440   30.1810    9.9000 C   0  0  0  0  0  0  0  0  0  0  0  0
   -1.4080   30.7340   10.8540 F   0  0  0  0  0  0  0  0  0  0  0  0
    0.2030   29.1200   10.2030 C   0  0  0  0  0  0  0  0  0  0  0  0
    0.2150   28.5810   11.5710 C   0  0  0  0  0  0  0  0  0  0  0  0
    0.9510   29.1170   12.3950 O   0  0  0  0  0  0  0  0  0  0  0  0
   -0.6190   27.4150   11.9340 C   0  0  0  0  0  0  0  0  0  0  0  0
   -1.9840   27.5100   12.0980 C   0  0  0  0  0  0  0  0  0  0  0  0
   -2.7740   26.4700   12.4330 N   0  0  0  0  0  0  0  0  0  0  0  0
   -2.1680   25.2960   12.6420 C   0  0  0  0  0  0  0  0  0  0  0  0
   -2.8880   24.1810   13.0150 N   0  0  0  0  0  0  0  0  0  0  0  0
   -2.6920   23.5480   14.3170 C   0  0  0  0  0  0  0  0  0  0  0  0
   -2.9280   24.5070   15.4910 C   0  0  0  0  0  0  0  0  0  0  0  0
   -4.0640   24.0400   16.3930 C   0  0  0  0  0  0  0  0  0  0  0  0
   -3.8010   22.6630   16.8700 N   0  0  0  0  0  0  0  0  0  0  0  0
   -4.7430   22.0810   18.1500 S   0  0  0  0  0  0  0  0  0  0  0  0
   -6.2190   23.0710   18.0120 C   0  0  0  0  0  0  0  0  0  0  0  0
   -5.0980   20.7100   17.8540 O   0  0  0  0  0  0  0  0  0  0  0  0
   -4.0900   22.4370   19.3910 O   0  0  0  0  0  0  0  0  0  0  0  0
   -3.3310   21.6840   15.8620 C   0  0  0  0  0  0  0  0  0  0  0  0
   -3.4500   22.2260   14.4460 C   0  0  0  0  0  0  0  0  0  0  0  0
   -0.8520   25.1080   12.5090 N   0  0  0  0  0  0  0  0  0  0  0  0
   -0.0810   26.1590   12.1700 C   0  0  0  0  0  0  0  0  0  0  0  0
    1.2880   25.8800   12.0010 N   0  0  0  0  0  0  0  0  0  0  0  0
    3.9026   27.4171    9.0273 H   0  0  0  0  0  0  0  0  0  0  0  0
    2.7689   26.5988    7.8995 H   0  0  0  0  0  0  0  0  0  0  0  0
    2.8989   28.3904    7.8995 H   0  0  0  0  0  0  0  0  0  0  0  0
    1.6107   28.6410    7.1237 H   0  0  0  0  0  0  0  0  0  0  0  0
    0.0752   30.5411    6.5821 H   0  0  0  0  0  0  0  0  0  0  0  0
   -2.4567   28.4917   11.9468 H   0  0  0  0  0  0  0  0  0  0  0  0
   -3.8540   24.3790   12.7690 H   0  0  0  0  0  0  0  0  0  0  0  0
   -1.6256   23.2841   14.3736 H   0  0  0  0  0  0  0  0  0  0  0  0
   -2.0057   24.5719   16.0869 H   0  0  0  0  0  0  0  0  0  0  0  0
   -3.2054   25.4876   15.0769 H   0  0  0  0  0  0  0  0  0  0  0  0
   -4.1436   24.7156   17.2574 H   0  0  0  0  0  0  0  0  0  0  0  0
   -5.0045   24.0502   15.8225 H   0  0  0  0  0  0  0  0  0  0  0  0
   -6.5893   23.3194   19.0176 H   0  0  0  0  0  0  0  0  0  0  0  0
   -5.9890   23.9982   17.4666 H   0  0  0  0  0  0  0  0  0  0  0  0
   -6.9896   22.5064   17.4666 H   0  0  0  0  0  0  0  0  0  0  0  0
   -2.2765   21.4445   16.0636 H   0  0  0  0  0  0  0  0  0  0  0  0
   -3.9630   20.7869   15.9377 H   0  0  0  0  0  0  0  0  0  0  0  0
   -3.0269   21.4951   13.7412 H   0  0  0  0  0  0  0  0  0  0  0  0
   -4.5120   22.3993   14.2178 H   0  0  0  0  0  0  0  0  0  0  0  0
    1.3980   24.9280   11.6600 H   0  0  0  0  0  0  0  0  0  0  0  0
    1.6390   26.4620   11.2340 H   0  0  0  0  0  0  0  0  0  0  0  0
  1  2  1  0
  2  3  1  0
  3  4  2  0
  4  5  1  0
  5  6  2  0
  6  7  1  0
  6  8  1  0
  8  9  1  0
  8 10  2  0
 10 11  1  0
 11 12  2  0
 11 13  1  0
 13 14  2  0
 14 15  1  0
 15 16  2  0
 16 17  1  0
 17 18  1  0
 18 19  1  0
 19 20  1  0
 20 21  1  0
 21 22  1  0
 22 23  1  0
 22 24  2  0
 22 25  2  0
 21 26  1  0
 26 27  1  0
 16 28  1  0
 28 29  2  0
 29 30  1  0
 10  3  1  0
 29 13  1  0
 27 18  1  0
  1 31  1  0
  1 32  1  0
  1 33  1  0
  4 34  1  0
  5 35  1  0
 14 36  1  0
 17 37  1  0
 18 38  1  0
 19 39  1  0
 19 40  1  0
 20 41  1  0
 20 42  1  0
 23 43  1  0
 23 44  1  0
 23 45  1  0
 26 46  1  0
 26 47  1  0
 27 48  1  0
 27 49  1  0
 30 50  1  0
 30 51  1  0
M  END
>  <meeko>  (2) 
{"is_sidechain": [false], "free_energy": -8.818, "intermolecular_energy": -11.761, "internal_energy": -1.524}

$$$$
2fvd_ligand
     RDKit          3D

 51 53  0  0  0  0  0  0  0  0999 V2000
   -1.3750   29.4430    9.3460 C   0  0  0  0  0  0  0  0  0  0  0  0
   -0.0100   29.5160    9.7670 O   0  0  0  0  0  0  0  0  0  0  0  0
    0.8330   29.1840    8.7400 C   0  0  0  0  0  0  0  0  0  0  0  0
    0.8200   29.9420    7.5660 C   0  0  0  0  0  0  0  0  0  0  0  0
    1.6160   29.5580    6.4840 C   0  0  0  0  0  0  0  0  0  0  0  0
    2.4030   28.4130    6.5800 C   0  0  0  0  0  0  0  0  0  0  0  0
    3.1530   28.0440    5.5330 F   0  0  0  0  0  0  0  0  0  0  0  0
    2.4040   27.6480    7.7390 C   0  0  0  0  0  0  0  0  0  0  0  0
    3.1550   26.5380    7.8050 F   0  0  0  0  0  0  0  0  0  0  0  0
    1.6130   28.0270    8.8190 C   0  0  0  0  0  0  0  0  0  0  0  0
    1.6460   27.2230   10.0490 C   0  0  0  0  0  0  0  0  0  0  0  0
    2.6900   27.2010   10.6950 O   0  0  0  0  0  0  0  0  0  0  0  0
    0.4620   26.4480   10.4810 C   0  0  0  0  0  0  0  0  0  0  0  0
   -0.0410   25.4010    9.7420 C   0  0  0  0  0  0  0  0  0  0  0  0
   -1.1190   24.6770   10.1030 N   0  0  0  0  0  0  0  0  0  0  0  0
   -1.7360   25.0380   11.2330 C   0  0  0  0  0  0  0  0  0  0  0  0
   -2.8640   24.3760   11.6710 N   0  0  0  0  0  0  0  0  0  0  0  0
   -3.7520   24.9620   12.6710 C   0  0  0  0  0  0  0  0  0  0  0  0
   -4.9680   25.6650   12.0540 C   0  0  0  0  0  0  0  0  0  0  0  0
   -6.2820   25.0370   12.5030 C   0  0  0  0  0  0  0  0  0  0  0  0
   -6.3610   25.0260   13.9810 N   0  0  0  0  0  0  0  0  0  0  0  0
   -7.8660   24.7030   14.6850 S   0  0  0  0  0  0  0  0  0  0  0  0
   -8.0340   26.0450   15.8470 C   0  0  0  0  0  0  0  0  0  0  0  0
   -8.8790   24.8690   13.6650 O   0  0  0  0  0  0  0  0  0  0  0  0
   -7.7580   23.4760   15.4440 O   0  0  0  0  0  0  0  0  0  0  0  0
   -5.1510   24.5870   14.7140 C   0  0  0  0  0  0  0  0  0  0  0  0
   -4.1140   23.9770   13.7820 C   0  0  0  0  0  0  0  0  0  0  0  0
   -1.3230   26.0400   12.0140 N   0  0  0  0  0  0  0  0  0  0  0  0
   -0.2410   26.7480   11.6380 C   0  0  0  0  0  0  0  0  0  0  0  0
    0.1660   27.7570   12.5300 N   0  0  0  0  0  0  0  0  0  0  0  0
   -2.0297   29.4080   10.2292 H   0  0  0  0  0  0  0  0  0  0  0  0
   -1.6205   30.3293    8.7425 H   0  0  0  0  0  0  0  0  0  0  0  0
   -1.5245   28.5356    8.7425 H   0  0  0  0  0  0  0  0  0  0  0  0
    0.1854   30.8376    7.4941 H   0  0  0  0  0  0  0  0  0  0  0  0
    1.6211   30.1568    5.5613 H   0  0  0  0  0  0  0  0  0  0  0  0
    0.4667   25.1400    8.8017 H   0  0  0  0  0  0  0  0  0  0  0  0
   -3.3220   24.0260   10.8330 H   0  0  0  0  0  0  0  0  0  0  0  0
   -3.1782   25.7622   13.1614 H   0  0  0  0  0  0  0  0  0  0  0  0
   -4.9582   26.7223   12.3574 H   0  0  0  0  0  0  0  0  0  0  0  0
   -4.8998   25.5629   10.9609 H   0  0  0  0  0  0  0  0  0  0  0  0
   -7.1216   25.6210   12.0980 H   0  0  0  0  0  0  0  0  0  0  0  0
   -6.3324   24.0027   12.1318 H   0  0  0  0  0  0  0  0  0  0  0  0
   -7.9846   25.6503   16.8726 H   0  0  0  0  0  0  0  0  0  0  0  0
   -7.2193   26.7678   15.6926 H   0  0  0  0  0  0  0  0  0  0  0  0
   -9.0017   26.5447   15.6926 H   0  0  0  0  0  0  0  0  0  0  0  0
   -4.7066   25.4566   15.2202 H   0  0  0  0  0  0  0  0  0  0  0  0
   -5.4522   23.8173   15.4399 H   0  0  0  0  0  0  0  0  0  0  0  0
   -3.2094   23.7311   14.3575 H   0  0  0  0  0  0  0  0  0  0  0  0
   -4.5328   23.0662   13.3292 H   0  0  0  0  0  0  0  0  0  0  0  0
    0.2980   28.6260   12.0180 H   0  0  0  0  0  0  0  0  0  0  0  0
   -0.6140   27.9560   13.1640 H   0  0  0  0  0  0  0  0  0  0  0  0
  1  2  1  0
  2  3  1  0
  3  4  2  0
  4  5  1  0
  5  6  2  0
  6  7  1  0
  6  8  1  0
  8  9  1  0
  8 10  2  0
 10 11  1  0
 11 12  2  0
 11 13  1  0
 13 14  2  0
 14 15  1  0
 15 16  2  0
 16 17  1  0
 17 18  1  0
 18 19  1  0
 19 20  1  0
 20 21  1  0
 21 22  1  0
 22 23  1  0
 22 24  2  0
 22 25  2  0
 21 26  1  0
 26 27  1  0
 16 28  1  0
 28 29  2  0
 29 30  1  0
 10  3  1  0
 29 13  1  0
 27 18  1  0
  1 31  1  0
  1 32  1  0
  1 33  1  0
  4 34  1  0
  5 35  1  0
 14 36  1  0
 17 37  1  0
 18 38  1  0
 19 39  1  0
 19 40  1  0
 20 41  1  0
 20 42  1  0
 23 43  1  0
 23 44  1  0
 23 45  1  0
 26 46  1  0
 26 47  1  0
 27 48  1  0
 27 49  1  0
 30 50  1  0
 30 51  1  0
M  END
>  <meeko>  (3) 
{"is_sidechain": [false], "free_energy": -8.796, "intermolecular_energy": -11.919, "internal_energy": -1.336}

$$$$
2fvd_ligand
     RDKit          3D

 51 53  0  0  0  0  0  0  0  0999 V2000
   -0.2970   28.0090   11.9790 C   0  0  0  0  0  0  0  0  0  0  0  0
   -0.8580   29.3170   11.8360 O   0  0  0  0  0  0  0  0  0  0  0  0
   -1.9900   29.2780   11.0670 C   0  0  0  0  0  0  0  0  0  0  0  0
   -3.0670   28.4810   11.4650 C   0  0  0  0  0  0  0  0  0  0  0  0
   -4.1900   28.3720   10.6420 C   0  0  0  0  0  0  0  0  0  0  0  0
   -4.2210   29.0440    9.4230 C   0  0  0  0  0  0  0  0  0  0  0  0
   -5.2960   28.9230    8.6340 F   0  0  0  0  0  0  0  0  0  0  0  0
   -3.1440   29.8220    9.0160 C   0  0  0  0  0  0  0  0  0  0  0  0
   -3.1840   30.4480    7.8300 F   0  0  0  0  0  0  0  0  0  0  0  0
   -2.0230   29.9340    9.8330 C   0  0  0  0  0  0  0  0  0  0  0  0
   -0.9040   30.7840    9.4010 C   0  0  0  0  0  0  0  0  0  0  0  0
   -0.8440   31.9280    9.8450 O   0  0  0  0  0  0  0  0  0  0  0  0
    0.1060   30.2810    8.4450 C   0  0  0  0  0  0  0  0  0  0  0  0
    0.4930   28.9590    8.4130 C   0  0  0  0  0  0  0  0  0  0  0  0
    1.4130   28.4670    7.5590 N   0  0  0  0  0  0  0  0  0  0  0  0
    1.9900   29.3400    6.7260 C   0  0  0  0  0  0  0  0  0  0  0  0
    2.9620   28.9370    5.8350 N   0  0  0  0  0  0  0  0  0  0  0  0
    3.5390   27.5980    5.8920 C   0  0  0  0  0  0  0  0  0  0  0  0
    3.5510   26.8920    4.5300 C   0  0  0  0  0  0  0  0  0  0  0  0
    4.9640   26.5500    4.0730 C   0  0  0  0  0  0  0  0  0  0  0  0
    5.6490   25.7380    5.1030 N   0  0  0  0  0  0  0  0  0  0  0  0
    7.0840   24.9570    4.6630 S   0  0  0  0  0  0  0  0  0  0  0  0
    6.5540   23.2620    4.4950 C   0  0  0  0  0  0  0  0  0  0  0  0
    7.4660   25.4350    3.3510 O   0  0  0  0  0  0  0  0  0  0  0  0
    7.9990   25.0210    5.7820 O   0  0  0  0  0  0  0  0  0  0  0  0
    5.5140   26.1860    6.5090 C   0  0  0  0  0  0  0  0  0  0  0  0
    4.8920   27.5710    6.6050 C   0  0  0  0  0  0  0  0  0  0  0  0
    1.6820   30.6400    6.6860 N   0  0  0  0  0  0  0  0  0  0  0  0
    0.7570   31.1100    7.5440 C   0  0  0  0  0  0  0  0  0  0  0  0
    0.4470   32.4770    7.4160 N   0  0  0  0  0  0  0  0  0  0  0  0
   -0.1941   27.7690   13.0476 H   0  0  0  0  0  0  0  0  0  0  0  0
   -0.9582   27.2720   11.4997 H   0  0  0  0  0  0  0  0  0  0  0  0
    0.6927   27.9801   11.4997 H   0  0  0  0  0  0  0  0  0  0  0  0
   -3.0302   27.9416   12.4230 H   0  0  0  0  0  0  0  0  0  0  0  0
   -5.0468   27.7576   10.9556 H   0  0  0  0  0  0  0  0  0  0  0  0
    0.0241   28.2646    9.1257 H   0  0  0  0  0  0  0  0  0  0  0  0
    2.6370   29.2330    4.9180 H   0  0  0  0  0  0  0  0  0  0  0  0
    2.8624   26.9991    6.5193 H   0  0  0  0  0  0  0  0  0  0  0  0
    2.9686   25.9620    4.6076 H   0  0  0  0  0  0  0  0  0  0  0  0
    3.1126   27.5774    3.7897 H   0  0  0  0  0  0  0  0  0  0  0  0
    4.9146   25.9797    3.1337 H   0  0  0  0  0  0  0  0  0  0  0  0
    5.5270   27.4818    3.9160 H   0  0  0  0  0  0  0  0  0  0  0  0
    6.4159   22.8204    5.4930 H   0  0  0  0  0  0  0  0  0  0  0  0
    5.6024   23.2282    3.9442 H   0  0  0  0  0  0  0  0  0  0  0  0
    7.3169   22.6922    3.9442 H   0  0  0  0  0  0  0  0  0  0  0  0
    4.8766   25.4714    7.0504 H   0  0  0  0  0  0  0  0  0  0  0  0
    6.5205   26.2326    6.9504 H   0  0  0  0  0  0  0  0  0  0  0  0
    4.7489   27.8315    7.6641 H   0  0  0  0  0  0  0  0  0  0  0  0
    5.5633   28.2979    6.1245 H   0  0  0  0  0  0  0  0  0  0  0  0
    0.8560   32.8350    6.5570 H   0  0  0  0  0  0  0  0  0  0  0  0
   -0.5640   32.5600    7.2660 H   0  0  0  0  0  0  0  0  0  0  0  0
  1  2  1  0
  2  3  1  0
  3  4  2  0
  4  5  1  0
  5  6  2  0
  6  7  1  0
  6  8  1  0
  8  9  1  0
  8 10  2  0
 10 11  1  0
 11 12  2  0
 11 13  1  0
 13 14  2  0
 14 15  1  0
 15 16  2  0
 16 17  1  0
 17 18  1  0
 18 19  1  0
 19 20  1  0
 20 21  1  0
 21 22  1  0
 22 23  1  0
 22 24  2  0
 22 25  2  0
 21 26  1  0
 26 27  1  0
 16 28  1  0
 28 29  2  0
 29 30  1  0
 10  3  1  0
 29 13  1  0
 27 18  1  0
  1 31  1  0
  1 32  1  0
  1 33  1  0
  4 34  1  0
  5 35  1  0
 14 36  1  0
 17 37  1  0
 18 38  1  0
 19 39  1  0
 19 40  1  0
 20 41  1  0
 20 42  1  0
 23 43  1  0
 23 44  1  0
 23 45  1  0
 26 46  1  0
 26 47  1  0
 27 48  1  0
 27 49  1  0
 30 50  1  0
 30 51  1  0
M  END
>  <meeko>  (4) 
{"is_sidechain": [false], "free_energy": -8.613, "intermolecular_energy": -11.754, "internal_energy": -1.248}

$$$$
2fvd_ligand
     RDKit          3D

 51 53  0  0  0  0  0  0  0  0999 V2000
   -2.4000   30.8230    8.6920 C   0  0  0  0  0  0  0  0  0  0  0  0
   -2.2040   29.4160    8.8590 O   0  0  0  0  0  0  0  0  0  0  0  0
   -0.8720   29.1030    8.8140 C   0  0  0  0  0  0  0  0  0  0  0  0
   -0.2070   29.0990    7.5850 C   0  0  0  0  0  0  0  0  0  0  0  0
    1.1310   28.7000    7.5220 C   0  0  0  0  0  0  0  0  0  0  0  0
    1.7840   28.2930    8.6820 C   0  0  0  0  0  0  0  0  0  0  0  0
    3.0620   27.8980    8.6110 F   0  0  0  0  0  0  0  0  0  0  0  0
    1.1190   28.2780    9.9020 C   0  0  0  0  0  0  0  0  0  0  0  0
    1.7600   27.8640   11.0050 F   0  0  0  0  0  0  0  0  0  0  0  0
   -0.2120   28.6750    9.9690 C   0  0  0  0  0  0  0  0  0  0  0  0
   -0.8940   28.6810   11.2720 C   0  0  0  0  0  0  0  0  0  0  0  0
   -0.9140   29.7320   11.9060 O   0  0  0  0  0  0  0  0  0  0  0  0
   -1.5150   27.4510   11.8080 C   0  0  0  0  0  0  0  0  0  0  0  0
   -0.7690   26.4250   12.3460 C   0  0  0  0  0  0  0  0  0  0  0  0
   -1.3020   25.2890   12.8390 N   0  0  0  0  0  0  0  0  0  0  0  0
   -2.6310   25.1630   12.7610 C   0  0  0  0  0  0  0  0  0  0  0  0
   -3.2660   24.0250   13.2140 N   0  0  0  0  0  0  0  0  0  0  0  0
   -2.9720   23.4610   14.5280 C   0  0  0  0  0  0  0  0  0  0  0  0
   -3.2570   24.4370   15.6770 C   0  0  0  0  0  0  0  0  0  0  0  0
   -4.3160   23.9020   16.6340 C   0  0  0  0  0  0  0  0  0  0  0  0
   -3.9140   22.5740   17.1470 N   0  0  0  0  0  0  0  0  0  0  0  0
   -4.7560   21.9570   18.4780 S   0  0  0  0  0  0  0  0  0  0  0  0
   -6.2620   22.9110   18.4460 C   0  0  0  0  0  0  0  0  0  0  0  0
   -5.0970   20.5800   18.1900 O   0  0  0  0  0  0  0  0  0  0  0  0
   -4.0340   22.3160   19.6790 O   0  0  0  0  0  0  0  0  0  0  0  0
   -3.3880   21.6040   16.1570 C   0  0  0  0  0  0  0  0  0  0  0  0
   -3.6010   22.0820   14.7280 C   0  0  0  0  0  0  0  0  0  0  0  0
   -3.4350   26.1030   12.2560 N   0  0  0  0  0  0  0  0  0  0  0  0
   -2.8840   27.2320   11.7730 C   0  0  0  0  0  0  0  0  0  0  0  0
   -3.7910   28.1980   11.2990 N   0  0  0  0  0  0  0  0  0  0  0  0
   -2.4669   31.3036    9.6792 H   0  0  0  0  0  0  0  0  0  0  0  0
   -1.5523   31.2476    8.1342 H   0  0  0  0  0  0  0  0  0  0  0  0
   -3.3314   30.9998    8.1342 H   0  0  0  0  0  0  0  0  0  0  0  0
   -0.7345   29.4087    6.6707 H   0  0  0  0  0  0  0  0  0  0  0  0
    1.6654   28.7076    6.5605 H   0  0  0  0  0  0  0  0  0  0  0  0
    0.3247   26.5394   12.3749 H   0  0  0  0  0  0  0  0  0  0  0  0
   -4.2520   24.1570   13.0080 H   0  0  0  0  0  0  0  0  0  0  0  0
   -1.8847   23.2970   14.5558 H   0  0  0  0  0  0  0  0  0  0  0  0
   -2.3258   24.6069   16.2374 H   0  0  0  0  0  0  0  0  0  0  0  0
   -3.6364   25.3727   15.2406 H   0  0  0  0  0  0  0  0  0  0  0  0
   -4.4292   24.5988   17.4776 H   0  0  0  0  0  0  0  0  0  0  0  0
   -5.2710   23.8061   16.0967 H   0  0  0  0  0  0  0  0  0  0  0  0
   -6.5874   23.1171   19.4763 H   0  0  0  0  0  0  0  0  0  0  0  0
   -6.0832   23.8609   17.9210 H   0  0  0  0  0  0  0  0  0  0  0  0
   -7.0445   22.3435   17.9210 H   0  0  0  0  0  0  0  0  0  0  0  0
   -2.3102   21.4681   16.3299 H   0  0  0  0  0  0  0  0  0  0  0  0
   -3.9320   20.6565   16.2849 H   0  0  0  0  0  0  0  0  0  0  0  0
   -3.1355   21.3671   14.0335 H   0  0  0  0  0  0  0  0  0  0  0  0
   -4.6812   22.1507   14.5320 H   0  0  0  0  0  0  0  0  0  0  0  0
   -3.4770   28.5410   10.3950 H   0  0  0  0  0  0  0  0  0  0  0  0
   -4.6780   27.7280   11.0940 H   0  0  0  0  0  0  0  0  0  0  0  0
  1  2  1  0
  2  3  1  0
  3  4  2  0
  4  5  1  0
  5  6  2  0
  6  7  1  0
  6  8  1  0
  8  9  1  0
  8 10  2  0
 10 11  1  0
 11 12  2  0
 11 13  1  0
 13 14  2  0
 14 15  1  0
 15 16  2  0
 16 17  1  0
 17 18  1  0
 18 19  1  0
 19 20  1  0
 20 21  1  0
 21 22  1  0
 22 23  1  0
 22 24  2  0
 22 25  2  0
 21 26  1  0
 26 27  1  0
 16 28  1  0
 28 29  2  0
 29 30  1  0
 10  3  1  0
 29 13  1  0
 27 18  1  0
  1 31  1  0
  1 32  1  0
  1 33  1  0
  4 34  1  0
  5 35  1  0
 14 36  1  0
 17 37  1  0
 18 38  1  0
 19 39  1  0
 19 40  1  0
 20 41  1  0
 20 42  1  0
 23 43  1  0
 23 44  1  0
 23 45  1  0
 26 46  1  0
 26 47  1  0
 27 48  1  0
 27 49  1  0
 30 50  1  0
 30 51  1  0
M  END
>  <meeko>  (5) 
{"is_sidechain": [false], "free_energy": -8.612, "intermolecular_energy": -11.57, "internal_energy": -1.431}

$$$$
2fvd_ligand
     RDKit          3D

 51 53  0  0  0  0  0  0  0  0999 V2000
    0.8370   28.7220   10.0500 C   0  0  0  0  0  0  0  0  0  0  0  0
    0.0730   28.5700   11.2500 O   0  0  0  0  0  0  0  0  0  0  0  0
   -1.2220   28.9690   11.0540 C   0  0  0  0  0  0  0  0  0  0  0  0
   -1.5320   30.3320   11.0650 C   0  0  0  0  0  0  0  0  0  0  0  0
   -2.8620   30.7410   10.9500 C   0  0  0  0  0  0  0  0  0  0  0  0
   -3.8710   29.7870   10.8410 C   0  0  0  0  0  0  0  0  0  0  0  0
   -5.1450   30.1880   10.7450 F   0  0  0  0  0  0  0  0  0  0  0  0
   -3.5670   28.4310   10.8480 C   0  0  0  0  0  0  0  0  0  0  0  0
   -4.5540   27.5260   10.7620 F   0  0  0  0  0  0  0  0  0  0  0  0
   -2.2430   28.0190   10.9630 C   0  0  0  0  0  0  0  0  0  0  0  0
   -1.9360   26.5820   10.9400 C   0  0  0  0  0  0  0  0  0  0  0  0
   -1.4820   26.1060    9.9020 O   0  0  0  0  0  0  0  0  0  0  0  0
   -2.1860   25.7330   12.1250 C   0  0  0  0  0  0  0  0  0  0  0  0
   -3.4090   25.1450   12.3630 C   0  0  0  0  0  0  0  0  0  0  0  0
   -3.6730   24.3710   13.4350 N   0  0  0  0  0  0  0  0  0  0  0  0
   -2.6830   24.2060   14.3180 C   0  0  0  0  0  0  0  0  0  0  0  0
   -2.8660   23.4540   15.4590 N   0  0  0  0  0  0  0  0  0  0  0  0
   -4.2010   23.1160   15.9430 C   0  0  0  0  0  0  0  0  0  0  0  0
   -4.3070   21.6720   16.4510 C   0  0  0  0  0  0  0  0  0  0  0  0
   -4.6910   21.6100   17.9240 C   0  0  0  0  0  0  0  0  0  0  0  0
   -5.9520   22.3520   18.1520 N   0  0  0  0  0  0  0  0  0  0  0  0
   -6.7440   22.1210   19.6300 S   0  0  0  0  0  0  0  0  0  0  0  0
   -5.3860   22.1040   20.7860 C   0  0  0  0  0  0  0  0  0  0  0  0
   -7.5400   23.3000   19.8970 O   0  0  0  0  0  0  0  0  0  0  0  0
   -7.3340   20.8000   19.6270 O   0  0  0  0  0  0  0  0  0  0  0  0
   -6.0730   23.6800   17.5080 C   0  0  0  0  0  0  0  0  0  0  0  0
   -4.7480   24.1510   16.9260 C   0  0  0  0  0  0  0  0  0  0  0  0
   -1.4650   24.7370   14.1730 N   0  0  0  0  0  0  0  0  0  0  0  0
   -1.2200   25.5040   13.0940 C   0  0  0  0  0  0  0  0  0  0  0  0
    0.0950   25.9920   12.9800 N   0  0  0  0  0  0  0  0  0  0  0  0
    1.8860   28.9307   10.3071 H   0  0  0  0  0  0  0  0  0  0  0  0
    0.7815   27.7952    9.4601 H   0  0  0  0  0  0  0  0  0  0  0  0
    0.4310   29.5570    9.4601 H   0  0  0  0  0  0  0  0  0  0  0  0
   -0.7311   31.0795   11.1639 H   0  0  0  0  0  0  0  0  0  0  0  0
   -3.1120   31.8122   10.9455 H   0  0  0  0  0  0  0  0  0  0  0  0
   -4.2168   25.3169   11.6364 H   0  0  0  0  0  0  0  0  0  0  0  0
   -2.2200   22.6720   15.3830 H   0  0  0  0  0  0  0  0  0  0  0  0
   -4.8655   23.1602   15.0675 H   0  0  0  0  0  0  0  0  0  0  0  0
   -5.0718   21.1441   15.8624 H   0  0  0  0  0  0  0  0  0  0  0  0
   -3.3201   21.1995   16.3378 H   0  0  0  0  0  0  0  0  0  0  0  0
   -4.8281   20.5596   18.2205 H   0  0  0  0  0  0  0  0  0  0  0  0
   -3.8905   22.0667   18.5246 H   0  0  0  0  0  0  0  0  0  0  0  0
   -5.7790   22.1089   21.8134 H   0  0  0  0  0  0  0  0  0  0  0  0
   -4.7820   21.1982   20.6288 H   0  0  0  0  0  0  0  0  0  0  0  0
   -4.7595   22.9944   20.6288 H   0  0  0  0  0  0  0  0  0  0  0  0
   -6.8146   23.6163   16.6981 H   0  0  0  0  0  0  0  0  0  0  0  0
   -6.3850   24.4039   18.2752 H   0  0  0  0  0  0  0  0  0  0  0  0
   -4.9015   25.1049   16.4001 H   0  0  0  0  0  0  0  0  0  0  0  0
   -4.0251   24.2833   17.7445 H   0  0  0  0  0  0  0  0  0  0  0  0
    0.4990   26.0900   13.9080 H   0  0  0  0  0  0  0  0  0  0  0  0
    0.6650   25.2670   12.5330 H   0  0  0  0  0  0  0  0  0  0  0  0
  1  2  1  0
  2  3  1  0
  3  4  2  0
  4  5  1  0
  5  6  2  0
  6  7  1  0
  6  8  1  0
  8  9  1  0
  8 10  2  0
 10 11  1  0
 11 12  2  0
 11 13  1  0
 13 14  2  0
 14 15  1  0
 15 16  2  0
 16 17  1  0
 17 18  1  0
 18 19  1  0
 19 20  1  0
 20 21  1  0
 21 22  1  0
 22 23  1  0
 22 24  2  0
 22 25  2  0
 21 26  1  0
 26 27  1  0
 16 28  1  0
 28 29  2  0
 29 30  1  0
 10  3  1  0
 29 13  1  0
 27 18  1  0
  1 31  1  0
  1 32  1  0
  1 33  1  0
  4 34  1  0
  5 35  1  0
 14 36  1  0
 17 37  1  0
 18 38  1  0
 19 39  1  0
 19 40  1  0
 20 41  1  0
 20 42  1  0
 23 43  1  0
 23 44  1  0
 23 45  1  0
 26 46  1  0
 26 47  1  0
 27 48  1  0
 27 49  1  0
 30 50  1  0
 30 51  1  0
M  END
>  <meeko>  (6) 
{"is_sidechain": [false], "free_energy": -8.581, "intermolecular_energy": -11.748, "internal_energy": -1.211}

$$$$
2fvd_ligand
     RDKit          3D

 51 53  0  0  0  0  0  0  0  0999 V2000
   -4.2680   29.5560    9.2360 C   0  0  0  0  0  0  0  0  0  0  0  0
   -3.5950   29.5580   10.4980 O   0  0  0  0  0  0  0  0  0  0  0  0
   -3.5810   28.3010   11.0420 C   0  0  0  0  0  0  0  0  0  0  0  0
   -4.7780   27.5890   11.1610 C   0  0  0  0  0  0  0  0  0  0  0  0
   -4.7820   26.3420   11.7900 C   0  0  0  0  0  0  0  0  0  0  0  0
   -3.5970   25.8270   12.3090 C   0  0  0  0  0  0  0  0  0  0  0  0
   -3.6130   24.6370   12.9230 F   0  0  0  0  0  0  0  0  0  0  0  0
   -2.4090   26.5410   12.2080 C   0  0  0  0  0  0  0  0  0  0  0  0
   -1.2820   26.0370   12.7310 F   0  0  0  0  0  0  0  0  0  0  0  0
   -2.4010   27.7840   11.5820 C   0  0  0  0  0  0  0  0  0  0  0  0
   -1.1310   28.5140   11.4580 C   0  0  0  0  0  0  0  0  0  0  0  0
   -0.7050   29.1010   12.4480 O   0  0  0  0  0  0  0  0  0  0  0  0
   -0.4030   28.5570   10.1710 C   0  0  0  0  0  0  0  0  0  0  0  0
    0.2220   27.4490    9.6430 C   0  0  0  0  0  0  0  0  0  0  0  0
    0.8970   27.4530    8.4770 N   0  0  0  0  0  0  0  0  0  0  0  0
    0.9750   28.6210    7.8290 C   0  0  0  0  0  0  0  0  0  0  0  0
    1.6680   28.7310    6.6420 N   0  0  0  0  0  0  0  0  0  0  0  0
    3.1110   28.5210    6.5800 C   0  0  0  0  0  0  0  0  0  0  0  0
    3.7540   28.3600    7.9640 C   0  0  0  0  0  0  0  0  0  0  0  0
    4.4280   27.0040    8.1300 C   0  0  0  0  0  0  0  0  0  0  0  0
    5.4190   26.7930    7.0510 N   0  0  0  0  0  0  0  0  0  0  0  0
    6.5240   25.5240    7.2360 S   0  0  0  0  0  0  0  0  0  0  0  0
    5.4550   24.1420    7.5880 C   0  0  0  0  0  0  0  0  0  0  0  0
    7.1480   25.2880    5.9510 O   0  0  0  0  0  0  0  0  0  0  0  0
    7.3150   25.7800    8.4190 O   0  0  0  0  0  0  0  0  0  0  0  0
    4.9960   27.1400    5.6750 C   0  0  0  0  0  0  0  0  0  0  0  0
    3.5020   27.4180    5.5940 C   0  0  0  0  0  0  0  0  0  0  0  0
    0.4030   29.7470    8.2640 N   0  0  0  0  0  0  0  0  0  0  0  0
   -0.2700   29.7210    9.4290 C   0  0  0  0  0  0  0  0  0  0  0  0
   -0.8870   30.9290    9.8030 N   0  0  0  0  0  0  0  0  0  0  0  0
   -5.3556   29.5528    9.4005 H   0  0  0  0  0  0  0  0  0  0  0  0
   -3.9857   30.4550    8.6685 H   0  0  0  0  0  0  0  0  0  0  0  0
   -3.9803   28.6587    8.6685 H   0  0  0  0  0  0  0  0  0  0  0  0
   -5.7127   28.0090   10.7610 H   0  0  0  0  0  0  0  0  0  0  0  0
   -5.7172   25.7692   11.8750 H   0  0  0  0  0  0  0  0  0  0  0  0
    0.1668   26.5057   10.2062 H   0  0  0  0  0  0  0  0  0  0  0  0
    1.1230   28.2170    5.9540 H   0  0  0  0  0  0  0  0  0  0  0  0
    3.5384   29.4487    6.1718 H   0  0  0  0  0  0  0  0  0  0  0  0
    4.5081   29.1495    8.0985 H   0  0  0  0  0  0  0  0  0  0  0  0
    2.9568   28.4359    8.7181 H   0  0  0  0  0  0  0  0  0  0  0  0
    4.9376   26.9678    9.1042 H   0  0  0  0  0  0  0  0  0  0  0  0
    3.6647   26.2137    8.0773 H   0  0  0  0  0  0  0  0  0  0  0  0
    5.3604   24.0197    8.6771 H   0  0  0  0  0  0  0  0  0  0  0  0
    4.4620   24.3262    7.1521 H   0  0  0  0  0  0  0  0  0  0  0  0
    5.8828   23.2272    7.1521 H   0  0  0  0  0  0  0  0  0  0  0  0
    5.5429   28.0375    5.3505 H   0  0  0  0  0  0  0  0  0  0  0  0
    5.2191   26.2825    5.0232 H   0  0  0  0  0  0  0  0  0  0  0  0
    3.2476   27.7378    4.5727 H   0  0  0  0  0  0  0  0  0  0  0  0
    2.9535   26.4995    5.8499 H   0  0  0  0  0  0  0  0  0  0  0  0
   -1.7270   31.0650    9.2460 H   0  0  0  0  0  0  0  0  0  0  0  0
   -1.2360   30.8250   10.7600 H   0  0  0  0  0  0  0  0  0  0  0  0
  1  2  1  0
  2  3  1  0
  3  4  2  0
  4  5  1  0
  5  6  2  0
  6  7  1  0
  6  8  1  0
  8  9  1  0
  8 10  2  0
 10 11  1  0
 11 12  2  0
 11 13  1  0
 13 14  2  0
 14 15  1  0
 15 16  2  0
 16 17  1  0
 17 18  1  0
 18 19  1  0
 19 20  1  0
 20 21  1  0
 21 22  1  0
 22 23  1  0
 22 24  2  0
 22 25  2  0
 21 26  1  0
 26 27  1  0
 16 28  1  0
 28 29  2  0
 29 30  1  0
 10  3  1  0
 29 13  1  0
 27 18  1  0
  1 31  1  0
  1 32  1  0
  1 33  1  0
  4 34  1  0
  5 35  1  0
 14 36  1  0
 17 37  1  0
 18 38  1  0
 19 39  1  0
 19 40  1  0
 20 41  1  0
 20 42  1  0
 23 43  1  0
 23 44  1  0
 23 45  1  0
 26 46  1  0
 26 47  1  0
 27 48  1  0
 27 49  1  0
 30 50  1  0
 30 51  1  0
M  END
>  <meeko>  (7) 
{"is_sidechain": [false], "free_energy": -8.491, "intermolecular_energy": -11.505, "internal_energy": -1.329}

$$$$
2fvd_ligand
     RDKit          3D

 51 53  0  0  0  0  0  0  0  0999 V2000
    1.2320   30.5160    6.4950 C   0  0  0  0  0  0  0  0  0  0  0  0
    0.8990   29.1940    6.9290 O   0  0  0  0  0  0  0  0  0  0  0  0
    2.0100   28.5420    7.3930 C   0  0  0  0  0  0  0  0  0  0  0  0
    3.0800   28.3030    6.5270 C   0  0  0  0  0  0  0  0  0  0  0  0
    4.1800   27.5650    6.9720 C   0  0  0  0  0  0  0  0  0  0  0  0
    4.1930   27.0600    8.2700 C   0  0  0  0  0  0  0  0  0  0  0  0
    5.2450   26.3430    8.6840 F   0  0  0  0  0  0  0  0  0  0  0  0
    3.1220   27.2810    9.1270 C   0  0  0  0  0  0  0  0  0  0  0  0
    3.1450   26.7710   10.3670 F   0  0  0  0  0  0  0  0  0  0  0  0
    2.0250   28.0160    8.6880 C   0  0  0  0  0  0  0  0  0  0  0  0
    0.9120   28.2660    9.6160 C   0  0  0  0  0  0  0  0  0  0  0  0
    0.6980   29.4250    9.9600 O   0  0  0  0  0  0  0  0  0  0  0  0
    0.0920   27.1490   10.1350 C   0  0  0  0  0  0  0  0  0  0  0  0
   -0.4600   26.1970    9.3070 C   0  0  0  0  0  0  0  0  0  0  0  0
   -1.2160   25.1700    9.7450 N   0  0  0  0  0  0  0  0  0  0  0  0
   -1.4530   25.1140   11.0600 C   0  0  0  0  0  0  0  0  0  0  0  0
   -2.2380   24.1160   11.5990 N   0  0  0  0  0  0  0  0  0  0  0  0
   -2.4470   24.0070   13.0400 C   0  0  0  0  0  0  0  0  0  0  0  0
   -3.5510   24.9380   13.5580 C   0  0  0  0  0  0  0  0  0  0  0  0
   -4.6980   24.1660   14.1990 C   0  0  0  0  0  0  0  0  0  0  0  0
   -4.1840   23.2920   15.2770 N   0  0  0  0  0  0  0  0  0  0  0  0
   -5.3090   22.6180   16.3470 S   0  0  0  0  0  0  0  0  0  0  0  0
   -4.7510   23.2410   17.9220 C   0  0  0  0  0  0  0  0  0  0  0  0
   -6.5990   23.2100   16.0660 O   0  0  0  0  0  0  0  0  0  0  0  0
   -5.1260   21.1830   16.3530 O   0  0  0  0  0  0  0  0  0  0  0  0
   -2.9630   22.5070   14.9790 C   0  0  0  0  0  0  0  0  0  0  0  0
   -2.6040   22.5570   13.5010 C   0  0  0  0  0  0  0  0  0  0  0  0
   -0.9630   25.9930   11.9390 N   0  0  0  0  0  0  0  0  0  0  0  0
   -0.2070   27.0080   11.4820 C   0  0  0  0  0  0  0  0  0  0  0  0
    0.3160   27.8680   12.4650 N   0  0  0  0  0  0  0  0  0  0  0  0
    1.3942   31.1599    7.3720 H   0  0  0  0  0  0  0  0  0  0  0  0
    2.1499   30.4829    5.8897 H   0  0  0  0  0  0  0  0  0  0  0  0
    0.4080   30.9217    5.8897 H   0  0  0  0  0  0  0  0  0  0  0  0
    3.0566   28.6941    5.4992 H   0  0  0  0  0  0  0  0  0  0  0  0
    5.0319   27.3837    6.3001 H   0  0  0  0  0  0  0  0  0  0  0  0
   -0.2734   26.2792    8.2261 H   0  0  0  0  0  0  0  0  0  0  0  0
   -3.0820   24.0920   11.0340 H   0  0  0  0  0  0  0  0  0  0  0  0
   -1.5227   24.3697   13.5135 H   0  0  0  0  0  0  0  0  0  0  0  0
   -3.1190   25.6181   14.3069 H   0  0  0  0  0  0  0  0  0  0  0  0
   -3.9552   25.4945   12.6995 H   0  0  0  0  0  0  0  0  0  0  0  0
   -5.4233   24.8768   14.6218 H   0  0  0  0  0  0  0  0  0  0  0  0
   -5.1853   23.5443   13.4335 H   0  0  0  0  0  0  0  0  0  0  0  0
   -5.2474   22.6868   18.7322 H   0  0  0  0  0  0  0  0  0  0  0  0
   -3.6617   23.1110   18.0026 H   0  0  0  0  0  0  0  0  0  0  0  0
   -4.9997   24.3095   18.0026 H   0  0  0  0  0  0  0  0  0  0  0  0
   -2.1254   22.9166   15.5626 H   0  0  0  0  0  0  0  0  0  0  0  0
   -3.1575   21.4582   15.2477 H   0  0  0  0  0  0  0  0  0  0  0  0
   -1.6573   22.0206   13.3395 H   0  0  0  0  0  0  0  0  0  0  0  0
   -3.4100   22.0833   12.9215 H   0  0  0  0  0  0  0  0  0  0  0  0
    0.6020   27.3210   13.2730 H   0  0  0  0  0  0  0  0  0  0  0  0
    1.1920   28.2650   12.1090 H   0  0  0  0  0  0  0  0  0  0  0  0
  1  2  1  0
  2  3  1  0
  3  4  2  0
  4  5  1  0
  5  6  2  0
  6  7  1  0
  6  8  1  0
  8  9  1  0
  8 10  2  0
 10 11  1  0
 11 12  2  0
 11 13  1  0
 13 14  2  0
 14 15  1  0
 15 16  2  0
 16 17  1  0
 17 18  1  0
 18 19  1  0
 19 20  1  0
 20 21  1  0
 21 22  1  0
 22 23  1  0
 22 24  2  0
 22 25  2  0
 21 26  1  0
 26 27  1  0
 16 28  1  0
 28 29  2  0
 29 30  1  0
 10  3  1  0
 29 13  1  0
 27 18  1  0
  1 31  1  0
  1 32  1  0
  1 33  1  0
  4 34  1  0
  5 35  1  0
 14 36  1  0
 17 37  1  0
 18 38  1  0
 19 39  1  0
 19 40  1  0
 20 41  1  0
 20 42  1  0
 23 43  1  0
 23 44  1  0
 23 45  1  0
 26 46  1  0
 26 47  1  0
 27 48  1  0
 27 49  1  0
 30 50  1  0
 30 51  1  0
M  END
>  <meeko>  (8) 
{"is_sidechain": [false], "free_energy": -8.312, "intermolecular_energy": -11.668, "internal_energy": -0.919}

$$$$
2fvd_ligand
     RDKit          3D

 51 53  0  0  0  0  0  0  0  0999 V2000
    0.2300   25.3730   11.8710 C   0  0  0  0  0  0  0  0  0  0  0  0
   -0.7460   25.7920   12.8290 O   0  0  0  0  0  0  0  0  0  0  0  0
   -1.8040   26.4010   12.2090 C   0  0  0  0  0  0  0  0  0  0  0  0
   -1.6120   27.6260   11.5640 C   0  0  0  0  0  0  0  0  0  0  0  0
   -2.7030   28.2930   11.0020 C   0  0  0  0  0  0  0  0  0  0  0  0
   -3.9770   27.7390   11.1060 C   0  0  0  0  0  0  0  0  0  0  0  0
   -5.0200   28.3910   10.5770 F   0  0  0  0  0  0  0  0  0  0  0  0
   -4.1740   26.5310   11.7640 C   0  0  0  0  0  0  0  0  0  0  0  0
   -5.4110   26.0230   11.8700 F   0  0  0  0  0  0  0  0  0  0  0  0
   -3.0890   25.8640   12.3240 C   0  0  0  0  0  0  0  0  0  0  0  0
   -3.3090   24.5720   12.9910 C   0  0  0  0  0  0  0  0  0  0  0  0
   -3.0300   23.5490   12.3720 O   0  0  0  0  0  0  0  0  0  0  0  0
   -3.8690   24.5110   14.3590 C   0  0  0  0  0  0  0  0  0  0  0  0
   -5.1990   24.2450   14.5970 C   0  0  0  0  0  0  0  0  0  0  0  0
   -5.7440   24.1860   15.8280 N   0  0  0  0  0  0  0  0  0  0  0  0
   -4.9300   24.4350   16.8600 C   0  0  0  0  0  0  0  0  0  0  0  0
   -5.4010   24.4260   18.1560 N   0  0  0  0  0  0  0  0  0  0  0  0
   -6.4610   25.3320   18.5880 C   0  0  0  0  0  0  0  0  0  0  0  0
   -6.2590   26.7710   18.0950 C   0  0  0  0  0  0  0  0  0  0  0  0
   -7.4010   27.2370   17.2000 C   0  0  0  0  0  0  0  0  0  0  0  0
   -8.6930   27.0900   17.9070 N   0  0  0  0  0  0  0  0  0  0  0  0
  -10.0430   27.8660   17.2460 S   0  0  0  0  0  0  0  0  0  0  0  0
  -11.3460   26.6910   17.5650 C   0  0  0  0  0  0  0  0  0  0  0  0
  -10.3080   29.0490   18.0370 O   0  0  0  0  0  0  0  0  0  0  0  0
   -9.8650   27.9450   15.8130 O   0  0  0  0  0  0  0  0  0  0  0  0
   -8.9180   25.8180   18.6340 C   0  0  0  0  0  0  0  0  0  0  0  0
   -7.8580   24.7790   18.3000 C   0  0  0  0  0  0  0  0  0  0  0  0
   -3.6280   24.7040   16.7270 N   0  0  0  0  0  0  0  0  0  0  0  0
   -3.1030   24.7540   15.4890 C   0  0  0  0  0  0  0  0  0  0  0  0
   -1.7170   24.9950   15.4240 N   0  0  0  0  0  0  0  0  0  0  0  0
    1.1185   24.9916   12.3955 H   0  0  0  0  0  0  0  0  0  0  0  0
   -0.1932   24.5773   11.2404 H   0  0  0  0  0  0  0  0  0  0  0  0
    0.5154   26.2279   11.2404 H   0  0  0  0  0  0  0  0  0  0  0  0
   -0.6048   28.0635   11.4992 H   0  0  0  0  0  0  0  0  0  0  0  0
   -2.5571   29.2503   10.4802 H   0  0  0  0  0  0  0  0  0  0  0  0
   -5.8550   24.0704   13.7315 H   0  0  0  0  0  0  0  0  0  0  0  0
   -5.5410   23.4470   18.3930 H   0  0  0  0  0  0  0  0  0  0  0  0
   -6.3856   25.3923   19.6838 H   0  0  0  0  0  0  0  0  0  0  0  0
   -6.1966   27.4389   18.9668 H   0  0  0  0  0  0  0  0  0  0  0  0
   -5.3323   26.7989   17.5031 H   0  0  0  0  0  0  0  0  0  0  0  0
   -7.2487   28.2940   16.9363 H   0  0  0  0  0  0  0  0  0  0  0  0
   -7.4175   26.6226   16.2877 H   0  0  0  0  0  0  0  0  0  0  0  0
  -11.4761   26.5736   18.6510 H   0  0  0  0  0  0  0  0  0  0  0  0
  -12.2843   27.0543   17.1204 H   0  0  0  0  0  0  0  0  0  0  0  0
  -11.0813   25.7203   17.1204 H   0  0  0  0  0  0  0  0  0  0  0  0
   -8.8926   26.0171   19.7155 H   0  0  0  0  0  0  0  0  0  0  0  0
   -9.8959   25.4183   18.3275 H   0  0  0  0  0  0  0  0  0  0  0  0
   -8.0255   23.8804   18.9119 H   0  0  0  0  0  0  0  0  0  0  0  0
   -7.9291   24.5269   17.2316 H   0  0  0  0  0  0  0  0  0  0  0  0
   -1.4540   25.1860   14.4610 H   0  0  0  0  0  0  0  0  0  0  0  0
   -1.5240   25.8720   15.9170 H   0  0  0  0  0  0  0  0  0  0  0  0
  1  2  1  0
  2  3  1  0
  3  4  2  0
  4  5  1  0
  5  6  2  0
  6  7  1  0
  6  8  1  0
  8  9  1  0
  8 10  2  0
 10 11  1  0
 11 12  2  0
 11 13  1  0
 13 14  2  0
 14 15  1  0
 15 16  2  0
 16 17  1  0
 17 18  1  0
 18 19  1  0
 19 20  1  0
 20 21  1  0
 21 22  1  0
 22 23  1  0
 22 24  2  0
 22 25  2  0
 21 26  1  0
 26 27  1  0
 16 28  1  0
 28 29  2  0
 29 30  1  0
 10  3  1  0
 29 13  1  0
 27 18  1  0
  1 31  1  0
  1 32  1  0
  1 33  1  0
  4 34  1  0
  5 35  1  0
 14 36  1  0
 17 37  1  0
 18 38  1  0
 19 39  1  0
 19 40  1  0
 20 41  1  0
 20 42  1  0
 23 43  1  0
 23 44  1  0
 23 45  1  0
 26 46  1  0
 26 47  1  0
 27 48  1  0
 27 49  1  0
 30 50  1  0
 30 51  1  0
M  END
>  <meeko>  (9) 
{"is_sidechain": [false], "free_energy": -8.235, "intermolecular_energy": -11.105, "internal_energy": -1.376}

$$$$
