2wca_ligand
     RDKit          3D

 50 51  0  0  0  0  0  0  0  0999 V2000
   -6.1780  -14.6880    7.3350 C   0  0  0  0  0  0  0  0  0  0  0  0
   -5.1410  -15.6840    6.8420 C   0  0  0  0  0  0  0  0  0  0  0  0
   -5.7440  -17.0730    6.6510 C   0  0  0  0  0  0  0  0  0  0  0  0
   -5.9330  -17.8010    7.9680 C   0  0  0  0  0  0  0  0  0  0  0  0
   -5.0300  -18.0330    8.7640 O   0  0  0  0  0  0  0  0  0  0  0  0
   -7.2280  -18.2110    8.1800 N   0  0  0  0  0  0  0  0  0  0  0  0
   -7.7060  -18.7500    9.4680 C   0  0  1  0  0  0  0  0  0  0  0  0
   -8.7800  -17.7800    9.9570 C   0  0  0  0  0  0  0  0  0  0  0  0
   -8.6290  -16.5110    9.7260 N   0  0  0  0  0  0  0  0  0  0  0  0
   -9.6950  -15.7720   10.2770 O   0  0  0  0  0  0  0  0  0  0  0  0
  -10.3990  -15.1230    9.2890 C   0  0  0  0  0  0  0  0  0  0  0  0
  -11.6010  -15.2560    9.0900 O   0  0  0  0  0  0  0  0  0  0  0  0
   -9.5260  -14.3170    8.6010 N   0  0  0  0  0  0  0  0  0  0  0  0
   -9.7910  -13.4670    7.5140 C   0  0  0  0  0  0  0  0  0  0  0  0
  -10.4400  -13.8740    6.3460 C   0  0  0  0  0  0  0  0  0  0  0  0
  -10.6660  -12.9640    5.3090 C   0  0  0  0  0  0  0  0  0  0  0  0
  -10.2460  -11.6420    5.4300 C   0  0  0  0  0  0  0  0  0  0  0  0
   -9.5980  -11.2270    6.5900 C   0  0  0  0  0  0  0  0  0  0  0  0
   -9.3710  -12.1350    7.6270 C   0  0  0  0  0  0  0  0  0  0  0  0
   -9.8270  -18.2300   10.6680 O   0  0  0  0  0  0  0  0  0  0  0  0
  -10.2690  -19.6000   10.5720 C   0  0  2  0  0  0  0  0  0  0  0  0
  -11.2000  -19.8810   11.7600 C   0  0  0  0  0  0  0  0  0  0  0  0
  -12.1490  -18.8240   11.9240 O   0  0  0  0  0  0  0  0  0  0  0  0
   -9.0900  -20.5570   10.5530 C   0  0  1  0  0  0  0  0  0  0  0  0
   -9.5340  -21.9080   10.4060 O   0  0  0  0  0  0  0  0  0  0  0  0
   -8.1810  -20.2030    9.3780 C   0  0  2  0  0  0  0  0  0  0  0  0
   -7.0910  -21.1410    9.4470 O   0  0  0  0  0  0  0  0  0  0  0  0
   -6.1856  -14.6807    8.4350 H   0  0  0  0  0  0  0  0  0  0  0  0
   -5.9273  -13.6835    6.9634 H   0  0  0  0  0  0  0  0  0  0  0  0
   -7.1716  -14.9790    6.9634 H   0  0  0  0  0  0  0  0  0  0  0  0
   -4.7386  -15.3339    5.8800 H   0  0  0  0  0  0  0  0  0  0  0  0
   -4.3449  -15.7550    7.5977 H   0  0  0  0  0  0  0  0  0  0  0  0
   -6.7227  -16.9699    6.1595 H   0  0  0  0  0  0  0  0  0  0  0  0
   -5.0476  -17.6621    6.0362 H   0  0  0  0  0  0  0  0  0  0  0  0
   -7.9460  -17.7500    7.6190 H   0  0  0  0  0  0  0  0  0  0  0  0
   -6.8843  -18.8112   10.1968 H   0  0  0  0  0  0  0  0  0  0  0  0
   -8.5760  -14.3640    8.9410 H   0  0  0  0  0  0  0  0  0  0  0  0
  -10.7752  -14.9165    6.2415 H   0  0  0  0  0  0  0  0  0  0  0  0
  -11.1781  -13.2940    4.3931 H   0  0  0  0  0  0  0  0  0  0  0  0
  -10.4255  -10.9285    4.6123 H   0  0  0  0  0  0  0  0  0  0  0  0
   -9.2645  -10.1836    6.6901 H   0  0  0  0  0  0  0  0  0  0  0  0
   -8.8577  -11.8012    8.5409 H   0  0  0  0  0  0  0  0  0  0  0  0
  -10.8121  -19.7555    9.6281 H   0  0  0  0  0  0  0  0  0  0  0  0
  -11.7379  -20.8237   11.5813 H   0  0  0  0  0  0  0  0  0  0  0  0
  -10.5923  -19.9535   12.6740 H   0  0  0  0  0  0  0  0  0  0  0  0
  -11.8990  -18.3300   12.7230 H   0  0  0  0  0  0  0  0  0  0  0  0
   -8.5458  -20.4651   11.5045 H   0  0  0  0  0  0  0  0  0  0  0  0
   -9.3640  -22.1260    9.4640 H   0  0  0  0  0  0  0  0  0  0  0  0
   -8.7017  -20.2753    8.4117 H   0  0  0  0  0  0  0  0  0  0  0  0
   -6.3090  -20.7020    9.0360 H   0  0  0  0  0  0  0  0  0  0  0  0
  1  2  1  0
  2  3  1  0
  3  4  1  0
  4  5  2  0
  4  6  1  0
  6  7  1  0
  7  8  1  0
  8  9  2  0
  9 10  1  0
 10 11  1  0
 11 12  2  0
 11 13  1  0
 13 14  1  0
 14 15  2  0
 15 16  1  0
 16 17  2  0
 17 18  1  0
 18 19  2  0
  8 20  1  0
 20 21  1  0
 21 22  1  0
 22 23  1  0
 21 24  1  0
 24 25  1  0
 24 26  1  0
 26 27  1  0
 26  7  1  0
 19 14  1  0
  1 28  1  0
  1 29  1  0
  1 30  1  0
  2 31  1  0
  2 32  1  0
  3 33  1  0
  3 34  1  0
  6 35  1  0
  7 36  1  1
 13 37  1  0
 15 38  1  0
 16 39  1  0
 17 40  1  0
 18 41  1  0
 19 42  1  0
 21 43  1  6
 22 44  1  0
 22 45  1  0
 23 46  1  0
 24 47  1  1
 25 48  1  0
 26 49  1  6
 27 50  1  0
M  END
>  <meeko>  (1) 
{"is_sidechain": [false], "free_energy": -8.375, "intermolecular_energy": -12.537, "internal_energy": -1.112}

$$$$
2wca_ligand
     RDKit          3D

 50 51  0  0  0  0  0  0  0  0999 V2000
  -11.2720  -11.9260    4.2630 C   0  0  0  0  0  0  0  0  0  0  0  0
  -10.3110  -11.7640    5.4290 C   0  0  0  0  0  0  0  0  0  0  0  0
  -10.0950  -13.0830    6.1650 C   0  0  0  0  0  0  0  0  0  0  0  0
   -9.5490  -12.8760    7.5640 C   0  0  0  0  0  0  0  0  0  0  0  0
   -9.9550  -13.4690    8.5580 O   0  0  0  0  0  0  0  0  0  0  0  0
   -8.5570  -11.9270    7.6230 N   0  0  0  0  0  0  0  0  0  0  0  0
   -7.7290  -11.6960    8.8230 C   0  0  1  0  0  0  0  0  0  0  0  0
   -6.3090  -11.4540    8.3130 C   0  0  0  0  0  0  0  0  0  0  0  0
   -5.8950  -12.1160    7.2760 N   0  0  0  0  0  0  0  0  0  0  0  0
   -4.5580  -11.7890    6.9740 O   0  0  0  0  0  0  0  0  0  0  0  0
   -3.7860  -12.9260    6.8920 C   0  0  0  0  0  0  0  0  0  0  0  0
   -2.6860  -13.0580    7.4130 O   0  0  0  0  0  0  0  0  0  0  0  0
   -4.4710  -13.8550    6.1490 N   0  0  0  0  0  0  0  0  0  0  0  0
   -4.0820  -15.1600    5.8040 C   0  0  0  0  0  0  0  0  0  0  0  0
   -4.4520  -16.2990    6.5220 C   0  0  0  0  0  0  0  0  0  0  0  0
   -4.0220  -17.5650    6.1110 C   0  0  0  0  0  0  0  0  0  0  0  0
   -3.2190  -17.7020    4.9820 C   0  0  0  0  0  0  0  0  0  0  0  0
   -2.8450  -16.5720    4.2590 C   0  0  0  0  0  0  0  0  0  0  0  0
   -3.2730  -15.3070    4.6690 C   0  0  0  0  0  0  0  0  0  0  0  0
   -5.4870  -10.6170    8.9670 O   0  0  0  0  0  0  0  0  0  0  0  0
   -6.0010   -9.5620    9.8080 C   0  0  2  0  0  0  0  0  0  0  0  0
   -4.8490   -9.0550   10.6880 C   0  0  0  0  0  0  0  0  0  0  0  0
   -4.7340   -9.8430   11.8760 O   0  0  0  0  0  0  0  0  0  0  0  0
   -7.1680  -10.0480   10.6480 C   0  0  1  0  0  0  0  0  0  0  0  0
   -7.7040   -8.9850   11.4390 O   0  0  0  0  0  0  0  0  0  0  0  0
   -8.2610  -10.5760    9.7210 C   0  0  2  0  0  0  0  0  0  0  0  0
   -9.3120  -11.0280   10.5950 O   0  0  0  0  0  0  0  0  0  0  0  0
  -12.2885  -12.0974    4.6468 H   0  0  0  0  0  0  0  0  0  0  0  0
  -11.2608  -11.0133    3.6491 H   0  0  0  0  0  0  0  0  0  0  0  0
  -10.9622  -12.7846    3.6491 H   0  0  0  0  0  0  0  0  0  0  0  0
   -9.3437  -11.4054    5.0474 H   0  0  0  0  0  0  0  0  0  0  0  0
  -10.7458  -11.0422    6.1360 H   0  0  0  0  0  0  0  0  0  0  0  0
  -11.0573  -13.6112    6.2350 H   0  0  0  0  0  0  0  0  0  0  0  0
   -9.3567  -13.6689    5.5979 H   0  0  0  0  0  0  0  0  0  0  0  0
   -8.1020  -11.6930    6.7400 H   0  0  0  0  0  0  0  0  0  0  0  0
   -7.7538  -12.5700    9.4905 H   0  0  0  0  0  0  0  0  0  0  0  0
   -5.3690  -13.5290    5.8180 H   0  0  0  0  0  0  0  0  0  0  0  0
   -5.0853  -16.2001    7.4160 H   0  0  0  0  0  0  0  0  0  0  0  0
   -4.3197  -18.4565    6.6825 H   0  0  0  0  0  0  0  0  0  0  0  0
   -2.8813  -18.6989    4.6623 H   0  0  0  0  0  0  0  0  0  0  0  0
   -2.2125  -16.6756    3.3650 H   0  0  0  0  0  0  0  0  0  0  0  0
   -2.9722  -14.4178    4.0956 H   0  0  0  0  0  0  0  0  0  0  0  0
   -6.3859   -8.7395    9.1873 H   0  0  0  0  0  0  0  0  0  0  0  0
   -3.9081   -9.1168   10.1216 H   0  0  0  0  0  0  0  0  0  0  0  0
   -5.0554   -8.0131   10.9740 H   0  0  0  0  0  0  0  0  0  0  0  0
   -4.0520   -9.4310   12.4330 H   0  0  0  0  0  0  0  0  0  0  0  0
   -6.8119  -10.8429   11.3198 H   0  0  0  0  0  0  0  0  0  0  0  0
   -7.4600   -8.1660   10.9560 H   0  0  0  0  0  0  0  0  0  0  0  0
   -8.6285   -9.8040    9.0289 H   0  0  0  0  0  0  0  0  0  0  0  0
   -9.7270  -11.8120   10.1630 H   0  0  0  0  0  0  0  0  0  0  0  0
  1  2  1  0
  2  3  1  0
  3  4  1  0
  4  5  2  0
  4  6  1  0
  6  7  1  0
  7  8  1  0
  8  9  2  0
  9 10  1  0
 10 11  1  0
 11 12  2  0
 11 13  1  0
 13 14  1  0
 14 15  2  0
 15 16  1  0
 16 17  2  0
 17 18  1  0
 18 19  2  0
  8 20  1  0
 20 21  1  0
 21 22  1  0
 22 23  1  0
 21 24  1  0
 24 25  1  0
 24 26  1  0
 26 27  1  0
 26  7  1  0
 19 14  1  0
  1 28  1  0
  1 29  1  0
  1 30  1  0
  2 31  1  0
  2 32  1  0
  3 33  1  0
  3 34  1  0
  6 35  1  0
  7 36  1  1
 13 37  1  0
 15 38  1  0
 16 39  1  0
 17 40  1  0
 18 41  1  0
 19 42  1  0
 21 43  1  6
 22 44  1  0
 22 45  1  0
 23 46  1  0
 24 47  1  1
 25 48  1  0
 26 49  1  6
 27 50  1  0
M  END
>  <meeko>  (2) 
{"is_sidechain": [false], "free_energy": -7.765, "intermolecular_energy": -11.443, "internal_energy": -1.293}

$$$$
2wca_ligand
     RDKit          3D

 50 51  0  0  0  0  0  0  0  0999 V2000
  -11.3950  -12.0770    4.4590 C   0  0  0  0  0  0  0  0  0  0  0  0
  -10.0450  -12.4370    5.0580 C   0  0  0  0  0  0  0  0  0  0  0  0
  -10.1750  -13.5360    6.1090 C   0  0  0  0  0  0  0  0  0  0  0  0
   -9.6650  -13.0930    7.4660 C   0  0  0  0  0  0  0  0  0  0  0  0
   -9.9760  -13.6240    8.5270 O   0  0  0  0  0  0  0  0  0  0  0  0
   -8.8280  -12.0040    7.4020 N   0  0  0  0  0  0  0  0  0  0  0  0
   -8.0440  -11.5180    8.5540 C   0  0  1  0  0  0  0  0  0  0  0  0
   -6.7430  -10.9670    7.9740 C   0  0  0  0  0  0  0  0  0  0  0  0
   -6.2130  -11.5630    6.9490 N   0  0  0  0  0  0  0  0  0  0  0  0
   -5.0060  -10.9390    6.5760 O   0  0  0  0  0  0  0  0  0  0  0  0
   -3.9720  -11.3610    7.3810 C   0  0  0  0  0  0  0  0  0  0  0  0
   -3.6750  -12.5330    7.5730 O   0  0  0  0  0  0  0  0  0  0  0  0
   -3.3520  -10.2500    7.8970 N   0  0  0  0  0  0  0  0  0  0  0  0
   -2.2480  -10.1880    8.7650 C   0  0  0  0  0  0  0  0  0  0  0  0
   -2.3520  -10.1380   10.1560 C   0  0  0  0  0  0  0  0  0  0  0  0
   -1.2020  -10.0770   10.9500 C   0  0  0  0  0  0  0  0  0  0  0  0
    0.0590  -10.0660   10.3610 C   0  0  0  0  0  0  0  0  0  0  0  0
    0.1730  -10.1160    8.9740 C   0  0  0  0  0  0  0  0  0  0  0  0
   -0.9750  -10.1760    8.1800 C   0  0  0  0  0  0  0  0  0  0  0  0
   -6.1300   -9.9220    8.5550 O   0  0  0  0  0  0  0  0  0  0  0  0
   -6.8580   -8.9800    9.3700 C   0  0  2  0  0  0  0  0  0  0  0  0
   -5.8380   -8.1650   10.1770 C   0  0  0  0  0  0  0  0  0  0  0  0
   -5.4860   -8.8440   11.3860 O   0  0  0  0  0  0  0  0  0  0  0  0
   -7.8450   -9.6890   10.2800 C   0  0  1  0  0  0  0  0  0  0  0  0
   -8.5990   -8.7470   11.0470 O   0  0  0  0  0  0  0  0  0  0  0  0
   -8.8050  -10.5130    9.4250 C   0  0  2  0  0  0  0  0  0  0  0  0
   -9.6870  -11.1600   10.3620 O   0  0  0  0  0  0  0  0  0  0  0  0
  -12.1155  -11.8849    5.2677 H   0  0  0  0  0  0  0  0  0  0  0  0
  -11.2918  -11.1750    3.8379 H   0  0  0  0  0  0  0  0  0  0  0  0
  -11.7546  -12.9106    3.8379 H   0  0  0  0  0  0  0  0  0  0  0  0
   -9.3795  -12.7871    4.2551 H   0  0  0  0  0  0  0  0  0  0  0  0
   -9.6332  -11.5407    5.5448 H   0  0  0  0  0  0  0  0  0  0  0  0
  -11.2353  -13.8135    6.2023 H   0  0  0  0  0  0  0  0  0  0  0  0
   -9.5651  -14.3908    5.7813 H   0  0  0  0  0  0  0  0  0  0  0  0
   -8.4150  -11.8040    6.4910 H   0  0  0  0  0  0  0  0  0  0  0  0
   -7.8344  -12.3363    9.2586 H   0  0  0  0  0  0  0  0  0  0  0  0
   -3.7650   -9.3780    7.6000 H   0  0  0  0  0  0  0  0  0  0  0  0
   -3.3443  -10.1466   10.6307 H   0  0  0  0  0  0  0  0  0  0  0  0
   -1.2947  -10.0375   12.0454 H   0  0  0  0  0  0  0  0  0  0  0  0
    0.9614  -10.0180   10.9882 H   0  0  0  0  0  0  0  0  0  0  0  0
    1.1672  -10.1083    8.5034 H   0  0  0  0  0  0  0  0  0  0  0  0
   -0.8784  -10.2142    7.0849 H   0  0  0  0  0  0  0  0  0  0  0  0
   -7.4500   -8.3083    8.7310 H   0  0  0  0  0  0  0  0  0  0  0  0
   -4.9328   -8.0177    9.5697 H   0  0  0  0  0  0  0  0  0  0  0  0
   -6.2879   -7.1952   10.4360 H   0  0  0  0  0  0  0  0  0  0  0  0
   -6.2360   -9.4130   11.6290 H   0  0  0  0  0  0  0  0  0  0  0  0
   -7.2850  -10.3379   10.9694 H   0  0  0  0  0  0  0  0  0  0  0  0
   -8.0590   -7.9270   11.0370 H   0  0  0  0  0  0  0  0  0  0  0  0
   -9.3707   -9.8895    8.7170 H   0  0  0  0  0  0  0  0  0  0  0  0
   -9.1800  -11.9030   10.7660 H   0  0  0  0  0  0  0  0  0  0  0  0
  1  2  1  0
  2  3  1  0
  3  4  1  0
  4  5  2  0
  4  6  1  0
  6  7  1  0
  7  8  1  0
  8  9  2  0
  9 10  1  0
 10 11  1  0
 11 12  2  0
 11 13  1  0
 13 14  1  0
 14 15  2  0
 15 16  1  0
 16 17  2  0
 17 18  1  0
 18 19  2  0
  8 20  1  0
 20 21  1  0
 21 22  1  0
 22 23  1  0
 21 24  1  0
 24 25  1  0
 24 26  1  0
 26 27  1  0
 26  7  1  0
 19 14  1  0
  1 28  1  0
  1 29  1  0
  1 30  1  0
  2 31  1  0
  2 32  1  0
  3 33  1  0
  3 34  1  0
  6 35  1  0
  7 36  1  1
 13 37  1  0
 15 38  1  0
 16 39  1  0
 17 40  1  0
 18 41  1  0
 19 42  1  0
 21 43  1  6
 22 44  1  0
 22 45  1  0
 23 46  1  0
 24 47  1  1
 25 48  1  0
 26 49  1  6
 27 50  1  0
M  END
>  <meeko>  (3) 
{"is_sidechain": [false], "free_energy": -7.592, "intermolecular_energy": -11.291, "internal_energy": -1.186}

$$$$
2wca_ligand
     RDKit          3D

 50 51  0  0  0  0  0  0  0  0999 V2000
   -3.2780  -18.6390    7.5460 C   0  0  0  0  0  0  0  0  0  0  0  0
   -4.5910  -18.3150    8.2390 C   0  0  0  0  0  0  0  0  0  0  0  0
   -5.4010  -19.5770    8.5230 C   0  0  0  0  0  0  0  0  0  0  0  0
   -6.1060  -19.5150    9.8640 C   0  0  0  0  0  0  0  0  0  0  0  0
   -5.5360  -19.5770   10.9480 O   0  0  0  0  0  0  0  0  0  0  0  0
   -7.4730  -19.4070    9.7530 N   0  0  0  0  0  0  0  0  0  0  0  0
   -8.3570  -19.1210   10.8990 C   0  0  1  0  0  0  0  0  0  0  0  0
   -9.5830  -18.4180   10.3190 C   0  0  0  0  0  0  0  0  0  0  0  0
   -9.4240  -17.6050    9.3200 N   0  0  0  0  0  0  0  0  0  0  0  0
  -10.6530  -17.0280    8.9430 O   0  0  0  0  0  0  0  0  0  0  0  0
  -10.5410  -15.6580    8.8590 C   0  0  0  0  0  0  0  0  0  0  0  0
  -10.5640  -14.8980    9.8190 O   0  0  0  0  0  0  0  0  0  0  0  0
  -10.3900  -15.3230    7.5360 N   0  0  0  0  0  0  0  0  0  0  0  0
  -10.2360  -14.0470    6.9680 C   0  0  0  0  0  0  0  0  0  0  0  0
   -9.4730  -13.0270    7.5400 C   0  0  0  0  0  0  0  0  0  0  0  0
   -9.3700  -11.7830    6.9100 C   0  0  0  0  0  0  0  0  0  0  0  0
  -10.0270  -11.5490    5.7050 C   0  0  0  0  0  0  0  0  0  0  0  0
  -10.7900  -12.5600    5.1270 C   0  0  0  0  0  0  0  0  0  0  0  0
  -10.8940  -13.8030    5.7560 C   0  0  0  0  0  0  0  0  0  0  0  0
  -10.7930  -18.5950   10.8760 O   0  0  0  0  0  0  0  0  0  0  0  0
  -11.0990  -19.7720   11.6530 C   0  0  2  0  0  0  0  0  0  0  0  0
  -12.3820  -19.4920   12.4480 C   0  0  0  0  0  0  0  0  0  0  0  0
  -12.9560  -18.2390   12.0650 O   0  0  0  0  0  0  0  0  0  0  0  0
   -9.9470  -20.1380   12.5720 C   0  0  1  0  0  0  0  0  0  0  0  0
  -10.2380  -21.3340   13.3000 O   0  0  0  0  0  0  0  0  0  0  0  0
   -8.6930  -20.3630   11.7300 C   0  0  2  0  0  0  0  0  0  0  0  0
   -7.6560  -20.6870   12.6750 O   0  0  0  0  0  0  0  0  0  0  0  0
   -2.5020  -18.8305    8.3018 H   0  0  0  0  0  0  0  0  0  0  0  0
   -3.4059  -19.5325    6.9173 H   0  0  0  0  0  0  0  0  0  0  0  0
   -2.9756  -17.7885    6.9173 H   0  0  0  0  0  0  0  0  0  0  0  0
   -4.3767  -17.8063    9.1905 H   0  0  0  0  0  0  0  0  0  0  0  0
   -5.1818  -17.6687    7.5733 H   0  0  0  0  0  0  0  0  0  0  0  0
   -6.1551  -19.6996    7.7316 H   0  0  0  0  0  0  0  0  0  0  0  0
   -4.7040  -20.4276    8.5468 H   0  0  0  0  0  0  0  0  0  0  0  0
   -7.8290  -19.0910    8.8510 H   0  0  0  0  0  0  0  0  0  0  0  0
   -7.8533  -18.4721   11.6306 H   0  0  0  0  0  0  0  0  0  0  0  0
  -10.3970  -16.1180    6.9110 H   0  0  0  0  0  0  0  0  0  0  0  0
   -8.9500  -13.2031    8.4916 H   0  0  0  0  0  0  0  0  0  0  0  0
   -8.7670  -10.9854    7.3686 H   0  0  0  0  0  0  0  0  0  0  0  0
   -9.9436  -10.5694    5.2117 H   0  0  0  0  0  0  0  0  0  0  0  0
  -11.3109  -12.3800    4.1750 H   0  0  0  0  0  0  0  0  0  0  0  0
  -11.4986  -14.5979    5.2949 H   0  0  0  0  0  0  0  0  0  0  0  0
  -11.2527  -20.6340   10.9871 H   0  0  0  0  0  0  0  0  0  0  0  0
  -13.1083  -20.2951   12.2544 H   0  0  0  0  0  0  0  0  0  0  0  0
  -12.1308  -19.4513   13.5182 H   0  0  0  0  0  0  0  0  0  0  0  0
  -12.3050  -17.7800   11.5070 H   0  0  0  0  0  0  0  0  0  0  0  0
   -9.7912  -19.3173   13.2876 H   0  0  0  0  0  0  0  0  0  0  0  0
   -9.9610  -21.1390   14.2220 H   0  0  0  0  0  0  0  0  0  0  0  0
   -8.8236  -21.1720   10.9962 H   0  0  0  0  0  0  0  0  0  0  0  0
   -7.1180  -19.8700   12.8010 H   0  0  0  0  0  0  0  0  0  0  0  0
  1  2  1  0
  2  3  1  0
  3  4  1  0
  4  5  2  0
  4  6  1  0
  6  7  1  0
  7  8  1  0
  8  9  2  0
  9 10  1  0
 10 11  1  0
 11 12  2  0
 11 13  1  0
 13 14  1  0
 14 15  2  0
 15 16  1  0
 16 17  2  0
 17 18  1  0
 18 19  2  0
  8 20  1  0
 20 21  1  0
 21 22  1  0
 22 23  1  0
 21 24  1  0
 24 25  1  0
 24 26  1  0
 26 27  1  0
 26  7  1  0
 19 14  1  0
  1 28  1  0
  1 29  1  0
  1 30  1  0
  2 31  1  0
  2 32  1  0
  3 33  1  0
  3 34  1  0
  6 35  1  0
  7 36  1  1
 13 37  1  0
 15 38  1  0
 16 39  1  0
 17 40  1  0
 18 41  1  0
 19 42  1  0
 21 43  1  6
 22 44  1  0
 22 45  1  0
 23 46  1  0
 24 47  1  1
 25 48  1  0
 26 49  1  6
 27 50  1  0
M  END
>  <meeko>  (4) 
{"is_sidechain": [false], "free_energy": -7.53, "intermolecular_energy": -11.611, "internal_energy": -0.773}

$$$$
2wca_ligand
     RDKit          3D

 50 51  0  0  0  0  0  0  0  0999 V2000
   -4.3500  -15.4570    4.2450 C   0  0  0  0  0  0  0  0  0  0  0  0
   -5.2760  -15.8060    5.3990 C   0  0  0  0  0  0  0  0  0  0  0  0
   -4.6540  -15.4440    6.7450 C   0  0  0  0  0  0  0  0  0  0  0  0
   -5.5320  -15.8560    7.9110 C   0  0  0  0  0  0  0  0  0  0  0  0
   -5.1180  -16.4020    8.9270 O   0  0  0  0  0  0  0  0  0  0  0  0
   -6.8640  -15.5820    7.7100 N   0  0  0  0  0  0  0  0  0  0  0  0
   -7.8820  -15.6950    8.7720 C   0  0  1  0  0  0  0  0  0  0  0  0
   -8.9130  -14.6040    8.4850 C   0  0  0  0  0  0  0  0  0  0  0  0
   -8.5040  -13.4680    8.0040 N   0  0  0  0  0  0  0  0  0  0  0  0
   -9.5840  -12.5790    7.8370 O   0  0  0  0  0  0  0  0  0  0  0  0
   -9.1630  -11.2740    7.9630 C   0  0  0  0  0  0  0  0  0  0  0  0
   -9.5820  -10.3410    7.2910 O   0  0  0  0  0  0  0  0  0  0  0  0
   -8.2250  -11.2240    8.9640 N   0  0  0  0  0  0  0  0  0  0  0  0
   -7.5210  -10.1080    9.4480 C   0  0  0  0  0  0  0  0  0  0  0  0
   -6.2230   -9.7750    9.0560 C   0  0  0  0  0  0  0  0  0  0  0  0
   -5.5910   -8.6460    9.5860 C   0  0  0  0  0  0  0  0  0  0  0  0
   -6.2500   -7.8410   10.5110 C   0  0  0  0  0  0  0  0  0  0  0  0
   -7.5450   -8.1650   10.9090 C   0  0  0  0  0  0  0  0  0  0  0  0
   -8.1770   -9.2930   10.3800 C   0  0  0  0  0  0  0  0  0  0  0  0
  -10.2080  -14.7980    8.7830 O   0  0  0  0  0  0  0  0  0  0  0  0
  -10.7660  -16.1250    8.8840 C   0  0  2  0  0  0  0  0  0  0  0  0
  -12.1200  -16.0160    9.6000 C   0  0  0  0  0  0  0  0  0  0  0  0
  -12.0190  -16.4730   10.9510 O   0  0  0  0  0  0  0  0  0  0  0  0
   -9.8250  -17.0620    9.6200 C   0  0  1  0  0  0  0  0  0  0  0  0
  -10.3610  -18.3870    9.6710 O   0  0  0  0  0  0  0  0  0  0  0  0
   -8.4850  -17.0980    8.8860 C   0  0  2  0  0  0  0  0  0  0  0  0
   -7.6560  -17.9890    9.6560 O   0  0  0  0  0  0  0  0  0  0  0  0
   -3.3900  -15.0952    4.6418 H   0  0  0  0  0  0  0  0  0  0  0  0
   -4.1782  -16.3521    3.6291 H   0  0  0  0  0  0  0  0  0  0  0  0
   -4.8117  -14.6712    3.6291 H   0  0  0  0  0  0  0  0  0  0  0  0
   -6.2190  -15.2522    5.2806 H   0  0  0  0  0  0  0  0  0  0  0  0
   -5.4543  -16.8913    5.3821 H   0  0  0  0  0  0  0  0  0  0  0  0
   -3.6833  -15.9534    6.8352 H   0  0  0  0  0  0  0  0  0  0  0  0
   -4.5371  -14.3508    6.7800 H   0  0  0  0  0  0  0  0  0  0  0  0
   -7.0800  -14.8980    6.9840 H   0  0  0  0  0  0  0  0  0  0  0  0
   -7.4313  -15.5453    9.7642 H   0  0  0  0  0  0  0  0  0  0  0  0
   -8.0330  -12.1210    9.3880 H   0  0  0  0  0  0  0  0  0  0  0  0
   -5.6942  -10.4049    8.3255 H   0  0  0  0  0  0  0  0  0  0  0  0
   -4.5681   -8.3927    9.2705 H   0  0  0  0  0  0  0  0  0  0  0  0
   -5.7504   -6.9531   10.9257 H   0  0  0  0  0  0  0  0  0  0  0  0
   -8.0701   -7.5326   11.6400 H   0  0  0  0  0  0  0  0  0  0  0  0
   -9.1996   -9.5438   10.6983 H   0  0  0  0  0  0  0  0  0  0  0  0
  -10.9081  -16.5506    7.8797 H   0  0  0  0  0  0  0  0  0  0  0  0
  -12.4451  -14.9652    9.5983 H   0  0  0  0  0  0  0  0  0  0  0  0
  -12.8506  -16.6442    9.0694 H   0  0  0  0  0  0  0  0  0  0  0  0
  -12.9220  -16.6280   11.2740 H   0  0  0  0  0  0  0  0  0  0  0  0
   -9.6947  -16.6937   10.6483 H   0  0  0  0  0  0  0  0  0  0  0  0
   -9.8290  -18.8970    9.0230 H   0  0  0  0  0  0  0  0  0  0  0  0
   -8.5871  -17.4518    7.8495 H   0  0  0  0  0  0  0  0  0  0  0  0
   -7.1340  -18.5230    9.0110 H   0  0  0  0  0  0  0  0  0  0  0  0
  1  2  1  0
  2  3  1  0
  3  4  1  0
  4  5  2  0
  4  6  1  0
  6  7  1  0
  7  8  1  0
  8  9  2  0
  9 10  1  0
 10 11  1  0
 11 12  2  0
 11 13  1  0
 13 14  1  0
 14 15  2  0
 15 16  1  0
 16 17  2  0
 17 18  1  0
 18 19  2  0
  8 20  1  0
 20 21  1  0
 21 22  1  0
 22 23  1  0
 21 24  1  0
 24 25  1  0
 24 26  1  0
 26 27  1  0
 26  7  1  0
 19 14  1  0
  1 28  1  0
  1 29  1  0
  1 30  1  0
  2 31  1  0
  2 32  1  0
  3 33  1  0
  3 34  1  0
  6 35  1  0
  7 36  1  1
 13 37  1  0
 15 38  1  0
 16 39  1  0
 17 40  1  0
 18 41  1  0
 19 42  1  0
 21 43  1  6
 22 44  1  0
 22 45  1  0
 23 46  1  0
 24 47  1  1
 25 48  1  0
 26 49  1  6
 27 50  1  0
M  END
>  <meeko>  (5) 
{"is_sidechain": [false], "free_energy": -7.525, "intermolecular_energy": -11.066, "internal_energy": -1.31}

$$$$
2wca_ligand
     RDKit          3D

 50 51  0  0  0  0  0  0  0  0999 V2000
   -9.8490  -20.2910   12.6580 C   0  0  0  0  0  0  0  0  0  0  0  0
  -10.8340  -20.0100   11.5340 C   0  0  0  0  0  0  0  0  0  0  0  0
  -10.3430  -18.8850   10.6280 C   0  0  0  0  0  0  0  0  0  0  0  0
   -9.2330  -19.3390    9.7010 C   0  0  0  0  0  0  0  0  0  0  0  0
   -9.3040  -20.3190    8.9680 O   0  0  0  0  0  0  0  0  0  0  0  0
   -8.1080  -18.5520    9.7760 N   0  0  0  0  0  0  0  0  0  0  0  0
   -6.9800  -18.6610    8.8310 C   0  0  1  0  0  0  0  0  0  0  0  0
   -6.4310  -17.2450    8.6670 C   0  0  0  0  0  0  0  0  0  0  0  0
   -7.2620  -16.2470    8.6760 N   0  0  0  0  0  0  0  0  0  0  0  0
   -6.5820  -15.0290    8.4780 O   0  0  0  0  0  0  0  0  0  0  0  0
   -7.0250  -14.4050    7.3330 C   0  0  0  0  0  0  0  0  0  0  0  0
   -6.4800  -14.4920    6.2400 O   0  0  0  0  0  0  0  0  0  0  0  0
   -8.1630  -13.7030    7.6430 N   0  0  0  0  0  0  0  0  0  0  0  0
   -8.9650  -12.9180    6.7960 C   0  0  0  0  0  0  0  0  0  0  0  0
   -8.9310  -11.5230    6.7650 C   0  0  0  0  0  0  0  0  0  0  0  0
   -9.7620  -10.8140    5.8910 C   0  0  0  0  0  0  0  0  0  0  0  0
  -10.6330  -11.4940    5.0440 C   0  0  0  0  0  0  0  0  0  0  0  0
  -10.6740  -12.8850    5.0680 C   0  0  0  0  0  0  0  0  0  0  0  0
   -9.8440  -13.5940    5.9410 C   0  0  0  0  0  0  0  0  0  0  0  0
   -5.1200  -17.0460    8.4550 O   0  0  0  0  0  0  0  0  0  0  0  0
   -4.1350  -18.0170    8.8690 C   0  0  2  0  0  0  0  0  0  0  0  0
   -2.8170  -17.6870    8.1550 C   0  0  0  0  0  0  0  0  0  0  0  0
   -1.7310  -18.4240    8.7240 O   0  0  0  0  0  0  0  0  0  0  0  0
   -4.5940  -19.4310    8.5590 C   0  0  1  0  0  0  0  0  0  0  0  0
   -3.6360  -20.3890    9.0180 O   0  0  0  0  0  0  0  0  0  0  0  0
   -5.9260  -19.6850    9.2610 C   0  0  2  0  0  0  0  0  0  0  0  0
   -6.2910  -21.0310    8.9020 O   0  0  0  0  0  0  0  0  0  0  0  0
  -10.3486  -20.1485   13.6276 H   0  0  0  0  0  0  0  0  0  0  0  0
   -9.4893  -21.3276   12.5797 H   0  0  0  0  0  0  0  0  0  0  0  0
   -8.9965  -19.6002   12.5797 H   0  0  0  0  0  0  0  0  0  0  0  0
  -10.9609  -20.9228   10.9335 H   0  0  0  0  0  0  0  0  0  0  0  0
  -11.7895  -19.6999   11.9822 H   0  0  0  0  0  0  0  0  0  0  0  0
  -11.1868  -18.5255   10.0207 H   0  0  0  0  0  0  0  0  0  0  0  0
   -9.9418  -18.0861   11.2690 H   0  0  0  0  0  0  0  0  0  0  0  0
   -8.2300  -17.6270   10.1890 H   0  0  0  0  0  0  0  0  0  0  0  0
   -7.3174  -19.0565    7.8616 H   0  0  0  0  0  0  0  0  0  0  0  0
   -8.4350  -13.7760    8.6130 H   0  0  0  0  0  0  0  0  0  0  0  0
   -8.2467  -10.9778    7.4318 H   0  0  0  0  0  0  0  0  0  0  0  0
   -9.7271   -9.7147    5.8729 H   0  0  0  0  0  0  0  0  0  0  0  0
  -11.2862  -10.9341    4.3585 H   0  0  0  0  0  0  0  0  0  0  0  0
  -11.3597  -13.4265    4.3998 H   0  0  0  0  0  0  0  0  0  0  0  0
   -9.8817  -14.6932    5.9565 H   0  0  0  0  0  0  0  0  0  0  0  0
   -3.9917  -17.9674    9.9585 H   0  0  0  0  0  0  0  0  0  0  0  0
   -2.9095  -17.9461    7.0900 H   0  0  0  0  0  0  0  0  0  0  0  0
   -2.6127  -16.6125    8.2721 H   0  0  0  0  0  0  0  0  0  0  0  0
   -1.1630  -18.7180    7.9920 H   0  0  0  0  0  0  0  0  0  0  0  0
   -4.7042  -19.5362    7.4696 H   0  0  0  0  0  0  0  0  0  0  0  0
   -3.2780  -20.0070    9.8480 H   0  0  0  0  0  0  0  0  0  0  0  0
   -5.8493  -19.5752   10.3528 H   0  0  0  0  0  0  0  0  0  0  0  0
   -5.4920  -21.5920    9.0430 H   0  0  0  0  0  0  0  0  0  0  0  0
  1  2  1  0
  2  3  1  0
  3  4  1  0
  4  5  2  0
  4  6  1  0
  6  7  1  0
  7  8  1  0
  8  9  2  0
  9 10  1  0
 10 11  1  0
 11 12  2  0
 11 13  1  0
 13 14  1  0
 14 15  2  0
 15 16  1  0
 16 17  2  0
 17 18  1  0
 18 19  2  0
  8 20  1  0
 20 21  1  0
 21 22  1  0
 22 23  1  0
 21 24  1  0
 24 25  1  0
 24 26  1  0
 26 27  1  0
 26  7  1  0
 19 14  1  0
  1 28  1  0
  1 29  1  0
  1 30  1  0
  2 31  1  0
  2 32  1  0
  3 33  1  0
  3 34  1  0
  6 35  1  0
  7 36  1  6
 13 37  1  0
 15 38  1  0
 16 39  1  0
 17 40  1  0
 18 41  1  0
 19 42  1  0
 21 43  1  1
 22 44  1  0
 22 45  1  0
 23 46  1  0
 24 47  1  6
 25 48  1  0
 26 49  1  1
 27 50  1  0
M  END
>  <meeko>  (6) 
{"is_sidechain": [false], "free_energy": -7.496, "intermolecular_energy": -11.069, "internal_energy": -1.263}

$$$$
2wca_ligand
     RDKit          3D

 50 51  0  0  0  0  0  0  0  0999 V2000
   -2.3690  -14.6690   13.3700 C   0  0  0  0  0  0  0  0  0  0  0  0
   -2.5490  -14.9300   11.8830 C   0  0  0  0  0  0  0  0  0  0  0  0
   -1.5540  -14.1280   11.0500 C   0  0  0  0  0  0  0  0  0  0  0  0
   -2.1620  -12.8500   10.5050 C   0  0  0  0  0  0  0  0  0  0  0  0
   -1.5120  -11.9110   10.0600 O   0  0  0  0  0  0  0  0  0  0  0  0
   -3.5350  -12.8290   10.5800 N   0  0  0  0  0  0  0  0  0  0  0  0
   -4.3640  -11.7960    9.9290 C   0  0  1  0  0  0  0  0  0  0  0  0
   -5.6940  -12.4720    9.5990 C   0  0  0  0  0  0  0  0  0  0  0  0
   -5.6890  -13.7190    9.2340 N   0  0  0  0  0  0  0  0  0  0  0  0
   -6.9940  -14.1590    8.9390 O   0  0  0  0  0  0  0  0  0  0  0  0
   -7.3620  -13.7720    7.6700 C   0  0  0  0  0  0  0  0  0  0  0  0
   -6.6440  -13.8580    6.6820 O   0  0  0  0  0  0  0  0  0  0  0  0
   -8.6490  -13.2990    7.7240 N   0  0  0  0  0  0  0  0  0  0  0  0
   -9.4430  -12.8000    6.6780 C   0  0  0  0  0  0  0  0  0  0  0  0
  -10.2140  -13.6010    5.8330 C   0  0  0  0  0  0  0  0  0  0  0  0
  -10.9790  -13.0250    4.8140 C   0  0  0  0  0  0  0  0  0  0  0  0
  -10.9780  -11.6450    4.6300 C   0  0  0  0  0  0  0  0  0  0  0  0
  -10.2130  -10.8370    5.4670 C   0  0  0  0  0  0  0  0  0  0  0  0
   -9.4480  -11.4120    6.4850 C   0  0  0  0  0  0  0  0  0  0  0  0
   -6.8380  -11.7680    9.6260 O   0  0  0  0  0  0  0  0  0  0  0  0
   -6.9660  -10.5710   10.4210 C   0  0  2  0  0  0  0  0  0  0  0  0
   -8.2140   -9.8160    9.9420 C   0  0  0  0  0  0  0  0  0  0  0  0
   -8.6760   -8.9080   10.9460 O   0  0  0  0  0  0  0  0  0  0  0  0
   -5.7220   -9.7070   10.3160 C   0  0  1  0  0  0  0  0  0  0  0  0
   -5.8350   -8.5480   11.1460 O   0  0  0  0  0  0  0  0  0  0  0  0
   -4.5110  -10.5220   10.7650 C   0  0  2  0  0  0  0  0  0  0  0  0
   -3.3840   -9.6370   10.6180 O   0  0  0  0  0  0  0  0  0  0  0  0
   -2.9014  -15.4410   13.9449 H   0  0  0  0  0  0  0  0  0  0  0  0
   -1.2983  -14.6985   13.6205 H   0  0  0  0  0  0  0  0  0  0  0  0
   -2.7770  -13.6787   13.6205 H   0  0  0  0  0  0  0  0  0  0  0  0
   -2.3970  -16.0017   11.6873 H   0  0  0  0  0  0  0  0  0  0  0  0
   -3.5655  -14.6203   11.5989 H   0  0  0  0  0  0  0  0  0  0  0  0
   -0.6913  -13.8687   11.6813 H   0  0  0  0  0  0  0  0  0  0  0  0
   -1.2515  -14.7497   10.1944 H   0  0  0  0  0  0  0  0  0  0  0  0
   -3.9950  -13.7320   10.7000 H   0  0  0  0  0  0  0  0  0  0  0  0
   -3.8825  -11.4270    9.0114 H   0  0  0  0  0  0  0  0  0  0  0  0
   -9.0540  -13.3230    8.6500 H   0  0  0  0  0  0  0  0  0  0  0  0
  -10.2196  -14.6924    5.9699 H   0  0  0  0  0  0  0  0  0  0  0  0
  -11.5841  -13.6649    4.1550 H   0  0  0  0  0  0  0  0  0  0  0  0
  -11.5793  -11.1947    3.8264 H   0  0  0  0  0  0  0  0  0  0  0  0
  -10.2109   -9.7460    5.3268 H   0  0  0  0  0  0  0  0  0  0  0  0
   -8.8436  -10.7688    7.1415 H   0  0  0  0  0  0  0  0  0  0  0  0
   -7.0745  -10.8344   11.4835 H   0  0  0  0  0  0  0  0  0  0  0  0
   -7.9660   -9.2508    9.0315 H   0  0  0  0  0  0  0  0  0  0  0  0
   -9.0098  -10.5467    9.7349 H   0  0  0  0  0  0  0  0  0  0  0  0
   -7.9290   -8.3340   11.1840 H   0  0  0  0  0  0  0  0  0  0  0  0
   -5.6053   -9.3834    9.2712 H   0  0  0  0  0  0  0  0  0  0  0  0
   -5.5750   -7.7990   10.5670 H   0  0  0  0  0  0  0  0  0  0  0  0
   -4.6052  -10.8703   11.8041 H   0  0  0  0  0  0  0  0  0  0  0  0
   -3.3640   -9.0630   11.4200 H   0  0  0  0  0  0  0  0  0  0  0  0
  1  2  1  0
  2  3  1  0
  3  4  1  0
  4  5  2  0
  4  6  1  0
  6  7  1  0
  7  8  1  0
  8  9  2  0
  9 10  1  0
 10 11  1  0
 11 12  2  0
 11 13  1  0
 13 14  1  0
 14 15  2  0
 15 16  1  0
 16 17  2  0
 17 18  1  0
 18 19  2  0
  8 20  1  0
 20 21  1  0
 21 22  1  0
 22 23  1  0
 21 24  1  0
 24 25  1  0
 24 26  1  0
 26 27  1  0
 26  7  1  0
 19 14  1  0
  1 28  1  0
  1 29  1  0
  1 30  1  0
  2 31  1  0
  2 32  1  0
  3 33  1  0
  3 34  1  0
  6 35  1  0
  7 36  1  6
 13 37  1  0
 15 38  1  0
 16 39  1  0
 17 40  1  0
 18 41  1  0
 19 42  1  0
 21 43  1  1
 22 44  1  0
 22 45  1  0
 23 46  1  0
 24 47  1  6
 25 48  1  0
 26 49  1  1
 27 50  1  0
M  END
>  <meeko>  (7) 
{"is_sidechain": [false], "free_energy": -7.464, "intermolecular_energy": -11.151, "internal_energy": -1.133}

$$$$
2wca_ligand
     RDKit          3D

 50 51  0  0  0  0  0  0  0  0999 V2000
   -4.0110  -15.3640    4.3850 C   0  0  0  0  0  0  0  0  0  0  0  0
   -4.0520  -15.6880    5.8700 C   0  0  0  0  0  0  0  0  0  0  0  0
   -5.4830  -15.8960    6.3580 C   0  0  0  0  0  0  0  0  0  0  0  0
   -5.5380  -16.6780    7.6560 C   0  0  0  0  0  0  0  0  0  0  0  0
   -4.7670  -16.5120    8.5940 O   0  0  0  0  0  0  0  0  0  0  0  0
   -6.5330  -17.6270    7.6760 N   0  0  0  0  0  0  0  0  0  0  0  0
   -6.9210  -18.3660    8.8920 C   0  0  1  0  0  0  0  0  0  0  0  0
   -8.3660  -17.9630    9.1860 C   0  0  0  0  0  0  0  0  0  0  0  0
   -8.7370  -16.7430    8.9420 N   0  0  0  0  0  0  0  0  0  0  0  0
  -10.0840  -16.5480    9.3050 O   0  0  0  0  0  0  0  0  0  0  0  0
  -10.5100  -15.2920    8.9360 C   0  0  0  0  0  0  0  0  0  0  0  0
  -11.3260  -14.6240    9.5590 O   0  0  0  0  0  0  0  0  0  0  0  0
   -9.8550  -14.9400    7.7820 N   0  0  0  0  0  0  0  0  0  0  0  0
   -9.9640  -13.7520    7.0410 C   0  0  0  0  0  0  0  0  0  0  0  0
   -9.3990  -12.5360    7.4300 C   0  0  0  0  0  0  0  0  0  0  0  0
   -9.5530  -11.3960    6.6340 C   0  0  0  0  0  0  0  0  0  0  0  0
  -10.2730  -11.4630    5.4440 C   0  0  0  0  0  0  0  0  0  0  0  0
  -10.8410  -12.6710    5.0480 C   0  0  0  0  0  0  0  0  0  0  0  0
  -10.6870  -13.8090    5.8420 C   0  0  0  0  0  0  0  0  0  0  0  0
   -9.2150  -18.8420    9.7430 O   0  0  0  0  0  0  0  0  0  0  0  0
   -9.0120  -20.2650    9.6220 C   0  0  2  0  0  0  0  0  0  0  0  0
   -9.9000  -20.9600   10.6630 C   0  0  0  0  0  0  0  0  0  0  0  0
   -9.1050  -21.5750   11.6810 O   0  0  0  0  0  0  0  0  0  0  0  0
   -7.5500  -20.6300    9.8090 C   0  0  1  0  0  0  0  0  0  0  0  0
   -7.3490  -22.0350    9.6360 O   0  0  0  0  0  0  0  0  0  0  0  0
   -6.7150  -19.8790    8.7740 C   0  0  2  0  0  0  0  0  0  0  0  0
   -5.3530  -20.2670    9.0340 O   0  0  0  0  0  0  0  0  0  0  0  0
   -3.8740  -14.2810    4.2497 H   0  0  0  0  0  0  0  0  0  0  0  0
   -3.1737  -15.9011    3.9155 H   0  0  0  0  0  0  0  0  0  0  0  0
   -4.9557  -15.6755    3.9155 H   0  0  0  0  0  0  0  0  0  0  0  0
   -3.4754  -16.6071    6.0513 H   0  0  0  0  0  0  0  0  0  0  0  0
   -3.6197  -14.8394    6.4204 H   0  0  0  0  0  0  0  0  0  0  0  0
   -5.9495  -14.9126    6.5170 H   0  0  0  0  0  0  0  0  0  0  0  0
   -6.0200  -16.4749    5.5922 H   0  0  0  0  0  0  0  0  0  0  0  0
   -7.2800  -17.5120    6.9900 H   0  0  0  0  0  0  0  0  0  0  0  0
   -6.2686  -18.1001    9.7368 H   0  0  0  0  0  0  0  0  0  0  0  0
   -9.2200  -15.6490    7.4430 H   0  0  0  0  0  0  0  0  0  0  0  0
   -8.8289  -12.4739    8.3687 H   0  0  0  0  0  0  0  0  0  0  0  0
   -9.1035  -10.4428    6.9494 H   0  0  0  0  0  0  0  0  0  0  0  0
  -10.3925  -10.5654    4.8195 H   0  0  0  0  0  0  0  0  0  0  0  0
  -11.4113  -12.7287    4.1092 H   0  0  0  0  0  0  0  0  0  0  0  0
  -11.1379  -14.7603    5.5230 H   0  0  0  0  0  0  0  0  0  0  0  0
   -9.2899  -20.5996    8.6117 H   0  0  0  0  0  0  0  0  0  0  0  0
  -10.5641  -20.2149   11.1253 H   0  0  0  0  0  0  0  0  0  0  0  0
  -10.4902  -21.7391   10.1584 H   0  0  0  0  0  0  0  0  0  0  0  0
   -9.7140  -21.9720   12.3260 H   0  0  0  0  0  0  0  0  0  0  0  0
   -7.2452  -20.3528   10.8289 H   0  0  0  0  0  0  0  0  0  0  0  0
   -7.7400  -22.2380    8.7590 H   0  0  0  0  0  0  0  0  0  0  0  0
   -7.0067  -20.1288    7.7432 H   0  0  0  0  0  0  0  0  0  0  0  0
   -4.7820  -19.7310    8.4340 H   0  0  0  0  0  0  0  0  0  0  0  0
  1  2  1  0
  2  3  1  0
  3  4  1  0
  4  5  2  0
  4  6  1  0
  6  7  1  0
  7  8  1  0
  8  9  2  0
  9 10  1  0
 10 11  1  0
 11 12  2  0
 11 13  1  0
 13 14  1  0
 14 15  2  0
 15 16  1  0
 16 17  2  0
 17 18  1  0
 18 19  2  0
  8 20  1  0
 20 21  1  0
 21 22  1  0
 22 23  1  0
 21 24  1  0
 24 25  1  0
 24 26  1  0
 26 27  1  0
 26  7  1  0
 19 14  1  0
  1 28  1  0
  1 29  1  0
  1 30  1  0
  2 31  1  0
  2 32  1  0
  3 33  1  0
  3 34  1  0
  6 35  1  0
  7 36  1  1
 13 37  1  0
 15 38  1  0
 16 39  1  0
 17 40  1  0
 18 41  1  0
 19 42  1  0
 21 43  1  6
 22 44  1  0
 22 45  1  0
 23 46  1  0
 24 47  1  1
 25 48  1  0
 26 49  1  6
 27 50  1  0
M  END
>  <meeko>  (8) 
{"is_sidechain": [false], "free_energy": -7.421, "intermolecular_energy": -11.095, "internal_energy": -1.125}

$$$$
2wca_ligand
     RDKit          3D

 50 51  0  0  0  0  0  0  0  0999 V2000
  -10.6530  -12.0940    4.9830 C   0  0  0  0  0  0  0  0  0  0  0  0
  -10.2860  -13.2750    5.8660 C   0  0  0  0  0  0  0  0  0  0  0  0
   -8.8420  -13.1840    6.3520 C   0  0  0  0  0  0  0  0  0  0  0  0
   -8.7390  -12.5550    7.7270 C   0  0  0  0  0  0  0  0  0  0  0  0
   -9.6450  -12.5500    8.5540 O   0  0  0  0  0  0  0  0  0  0  0  0
   -7.5240  -11.9550    7.9600 N   0  0  0  0  0  0  0  0  0  0  0  0
   -7.1070  -11.4610    9.2860 C   0  0  1  0  0  0  0  0  0  0  0  0
   -5.6190  -11.7880    9.4070 C   0  0  0  0  0  0  0  0  0  0  0  0
   -5.1760  -12.8910    8.8840 N   0  0  0  0  0  0  0  0  0  0  0  0
   -3.7950  -13.0390    9.1230 O   0  0  0  0  0  0  0  0  0  0  0  0
   -3.5740  -13.9060   10.1690 C   0  0  0  0  0  0  0  0  0  0  0  0
   -3.7160  -15.1210   10.1060 O   0  0  0  0  0  0  0  0  0  0  0  0
   -3.1640  -13.1720   11.2530 N   0  0  0  0  0  0  0  0  0  0  0  0
   -2.8210  -13.6250   12.5390 C   0  0  0  0  0  0  0  0  0  0  0  0
   -2.8120  -12.8120   13.6740 C   0  0  0  0  0  0  0  0  0  0  0  0
   -2.4580  -13.3410   14.9200 C   0  0  0  0  0  0  0  0  0  0  0  0
   -2.1110  -14.6840   15.0390 C   0  0  0  0  0  0  0  0  0  0  0  0
   -2.1170  -15.5020   13.9130 C   0  0  0  0  0  0  0  0  0  0  0  0
   -2.4700  -14.9750   12.6680 C   0  0  0  0  0  0  0  0  0  0  0  0
   -4.8000  -10.9770   10.0970 O   0  0  0  0  0  0  0  0  0  0  0  0
   -5.1170   -9.5840   10.3010 C   0  0  2  0  0  0  0  0  0  0  0  0
   -4.2110   -9.0520   11.4200 C   0  0  0  0  0  0  0  0  0  0  0  0
   -3.1030   -9.9290   11.6380 O   0  0  0  0  0  0  0  0  0  0  0  0
   -6.5850   -9.3990   10.6400 C   0  0  1  0  0  0  0  0  0  0  0  0
   -6.9020   -8.0120   10.7900 O   0  0  0  0  0  0  0  0  0  0  0  0
   -7.4330   -9.9820    9.5120 C   0  0  2  0  0  0  0  0  0  0  0  0
   -8.7990   -9.7800    9.9230 O   0  0  0  0  0  0  0  0  0  0  0  0
  -10.9204  -11.2335    5.6140 H   0  0  0  0  0  0  0  0  0  0  0  0
   -9.7945  -11.8302    4.3479 H   0  0  0  0  0  0  0  0  0  0  0  0
  -11.5098  -12.3633    4.3479 H   0  0  0  0  0  0  0  0  0  0  0  0
  -10.9561  -13.2908    6.7382 H   0  0  0  0  0  0  0  0  0  0  0  0
  -10.3927  -14.1952    5.2728 H   0  0  0  0  0  0  0  0  0  0  0  0
   -8.4178  -14.1980    6.3937 H   0  0  0  0  0  0  0  0  0  0  0  0
   -8.2881  -12.5468    5.6469 H   0  0  0  0  0  0  0  0  0  0  0  0
   -6.7570  -12.2380    7.3490 H   0  0  0  0  0  0  0  0  0  0  0  0
   -7.6760  -11.9573   10.0859 H   0  0  0  0  0  0  0  0  0  0  0  0
   -3.1150  -12.1780   11.0770 H   0  0  0  0  0  0  0  0  0  0  0  0
   -3.0847  -11.7498   13.5882 H   0  0  0  0  0  0  0  0  0  0  0  0
   -2.4538  -12.6932   15.8090 H   0  0  0  0  0  0  0  0  0  0  0  0
   -1.8330  -15.0973   16.0198 H   0  0  0  0  0  0  0  0  0  0  0  0
   -1.8438  -16.5637   14.0032 H   0  0  0  0  0  0  0  0  0  0  0  0
   -2.4723  -15.6260   11.7813 H   0  0  0  0  0  0  0  0  0  0  0  0
   -4.9376   -9.0171    9.3756 H   0  0  0  0  0  0  0  0  0  0  0  0
   -3.8338   -8.0583   11.1365 H   0  0  0  0  0  0  0  0  0  0  0  0
   -4.7980   -8.9890   12.3482 H   0  0  0  0  0  0  0  0  0  0  0  0
   -2.5860   -9.5670   12.3760 H   0  0  0  0  0  0  0  0  0  0  0  0
   -6.7954   -9.9145   11.5887 H   0  0  0  0  0  0  0  0  0  0  0  0
   -7.6680   -7.8650   10.1940 H   0  0  0  0  0  0  0  0  0  0  0  0
   -7.2349   -9.4932    8.5467 H   0  0  0  0  0  0  0  0  0  0  0  0
   -9.1160   -8.9630    9.4700 H   0  0  0  0  0  0  0  0  0  0  0  0
  1  2  1  0
  2  3  1  0
  3  4  1  0
  4  5  2  0
  4  6  1  0
  6  7  1  0
  7  8  1  0
  8  9  2  0
  9 10  1  0
 10 11  1  0
 11 12  2  0
 11 13  1  0
 13 14  1  0
 14 15  2  0
 15 16  1  0
 16 17  2  0
 17 18  1  0
 18 19  2  0
  8 20  1  0
 20 21  1  0
 21 22  1  0
 22 23  1  0
 21 24  1  0
 24 25  1  0
 24 26  1  0
 26 27  1  0
 26  7  1  0
 19 14  1  0
  1 28  1  0
  1 29  1  0
  1 30  1  0
  2 31  1  0
  2 32  1  0
  3 33  1  0
  3 34  1  0
  6 35  1  0
  7 36  1  1
 13 37  1  0
 15 38  1  0
 16 39  1  0
 17 40  1  0
 18 41  1  0
 19 42  1  0
 21 43  1  6
 22 44  1  0
 22 45  1  0
 23 46  1  0
 24 47  1  1
 25 48  1  0
 26 49  1  6
 27 50  1  0
M  END
>  <meeko>  (9) 
{"is_sidechain": [false], "free_energy": -7.216, "intermolecular_energy": -11.063, "internal_energy": -0.851}

$$$$
