4abg_ligand
     RDKit          3D

 36 37  0  0  0  0  0  0  0  0999 V2000
  -26.1980    6.6120   17.2180 C   0  0  0  0  0  0  0  0  0  0  0  0
  -24.8940    6.9680   16.5670 N   0  0  0  0  0  0  0  0  0  0  0  0
  -24.7300    6.3900   15.1650 C   0  0  0  0  0  0  0  0  0  0  0  0
  -24.3780    4.8860   15.1960 C   0  0  0  0  0  0  0  0  0  0  0  0
  -23.1990    4.6400   16.0620 N   0  0  0  0  0  0  0  0  0  0  0  0
  -22.4800    3.4680   15.8140 C   0  0  0  0  0  0  0  0  0  0  0  0
  -22.5790    2.8450   14.5590 C   0  0  0  0  0  0  0  0  0  0  0  0
  -21.8400    1.7060   14.2360 C   0  0  0  0  0  0  0  0  0  0  0  0
  -20.9650    1.1540   15.1640 C   0  0  0  0  0  0  0  0  0  0  0  0
  -20.8330    1.7360   16.4310 C   0  0  0  0  0  0  0  0  0  0  0  0
  -19.8800    1.1430   17.4310 C   0  0  0  0  0  0  0  0  0  0  0  0
  -19.4100    2.1450   18.4130 N   0  0  0  0  0  0  0  0  0  0  0  0
  -21.5920    2.8880   16.7390 C   0  0  0  0  0  0  0  0  0  0  0  0
  -23.3260    5.1570   17.4380 C   0  0  0  0  0  0  0  0  0  0  0  0
  -23.6710    6.6650   17.4250 C   0  0  0  0  0  0  0  0  0  0  0  0
  -26.0826    6.6435   18.3115 H   0  0  0  0  0  0  0  0  0  0  0  0
  -26.9703    7.3322   16.9099 H   0  0  0  0  0  0  0  0  0  0  0  0
  -26.4972    5.5993   16.9099 H   0  0  0  0  0  0  0  0  0  0  0  0
  -24.9090    7.9900   16.4480 H   0  0  0  0  0  0  0  0  0  0  0  0
  -25.6726    6.5227   14.6137 H   0  0  0  0  0  0  0  0  0  0  0  0
  -23.9026    6.9223   14.6729 H   0  0  0  0  0  0  0  0  0  0  0  0
  -25.2375    4.3222   15.5878 H   0  0  0  0  0  0  0  0  0  0  0  0
  -24.1397    4.5579   14.1735 H   0  0  0  0  0  0  0  0  0  0  0  0
  -23.2608    3.2684   13.8067 H   0  0  0  0  0  0  0  0  0  0  0  0
  -21.9504    1.2438   13.2439 H   0  0  0  0  0  0  0  0  0  0  0  0
  -20.3771    0.2614   14.9038 H   0  0  0  0  0  0  0  0  0  0  0  0
  -20.3905    0.3309   17.9694 H   0  0  0  0  0  0  0  0  0  0  0  0
  -19.0030    0.7683   16.8827 H   0  0  0  0  0  0  0  0  0  0  0  0
  -18.4850    1.9000   18.7890 H   0  0  0  0  0  0  0  0  0  0  0  0
  -19.3450    3.0780   17.9890 H   0  0  0  0  0  0  0  0  0  0  0  0
  -20.0560    2.2180   19.2090 H   0  0  0  0  0  0  0  0  0  0  0  0
  -21.4852    3.3458   17.7335 H   0  0  0  0  0  0  0  0  0  0  0  0
  -24.1251    4.6081   17.9578 H   0  0  0  0  0  0  0  0  0  0  0  0
  -22.3669    5.0177   17.9584 H   0  0  0  0  0  0  0  0  0  0  0  0
  -23.8718    6.9915   18.4561 H   0  0  0  0  0  0  0  0  0  0  0  0
  -22.8142    7.2040   16.9944 H   0  0  0  0  0  0  0  0  0  0  0  0
  1  2  1  0
  2  3  1  0
  3  4  1  0
  4  5  1  0
  5  6  1  0
  6  7  2  0
  7  8  1  0
  8  9  2  0
  9 10  1  0
 10 11  1  0
 11 12  1  0
 10 13  2  0
  5 14  1  0
 14 15  1  0
 15  2  1  0
 13  6  1  0
  1 16  1  0
  1 17  1  0
  1 18  1  0
  2 19  1  0
  3 20  1  0
  3 21  1  0
  4 22  1  0
  4 23  1  0
  7 24  1  0
  8 25  1  0
  9 26  1  0
 11 27  1  0
 11 28  1  0
 12 29  1  0
 12 30  1  0
 12 31  1  0
 13 32  1  0
 14 33  1  0
 14 34  1  0
 15 35  1  0
 15 36  1  0
M  CHG  2   2   1  12   1
M  END
>  <meeko>  (1) 
{"is_sidechain": [false], "free_energy": -5.797, "intermolecular_energy": -6.644, "internal_energy": -0.212}

$$$$
4abg_ligand
     RDKit          3D

 36 37  0  0  0  0  0  0  0  0999 V2000
  -24.2940    7.9350   15.8530 C   0  0  0  0  0  0  0  0  0  0  0  0
  -25.0620    6.7170   16.2720 N   0  0  0  0  0  0  0  0  0  0  0  0
  -24.4420    5.9770   17.4520 C   0  0  0  0  0  0  0  0  0  0  0  0
  -23.2160    5.1370   17.0290 C   0  0  0  0  0  0  0  0  0  0  0  0
  -23.5580    4.2380   15.9000 N   0  0  0  0  0  0  0  0  0  0  0  0
  -22.7500    3.1110   15.7350 C   0  0  0  0  0  0  0  0  0  0  0  0
  -22.8680    2.3360   14.5700 C   0  0  0  0  0  0  0  0  0  0  0  0
  -22.0480    1.2330   14.3260 C   0  0  0  0  0  0  0  0  0  0  0  0
  -21.0700    0.8730   15.2450 C   0  0  0  0  0  0  0  0  0  0  0  0
  -20.9140    1.6110   16.4240 C   0  0  0  0  0  0  0  0  0  0  0  0
  -19.8500    1.2260   17.4140 C   0  0  0  0  0  0  0  0  0  0  0  0
  -19.4910    2.3470   18.3090 N   0  0  0  0  0  0  0  0  0  0  0  0
  -21.7560    2.7240   16.6540 C   0  0  0  0  0  0  0  0  0  0  0  0
  -24.1360    4.9170   14.7240 C   0  0  0  0  0  0  0  0  0  0  0  0
  -25.3700    5.7570   15.1290 C   0  0  0  0  0  0  0  0  0  0  0  0
  -23.9517    8.4779   16.7463 H   0  0  0  0  0  0  0  0  0  0  0  0
  -23.4238    7.6312   15.2527 H   0  0  0  0  0  0  0  0  0  0  0  0
  -24.9432    8.5893   15.2527 H   0  0  0  0  0  0  0  0  0  0  0  0
  -25.9730    7.0610   16.6060 H   0  0  0  0  0  0  0  0  0  0  0  0
  -24.1253    6.7128   18.2059 H   0  0  0  0  0  0  0  0  0  0  0  0
  -25.1997    5.2912   17.8590 H   0  0  0  0  0  0  0  0  0  0  0  0
  -22.4053    5.8128   16.7191 H   0  0  0  0  0  0  0  0  0  0  0  0
  -22.8968    4.5233   17.8843 H   0  0  0  0  0  0  0  0  0  0  0  0
  -23.6313    2.6068   13.8256 H   0  0  0  0  0  0  0  0  0  0  0  0
  -22.1764    0.6473   13.4038 H   0  0  0  0  0  0  0  0  0  0  0  0
  -20.4190    0.0089   15.0462 H   0  0  0  0  0  0  0  0  0  0  0  0
  -20.2198    0.3891   18.0246 H   0  0  0  0  0  0  0  0  0  0  0  0
  -18.9496    0.9413   16.8499 H   0  0  0  0  0  0  0  0  0  0  0  0
  -18.5510    2.2260   18.7090 H   0  0  0  0  0  0  0  0  0  0  0  0
  -19.5100    3.2430   17.8080 H   0  0  0  0  0  0  0  0  0  0  0  0
  -20.1500    2.4230   19.0930 H   0  0  0  0  0  0  0  0  0  0  0  0
  -21.6304    3.3052   17.5794 H   0  0  0  0  0  0  0  0  0  0  0  0
  -23.3779    5.5795   14.2809 H   0  0  0  0  0  0  0  0  0  0  0  0
  -24.4505    4.1554   13.9952 H   0  0  0  0  0  0  0  0  0  0  0  0
  -25.7040    6.3392   14.2575 H   0  0  0  0  0  0  0  0  0  0  0  0
  -26.1530    5.0643   15.4711 H   0  0  0  0  0  0  0  0  0  0  0  0
  1  2  1  0
  2  3  1  0
  3  4  1  0
  4  5  1  0
  5  6  1  0
  6  7  2  0
  7  8  1  0
  8  9  2  0
  9 10  1  0
 10 11  1  0
 11 12  1  0
 10 13  2  0
  5 14  1  0
 14 15  1  0
 15  2  1  0
 13  6  1  0
  1 16  1  0
  1 17  1  0
  1 18  1  0
  2 19  1  0
  3 20  1  0
  3 21  1  0
  4 22  1  0
  4 23  1  0
  7 24  1  0
  8 25  1  0
  9 26  1  0
 11 27  1  0
 11 28  1  0
 12 29  1  0
 12 30  1  0
 12 31  1  0
 13 32  1  0
 14 33  1  0
 14 34  1  0
 15 35  1  0
 15 36  1  0
M  CHG  2   2   1  12   1
M  END
>  <meeko>  (2) 
{"is_sidechain": [false], "free_energy": -5.76, "intermolecular_energy": -6.598, "internal_energy": -0.216}

$$$$
4abg_ligand
     RDKit          3D

 36 37  0  0  0  0  0  0  0  0999 V2000
  -27.6630    4.9000   14.1490 C   0  0  0  0  0  0  0  0  0  0  0  0
  -26.7360    5.3720   15.2290 N   0  0  0  0  0  0  0  0  0  0  0  0
  -25.3680    5.8080   14.7160 C   0  0  0  0  0  0  0  0  0  0  0  0
  -24.4640    4.6010   14.3790 C   0  0  0  0  0  0  0  0  0  0  0  0
  -24.3780    3.6710   15.5310 N   0  0  0  0  0  0  0  0  0  0  0  0
  -23.2610    2.8330   15.5720 C   0  0  0  0  0  0  0  0  0  0  0  0
  -23.0110    1.9580   14.5020 C   0  0  0  0  0  0  0  0  0  0  0  0
  -21.8800    1.1400   14.4610 C   0  0  0  0  0  0  0  0  0  0  0  0
  -20.9540    1.1770   15.4960 C   0  0  0  0  0  0  0  0  0  0  0  0
  -21.1590    2.0300   16.5870 C   0  0  0  0  0  0  0  0  0  0  0  0
  -20.1510    2.0760   17.7020 C   0  0  0  0  0  0  0  0  0  0  0  0
  -19.0110    1.1660   17.4580 N   0  0  0  0  0  0  0  0  0  0  0  0
  -22.3110    2.8490   16.6100 C   0  0  0  0  0  0  0  0  0  0  0  0
  -25.6790    3.2000   16.0430 C   0  0  0  0  0  0  0  0  0  0  0  0
  -26.5940    4.3980   16.3930 C   0  0  0  0  0  0  0  0  0  0  0  0
  -28.5553    4.4457   14.6044 H   0  0  0  0  0  0  0  0  0  0  0  0
  -27.9644    5.7544   13.5252 H   0  0  0  0  0  0  0  0  0  0  0  0
  -27.1493    4.1537   13.5252 H   0  0  0  0  0  0  0  0  0  0  0  0
  -27.1700    6.2190   15.6220 H   0  0  0  0  0  0  0  0  0  0  0  0
  -25.5057    6.4130   13.8077 H   0  0  0  0  0  0  0  0  0  0  0  0
  -24.8767    6.3888   15.5105 H   0  0  0  0  0  0  0  0  0  0  0  0
  -24.8836    4.0663   13.5141 H   0  0  0  0  0  0  0  0  0  0  0  0
  -23.4541    4.9701   14.1471 H   0  0  0  0  0  0  0  0  0  0  0  0
  -23.7291    1.9158   13.6698 H   0  0  0  0  0  0  0  0  0  0  0  0
  -21.7219    0.4647   13.6072 H   0  0  0  0  0  0  0  0  0  0  0  0
  -20.0604    0.5366   15.4583 H   0  0  0  0  0  0  0  0  0  0  0  0
  -19.7709    3.1041   17.7946 H   0  0  0  0  0  0  0  0  0  0  0  0
  -20.6522    1.7516   18.6259 H   0  0  0  0  0  0  0  0  0  0  0  0
  -19.1870    0.2280   17.8410 H   0  0  0  0  0  0  0  0  0  0  0  0
  -18.8220    1.0690   16.4530 H   0  0  0  0  0  0  0  0  0  0  0  0
  -18.1520    1.5210   17.8960 H   0  0  0  0  0  0  0  0  0  0  0  0
  -22.4699    3.5203   17.4668 H   0  0  0  0  0  0  0  0  0  0  0  0
  -26.1684    2.5842   15.2741 H   0  0  0  0  0  0  0  0  0  0  0  0
  -25.5076    2.6074   16.9537 H   0  0  0  0  0  0  0  0  0  0  0  0
  -27.5907    4.0167   16.6597 H   0  0  0  0  0  0  0  0  0  0  0  0
  -26.1352    4.9398   17.2332 H   0  0  0  0  0  0  0  0  0  0  0  0
  1  2  1  0
  2  3  1  0
  3  4  1  0
  4  5  1  0
  5  6  1  0
  6  7  2  0
  7  8  1  0
  8  9  2  0
  9 10  1  0
 10 11  1  0
 11 12  1  0
 10 13  2  0
  5 14  1  0
 14 15  1  0
 15  2  1  0
 13  6  1  0
  1 16  1  0
  1 17  1  0
  1 18  1  0
  2 19  1  0
  3 20  1  0
  3 21  1  0
  4 22  1  0
  4 23  1  0
  7 24  1  0
  8 25  1  0
  9 26  1  0
 11 27  1  0
 11 28  1  0
 12 29  1  0
 12 30  1  0
 12 31  1  0
 13 32  1  0
 14 33  1  0
 14 34  1  0
 15 35  1  0
 15 36  1  0
M  CHG  2   2   1  12   1
M  END
>  <meeko>  (3) 
{"is_sidechain": [false], "free_energy": -5.35, "intermolecular_energy": -6.168, "internal_energy": -0.175}

$$$$
4abg_ligand
     RDKit          3D

 36 37  0  0  0  0  0  0  0  0999 V2000
  -27.5650    5.2120   11.5290 C   0  0  0  0  0  0  0  0  0  0  0  0
  -27.1130    3.7840   11.5860 N   0  0  0  0  0  0  0  0  0  0  0  0
  -27.2690    3.1440   12.9610 C   0  0  0  0  0  0  0  0  0  0  0  0
  -26.1650    3.5990   13.9400 C   0  0  0  0  0  0  0  0  0  0  0  0
  -24.8190    3.3820   13.3540 N   0  0  0  0  0  0  0  0  0  0  0  0
  -23.7570    3.2760   14.2550 C   0  0  0  0  0  0  0  0  0  0  0  0
  -23.5260    4.3060   15.1800 C   0  0  0  0  0  0  0  0  0  0  0  0
  -22.5170    4.2280   16.1410 C   0  0  0  0  0  0  0  0  0  0  0  0
  -21.7050    3.1030   16.2110 C   0  0  0  0  0  0  0  0  0  0  0  0
  -21.8930    2.0490   15.3090 C   0  0  0  0  0  0  0  0  0  0  0  0
  -21.0190    0.8290   15.3910 C   0  0  0  0  0  0  0  0  0  0  0  0
  -20.2860    0.7550   16.6730 N   0  0  0  0  0  0  0  0  0  0  0  0
  -22.9190    2.1480   14.3420 C   0  0  0  0  0  0  0  0  0  0  0  0
  -24.6140    4.0090   12.0330 C   0  0  0  0  0  0  0  0  0  0  0  0
  -25.7090    3.5570   11.0380 C   0  0  0  0  0  0  0  0  0  0  0  0
  -27.6875    5.5989   12.5514 H   0  0  0  0  0  0  0  0  0  0  0  0
  -26.8133    5.8136   10.9969 H   0  0  0  0  0  0  0  0  0  0  0  0
  -28.5259    5.2715   10.9969 H   0  0  0  0  0  0  0  0  0  0  0  0
  -27.7460    3.2640   10.9620 H   0  0  0  0  0  0  0  0  0  0  0  0
  -28.2485    3.4257   13.3747 H   0  0  0  0  0  0  0  0  0  0  0  0
  -27.1868    2.0538   12.8394 H   0  0  0  0  0  0  0  0  0  0  0  0
  -26.2951    4.6693   14.1581 H   0  0  0  0  0  0  0  0  0  0  0  0
  -26.2470    3.0073   14.8637 H   0  0  0  0  0  0  0  0  0  0  0  0
  -24.1608    5.2037   15.1464 H   0  0  0  0  0  0  0  0  0  0  0  0
  -22.3643    5.0594   16.8448 H   0  0  0  0  0  0  0  0  0  0  0  0
  -20.9153    3.0404   16.9742 H   0  0  0  0  0  0  0  0  0  0  0  0
  -21.6498   -0.0666   15.2909 H   0  0  0  0  0  0  0  0  0  0  0  0
  -20.2781    0.8880   14.5801 H   0  0  0  0  0  0  0  0  0  0  0  0
  -20.9180    0.8630   17.4770 H   0  0  0  0  0  0  0  0  0  0  0  0
  -19.7980   -0.1430   16.7700 H   0  0  0  0  0  0  0  0  0  0  0  0
  -19.5760    1.4940   16.7390 H   0  0  0  0  0  0  0  0  0  0  0  0
  -23.0674    1.3180   13.6355 H   0  0  0  0  0  0  0  0  0  0  0  0
  -24.6544    5.1028   12.1422 H   0  0  0  0  0  0  0  0  0  0  0  0
  -23.6326    3.7006   11.6433 H   0  0  0  0  0  0  0  0  0  0  0  0
  -25.5966    4.1273   10.1042 H   0  0  0  0  0  0  0  0  0  0  0  0
  -25.5840    2.4779   10.8651 H   0  0  0  0  0  0  0  0  0  0  0  0
  1  2  1  0
  2  3  1  0
  3  4  1  0
  4  5  1  0
  5  6  1  0
  6  7  2  0
  7  8  1  0
  8  9  2  0
  9 10  1  0
 10 11  1  0
 11 12  1  0
 10 13  2  0
  5 14  1  0
 14 15  1  0
 15  2  1  0
 13  6  1  0
  1 16  1  0
  1 17  1  0
  1 18  1  0
  2 19  1  0
  3 20  1  0
  3 21  1  0
  4 22  1  0
  4 23  1  0
  7 24  1  0
  8 25  1  0
  9 26  1  0
 11 27  1  0
 11 28  1  0
 12 29  1  0
 12 30  1  0
 12 31  1  0
 13 32  1  0
 14 33  1  0
 14 34  1  0
 15 35  1  0
 15 36  1  0
M  CHG  2   2   1  12   1
M  END
>  <meeko>  (4) 
{"is_sidechain": [false], "free_energy": -5.108, "intermolecular_energy": -5.891, "internal_energy": -0.175}

$$$$
4abg_ligand
     RDKit          3D

 36 37  0  0  0  0  0  0  0  0999 V2000
  -20.0630    0.8900   17.2130 C   0  0  0  0  0  0  0  0  0  0  0  0
  -20.1910    2.0030   16.2160 N   0  0  0  0  0  0  0  0  0  0  0  0
  -21.0450    3.1690   16.7030 C   0  0  0  0  0  0  0  0  0  0  0  0
  -22.5550    2.8490   16.6340 C   0  0  0  0  0  0  0  0  0  0  0  0
  -22.9330    2.3850   15.2770 N   0  0  0  0  0  0  0  0  0  0  0  0
  -24.2770    2.5280   14.9230 C   0  0  0  0  0  0  0  0  0  0  0  0
  -25.2720    2.3710   15.9010 C   0  0  0  0  0  0  0  0  0  0  0  0
  -26.6270    2.5590   15.6170 C   0  0  0  0  0  0  0  0  0  0  0  0
  -27.0290    2.9180   14.3370 C   0  0  0  0  0  0  0  0  0  0  0  0
  -26.0740    3.0840   13.3260 C   0  0  0  0  0  0  0  0  0  0  0  0
  -26.5100    3.4820   11.9430 C   0  0  0  0  0  0  0  0  0  0  0  0
  -25.3720    3.5550   11.0010 N   0  0  0  0  0  0  0  0  0  0  0  0
  -24.7090    2.8880   13.6330 C   0  0  0  0  0  0  0  0  0  0  0  0
  -22.1500    1.2380   14.7760 C   0  0  0  0  0  0  0  0  0  0  0  0
  -20.6350    1.5460   14.8310 C   0  0  0  0  0  0  0  0  0  0  0  0
  -20.1105    1.3028   18.2315 H   0  0  0  0  0  0  0  0  0  0  0  0
  -20.8846    0.1728   17.0694 H   0  0  0  0  0  0  0  0  0  0  0  0
  -19.1001    0.3780   17.0694 H   0  0  0  0  0  0  0  0  0  0  0  0
  -19.2410    2.3840   16.0970 H   0  0  0  0  0  0  0  0  0  0  0  0
  -20.7770    3.3942   17.7458 H   0  0  0  0  0  0  0  0  0  0  0  0
  -20.8499    4.0302   16.0471 H   0  0  0  0  0  0  0  0  0  0  0  0
  -22.7903    2.0601   17.3636 H   0  0  0  0  0  0  0  0  0  0  0  0
  -23.1204    3.7640   16.8642 H   0  0  0  0  0  0  0  0  0  0  0  0
  -24.9755    2.0913   16.9227 H   0  0  0  0  0  0  0  0  0  0  0  0
  -27.3776    2.4223   16.4094 H   0  0  0  0  0  0  0  0  0  0  0  0
  -28.0959    3.0717   14.1175 H   0  0  0  0  0  0  0  0  0  0  0  0
  -27.2315    2.7396   11.5710 H   0  0  0  0  0  0  0  0  0  0  0  0
  -26.9634    4.4823   12.0052 H   0  0  0  0  0  0  0  0  0  0  0  0
  -24.7050    4.2900   11.2700 H   0  0  0  0  0  0  0  0  0  0  0  0
  -24.8650    2.6630   10.9610 H   0  0  0  0  0  0  0  0  0  0  0  0
  -25.6920    3.7650   10.0470 H   0  0  0  0  0  0  0  0  0  0  0  0
  -23.9600    3.0210   12.8384 H   0  0  0  0  0  0  0  0  0  0  0  0
  -22.3623    0.3562   15.3984 H   0  0  0  0  0  0  0  0  0  0  0  0
  -22.4344    1.0444   13.7312 H   0  0  0  0  0  0  0  0  0  0  0  0
  -20.0784    0.6359   14.5627 H   0  0  0  0  0  0  0  0  0  0  0  0
  -20.4303    2.3631   14.1236 H   0  0  0  0  0  0  0  0  0  0  0  0
  1  2  1  0
  2  3  1  0
  3  4  1  0
  4  5  1  0
  5  6  1  0
  6  7  2  0
  7  8  1  0
  8  9  2  0
  9 10  1  0
 10 11  1  0
 11 12  1  0
 10 13  2  0
  5 14  1  0
 14 15  1  0
 15  2  1  0
 13  6  1  0
  1 16  1  0
  1 17  1  0
  1 18  1  0
  2 19  1  0
  3 20  1  0
  3 21  1  0
  4 22  1  0
  4 23  1  0
  7 24  1  0
  8 25  1  0
  9 26  1  0
 11 27  1  0
 11 28  1  0
 12 29  1  0
 12 30  1  0
 12 31  1  0
 13 32  1  0
 14 33  1  0
 14 34  1  0
 15 35  1  0
 15 36  1  0
M  CHG  2   2   1  12   1
M  END
>  <meeko>  (5) 
{"is_sidechain": [false], "free_energy": -5.083, "intermolecular_energy": -5.843, "internal_energy": -0.195}

$$$$
4abg_ligand
     RDKit          3D

 36 37  0  0  0  0  0  0  0  0999 V2000
  -20.2070    0.8690   17.1470 C   0  0  0  0  0  0  0  0  0  0  0  0
  -20.2330    1.9770   16.1370 N   0  0  0  0  0  0  0  0  0  0  0  0
  -21.0950    3.1650   16.5490 C   0  0  0  0  0  0  0  0  0  0  0  0
  -22.6020    2.8780   16.3660 C   0  0  0  0  0  0  0  0  0  0  0  0
  -22.8850    2.4120   14.9870 N   0  0  0  0  0  0  0  0  0  0  0  0
  -24.1940    2.5820   14.5290 C   0  0  0  0  0  0  0  0  0  0  0  0
  -24.4460    3.4460   13.4520 C   0  0  0  0  0  0  0  0  0  0  0  0
  -25.7250    3.6110   12.9160 C   0  0  0  0  0  0  0  0  0  0  0  0
  -26.7990    2.9050   13.4430 C   0  0  0  0  0  0  0  0  0  0  0  0
  -26.6010    2.0330   14.5210 C   0  0  0  0  0  0  0  0  0  0  0  0
  -27.7620    1.2630   15.0850 C   0  0  0  0  0  0  0  0  0  0  0  0
  -27.9360    1.5020   16.5340 N   0  0  0  0  0  0  0  0  0  0  0  0
  -25.2990    1.8810   15.0500 C   0  0  0  0  0  0  0  0  0  0  0  0
  -22.0920    1.2440   14.5550 C   0  0  0  0  0  0  0  0  0  0  0  0
  -20.5790    1.5180   14.7250 C   0  0  0  0  0  0  0  0  0  0  0  0
  -20.2170    1.2964   18.1605 H   0  0  0  0  0  0  0  0  0  0  0  0
  -21.0903    0.2278   17.0107 H   0  0  0  0  0  0  0  0  0  0  0  0
  -19.2946    0.2700   17.0107 H   0  0  0  0  0  0  0  0  0  0  0  0
  -19.2680    2.3350   16.0880 H   0  0  0  0  0  0  0  0  0  0  0  0
  -20.9029    3.3928   17.6079 H   0  0  0  0  0  0  0  0  0  0  0  0
  -20.8306    4.0162   15.9044 H   0  0  0  0  0  0  0  0  0  0  0  0
  -22.9104    2.1002   17.0801 H   0  0  0  0  0  0  0  0  0  0  0  0
  -23.1626    3.8071   16.5465 H   0  0  0  0  0  0  0  0  0  0  0  0
  -23.6092    4.0114   13.0161 H   0  0  0  0  0  0  0  0  0  0  0  0
  -25.8823    4.3017   12.0745 H   0  0  0  0  0  0  0  0  0  0  0  0
  -27.8041    3.0307   13.0141 H   0  0  0  0  0  0  0  0  0  0  0  0
  -28.6795    1.5707   14.5620 H   0  0  0  0  0  0  0  0  0  0  0  0
  -27.5606    0.1914   14.9400 H   0  0  0  0  0  0  0  0  0  0  0  0
  -27.0320    1.5990   17.0120 H   0  0  0  0  0  0  0  0  0  0  0  0
  -28.4820    2.3550   16.7070 H   0  0  0  0  0  0  0  0  0  0  0  0
  -28.4390    0.7250   16.9810 H   0  0  0  0  0  0  0  0  0  0  0  0
  -25.1440    1.1939   15.8949 H   0  0  0  0  0  0  0  0  0  0  0  0
  -22.3719    0.3720   15.1644 H   0  0  0  0  0  0  0  0  0  0  0  0
  -22.2992    1.0490   13.4924 H   0  0  0  0  0  0  0  0  0  0  0  0
  -20.0246    0.5932   14.5071 H   0  0  0  0  0  0  0  0  0  0  0  0
  -20.3011    2.3239   14.0298 H   0  0  0  0  0  0  0  0  0  0  0  0
  1  2  1  0
  2  3  1  0
  3  4  1  0
  4  5  1  0
  5  6  1  0
  6  7  2  0
  7  8  1  0
  8  9  2  0
  9 10  1  0
 10 11  1  0
 11 12  1  0
 10 13  2  0
  5 14  1  0
 14 15  1  0
 15  2  1  0
 13  6  1  0
  1 16  1  0
  1 17  1  0
  1 18  1  0
  2 19  1  0
  3 20  1  0
  3 21  1  0
  4 22  1  0
  4 23  1  0
  7 24  1  0
  8 25  1  0
  9 26  1  0
 11 27  1  0
 11 28  1  0
 12 29  1  0
 12 30  1  0
 12 31  1  0
 13 32  1  0
 14 33  1  0
 14 34  1  0
 15 35  1  0
 15 36  1  0
M  CHG  2   2   1  12   1
M  END
>  <meeko>  (6) 
{"is_sidechain": [false], "free_energy": -5.005, "intermolecular_energy": -5.772, "internal_energy": -0.177}

$$$$
4abg_ligand
     RDKit          3D

 36 37  0  0  0  0  0  0  0  0999 V2000
  -20.6580    1.6020   14.6400 C   0  0  0  0  0  0  0  0  0  0  0  0
  -21.8940    1.5950   15.4890 N   0  0  0  0  0  0  0  0  0  0  0  0
  -23.1840    1.7830   14.6990 C   0  0  0  0  0  0  0  0  0  0  0  0
  -23.4000    3.2560   14.2850 C   0  0  0  0  0  0  0  0  0  0  0  0
  -23.3100    4.1520   15.4640 N   0  0  0  0  0  0  0  0  0  0  0  0
  -23.9470    5.3910   15.3530 C   0  0  0  0  0  0  0  0  0  0  0  0
  -25.2010    5.4730   14.7270 C   0  0  0  0  0  0  0  0  0  0  0  0
  -25.9080    6.6730   14.6390 C   0  0  0  0  0  0  0  0  0  0  0  0
  -25.3810    7.8370   15.1850 C   0  0  0  0  0  0  0  0  0  0  0  0
  -24.1320    7.8080   15.8180 C   0  0  0  0  0  0  0  0  0  0  0  0
  -23.5670    9.0660   16.4160 C   0  0  0  0  0  0  0  0  0  0  0  0
  -22.0880    9.0780   16.3890 N   0  0  0  0  0  0  0  0  0  0  0  0
  -23.4310    6.5830   15.8950 C   0  0  0  0  0  0  0  0  0  0  0  0
  -22.0640    4.0230   16.2440 C   0  0  0  0  0  0  0  0  0  0  0  0
  -21.8370    2.5540   16.6730 C   0  0  0  0  0  0  0  0  0  0  0  0
  -19.7686    1.6070   15.2873 H   0  0  0  0  0  0  0  0  0  0  0  0
  -20.6443    0.7039   14.0050 H   0  0  0  0  0  0  0  0  0  0  0  0
  -20.6544    2.5002   14.0050 H   0  0  0  0  0  0  0  0  0  0  0  0
  -21.9510    0.6500   15.8950 H   0  0  0  0  0  0  0  0  0  0  0  0
  -23.1387    1.1622   13.7920 H   0  0  0  0  0  0  0  0  0  0  0  0
  -24.0238    1.4847   15.3438 H   0  0  0  0  0  0  0  0  0  0  0  0
  -22.6290    3.5423   13.5545 H   0  0  0  0  0  0  0  0  0  0  0  0
  -24.4020    3.3550   13.8420 H   0  0  0  0  0  0  0  0  0  0  0  0
  -25.6400    4.5629   14.2923 H   0  0  0  0  0  0  0  0  0  0  0  0
  -26.8858    6.6975   14.1357 H   0  0  0  0  0  0  0  0  0  0  0  0
  -25.9439    8.7798   15.1202 H   0  0  0  0  0  0  0  0  0  0  0  0
  -23.9394    9.9290   15.8446 H   0  0  0  0  0  0  0  0  0  0  0  0
  -23.8876    9.1157   17.4671 H   0  0  0  0  0  0  0  0  0  0  0  0
  -21.6910    8.5320   17.1640 H   0  0  0  0  0  0  0  0  0  0  0  0
  -21.7290    8.6900   15.5080 H   0  0  0  0  0  0  0  0  0  0  0  0
  -21.7230   10.0350   16.4690 H   0  0  0  0  0  0  0  0  0  0  0  0
  -22.4511    6.5606   16.3944 H   0  0  0  0  0  0  0  0  0  0  0  0
  -21.2158    4.3541   15.6269 H   0  0  0  0  0  0  0  0  0  0  0  0
  -22.1457    4.6464   17.1466 H   0  0  0  0  0  0  0  0  0  0  0  0
  -20.8484    2.4721   17.1484 H   0  0  0  0  0  0  0  0  0  0  0  0
  -22.6402    2.2774   17.3718 H   0  0  0  0  0  0  0  0  0  0  0  0
  1  2  1  0
  2  3  1  0
  3  4  1  0
  4  5  1  0
  5  6  1  0
  6  7  2  0
  7  8  1  0
  8  9  2  0
  9 10  1  0
 10 11  1  0
 11 12  1  0
 10 13  2  0
  5 14  1  0
 14 15  1  0
 15  2  1  0
 13  6  1  0
  1 16  1  0
  1 17  1  0
  1 18  1  0
  2 19  1  0
  3 20  1  0
  3 21  1  0
  4 22  1  0
  4 23  1  0
  7 24  1  0
  8 25  1  0
  9 26  1  0
 11 27  1  0
 11 28  1  0
 12 29  1  0
 12 30  1  0
 12 31  1  0
 13 32  1  0
 14 33  1  0
 14 34  1  0
 15 35  1  0
 15 36  1  0
M  CHG  2   2   1  12   1
M  END
>  <meeko>  (7) 
{"is_sidechain": [false], "free_energy": -4.57, "intermolecular_energy": -5.241, "internal_energy": -0.209}

$$$$
4abg_ligand
     RDKit          3D

 36 37  0  0  0  0  0  0  0  0999 V2000
  -20.2670    0.7610   17.0370 C   0  0  0  0  0  0  0  0  0  0  0  0
  -20.1920    1.8930   16.0560 N   0  0  0  0  0  0  0  0  0  0  0  0
  -20.9120    3.1550   16.5180 C   0  0  0  0  0  0  0  0  0  0  0  0
  -22.4450    3.0370   16.3630 C   0  0  0  0  0  0  0  0  0  0  0  0
  -22.8050    2.6430   14.9790 N   0  0  0  0  0  0  0  0  0  0  0  0
  -24.0970    2.9660   14.5560 C   0  0  0  0  0  0  0  0  0  0  0  0
  -25.0410    1.9440   14.3700 C   0  0  0  0  0  0  0  0  0  0  0  0
  -26.3620    2.2120   14.0040 C   0  0  0  0  0  0  0  0  0  0  0  0
  -26.7830    3.5230   13.8190 C   0  0  0  0  0  0  0  0  0  0  0  0
  -25.8780    4.5780   13.9900 C   0  0  0  0  0  0  0  0  0  0  0  0
  -26.3360    5.9960   13.7980 C   0  0  0  0  0  0  0  0  0  0  0  0
  -25.7840    6.9040   14.8270 N   0  0  0  0  0  0  0  0  0  0  0  0
  -24.5450    4.2850   14.3580 C   0  0  0  0  0  0  0  0  0  0  0  0
  -22.1520    1.4090   14.4990 C   0  0  0  0  0  0  0  0  0  0  0  0
  -20.6150    1.5140   14.6410 C   0  0  0  0  0  0  0  0  0  0  0  0
  -20.2405    1.1611   18.0613 H   0  0  0  0  0  0  0  0  0  0  0  0
  -21.2039    0.2052   16.8846 H   0  0  0  0  0  0  0  0  0  0  0  0
  -19.4116    0.0864   16.8846 H   0  0  0  0  0  0  0  0  0  0  0  0
  -19.1960    2.1460   15.9940 H   0  0  0  0  0  0  0  0  0  0  0  0
  -20.6748    3.3314   17.5775 H   0  0  0  0  0  0  0  0  0  0  0  0
  -20.5704    3.9904   15.8891 H   0  0  0  0  0  0  0  0  0  0  0  0
  -22.8210    2.2771   17.0638 H   0  0  0  0  0  0  0  0  0  0  0  0
  -22.8980    4.0155   16.5805 H   0  0  0  0  0  0  0  0  0  0  0  0
  -24.7306    0.8990   14.5171 H   0  0  0  0  0  0  0  0  0  0  0  0
  -27.0709    1.3829   13.8619 H   0  0  0  0  0  0  0  0  0  0  0  0
  -27.8259    3.7321   13.5386 H   0  0  0  0  0  0  0  0  0  0  0  0
  -26.0090    6.3430   12.8067 H   0  0  0  0  0  0  0  0  0  0  0  0
  -27.4324    6.0122   13.8854 H   0  0  0  0  0  0  0  0  0  0  0  0
  -26.5170    7.4940   15.2430 H   0  0  0  0  0  0  0  0  0  0  0  0
  -25.3330    6.3760   15.5840 H   0  0  0  0  0  0  0  0  0  0  0  0
  -25.0740    7.5300   14.4290 H   0  0  0  0  0  0  0  0  0  0  0  0
  -23.8354    5.1145   14.4939 H   0  0  0  0  0  0  0  0  0  0  0  0
  -22.5121    0.5555   15.0922 H   0  0  0  0  0  0  0  0  0  0  0  0
  -22.4006    1.2670   13.4369 H   0  0  0  0  0  0  0  0  0  0  0  0
  -20.1684    0.5415   14.3862 H   0  0  0  0  0  0  0  0  0  0  0  0
  -20.2662    2.3051   13.9609 H   0  0  0  0  0  0  0  0  0  0  0  0
  1  2  1  0
  2  3  1  0
  3  4  1  0
  4  5  1  0
  5  6  1  0
  6  7  2  0
  7  8  1  0
  8  9  2  0
  9 10  1  0
 10 11  1  0
 11 12  1  0
 10 13  2  0
  5 14  1  0
 14 15  1  0
 15  2  1  0
 13  6  1  0
  1 16  1  0
  1 17  1  0
  1 18  1  0
  2 19  1  0
  3 20  1  0
  3 21  1  0
  4 22  1  0
  4 23  1  0
  7 24  1  0
  8 25  1  0
  9 26  1  0
 11 27  1  0
 11 28  1  0
 12 29  1  0
 12 30  1  0
 12 31  1  0
 13 32  1  0
 14 33  1  0
 14 34  1  0
 15 35  1  0
 15 36  1  0
M  CHG  2   2   1  12   1
M  END
>  <meeko>  (8) 
{"is_sidechain": [false], "free_energy": -4.551, "intermolecular_energy": -5.24, "internal_energy": -0.188}

$$$$
