1h22_ligand
     RDKit          3D

 78 81  0  0  0  0  0  0  0  0999 V2000
   -2.7550   67.9870   65.4680 O   0  0  0  0  0  0  0  0  0  0  0  0
   -2.0100   67.7170   66.3990 C   0  0  0  0  0  0  0  0  0  0  0  0
   -2.3890   66.7160   67.4240 C   0  0  0  0  0  0  0  0  0  0  0  0
   -1.5220   66.3950   68.3950 C   0  0  0  0  0  0  0  0  0  0  0  0
   -0.1960   67.0000   68.4540 C   0  0  0  0  0  0  0  0  0  0  0  0
    0.1100   67.9750   67.5710 C   0  0  0  0  0  0  0  0  0  0  0  0
   -0.7830   68.3050   66.5770 N   0  0  0  0  0  0  0  0  0  0  0  0
    1.3940   68.7630   67.6140 C   0  0  0  0  0  0  0  0  0  0  0  0
    2.1010   68.6350   68.9640 C   0  0  0  0  0  0  0  0  0  0  0  0
    2.1850   67.1730   69.3920 C   0  0  0  0  0  0  0  0  0  0  0  0
    0.7830   66.5420   69.5150 C   0  0  2  0  0  0  0  0  0  0  0  0
    0.9440   65.0360   69.6020 N   0  0  0  0  0  0  0  0  0  0  0  0
    0.5890   64.3760   70.9050 C   0  0  0  0  0  0  0  0  0  0  0  0
    0.3790   62.8830   70.6610 C   0  0  0  0  0  0  0  0  0  0  0  0
    1.6410   62.0480   70.9220 C   0  0  0  0  0  0  0  0  0  0  0  0
    2.2540   61.4430   69.6530 C   0  0  0  0  0  0  0  0  0  0  0  0
    3.4320   62.2590   69.1050 C   0  0  0  0  0  0  0  0  0  0  0  0
    4.0960   63.2220   70.0950 C   0  0  0  0  0  0  0  0  0  0  0  0
    4.7080   64.4570   69.4250 C   0  0  0  0  0  0  0  0  0  0  0  0
    4.0290   64.7430   68.0800 C   0  0  0  0  0  0  0  0  0  0  0  0
    4.7740   65.7740   67.2240 C   0  0  0  0  0  0  0  0  0  0  0  0
    4.4460   65.7590   65.7320 C   0  0  0  0  0  0  0  0  0  0  0  0
    3.3140   66.6900   65.4380 N   0  0  0  0  0  0  0  0  0  0  0  0
    3.6700   67.9740   64.7140 C   0  0  1  0  0  0  0  0  0  0  0  0
    5.1920   67.9580   64.4580 C   0  0  0  0  0  0  0  0  0  0  0  0
    5.6000   68.9180   63.3470 C   0  0  0  0  0  0  0  0  0  0  0  0
    4.8980   68.5560   62.0390 C   0  0  0  0  0  0  0  0  0  0  0  0
    3.4200   68.3530   62.2390 C   0  0  0  0  0  0  0  0  0  0  0  0
    2.6330   68.4290   61.1130 N   0  0  0  0  0  0  0  0  0  0  0  0
    1.2660   68.3130   61.1000 C   0  0  0  0  0  0  0  0  0  0  0  0
    0.6010   68.3410   60.0760 O   0  0  0  0  0  0  0  0  0  0  0  0
    0.6310   68.1620   62.4300 C   0  0  0  0  0  0  0  0  0  0  0  0
    1.3960   68.0910   63.5290 C   0  0  0  0  0  0  0  0  0  0  0  0
    2.8520   68.1330   63.4440 C   0  0  0  0  0  0  0  0  0  0  0  0
   -3.3789   66.2377   67.3883 H   0  0  0  0  0  0  0  0  0  0  0  0
   -1.8159   65.6622   69.1609 H   0  0  0  0  0  0  0  0  0  0  0  0
   -0.5570   69.0260   65.8980 H   0  0  0  0  0  0  0  0  0  0  0  0
    2.0649   68.3917   66.8253 H   0  0  0  0  0  0  0  0  0  0  0  0
    1.1465   69.8236   67.4598 H   0  0  0  0  0  0  0  0  0  0  0  0
    3.1180   69.0455   68.8794 H   0  0  0  0  0  0  0  0  0  0  0  0
    1.5262   69.1920   69.7186 H   0  0  0  0  0  0  0  0  0  0  0  0
    2.7650   66.6135   68.6433 H   0  0  0  0  0  0  0  0  0  0  0  0
    2.6730   67.1277   70.3768 H   0  0  0  0  0  0  0  0  0  0  0  0
    0.3107   66.9021   70.4409 H   0  0  0  0  0  0  0  0  0  0  0  0
    0.3900   64.6110   68.8450 H   0  0  0  0  0  0  0  0  0  0  0  0
    1.9200   64.8180   69.3750 H   0  0  0  0  0  0  0  0  0  0  0  0
    1.4059   64.5210   71.6272 H   0  0  0  0  0  0  0  0  0  0  0  0
   -0.3318   64.8210   71.3100 H   0  0  0  0  0  0  0  0  0  0  0  0
   -0.4202   62.5280   71.3283 H   0  0  0  0  0  0  0  0  0  0  0  0
    0.1153   62.7573   69.6005 H   0  0  0  0  0  0  0  0  0  0  0  0
    2.3934   62.6951   71.3965 H   0  0  0  0  0  0  0  0  0  0  0  0
    1.3428   61.2080   71.5666 H   0  0  0  0  0  0  0  0  0  0  0  0
    2.6092   60.4282   69.8854 H   0  0  0  0  0  0  0  0  0  0  0  0
    1.4708   61.4387   68.8806 H   0  0  0  0  0  0  0  0  0  0  0  0
    4.1990   61.5517   68.7566 H   0  0  0  0  0  0  0  0  0  0  0  0
    3.0117   62.8921   68.3097 H   0  0  0  0  0  0  0  0  0  0  0  0
    3.3373   63.5572   70.8176 H   0  0  0  0  0  0  0  0  0  0  0  0
    4.9179   62.6743   70.5793 H   0  0  0  0  0  0  0  0  0  0  0  0
    4.5784   65.3267   70.0860 H   0  0  0  0  0  0  0  0  0  0  0  0
    5.7764   64.2664   69.2458 H   0  0  0  0  0  0  0  0  0  0  0  0
    3.9665   63.8014   67.5147 H   0  0  0  0  0  0  0  0  0  0  0  0
    3.0372   65.1639   68.3020 H   0  0  0  0  0  0  0  0  0  0  0  0
    4.5320   66.7741   67.6130 H   0  0  0  0  0  0  0  0  0  0  0  0
    5.8396   65.5114   67.2989 H   0  0  0  0  0  0  0  0  0  0  0  0
    5.3326   66.0752   65.1628 H   0  0  0  0  0  0  0  0  0  0  0  0
    4.1540   64.7391   65.4411 H   0  0  0  0  0  0  0  0  0  0  0  0
    2.8660   66.9430   66.3260 H   0  0  0  0  0  0  0  0  0  0  0  0
    2.5800   66.2150   64.8950 H   0  0  0  0  0  0  0  0  0  0  0  0
    3.4214   68.8530   65.3268 H   0  0  0  0  0  0  0  0  0  0  0  0
    5.7099   68.2477   65.3842 H   0  0  0  0  0  0  0  0  0  0  0  0
    5.4706   66.9412   64.1443 H   0  0  0  0  0  0  0  0  0  0  0  0
    5.3225   69.9428   63.6347 H   0  0  0  0  0  0  0  0  0  0  0  0
    6.6874   68.8461   63.1976 H   0  0  0  0  0  0  0  0  0  0  0  0
    5.0515   69.3697   61.3148 H   0  0  0  0  0  0  0  0  0  0  0  0
    5.3270   67.6132   61.6687 H   0  0  0  0  0  0  0  0  0  0  0  0
    3.0490   68.5800   60.1980 H   0  0  0  0  0  0  0  0  0  0  0  0
   -0.4643   68.1083   62.5157 H   0  0  0  0  0  0  0  0  0  0  0  0
    0.9162   67.9992   64.5146 H   0  0  0  0  0  0  0  0  0  0  0  0
  1  2  2  0
  2  3  1  0
  3  4  2  0
  4  5  1  0
  5  6  2  0
  6  7  1  0
  6  8  1  0
  8  9  1  0
  9 10  1  0
 10 11  1  0
 11 12  1  0
 12 13  1  0
 13 14  1  0
 14 15  1  0
 15 16  1  0
 16 17  1  0
 17 18  1  0
 18 19  1  0
 19 20  1  0
 20 21  1  0
 21 22  1  0
 22 23  1  0
 23 24  1  0
 24 25  1  0
 25 26  1  0
 26 27  1  0
 27 28  1  0
 28 29  1  0
 29 30  1  0
 30 31  2  0
 30 32  1  0
 32 33  2  0
 33 34  1  0
  7  2  1  0
 34 24  1  0
 11  5  1  0
 34 28  2  0
  3 35  1  0
  4 36  1  0
  7 37  1  0
  8 38  1  0
  8 39  1  0
  9 40  1  0
  9 41  1  0
 10 42  1  0
 10 43  1  0
 11 44  1  1
 12 45  1  0
 12 46  1  0
 13 47  1  0
 13 48  1  0
 14 49  1  0
 14 50  1  0
 15 51  1  0
 15 52  1  0
 16 53  1  0
 16 54  1  0
 17 55  1  0
 17 56  1  0
 18 57  1  0
 18 58  1  0
 19 59  1  0
 19 60  1  0
 20 61  1  0
 20 62  1  0
 21 63  1  0
 21 64  1  0
 22 65  1  0
 22 66  1  0
 23 67  1  0
 23 68  1  0
 24 69  1  1
 25 70  1  0
 25 71  1  0
 26 72  1  0
 26 73  1  0
 27 74  1  0
 27 75  1  0
 29 76  1  0
 32 77  1  0
 33 78  1  0
M  CHG  2  12   1  23   1
M  END
>  <meeko>  (1) 
{"is_sidechain": [false], "free_energy": -11.617, "intermolecular_energy": -20.446, "internal_energy": -2.183}

$$$$
1h22_ligand
     RDKit          3D

 78 81  0  0  0  0  0  0  0  0999 V2000
    0.5560   68.3940   60.0720 O   0  0  0  0  0  0  0  0  0  0  0  0
    1.1960   68.3400   61.1120 C   0  0  0  0  0  0  0  0  0  0  0  0
    0.5230   68.1580   62.4200 C   0  0  0  0  0  0  0  0  0  0  0  0
    1.2570   68.0380   63.5360 C   0  0  0  0  0  0  0  0  0  0  0  0
    2.7150   68.0620   63.4870 C   0  0  0  0  0  0  0  0  0  0  0  0
    3.3190   68.3170   62.3060 C   0  0  0  0  0  0  0  0  0  0  0  0
    2.5620   68.4430   61.1630 N   0  0  0  0  0  0  0  0  0  0  0  0
    4.8060   68.4960   62.1550 C   0  0  0  0  0  0  0  0  0  0  0  0
    5.4920   68.7680   63.4960 C   0  0  0  0  0  0  0  0  0  0  0  0
    5.0310   67.7650   64.5490 C   0  0  0  0  0  0  0  0  0  0  0  0
    3.5040   67.8330   64.7600 C   0  0  2  0  0  0  0  0  0  0  0  0
    3.0760   66.6070   65.5420 N   0  0  0  0  0  0  0  0  0  0  0  0
    4.1170   65.5550   65.8060 C   0  0  0  0  0  0  0  0  0  0  0  0
    3.8510   64.9280   67.1730 C   0  0  0  0  0  0  0  0  0  0  0  0
    4.8520   65.3790   68.2460 C   0  0  0  0  0  0  0  0  0  0  0  0
    4.4880   64.9180   69.6620 C   0  0  0  0  0  0  0  0  0  0  0  0
    5.0730   63.5450   70.0180 C   0  0  0  0  0  0  0  0  0  0  0  0
    4.0700   62.4980   70.5140 C   0  0  0  0  0  0  0  0  0  0  0  0
    2.9990   62.1420   69.4770 C   0  0  0  0  0  0  0  0  0  0  0  0
    1.6120   62.0600   70.1280 C   0  0  0  0  0  0  0  0  0  0  0  0
    1.3230   63.2100   71.1010 C   0  0  0  0  0  0  0  0  0  0  0  0
    0.3580   64.2810   70.5940 C   0  0  0  0  0  0  0  0  0  0  0  0
    0.9840   65.0620   69.4840 N   0  0  0  0  0  0  0  0  0  0  0  0
    0.7760   66.5640   69.5180 C   0  0  1  0  0  0  0  0  0  0  0  0
    2.1640   67.2280   69.3920 C   0  0  0  0  0  0  0  0  0  0  0  0
    2.0680   68.6790   68.9340 C   0  0  0  0  0  0  0  0  0  0  0  0
    1.3760   68.7690   67.5750 C   0  0  0  0  0  0  0  0  0  0  0  0
    0.0990   67.9730   67.5470 C   0  0  0  0  0  0  0  0  0  0  0  0
   -0.8010   68.2920   66.5570 N   0  0  0  0  0  0  0  0  0  0  0  0
   -2.0330   67.7080   66.3960 C   0  0  0  0  0  0  0  0  0  0  0  0
   -2.7900   67.9850   65.4780 O   0  0  0  0  0  0  0  0  0  0  0  0
   -2.4010   66.7140   67.4290 C   0  0  0  0  0  0  0  0  0  0  0  0
   -1.5270   66.4030   68.3980 C   0  0  0  0  0  0  0  0  0  0  0  0
   -0.2000   67.0070   68.4430 C   0  0  0  0  0  0  0  0  0  0  0  0
   -0.5750   68.1215   62.4752 H   0  0  0  0  0  0  0  0  0  0  0  0
    0.7509   67.9194   64.5054 H   0  0  0  0  0  0  0  0  0  0  0  0
    3.0070   68.6200   60.2670 H   0  0  0  0  0  0  0  0  0  0  0  0
    5.2310   67.5802   61.7184 H   0  0  0  0  0  0  0  0  0  0  0  0
    4.9782   69.3656   61.5037 H   0  0  0  0  0  0  0  0  0  0  0  0
    6.5813   68.6831   63.3685 H   0  0  0  0  0  0  0  0  0  0  0  0
    5.2256   69.7812   63.8312 H   0  0  0  0  0  0  0  0  0  0  0  0
    5.3022   66.7509   64.2204 H   0  0  0  0  0  0  0  0  0  0  0  0
    5.5236   68.0113   65.5012 H   0  0  0  0  0  0  0  0  0  0  0  0
    3.2655   68.7304   65.3497 H   0  0  0  0  0  0  0  0  0  0  0  0
    2.6780   66.9210   66.4380 H   0  0  0  0  0  0  0  0  0  0  0  0
    2.2920   66.1780   65.0370 H   0  0  0  0  0  0  0  0  0  0  0  0
    4.0641   64.7796   65.0275 H   0  0  0  0  0  0  0  0  0  0  0  0
    5.1184   66.0100   65.7931 H   0  0  0  0  0  0  0  0  0  0  0  0
    2.8387   65.2110   67.4972 H   0  0  0  0  0  0  0  0  0  0  0  0
    3.9576   63.8389   67.0613 H   0  0  0  0  0  0  0  0  0  0  0  0
    5.8412   64.9706   67.9915 H   0  0  0  0  0  0  0  0  0  0  0  0
    4.8409   66.4789   68.2535 H   0  0  0  0  0  0  0  0  0  0  0  0
    4.8706   65.6582   70.3801 H   0  0  0  0  0  0  0  0  0  0  0  0
    3.3925   64.8287   69.7060 H   0  0  0  0  0  0  0  0  0  0  0  0
    5.5620   63.1435   69.1182 H   0  0  0  0  0  0  0  0  0  0  0  0
    5.7583   63.7228   70.8599 H   0  0  0  0  0  0  0  0  0  0  0  0
    4.6215   61.5825   70.7741 H   0  0  0  0  0  0  0  0  0  0  0  0
    3.5507   62.9311   71.3816 H   0  0  0  0  0  0  0  0  0  0  0  0
    2.9844   62.9150   68.6945 H   0  0  0  0  0  0  0  0  0  0  0  0
    3.2422   61.1607   69.0434 H   0  0  0  0  0  0  0  0  0  0  0  0
    0.8525   62.0780   69.3325 H   0  0  0  0  0  0  0  0  0  0  0  0
    1.5834   61.1280   70.7115 H   0  0  0  0  0  0  0  0  0  0  0  0
    0.8963   62.7775   72.0180 H   0  0  0  0  0  0  0  0  0  0  0  0
    2.2847   63.7216   71.2543 H   0  0  0  0  0  0  0  0  0  0  0  0
   -0.5588   63.7977   70.2252 H   0  0  0  0  0  0  0  0  0  0  0  0
    0.1176   64.9654   71.4209 H   0  0  0  0  0  0  0  0  0  0  0  0
    0.6120   64.7120   68.5940 H   0  0  0  0  0  0  0  0  0  0  0  0
    1.9960   64.8850   69.4370 H   0  0  0  0  0  0  0  0  0  0  0  0
    0.3165   66.8776   70.4670 H   0  0  0  0  0  0  0  0  0  0  0  0
    2.6615   67.1981   70.3726 H   0  0  0  0  0  0  0  0  0  0  0  0
    2.7373   66.6720   68.6355 H   0  0  0  0  0  0  0  0  0  0  0  0
    1.4902   69.2538   69.6727 H   0  0  0  0  0  0  0  0  0  0  0  0
    3.0842   69.0901   68.8425 H   0  0  0  0  0  0  0  0  0  0  0  0
    1.1439   69.8230   67.3622 H   0  0  0  0  0  0  0  0  0  0  0  0
    2.0555   68.3541   66.8160 H   0  0  0  0  0  0  0  0  0  0  0  0
   -0.5840   69.0070   65.8680 H   0  0  0  0  0  0  0  0  0  0  0  0
   -3.3891   66.2313   67.4022 H   0  0  0  0  0  0  0  0  0  0  0  0
   -1.8166   65.6786   69.1735 H   0  0  0  0  0  0  0  0  0  0  0  0
  1  2  2  0
  2  3  1  0
  3  4  2  0
  4  5  1  0
  5  6  2  0
  6  7  1  0
  6  8  1  0
  8  9  1  0
  9 10  1  0
 10 11  1  0
 11 12  1  0
 12 13  1  0
 13 14  1  0
 14 15  1  0
 15 16  1  0
 16 17  1  0
 17 18  1  0
 18 19  1  0
 19 20  1  0
 20 21  1  0
 21 22  1  0
 22 23  1  0
 23 24  1  0
 24 25  1  0
 25 26  1  0
 26 27  1  0
 27 28  1  0
 28 29  1  0
 29 30  1  0
 30 31  2  0
 30 32  1  0
 32 33  2  0
 33 34  1  0
  7  2  1  0
 34 24  1  0
 11  5  1  0
 34 28  2  0
  3 35  1  0
  4 36  1  0
  7 37  1  0
  8 38  1  0
  8 39  1  0
  9 40  1  0
  9 41  1  0
 10 42  1  0
 10 43  1  0
 11 44  1  1
 12 45  1  0
 12 46  1  0
 13 47  1  0
 13 48  1  0
 14 49  1  0
 14 50  1  0
 15 51  1  0
 15 52  1  0
 16 53  1  0
 16 54  1  0
 17 55  1  0
 17 56  1  0
 18 57  1  0
 18 58  1  0
 19 59  1  0
 19 60  1  0
 20 61  1  0
 20 62  1  0
 21 63  1  0
 21 64  1  0
 22 65  1  0
 22 66  1  0
 23 67  1  0
 23 68  1  0
 24 69  1  1
 25 70  1  0
 25 71  1  0
 26 72  1  0
 26 73  1  0
 27 74  1  0
 27 75  1  0
 29 76  1  0
 32 77  1  0
 33 78  1  0
M  CHG  2  12   1  23   1
M  END
>  <meeko>  (2) 
{"is_sidechain": [false], "free_energy": -11.358, "intermolecular_energy": -20.058, "internal_energy": -2.114}

$$$$
1h22_ligand
     RDKit          3D

 78 81  0  0  0  0  0  0  0  0999 V2000
    4.8530   62.3730   63.1760 O   0  0  0  0  0  0  0  0  0  0  0  0
    4.4080   63.4510   63.5420 C   0  0  0  0  0  0  0  0  0  0  0  0
    3.4080   63.5410   64.6330 C   0  0  0  0  0  0  0  0  0  0  0  0
    2.9890   64.7430   65.0540 C   0  0  0  0  0  0  0  0  0  0  0  0
    3.5150   65.9730   64.4740 C   0  0  0  0  0  0  0  0  0  0  0  0
    4.3580   65.8840   63.4220 C   0  0  0  0  0  0  0  0  0  0  0  0
    4.7840   64.6490   62.9890 N   0  0  0  0  0  0  0  0  0  0  0  0
    4.8640   67.0790   62.6580 C   0  0  0  0  0  0  0  0  0  0  0  0
    4.0210   68.3290   62.9220 C   0  0  0  0  0  0  0  0  0  0  0  0
    3.8000   68.5220   64.4190 C   0  0  0  0  0  0  0  0  0  0  0  0
    3.0810   67.3090   65.0430 C   0  0  2  0  0  0  0  0  0  0  0  0
    3.1990   67.4070   66.5510 N   0  0  0  0  0  0  0  0  0  0  0  0
    2.3060   68.3920   67.2520 C   0  0  0  0  0  0  0  0  0  0  0  0
    1.8270   67.7760   68.5670 C   0  0  0  0  0  0  0  0  0  0  0  0
    0.9030   66.5680   68.3630 C   0  0  0  0  0  0  0  0  0  0  0  0
    0.2050   66.1010   69.6460 C   0  0  0  0  0  0  0  0  0  0  0  0
    1.0490   65.1170   70.4660 C   0  0  0  0  0  0  0  0  0  0  0  0
    0.2720   64.2140   71.4310 C   0  0  0  0  0  0  0  0  0  0  0  0
    0.0260   62.8040   70.8810 C   0  0  0  0  0  0  0  0  0  0  0  0
    0.2630   61.7450   71.9640 C   0  0  0  0  0  0  0  0  0  0  0  0
    1.3480   62.1340   72.9750 C   0  0  0  0  0  0  0  0  0  0  0  0
    2.2830   61.0060   73.4110 C   0  0  0  0  0  0  0  0  0  0  0  0
    3.6850   61.2970   72.9810 N   0  0  0  0  0  0  0  0  0  0  0  0
    4.0810   60.8080   71.6010 C   0  0  1  0  0  0  0  0  0  0  0  0
    3.1250   59.6570   71.2240 C   0  0  0  0  0  0  0  0  0  0  0  0
    3.0910   59.4060   69.7210 C   0  0  0  0  0  0  0  0  0  0  0  0
    2.6350   60.6610   68.9770 C   0  0  0  0  0  0  0  0  0  0  0  0
    3.3870   61.8810   69.4350 C   0  0  0  0  0  0  0  0  0  0  0  0
    3.3690   62.9650   68.5860 N   0  0  0  0  0  0  0  0  0  0  0  0
    4.0280   64.1480   68.8100 C   0  0  0  0  0  0  0  0  0  0  0  0
    3.9550   65.1070   68.0570 O   0  0  0  0  0  0  0  0  0  0  0  0
    4.8580   64.1890   70.0360 C   0  0  0  0  0  0  0  0  0  0  0  0
    4.8790   63.1330   70.8620 C   0  0  0  0  0  0  0  0  0  0  0  0
    4.0760   61.9440   70.5940 C   0  0  0  0  0  0  0  0  0  0  0  0
    3.0114   62.6250   65.0953 H   0  0  0  0  0  0  0  0  0  0  0  0
    2.2342   64.8023   65.8520 H   0  0  0  0  0  0  0  0  0  0  0  0
    5.4300   64.5700   62.2090 H   0  0  0  0  0  0  0  0  0  0  0  0
    5.9020   67.2805   62.9611 H   0  0  0  0  0  0  0  0  0  0  0  0
    4.8001   66.8472   61.5846 H   0  0  0  0  0  0  0  0  0  0  0  0
    4.5427   69.2088   62.5173 H   0  0  0  0  0  0  0  0  0  0  0  0
    3.0436   68.2072   62.4323 H   0  0  0  0  0  0  0  0  0  0  0  0
    4.7753   68.6518   64.9109 H   0  0  0  0  0  0  0  0  0  0  0  0
    3.1682   69.4108   64.5637 H   0  0  0  0  0  0  0  0  0  0  0  0
    2.0167   67.3477   64.7678 H   0  0  0  0  0  0  0  0  0  0  0  0
    3.0450   66.4690   66.9470 H   0  0  0  0  0  0  0  0  0  0  0  0
    4.1760   67.6330   66.7680 H   0  0  0  0  0  0  0  0  0  0  0  0
    2.8659   69.3159   67.4591 H   0  0  0  0  0  0  0  0  0  0  0  0
    1.4415   68.6309   66.6151 H   0  0  0  0  0  0  0  0  0  0  0  0
    2.7064   67.4512   69.1425 H   0  0  0  0  0  0  0  0  0  0  0  0
    1.2488   68.5458   69.0990 H   0  0  0  0  0  0  0  0  0  0  0  0
    0.1316   66.8413   67.6280 H   0  0  0  0  0  0  0  0  0  0  0  0
    1.5344   65.7352   68.0197 H   0  0  0  0  0  0  0  0  0  0  0  0
   -0.0090   66.9821   70.2687 H   0  0  0  0  0  0  0  0  0  0  0  0
   -0.7137   65.5752   69.3469 H   0  0  0  0  0  0  0  0  0  0  0  0
    1.5921   64.4698   69.7616 H   0  0  0  0  0  0  0  0  0  0  0  0
    1.7014   65.7376   71.0978 H   0  0  0  0  0  0  0  0  0  0  0  0
    0.8449   64.1284   72.3661 H   0  0  0  0  0  0  0  0  0  0  0  0
   -0.7130   64.6778   71.5878 H   0  0  0  0  0  0  0  0  0  0  0  0
   -1.0132   62.7315   70.5277 H   0  0  0  0  0  0  0  0  0  0  0  0
    0.7270   62.6226   70.0529 H   0  0  0  0  0  0  0  0  0  0  0  0
   -0.6796   61.5874   72.5087 H   0  0  0  0  0  0  0  0  0  0  0  0
    0.6086   60.8336   71.4542 H   0  0  0  0  0  0  0  0  0  0  0  0
    1.9625   62.9266   72.5231 H   0  0  0  0  0  0  0  0  0  0  0  0
    0.8127   62.4477   73.8834 H   0  0  0  0  0  0  0  0  0  0  0  0
    2.2518   60.9122   74.5065 H   0  0  0  0  0  0  0  0  0  0  0  0
    1.9531   60.0672   72.9422 H   0  0  0  0  0  0  0  0  0  0  0  0
    4.3260   60.8730   73.6620 H   0  0  0  0  0  0  0  0  0  0  0  0
    3.8800   62.3060   73.0260 H   0  0  0  0  0  0  0  0  0  0  0  0
    5.1135   60.4286   71.5984 H   0  0  0  0  0  0  0  0  0  0  0  0
    3.4595   58.7388   71.7291 H   0  0  0  0  0  0  0  0  0  0  0  0
    2.1112   59.9421   71.5419 H   0  0  0  0  0  0  0  0  0  0  0  0
    4.0985   59.1281   69.3779 H   0  0  0  0  0  0  0  0  0  0  0  0
    2.3807   58.5922   69.5130 H   0  0  0  0  0  0  0  0  0  0  0  0
    2.8067   60.5194   67.8997 H   0  0  0  0  0  0  0  0  0  0  0  0
    1.5666   60.8165   69.1877 H   0  0  0  0  0  0  0  0  0  0  0  0
    2.8430   62.9370   67.7170 H   0  0  0  0  0  0  0  0  0  0  0  0
    5.4554   65.0830   70.2682 H   0  0  0  0  0  0  0  0  0  0  0  0
    5.5141   63.1634   71.7596 H   0  0  0  0  0  0  0  0  0  0  0  0
  1  2  2  0
  2  3  1  0
  3  4  2  0
  4  5  1  0
  5  6  2  0
  6  7  1  0
  6  8  1  0
  8  9  1  0
  9 10  1  0
 10 11  1  0
 11 12  1  0
 12 13  1  0
 13 14  1  0
 14 15  1  0
 15 16  1  0
 16 17  1  0
 17 18  1  0
 18 19  1  0
 19 20  1  0
 20 21  1  0
 21 22  1  0
 22 23  1  0
 23 24  1  0
 24 25  1  0
 25 26  1  0
 26 27  1  0
 27 28  1  0
 28 29  1  0
 29 30  1  0
 30 31  2  0
 30 32  1  0
 32 33  2  0
 33 34  1  0
  7  2  1  0
 34 24  1  0
 11  5  1  0
 34 28  2  0
  3 35  1  0
  4 36  1  0
  7 37  1  0
  8 38  1  0
  8 39  1  0
  9 40  1  0
  9 41  1  0
 10 42  1  0
 10 43  1  0
 11 44  1  1
 12 45  1  0
 12 46  1  0
 13 47  1  0
 13 48  1  0
 14 49  1  0
 14 50  1  0
 15 51  1  0
 15 52  1  0
 16 53  1  0
 16 54  1  0
 17 55  1  0
 17 56  1  0
 18 57  1  0
 18 58  1  0
 19 59  1  0
 19 60  1  0
 20 61  1  0
 20 62  1  0
 21 63  1  0
 21 64  1  0
 22 65  1  0
 22 66  1  0
 23 67  1  0
 23 68  1  0
 24 69  1  1
 25 70  1  0
 25 71  1  0
 26 72  1  0
 26 73  1  0
 27 74  1  0
 27 75  1  0
 29 76  1  0
 32 77  1  0
 33 78  1  0
M  CHG  2  12   1  23   1
M  END
>  <meeko>  (3) 
{"is_sidechain": [false], "free_energy": -10.515, "intermolecular_energy": -17.929, "internal_energy": -2.761}

$$$$
1h22_ligand
     RDKit          3D

 78 81  0  0  0  0  0  0  0  0999 V2000
    0.4510   68.2530   59.6840 O   0  0  0  0  0  0  0  0  0  0  0  0
    1.0320   68.2930   60.7590 C   0  0  0  0  0  0  0  0  0  0  0  0
    0.2830   68.2960   62.0380 C   0  0  0  0  0  0  0  0  0  0  0  0
    0.9500   68.2740   63.2010 C   0  0  0  0  0  0  0  0  0  0  0  0
    2.4080   68.2250   63.2350 C   0  0  0  0  0  0  0  0  0  0  0  0
    3.0850   68.3120   62.0690 C   0  0  0  0  0  0  0  0  0  0  0  0
    2.3980   68.3380   60.8770 N   0  0  0  0  0  0  0  0  0  0  0  0
    4.5860   68.4040   61.9850 C   0  0  0  0  0  0  0  0  0  0  0  0
    5.2140   68.7990   63.3230 C   0  0  0  0  0  0  0  0  0  0  0  0
    4.6460   67.9490   64.4560 C   0  0  0  0  0  0  0  0  0  0  0  0
    3.1170   68.1110   64.5690 C   0  0  2  0  0  0  0  0  0  0  0  0
    2.5840   67.0060   65.4600 N   0  0  0  0  0  0  0  0  0  0  0  0
    3.3250   65.6980   65.4590 C   0  0  0  0  0  0  0  0  0  0  0  0
    3.4820   65.2180   66.9010 C   0  0  0  0  0  0  0  0  0  0  0  0
    3.6670   66.3690   67.9010 C   0  0  0  0  0  0  0  0  0  0  0  0
    3.6960   65.9160   69.3650 C   0  0  0  0  0  0  0  0  0  0  0  0
    2.3330   65.4250   69.8700 C   0  0  0  0  0  0  0  0  0  0  0  0
    2.2650   63.9520   70.2870 C   0  0  0  0  0  0  0  0  0  0  0  0
    3.5720   63.1900   70.0430 C   0  0  0  0  0  0  0  0  0  0  0  0
    3.3450   62.0040   69.0980 C   0  0  0  0  0  0  0  0  0  0  0  0
    3.5300   60.6390   69.7710 C   0  0  0  0  0  0  0  0  0  0  0  0
    4.3770   60.6360   71.0430 C   0  0  0  0  0  0  0  0  0  0  0  0
    3.5850   60.1070   72.1950 N   0  0  0  0  0  0  0  0  0  0  0  0
    2.4550   59.1560   71.8540 C   0  0  1  0  0  0  0  0  0  0  0  0
    2.8240   57.7700   72.4230 C   0  0  0  0  0  0  0  0  0  0  0  0
    1.6060   56.8670   72.5790 C   0  0  0  0  0  0  0  0  0  0  0  0
    0.5810   57.5050   73.5160 C   0  0  0  0  0  0  0  0  0  0  0  0
    0.3100   58.9390   73.1500 C   0  0  0  0  0  0  0  0  0  0  0  0
   -0.8570   59.4850   73.6360 N   0  0  0  0  0  0  0  0  0  0  0  0
   -1.2950   60.7590   73.3760 C   0  0  0  0  0  0  0  0  0  0  0  0
   -2.3150   61.2270   73.8600 O   0  0  0  0  0  0  0  0  0  0  0  0
   -0.4510   61.5420   72.4450 C   0  0  0  0  0  0  0  0  0  0  0  0
    0.6840   61.0110   71.9680 C   0  0  0  0  0  0  0  0  0  0  0  0
    1.1250   59.6780   72.3670 C   0  0  0  0  0  0  0  0  0  0  0  0
   -0.8168   68.3162   62.0331 H   0  0  0  0  0  0  0  0  0  0  0  0
    0.3880   68.2932   64.1464 H   0  0  0  0  0  0  0  0  0  0  0  0
    2.8970   68.3880   59.9940 H   0  0  0  0  0  0  0  0  0  0  0  0
    4.9849   67.4250   61.6812 H   0  0  0  0  0  0  0  0  0  0  0  0
    4.8371   69.1828   61.2498 H   0  0  0  0  0  0  0  0  0  0  0  0
    6.3024   68.6491   63.2695 H   0  0  0  0  0  0  0  0  0  0  0  0
    4.9843   69.8559   63.5237 H   0  0  0  0  0  0  0  0  0  0  0  0
    4.8805   66.8919   64.2625 H   0  0  0  0  0  0  0  0  0  0  0  0
    5.1002   68.2831   65.4005 H   0  0  0  0  0  0  0  0  0  0  0  0
    2.8966   69.0815   65.0375 H   0  0  0  0  0  0  0  0  0  0  0  0
    2.5350   67.3660   66.4230 H   0  0  0  0  0  0  0  0  0  0  0  0
    1.6090   66.8350   65.1880 H   0  0  0  0  0  0  0  0  0  0  0  0
    2.7584   64.9529   64.8813 H   0  0  0  0  0  0  0  0  0  0  0  0
    4.3158   65.8309   65.0001 H   0  0  0  0  0  0  0  0  0  0  0  0
    2.5819   64.6514   67.1816 H   0  0  0  0  0  0  0  0  0  0  0  0
    4.3888   64.5968   66.9436 H   0  0  0  0  0  0  0  0  0  0  0  0
    4.6171   66.8754   67.6755 H   0  0  0  0  0  0  0  0  0  0  0  0
    2.7988   67.0349   67.7882 H   0  0  0  0  0  0  0  0  0  0  0  0
    4.4221   65.0955   69.4633 H   0  0  0  0  0  0  0  0  0  0  0  0
    3.9761   66.7888   69.9730 H   0  0  0  0  0  0  0  0  0  0  0  0
    2.0570   66.0354   70.7425 H   0  0  0  0  0  0  0  0  0  0  0  0
    1.6457   65.5250   69.0170 H   0  0  0  0  0  0  0  0  0  0  0  0
    2.0284   63.9039   71.3602 H   0  0  0  0  0  0  0  0  0  0  0  0
    1.4903   63.4747   69.6689 H   0  0  0  0  0  0  0  0  0  0  0  0
    4.3085   63.8726   69.5940 H   0  0  0  0  0  0  0  0  0  0  0  0
    3.9407   62.8069   71.0059 H   0  0  0  0  0  0  0  0  0  0  0  0
    2.3186   62.0626   68.7067 H   0  0  0  0  0  0  0  0  0  0  0  0
    4.1008   62.0764   68.3021 H   0  0  0  0  0  0  0  0  0  0  0  0
    2.5332   60.2511   70.0279 H   0  0  0  0  0  0  0  0  0  0  0  0
    4.0769   60.0189   69.0455 H   0  0  0  0  0  0  0  0  0  0  0  0
    5.2610   59.9999   70.8883 H   0  0  0  0  0  0  0  0  0  0  0  0
    4.6879   61.6671   71.2672 H   0  0  0  0  0  0  0  0  0  0  0  0
    3.1850   60.9030   72.7040 H   0  0  0  0  0  0  0  0  0  0  0  0
    4.1970   59.6370   72.8760 H   0  0  0  0  0  0  0  0  0  0  0  0
    2.3281   59.0706   70.7647 H   0  0  0  0  0  0  0  0  0  0  0  0
    3.5383   57.2860   71.7407 H   0  0  0  0  0  0  0  0  0  0  0  0
    3.2616   57.9210   73.4209 H   0  0  0  0  0  0  0  0  0  0  0  0
    1.1450   56.7080   71.5930 H   0  0  0  0  0  0  0  0  0  0  0  0
    1.9287   55.9064   73.0070 H   0  0  0  0  0  0  0  0  0  0  0  0
   -0.3594   56.9376   73.4552 H   0  0  0  0  0  0  0  0  0  0  0  0
    0.9891   57.4828   74.5372 H   0  0  0  0  0  0  0  0  0  0  0  0
   -1.4720   58.9450   74.2380 H   0  0  0  0  0  0  0  0  0  0  0  0
   -0.7542   62.5561   72.1456 H   0  0  0  0  0  0  0  0  0  0  0  0
    1.2953   61.5918   71.2616 H   0  0  0  0  0  0  0  0  0  0  0  0
  1  2  2  0
  2  3  1  0
  3  4  2  0
  4  5  1  0
  5  6  2  0
  6  7  1  0
  6  8  1  0
  8  9  1  0
  9 10  1  0
 10 11  1  0
 11 12  1  0
 12 13  1  0
 13 14  1  0
 14 15  1  0
 15 16  1  0
 16 17  1  0
 17 18  1  0
 18 19  1  0
 19 20  1  0
 20 21  1  0
 21 22  1  0
 22 23  1  0
 23 24  1  0
 24 25  1  0
 25 26  1  0
 26 27  1  0
 27 28  1  0
 28 29  1  0
 29 30  1  0
 30 31  2  0
 30 32  1  0
 32 33  2  0
 33 34  1  0
  7  2  1  0
 34 24  1  0
 11  5  1  0
 34 28  2  0
  3 35  1  0
  4 36  1  0
  7 37  1  0
  8 38  1  0
  8 39  1  0
  9 40  1  0
  9 41  1  0
 10 42  1  0
 10 43  1  0
 11 44  1  1
 12 45  1  0
 12 46  1  0
 13 47  1  0
 13 48  1  0
 14 49  1  0
 14 50  1  0
 15 51  1  0
 15 52  1  0
 16 53  1  0
 16 54  1  0
 17 55  1  0
 17 56  1  0
 18 57  1  0
 18 58  1  0
 19 59  1  0
 19 60  1  0
 20 61  1  0
 20 62  1  0
 21 63  1  0
 21 64  1  0
 22 65  1  0
 22 66  1  0
 23 67  1  0
 23 68  1  0
 24 69  1  6
 25 70  1  0
 25 71  1  0
 26 72  1  0
 26 73  1  0
 27 74  1  0
 27 75  1  0
 29 76  1  0
 32 77  1  0
 33 78  1  0
M  CHG  2  12   1  23   1
M  END
>  <meeko>  (4) 
{"is_sidechain": [false], "free_energy": -10.396, "intermolecular_energy": -18.68, "internal_energy": -1.801}

$$$$
1h22_ligand
     RDKit          3D

 78 81  0  0  0  0  0  0  0  0999 V2000
    4.1300   58.2830   69.5150 O   0  0  0  0  0  0  0  0  0  0  0  0
    3.7920   58.5740   70.6540 C   0  0  0  0  0  0  0  0  0  0  0  0
    4.5240   59.5990   71.4350 C   0  0  0  0  0  0  0  0  0  0  0  0
    4.0900   59.9420   72.6560 C   0  0  0  0  0  0  0  0  0  0  0  0
    2.8910   59.3380   73.2290 C   0  0  0  0  0  0  0  0  0  0  0  0
    2.2810   58.3430   72.5500 C   0  0  0  0  0  0  0  0  0  0  0  0
    2.7310   57.9900   71.2980 N   0  0  0  0  0  0  0  0  0  0  0  0
    1.1180   57.5560   73.0960 C   0  0  0  0  0  0  0  0  0  0  0  0
    0.9770   57.7140   74.6110 C   0  0  0  0  0  0  0  0  0  0  0  0
    1.0490   59.1860   75.0070 C   0  0  0  0  0  0  0  0  0  0  0  0
    2.3860   59.8210   74.5730 C   0  0  2  0  0  0  0  0  0  0  0  0
    2.2570   61.3280   74.6820 N   0  0  0  0  0  0  0  0  0  0  0  0
    0.9090   61.9290   74.3990 C   0  0  0  0  0  0  0  0  0  0  0  0
    0.9880   62.7310   73.1010 C   0  0  0  0  0  0  0  0  0  0  0  0
    0.4870   61.9480   71.8790 C   0  0  0  0  0  0  0  0  0  0  0  0
    1.5450   61.7730   70.7830 C   0  0  0  0  0  0  0  0  0  0  0  0
    2.6740   62.8080   70.8650 C   0  0  0  0  0  0  0  0  0  0  0  0
    3.4290   63.0790   69.5580 C   0  0  0  0  0  0  0  0  0  0  0  0
    4.6440   63.9950   69.7360 C   0  0  0  0  0  0  0  0  0  0  0  0
    4.5460   65.2190   68.8180 C   0  0  0  0  0  0  0  0  0  0  0  0
    3.3710   66.1450   69.1520 C   0  0  0  0  0  0  0  0  0  0  0  0
    2.8450   66.9940   67.9960 C   0  0  0  0  0  0  0  0  0  0  0  0
    3.8670   67.0850   66.9090 N   0  0  0  0  0  0  0  0  0  0  0  0
    3.3390   67.1070   65.4880 C   0  0  1  0  0  0  0  0  0  0  0  0
    3.8880   68.3790   64.8080 C   0  0  0  0  0  0  0  0  0  0  0  0
    3.8430   68.2830   63.2870 C   0  0  0  0  0  0  0  0  0  0  0  0
    4.6680   67.0930   62.7990 C   0  0  0  0  0  0  0  0  0  0  0  0
    4.3350   65.8370   63.5580 C   0  0  0  0  0  0  0  0  0  0  0  0
    4.6890   64.6490   62.9620 N   0  0  0  0  0  0  0  0  0  0  0  0
    4.4330   63.4040   63.4780 C   0  0  0  0  0  0  0  0  0  0  0  0
    4.8010   62.3690   62.9440 O   0  0  0  0  0  0  0  0  0  0  0  0
    3.6560   63.3890   64.7390 C   0  0  0  0  0  0  0  0  0  0  0  0
    3.3070   64.5460   65.3210 C   0  0  0  0  0  0  0  0  0  0  0  0
    3.6990   65.8300   64.7490 C   0  0  0  0  0  0  0  0  0  0  0  0
    5.4208   60.0769   71.0139 H   0  0  0  0  0  0  0  0  0  0  0  0
    4.6473   60.6920   73.2365 H   0  0  0  0  0  0  0  0  0  0  0  0
    2.2700   57.2530   70.7720 H   0  0  0  0  0  0  0  0  0  0  0  0
    0.1938   57.9089   72.6150 H   0  0  0  0  0  0  0  0  0  0  0  0
    1.2983   56.4923   72.8816 H   0  0  0  0  0  0  0  0  0  0  0  0
    0.0082   57.3012   74.9288 H   0  0  0  0  0  0  0  0  0  0  0  0
    1.8003   57.1743   75.1018 H   0  0  0  0  0  0  0  0  0  0  0  0
    0.2222   59.7274   74.5240 H   0  0  0  0  0  0  0  0  0  0  0  0
    0.9730   59.2539   76.1023 H   0  0  0  0  0  0  0  0  0  0  0  0
    3.1785   59.4837   75.2572 H   0  0  0  0  0  0  0  0  0  0  0  0
    2.5610   61.6080   75.6250 H   0  0  0  0  0  0  0  0  0  0  0  0
    2.9450   61.7420   74.0430 H   0  0  0  0  0  0  0  0  0  0  0  0
    0.1623   61.1282   74.2935 H   0  0  0  0  0  0  0  0  0  0  0  0
    0.6135   62.5891   75.2278 H   0  0  0  0  0  0  0  0  0  0  0  0
    0.3749   63.6376   73.2115 H   0  0  0  0  0  0  0  0  0  0  0  0
    2.0475   62.9697   72.9264 H   0  0  0  0  0  0  0  0  0  0  0  0
    0.1653   60.9507   72.2136 H   0  0  0  0  0  0  0  0  0  0  0  0
   -0.3372   62.5296   71.4403 H   0  0  0  0  0  0  0  0  0  0  0  0
    1.9835   60.7686   70.8770 H   0  0  0  0  0  0  0  0  0  0  0  0
    1.0410   61.9138   69.8154 H   0  0  0  0  0  0  0  0  0  0  0  0
    2.2364   63.7582   71.2049 H   0  0  0  0  0  0  0  0  0  0  0  0
    3.4173   62.3843   71.5563 H   0  0  0  0  0  0  0  0  0  0  0  0
    3.7738   62.1179   69.1488 H   0  0  0  0  0  0  0  0  0  0  0  0
    2.7313   63.5930   68.8805 H   0  0  0  0  0  0  0  0  0  0  0  0
    4.6905   64.3322   70.7820 H   0  0  0  0  0  0  0  0  0  0  0  0
    5.5509   63.4306   69.4733 H   0  0  0  0  0  0  0  0  0  0  0  0
    5.4788   65.7953   68.9063 H   0  0  0  0  0  0  0  0  0  0  0  0
    4.3806   64.8438   67.7973 H   0  0  0  0  0  0  0  0  0  0  0  0
    2.5421   65.5206   69.5167 H   0  0  0  0  0  0  0  0  0  0  0  0
    3.7546   66.8582   69.8965 H   0  0  0  0  0  0  0  0  0  0  0  0
    1.9298   66.5336   67.5954 H   0  0  0  0  0  0  0  0  0  0  0  0
    2.6277   68.0065   68.3670 H   0  0  0  0  0  0  0  0  0  0  0  0
    4.5030   66.2830   66.9970 H   0  0  0  0  0  0  0  0  0  0  0  0
    4.4650   67.9130   67.0360 H   0  0  0  0  0  0  0  0  0  0  0  0
    2.2397   67.1434   65.4762 H   0  0  0  0  0  0  0  0  0  0  0  0
    3.2830   69.2406   65.1268 H   0  0  0  0  0  0  0  0  0  0  0  0
    4.9397   68.4959   65.1084 H   0  0  0  0  0  0  0  0  0  0  0  0
    2.7993   68.1564   62.9634 H   0  0  0  0  0  0  0  0  0  0  0  0
    4.2642   69.2054   62.8607 H   0  0  0  0  0  0  0  0  0  0  0  0
    4.4612   66.9297   61.7310 H   0  0  0  0  0  0  0  0  0  0  0  0
    5.7312   67.3219   62.9638 H   0  0  0  0  0  0  0  0  0  0  0  0
    5.1810   64.6400   62.0720 H   0  0  0  0  0  0  0  0  0  0  0  0
    3.3660   62.4318   65.1968 H   0  0  0  0  0  0  0  0  0  0  0  0
    2.7139   64.5266   66.2472 H   0  0  0  0  0  0  0  0  0  0  0  0
  1  2  2  0
  2  3  1  0
  3  4  2  0
  4  5  1  0
  5  6  2  0
  6  7  1  0
  6  8  1  0
  8  9  1  0
  9 10  1  0
 10 11  1  0
 11 12  1  0
 12 13  1  0
 13 14  1  0
 14 15  1  0
 15 16  1  0
 16 17  1  0
 17 18  1  0
 18 19  1  0
 19 20  1  0
 20 21  1  0
 21 22  1  0
 22 23  1  0
 23 24  1  0
 24 25  1  0
 25 26  1  0
 26 27  1  0
 27 28  1  0
 28 29  1  0
 29 30  1  0
 30 31  2  0
 30 32  1  0
 32 33  2  0
 33 34  1  0
  7  2  1  0
 34 24  1  0
 11  5  1  0
 34 28  2  0
  3 35  1  0
  4 36  1  0
  7 37  1  0
  8 38  1  0
  8 39  1  0
  9 40  1  0
  9 41  1  0
 10 42  1  0
 10 43  1  0
 11 44  1  1
 12 45  1  0
 12 46  1  0
 13 47  1  0
 13 48  1  0
 14 49  1  0
 14 50  1  0
 15 51  1  0
 15 52  1  0
 16 53  1  0
 16 54  1  0
 17 55  1  0
 17 56  1  0
 18 57  1  0
 18 58  1  0
 19 59  1  0
 19 60  1  0
 20 61  1  0
 20 62  1  0
 21 63  1  0
 21 64  1  0
 22 65  1  0
 22 66  1  0
 23 67  1  0
 23 68  1  0
 24 69  1  1
 25 70  1  0
 25 71  1  0
 26 72  1  0
 26 73  1  0
 27 74  1  0
 27 75  1  0
 29 76  1  0
 32 77  1  0
 33 78  1  0
M  CHG  2  12   1  23   1
M  END
>  <meeko>  (5) 
{"is_sidechain": [false], "free_energy": -10.371, "intermolecular_energy": -18.026, "internal_energy": -2.409}

$$$$
1h22_ligand
     RDKit          3D

 78 81  0  0  0  0  0  0  0  0999 V2000
    0.9750   68.3750   60.0240 O   0  0  0  0  0  0  0  0  0  0  0  0
    1.1620   68.3070   61.2300 C   0  0  0  0  0  0  0  0  0  0  0  0
    0.0280   68.2390   62.1820 C   0  0  0  0  0  0  0  0  0  0  0  0
    0.2670   68.0990   63.4940 C   0  0  0  0  0  0  0  0  0  0  0  0
    1.6290   67.9890   64.0060 C   0  0  0  0  0  0  0  0  0  0  0  0
    2.6580   68.1410   63.1450 C   0  0  0  0  0  0  0  0  0  0  0  0
    2.4100   68.2880   61.7990 N   0  0  0  0  0  0  0  0  0  0  0  0
    4.1020   68.1790   63.5730 C   0  0  0  0  0  0  0  0  0  0  0  0
    4.2500   68.4420   65.0730 C   0  0  0  0  0  0  0  0  0  0  0  0
    3.3260   67.5290   65.8730 C   0  0  0  0  0  0  0  0  0  0  0  0
    1.8490   67.7420   65.4840 C   0  0  2  0  0  0  0  0  0  0  0  0
    1.0360   66.5920   66.0480 N   0  0  0  0  0  0  0  0  0  0  0  0
   -0.1320   66.9370   66.9280 C   0  0  0  0  0  0  0  0  0  0  0  0
    0.3850   67.6370   68.1840 C   0  0  0  0  0  0  0  0  0  0  0  0
    1.0210   66.6690   69.1920 C   0  0  0  0  0  0  0  0  0  0  0  0
    0.1500   65.4480   69.5090 C   0  0  0  0  0  0  0  0  0  0  0  0
    0.5600   64.7350   70.8040 C   0  0  0  0  0  0  0  0  0  0  0  0
    0.3130   63.2230   70.8420 C   0  0  0  0  0  0  0  0  0  0  0  0
   -0.0050   62.6940   72.2450 C   0  0  0  0  0  0  0  0  0  0  0  0
    0.5900   61.2960   72.4510 C   0  0  0  0  0  0  0  0  0  0  0  0
    1.3290   61.1340   73.7840 C   0  0  0  0  0  0  0  0  0  0  0  0
    2.6810   60.4250   73.7120 C   0  0  0  0  0  0  0  0  0  0  0  0
    3.6900   61.2960   73.0360 N   0  0  0  0  0  0  0  0  0  0  0  0
    4.2460   60.7870   71.7200 C   0  0  1  0  0  0  0  0  0  0  0  0
    3.6310   59.3950   71.4640 C   0  0  0  0  0  0  0  0  0  0  0  0
    3.7140   58.9890   69.9970 C   0  0  0  0  0  0  0  0  0  0  0  0
    2.9780   60.0000   69.1180 C   0  0  0  0  0  0  0  0  0  0  0  0
    3.3750   61.4140   69.4450 C   0  0  0  0  0  0  0  0  0  0  0  0
    3.1090   62.3630   68.4840 N   0  0  0  0  0  0  0  0  0  0  0  0
    3.4340   63.6930   68.5820 C   0  0  0  0  0  0  0  0  0  0  0  0
    3.1440   64.5170   67.7290 O   0  0  0  0  0  0  0  0  0  0  0  0
    4.1830   64.0730   69.8020 C   0  0  0  0  0  0  0  0  0  0  0  0
    4.4460   63.1500   70.7380 C   0  0  0  0  0  0  0  0  0  0  0  0
    3.9840   61.7720   70.5960 C   0  0  0  0  0  0  0  0  0  0  0  0
   -1.0064   68.3032   61.8134 H   0  0  0  0  0  0  0  0  0  0  0  0
   -0.5786   68.0665   64.1968 H   0  0  0  0  0  0  0  0  0  0  0  0
    3.1770   68.3870   61.1400 H   0  0  0  0  0  0  0  0  0  0  0  0
    4.5684   67.2117   63.3346 H   0  0  0  0  0  0  0  0  0  0  0  0
    4.5939   69.0023   63.0342 H   0  0  0  0  0  0  0  0  0  0  0  0
    5.2917   68.2534   65.3719 H   0  0  0  0  0  0  0  0  0  0  0  0
    3.9783   69.4881   65.2777 H   0  0  0  0  0  0  0  0  0  0  0  0
    3.6002   66.4819   65.6770 H   0  0  0  0  0  0  0  0  0  0  0  0
    3.4409   67.7697   66.9402 H   0  0  0  0  0  0  0  0  0  0  0  0
    1.4947   68.6808   65.9346 H   0  0  0  0  0  0  0  0  0  0  0  0
    0.7080   66.0150   65.2600 H   0  0  0  0  0  0  0  0  0  0  0  0
    1.6800   65.9890   66.5720 H   0  0  0  0  0  0  0  0  0  0  0  0
   -0.8167   67.6068   66.3872 H   0  0  0  0  0  0  0  0  0  0  0  0
   -0.6719   66.0203   67.2075 H   0  0  0  0  0  0  0  0  0  0  0  0
    1.1405   68.3789   67.8859 H   0  0  0  0  0  0  0  0  0  0  0  0
   -0.4786   68.1059   68.6782 H   0  0  0  0  0  0  0  0  0  0  0  0
    1.9769   66.3155   68.7781 H   0  0  0  0  0  0  0  0  0  0  0  0
    1.1502   67.2242   70.1328 H   0  0  0  0  0  0  0  0  0  0  0  0
   -0.8943   65.7792   69.6075 H   0  0  0  0  0  0  0  0  0  0  0  0
    0.2791   64.7307   68.6851 H   0  0  0  0  0  0  0  0  0  0  0  0
    1.6361   64.9047   70.9561 H   0  0  0  0  0  0  0  0  0  0  0  0
   -0.0771   65.1609   71.5931 H   0  0  0  0  0  0  0  0  0  0  0  0
   -0.5354   62.9914   70.1813 H   0  0  0  0  0  0  0  0  0  0  0  0
    1.2415   62.7336   70.5128 H   0  0  0  0  0  0  0  0  0  0  0  0
    0.4194   63.3797   72.9931 H   0  0  0  0  0  0  0  0  0  0  0  0
   -1.0974   62.6308   72.3573 H   0  0  0  0  0  0  0  0  0  0  0  0
   -0.2278   60.5612   72.4152 H   0  0  0  0  0  0  0  0  0  0  0  0
    1.3288   61.1388   71.6514 H   0  0  0  0  0  0  0  0  0  0  0  0
    1.4959   62.1378   74.2017 H   0  0  0  0  0  0  0  0  0  0  0  0
    0.6874   60.4923   74.4057 H   0  0  0  0  0  0  0  0  0  0  0  0
    3.0249   60.1957   74.7314 H   0  0  0  0  0  0  0  0  0  0  0  0
    2.5667   59.4961   73.1340 H   0  0  0  0  0  0  0  0  0  0  0  0
    4.4790   61.4350   73.6790 H   0  0  0  0  0  0  0  0  0  0  0  0
    3.3110   62.2390   72.8740 H   0  0  0  0  0  0  0  0  0  0  0  0
    5.3408   60.6904   71.7655 H   0  0  0  0  0  0  0  0  0  0  0  0
    4.1724   58.6521   72.0682 H   0  0  0  0  0  0  0  0  0  0  0  0
    2.5677   59.4396   71.7421 H   0  0  0  0  0  0  0  0  0  0  0  0
    4.7702   58.9463   69.6926 H   0  0  0  0  0  0  0  0  0  0  0  0
    3.2432   58.0025   69.8743 H   0  0  0  0  0  0  0  0  0  0  0  0
    3.2177   59.7971   68.0638 H   0  0  0  0  0  0  0  0  0  0  0  0
    1.8989   59.8949   69.3039 H   0  0  0  0  0  0  0  0  0  0  0  0
    2.6380   62.1100   67.6200 H   0  0  0  0  0  0  0  0  0  0  0  0
    4.5227   65.1101   69.9397 H   0  0  0  0  0  0  0  0  0  0  0  0
    5.0213   63.4364   71.6308 H   0  0  0  0  0  0  0  0  0  0  0  0
  1  2  2  0
  2  3  1  0
  3  4  2  0
  4  5  1  0
  5  6  2  0
  6  7  1  0
  6  8  1  0
  8  9  1  0
  9 10  1  0
 10 11  1  0
 11 12  1  0
 12 13  1  0
 13 14  1  0
 14 15  1  0
 15 16  1  0
 16 17  1  0
 17 18  1  0
 18 19  1  0
 19 20  1  0
 20 21  1  0
 21 22  1  0
 22 23  1  0
 23 24  1  0
 24 25  1  0
 25 26  1  0
 26 27  1  0
 27 28  1  0
 28 29  1  0
 29 30  1  0
 30 31  2  0
 30 32  1  0
 32 33  2  0
 33 34  1  0
  7  2  1  0
 34 24  1  0
 11  5  1  0
 34 28  2  0
  3 35  1  0
  4 36  1  0
  7 37  1  0
  8 38  1  0
  8 39  1  0
  9 40  1  0
  9 41  1  0
 10 42  1  0
 10 43  1  0
 11 44  1  1
 12 45  1  0
 12 46  1  0
 13 47  1  0
 13 48  1  0
 14 49  1  0
 14 50  1  0
 15 51  1  0
 15 52  1  0
 16 53  1  0
 16 54  1  0
 17 55  1  0
 17 56  1  0
 18 57  1  0
 18 58  1  0
 19 59  1  0
 19 60  1  0
 20 61  1  0
 20 62  1  0
 21 63  1  0
 21 64  1  0
 22 65  1  0
 22 66  1  0
 23 67  1  0
 23 68  1  0
 24 69  1  1
 25 70  1  0
 25 71  1  0
 26 72  1  0
 26 73  1  0
 27 74  1  0
 27 75  1  0
 29 76  1  0
 32 77  1  0
 33 78  1  0
M  CHG  2  12   1  23   1
M  END
>  <meeko>  (6) 
{"is_sidechain": [false], "free_energy": -10.352, "intermolecular_energy": -17.867, "internal_energy": -2.535}

$$$$
1h22_ligand
     RDKit          3D

 78 81  0  0  0  0  0  0  0  0999 V2000
    0.6330   68.3120   60.0010 O   0  0  0  0  0  0  0  0  0  0  0  0
    1.2100   68.3080   61.0790 C   0  0  0  0  0  0  0  0  0  0  0  0
    0.4630   68.1660   62.3510 C   0  0  0  0  0  0  0  0  0  0  0  0
    1.1300   68.1000   63.5120 C   0  0  0  0  0  0  0  0  0  0  0  0
    2.5880   68.1430   63.5490 C   0  0  0  0  0  0  0  0  0  0  0  0
    3.2580   68.3610   62.3970 C   0  0  0  0  0  0  0  0  0  0  0  0
    2.5700   68.4320   61.2070 N   0  0  0  0  0  0  0  0  0  0  0  0
    4.7500   68.5550   62.3260 C   0  0  0  0  0  0  0  0  0  0  0  0
    5.3520   68.8880   63.6930 C   0  0  0  0  0  0  0  0  0  0  0  0
    4.8400   67.9200   64.7560 C   0  0  0  0  0  0  0  0  0  0  0  0
    3.3030   67.9740   64.8740 C   0  0  2  0  0  0  0  0  0  0  0  0
    2.8440   66.7730   65.6770 N   0  0  0  0  0  0  0  0  0  0  0  0
    2.8500   66.8990   67.1750 C   0  0  0  0  0  0  0  0  0  0  0  0
    4.0660   66.1560   67.7280 C   0  0  0  0  0  0  0  0  0  0  0  0
    3.8620   65.6560   69.1650 C   0  0  0  0  0  0  0  0  0  0  0  0
    4.6330   64.3700   69.4850 C   0  0  0  0  0  0  0  0  0  0  0  0
    3.7250   63.1390   69.6080 C   0  0  0  0  0  0  0  0  0  0  0  0
    2.4960   63.3020   70.5100 C   0  0  0  0  0  0  0  0  0  0  0  0
    1.5190   62.1240   70.4250 C   0  0  0  0  0  0  0  0  0  0  0  0
    0.3070   62.3530   71.3360 C   0  0  0  0  0  0  0  0  0  0  0  0
    0.6240   63.1900   72.5810 C   0  0  0  0  0  0  0  0  0  0  0  0
    0.6430   62.4290   73.9060 C   0  0  0  0  0  0  0  0  0  0  0  0
    2.0330   61.9850   74.2310 N   0  0  0  0  0  0  0  0  0  0  0  0
    2.2470   60.4900   74.3680 C   0  0  1  0  0  0  0  0  0  0  0  0
    0.9080   59.8670   74.8120 C   0  0  0  0  0  0  0  0  0  0  0  0
    0.8450   58.3710   74.5250 C   0  0  0  0  0  0  0  0  0  0  0  0
    1.0180   58.1040   73.0300 C   0  0  0  0  0  0  0  0  0  0  0  0
    2.2000   58.8440   72.4670 C   0  0  0  0  0  0  0  0  0  0  0  0
    2.6990   58.3820   71.2700 N   0  0  0  0  0  0  0  0  0  0  0  0
    3.7930   58.8990   70.6230 C   0  0  0  0  0  0  0  0  0  0  0  0
    4.1830   58.4930   69.5390 O   0  0  0  0  0  0  0  0  0  0  0  0
    4.4950   59.9900   71.3380 C   0  0  0  0  0  0  0  0  0  0  0  0
    4.0130   60.4400   72.5060 C   0  0  0  0  0  0  0  0  0  0  0  0
    2.7880   59.8930   73.0820 C   0  0  0  0  0  0  0  0  0  0  0  0
   -0.6358   68.1149   62.3425 H   0  0  0  0  0  0  0  0  0  0  0  0
    0.5681   68.0119   64.4535 H   0  0  0  0  0  0  0  0  0  0  0  0
    3.0650   68.5800   60.3320 H   0  0  0  0  0  0  0  0  0  0  0  0
    5.2108   67.6291   61.9514 H   0  0  0  0  0  0  0  0  0  0  0  0
    4.9503   69.4010   61.6521 H   0  0  0  0  0  0  0  0  0  0  0  0
    6.4478   68.8128   63.6334 H   0  0  0  0  0  0  0  0  0  0  0  0
    5.0551   69.9099   63.9716 H   0  0  0  0  0  0  0  0  0  0  0  0
    5.1423   66.8978   64.4844 H   0  0  0  0  0  0  0  0  0  0  0  0
    5.2717   68.2106   65.7251 H   0  0  0  0  0  0  0  0  0  0  0  0
    3.0193   68.8899   65.4131 H   0  0  0  0  0  0  0  0  0  0  0  0
    1.8960   66.5210   65.3630 H   0  0  0  0  0  0  0  0  0  0  0  0
    3.4360   65.9790   65.4090 H   0  0  0  0  0  0  0  0  0  0  0  0
    2.9064   67.9609   67.4563 H   0  0  0  0  0  0  0  0  0  0  0  0
    1.9277   66.4662   67.5897 H   0  0  0  0  0  0  0  0  0  0  0  0
    4.2713   65.2900   67.0815 H   0  0  0  0  0  0  0  0  0  0  0  0
    4.9061   66.8660   67.7432 H   0  0  0  0  0  0  0  0  0  0  0  0
    4.1963   66.4428   69.8573 H   0  0  0  0  0  0  0  0  0  0  0  0
    2.7922   65.4258   69.2766 H   0  0  0  0  0  0  0  0  0  0  0  0
    5.3612   64.1890   68.6807 H   0  0  0  0  0  0  0  0  0  0  0  0
    5.1231   64.5150   70.4591 H   0  0  0  0  0  0  0  0  0  0  0  0
    3.3710   62.8790   68.5995 H   0  0  0  0  0  0  0  0  0  0  0  0
    4.3410   62.3603   70.0814 H   0  0  0  0  0  0  0  0  0  0  0  0
    2.8377   63.3974   71.5512 H   0  0  0  0  0  0  0  0  0  0  0  0
    1.9568   64.1970   70.1661 H   0  0  0  0  0  0  0  0  0  0  0  0
    1.1737   62.0164   69.3861 H   0  0  0  0  0  0  0  0  0  0  0  0
    2.0385   61.2116   70.7531 H   0  0  0  0  0  0  0  0  0  0  0  0
   -0.4704   62.8725   70.7565 H   0  0  0  0  0  0  0  0  0  0  0  0
   -0.0235   61.3645   71.6876 H   0  0  0  0  0  0  0  0  0  0  0  0
    1.6154   63.6448   72.4386 H   0  0  0  0  0  0  0  0  0  0  0  0
   -0.1945   63.9198   72.6670 H   0  0  0  0  0  0  0  0  0  0  0  0
    0.2758   63.0870   74.7074 H   0  0  0  0  0  0  0  0  0  0  0  0
   -0.0036   61.5434   73.8186 H   0  0  0  0  0  0  0  0  0  0  0  0
    2.3140   62.4260   75.1150 H   0  0  0  0  0  0  0  0  0  0  0  0
    2.7030   62.3370   73.5340 H   0  0  0  0  0  0  0  0  0  0  0  0
    3.0108   60.2695   75.1283 H   0  0  0  0  0  0  0  0  0  0  0  0
    0.7850   60.0256   75.8935 H   0  0  0  0  0  0  0  0  0  0  0  0
    0.1035   60.3542   74.2416 H   0  0  0  0  0  0  0  0  0  0  0  0
    1.6479   57.8622   75.0787 H   0  0  0  0  0  0  0  0  0  0  0  0
   -0.1364   57.9892   74.8429 H   0  0  0  0  0  0  0  0  0  0  0  0
    1.1659   57.0250   72.8751 H   0  0  0  0  0  0  0  0  0  0  0  0
    0.1139   58.4558   72.5115 H   0  0  0  0  0  0  0  0  0  0  0  0
    2.2580   57.6030   70.7890 H   0  0  0  0  0  0  0  0  0  0  0  0
    5.4089   60.4298   70.9123 H   0  0  0  0  0  0  0  0  0  0  0  0
    4.5512   61.2368   73.0404 H   0  0  0  0  0  0  0  0  0  0  0  0
  1  2  2  0
  2  3  1  0
  3  4  2  0
  4  5  1  0
  5  6  2  0
  6  7  1  0
  6  8  1  0
  8  9  1  0
  9 10  1  0
 10 11  1  0
 11 12  1  0
 12 13  1  0
 13 14  1  0
 14 15  1  0
 15 16  1  0
 16 17  1  0
 17 18  1  0
 18 19  1  0
 19 20  1  0
 20 21  1  0
 21 22  1  0
 22 23  1  0
 23 24  1  0
 24 25  1  0
 25 26  1  0
 26 27  1  0
 27 28  1  0
 28 29  1  0
 29 30  1  0
 30 31  2  0
 30 32  1  0
 32 33  2  0
 33 34  1  0
  7  2  1  0
 34 24  1  0
 11  5  1  0
 34 28  2  0
  3 35  1  0
  4 36  1  0
  7 37  1  0
  8 38  1  0
  8 39  1  0
  9 40  1  0
  9 41  1  0
 10 42  1  0
 10 43  1  0
 11 44  1  1
 12 45  1  0
 12 46  1  0
 13 47  1  0
 13 48  1  0
 14 49  1  0
 14 50  1  0
 15 51  1  0
 15 52  1  0
 16 53  1  0
 16 54  1  0
 17 55  1  0
 17 56  1  0
 18 57  1  0
 18 58  1  0
 19 59  1  0
 19 60  1  0
 20 61  1  0
 20 62  1  0
 21 63  1  0
 21 64  1  0
 22 65  1  0
 22 66  1  0
 23 67  1  0
 23 68  1  0
 24 69  1  1
 25 70  1  0
 25 71  1  0
 26 72  1  0
 26 73  1  0
 27 74  1  0
 27 75  1  0
 29 76  1  0
 32 77  1  0
 33 78  1  0
M  CHG  2  12   1  23   1
M  END
>  <meeko>  (7) 
{"is_sidechain": [false], "free_energy": -10.265, "intermolecular_energy": -18.286, "internal_energy": -1.964}

$$$$
1h22_ligand
     RDKit          3D

 78 81  0  0  0  0  0  0  0  0999 V2000
    3.1120   62.9790   68.1150 O   0  0  0  0  0  0  0  0  0  0  0  0
    3.3160   62.2960   69.1080 C   0  0  0  0  0  0  0  0  0  0  0  0
    3.8100   62.8980   70.3690 C   0  0  0  0  0  0  0  0  0  0  0  0
    3.9620   62.1320   71.4590 C   0  0  0  0  0  0  0  0  0  0  0  0
    3.6280   60.7120   71.4360 C   0  0  0  0  0  0  0  0  0  0  0  0
    3.2630   60.1520   70.2630 C   0  0  0  0  0  0  0  0  0  0  0  0
    3.1120   60.9400   69.1450 N   0  0  0  0  0  0  0  0  0  0  0  0
    3.0220   58.6750   70.0860 C   0  0  0  0  0  0  0  0  0  0  0  0
    3.6210   57.8540   71.2290 C   0  0  0  0  0  0  0  0  0  0  0  0
    3.2350   58.4500   72.5800 C   0  0  0  0  0  0  0  0  0  0  0  0
    3.7290   59.9050   72.7140 C   0  0  2  0  0  0  0  0  0  0  0  0
    3.0320   60.5380   73.9030 N   0  0  0  0  0  0  0  0  0  0  0  0
    1.5350   60.6600   73.8430 C   0  0  0  0  0  0  0  0  0  0  0  0
    1.1290   62.0320   74.3790 C   0  0  0  0  0  0  0  0  0  0  0  0
    0.6520   62.9900   73.2780 C   0  0  0  0  0  0  0  0  0  0  0  0
    0.1440   62.2770   72.0190 C   0  0  0  0  0  0  0  0  0  0  0  0
    0.1530   63.1740   70.7750 C   0  0  0  0  0  0  0  0  0  0  0  0
    0.4670   64.6540   71.0200 C   0  0  0  0  0  0  0  0  0  0  0  0
    0.6860   65.4520   69.7290 C   0  0  0  0  0  0  0  0  0  0  0  0
    2.1450   65.9080   69.6080 C   0  0  0  0  0  0  0  0  0  0  0  0
    2.2980   67.4120   69.3520 C   0  0  0  0  0  0  0  0  0  0  0  0
    2.2230   67.8470   67.8880 C   0  0  0  0  0  0  0  0  0  0  0  0
    3.1400   67.0150   67.0510 N   0  0  0  0  0  0  0  0  0  0  0  0
    2.9790   67.1410   65.5490 C   0  0  1  0  0  0  0  0  0  0  0  0
    3.7130   68.4250   65.1080 C   0  0  0  0  0  0  0  0  0  0  0  0
    4.0410   68.4180   63.6190 C   0  0  0  0  0  0  0  0  0  0  0  0
    4.9270   67.2230   63.2690 C   0  0  0  0  0  0  0  0  0  0  0  0
    4.3820   65.9420   63.8400 C   0  0  0  0  0  0  0  0  0  0  0  0
    4.8390   64.7750   63.2710 N   0  0  0  0  0  0  0  0  0  0  0  0
    4.4280   63.5150   63.6260 C   0  0  0  0  0  0  0  0  0  0  0  0
    4.8880   62.4970   63.1310 O   0  0  0  0  0  0  0  0  0  0  0  0
    3.3660   63.4620   64.6560 C   0  0  0  0  0  0  0  0  0  0  0  0
    2.9160   64.5980   65.2100 C   0  0  0  0  0  0  0  0  0  0  0  0
    3.4730   65.8950   64.8370 C   0  0  0  0  0  0  0  0  0  0  0  0
    4.0513   63.9704   70.4106 H   0  0  0  0  0  0  0  0  0  0  0  0
    4.3452   62.5821   72.3867 H   0  0  0  0  0  0  0  0  0  0  0  0
    2.8230   60.5310   68.2600 H   0  0  0  0  0  0  0  0  0  0  0  0
    1.9376   58.4943   70.0497 H   0  0  0  0  0  0  0  0  0  0  0  0
    3.5100   58.3615   69.1514 H   0  0  0  0  0  0  0  0  0  0  0  0
    3.2446   56.8222   71.1685 H   0  0  0  0  0  0  0  0  0  0  0  0
    4.7171   57.8659   71.1369 H   0  0  0  0  0  0  0  0  0  0  0  0
    2.1396   58.4332   72.6789 H   0  0  0  0  0  0  0  0  0  0  0  0
    3.7072   57.8494   73.3714 H   0  0  0  0  0  0  0  0  0  0  0  0
    4.8128   59.8963   72.9016 H   0  0  0  0  0  0  0  0  0  0  0  0
    3.2950   60.0100   74.7470 H   0  0  0  0  0  0  0  0  0  0  0  0
    3.4360   61.4720   74.0340 H   0  0  0  0  0  0  0  0  0  0  0  0
    1.1974   60.5557   72.8013 H   0  0  0  0  0  0  0  0  0  0  0  0
    1.0717   59.8697   74.4519 H   0  0  0  0  0  0  0  0  0  0  0  0
    0.3128   61.8974   75.1041 H   0  0  0  0  0  0  0  0  0  0  0  0
    2.0202   62.4809   74.8419 H   0  0  0  0  0  0  0  0  0  0  0  0
   -0.1654   63.6049   73.6827 H   0  0  0  0  0  0  0  0  0  0  0  0
    1.5214   63.5932   72.9775 H   0  0  0  0  0  0  0  0  0  0  0  0
    0.7868   61.4053   71.8268 H   0  0  0  0  0  0  0  0  0  0  0  0
   -0.9001   61.9854   72.2057 H   0  0  0  0  0  0  0  0  0  0  0  0
    0.9091   62.7794   70.0803 H   0  0  0  0  0  0  0  0  0  0  0  0
   -0.8740   63.1484   70.3818 H   0  0  0  0  0  0  0  0  0  0  0  0
   -0.3741   65.1027   71.5688 H   0  0  0  0  0  0  0  0  0  0  0  0
    1.4061   64.6964   71.5912 H   0  0  0  0  0  0  0  0  0  0  0  0
    0.4343   64.8175   68.8664 H   0  0  0  0  0  0  0  0  0  0  0  0
    0.0405   66.3424   69.7526 H   0  0  0  0  0  0  0  0  0  0  0  0
    2.6659   65.6597   70.5445 H   0  0  0  0  0  0  0  0  0  0  0  0
    2.5751   65.3872   68.7398 H   0  0  0  0  0  0  0  0  0  0  0  0
    1.4979   67.9311   69.9001 H   0  0  0  0  0  0  0  0  0  0  0  0
    3.3120   67.6718   69.6901 H   0  0  0  0  0  0  0  0  0  0  0  0
    1.1914   67.7257   67.5260 H   0  0  0  0  0  0  0  0  0  0  0  0
    2.5279   68.9012   67.8123 H   0  0  0  0  0  0  0  0  0  0  0  0
    3.0010   66.0290   67.3010 H   0  0  0  0  0  0  0  0  0  0  0  0
    4.1240   67.2110   67.2790 H   0  0  0  0  0  0  0  0  0  0  0  0
    1.9176   67.2254   65.2729 H   0  0  0  0  0  0  0  0  0  0  0  0
    3.0719   69.2920   65.3255 H   0  0  0  0  0  0  0  0  0  0  0  0
    4.6614   68.4794   65.6626 H   0  0  0  0  0  0  0  0  0  0  0  0
    3.1059   68.3557   63.0431 H   0  0  0  0  0  0  0  0  0  0  0  0
    4.5801   69.3440   63.3703 H   0  0  0  0  0  0  0  0  0  0  0  0
    4.9843   67.1298   62.1745 H   0  0  0  0  0  0  0  0  0  0  0  0
    5.9234   67.3956   63.7018 H   0  0  0  0  0  0  0  0  0  0  0  0
    5.5330   64.7950   62.5290 H   0  0  0  0  0  0  0  0  0  0  0  0
    2.9468   62.4935   64.9664 H   0  0  0  0  0  0  0  0  0  0  0  0
    2.1122   64.5513   65.9594 H   0  0  0  0  0  0  0  0  0  0  0  0
  1  2  2  0
  2  3  1  0
  3  4  2  0
  4  5  1  0
  5  6  2  0
  6  7  1  0
  6  8  1  0
  8  9  1  0
  9 10  1  0
 10 11  1  0
 11 12  1  0
 12 13  1  0
 13 14  1  0
 14 15  1  0
 15 16  1  0
 16 17  1  0
 17 18  1  0
 18 19  1  0
 19 20  1  0
 20 21  1  0
 21 22  1  0
 22 23  1  0
 23 24  1  0
 24 25  1  0
 25 26  1  0
 26 27  1  0
 27 28  1  0
 28 29  1  0
 29 30  1  0
 30 31  2  0
 30 32  1  0
 32 33  2  0
 33 34  1  0
  7  2  1  0
 34 24  1  0
 11  5  1  0
 34 28  2  0
  3 35  1  0
  4 36  1  0
  7 37  1  0
  8 38  1  0
  8 39  1  0
  9 40  1  0
  9 41  1  0
 10 42  1  0
 10 43  1  0
 11 44  1  1
 12 45  1  0
 12 46  1  0
 13 47  1  0
 13 48  1  0
 14 49  1  0
 14 50  1  0
 15 51  1  0
 15 52  1  0
 16 53  1  0
 16 54  1  0
 17 55  1  0
 17 56  1  0
 18 57  1  0
 18 58  1  0
 19 59  1  0
 19 60  1  0
 20 61  1  0
 20 62  1  0
 21 63  1  0
 21 64  1  0
 22 65  1  0
 22 66  1  0
 23 67  1  0
 23 68  1  0
 24 69  1  1
 25 70  1  0
 25 71  1  0
 26 72  1  0
 26 73  1  0
 27 74  1  0
 27 75  1  0
 29 76  1  0
 32 77  1  0
 33 78  1  0
M  CHG  2  12   1  23   1
M  END
>  <meeko>  (8) 
{"is_sidechain": [false], "free_energy": -10.218, "intermolecular_energy": -17.755, "internal_energy": -2.412}

$$$$
1h22_ligand
     RDKit          3D

 78 81  0  0  0  0  0  0  0  0999 V2000
    4.8560   62.4220   63.0340 O   0  0  0  0  0  0  0  0  0  0  0  0
    4.4610   63.4740   63.5140 C   0  0  0  0  0  0  0  0  0  0  0  0
    3.5560   63.4930   64.6870 C   0  0  0  0  0  0  0  0  0  0  0  0
    3.1920   64.6640   65.2300 C   0  0  0  0  0  0  0  0  0  0  0  0
    3.6910   65.9290   64.7010 C   0  0  0  0  0  0  0  0  0  0  0  0
    4.4440   65.9090   63.5800 C   0  0  0  0  0  0  0  0  0  0  0  0
    4.8120   64.7060   63.0220 N   0  0  0  0  0  0  0  0  0  0  0  0
    4.9060   67.1530   62.8660 C   0  0  0  0  0  0  0  0  0  0  0  0
    4.1100   68.3890   63.2910 C   0  0  0  0  0  0  0  0  0  0  0  0
    4.0150   68.4710   64.8110 C   0  0  0  0  0  0  0  0  0  0  0  0
    3.3280   67.2220   65.4010 C   0  0  2  0  0  0  0  0  0  0  0  0
    3.5700   67.2060   66.8980 N   0  0  0  0  0  0  0  0  0  0  0  0
    4.5080   66.1620   67.4350 C   0  0  0  0  0  0  0  0  0  0  0  0
    3.8890   65.5380   68.6850 C   0  0  0  0  0  0  0  0  0  0  0  0
    4.9350   64.9720   69.6560 C   0  0  0  0  0  0  0  0  0  0  0  0
    4.6030   63.5660   70.1700 C   0  0  0  0  0  0  0  0  0  0  0  0
    3.3000   63.0040   69.5870 C   0  0  0  0  0  0  0  0  0  0  0  0
    2.0390   63.2340   70.4270 C   0  0  0  0  0  0  0  0  0  0  0  0
    1.1180   62.0100   70.4900 C   0  0  0  0  0  0  0  0  0  0  0  0
    0.1110   62.1410   71.6390 C   0  0  0  0  0  0  0  0  0  0  0  0
    0.5180   63.1750   72.6960 C   0  0  0  0  0  0  0  0  0  0  0  0
    0.8080   62.6200   74.0900 C   0  0  0  0  0  0  0  0  0  0  0  0
    2.2000   62.0800   74.1560 N   0  0  0  0  0  0  0  0  0  0  0  0
    2.3320   60.5750   74.2920 C   0  0  1  0  0  0  0  0  0  0  0  0
    0.9570   60.0250   74.7290 C   0  0  0  0  0  0  0  0  0  0  0  0
    0.8140   58.5360   74.4390 C   0  0  0  0  0  0  0  0  0  0  0  0
    0.9800   58.2610   72.9450 C   0  0  0  0  0  0  0  0  0  0  0  0
    2.2030   58.9360   72.3880 C   0  0  0  0  0  0  0  0  0  0  0  0
    2.6820   58.4490   71.1930 N   0  0  0  0  0  0  0  0  0  0  0  0
    3.8060   58.9060   70.5520 C   0  0  0  0  0  0  0  0  0  0  0  0
    4.1780   58.4800   69.4690 O   0  0  0  0  0  0  0  0  0  0  0  0
    4.5620   59.9560   71.2710 C   0  0  0  0  0  0  0  0  0  0  0  0
    4.1000   60.4300   72.4380 C   0  0  0  0  0  0  0  0  0  0  0  0
    2.8450   59.9510   73.0070 C   0  0  0  0  0  0  0  0  0  0  0  0
    3.1836   62.5490   65.1114 H   0  0  0  0  0  0  0  0  0  0  0  0
    2.5052   64.6709   66.0892 H   0  0  0  0  0  0  0  0  0  0  0  0
    5.3910   64.6790   62.1870 H   0  0  0  0  0  0  0  0  0  0  0  0
    5.9689   67.3195   63.0950 H   0  0  0  0  0  0  0  0  0  0  0  0
    4.7492   67.0030   61.7876 H   0  0  0  0  0  0  0  0  0  0  0  0
    4.6127   69.2907   62.9112 H   0  0  0  0  0  0  0  0  0  0  0  0
    3.0939   68.3159   62.8760 H   0  0  0  0  0  0  0  0  0  0  0  0
    5.0292   68.5525   65.2290 H   0  0  0  0  0  0  0  0  0  0  0  0
    3.4125   69.3533   65.0728 H   0  0  0  0  0  0  0  0  0  0  0  0
    2.2455   67.2921   65.2184 H   0  0  0  0  0  0  0  0  0  0  0  0
    3.9050   68.1380   67.1790 H   0  0  0  0  0  0  0  0  0  0  0  0
    2.6580   67.0990   67.3550 H   0  0  0  0  0  0  0  0  0  0  0  0
    4.6690   65.3837   66.6745 H   0  0  0  0  0  0  0  0  0  0  0  0
    5.4743   66.6229   67.6874 H   0  0  0  0  0  0  0  0  0  0  0  0
    3.3057   66.3093   69.2093 H   0  0  0  0  0  0  0  0  0  0  0  0
    3.2591   64.6987   68.3553 H   0  0  0  0  0  0  0  0  0  0  0  0
    5.9043   64.9321   69.1375 H   0  0  0  0  0  0  0  0  0  0  0  0
    4.9539   65.6378   70.5314 H   0  0  0  0  0  0  0  0  0  0  0  0
    5.4277   62.8904   69.8990 H   0  0  0  0  0  0  0  0  0  0  0  0
    4.4705   63.6380   71.2596 H   0  0  0  0  0  0  0  0  0  0  0  0
    3.1407   63.4718   68.6043 H   0  0  0  0  0  0  0  0  0  0  0  0
    3.4370   61.9133   69.5468 H   0  0  0  0  0  0  0  0  0  0  0  0
    2.3448   63.4934   71.4513 H   0  0  0  0  0  0  0  0  0  0  0  0
    1.4710   64.0435   69.9452 H   0  0  0  0  0  0  0  0  0  0  0  0
    0.5707   61.9219   69.5399 H   0  0  0  0  0  0  0  0  0  0  0  0
    1.7341   61.1153   70.6631 H   0  0  0  0  0  0  0  0  0  0  0  0
   -0.8608   62.4380   71.2178 H   0  0  0  0  0  0  0  0  0  0  0  0
    0.0670   61.1642   72.1429 H   0  0  0  0  0  0  0  0  0  0  0  0
    1.4259   63.6834   72.3392 H   0  0  0  0  0  0  0  0  0  0  0  0
   -0.3497   63.8408   72.8133 H   0  0  0  0  0  0  0  0  0  0  0  0
    0.6959   63.4250   74.8312 H   0  0  0  0  0  0  0  0  0  0  0  0
    0.0990   61.8069   74.3052 H   0  0  0  0  0  0  0  0  0  0  0  0
    2.6760   62.5120   74.9560 H   0  0  0  0  0  0  0  0  0  0  0  0
    2.7450   62.3710   73.3340 H   0  0  0  0  0  0  0  0  0  0  0  0
    3.0793   60.3123   75.0553 H   0  0  0  0  0  0  0  0  0  0  0  0
    0.8375   60.1884   75.8102 H   0  0  0  0  0  0  0  0  0  0  0  0
    0.1831   60.5565   74.1558 H   0  0  0  0  0  0  0  0  0  0  0  0
    1.5849   57.9835   74.9962 H   0  0  0  0  0  0  0  0  0  0  0  0
   -0.1888   58.2085   74.7507 H   0  0  0  0  0  0  0  0  0  0  0  0
    1.0700   57.1757   72.7901 H   0  0  0  0  0  0  0  0  0  0  0  0
    0.0990   58.6619   72.4225 H   0  0  0  0  0  0  0  0  0  0  0  0
    2.2010   57.6950   70.7090 H   0  0  0  0  0  0  0  0  0  0  0  0
    5.5000   60.3466   70.8497 H   0  0  0  0  0  0  0  0  0  0  0  0
    4.6789   61.1949   72.9764 H   0  0  0  0  0  0  0  0  0  0  0  0
  1  2  2  0
  2  3  1  0
  3  4  2  0
  4  5  1  0
  5  6  2  0
  6  7  1  0
  6  8  1  0
  8  9  1  0
  9 10  1  0
 10 11  1  0
 11 12  1  0
 12 13  1  0
 13 14  1  0
 14 15  1  0
 15 16  1  0
 16 17  1  0
 17 18  1  0
 18 19  1  0
 19 20  1  0
 20 21  1  0
 21 22  1  0
 22 23  1  0
 23 24  1  0
 24 25  1  0
 25 26  1  0
 26 27  1  0
 27 28  1  0
 28 29  1  0
 29 30  1  0
 30 31  2  0
 30 32  1  0
 32 33  2  0
 33 34  1  0
  7  2  1  0
 34 24  1  0
 11  5  1  0
 34 28  2  0
  3 35  1  0
  4 36  1  0
  7 37  1  0
  8 38  1  0
  8 39  1  0
  9 40  1  0
  9 41  1  0
 10 42  1  0
 10 43  1  0
 11 44  1  1
 12 45  1  0
 12 46  1  0
 13 47  1  0
 13 48  1  0
 14 49  1  0
 14 50  1  0
 15 51  1  0
 15 52  1  0
 16 53  1  0
 16 54  1  0
 17 55  1  0
 17 56  1  0
 18 57  1  0
 18 58  1  0
 19 59  1  0
 19 60  1  0
 20 61  1  0
 20 62  1  0
 21 63  1  0
 21 64  1  0
 22 65  1  0
 22 66  1  0
 23 67  1  0
 23 68  1  0
 24 69  1  1
 25 70  1  0
 25 71  1  0
 26 72  1  0
 26 73  1  0
 27 74  1  0
 27 75  1  0
 29 76  1  0
 32 77  1  0
 33 78  1  0
M  CHG  2  12   1  23   1
M  END
>  <meeko>  (9) 
{"is_sidechain": [false], "free_energy": -10.157, "intermolecular_energy": -18.101, "internal_energy": -1.958}

$$$$
