3cj4_ligand
     RDKit          3D

 47 48  0  0  0  0  0  0  0  0999 V2000
  -20.7780    9.1250  -12.3840 C   0  0  0  0  0  0  0  0  0  0  0  0
  -21.9530    8.3760  -13.0070 C   0  0  2  0  0  0  0  0  0  0  0  0
  -21.4860    7.5120  -14.1840 C   0  0  0  0  0  0  0  0  0  0  0  0
  -22.6790    6.7900  -14.8180 C   0  0  2  0  0  0  0  0  0  0  0  0
  -22.2300    5.9450  -16.0070 C   0  0  0  0  0  0  0  0  0  0  0  0
  -23.7530    7.7970  -15.2430 C   0  0  0  0  0  0  0  0  0  0  0  0
  -24.1460    8.6870  -14.1530 N   0  0  0  0  0  0  0  0  0  0  0  0
  -25.4080    9.2810  -14.2810 C   0  0  0  0  0  0  0  0  0  0  0  0
  -25.7410   10.0290  -15.2000 O   0  0  0  0  0  0  0  0  0  0  0  0
  -26.4690    8.8800  -13.3390 C   0  0  0  0  0  0  0  0  0  0  0  0
  -26.4950    9.6080  -12.1350 C   0  0  0  0  0  0  0  0  0  0  0  0
  -27.4250    9.2830  -11.1580 C   0  0  0  0  0  0  0  0  0  0  0  0
  -27.4760   10.2590   -9.5410 Br  0  0  0  0  0  0  0  0  0  0  0  0
  -28.3160    8.2380  -11.3670 C   0  0  0  0  0  0  0  0  0  0  0  0
  -28.2760    7.5100  -12.5630 C   0  0  0  0  0  0  0  0  0  0  0  0
  -27.3530    7.8100  -13.5770 C   0  0  0  0  0  0  0  0  0  0  0  0
  -27.3130    7.0900  -14.7970 N   0  0  0  0  0  0  0  0  0  0  0  0
  -26.7040    5.8740  -15.0460 C   0  0  0  0  0  0  0  0  0  0  0  0
  -26.0550    5.2070  -14.2390 O   0  0  0  0  0  0  0  0  0  0  0  0
  -26.8600    5.3720  -16.4750 C   0  0  0  0  0  0  0  0  0  0  0  0
  -25.6420    5.6630  -17.3440 C   0  0  0  0  0  0  0  0  0  0  0  0
  -25.7310    6.9770  -18.1080 C   0  0  0  0  0  0  0  0  0  0  0  0
  -24.8200    7.1700  -18.9550 O   0  0  0  0  0  0  0  0  0  0  0  0
  -26.7280    7.7020  -17.8280 O   0  0  0  0  0  0  0  0  0  0  0  0
  -23.0440    9.3560  -13.4530 C   0  0  0  0  0  0  0  0  0  0  0  0
  -20.8527    9.0774  -11.2876 H   0  0  0  0  0  0  0  0  0  0  0  0
  -19.8345    8.6613  -12.7077 H   0  0  0  0  0  0  0  0  0  0  0  0
  -20.8000   10.1761  -12.7077 H   0  0  0  0  0  0  0  0  0  0  0  0
  -22.3794    7.7102  -12.2422 H   0  0  0  0  0  0  0  0  0  0  0  0
  -21.0074    8.1539  -14.9382 H   0  0  0  0  0  0  0  0  0  0  0  0
  -20.7682    6.7638  -13.8167 H   0  0  0  0  0  0  0  0  0  0  0  0
  -23.1149    6.1166  -14.0653 H   0  0  0  0  0  0  0  0  0  0  0  0
  -21.7430    5.0285  -15.6424 H   0  0  0  0  0  0  0  0  0  0  0  0
  -23.1048    5.6773  -16.6178 H   0  0  0  0  0  0  0  0  0  0  0  0
  -21.5186    6.5202  -16.6178 H   0  0  0  0  0  0  0  0  0  0  0  0
  -23.3591    8.4051  -16.0707 H   0  0  0  0  0  0  0  0  0  0  0  0
  -24.6435    7.2280  -15.5484 H   0  0  0  0  0  0  0  0  0  0  0  0
  -25.7825   10.4296  -11.9695 H   0  0  0  0  0  0  0  0  0  0  0  0
  -29.0538    7.9819  -10.5924 H   0  0  0  0  0  0  0  0  0  0  0  0
  -28.9856    6.6826  -12.7113 H   0  0  0  0  0  0  0  0  0  0  0  0
  -27.8390    7.4770  -15.6020 H   0  0  0  0  0  0  0  0  0  0  0  0
  -27.0203    4.2841  -16.4490 H   0  0  0  0  0  0  0  0  0  0  0  0
  -27.7155    5.9022  -16.9188 H   0  0  0  0  0  0  0  0  0  0  0  0
  -24.7541    5.6984  -16.6957 H   0  0  0  0  0  0  0  0  0  0  0  0
  -25.5846    4.8601  -18.0938 H   0  0  0  0  0  0  0  0  0  0  0  0
  -22.5960   10.0994  -14.1288 H   0  0  0  0  0  0  0  0  0  0  0  0
  -23.4586    9.8290  -12.5506 H   0  0  0  0  0  0  0  0  0  0  0  0
  1  2  1  0
  2  3  1  0
  3  4  1  0
  4  5  1  0
  4  6  1  0
  6  7  1  0
  7  8  1  0
  8  9  2  0
  8 10  1  0
 10 11  2  0
 11 12  1  0
 12 13  1  0
 12 14  2  0
 14 15  1  0
 15 16  2  0
 16 17  1  0
 17 18  1  0
 18 19  2  0
 18 20  1  0
 20 21  1  0
 21 22  1  0
 22 23  2  0
 22 24  1  0
  7 25  1  0
 25  2  1  0
 16 10  1  0
  1 26  1  0
  1 27  1  0
  1 28  1  0
  2 29  1  1
  3 30  1  0
  3 31  1  0
  4 32  1  1
  5 33  1  0
  5 34  1  0
  5 35  1  0
  6 36  1  0
  6 37  1  0
 11 38  1  0
 14 39  1  0
 15 40  1  0
 17 41  1  0
 20 42  1  0
 20 43  1  0
 21 44  1  0
 21 45  1  0
 25 46  1  0
 25 47  1  0
M  CHG  1  24  -1
M  END
>  <meeko>  (1) 
{"is_sidechain": [false], "free_energy": -6.759, "intermolecular_energy": -9.13, "internal_energy": -1.694}

$$$$
3cj4_ligand
     RDKit          3D

 47 48  0  0  0  0  0  0  0  0999 V2000
  -29.0660    3.9520  -13.5730 C   0  0  0  0  0  0  0  0  0  0  0  0
  -27.7140    4.6600  -13.6000 C   0  0  2  0  0  0  0  0  0  0  0  0
  -27.5730    5.6080  -12.4030 C   0  0  0  0  0  0  0  0  0  0  0  0
  -26.2250    6.3340  -12.4590 C   0  0  2  0  0  0  0  0  0  0  0  0
  -26.0820    7.3000  -11.2850 C   0  0  0  0  0  0  0  0  0  0  0  0
  -26.0670    7.0740  -13.7920 C   0  0  0  0  0  0  0  0  0  0  0  0
  -26.2860    6.2010  -14.9430 N   0  0  0  0  0  0  0  0  0  0  0  0
  -25.7050    6.6270  -16.1440 C   0  0  0  0  0  0  0  0  0  0  0  0
  -25.9970    7.6660  -16.7350 O   0  0  0  0  0  0  0  0  0  0  0  0
  -24.5620    5.8640  -16.6780 C   0  0  0  0  0  0  0  0  0  0  0  0
  -24.9090    4.6890  -17.3720 C   0  0  0  0  0  0  0  0  0  0  0  0
  -23.9080    3.8720  -17.8770 C   0  0  0  0  0  0  0  0  0  0  0  0
  -24.3610    2.2970  -18.8180 Br  0  0  0  0  0  0  0  0  0  0  0  0
  -22.5740    4.2080  -17.6880 C   0  0  0  0  0  0  0  0  0  0  0  0
  -22.2360    5.3730  -16.9860 C   0  0  0  0  0  0  0  0  0  0  0  0
  -23.2190    6.2280  -16.4630 C   0  0  0  0  0  0  0  0  0  0  0  0
  -22.8900    7.4160  -15.7640 N   0  0  0  0  0  0  0  0  0  0  0  0
  -22.6150    7.5600  -14.4160 C   0  0  0  0  0  0  0  0  0  0  0  0
  -22.6360    6.6650  -13.5700 O   0  0  0  0  0  0  0  0  0  0  0  0
  -22.2870    8.9850  -13.9890 C   0  0  0  0  0  0  0  0  0  0  0  0
  -21.9230    9.0940  -12.5130 C   0  0  0  0  0  0  0  0  0  0  0  0
  -20.4240    9.0970  -12.2480 C   0  0  0  0  0  0  0  0  0  0  0  0
  -19.6950    9.1750  -13.2720 O   0  0  0  0  0  0  0  0  0  0  0  0
  -20.0880    9.0570  -11.0300 O   0  0  0  0  0  0  0  0  0  0  0  0
  -27.5270    5.4190  -14.9180 C   0  0  0  0  0  0  0  0  0  0  0  0
  -29.3745    3.7904  -12.5296 H   0  0  0  0  0  0  0  0  0  0  0  0
  -29.8156    4.5733  -14.0850 H   0  0  0  0  0  0  0  0  0  0  0  0
  -28.9822    2.9820  -14.0850 H   0  0  0  0  0  0  0  0  0  0  0  0
  -26.9250    3.8969  -13.5274 H   0  0  0  0  0  0  0  0  0  0  0  0
  -28.3859    6.3486  -12.4283 H   0  0  0  0  0  0  0  0  0  0  0  0
  -27.6271    5.0227  -11.4732 H   0  0  0  0  0  0  0  0  0  0  0  0
  -25.4250    5.5828  -12.3837 H   0  0  0  0  0  0  0  0  0  0  0  0
  -26.1644    6.7432  -10.3399 H   0  0  0  0  0  0  0  0  0  0  0  0
  -25.1008    7.7948  -11.3347 H   0  0  0  0  0  0  0  0  0  0  0  0
  -26.8777    8.0578  -11.3347 H   0  0  0  0  0  0  0  0  0  0  0  0
  -26.7968    7.8962  -13.8283 H   0  0  0  0  0  0  0  0  0  0  0  0
  -25.0344    7.4490  -13.8471 H   0  0  0  0  0  0  0  0  0  0  0  0
  -25.9665    4.4208  -17.5128 H   0  0  0  0  0  0  0  0  0  0  0  0
  -21.7817    3.5592  -18.0897 H   0  0  0  0  0  0  0  0  0  0  0  0
  -21.1747    5.6235  -16.8413 H   0  0  0  0  0  0  0  0  0  0  0  0
  -22.7870    8.2870  -16.3160 H   0  0  0  0  0  0  0  0  0  0  0  0
  -21.4365    9.3436  -14.5875 H   0  0  0  0  0  0  0  0  0  0  0  0
  -23.1886    9.5938  -14.1520 H   0  0  0  0  0  0  0  0  0  0  0  0
  -22.3465   10.0299  -12.1197 H   0  0  0  0  0  0  0  0  0  0  0  0
  -22.3343    8.2035  -12.0152 H   0  0  0  0  0  0  0  0  0  0  0  0
  -28.3778    6.1025  -15.0556 H   0  0  0  0  0  0  0  0  0  0  0  0
  -27.4711    4.6761  -15.7273 H   0  0  0  0  0  0  0  0  0  0  0  0
  1  2  1  0
  2  3  1  0
  3  4  1  0
  4  5  1  0
  4  6  1  0
  6  7  1  0
  7  8  1  0
  8  9  2  0
  8 10  1  0
 10 11  2  0
 11 12  1  0
 12 13  1  0
 12 14  2  0
 14 15  1  0
 15 16  2  0
 16 17  1  0
 17 18  1  0
 18 19  2  0
 18 20  1  0
 20 21  1  0
 21 22  1  0
 22 23  2  0
 22 24  1  0
  7 25  1  0
 25  2  1  0
 16 10  1  0
  1 26  1  0
  1 27  1  0
  1 28  1  0
  2 29  1  1
  3 30  1  0
  3 31  1  0
  4 32  1  1
  5 33  1  0
  5 34  1  0
  5 35  1  0
  6 36  1  0
  6 37  1  0
 11 38  1  0
 14 39  1  0
 15 40  1  0
 17 41  1  0
 20 42  1  0
 20 43  1  0
 21 44  1  0
 21 45  1  0
 25 46  1  0
 25 47  1  0
M  CHG  1  24  -1
M  END
>  <meeko>  (2) 
{"is_sidechain": [false], "free_energy": -6.712, "intermolecular_energy": -9.405, "internal_energy": -1.355}

$$$$
3cj4_ligand
     RDKit          3D

 47 48  0  0  0  0  0  0  0  0999 V2000
  -29.7270    7.5290  -13.3610 C   0  0  0  0  0  0  0  0  0  0  0  0
  -28.3670    7.9190  -12.7890 C   0  0  2  0  0  0  0  0  0  0  0  0
  -28.5320    8.7300  -11.4990 C   0  0  0  0  0  0  0  0  0  0  0  0
  -27.1600    9.1400  -10.9520 C   0  0  2  0  0  0  0  0  0  0  0  0
  -27.3120    9.9700   -9.6790 C   0  0  0  0  0  0  0  0  0  0  0  0
  -26.3670    9.9120  -12.0110 C   0  0  0  0  0  0  0  0  0  0  0  0
  -26.2770    9.1880  -13.2770 N   0  0  0  0  0  0  0  0  0  0  0  0
  -25.2090    9.5530  -14.1080 C   0  0  0  0  0  0  0  0  0  0  0  0
  -25.1760   10.5670  -14.8030 O   0  0  0  0  0  0  0  0  0  0  0  0
  -23.9720    8.7520  -14.0480 C   0  0  0  0  0  0  0  0  0  0  0  0
  -22.9610    9.2880  -13.2290 C   0  0  0  0  0  0  0  0  0  0  0  0
  -21.7390    8.6390  -13.1360 C   0  0  0  0  0  0  0  0  0  0  0  0
  -20.3770    9.3430  -12.0320 Br  0  0  0  0  0  0  0  0  0  0  0  0
  -21.5140    7.4730  -13.8580 C   0  0  0  0  0  0  0  0  0  0  0  0
  -22.5220    6.9520  -14.6800 C   0  0  0  0  0  0  0  0  0  0  0  0
  -23.7720    7.5770  -14.7980 C   0  0  0  0  0  0  0  0  0  0  0  0
  -24.8040    7.0520  -15.6160 N   0  0  0  0  0  0  0  0  0  0  0  0
  -25.7090    6.0540  -15.3070 C   0  0  0  0  0  0  0  0  0  0  0  0
  -25.7570    5.4170  -14.2530 O   0  0  0  0  0  0  0  0  0  0  0  0
  -26.6990    5.7330  -16.4190 C   0  0  0  0  0  0  0  0  0  0  0  0
  -26.7250    6.7920  -17.5150 C   0  0  0  0  0  0  0  0  0  0  0  0
  -25.7970    6.4910  -18.6830 C   0  0  0  0  0  0  0  0  0  0  0  0
  -24.8630    7.3180  -18.8580 O   0  0  0  0  0  0  0  0  0  0  0  0
  -26.0500    5.4270  -19.3180 O   0  0  0  0  0  0  0  0  0  0  0  0
  -27.5490    8.7030  -13.8220 C   0  0  0  0  0  0  0  0  0  0  0  0
  -30.4274    7.3281  -12.5369 H   0  0  0  0  0  0  0  0  0  0  0  0
  -30.1145    8.3522  -13.9792 H   0  0  0  0  0  0  0  0  0  0  0  0
  -29.6194    6.6255  -13.9792 H   0  0  0  0  0  0  0  0  0  0  0  0
  -27.8199    6.9962  -12.5458 H   0  0  0  0  0  0  0  0  0  0  0  0
  -29.1233    9.6330  -11.7107 H   0  0  0  0  0  0  0  0  0  0  0  0
  -29.0468    8.1110  -10.7494 H   0  0  0  0  0  0  0  0  0  0  0  0
  -26.6014    8.2264  -10.7005 H   0  0  0  0  0  0  0  0  0  0  0  0
  -27.1928    9.3190   -8.8004 H   0  0  0  0  0  0  0  0  0  0  0  0
  -26.5429   10.7562   -9.6599 H   0  0  0  0  0  0  0  0  0  0  0  0
  -28.3098   10.4326   -9.6599 H   0  0  0  0  0  0  0  0  0  0  0  0
  -26.8636   10.8770  -12.1904 H   0  0  0  0  0  0  0  0  0  0  0  0
  -25.3443   10.0497  -11.6300 H   0  0  0  0  0  0  0  0  0  0  0  0
  -23.1389   10.2161  -12.6660 H   0  0  0  0  0  0  0  0  0  0  0  0
  -20.5443    6.9590  -13.7841 H   0  0  0  0  0  0  0  0  0  0  0  0
  -22.3281    6.0296  -15.2470 H   0  0  0  0  0  0  0  0  0  0  0  0
  -24.9490    7.4870  -16.5460 H   0  0  0  0  0  0  0  0  0  0  0  0
  -26.4204    4.7688  -16.8693 H   0  0  0  0  0  0  0  0  0  0  0  0
  -27.7019    5.7002  -15.9683 H   0  0  0  0  0  0  0  0  0  0  0  0
  -27.7528    6.8679  -17.8995 H   0  0  0  0  0  0  0  0  0  0  0  0
  -26.3744    7.7308  -17.0614 H   0  0  0  0  0  0  0  0  0  0  0  0
  -28.1409    9.5666  -14.1594 H   0  0  0  0  0  0  0  0  0  0  0  0
  -27.3190    8.0217  -14.6544 H   0  0  0  0  0  0  0  0  0  0  0  0
  1  2  1  0
  2  3  1  0
  3  4  1  0
  4  5  1  0
  4  6  1  0
  6  7  1  0
  7  8  1  0
  8  9  2  0
  8 10  1  0
 10 11  2  0
 11 12  1  0
 12 13  1  0
 12 14  2  0
 14 15  1  0
 15 16  2  0
 16 17  1  0
 17 18  1  0
 18 19  2  0
 18 20  1  0
 20 21  1  0
 21 22  1  0
 22 23  2  0
 22 24  1  0
  7 25  1  0
 25  2  1  0
 16 10  1  0
  1 26  1  0
  1 27  1  0
  1 28  1  0
  2 29  1  1
  3 30  1  0
  3 31  1  0
  4 32  1  1
  5 33  1  0
  5 34  1  0
  5 35  1  0
  6 36  1  0
  6 37  1  0
 11 38  1  0
 14 39  1  0
 15 40  1  0
 17 41  1  0
 20 42  1  0
 20 43  1  0
 21 44  1  0
 21 45  1  0
 25 46  1  0
 25 47  1  0
M  CHG  1  24  -1
M  END
>  <meeko>  (3) 
{"is_sidechain": [false], "free_energy": -6.699, "intermolecular_energy": -9.418, "internal_energy": -1.325}

$$$$
3cj4_ligand
     RDKit          3D

 47 48  0  0  0  0  0  0  0  0999 V2000
  -27.3100    9.3940   -9.8550 C   0  0  0  0  0  0  0  0  0  0  0  0
  -26.8570   10.3760  -10.9330 C   0  0  2  0  0  0  0  0  0  0  0  0
  -27.9940   11.3330  -11.3080 C   0  0  0  0  0  0  0  0  0  0  0  0
  -27.5350   12.2930  -12.4110 C   0  0  2  0  0  0  0  0  0  0  0  0
  -28.6670   13.2370  -12.8120 C   0  0  0  0  0  0  0  0  0  0  0  0
  -27.0250   11.5110  -13.6260 C   0  0  0  0  0  0  0  0  0  0  0  0
  -26.0020   10.5310  -13.2700 N   0  0  0  0  0  0  0  0  0  0  0  0
  -25.1540   10.1350  -14.3120 C   0  0  0  0  0  0  0  0  0  0  0  0
  -25.0840   10.6890  -15.4080 O   0  0  0  0  0  0  0  0  0  0  0  0
  -24.1660    9.0730  -14.0440 C   0  0  0  0  0  0  0  0  0  0  0  0
  -23.0020    9.5030  -13.3800 C   0  0  0  0  0  0  0  0  0  0  0  0
  -21.9880    8.5940  -13.1190 C   0  0  0  0  0  0  0  0  0  0  0  0
  -20.4240    9.1560  -12.2190 Br  0  0  0  0  0  0  0  0  0  0  0  0
  -22.1190    7.2710  -13.5210 C   0  0  0  0  0  0  0  0  0  0  0  0
  -23.2760    6.8530  -14.1920 C   0  0  0  0  0  0  0  0  0  0  0  0
  -24.3260    7.7410  -14.4720 C   0  0  0  0  0  0  0  0  0  0  0  0
  -25.5060    7.3270  -15.1380 N   0  0  0  0  0  0  0  0  0  0  0  0
  -25.7230    7.2280  -16.5000 C   0  0  0  0  0  0  0  0  0  0  0  0
  -24.9180    7.5140  -17.3870 O   0  0  0  0  0  0  0  0  0  0  0  0
  -27.1130    6.7380  -16.8830 C   0  0  0  0  0  0  0  0  0  0  0  0
  -28.0290    7.8590  -17.3590 C   0  0  0  0  0  0  0  0  0  0  0  0
  -28.1670    9.0040  -16.3650 C   0  0  0  0  0  0  0  0  0  0  0  0
  -28.4550    8.6640  -15.1880 O   0  0  0  0  0  0  0  0  0  0  0  0
  -27.9420   10.1570  -16.8320 O   0  0  0  0  0  0  0  0  0  0  0  0
  -26.3490    9.6260  -12.1690 C   0  0  0  0  0  0  0  0  0  0  0  0
  -27.1121    9.8230   -8.8616 H   0  0  0  0  0  0  0  0  0  0  0  0
  -28.3877    9.2020   -9.9634 H   0  0  0  0  0  0  0  0  0  0  0  0
  -26.7566    8.4496   -9.9634 H   0  0  0  0  0  0  0  0  0  0  0  0
  -26.0267   10.9728  -10.5275 H   0  0  0  0  0  0  0  0  0  0  0  0
  -28.8551   10.7509  -11.6680 H   0  0  0  0  0  0  0  0  0  0  0  0
  -28.2800   11.9163  -10.4203 H   0  0  0  0  0  0  0  0  0  0  0  0
  -26.7064   12.9004  -12.0179 H   0  0  0  0  0  0  0  0  0  0  0  0
  -29.1478   13.6380  -11.9075 H   0  0  0  0  0  0  0  0  0  0  0  0
  -28.2590   14.0662  -13.4086 H   0  0  0  0  0  0  0  0  0  0  0  0
  -29.4094   12.6866  -13.4086 H   0  0  0  0  0  0  0  0  0  0  0  0
  -27.8729   10.9841  -14.0880 H   0  0  0  0  0  0  0  0  0  0  0  0
  -26.5703   12.2320  -14.3213 H   0  0  0  0  0  0  0  0  0  0  0  0
  -22.8973   10.5533  -13.0701 H   0  0  0  0  0  0  0  0  0  0  0  0
  -21.3140    6.5509  -13.3125 H   0  0  0  0  0  0  0  0  0  0  0  0
  -23.3634    5.8027  -14.5071 H   0  0  0  0  0  0  0  0  0  0  0  0
  -26.3010    7.0070  -14.5550 H   0  0  0  0  0  0  0  0  0  0  0  0
  -27.0137    5.9991  -17.6918 H   0  0  0  0  0  0  0  0  0  0  0  0
  -27.5680    6.3014  -15.9817 H   0  0  0  0  0  0  0  0  0  0  0  0
  -27.6238    8.2625  -18.2987 H   0  0  0  0  0  0  0  0  0  0  0  0
  -29.0306    7.4222  -17.4855 H   0  0  0  0  0  0  0  0  0  0  0  0
  -27.1354    8.9377  -12.5123 H   0  0  0  0  0  0  0  0  0  0  0  0
  -25.4362    9.0842  -11.8804 H   0  0  0  0  0  0  0  0  0  0  0  0
  1  2  1  0
  2  3  1  0
  3  4  1  0
  4  5  1  0
  4  6  1  0
  6  7  1  0
  7  8  1  0
  8  9  2  0
  8 10  1  0
 10 11  2  0
 11 12  1  0
 12 13  1  0
 12 14  2  0
 14 15  1  0
 15 16  2  0
 16 17  1  0
 17 18  1  0
 18 19  2  0
 18 20  1  0
 20 21  1  0
 21 22  1  0
 22 23  2  0
 22 24  1  0
  7 25  1  0
 25  2  1  0
 16 10  1  0
  1 26  1  0
  1 27  1  0
  1 28  1  0
  2 29  1  1
  3 30  1  0
  3 31  1  0
  4 32  1  1
  5 33  1  0
  5 34  1  0
  5 35  1  0
  6 36  1  0
  6 37  1  0
 11 38  1  0
 14 39  1  0
 15 40  1  0
 17 41  1  0
 20 42  1  0
 20 43  1  0
 21 44  1  0
 21 45  1  0
 25 46  1  0
 25 47  1  0
M  CHG  1  24  -1
M  END
>  <meeko>  (4) 
{"is_sidechain": [false], "free_energy": -6.678, "intermolecular_energy": -9.104, "internal_energy": -1.611}

$$$$
3cj4_ligand
     RDKit          3D

 47 48  0  0  0  0  0  0  0  0999 V2000
  -25.7690    6.3640  -12.1200 C   0  0  0  0  0  0  0  0  0  0  0  0
  -24.5830    6.4790  -13.0750 C   0  0  2  0  0  0  0  0  0  0  0  0
  -23.7570    7.7330  -12.7680 C   0  0  0  0  0  0  0  0  0  0  0  0
  -22.5890    7.8520  -13.7530 C   0  0  2  0  0  0  0  0  0  0  0  0
  -21.7710    9.1110  -13.4730 C   0  0  0  0  0  0  0  0  0  0  0  0
  -23.1000    7.8470  -15.1970 C   0  0  0  0  0  0  0  0  0  0  0  0
  -23.9620    6.7020  -15.4800 N   0  0  0  0  0  0  0  0  0  0  0  0
  -24.0720    6.3460  -16.8300 C   0  0  0  0  0  0  0  0  0  0  0  0
  -24.6280    7.0250  -17.6920 O   0  0  0  0  0  0  0  0  0  0  0  0
  -23.3530    5.1460  -17.2980 C   0  0  0  0  0  0  0  0  0  0  0  0
  -21.9860    5.3450  -17.5660 C   0  0  0  0  0  0  0  0  0  0  0  0
  -21.2240    4.2930  -18.0540 C   0  0  0  0  0  0  0  0  0  0  0  0
  -19.3860    4.5440  -18.4100 Br  0  0  0  0  0  0  0  0  0  0  0  0
  -21.8130    3.0560  -18.2850 C   0  0  0  0  0  0  0  0  0  0  0  0
  -23.1770    2.8700  -18.0260 C   0  0  0  0  0  0  0  0  0  0  0  0
  -23.9810    3.9070  -17.5290 C   0  0  0  0  0  0  0  0  0  0  0  0
  -25.3590    3.7260  -17.2500 N   0  0  0  0  0  0  0  0  0  0  0  0
  -26.4310    3.9320  -18.0980 C   0  0  0  0  0  0  0  0  0  0  0  0
  -26.3720    4.3430  -19.2580 O   0  0  0  0  0  0  0  0  0  0  0  0
  -27.7900    3.6320  -17.4800 C   0  0  0  0  0  0  0  0  0  0  0  0
  -27.9530    4.2230  -16.0850 C   0  0  0  0  0  0  0  0  0  0  0  0
  -27.7670    3.2120  -14.9620 C   0  0  0  0  0  0  0  0  0  0  0  0
  -26.8250    3.4590  -14.1650 O   0  0  0  0  0  0  0  0  0  0  0  0
  -28.6040    2.2640  -14.9420 O   0  0  0  0  0  0  0  0  0  0  0  0
  -25.0610    6.4870  -14.5320 C   0  0  0  0  0  0  0  0  0  0  0  0
  -25.4082    6.3990  -11.0814 H   0  0  0  0  0  0  0  0  0  0  0  0
  -26.4632    7.1990  -12.2953 H   0  0  0  0  0  0  0  0  0  0  0  0
  -26.2899    5.4111  -12.2953 H   0  0  0  0  0  0  0  0  0  0  0  0
  -23.9376    5.6003  -12.9288 H   0  0  0  0  0  0  0  0  0  0  0  0
  -24.3991    8.6217  -12.8568 H   0  0  0  0  0  0  0  0  0  0  0  0
  -23.3580    7.6584  -11.7456 H   0  0  0  0  0  0  0  0  0  0  0  0
  -21.9322    6.9803  -13.6162 H   0  0  0  0  0  0  0  0  0  0  0  0
  -21.6782    9.2538  -12.3863 H   0  0  0  0  0  0  0  0  0  0  0  0
  -20.7697    9.0036  -13.9155 H   0  0  0  0  0  0  0  0  0  0  0  0
  -22.2760    9.9823  -13.9155 H   0  0  0  0  0  0  0  0  0  0  0  0
  -23.6710    8.7707  -15.3726 H   0  0  0  0  0  0  0  0  0  0  0  0
  -22.2258    7.7803  -15.8613 H   0  0  0  0  0  0  0  0  0  0  0  0
  -21.5246    6.3279  -17.3898 H   0  0  0  0  0  0  0  0  0  0  0  0
  -21.2080    2.2225  -18.6714 H   0  0  0  0  0  0  0  0  0  0  0  0
  -23.6294    1.8857  -18.2171 H   0  0  0  0  0  0  0  0  0  0  0  0
  -25.6160    3.3460  -16.3210 H   0  0  0  0  0  0  0  0  0  0  0  0
  -28.5714    4.0503  -18.1315 H   0  0  0  0  0  0  0  0  0  0  0  0
  -27.8750    2.5393  -17.3865 H   0  0  0  0  0  0  0  0  0  0  0  0
  -27.2083    5.0226  -15.9582 H   0  0  0  0  0  0  0  0  0  0  0  0
  -28.9862    4.5936  -16.0136 H   0  0  0  0  0  0  0  0  0  0  0  0
  -25.7985    7.2934  -14.6574 H   0  0  0  0  0  0  0  0  0  0  0  0
  -25.5007    5.5017  -14.7461 H   0  0  0  0  0  0  0  0  0  0  0  0
  1  2  1  0
  2  3  1  0
  3  4  1  0
  4  5  1  0
  4  6  1  0
  6  7  1  0
  7  8  1  0
  8  9  2  0
  8 10  1  0
 10 11  2  0
 11 12  1  0
 12 13  1  0
 12 14  2  0
 14 15  1  0
 15 16  2  0
 16 17  1  0
 17 18  1  0
 18 19  2  0
 18 20  1  0
 20 21  1  0
 21 22  1  0
 22 23  2  0
 22 24  1  0
  7 25  1  0
 25  2  1  0
 16 10  1  0
  1 26  1  0
  1 27  1  0
  1 28  1  0
  2 29  1  6
  3 30  1  0
  3 31  1  0
  4 32  1  6
  5 33  1  0
  5 34  1  0
  5 35  1  0
  6 36  1  0
  6 37  1  0
 11 38  1  0
 14 39  1  0
 15 40  1  0
 17 41  1  0
 20 42  1  0
 20 43  1  0
 21 44  1  0
 21 45  1  0
 25 46  1  0
 25 47  1  0
M  CHG  1  24  -1
M  END
>  <meeko>  (5) 
{"is_sidechain": [false], "free_energy": -6.607, "intermolecular_energy": -9.262, "internal_energy": -1.357}

$$$$
3cj4_ligand
     RDKit          3D

 47 48  0  0  0  0  0  0  0  0999 V2000
  -27.3060    9.7710   -9.6470 C   0  0  0  0  0  0  0  0  0  0  0  0
  -26.8160   10.4590  -10.9190 C   0  0  2  0  0  0  0  0  0  0  0  0
  -27.8220   11.5140  -11.3900 C   0  0  0  0  0  0  0  0  0  0  0  0
  -27.3320   12.1750  -12.6830 C   0  0  2  0  0  0  0  0  0  0  0  0
  -28.3390   13.2110  -13.1760 C   0  0  0  0  0  0  0  0  0  0  0  0
  -27.0690   11.1180  -13.7610 C   0  0  0  0  0  0  0  0  0  0  0  0
  -26.1780   10.0570  -13.2960 N   0  0  0  0  0  0  0  0  0  0  0  0
  -25.5060    9.3480  -14.3000 C   0  0  0  0  0  0  0  0  0  0  0  0
  -25.7530    9.4300  -15.5020 O   0  0  0  0  0  0  0  0  0  0  0  0
  -24.3230    8.5520  -13.9210 C   0  0  0  0  0  0  0  0  0  0  0  0
  -23.2010    9.3090  -13.5360 C   0  0  0  0  0  0  0  0  0  0  0  0
  -22.0210    8.6610  -13.2040 C   0  0  0  0  0  0  0  0  0  0  0  0
  -20.5100    9.6650  -12.6760 Br  0  0  0  0  0  0  0  0  0  0  0  0
  -21.9470    7.2750  -13.2620 C   0  0  0  0  0  0  0  0  0  0  0  0
  -23.0650    6.5290  -13.6570 C   0  0  0  0  0  0  0  0  0  0  0  0
  -24.2790    7.1470  -13.9980 C   0  0  0  0  0  0  0  0  0  0  0  0
  -25.4200    6.4020  -14.3860 N   0  0  0  0  0  0  0  0  0  0  0  0
  -26.3280    5.7510  -13.5700 C   0  0  0  0  0  0  0  0  0  0  0  0
  -26.2830    5.6840  -12.3420 O   0  0  0  0  0  0  0  0  0  0  0  0
  -27.4540    5.0470  -14.3170 C   0  0  0  0  0  0  0  0  0  0  0  0
  -27.0840    3.6360  -14.7560 C   0  0  0  0  0  0  0  0  0  0  0  0
  -26.7400    3.5220  -16.2350 C   0  0  0  0  0  0  0  0  0  0  0  0
  -26.1310    4.5090  -16.7240 O   0  0  0  0  0  0  0  0  0  0  0  0
  -27.0720    2.4340  -16.7870 O   0  0  0  0  0  0  0  0  0  0  0  0
  -26.5510    9.4300  -12.0230 C   0  0  0  0  0  0  0  0  0  0  0  0
  -26.9225   10.3095   -8.7678 H   0  0  0  0  0  0  0  0  0  0  0  0
  -28.4058    9.7750   -9.6284 H   0  0  0  0  0  0  0  0  0  0  0  0
  -26.9427    8.7329   -9.6284 H   0  0  0  0  0  0  0  0  0  0  0  0
  -25.8689   10.9692  -10.6896 H   0  0  0  0  0  0  0  0  0  0  0  0
  -28.7937   11.0324  -11.5741 H   0  0  0  0  0  0  0  0  0  0  0  0
  -27.9250   12.2837  -10.6110 H   0  0  0  0  0  0  0  0  0  0  0  0
  -26.3857   12.6933  -12.4689 H   0  0  0  0  0  0  0  0  0  0  0  0
  -28.8143   13.7000  -12.3129 H   0  0  0  0  0  0  0  0  0  0  0  0
  -27.8201   13.9658  -13.7852 H   0  0  0  0  0  0  0  0  0  0  0  0
  -29.1082   12.7138  -13.7852 H   0  0  0  0  0  0  0  0  0  0  0  0
  -28.0286   10.6689  -14.0569 H   0  0  0  0  0  0  0  0  0  0  0  0
  -26.5795   11.6189  -14.6092 H   0  0  0  0  0  0  0  0  0  0  0  0
  -23.2596   10.4068  -13.4987 H   0  0  0  0  0  0  0  0  0  0  0  0
  -21.0100    6.7630  -12.9976 H   0  0  0  0  0  0  0  0  0  0  0  0
  -22.9901    5.4324  -13.7011 H   0  0  0  0  0  0  0  0  0  0  0  0
  -25.6530    6.3680  -15.3950 H   0  0  0  0  0  0  0  0  0  0  0  0
  -28.3315    4.9900  -13.6561 H   0  0  0  0  0  0  0  0  0  0  0  0
  -27.6624    5.6310  -15.2256 H   0  0  0  0  0  0  0  0  0  0  0  0
  -26.2119    3.3084  -14.1710 H   0  0  0  0  0  0  0  0  0  0  0  0
  -27.9683    3.0050  -14.5836 H   0  0  0  0  0  0  0  0  0  0  0  0
  -27.4629    8.8344  -12.1767 H   0  0  0  0  0  0  0  0  0  0  0  0
  -25.7080    8.8016  -11.6996 H   0  0  0  0  0  0  0  0  0  0  0  0
  1  2  1  0
  2  3  1  0
  3  4  1  0
  4  5  1  0
  4  6  1  0
  6  7  1  0
  7  8  1  0
  8  9  2  0
  8 10  1  0
 10 11  2  0
 11 12  1  0
 12 13  1  0
 12 14  2  0
 14 15  1  0
 15 16  2  0
 16 17  1  0
 17 18  1  0
 18 19  2  0
 18 20  1  0
 20 21  1  0
 21 22  1  0
 22 23  2  0
 22 24  1  0
  7 25  1  0
 25  2  1  0
 16 10  1  0
  1 26  1  0
  1 27  1  0
  1 28  1  0
  2 29  1  1
  3 30  1  0
  3 31  1  0
  4 32  1  1
  5 33  1  0
  5 34  1  0
  5 35  1  0
  6 36  1  0
  6 37  1  0
 11 38  1  0
 14 39  1  0
 15 40  1  0
 17 41  1  0
 20 42  1  0
 20 43  1  0
 21 44  1  0
 21 45  1  0
 25 46  1  0
 25 47  1  0
M  CHG  1  24  -1
M  END
>  <meeko>  (6) 
{"is_sidechain": [false], "free_energy": -6.598, "intermolecular_energy": -9.128, "internal_energy": -1.479}

$$$$
3cj4_ligand
     RDKit          3D

 47 48  0  0  0  0  0  0  0  0999 V2000
  -29.3510    6.4880  -12.4170 C   0  0  0  0  0  0  0  0  0  0  0  0
  -28.0980    7.2860  -12.0610 C   0  0  2  0  0  0  0  0  0  0  0  0
  -28.4100    8.3400  -10.9940 C   0  0  0  0  0  0  0  0  0  0  0  0
  -27.1520    9.1520  -10.6680 C   0  0  2  0  0  0  0  0  0  0  0  0
  -27.4550   10.2240   -9.6230 C   0  0  0  0  0  0  0  0  0  0  0  0
  -26.5760    9.7840  -11.9400 C   0  0  0  0  0  0  0  0  0  0  0  0
  -26.3550    8.8020  -12.9990 N   0  0  0  0  0  0  0  0  0  0  0  0
  -25.4150    9.1630  -13.9730 C   0  0  0  0  0  0  0  0  0  0  0  0
  -25.5330   10.1150  -14.7430 O   0  0  0  0  0  0  0  0  0  0  0  0
  -24.1230    8.4510  -13.9960 C   0  0  0  0  0  0  0  0  0  0  0  0
  -23.0620    9.1350  -13.3750 C   0  0  0  0  0  0  0  0  0  0  0  0
  -21.7920    8.5750  -13.3780 C   0  0  0  0  0  0  0  0  0  0  0  0
  -20.3600    9.4790  -12.5400 Br  0  0  0  0  0  0  0  0  0  0  0  0
  -21.5720    7.3530  -14.0010 C   0  0  0  0  0  0  0  0  0  0  0  0
  -22.6320    6.6840  -14.6270 C   0  0  0  0  0  0  0  0  0  0  0  0
  -23.9310    7.2150  -14.6420 C   0  0  0  0  0  0  0  0  0  0  0  0
  -25.0140    6.5410  -15.2600 N   0  0  0  0  0  0  0  0  0  0  0  0
  -25.4250    6.6230  -16.5780 C   0  0  0  0  0  0  0  0  0  0  0  0
  -24.9270    7.3330  -17.4520 O   0  0  0  0  0  0  0  0  0  0  0  0
  -26.6280    5.7530  -16.9180 C   0  0  0  0  0  0  0  0  0  0  0  0
  -27.2990    5.1580  -15.6860 C   0  0  0  0  0  0  0  0  0  0  0  0
  -26.9310    3.7040  -15.4260 C   0  0  0  0  0  0  0  0  0  0  0  0
  -26.9840    3.3420  -14.2220 O   0  0  0  0  0  0  0  0  0  0  0  0
  -26.6510    3.0230  -16.4540 O   0  0  0  0  0  0  0  0  0  0  0  0
  -27.5000    7.9390  -13.3120 C   0  0  0  0  0  0  0  0  0  0  0  0
  -29.8556    6.1666  -11.4939 H   0  0  0  0  0  0  0  0  0  0  0  0
  -30.0323    7.1189  -13.0067 H   0  0  0  0  0  0  0  0  0  0  0  0
  -29.0674    5.6038  -13.0067 H   0  0  0  0  0  0  0  0  0  0  0  0
  -27.3533    6.5907  -11.6464 H   0  0  0  0  0  0  0  0  0  0  0  0
  -29.1919    9.0165  -11.3694 H   0  0  0  0  0  0  0  0  0  0  0  0
  -28.7573    7.8343  -10.0809 H   0  0  0  0  0  0  0  0  0  0  0  0
  -26.3991    8.4684  -10.2486 H   0  0  0  0  0  0  0  0  0  0  0  0
  -27.3347    9.7986   -8.6158 H   0  0  0  0  0  0  0  0  0  0  0  0
  -26.7599   11.0670   -9.7503 H   0  0  0  0  0  0  0  0  0  0  0  0
  -28.4885   10.5784   -9.7503 H   0  0  0  0  0  0  0  0  0  0  0  0
  -27.2801   10.5458  -12.3060 H   0  0  0  0  0  0  0  0  0  0  0  0
  -25.6017   10.2256  -11.6835 H   0  0  0  0  0  0  0  0  0  0  0  0
  -23.2377   10.1068  -12.8905 H   0  0  0  0  0  0  0  0  0  0  0  0
  -20.5650    6.9104  -14.0028 H   0  0  0  0  0  0  0  0  0  0  0  0
  -22.4414    5.7187  -15.1189 H   0  0  0  0  0  0  0  0  0  0  0  0
  -25.5460    5.8590  -14.6890 H   0  0  0  0  0  0  0  0  0  0  0  0
  -27.3646    6.3679  -17.4559 H   0  0  0  0  0  0  0  0  0  0  0  0
  -26.2656    4.9156  -17.5324 H   0  0  0  0  0  0  0  0  0  0  0  0
  -27.0030    5.7525  -14.8091 H   0  0  0  0  0  0  0  0  0  0  0  0
  -28.3835    5.1857  -15.8679 H   0  0  0  0  0  0  0  0  0  0  0  0
  -28.2771    8.5460  -13.7995 H   0  0  0  0  0  0  0  0  0  0  0  0
  -27.1435    7.1349  -13.9725 H   0  0  0  0  0  0  0  0  0  0  0  0
  1  2  1  0
  2  3  1  0
  3  4  1  0
  4  5  1  0
  4  6  1  0
  6  7  1  0
  7  8  1  0
  8  9  2  0
  8 10  1  0
 10 11  2  0
 11 12  1  0
 12 13  1  0
 12 14  2  0
 14 15  1  0
 15 16  2  0
 16 17  1  0
 17 18  1  0
 18 19  2  0
 18 20  1  0
 20 21  1  0
 21 22  1  0
 22 23  2  0
 22 24  1  0
  7 25  1  0
 25  2  1  0
 16 10  1  0
  1 26  1  0
  1 27  1  0
  1 28  1  0
  2 29  1  1
  3 30  1  0
  3 31  1  0
  4 32  1  1
  5 33  1  0
  5 34  1  0
  5 35  1  0
  6 36  1  0
  6 37  1  0
 11 38  1  0
 14 39  1  0
 15 40  1  0
 17 41  1  0
 20 42  1  0
 20 43  1  0
 21 44  1  0
 21 45  1  0
 25 46  1  0
 25 47  1  0
M  CHG  1  24  -1
M  END
>  <meeko>  (7) 
{"is_sidechain": [false], "free_energy": -6.509, "intermolecular_energy": -9.264, "internal_energy": -1.223}

$$$$
3cj4_ligand
     RDKit          3D

 47 48  0  0  0  0  0  0  0  0999 V2000
  -20.0470    4.7840  -17.1080 C   0  0  0  0  0  0  0  0  0  0  0  0
  -21.5100    4.3600  -17.0160 C   0  0  2  0  0  0  0  0  0  0  0  0
  -21.8560    3.3590  -18.1240 C   0  0  0  0  0  0  0  0  0  0  0  0
  -23.3350    2.9650  -18.0390 C   0  0  2  0  0  0  0  0  0  0  0  0
  -23.6980    1.9860  -19.1540 C   0  0  0  0  0  0  0  0  0  0  0  0
  -24.2270    4.2090  -18.0980 C   0  0  0  0  0  0  0  0  0  0  0  0
  -23.8520    5.2110  -17.1030 N   0  0  0  0  0  0  0  0  0  0  0  0
  -24.8580    6.1200  -16.7500 C   0  0  0  0  0  0  0  0  0  0  0  0
  -25.2150    7.0740  -17.4400 O   0  0  0  0  0  0  0  0  0  0  0  0
  -25.6540    5.8480  -15.5390 C   0  0  0  0  0  0  0  0  0  0  0  0
  -26.6690    4.8880  -15.7030 C   0  0  0  0  0  0  0  0  0  0  0  0
  -27.5070    4.5880  -14.6380 C   0  0  0  0  0  0  0  0  0  0  0  0
  -28.8680    3.2940  -14.8430 Br  0  0  0  0  0  0  0  0  0  0  0  0
  -27.3470    5.2410  -13.4230 C   0  0  0  0  0  0  0  0  0  0  0  0
  -26.3410    6.2030  -13.2700 C   0  0  0  0  0  0  0  0  0  0  0  0
  -25.4710    6.5320  -14.3220 C   0  0  0  0  0  0  0  0  0  0  0  0
  -24.4410    7.4950  -14.1750 N   0  0  0  0  0  0  0  0  0  0  0  0
  -24.4780    8.8360  -14.5090 C   0  0  0  0  0  0  0  0  0  0  0  0
  -25.4240    9.4310  -15.0260 O   0  0  0  0  0  0  0  0  0  0  0  0
  -23.1910    9.5950  -14.2100 C   0  0  0  0  0  0  0  0  0  0  0  0
  -22.4990    9.1160  -12.9400 C   0  0  0  0  0  0  0  0  0  0  0  0
  -21.1750    8.4080  -13.1900 C   0  0  0  0  0  0  0  0  0  0  0  0
  -21.2470    7.3570  -13.8790 O   0  0  0  0  0  0  0  0  0  0  0  0
  -20.1550    8.9800  -12.7090 O   0  0  0  0  0  0  0  0  0  0  0  0
  -22.4330    5.5820  -17.0810 C   0  0  0  0  0  0  0  0  0  0  0  0
  -19.6354    4.9033  -16.0949 H   0  0  0  0  0  0  0  0  0  0  0  0
  -19.4755    4.0145  -17.6477 H   0  0  0  0  0  0  0  0  0  0  0  0
  -19.9755    5.7398  -17.6477 H   0  0  0  0  0  0  0  0  0  0  0  0
  -21.6637    3.8642  -16.0462 H   0  0  0  0  0  0  0  0  0  0  0  0
  -21.6582    3.8187  -19.1036 H   0  0  0  0  0  0  0  0  0  0  0  0
  -21.2370    2.4582  -17.9998 H   0  0  0  0  0  0  0  0  0  0  0  0
  -23.5046    2.4638  -17.0746 H   0  0  0  0  0  0  0  0  0  0  0  0
  -24.0483    1.0412  -18.7128 H   0  0  0  0  0  0  0  0  0  0  0  0
  -24.4957    2.4181  -19.7761 H   0  0  0  0  0  0  0  0  0  0  0  0
  -22.8114    1.7936  -19.7761 H   0  0  0  0  0  0  0  0  0  0  0  0
  -24.1430    4.6567  -19.0992 H   0  0  0  0  0  0  0  0  0  0  0  0
  -25.2584    3.8926  -17.8831 H   0  0  0  0  0  0  0  0  0  0  0  0
  -26.7978    4.3782  -16.6692 H   0  0  0  0  0  0  0  0  0  0  0  0
  -28.0115    5.0023  -12.5795 H   0  0  0  0  0  0  0  0  0  0  0  0
  -26.2295    6.7135  -12.3020 H   0  0  0  0  0  0  0  0  0  0  0  0
  -23.5610    7.1920  -13.7190 H   0  0  0  0  0  0  0  0  0  0  0  0
  -22.5011    9.4624  -15.0565 H   0  0  0  0  0  0  0  0  0  0  0  0
  -23.4590   10.6513  -14.0604 H   0  0  0  0  0  0  0  0  0  0  0  0
  -22.3094    9.9891  -12.2983 H   0  0  0  0  0  0  0  0  0  0  0  0
  -23.1694    8.3830  -12.4675 H   0  0  0  0  0  0  0  0  0  0  0  0
  -22.2024    6.1506  -17.9940 H   0  0  0  0  0  0  0  0  0  0  0  0
  -22.2577    6.1830  -16.1765 H   0  0  0  0  0  0  0  0  0  0  0  0
  1  2  1  0
  2  3  1  0
  3  4  1  0
  4  5  1  0
  4  6  1  0
  6  7  1  0
  7  8  1  0
  8  9  2  0
  8 10  1  0
 10 11  2  0
 11 12  1  0
 12 13  1  0
 12 14  2  0
 14 15  1  0
 15 16  2  0
 16 17  1  0
 17 18  1  0
 18 19  2  0
 18 20  1  0
 20 21  1  0
 21 22  1  0
 22 23  2  0
 22 24  1  0
  7 25  1  0
 25  2  1  0
 16 10  1  0
  1 26  1  0
  1 27  1  0
  1 28  1  0
  2 29  1  1
  3 30  1  0
  3 31  1  0
  4 32  1  1
  5 33  1  0
  5 34  1  0
  5 35  1  0
  6 36  1  0
  6 37  1  0
 11 38  1  0
 14 39  1  0
 15 40  1  0
 17 41  1  0
 20 42  1  0
 20 43  1  0
 21 44  1  0
 21 45  1  0
 25 46  1  0
 25 47  1  0
M  CHG  1  24  -1
M  END
>  <meeko>  (8) 
{"is_sidechain": [false], "free_energy": -6.502, "intermolecular_energy": -9.118, "internal_energy": -1.358}

$$$$
3cj4_ligand
     RDKit          3D

 47 48  0  0  0  0  0  0  0  0999 V2000
  -28.0410   10.4500   -9.5710 C   0  0  0  0  0  0  0  0  0  0  0  0
  -27.0560   10.2550  -10.7220 C   0  0  2  0  0  0  0  0  0  0  0  0
  -27.4980   11.0480  -11.9560 C   0  0  0  0  0  0  0  0  0  0  0  0
  -26.5180   10.8190  -13.1120 C   0  0  2  0  0  0  0  0  0  0  0  0
  -26.9610   11.5850  -14.3560 C   0  0  0  0  0  0  0  0  0  0  0  0
  -26.3840    9.3230  -13.4150 C   0  0  0  0  0  0  0  0  0  0  0  0
  -26.0480    8.5420  -12.2270 N   0  0  0  0  0  0  0  0  0  0  0  0
  -25.4400    7.3030  -12.4690 C   0  0  0  0  0  0  0  0  0  0  0  0
  -25.9210    6.2140  -12.1610 O   0  0  0  0  0  0  0  0  0  0  0  0
  -24.2070    7.2760  -13.2770 C   0  0  0  0  0  0  0  0  0  0  0  0
  -23.1460    8.0420  -12.7600 C   0  0  0  0  0  0  0  0  0  0  0  0
  -21.9530    8.1230  -13.4640 C   0  0  0  0  0  0  0  0  0  0  0  0
  -20.5180    9.1410  -12.7770 Br  0  0  0  0  0  0  0  0  0  0  0  0
  -21.8150    7.4580  -14.6760 C   0  0  0  0  0  0  0  0  0  0  0  0
  -22.8790    6.7060  -15.1900 C   0  0  0  0  0  0  0  0  0  0  0  0
  -24.1000    6.5970  -14.5060 C   0  0  0  0  0  0  0  0  0  0  0  0
  -25.1800    5.8280  -15.0090 N   0  0  0  0  0  0  0  0  0  0  0  0
  -26.1500    6.2170  -15.9140 C   0  0  0  0  0  0  0  0  0  0  0  0
  -26.2610    7.3310  -16.4280 O   0  0  0  0  0  0  0  0  0  0  0  0
  -27.1680    5.1340  -16.2500 C   0  0  0  0  0  0  0  0  0  0  0  0
  -28.2480    4.9830  -15.1870 C   0  0  0  0  0  0  0  0  0  0  0  0
  -28.0080    3.8280  -14.2250 C   0  0  0  0  0  0  0  0  0  0  0  0
  -26.8130    3.4390  -14.1380 O   0  0  0  0  0  0  0  0  0  0  0  0
  -29.0290    3.4200  -13.6000 O   0  0  0  0  0  0  0  0  0  0  0  0
  -26.9050    8.7670  -11.0580 C   0  0  0  0  0  0  0  0  0  0  0  0
  -27.5108   10.3450   -8.6129 H   0  0  0  0  0  0  0  0  0  0  0  0
  -28.4863   11.4537   -9.6356 H   0  0  0  0  0  0  0  0  0  0  0  0
  -28.8352    9.6916   -9.6356 H   0  0  0  0  0  0  0  0  0  0  0  0
  -26.0750   10.6373  -10.4034 H   0  0  0  0  0  0  0  0  0  0  0  0
  -28.5020   10.7171  -12.2600 H   0  0  0  0  0  0  0  0  0  0  0  0
  -27.5148   12.1193  -11.7069 H   0  0  0  0  0  0  0  0  0  0  0  0
  -25.5315   11.1999  -12.8093 H   0  0  0  0  0  0  0  0  0  0  0  0
  -27.4905   12.5005  -14.0537 H   0  0  0  0  0  0  0  0  0  0  0  0
  -26.0784   11.8528  -14.9554 H   0  0  0  0  0  0  0  0  0  0  0  0
  -27.6333   10.9536  -14.9554 H   0  0  0  0  0  0  0  0  0  0  0  0
  -27.3394    8.9575  -13.8194 H   0  0  0  0  0  0  0  0  0  0  0  0
  -25.5659    9.1996  -14.1399 H   0  0  0  0  0  0  0  0  0  0  0  0
  -23.2615    8.5733  -11.8038 H   0  0  0  0  0  0  0  0  0  0  0  0
  -20.8685    7.5222  -15.2329 H   0  0  0  0  0  0  0  0  0  0  0  0
  -22.7549    6.1885  -16.1527 H   0  0  0  0  0  0  0  0  0  0  0  0
  -25.2410    4.8360  -14.7170 H   0  0  0  0  0  0  0  0  0  0  0  0
  -27.6496    5.3897  -17.2053 H   0  0  0  0  0  0  0  0  0  0  0  0
  -26.6258    4.1786  -16.3066 H   0  0  0  0  0  0  0  0  0  0  0  0
  -28.2939    5.9151  -14.6047 H   0  0  0  0  0  0  0  0  0  0  0  0
  -29.1888    4.7689  -15.7152 H   0  0  0  0  0  0  0  0  0  0  0  0
  -27.9011    8.3486  -11.2645 H   0  0  0  0  0  0  0  0  0  0  0  0
  -26.4319    8.2747  -10.1955 H   0  0  0  0  0  0  0  0  0  0  0  0
  1  2  1  0
  2  3  1  0
  3  4  1  0
  4  5  1  0
  4  6  1  0
  6  7  1  0
  7  8  1  0
  8  9  2  0
  8 10  1  0
 10 11  2  0
 11 12  1  0
 12 13  1  0
 12 14  2  0
 14 15  1  0
 15 16  2  0
 16 17  1  0
 17 18  1  0
 18 19  2  0
 18 20  1  0
 20 21  1  0
 21 22  1  0
 22 23  2  0
 22 24  1  0
  7 25  1  0
 25  2  1  0
 16 10  1  0
  1 26  1  0
  1 27  1  0
  1 28  1  0
  2 29  1  1
  3 30  1  0
  3 31  1  0
  4 32  1  1
  5 33  1  0
  5 34  1  0
  5 35  1  0
  6 36  1  0
  6 37  1  0
 11 38  1  0
 14 39  1  0
 15 40  1  0
 17 41  1  0
 20 42  1  0
 20 43  1  0
 21 44  1  0
 21 45  1  0
 25 46  1  0
 25 47  1  0
M  CHG  1  24  -1
M  END
>  <meeko>  (9) 
{"is_sidechain": [false], "free_energy": -6.471, "intermolecular_energy": -8.819, "internal_energy": -1.616}

$$$$
