4agq_ligand
     RDKit          3D

 63 65  0  0  0  0  0  0  0  0999 V2000
  109.7890   81.6570  -39.6700 C   0  0  0  0  0  0  0  0  0  0  0  0
  109.1300   80.3460  -39.2920 C   0  0  0  0  0  0  0  0  0  0  0  0
  107.7590   80.1580  -39.9040 N   0  0  0  0  0  0  0  0  0  0  0  0
  107.7290   79.1620  -41.0420 C   0  0  0  0  0  0  0  0  0  0  0  0
  108.4790   79.6200  -42.2790 C   0  0  0  0  0  0  0  0  0  0  0  0
  106.5460   80.1670  -38.9490 C   0  0  0  0  0  0  0  0  0  0  0  0
  105.2250   80.1730  -39.7480 C   0  0  0  0  0  0  0  0  0  0  0  0
  105.0220   81.4820  -40.5270 C   0  0  0  0  0  0  0  0  0  0  0  0
  106.1910   82.3480  -40.3390 N   0  0  0  0  0  0  0  0  0  0  0  0
  106.1590   83.5180  -41.2290 C   0  0  0  0  0  0  0  0  0  0  0  0
  107.3290   83.5210  -42.1900 C   0  0  0  0  0  0  0  0  0  0  0  0
  108.4670   84.2900  -41.8890 C   0  0  0  0  0  0  0  0  0  0  0  0
  109.5620   84.3180  -42.7580 C   0  0  0  0  0  0  0  0  0  0  0  0
  110.7130   85.1010  -42.4350 C   0  0  0  0  0  0  0  0  0  0  0  0
  111.7020   85.7420  -42.2030 C   0  0  0  0  0  0  0  0  0  0  0  0
  112.8770   86.5720  -41.9070 C   0  0  0  0  0  0  0  0  0  0  0  0
  112.5200   87.6860  -41.0400 N   0  0  0  0  0  0  0  0  0  0  0  0
  112.0650   88.9020  -41.5550 C   0  0  0  0  0  0  0  0  0  0  0  0
  111.7210   89.9200  -40.6530 C   0  0  0  0  0  0  0  0  0  0  0  0
  111.3170   91.1840  -41.0940 C   0  0  0  0  0  0  0  0  0  0  0  0
  111.2740   91.4620  -42.4550 C   0  0  0  0  0  0  0  0  0  0  0  0
  111.6490   90.4810  -43.3680 C   0  0  0  0  0  0  0  0  0  0  0  0
  112.0530   89.2190  -42.9180 C   0  0  0  0  0  0  0  0  0  0  0  0
  109.5380   83.5830  -43.9430 C   0  0  0  0  0  0  0  0  0  0  0  0
  108.4150   82.8190  -44.2580 C   0  0  0  0  0  0  0  0  0  0  0  0
  108.4220   81.7130  -46.0300 I   0  0  0  0  0  0  0  0  0  0  0  0
  107.3150   82.7880  -43.3880 C   0  0  0  0  0  0  0  0  0  0  0  0
  106.2070   82.0330  -43.6900 O   0  0  0  0  0  0  0  0  0  0  0  0
  106.3450   82.7110  -38.9220 C   0  0  0  0  0  0  0  0  0  0  0  0
  106.5290   81.4400  -38.0790 C   0  0  0  0  0  0  0  0  0  0  0  0
  110.0647   82.2054  -38.7572 H   0  0  0  0  0  0  0  0  0  0  0  0
  110.6928   81.4553  -40.2636 H   0  0  0  0  0  0  0  0  0  0  0  0
  109.0879   82.2620  -40.2636 H   0  0  0  0  0  0  0  0  0  0  0  0
  109.7767   79.5222  -39.6282 H   0  0  0  0  0  0  0  0  0  0  0  0
  108.9971   80.3551  -38.2001 H   0  0  0  0  0  0  0  0  0  0  0  0
  107.6230   81.0720  -40.3980 H   0  0  0  0  0  0  0  0  0  0  0  0
  108.1800   78.2219  -40.6916 H   0  0  0  0  0  0  0  0  0  0  0  0
  106.6752   79.0415  -41.3335 H   0  0  0  0  0  0  0  0  0  0  0  0
  109.3818   80.1713  -41.9773 H   0  0  0  0  0  0  0  0  0  0  0  0
  108.7675   78.7438  -42.8782 H   0  0  0  0  0  0  0  0  0  0  0  0
  107.8314   80.2769  -42.8782 H   0  0  0  0  0  0  0  0  0  0  0  0
  106.6345   79.2664  -38.3236 H   0  0  0  0  0  0  0  0  0  0  0  0
  105.2387   79.3353  -40.4608 H   0  0  0  0  0  0  0  0  0  0  0  0
  104.3968   80.0757  -39.0307 H   0  0  0  0  0  0  0  0  0  0  0  0
  104.9003   81.2571  -41.5969 H   0  0  0  0  0  0  0  0  0  0  0  0
  104.1221   81.9943  -40.1558 H   0  0  0  0  0  0  0  0  0  0  0  0
  105.2230   83.5014  -41.8066 H   0  0  0  0  0  0  0  0  0  0  0  0
  106.2222   84.4238  -40.6081 H   0  0  0  0  0  0  0  0  0  0  0  0
  108.4962   84.8765  -40.9589 H   0  0  0  0  0  0  0  0  0  0  0  0
  113.6372   85.9547  -41.4060 H   0  0  0  0  0  0  0  0  0  0  0  0
  113.2710   86.9739  -42.8521 H   0  0  0  0  0  0  0  0  0  0  0  0
  111.9750   87.3860  -40.2360 H   0  0  0  0  0  0  0  0  0  0  0  0
  111.7703   89.7190  -39.5726 H   0  0  0  0  0  0  0  0  0  0  0  0
  111.0336   91.9572  -40.3647 H   0  0  0  0  0  0  0  0  0  0  0  0
  110.9458   92.4507  -42.8081 H   0  0  0  0  0  0  0  0  0  0  0  0
  111.6278   90.6981  -44.4462 H   0  0  0  0  0  0  0  0  0  0  0  0
  112.3675   88.4609  -43.6504 H   0  0  0  0  0  0  0  0  0  0  0  0
  110.4004   83.6059  -44.6255 H   0  0  0  0  0  0  0  0  0  0  0  0
  105.4390   82.6140  -43.5150 H   0  0  0  0  0  0  0  0  0  0  0  0
  107.2263   83.3587  -38.8042 H   0  0  0  0  0  0  0  0  0  0  0  0
  105.4455   83.2459  -38.5831 H   0  0  0  0  0  0  0  0  0  0  0  0
  107.4818   81.5103  -37.5339 H   0  0  0  0  0  0  0  0  0  0  0  0
  105.6783   81.3662  -37.3856 H   0  0  0  0  0  0  0  0  0  0  0  0
  1  2  1  0
  2  3  1  0
  3  4  1  0
  4  5  1  0
  3  6  1  0
  6  7  1  0
  7  8  1  0
  8  9  1  0
  9 10  1  0
 10 11  1  0
 11 12  2  0
 12 13  1  0
 13 14  1  0
 14 15  3  0
 15 16  1  0
 16 17  1  0
 17 18  1  0
 18 19  2  0
 19 20  1  0
 20 21  2  0
 21 22  1  0
 22 23  2  0
 13 24  2  0
 24 25  1  0
 25 26  1  0
 25 27  2  0
 27 28  1  0
  9 29  1  0
 29 30  1  0
 30  6  1  0
 27 11  1  0
 23 18  1  0
  1 31  1  0
  1 32  1  0
  1 33  1  0
  2 34  1  0
  2 35  1  0
  3 36  1  0
  4 37  1  0
  4 38  1  0
  5 39  1  0
  5 40  1  0
  5 41  1  0
  6 42  1  0
  7 43  1  0
  7 44  1  0
  8 45  1  0
  8 46  1  0
 10 47  1  0
 10 48  1  0
 12 49  1  0
 16 50  1  0
 16 51  1  0
 17 52  1  0
 19 53  1  0
 20 54  1  0
 21 55  1  0
 22 56  1  0
 23 57  1  0
 24 58  1  0
 28 59  1  0
 29 60  1  0
 29 61  1  0
 30 62  1  0
 30 63  1  0
M  CHG  1   3   1
M  END
>  <meeko>  (1) 
{"is_sidechain": [false], "free_energy": -6.222, "intermolecular_energy": -9.313, "internal_energy": -1.861}

$$$$
4agq_ligand
     RDKit          3D

 63 65  0  0  0  0  0  0  0  0999 V2000
  103.7110   82.3650  -36.9040 C   0  0  0  0  0  0  0  0  0  0  0  0
  104.1890   81.5060  -38.0570 C   0  0  0  0  0  0  0  0  0  0  0  0
  105.6850   81.5670  -38.2790 N   0  0  0  0  0  0  0  0  0  0  0  0
  106.4510   82.1680  -37.1210 C   0  0  0  0  0  0  0  0  0  0  0  0
  107.0730   83.5170  -37.4310 C   0  0  0  0  0  0  0  0  0  0  0  0
  106.3440   80.3790  -39.0130 C   0  0  0  0  0  0  0  0  0  0  0  0
  107.7860   80.7340  -39.4360 C   0  0  0  0  0  0  0  0  0  0  0  0
  107.8230   81.8300  -40.5130 C   0  0  0  0  0  0  0  0  0  0  0  0
  106.4560   82.2820  -40.7960 N   0  0  0  0  0  0  0  0  0  0  0  0
  106.4370   83.4760  -41.6540 C   0  0  0  0  0  0  0  0  0  0  0  0
  107.6840   83.5690  -42.5090 C   0  0  0  0  0  0  0  0  0  0  0  0
  108.7690   84.3440  -42.0640 C   0  0  0  0  0  0  0  0  0  0  0  0
  109.9320   84.4550  -42.8320 C   0  0  0  0  0  0  0  0  0  0  0  0
  111.0290   85.2430  -42.3630 C   0  0  0  0  0  0  0  0  0  0  0  0
  111.9750   85.8910  -42.0070 C   0  0  0  0  0  0  0  0  0  0  0  0
  113.0950   86.7280  -41.5590 C   0  0  0  0  0  0  0  0  0  0  0  0
  112.6360   87.7660  -40.6480 N   0  0  0  0  0  0  0  0  0  0  0  0
  112.1080   88.9730  -41.1130 C   0  0  0  0  0  0  0  0  0  0  0  0
  111.8860   90.0030  -40.1860 C   0  0  0  0  0  0  0  0  0  0  0  0
  111.4180   91.2590  -40.5860 C   0  0  0  0  0  0  0  0  0  0  0  0
  111.1880   91.5160  -41.9320 C   0  0  0  0  0  0  0  0  0  0  0  0
  111.4390   90.5230  -42.8730 C   0  0  0  0  0  0  0  0  0  0  0  0
  111.9080   89.2690  -42.4650 C   0  0  0  0  0  0  0  0  0  0  0  0
  110.0300   83.7970  -44.0580 C   0  0  0  0  0  0  0  0  0  0  0  0
  108.9600   83.0270  -44.5150 C   0  0  0  0  0  0  0  0  0  0  0  0
  109.1500   82.0390  -46.3460 I   0  0  0  0  0  0  0  0  0  0  0  0
  107.7930   82.9140  -43.7470 C   0  0  0  0  0  0  0  0  0  0  0  0
  106.7370   82.1540  -44.1900 O   0  0  0  0  0  0  0  0  0  0  0  0
  105.6450   81.1790  -41.3330 C   0  0  0  0  0  0  0  0  0  0  0  0
  105.5870   80.0340  -40.3110 C   0  0  0  0  0  0  0  0  0  0  0  0
  103.9791   81.8833  -35.9521 H   0  0  0  0  0  0  0  0  0  0  0  0
  104.1883   83.3544  -36.9614 H   0  0  0  0  0  0  0  0  0  0  0  0
  102.6186   82.4810  -36.9614 H   0  0  0  0  0  0  0  0  0  0  0  0
  103.9103   80.4619  -37.8516 H   0  0  0  0  0  0  0  0  0  0  0  0
  103.7117   81.8951  -38.9685 H   0  0  0  0  0  0  0  0  0  0  0  0
  105.7580   82.3120  -39.0120 H   0  0  0  0  0  0  0  0  0  0  0  0
  105.7592   82.2915  -36.2747 H   0  0  0  0  0  0  0  0  0  0  0  0
  107.2778   81.4794  -36.8926 H   0  0  0  0  0  0  0  0  0  0  0  0
  107.3120   84.0353  -36.4907 H   0  0  0  0  0  0  0  0  0  0  0  0
  107.9946   83.3707  -38.0135 H   0  0  0  0  0  0  0  0  0  0  0  0
  106.3633   84.1228  -38.0135 H   0  0  0  0  0  0  0  0  0  0  0  0
  106.3264   79.5310  -38.3126 H   0  0  0  0  0  0  0  0  0  0  0  0
  108.3374   81.0873  -38.5522 H   0  0  0  0  0  0  0  0  0  0  0  0
  108.2456   79.8290  -39.8599 H   0  0  0  0  0  0  0  0  0  0  0  0
  108.4228   82.6787  -40.1524 H   0  0  0  0  0  0  0  0  0  0  0  0
  108.2742   81.4271  -41.4317 H   0  0  0  0  0  0  0  0  0  0  0  0
  105.5563   83.4291  -42.3114 H   0  0  0  0  0  0  0  0  0  0  0  0
  106.3973   84.3642  -41.0063 H   0  0  0  0  0  0  0  0  0  0  0  0
  108.7022   84.8695  -41.0999 H   0  0  0  0  0  0  0  0  0  0  0  0
  113.8327   86.0962  -41.0427 H   0  0  0  0  0  0  0  0  0  0  0  0
  113.5487   87.2080  -42.4386 H   0  0  0  0  0  0  0  0  0  0  0  0
  112.0920   87.3850  -39.8780 H   0  0  0  0  0  0  0  0  0  0  0  0
  112.0847   89.8183  -39.1200 H   0  0  0  0  0  0  0  0  0  0  0  0
  111.2323   92.0421  -39.8361 H   0  0  0  0  0  0  0  0  0  0  0  0
  110.8099   92.4984  -42.2513 H   0  0  0  0  0  0  0  0  0  0  0  0
  111.2684   90.7238  -43.9410 H   0  0  0  0  0  0  0  0  0  0  0  0
  112.1235   88.5012  -43.2227 H   0  0  0  0  0  0  0  0  0  0  0  0
  110.9457   83.8847  -44.6611 H   0  0  0  0  0  0  0  0  0  0  0  0
  106.9680   81.8900  -45.1030 H   0  0  0  0  0  0  0  0  0  0  0  0
  104.6259   81.5397  -41.5362 H   0  0  0  0  0  0  0  0  0  0  0  0
  106.0999   80.8126  -42.2651 H   0  0  0  0  0  0  0  0  0  0  0  0
  104.5343   79.8308  -40.0648 H   0  0  0  0  0  0  0  0  0  0  0  0
  106.0679   79.1528  -40.7606 H   0  0  0  0  0  0  0  0  0  0  0  0
  1  2  1  0
  2  3  1  0
  3  4  1  0
  4  5  1  0
  3  6  1  0
  6  7  1  0
  7  8  1  0
  8  9  1  0
  9 10  1  0
 10 11  1  0
 11 12  2  0
 12 13  1  0
 13 14  1  0
 14 15  3  0
 15 16  1  0
 16 17  1  0
 17 18  1  0
 18 19  2  0
 19 20  1  0
 20 21  2  0
 21 22  1  0
 22 23  2  0
 13 24  2  0
 24 25  1  0
 25 26  1  0
 25 27  2  0
 27 28  1  0
  9 29  1  0
 29 30  1  0
 30  6  1  0
 27 11  1  0
 23 18  1  0
  1 31  1  0
  1 32  1  0
  1 33  1  0
  2 34  1  0
  2 35  1  0
  3 36  1  0
  4 37  1  0
  4 38  1  0
  5 39  1  0
  5 40  1  0
  5 41  1  0
  6 42  1  0
  7 43  1  0
  7 44  1  0
  8 45  1  0
  8 46  1  0
 10 47  1  0
 10 48  1  0
 12 49  1  0
 16 50  1  0
 16 51  1  0
 17 52  1  0
 19 53  1  0
 20 54  1  0
 21 55  1  0
 22 56  1  0
 23 57  1  0
 24 58  1  0
 28 59  1  0
 29 60  1  0
 29 61  1  0
 30 62  1  0
 30 63  1  0
M  CHG  1   3   1
M  END
>  <meeko>  (2) 
{"is_sidechain": [false], "free_energy": -5.713, "intermolecular_energy": -9.864, "internal_energy": -0.549}

$$$$
4agq_ligand
     RDKit          3D

 63 65  0  0  0  0  0  0  0  0999 V2000
  108.3190   78.0580  -38.7700 C   0  0  0  0  0  0  0  0  0  0  0  0
  108.3650   79.5520  -39.0210 C   0  0  0  0  0  0  0  0  0  0  0  0
  107.2820   80.0420  -39.9570 N   0  0  0  0  0  0  0  0  0  0  0  0
  107.3840   79.4810  -41.3580 C   0  0  0  0  0  0  0  0  0  0  0  0
  108.2570   80.3050  -42.2870 C   0  0  0  0  0  0  0  0  0  0  0  0
  105.8620   80.2140  -39.3740 C   0  0  0  0  0  0  0  0  0  0  0  0
  104.9410   80.9260  -40.3880 C   0  0  0  0  0  0  0  0  0  0  0  0
  105.3600   82.3840  -40.6310 C   0  0  0  0  0  0  0  0  0  0  0  0
  106.5770   82.6760  -39.8660 N   0  0  0  0  0  0  0  0  0  0  0  0
  107.1530   83.9810  -40.2220 C   0  0  0  0  0  0  0  0  0  0  0  0
  108.4070   83.8280  -41.0580 C   0  0  0  0  0  0  0  0  0  0  0  0
  108.3440   84.0560  -42.4440 C   0  0  0  0  0  0  0  0  0  0  0  0
  109.4820   83.9180  -43.2440 C   0  0  0  0  0  0  0  0  0  0  0  0
  109.4040   84.1590  -44.6510 C   0  0  0  0  0  0  0  0  0  0  0  0
  109.3840   84.3530  -45.8360 C   0  0  0  0  0  0  0  0  0  0  0  0
  109.3830   84.6440  -47.2750 C   0  0  0  0  0  0  0  0  0  0  0  0
  110.3870   85.6450  -47.6030 N   0  0  0  0  0  0  0  0  0  0  0  0
  110.5480   86.8030  -46.8390 C   0  0  0  0  0  0  0  0  0  0  0  0
  109.5550   87.7920  -46.9100 C   0  0  0  0  0  0  0  0  0  0  0  0
  109.6170   88.9490  -46.1280 C   0  0  0  0  0  0  0  0  0  0  0  0
  110.6670   89.1270  -45.2340 C   0  0  0  0  0  0  0  0  0  0  0  0
  111.6420   88.1410  -45.1170 C   0  0  0  0  0  0  0  0  0  0  0  0
  111.5730   86.9860  -45.9040 C   0  0  0  0  0  0  0  0  0  0  0  0
  110.7010   83.5470  -42.6750 C   0  0  0  0  0  0  0  0  0  0  0  0
  110.7780   83.3120  -41.3020 C   0  0  0  0  0  0  0  0  0  0  0  0
  112.6230   82.7770  -40.4810 I   0  0  0  0  0  0  0  0  0  0  0  0
  109.6380   83.4510  -40.4980 C   0  0  0  0  0  0  0  0  0  0  0  0
  109.7090   83.2250  -39.1430 O   0  0  0  0  0  0  0  0  0  0  0  0
  106.3290   82.5360  -38.4230 C   0  0  0  0  0  0  0  0  0  0  0  0
  105.8800   81.1000  -38.1130 C   0  0  0  0  0  0  0  0  0  0  0  0
  108.3132   77.8682  -37.6865 H   0  0  0  0  0  0  0  0  0  0  0  0
  107.4075   77.6384  -39.2207 H   0  0  0  0  0  0  0  0  0  0  0  0
  109.2029   77.5831  -39.2207 H   0  0  0  0  0  0  0  0  0  0  0  0
  108.2525   80.0703  -38.0573 H   0  0  0  0  0  0  0  0  0  0  0  0
  109.3301   79.7689  -39.5022 H   0  0  0  0  0  0  0  0  0  0  0  0
  107.5580   81.0430  -40.0910 H   0  0  0  0  0  0  0  0  0  0  0  0
  107.8052   78.4668  -41.2954 H   0  0  0  0  0  0  0  0  0  0  0  0
  106.3687   79.4905  -41.7811 H   0  0  0  0  0  0  0  0  0  0  0  0
  108.9295   80.9397  -41.6912 H   0  0  0  0  0  0  0  0  0  0  0  0
  108.8536   79.6331  -42.9215 H   0  0  0  0  0  0  0  0  0  0  0  0
  107.6206   80.9394  -42.9215 H   0  0  0  0  0  0  0  0  0  0  0  0
  105.4966   79.2037  -39.1379 H   0  0  0  0  0  0  0  0  0  0  0  0
  104.9798   80.3826  -41.3436 H   0  0  0  0  0  0  0  0  0  0  0  0
  103.9229   80.9329  -39.9714 H   0  0  0  0  0  0  0  0  0  0  0  0
  105.5552   82.5358  -41.7028 H   0  0  0  0  0  0  0  0  0  0  0  0
  104.5524   83.0569  -40.3069 H   0  0  0  0  0  0  0  0  0  0  0  0
  106.4098   84.5548  -40.7951 H   0  0  0  0  0  0  0  0  0  0  0  0
  107.4212   84.5038  -39.2921 H   0  0  0  0  0  0  0  0  0  0  0  0
  107.3880   84.3464  -42.9042 H   0  0  0  0  0  0  0  0  0  0  0  0
  109.6016   83.7195  -47.8296 H   0  0  0  0  0  0  0  0  0  0  0  0
  108.3932   85.0344  -47.5539 H   0  0  0  0  0  0  0  0  0  0  0  0
  111.2800   85.2260  -47.8500 H   0  0  0  0  0  0  0  0  0  0  0  0
  108.7075   87.6535  -47.5975 H   0  0  0  0  0  0  0  0  0  0  0  0
  108.8358   89.7180  -46.2198 H   0  0  0  0  0  0  0  0  0  0  0  0
  110.7265   90.0403  -44.6238 H   0  0  0  0  0  0  0  0  0  0  0  0
  112.4694   88.2699  -44.4037 H   0  0  0  0  0  0  0  0  0  0  0  0
  112.3398   86.2063  -45.7853 H   0  0  0  0  0  0  0  0  0  0  0  0
  111.5961   83.4404  -43.3055 H   0  0  0  0  0  0  0  0  0  0  0  0
  109.5000   82.2770  -39.0240 H   0  0  0  0  0  0  0  0  0  0  0  0
  107.2535   82.7578  -37.8697 H   0  0  0  0  0  0  0  0  0  0  0  0
  105.5394   83.2388  -38.1187 H   0  0  0  0  0  0  0  0  0  0  0  0
  106.5742   80.6614  -37.3810 H   0  0  0  0  0  0  0  0  0  0  0  0
  104.8556   81.1436  -37.7146 H   0  0  0  0  0  0  0  0  0  0  0  0
  1  2  1  0
  2  3  1  0
  3  4  1  0
  4  5  1  0
  3  6  1  0
  6  7  1  0
  7  8  1  0
  8  9  1  0
  9 10  1  0
 10 11  1  0
 11 12  2  0
 12 13  1  0
 13 14  1  0
 14 15  3  0
 15 16  1  0
 16 17  1  0
 17 18  1  0
 18 19  2  0
 19 20  1  0
 20 21  2  0
 21 22  1  0
 22 23  2  0
 13 24  2  0
 24 25  1  0
 25 26  1  0
 25 27  2  0
 27 28  1  0
  9 29  1  0
 29 30  1  0
 30  6  1  0
 27 11  1  0
 23 18  1  0
  1 31  1  0
  1 32  1  0
  1 33  1  0
  2 34  1  0
  2 35  1  0
  3 36  1  0
  4 37  1  0
  4 38  1  0
  5 39  1  0
  5 40  1  0
  5 41  1  0
  6 42  1  0
  7 43  1  0
  7 44  1  0
  8 45  1  0
  8 46  1  0
 10 47  1  0
 10 48  1  0
 12 49  1  0
 16 50  1  0
 16 51  1  0
 17 52  1  0
 19 53  1  0
 20 54  1  0
 21 55  1  0
 22 56  1  0
 23 57  1  0
 24 58  1  0
 28 59  1  0
 29 60  1  0
 29 61  1  0
 30 62  1  0
 30 63  1  0
M  CHG  1   3   1
M  END
>  <meeko>  (3) 
{"is_sidechain": [false], "free_energy": -5.579, "intermolecular_energy": -8.113, "internal_energy": -2.098}

$$$$
4agq_ligand
     RDKit          3D

 63 65  0  0  0  0  0  0  0  0999 V2000
  109.7780   80.9950  -41.2760 C   0  0  0  0  0  0  0  0  0  0  0  0
  109.5680   81.2150  -39.7920 C   0  0  0  0  0  0  0  0  0  0  0  0
  108.1460   80.9680  -39.3370 N   0  0  0  0  0  0  0  0  0  0  0  0
  107.8900   79.5490  -38.8770 C   0  0  0  0  0  0  0  0  0  0  0  0
  107.2310   78.6740  -39.9260 C   0  0  0  0  0  0  0  0  0  0  0  0
  107.4430   82.0960  -38.5520 C   0  0  0  0  0  0  0  0  0  0  0  0
  105.9320   81.8090  -38.4240 C   0  0  0  0  0  0  0  0  0  0  0  0
  105.2110   81.8740  -39.7800 C   0  0  0  0  0  0  0  0  0  0  0  0
  106.1910   82.1310  -40.8410 N   0  0  0  0  0  0  0  0  0  0  0  0
  105.6020   81.9880  -42.1810 C   0  0  0  0  0  0  0  0  0  0  0  0
  106.5740   81.3500  -43.1520 C   0  0  0  0  0  0  0  0  0  0  0  0
  106.8090   79.9660  -43.0830 C   0  0  0  0  0  0  0  0  0  0  0  0
  107.7040   79.3470  -43.9610 C   0  0  0  0  0  0  0  0  0  0  0  0
  107.9280   77.9380  -43.8820 C   0  0  0  0  0  0  0  0  0  0  0  0
  108.1450   76.7570  -43.8530 C   0  0  0  0  0  0  0  0  0  0  0  0
  108.4450   75.3220  -43.7720 C   0  0  0  0  0  0  0  0  0  0  0  0
  108.9030   74.9620  -42.4380 N   0  0  0  0  0  0  0  0  0  0  0  0
  110.1530   75.3590  -41.9570 C   0  0  0  0  0  0  0  0  0  0  0  0
  110.2200   76.4960  -41.1370 C   0  0  0  0  0  0  0  0  0  0  0  0
  111.4260   76.9180  -40.5680 C   0  0  0  0  0  0  0  0  0  0  0  0
  112.5890   76.1900  -40.7900 C   0  0  0  0  0  0  0  0  0  0  0  0
  112.5390   75.0370  -41.5660 C   0  0  0  0  0  0  0  0  0  0  0  0
  111.3290   74.6200  -42.1320 C   0  0  0  0  0  0  0  0  0  0  0  0
  108.3820   80.1000  -44.9200 C   0  0  0  0  0  0  0  0  0  0  0  0
  108.1630   81.4760  -44.9980 C   0  0  0  0  0  0  0  0  0  0  0  0
  109.1800   82.5700  -46.4590 I   0  0  0  0  0  0  0  0  0  0  0  0
  107.2650   82.0980  -44.1190 C   0  0  0  0  0  0  0  0  0  0  0  0
  107.0420   83.4530  -44.1930 O   0  0  0  0  0  0  0  0  0  0  0  0
  106.8430   83.4340  -40.6400 C   0  0  0  0  0  0  0  0  0  0  0  0
  107.5660   83.4470  -39.2850 C   0  0  0  0  0  0  0  0  0  0  0  0
  110.5303   80.2069  -41.4270 H   0  0  0  0  0  0  0  0  0  0  0  0
  108.8284   80.6890  -41.7393 H   0  0  0  0  0  0  0  0  0  0  0  0
  110.1277   81.9294  -41.7393 H   0  0  0  0  0  0  0  0  0  0  0  0
  110.2324   80.5323  -39.2420 H   0  0  0  0  0  0  0  0  0  0  0  0
  109.7923   82.2725  -39.5883 H   0  0  0  0  0  0  0  0  0  0  0  0
  107.6260   81.0100  -40.2450 H   0  0  0  0  0  0  0  0  0  0  0  0
  108.8533   79.0946  -38.6020 H   0  0  0  0  0  0  0  0  0  0  0  0
  107.1942   79.6088  -38.0271 H   0  0  0  0  0  0  0  0  0  0  0  0
  106.6402   77.8895  -39.4306 H   0  0  0  0  0  0  0  0  0  0  0  0
  106.5700   79.2893  -40.5541 H   0  0  0  0  0  0  0  0  0  0  0  0
  108.0049   78.2086  -40.5541 H   0  0  0  0  0  0  0  0  0  0  0  0
  107.9287   82.1404  -37.5660 H   0  0  0  0  0  0  0  0  0  0  0  0
  105.7973   80.8033  -37.9992 H   0  0  0  0  0  0  0  0  0  0  0  0
  105.4960   82.5808  -37.7727 H   0  0  0  0  0  0  0  0  0  0  0  0
  104.7042   80.9169  -39.9725 H   0  0  0  0  0  0  0  0  0  0  0  0
  104.4675   82.6845  -39.7624 H   0  0  0  0  0  0  0  0  0  0  0  0
  104.7028   81.3583  -42.1104 H   0  0  0  0  0  0  0  0  0  0  0  0
  105.3505   82.9913  -42.5552 H   0  0  0  0  0  0  0  0  0  0  0  0
  106.2824   79.3624  -42.3291 H   0  0  0  0  0  0  0  0  0  0  0  0
  107.5353   74.7500  -44.0071 H   0  0  0  0  0  0  0  0  0  0  0  0
  109.2426   75.0883  -44.4926 H   0  0  0  0  0  0  0  0  0  0  0  0
  108.1740   75.0760  -41.7390 H   0  0  0  0  0  0  0  0  0  0  0  0
  109.3024   77.0688  -40.9371 H   0  0  0  0  0  0  0  0  0  0  0  0
  111.4540   77.8247  -39.9458 H   0  0  0  0  0  0  0  0  0  0  0  0
  113.5426   76.5236  -40.3548 H   0  0  0  0  0  0  0  0  0  0  0  0
  113.4541   74.4506  -41.7355 H   0  0  0  0  0  0  0  0  0  0  0  0
  111.3014   73.6943  -42.7255 H   0  0  0  0  0  0  0  0  0  0  0  0
  109.0852   79.6118  -45.6108 H   0  0  0  0  0  0  0  0  0  0  0  0
  107.1090   83.7810  -43.2730 H   0  0  0  0  0  0  0  0  0  0  0  0
  107.5723   83.6062  -41.4453 H   0  0  0  0  0  0  0  0  0  0  0  0
  106.0823   84.2284  -40.6548 H   0  0  0  0  0  0  0  0  0  0  0  0
  108.6312   83.6644  -39.4528 H   0  0  0  0  0  0  0  0  0  0  0  0
  107.0968   84.2185  -38.6568 H   0  0  0  0  0  0  0  0  0  0  0  0
  1  2  1  0
  2  3  1  0
  3  4  1  0
  4  5  1  0
  3  6  1  0
  6  7  1  0
  7  8  1  0
  8  9  1  0
  9 10  1  0
 10 11  1  0
 11 12  2  0
 12 13  1  0
 13 14  1  0
 14 15  3  0
 15 16  1  0
 16 17  1  0
 17 18  1  0
 18 19  2  0
 19 20  1  0
 20 21  2  0
 21 22  1  0
 22 23  2  0
 13 24  2  0
 24 25  1  0
 25 26  1  0
 25 27  2  0
 27 28  1  0
  9 29  1  0
 29 30  1  0
 30  6  1  0
 27 11  1  0
 23 18  1  0
  1 31  1  0
  1 32  1  0
  1 33  1  0
  2 34  1  0
  2 35  1  0
  3 36  1  0
  4 37  1  0
  4 38  1  0
  5 39  1  0
  5 40  1  0
  5 41  1  0
  6 42  1  0
  7 43  1  0
  7 44  1  0
  8 45  1  0
  8 46  1  0
 10 47  1  0
 10 48  1  0
 12 49  1  0
 16 50  1  0
 16 51  1  0
 17 52  1  0
 19 53  1  0
 20 54  1  0
 21 55  1  0
 22 56  1  0
 23 57  1  0
 24 58  1  0
 28 59  1  0
 29 60  1  0
 29 61  1  0
 30 62  1  0
 30 63  1  0
M  CHG  1   3   1
M  END
>  <meeko>  (4) 
{"is_sidechain": [false], "free_energy": -5.491, "intermolecular_energy": -7.709, "internal_energy": -2.371}

$$$$
4agq_ligand
     RDKit          3D

 63 65  0  0  0  0  0  0  0  0999 V2000
  108.7360   83.5990  -44.2400 C   0  0  0  0  0  0  0  0  0  0  0  0
  108.0380   82.5340  -43.4200 C   0  0  0  0  0  0  0  0  0  0  0  0
  108.1780   82.7310  -41.9260 N   0  0  0  0  0  0  0  0  0  0  0  0
  109.5760   82.4780  -41.4050 C   0  0  0  0  0  0  0  0  0  0  0  0
  110.0840   81.0720  -41.6670 C   0  0  0  0  0  0  0  0  0  0  0  0
  107.3920   83.8940  -41.2840 C   0  0  0  0  0  0  0  0  0  0  0  0
  107.4030   83.7730  -39.7450 C   0  0  0  0  0  0  0  0  0  0  0  0
  106.6140   82.5500  -39.2520 C   0  0  0  0  0  0  0  0  0  0  0  0
  106.1170   81.7930  -40.4060 N   0  0  0  0  0  0  0  0  0  0  0  0
  105.5420   80.4980  -40.0100 C   0  0  0  0  0  0  0  0  0  0  0  0
  106.0920   79.3640  -40.8500 C   0  0  0  0  0  0  0  0  0  0  0  0
  107.4030   78.9110  -40.6250 C   0  0  0  0  0  0  0  0  0  0  0  0
  107.9420   77.8700  -41.3870 C   0  0  0  0  0  0  0  0  0  0  0  0
  109.2750   77.4180  -41.1420 C   0  0  0  0  0  0  0  0  0  0  0  0
  110.3890   77.0040  -40.9690 C   0  0  0  0  0  0  0  0  0  0  0  0
  111.7660   76.5500  -40.7340 C   0  0  0  0  0  0  0  0  0  0  0  0
  112.3900   77.3170  -39.6670 N   0  0  0  0  0  0  0  0  0  0  0  0
  112.6650   78.6800  -39.8030 C   0  0  0  0  0  0  0  0  0  0  0  0
  112.2590   79.5460  -38.7760 C   0  0  0  0  0  0  0  0  0  0  0  0
  112.5530   80.9130  -38.8130 C   0  0  0  0  0  0  0  0  0  0  0  0
  113.2860   81.4360  -39.8720 C   0  0  0  0  0  0  0  0  0  0  0  0
  113.7330   80.5890  -40.8810 C   0  0  0  0  0  0  0  0  0  0  0  0
  113.4350   79.2220  -40.8370 C   0  0  0  0  0  0  0  0  0  0  0  0
  107.1810   77.2660  -42.3880 C   0  0  0  0  0  0  0  0  0  0  0  0
  105.8800   77.7070  -42.6270 C   0  0  0  0  0  0  0  0  0  0  0  0
  104.7620   76.7660  -44.1200 I   0  0  0  0  0  0  0  0  0  0  0  0
  105.3370   78.7510  -41.8630 C   0  0  0  0  0  0  0  0  0  0  0  0
  104.0540   79.1880  -42.0910 O   0  0  0  0  0  0  0  0  0  0  0  0
  105.1890   82.6100  -41.2020 C   0  0  0  0  0  0  0  0  0  0  0  0
  105.9100   83.8680  -41.7080 C   0  0  0  0  0  0  0  0  0  0  0  0
  109.2128   84.3265  -43.5666 H   0  0  0  0  0  0  0  0  0  0  0  0
  109.5023   83.1297  -44.8745 H   0  0  0  0  0  0  0  0  0  0  0  0
  107.9999   84.1143  -44.8745 H   0  0  0  0  0  0  0  0  0  0  0  0
  106.9677   82.5457  -43.6735 H   0  0  0  0  0  0  0  0  0  0  0  0
  108.5154   81.5738  -43.6649 H   0  0  0  0  0  0  0  0  0  0  0  0
  107.6450   81.9090  -41.5560 H   0  0  0  0  0  0  0  0  0  0  0  0
  110.2605   83.1897  -41.8897 H   0  0  0  0  0  0  0  0  0  0  0  0
  109.5382   82.6059  -40.3131 H   0  0  0  0  0  0  0  0  0  0  0  0
  110.2676   80.5640  -40.7088 H   0  0  0  0  0  0  0  0  0  0  0  0
  109.3316   80.5113  -42.2411 H   0  0  0  0  0  0  0  0  0  0  0  0
  111.0210   81.1217  -42.2411 H   0  0  0  0  0  0  0  0  0  0  0  0
  107.8786   84.8221  -41.6186 H   0  0  0  0  0  0  0  0  0  0  0  0
  108.4451   83.6828  -39.4044 H   0  0  0  0  0  0  0  0  0  0  0  0
  106.9228   84.6726  -39.3326 H   0  0  0  0  0  0  0  0  0  0  0  0
  107.2719   81.9081  -38.6478 H   0  0  0  0  0  0  0  0  0  0  0  0
  105.7644   82.8840  -38.6382 H   0  0  0  0  0  0  0  0  0  0  0  0
  105.7823   80.3088  -38.9534 H   0  0  0  0  0  0  0  0  0  0  0  0
  104.4537   80.5433  -40.1631 H   0  0  0  0  0  0  0  0  0  0  0  0
  108.0128   79.3813  -39.8395 H   0  0  0  0  0  0  0  0  0  0  0  0
  111.7517   75.4867  -40.4524 H   0  0  0  0  0  0  0  0  0  0  0  0
  112.3464   76.6950  -41.6571 H   0  0  0  0  0  0  0  0  0  0  0  0
  111.9940   77.0990  -38.7560 H   0  0  0  0  0  0  0  0  0  0  0  0
  111.6965   79.1403  -37.9221 H   0  0  0  0  0  0  0  0  0  0  0  0
  112.2046   81.5733  -38.0051 H   0  0  0  0  0  0  0  0  0  0  0  0
  113.5110   82.5120  -39.9119 H   0  0  0  0  0  0  0  0  0  0  0  0
  114.3226   80.9949  -41.7162 H   0  0  0  0  0  0  0  0  0  0  0  0
  113.8137   78.5615  -41.6309 H   0  0  0  0  0  0  0  0  0  0  0  0
  107.6052   76.4458  -42.9858 H   0  0  0  0  0  0  0  0  0  0  0  0
  103.9890   79.3200  -43.0580 H   0  0  0  0  0  0  0  0  0  0  0  0
  104.8303   82.0238  -42.0609 H   0  0  0  0  0  0  0  0  0  0  0  0
  104.3354   82.9069  -40.5749 H   0  0  0  0  0  0  0  0  0  0  0  0
  105.8544   83.8917  -42.8063 H   0  0  0  0  0  0  0  0  0  0  0  0
  105.4145   84.7448  -41.2656 H   0  0  0  0  0  0  0  0  0  0  0  0
  1  2  1  0
  2  3  1  0
  3  4  1  0
  4  5  1  0
  3  6  1  0
  6  7  1  0
  7  8  1  0
  8  9  1  0
  9 10  1  0
 10 11  1  0
 11 12  2  0
 12 13  1  0
 13 14  1  0
 14 15  3  0
 15 16  1  0
 16 17  1  0
 17 18  1  0
 18 19  2  0
 19 20  1  0
 20 21  2  0
 21 22  1  0
 22 23  2  0
 13 24  2  0
 24 25  1  0
 25 26  1  0
 25 27  2  0
 27 28  1  0
  9 29  1  0
 29 30  1  0
 30  6  1  0
 27 11  1  0
 23 18  1  0
  1 31  1  0
  1 32  1  0
  1 33  1  0
  2 34  1  0
  2 35  1  0
  3 36  1  0
  4 37  1  0
  4 38  1  0
  5 39  1  0
  5 40  1  0
  5 41  1  0
  6 42  1  0
  7 43  1  0
  7 44  1  0
  8 45  1  0
  8 46  1  0
 10 47  1  0
 10 48  1  0
 12 49  1  0
 16 50  1  0
 16 51  1  0
 17 52  1  0
 19 53  1  0
 20 54  1  0
 21 55  1  0
 22 56  1  0
 23 57  1  0
 24 58  1  0
 28 59  1  0
 29 60  1  0
 29 61  1  0
 30 62  1  0
 30 63  1  0
M  CHG  1   3   1
M  END
>  <meeko>  (5) 
{"is_sidechain": [false], "free_energy": -5.47, "intermolecular_energy": -7.57, "internal_energy": -2.479}

$$$$
4agq_ligand
     RDKit          3D

 63 65  0  0  0  0  0  0  0  0999 V2000
  110.4970   82.2240  -39.8500 C   0  0  0  0  0  0  0  0  0  0  0  0
  109.9250   80.8990  -40.3090 C   0  0  0  0  0  0  0  0  0  0  0  0
  110.9770   79.9110  -40.7660 N   0  0  0  0  0  0  0  0  0  0  0  0
  111.6150   80.2660  -42.0900 C   0  0  0  0  0  0  0  0  0  0  0  0
  110.9920   79.5610  -43.2810 C   0  0  0  0  0  0  0  0  0  0  0  0
  111.8970   79.3010  -39.6860 C   0  0  0  0  0  0  0  0  0  0  0  0
  112.7160   78.1280  -40.2690 C   0  0  0  0  0  0  0  0  0  0  0  0
  111.8300   76.9290  -40.6420 C   0  0  0  0  0  0  0  0  0  0  0  0
  110.4240   77.2650  -40.3940 N   0  0  0  0  0  0  0  0  0  0  0  0
  109.5100   76.2460  -40.9320 C   0  0  0  0  0  0  0  0  0  0  0  0
  108.5980   76.8210  -41.9960 C   0  0  0  0  0  0  0  0  0  0  0  0
  108.0770   78.1160  -41.8310 C   0  0  0  0  0  0  0  0  0  0  0  0
  107.2280   78.6730  -42.7920 C   0  0  0  0  0  0  0  0  0  0  0  0
  106.7100   79.9930  -42.6130 C   0  0  0  0  0  0  0  0  0  0  0  0
  106.2540   81.0990  -42.5040 C   0  0  0  0  0  0  0  0  0  0  0  0
  105.6570   82.4300  -42.3340 C   0  0  0  0  0  0  0  0  0  0  0  0
  104.9320   82.5170  -41.0750 N   0  0  0  0  0  0  0  0  0  0  0  0
  105.5940   82.5490  -39.8450 C   0  0  0  0  0  0  0  0  0  0  0  0
  106.7210   83.3740  -39.7170 C   0  0  0  0  0  0  0  0  0  0  0  0
  107.3980   83.5060  -38.5000 C   0  0  0  0  0  0  0  0  0  0  0  0
  106.9390   82.8290  -37.3760 C   0  0  0  0  0  0  0  0  0  0  0  0
  105.8000   82.0360  -37.4690 C   0  0  0  0  0  0  0  0  0  0  0  0
  105.1280   81.9100  -38.6910 C   0  0  0  0  0  0  0  0  0  0  0  0
  106.8820   77.9460  -43.9310 C   0  0  0  0  0  0  0  0  0  0  0  0
  107.3880   76.6580  -44.1070 C   0  0  0  0  0  0  0  0  0  0  0  0
  106.8670   75.6060  -45.8350 I   0  0  0  0  0  0  0  0  0  0  0  0
  108.2400   76.0970  -43.1450 C   0  0  0  0  0  0  0  0  0  0  0  0
  108.7450   74.8300  -43.3140 O   0  0  0  0  0  0  0  0  0  0  0  0
  110.2000   77.5370  -38.9660 C   0  0  0  0  0  0  0  0  0  0  0  0
  111.0770   78.7160  -38.5190 C   0  0  0  0  0  0  0  0  0  0  0  0
  110.5109   82.2562  -38.7506 H   0  0  0  0  0  0  0  0  0  0  0  0
  111.5224   82.3331  -40.2330 H   0  0  0  0  0  0  0  0  0  0  0  0
  109.8732   83.0451  -40.2330 H   0  0  0  0  0  0  0  0  0  0  0  0
  109.3681   80.4520  -39.4723 H   0  0  0  0  0  0  0  0  0  0  0  0
  109.2807   81.1084  -41.1756 H   0  0  0  0  0  0  0  0  0  0  0  0
  110.3900   79.0790  -41.0120 H   0  0  0  0  0  0  0  0  0  0  0  0
  111.5191   81.3514  -42.2408 H   0  0  0  0  0  0  0  0  0  0  0  0
  112.6637   79.9382  -42.0374 H   0  0  0  0  0  0  0  0  0  0  0  0
  110.3026   78.7809  -42.9259 H   0  0  0  0  0  0  0  0  0  0  0  0
  110.4379   80.2903  -43.8902 H   0  0  0  0  0  0  0  0  0  0  0  0
  111.7840   79.1009  -43.8902 H   0  0  0  0  0  0  0  0  0  0  0  0
  112.5502   80.1141  -39.3365 H   0  0  0  0  0  0  0  0  0  0  0  0
  113.2395   78.4759  -41.1718 H   0  0  0  0  0  0  0  0  0  0  0  0
  113.4258   77.7957  -39.4971 H   0  0  0  0  0  0  0  0  0  0  0  0
  111.9674   76.6885  -41.7066 H   0  0  0  0  0  0  0  0  0  0  0  0
  112.1128   76.0594  -40.0305 H   0  0  0  0  0  0  0  0  0  0  0  0
  110.1033   75.4312  -41.3726 H   0  0  0  0  0  0  0  0  0  0  0  0
  108.8846   75.8747  -40.1068 H   0  0  0  0  0  0  0  0  0  0  0  0
  108.3403   78.6979  -40.9354 H   0  0  0  0  0  0  0  0  0  0  0  0
  106.4554   83.1866  -42.3429 H   0  0  0  0  0  0  0  0  0  0  0  0
  104.9511   82.6066  -43.1590 H   0  0  0  0  0  0  0  0  0  0  0  0
  104.1740   83.1940  -41.1160 H   0  0  0  0  0  0  0  0  0  0  0  0
  107.0812   83.9306  -40.5947 H   0  0  0  0  0  0  0  0  0  0  0  0
  108.2915   84.1440  -38.4326 H   0  0  0  0  0  0  0  0  0  0  0  0
  107.4733   82.9199  -36.4188 H   0  0  0  0  0  0  0  0  0  0  0  0
  105.4262   81.5065  -36.5803 H   0  0  0  0  0  0  0  0  0  0  0  0
  104.2163   81.2969  -38.7446 H   0  0  0  0  0  0  0  0  0  0  0  0
  106.2139   78.3858  -44.6862 H   0  0  0  0  0  0  0  0  0  0  0  0
  108.3170   74.2820  -42.6260 H   0  0  0  0  0  0  0  0  0  0  0  0
  109.1412   77.7867  -38.8032 H   0  0  0  0  0  0  0  0  0  0  0  0
  110.4638   76.6444  -38.3797 H   0  0  0  0  0  0  0  0  0  0  0  0
  110.4293   79.5051  -38.1094 H   0  0  0  0  0  0  0  0  0  0  0  0
  111.7822   78.3462  -37.7601 H   0  0  0  0  0  0  0  0  0  0  0  0
  1  2  1  0
  2  3  1  0
  3  4  1  0
  4  5  1  0
  3  6  1  0
  6  7  1  0
  7  8  1  0
  8  9  1  0
  9 10  1  0
 10 11  1  0
 11 12  2  0
 12 13  1  0
 13 14  1  0
 14 15  3  0
 15 16  1  0
 16 17  1  0
 17 18  1  0
 18 19  2  0
 19 20  1  0
 20 21  2  0
 21 22  1  0
 22 23  2  0
 13 24  2  0
 24 25  1  0
 25 26  1  0
 25 27  2  0
 27 28  1  0
  9 29  1  0
 29 30  1  0
 30  6  1  0
 27 11  1  0
 23 18  1  0
  1 31  1  0
  1 32  1  0
  1 33  1  0
  2 34  1  0
  2 35  1  0
  3 36  1  0
  4 37  1  0
  4 38  1  0
  5 39  1  0
  5 40  1  0
  5 41  1  0
  6 42  1  0
  7 43  1  0
  7 44  1  0
  8 45  1  0
  8 46  1  0
 10 47  1  0
 10 48  1  0
 12 49  1  0
 16 50  1  0
 16 51  1  0
 17 52  1  0
 19 53  1  0
 20 54  1  0
 21 55  1  0
 22 56  1  0
 23 57  1  0
 24 58  1  0
 28 59  1  0
 29 60  1  0
 29 61  1  0
 30 62  1  0
 30 63  1  0
M  CHG  1   3   1
M  END
>  <meeko>  (6) 
{"is_sidechain": [false], "free_energy": -5.425, "intermolecular_energy": -7.68, "internal_energy": -2.302}

$$$$
4agq_ligand
     RDKit          3D

 63 65  0  0  0  0  0  0  0  0999 V2000
  107.2470   79.2330  -38.9600 C   0  0  0  0  0  0  0  0  0  0  0  0
  107.9130   78.9550  -40.2920 C   0  0  0  0  0  0  0  0  0  0  0  0
  109.4230   78.8960  -40.2150 N   0  0  0  0  0  0  0  0  0  0  0  0
  110.0460   80.0820  -39.5110 C   0  0  0  0  0  0  0  0  0  0  0  0
  109.8360   81.4010  -40.2290 C   0  0  0  0  0  0  0  0  0  0  0  0
  110.0690   77.5160  -39.9670 C   0  0  0  0  0  0  0  0  0  0  0  0
  111.5960   77.5840  -40.1860 C   0  0  0  0  0  0  0  0  0  0  0  0
  111.9610   77.8420  -41.6570 C   0  0  0  0  0  0  0  0  0  0  0  0
  110.7330   78.0180  -42.4400 N   0  0  0  0  0  0  0  0  0  0  0  0
  111.0140   78.4840  -43.8070 C   0  0  0  0  0  0  0  0  0  0  0  0
  109.8090   79.1650  -44.4220 C   0  0  0  0  0  0  0  0  0  0  0  0
  109.0230   80.0230  -43.6330 C   0  0  0  0  0  0  0  0  0  0  0  0
  107.9020   80.6620  -44.1690 C   0  0  0  0  0  0  0  0  0  0  0  0
  107.1160   81.5360  -43.3550 C   0  0  0  0  0  0  0  0  0  0  0  0
  106.4300   82.2790  -42.7090 C   0  0  0  0  0  0  0  0  0  0  0  0
  105.5560   83.1440  -41.9050 C   0  0  0  0  0  0  0  0  0  0  0  0
  104.8200   82.3650  -40.9200 N   0  0  0  0  0  0  0  0  0  0  0  0
  105.2270   82.2920  -39.5860 C   0  0  0  0  0  0  0  0  0  0  0  0
  106.4300   82.9160  -39.2220 C   0  0  0  0  0  0  0  0  0  0  0  0
  106.8710   82.9380  -37.8950 C   0  0  0  0  0  0  0  0  0  0  0  0
  106.0970   82.3550  -36.8980 C   0  0  0  0  0  0  0  0  0  0  0  0
  104.8810   81.7660  -37.2290 C   0  0  0  0  0  0  0  0  0  0  0  0
  104.4470   81.7490  -38.5590 C   0  0  0  0  0  0  0  0  0  0  0  0
  107.5430   80.4530  -45.5010 C   0  0  0  0  0  0  0  0  0  0  0  0
  108.3100   79.6010  -46.2960 C   0  0  0  0  0  0  0  0  0  0  0  0
  107.7570   79.3270  -48.2920 I   0  0  0  0  0  0  0  0  0  0  0  0
  109.4360   78.9590  -45.7600 C   0  0  0  0  0  0  0  0  0  0  0  0
  110.1980   78.1210  -46.5400 O   0  0  0  0  0  0  0  0  0  0  0  0
  109.9180   76.7950  -42.4090 C   0  0  0  0  0  0  0  0  0  0  0  0
  109.5370   76.4630  -40.9590 C   0  0  0  0  0  0  0  0  0  0  0  0
  107.9273   78.9490  -38.1436 H   0  0  0  0  0  0  0  0  0  0  0  0
  107.0110   80.3047  -38.8846 H   0  0  0  0  0  0  0  0  0  0  0  0
  106.3191   78.6471  -38.8846 H   0  0  0  0  0  0  0  0  0  0  0  0
  107.5462   77.9889  -40.6690 H   0  0  0  0  0  0  0  0  0  0  0  0
  107.6570   79.7902  -40.9606 H   0  0  0  0  0  0  0  0  0  0  0  0
  109.6900   79.0580  -41.2140 H   0  0  0  0  0  0  0  0  0  0  0  0
  109.6044   80.1600  -38.5066 H   0  0  0  0  0  0  0  0  0  0  0  0
  111.1309   79.9029  -39.4819 H   0  0  0  0  0  0  0  0  0  0  0  0
  109.7080   82.2049  -39.4891 H   0  0  0  0  0  0  0  0  0  0  0  0
  110.7108   81.6187  -40.8593 H   0  0  0  0  0  0  0  0  0  0  0  0
  108.9369   81.3363  -40.8593 H   0  0  0  0  0  0  0  0  0  0  0  0
  109.8225   77.2372  -38.9319 H   0  0  0  0  0  0  0  0  0  0  0  0
  112.0061   78.3987  -39.5712 H   0  0  0  0  0  0  0  0  0  0  0  0
  112.0220   76.6116  -39.8980 H   0  0  0  0  0  0  0  0  0  0  0  0
  112.5754   78.7516  -41.7286 H   0  0  0  0  0  0  0  0  0  0  0  0
  112.5282   76.9856  -42.0505 H   0  0  0  0  0  0  0  0  0  0  0  0
  111.8504   79.1977  -43.7761 H   0  0  0  0  0  0  0  0  0  0  0  0
  111.2671   77.6091  -44.4238 H   0  0  0  0  0  0  0  0  0  0  0  0
  109.2939   80.1934  -42.5806 H   0  0  0  0  0  0  0  0  0  0  0  0
  106.1705   83.8939  -41.3853 H   0  0  0  0  0  0  0  0  0  0  0  0
  104.8352   83.6360  -42.5746 H   0  0  0  0  0  0  0  0  0  0  0  0
  103.8150   82.4950  -41.0030 H   0  0  0  0  0  0  0  0  0  0  0  0
  107.0407   83.3993  -39.9988 H   0  0  0  0  0  0  0  0  0  0  0  0
  107.8286   83.4158  -37.6405 H   0  0  0  0  0  0  0  0  0  0  0  0
  106.4439   82.3595  -35.8542 H   0  0  0  0  0  0  0  0  0  0  0  0
  104.2591   81.3125  -36.4431 H   0  0  0  0  0  0  0  0  0  0  0  0
  103.4729   81.2997  -38.8022 H   0  0  0  0  0  0  0  0  0  0  0  0
  106.6604   80.9570  -45.9218 H   0  0  0  0  0  0  0  0  0  0  0  0
  111.1260   78.3010  -46.2880 H   0  0  0  0  0  0  0  0  0  0  0  0
  109.0038   76.9498  -43.0009 H   0  0  0  0  0  0  0  0  0  0  0  0
  110.4964   75.9612  -42.8335 H   0  0  0  0  0  0  0  0  0  0  0  0
  108.4406   76.4227  -40.8802 H   0  0  0  0  0  0  0  0  0  0  0  0
  109.9901   75.4942  -40.7018 H   0  0  0  0  0  0  0  0  0  0  0  0
  1  2  1  0
  2  3  1  0
  3  4  1  0
  4  5  1  0
  3  6  1  0
  6  7  1  0
  7  8  1  0
  8  9  1  0
  9 10  1  0
 10 11  1  0
 11 12  2  0
 12 13  1  0
 13 14  1  0
 14 15  3  0
 15 16  1  0
 16 17  1  0
 17 18  1  0
 18 19  2  0
 19 20  1  0
 20 21  2  0
 21 22  1  0
 22 23  2  0
 13 24  2  0
 24 25  1  0
 25 26  1  0
 25 27  2  0
 27 28  1  0
  9 29  1  0
 29 30  1  0
 30  6  1  0
 27 11  1  0
 23 18  1  0
  1 31  1  0
  1 32  1  0
  1 33  1  0
  2 34  1  0
  2 35  1  0
  3 36  1  0
  4 37  1  0
  4 38  1  0
  5 39  1  0
  5 40  1  0
  5 41  1  0
  6 42  1  0
  7 43  1  0
  7 44  1  0
  8 45  1  0
  8 46  1  0
 10 47  1  0
 10 48  1  0
 12 49  1  0
 16 50  1  0
 16 51  1  0
 17 52  1  0
 19 53  1  0
 20 54  1  0
 21 55  1  0
 22 56  1  0
 23 57  1  0
 24 58  1  0
 28 59  1  0
 29 60  1  0
 29 61  1  0
 30 62  1  0
 30 63  1  0
M  CHG  1   3   1
M  END
>  <meeko>  (7) 
{"is_sidechain": [false], "free_energy": -5.368, "intermolecular_energy": -7.588, "internal_energy": -2.307}

$$$$
4agq_ligand
     RDKit          3D

 63 65  0  0  0  0  0  0  0  0999 V2000
  107.6110   81.0730  -43.2920 C   0  0  0  0  0  0  0  0  0  0  0  0
  108.3880   82.2730  -42.7920 C   0  0  0  0  0  0  0  0  0  0  0  0
  108.3170   82.4590  -41.2920 N   0  0  0  0  0  0  0  0  0  0  0  0
  109.5930   82.0880  -40.5690 C   0  0  0  0  0  0  0  0  0  0  0  0
  110.3590   80.9520  -41.2200 C   0  0  0  0  0  0  0  0  0  0  0  0
  107.5440   83.6870  -40.7630 C   0  0  0  0  0  0  0  0  0  0  0  0
  107.3420   83.5850  -39.2350 C   0  0  0  0  0  0  0  0  0  0  0  0
  106.4020   82.4310  -38.8500 C   0  0  0  0  0  0  0  0  0  0  0  0
  106.0060   81.7000  -40.0580 N   0  0  0  0  0  0  0  0  0  0  0  0
  105.2860   80.4570  -39.7390 C   0  0  0  0  0  0  0  0  0  0  0  0
  105.7570   79.3040  -40.6000 C   0  0  0  0  0  0  0  0  0  0  0  0
  104.8930   78.7710  -41.5720 C   0  0  0  0  0  0  0  0  0  0  0  0
  105.2950   77.7020  -42.3790 C   0  0  0  0  0  0  0  0  0  0  0  0
  104.4070   77.1750  -43.3660 C   0  0  0  0  0  0  0  0  0  0  0  0
  103.6940   76.7030  -44.2100 C   0  0  0  0  0  0  0  0  0  0  0  0
  102.8710   76.1080  -45.2710 C   0  0  0  0  0  0  0  0  0  0  0  0
  103.6100   75.0800  -45.9870 N   0  0  0  0  0  0  0  0  0  0  0  0
  104.3170   74.0800  -45.3160 C   0  0  0  0  0  0  0  0  0  0  0  0
  105.7180   74.1620  -45.2830 C   0  0  0  0  0  0  0  0  0  0  0  0
  106.4900   73.2330  -44.5790 C   0  0  0  0  0  0  0  0  0  0  0  0
  105.8680   72.2120  -43.8690 C   0  0  0  0  0  0  0  0  0  0  0  0
  104.4790   72.1340  -43.8540 C   0  0  0  0  0  0  0  0  0  0  0  0
  103.7140   73.0690  -44.5600 C   0  0  0  0  0  0  0  0  0  0  0  0
  106.5650   77.1450  -42.2260 C   0  0  0  0  0  0  0  0  0  0  0  0
  107.4320   77.6600  -41.2620 C   0  0  0  0  0  0  0  0  0  0  0  0
  109.3340   76.8150  -41.0750 I   0  0  0  0  0  0  0  0  0  0  0  0
  107.0320   78.7320  -40.4530 C   0  0  0  0  0  0  0  0  0  0  0  0
  107.8830   79.2460  -39.5040 O   0  0  0  0  0  0  0  0  0  0  0  0
  105.2570   82.5760  -40.9720 C   0  0  0  0  0  0  0  0  0  0  0  0
  106.1340   83.7690  -41.3800 C   0  0  0  0  0  0  0  0  0  0  0  0
  107.2368   80.4951  -42.4341 H   0  0  0  0  0  0  0  0  0  0  0  0
  106.7620   81.4143  -43.9025 H   0  0  0  0  0  0  0  0  0  0  0  0
  108.2698   80.4380  -43.9025 H   0  0  0  0  0  0  0  0  0  0  0  0
  109.4429   82.1476  -43.0772 H   0  0  0  0  0  0  0  0  0  0  0  0
  107.9339   83.1645  -43.2493 H   0  0  0  0  0  0  0  0  0  0  0  0
  107.6660   81.6870  -41.0160 H   0  0  0  0  0  0  0  0  0  0  0  0
  110.2448   82.9736  -40.5399 H   0  0  0  0  0  0  0  0  0  0  0  0
  109.3033   81.7443  -39.5650 H   0  0  0  0  0  0  0  0  0  0  0  0
  110.7930   80.3084  -40.4406 H   0  0  0  0  0  0  0  0  0  0  0  0
  109.6751   80.3598  -41.8457 H   0  0  0  0  0  0  0  0  0  0  0  0
  111.1644   81.3641  -41.8457 H   0  0  0  0  0  0  0  0  0  0  0  0
  108.1405   84.5711  -41.0326 H   0  0  0  0  0  0  0  0  0  0  0  0
  108.3196   83.4198  -38.7585 H   0  0  0  0  0  0  0  0  0  0  0  0
  106.8831   84.5238  -38.8913 H   0  0  0  0  0  0  0  0  0  0  0  0
  106.9222   81.7482  -38.1621 H   0  0  0  0  0  0  0  0  0  0  0  0
  105.5065   82.8364  -38.3564 H   0  0  0  0  0  0  0  0  0  0  0  0
  105.4574   80.2064  -38.6817 H   0  0  0  0  0  0  0  0  0  0  0  0
  104.2159   80.6188  -39.9357 H   0  0  0  0  0  0  0  0  0  0  0  0
  103.8882   79.2000  -41.6995 H   0  0  0  0  0  0  0  0  0  0  0  0
  101.9733   75.6588  -44.8211 H   0  0  0  0  0  0  0  0  0  0  0  0
  102.5900   76.8985  -45.9825 H   0  0  0  0  0  0  0  0  0  0  0  0
  103.0840   74.7090  -46.7750 H   0  0  0  0  0  0  0  0  0  0  0  0
  106.2207   74.9771  -45.8243 H   0  0  0  0  0  0  0  0  0  0  0  0
  107.5873   73.3096  -44.5868 H   0  0  0  0  0  0  0  0  0  0  0  0
  106.4701   71.4709  -43.3228 H   0  0  0  0  0  0  0  0  0  0  0  0
  103.9807   71.3350  -43.2855 H   0  0  0  0  0  0  0  0  0  0  0  0
  102.6164   73.0079  -44.5198 H   0  0  0  0  0  0  0  0  0  0  0  0
  106.8808   76.3047  -42.8617 H   0  0  0  0  0  0  0  0  0  0  0  0
  108.6440   79.6070  -40.0020 H   0  0  0  0  0  0  0  0  0  0  0  0
  104.9708   82.0086  -41.8698 H   0  0  0  0  0  0  0  0  0  0  0  0
  104.3534   82.9447  -40.4645 H   0  0  0  0  0  0  0  0  0  0  0  0
  106.2263   83.7835  -42.4760 H   0  0  0  0  0  0  0  0  0  0  0  0
  105.6536   84.6864  -41.0089 H   0  0  0  0  0  0  0  0  0  0  0  0
  1  2  1  0
  2  3  1  0
  3  4  1  0
  4  5  1  0
  3  6  1  0
  6  7  1  0
  7  8  1  0
  8  9  1  0
  9 10  1  0
 10 11  1  0
 11 12  2  0
 12 13  1  0
 13 14  1  0
 14 15  3  0
 15 16  1  0
 16 17  1  0
 17 18  1  0
 18 19  2  0
 19 20  1  0
 20 21  2  0
 21 22  1  0
 22 23  2  0
 13 24  2  0
 24 25  1  0
 25 26  1  0
 25 27  2  0
 27 28  1  0
  9 29  1  0
 29 30  1  0
 30  6  1  0
 27 11  1  0
 23 18  1  0
  1 31  1  0
  1 32  1  0
  1 33  1  0
  2 34  1  0
  2 35  1  0
  3 36  1  0
  4 37  1  0
  4 38  1  0
  5 39  1  0
  5 40  1  0
  5 41  1  0
  6 42  1  0
  7 43  1  0
  7 44  1  0
  8 45  1  0
  8 46  1  0
 10 47  1  0
 10 48  1  0
 12 49  1  0
 16 50  1  0
 16 51  1  0
 17 52  1  0
 19 53  1  0
 20 54  1  0
 21 55  1  0
 22 56  1  0
 23 57  1  0
 24 58  1  0
 28 59  1  0
 29 60  1  0
 29 61  1  0
 30 62  1  0
 30 63  1  0
M  CHG  1   3   1
M  END
>  <meeko>  (8) 
{"is_sidechain": [false], "free_energy": -5.312, "intermolecular_energy": -7.68, "internal_energy": -2.132}

$$$$
4agq_ligand
     RDKit          3D

 63 65  0  0  0  0  0  0  0  0999 V2000
  105.4330   82.0560  -37.4450 C   0  0  0  0  0  0  0  0  0  0  0  0
  106.5330   82.1090  -38.4850 C   0  0  0  0  0  0  0  0  0  0  0  0
  106.0300   81.9750  -39.9060 N   0  0  0  0  0  0  0  0  0  0  0  0
  104.8580   81.0290  -40.0530 C   0  0  0  0  0  0  0  0  0  0  0  0
  105.2470   79.6380  -40.5150 C   0  0  0  0  0  0  0  0  0  0  0  0
  106.0150   83.2490  -40.7790 C   0  0  0  0  0  0  0  0  0  0  0  0
  105.8330   82.8840  -42.2690 C   0  0  0  0  0  0  0  0  0  0  0  0
  107.0460   82.1290  -42.8340 C   0  0  0  0  0  0  0  0  0  0  0  0
  108.0250   81.9070  -41.7650 N   0  0  0  0  0  0  0  0  0  0  0  0
  109.1060   81.0020  -42.1850 C   0  0  0  0  0  0  0  0  0  0  0  0
  108.8080   79.5650  -41.8100 C   0  0  0  0  0  0  0  0  0  0  0  0
  108.6370   78.6080  -42.8250 C   0  0  0  0  0  0  0  0  0  0  0  0
  108.3570   77.2750  -42.5130 C   0  0  0  0  0  0  0  0  0  0  0  0
  108.1910   76.3120  -43.5560 C   0  0  0  0  0  0  0  0  0  0  0  0
  108.0480   75.4710  -44.4010 C   0  0  0  0  0  0  0  0  0  0  0  0
  107.8170   74.4340  -45.4150 C   0  0  0  0  0  0  0  0  0  0  0  0
  106.3990   74.3070  -45.7140 N   0  0  0  0  0  0  0  0  0  0  0  0
  105.6310   73.2560  -45.2060 C   0  0  0  0  0  0  0  0  0  0  0  0
  105.4170   72.1330  -46.0200 C   0  0  0  0  0  0  0  0  0  0  0  0
  104.7120   71.0170  -45.5580 C   0  0  0  0  0  0  0  0  0  0  0  0
  104.2280   70.9940  -44.2550 C   0  0  0  0  0  0  0  0  0  0  0  0
  104.4620   72.0790  -43.4170 C   0  0  0  0  0  0  0  0  0  0  0  0
  105.1700   73.1920  -43.8870 C   0  0  0  0  0  0  0  0  0  0  0  0
  108.2370   76.8750  -41.1810 C   0  0  0  0  0  0  0  0  0  0  0  0
  108.3990   77.8140  -40.1620 C   0  0  0  0  0  0  0  0  0  0  0  0
  108.2340   77.1770  -38.1800 I   0  0  0  0  0  0  0  0  0  0  0  0
  108.6810   79.1520  -40.4740 C   0  0  0  0  0  0  0  0  0  0  0  0
  108.8460   80.0810  -39.4740 O   0  0  0  0  0  0  0  0  0  0  0  0
  108.5230   83.1880  -41.2430 C   0  0  0  0  0  0  0  0  0  0  0  0
  107.3530   84.0080  -40.6810 C   0  0  0  0  0  0  0  0  0  0  0  0
  105.8780   82.0774  -36.4392 H   0  0  0  0  0  0  0  0  0  0  0  0
  104.7679   82.9231  -37.5703 H   0  0  0  0  0  0  0  0  0  0  0  0
  104.8543   81.1289  -37.5703 H   0  0  0  0  0  0  0  0  0  0  0  0
  107.0550   83.0726  -38.3903 H   0  0  0  0  0  0  0  0  0  0  0  0
  107.1974   81.2530  -38.2958 H   0  0  0  0  0  0  0  0  0  0  0  0
  106.8110   81.4420  -40.3550 H   0  0  0  0  0  0  0  0  0  0  0  0
  104.3576   80.9428  -39.0772 H   0  0  0  0  0  0  0  0  0  0  0  0
  104.2012   81.4514  -40.8278 H   0  0  0  0  0  0  0  0  0  0  0  0
  105.4262   78.9974  -39.6389 H   0  0  0  0  0  0  0  0  0  0  0  0
  104.4336   79.2119  -41.1206 H   0  0  0  0  0  0  0  0  0  0  0  0
  106.1635   79.6957  -41.1206 H   0  0  0  0  0  0  0  0  0  0  0  0
  105.1847   83.8704  -40.4122 H   0  0  0  0  0  0  0  0  0  0  0  0
  104.9410   82.2486  -42.3717 H   0  0  0  0  0  0  0  0  0  0  0  0
  105.7246   83.8208  -42.8353 H   0  0  0  0  0  0  0  0  0  0  0  0
  106.7188   81.1598  -43.2385 H   0  0  0  0  0  0  0  0  0  0  0  0
  107.5073   82.7241  -43.6358 H   0  0  0  0  0  0  0  0  0  0  0  0
  109.2236   81.0689  -43.2766 H   0  0  0  0  0  0  0  0  0  0  0  0
  110.0293   81.3072  -41.6708 H   0  0  0  0  0  0  0  0  0  0  0  0
  108.7247   78.9122  -43.8785 H   0  0  0  0  0  0  0  0  0  0  0  0
  108.3563   74.7035  -46.3351 H   0  0  0  0  0  0  0  0  0  0  0  0
  108.1811   73.4726  -45.0237 H   0  0  0  0  0  0  0  0  0  0  0  0
  105.9120   75.1970  -45.6500 H   0  0  0  0  0  0  0  0  0  0  0  0
  105.8133   72.1305  -47.0461 H   0  0  0  0  0  0  0  0  0  0  0  0
  104.5408   70.1589  -46.2245 H   0  0  0  0  0  0  0  0  0  0  0  0
  103.6637   70.1235  -43.8892 H   0  0  0  0  0  0  0  0  0  0  0  0
  104.0898   72.0628  -42.3820 H   0  0  0  0  0  0  0  0  0  0  0  0
  105.3675   74.0325  -43.2055 H   0  0  0  0  0  0  0  0  0  0  0  0
  108.0160   75.8256  -40.9363 H   0  0  0  0  0  0  0  0  0  0  0  0
  107.9450   80.2710  -39.1420 H   0  0  0  0  0  0  0  0  0  0  0  0
  109.2536   82.9976  -40.4430 H   0  0  0  0  0  0  0  0  0  0  0  0
  109.0042   83.7504  -42.0567 H   0  0  0  0  0  0  0  0  0  0  0  0
  107.5550   84.2364  -39.6241 H   0  0  0  0  0  0  0  0  0  0  0  0
  107.2658   84.9279  -41.2777 H   0  0  0  0  0  0  0  0  0  0  0  0
  1  2  1  0
  2  3  1  0
  3  4  1  0
  4  5  1  0
  3  6  1  0
  6  7  1  0
  7  8  1  0
  8  9  1  0
  9 10  1  0
 10 11  1  0
 11 12  2  0
 12 13  1  0
 13 14  1  0
 14 15  3  0
 15 16  1  0
 16 17  1  0
 17 18  1  0
 18 19  2  0
 19 20  1  0
 20 21  2  0
 21 22  1  0
 22 23  2  0
 13 24  2  0
 24 25  1  0
 25 26  1  0
 25 27  2  0
 27 28  1  0
  9 29  1  0
 29 30  1  0
 30  6  1  0
 27 11  1  0
 23 18  1  0
  1 31  1  0
  1 32  1  0
  1 33  1  0
  2 34  1  0
  2 35  1  0
  3 36  1  0
  4 37  1  0
  4 38  1  0
  5 39  1  0
  5 40  1  0
  5 41  1  0
  6 42  1  0
  7 43  1  0
  7 44  1  0
  8 45  1  0
  8 46  1  0
 10 47  1  0
 10 48  1  0
 12 49  1  0
 16 50  1  0
 16 51  1  0
 17 52  1  0
 19 53  1  0
 20 54  1  0
 21 55  1  0
 22 56  1  0
 23 57  1  0
 24 58  1  0
 28 59  1  0
 29 60  1  0
 29 61  1  0
 30 62  1  0
 30 63  1  0
M  CHG  1   3   1
M  END
>  <meeko>  (9) 
{"is_sidechain": [false], "free_energy": -5.297, "intermolecular_energy": -7.939, "internal_energy": -1.85}

$$$$
