1e66_ligand
     RDKit          3D

 41 44  0  0  0  0  0  0  0  0999 V2000
    4.6700   63.7950   64.0660 C   0  0  0  0  0  0  0  0  0  0  0  0
    3.4220   64.5470   64.5050 C   0  0  0  0  0  0  0  0  0  0  0  0
    3.3960   65.9750   64.0080 C   0  0  0  0  0  0  0  0  0  0  0  0
    4.2580   66.4160   63.0720 C   0  0  0  0  0  0  0  0  0  0  0  0
    4.2430   67.8270   62.5310 C   0  0  2  0  0  0  0  0  0  0  0  0
    5.3380   68.6620   63.2110 C   0  0  0  0  0  0  0  0  0  0  0  0
    4.9740   69.0790   64.6130 C   0  0  0  0  0  0  0  0  0  0  0  0
    5.9540   69.5830   65.3800 N   0  0  0  0  0  0  0  0  0  0  0  0
    5.7750   70.0120   66.6410 C   0  0  0  0  0  0  0  0  0  0  0  0
    6.8760   70.4830   67.3710 C   0  0  0  0  0  0  0  0  0  0  0  0
    6.7040   70.9100   68.6850 C   0  0  0  0  0  0  0  0  0  0  0  0
    8.0580   71.4820   69.5730 Cl  0  0  0  0  0  0  0  0  0  0  0  0
    5.4500   70.8720   69.2790 C   0  0  0  0  0  0  0  0  0  0  0  0
    4.3490   70.4070   68.5510 C   0  0  0  0  0  0  0  0  0  0  0  0
    4.4810   69.9720   67.2120 C   0  0  0  0  0  0  0  0  0  0  0  0
    3.4070   69.5050   66.4130 C   0  0  0  0  0  0  0  0  0  0  0  0
    2.1110   69.3530   66.9410 N   0  0  0  0  0  0  0  0  0  0  0  0
    3.6660   69.0070   65.1220 C   0  0  0  0  0  0  0  0  0  0  0  0
    2.5570   68.3880   64.2680 C   0  0  2  0  0  0  0  0  0  0  0  0
    2.3540   66.8940   64.6200 C   0  0  0  0  0  0  0  0  0  0  0  0
    2.8890   68.5030   62.7740 C   0  0  0  0  0  0  0  0  0  0  0  0
    5.2270   63.4594   64.9532 H   0  0  0  0  0  0  0  0  0  0  0  0
    4.3790   62.9217   63.4637 H   0  0  0  0  0  0  0  0  0  0  0  0
    5.3061   64.4603   63.4637 H   0  0  0  0  0  0  0  0  0  0  0  0
    2.5385   64.0218   64.1130 H   0  0  0  0  0  0  0  0  0  0  0  0
    3.4223   64.5778   65.6046 H   0  0  0  0  0  0  0  0  0  0  0  0
    5.0102   65.7145   62.6820 H   0  0  0  0  0  0  0  0  0  0  0  0
    4.4242   67.7693   61.4476 H   0  0  0  0  0  0  0  0  0  0  0  0
    6.2606   68.0644   63.2512 H   0  0  0  0  0  0  0  0  0  0  0  0
    5.4690   69.5792   62.6180 H   0  0  0  0  0  0  0  0  0  0  0  0
    6.8920   69.6300   64.9840 H   0  0  0  0  0  0  0  0  0  0  0  0
    7.8727   70.5150   66.9067 H   0  0  0  0  0  0  0  0  0  0  0  0
    5.3220   71.2065   70.3191 H   0  0  0  0  0  0  0  0  0  0  0  0
    3.3595   70.3793   69.0307 H   0  0  0  0  0  0  0  0  0  0  0  0
    1.4850   70.1190   66.6920 H   0  0  0  0  0  0  0  0  0  0  0  0
    1.6550   68.4690   66.7300 H   0  0  0  0  0  0  0  0  0  0  0  0
    1.6318   68.9428   64.4829 H   0  0  0  0  0  0  0  0  0  0  0  0
    2.3958   66.7863   65.7139 H   0  0  0  0  0  0  0  0  0  0  0  0
    1.3797   66.5959   64.2054 H   0  0  0  0  0  0  0  0  0  0  0  0
    2.1106   68.0018   62.1799 H   0  0  0  0  0  0  0  0  0  0  0  0
    2.9332   69.5606   62.4748 H   0  0  0  0  0  0  0  0  0  0  0  0
  1  2  1  0
  2  3  1  0
  3  4  2  0
  4  5  1  0
  5  6  1  0
  6  7  1  0
  7  8  2  0
  8  9  1  0
  9 10  2  0
 10 11  1  0
 11 12  1  0
 11 13  2  0
 13 14  1  0
 14 15  2  0
 15 16  1  0
 16 17  1  0
 16 18  2  0
 18 19  1  0
 19 20  1  0
 19 21  1  0
 20  3  1  0
 21  5  1  0
 18  7  1  0
 15  9  1  0
  1 22  1  0
  1 23  1  0
  1 24  1  0
  2 25  1  0
  2 26  1  0
  4 27  1  0
  5 28  1  6
  6 29  1  0
  6 30  1  0
  8 31  1  0
 10 32  1  0
 13 33  1  0
 14 34  1  0
 17 35  1  0
 17 36  1  0
 19 37  1  6
 20 38  1  0
 20 39  1  0
 21 40  1  0
 21 41  1  0
M  CHG  1   8   1
M  END
>  <meeko>  (1) 
{"is_sidechain": [false], "free_energy": -12.511, "intermolecular_energy": -13.608, "internal_energy": -0.116}

$$$$
