3kgp_ligand
     RDKit          3D

 20 20  0  0  0  0  0  0  0  0999 V2000
  -31.9120   90.5100  -12.2370 N   0  0  0  0  0  0  0  0  0  0  0  0
  -32.0580   89.5100  -11.1560 C   0  0  0  0  0  0  0  0  0  0  0  0
  -30.8360   88.6550  -11.1120 C   0  0  0  0  0  0  0  0  0  0  0  0
  -30.4300   88.0700   -9.9050 C   0  0  0  0  0  0  0  0  0  0  0  0
  -29.2110   87.4010   -9.8280 C   0  0  0  0  0  0  0  0  0  0  0  0
  -28.3730   87.3040  -10.9490 C   0  0  0  0  0  0  0  0  0  0  0  0
  -27.0230   86.6220  -10.8470 C   0  0  0  0  0  0  0  0  0  0  0  0
  -26.6600   85.9290  -11.8460 O   0  0  0  0  0  0  0  0  0  0  0  0
  -26.3830   86.7880   -9.7650 O   0  0  0  0  0  0  0  0  0  0  0  0
  -28.8030   87.8640  -12.1600 C   0  0  0  0  0  0  0  0  0  0  0  0
  -30.0210   88.5350  -12.2450 C   0  0  0  0  0  0  0  0  0  0  0  0
  -31.1400   91.1610  -12.0710 H   0  0  0  0  0  0  0  0  0  0  0  0
  -31.7640   90.0270  -13.1330 H   0  0  0  0  0  0  0  0  0  0  0  0
  -32.7880   91.0360  -12.3400 H   0  0  0  0  0  0  0  0  0  0  0  0
  -32.1817   90.0253  -10.1921 H   0  0  0  0  0  0  0  0  0  0  0  0
  -32.9414   88.8834  -11.3483 H   0  0  0  0  0  0  0  0  0  0  0  0
  -31.0753   88.1394   -9.0169 H   0  0  0  0  0  0  0  0  0  0  0  0
  -28.9015   86.9432   -8.8769 H   0  0  0  0  0  0  0  0  0  0  0  0
  -28.1703   87.7724  -13.0551 H   0  0  0  0  0  0  0  0  0  0  0  0
  -30.3429   88.9708  -13.2023 H   0  0  0  0  0  0  0  0  0  0  0  0
  1  2  1  0
  2  3  1  0
  3  4  2  0
  4  5  1  0
  5  6  2  0
  6  7  1  0
  7  8  2  0
  7  9  1  0
  6 10  1  0
 10 11  2  0
 11  3  1  0
  1 12  1  0
  1 13  1  0
  1 14  1  0
  2 15  1  0
  2 16  1  0
  4 17  1  0
  5 18  1  0
 10 19  1  0
 11 20  1  0
M  CHG  2   1   1   9  -1
M  END
>  <meeko>  (1) 
{"is_sidechain": [false], "free_energy": -5.719, "intermolecular_energy": -6.554, "internal_energy": -0.076}

$$$$
3kgp_ligand
     RDKit          3D

 20 20  0  0  0  0  0  0  0  0999 V2000
  -31.8860   90.5460  -12.2410 N   0  0  0  0  0  0  0  0  0  0  0  0
  -31.9460   89.4100  -11.2940 C   0  0  0  0  0  0  0  0  0  0  0  0
  -30.5940   88.7860  -11.1930 C   0  0  0  0  0  0  0  0  0  0  0  0
  -29.8990   88.4240  -12.3550 C   0  0  0  0  0  0  0  0  0  0  0  0
  -28.7100   87.7050  -12.2610 C   0  0  0  0  0  0  0  0  0  0  0  0
  -28.1930   87.3300  -11.0120 C   0  0  0  0  0  0  0  0  0  0  0  0
  -26.9290   86.5010  -10.9160 C   0  0  0  0  0  0  0  0  0  0  0  0
  -26.2280   86.6520   -9.8700 O   0  0  0  0  0  0  0  0  0  0  0  0
  -26.6710   85.7420  -11.9000 O   0  0  0  0  0  0  0  0  0  0  0  0
  -28.8800   87.7250   -9.8550 C   0  0  0  0  0  0  0  0  0  0  0  0
  -30.0700   88.4440   -9.9390 C   0  0  0  0  0  0  0  0  0  0  0  0
  -31.9400   91.4540  -11.7730 H   0  0  0  0  0  0  0  0  0  0  0  0
  -31.0160   90.4940  -12.7850 H   0  0  0  0  0  0  0  0  0  0  0  0
  -32.6510   90.4660  -12.9220 H   0  0  0  0  0  0  0  0  0  0  0  0
  -32.2593   89.7722  -10.3037 H   0  0  0  0  0  0  0  0  0  0  0  0
  -32.6716   88.6657  -11.6539 H   0  0  0  0  0  0  0  0  0  0  0  0
  -30.2930   88.7080  -13.3420 H   0  0  0  0  0  0  0  0  0  0  0  0
  -28.1693   87.4276  -13.1779 H   0  0  0  0  0  0  0  0  0  0  0  0
  -28.4733   87.4633   -8.8670 H   0  0  0  0  0  0  0  0  0  0  0  0
  -30.5982   88.7432   -9.0216 H   0  0  0  0  0  0  0  0  0  0  0  0
  1  2  1  0
  2  3  1  0
  3  4  2  0
  4  5  1  0
  5  6  2  0
  6  7  1  0
  7  8  2  0
  7  9  1  0
  6 10  1  0
 10 11  2  0
 11  3  1  0
  1 12  1  0
  1 13  1  0
  1 14  1  0
  2 15  1  0
  2 16  1  0
  4 17  1  0
  5 18  1  0
 10 19  1  0
 11 20  1  0
M  CHG  2   1   1   9  -1
M  END
>  <meeko>  (2) 
{"is_sidechain": [false], "free_energy": -5.634, "intermolecular_energy": -6.465, "internal_energy": -0.068}

$$$$
3kgp_ligand
     RDKit          3D

 20 20  0  0  0  0  0  0  0  0999 V2000
  -26.0140   85.8880  -10.3610 N   0  0  0  0  0  0  0  0  0  0  0  0
  -26.7180   86.0150  -11.6570 C   0  0  0  0  0  0  0  0  0  0  0  0
  -27.8910   86.9210  -11.4880 C   0  0  0  0  0  0  0  0  0  0  0  0
  -28.3250   87.2780  -10.2040 C   0  0  0  0  0  0  0  0  0  0  0  0
  -29.5070   87.9960  -10.0410 C   0  0  0  0  0  0  0  0  0  0  0  0
  -30.2800   88.3690  -11.1510 C   0  0  0  0  0  0  0  0  0  0  0  0
  -31.5930   89.1030  -10.9660 C   0  0  0  0  0  0  0  0  0  0  0  0
  -32.0680   89.6850  -11.9880 O   0  0  0  0  0  0  0  0  0  0  0  0
  -32.0930   89.0880   -9.8000 O   0  0  0  0  0  0  0  0  0  0  0  0
  -29.8210   88.0360  -12.4330 C   0  0  0  0  0  0  0  0  0  0  0  0
  -28.6400   87.3170  -12.6050 C   0  0  0  0  0  0  0  0  0  0  0  0
  -26.0440   86.7490   -9.8090 H   0  0  0  0  0  0  0  0  0  0  0  0
  -26.4280   85.1190   -9.8190 H   0  0  0  0  0  0  0  0  0  0  0  0
  -25.0350   85.6230  -10.5260 H   0  0  0  0  0  0  0  0  0  0  0  0
  -26.0334   86.4350  -12.4086 H   0  0  0  0  0  0  0  0  0  0  0  0
  -27.0597   85.0245  -11.9920 H   0  0  0  0  0  0  0  0  0  0  0  0
  -27.7311   86.9906   -9.3238 H   0  0  0  0  0  0  0  0  0  0  0  0
  -29.8387   88.2741   -9.0298 H   0  0  0  0  0  0  0  0  0  0  0  0
  -30.4008   88.3464  -13.3147 H   0  0  0  0  0  0  0  0  0  0  0  0
  -28.2952   87.0600  -13.6175 H   0  0  0  0  0  0  0  0  0  0  0  0
  1  2  1  0
  2  3  1  0
  3  4  2  0
  4  5  1  0
  5  6  2  0
  6  7  1  0
  7  8  2  0
  7  9  1  0
  6 10  1  0
 10 11  2  0
 11  3  1  0
  1 12  1  0
  1 13  1  0
  1 14  1  0
  2 15  1  0
  2 16  1  0
  4 17  1  0
  5 18  1  0
 10 19  1  0
 11 20  1  0
M  CHG  2   1   1   9  -1
M  END
>  <meeko>  (3) 
{"is_sidechain": [false], "free_energy": -5.034, "intermolecular_energy": -5.767, "internal_energy": -0.079}

$$$$
3kgp_ligand
     RDKit          3D

 20 20  0  0  0  0  0  0  0  0999 V2000
  -27.7480   82.6570  -11.0880 N   0  0  0  0  0  0  0  0  0  0  0  0
  -28.3480   83.3350  -12.2590 C   0  0  0  0  0  0  0  0  0  0  0  0
  -28.6620   84.7480  -11.8970 C   0  0  0  0  0  0  0  0  0  0  0  0
  -28.5450   85.1750  -10.5680 C   0  0  0  0  0  0  0  0  0  0  0  0
  -28.9830   86.4460  -10.2030 C   0  0  0  0  0  0  0  0  0  0  0  0
  -29.5480   87.3120  -11.1510 C   0  0  0  0  0  0  0  0  0  0  0  0
  -30.0730   88.6720  -10.7390 C   0  0  0  0  0  0  0  0  0  0  0  0
  -29.6180   89.1530   -9.6570 O   0  0  0  0  0  0  0  0  0  0  0  0
  -30.9380   89.2030  -11.5010 O   0  0  0  0  0  0  0  0  0  0  0  0
  -29.6300   86.8870  -12.4840 C   0  0  0  0  0  0  0  0  0  0  0  0
  -29.1950   85.6170  -12.8580 C   0  0  0  0  0  0  0  0  0  0  0  0
  -27.8140   83.2140  -10.2320 H   0  0  0  0  0  0  0  0  0  0  0  0
  -28.2100   81.7510  -10.9420 H   0  0  0  0  0  0  0  0  0  0  0  0
  -26.7620   82.4440  -11.2810 H   0  0  0  0  0  0  0  0  0  0  0  0
  -27.6370   83.3190  -13.0982 H   0  0  0  0  0  0  0  0  0  0  0  0
  -29.2705   82.8147  -12.5560 H   0  0  0  0  0  0  0  0  0  0  0  0
  -28.1071   84.5064   -9.8123 H   0  0  0  0  0  0  0  0  0  0  0  0
  -28.8846   86.7748   -9.1579 H   0  0  0  0  0  0  0  0  0  0  0  0
  -30.0433   87.5650  -13.2452 H   0  0  0  0  0  0  0  0  0  0  0  0
  -29.2701   85.2968  -13.9077 H   0  0  0  0  0  0  0  0  0  0  0  0
  1  2  1  0
  2  3  1  0
  3  4  2  0
  4  5  1  0
  5  6  2  0
  6  7  1  0
  7  8  2  0
  7  9  1  0
  6 10  1  0
 10 11  2  0
 11  3  1  0
  1 12  1  0
  1 13  1  0
  1 14  1  0
  2 15  1  0
  2 16  1  0
  4 17  1  0
  5 18  1  0
 10 19  1  0
 11 20  1  0
M  CHG  2   1   1   9  -1
M  END
>  <meeko>  (4) 
{"is_sidechain": [false], "free_energy": -4.777, "intermolecular_energy": -5.473, "internal_energy": -0.079}

$$$$
3kgp_ligand
     RDKit          3D

 20 20  0  0  0  0  0  0  0  0999 V2000
  -15.8640   82.4820   -7.6910 N   0  0  0  0  0  0  0  0  0  0  0  0
  -16.2580   81.6490   -8.8490 C   0  0  0  0  0  0  0  0  0  0  0  0
  -17.2730   80.6480   -8.4090 C   0  0  0  0  0  0  0  0  0  0  0  0
  -17.5530   80.4860   -7.0450 C   0  0  0  0  0  0  0  0  0  0  0  0
  -18.3830   79.4500   -6.6220 C   0  0  0  0  0  0  0  0  0  0  0  0
  -18.9460   78.5560   -7.5460 C   0  0  0  0  0  0  0  0  0  0  0  0
  -19.8040   77.3990   -7.0770 C   0  0  0  0  0  0  0  0  0  0  0  0
  -20.8750   77.1870   -7.7230 O   0  0  0  0  0  0  0  0  0  0  0  0
  -19.3870   76.7550   -6.0670 O   0  0  0  0  0  0  0  0  0  0  0  0
  -18.6850   78.7480   -8.9100 C   0  0  0  0  0  0  0  0  0  0  0  0
  -17.8560   79.7800   -9.3420 C   0  0  0  0  0  0  0  0  0  0  0  0
  -15.0220   82.1370   -7.2240 H   0  0  0  0  0  0  0  0  0  0  0  0
  -15.7110   83.4500   -8.0010 H   0  0  0  0  0  0  0  0  0  0  0  0
  -16.6380   82.5200   -7.0160 H   0  0  0  0  0  0  0  0  0  0  0  0
  -16.6881   82.2890   -9.6335 H   0  0  0  0  0  0  0  0  0  0  0  0
  -15.3747   81.1293   -9.2486 H   0  0  0  0  0  0  0  0  0  0  0  0
  -17.1173   81.1771   -6.3084 H   0  0  0  0  0  0  0  0  0  0  0  0
  -18.5998   79.3312   -5.5502 H   0  0  0  0  0  0  0  0  0  0  0  0
  -19.1416   78.0738   -9.6495 H   0  0  0  0  0  0  0  0  0  0  0  0
  -17.6587   79.9139  -10.4158 H   0  0  0  0  0  0  0  0  0  0  0  0
  1  2  1  0
  2  3  1  0
  3  4  2  0
  4  5  1  0
  5  6  2  0
  6  7  1  0
  7  8  2  0
  7  9  1  0
  6 10  1  0
 10 11  2  0
 11  3  1  0
  1 12  1  0
  1 13  1  0
  1 14  1  0
  2 15  1  0
  2 16  1  0
  4 17  1  0
  5 18  1  0
 10 19  1  0
 11 20  1  0
M  CHG  2   1   1   9  -1
M  END
>  <meeko>  (5) 
{"is_sidechain": [false], "free_energy": -4.654, "intermolecular_energy": -5.336, "internal_energy": -0.074}

$$$$
3kgp_ligand
     RDKit          3D

 20 20  0  0  0  0  0  0  0  0999 V2000
  -31.8620   88.8990  -10.1650 N   0  0  0  0  0  0  0  0  0  0  0  0
  -30.7760   88.0660   -9.6000 C   0  0  0  0  0  0  0  0  0  0  0  0
  -29.7310   87.8530  -10.6430 C   0  0  0  0  0  0  0  0  0  0  0  0
  -29.9960   88.1780  -11.9800 C   0  0  0  0  0  0  0  0  0  0  0  0
  -29.0820   87.8380  -12.9750 C   0  0  0  0  0  0  0  0  0  0  0  0
  -27.8910   87.1670  -12.6590 C   0  0  0  0  0  0  0  0  0  0  0  0
  -26.9260   86.7520  -13.7500 C   0  0  0  0  0  0  0  0  0  0  0  0
  -26.8090   87.5410  -14.7370 O   0  0  0  0  0  0  0  0  0  0  0  0
  -26.3330   85.6420  -13.5920 O   0  0  0  0  0  0  0  0  0  0  0  0
  -27.6200   86.8770  -11.3140 C   0  0  0  0  0  0  0  0  0  0  0  0
  -28.5290   87.2120  -10.3130 C   0  0  0  0  0  0  0  0  0  0  0  0
  -32.7480   88.7840   -9.6670 H   0  0  0  0  0  0  0  0  0  0  0  0
  -31.5830   89.8880  -10.1410 H   0  0  0  0  0  0  0  0  0  0  0  0
  -31.9940   88.6650  -11.1560 H   0  0  0  0  0  0  0  0  0  0  0  0
  -30.3323   88.5777   -8.7332 H   0  0  0  0  0  0  0  0  0  0  0  0
  -31.1823   87.0955   -9.2789 H   0  0  0  0  0  0  0  0  0  0  0  0
  -30.9264   88.7020  -12.2442 H   0  0  0  0  0  0  0  0  0  0  0  0
  -29.2969   88.0990  -14.0218 H   0  0  0  0  0  0  0  0  0  0  0  0
  -26.6769   86.3783  -11.0458 H   0  0  0  0  0  0  0  0  0  0  0  0
  -28.3034   86.9734   -9.2632 H   0  0  0  0  0  0  0  0  0  0  0  0
  1  2  1  0
  2  3  1  0
  3  4  2  0
  4  5  1  0
  5  6  2  0
  6  7  1  0
  7  8  2  0
  7  9  1  0
  6 10  1  0
 10 11  2  0
 11  3  1  0
  1 12  1  0
  1 13  1  0
  1 14  1  0
  2 15  1  0
  2 16  1  0
  4 17  1  0
  5 18  1  0
 10 19  1  0
 11 20  1  0
M  CHG  2   1   1   9  -1
M  END
>  <meeko>  (6) 
{"is_sidechain": [false], "free_energy": -4.595, "intermolecular_energy": -5.267, "internal_energy": -0.076}

$$$$
3kgp_ligand
     RDKit          3D

 20 20  0  0  0  0  0  0  0  0999 V2000
  -26.2210   87.8490  -15.6060 N   0  0  0  0  0  0  0  0  0  0  0  0
  -26.3070   86.5720  -14.8630 C   0  0  0  0  0  0  0  0  0  0  0  0
  -27.1100   86.7830  -13.6220 C   0  0  0  0  0  0  0  0  0  0  0  0
  -28.1380   87.7350  -13.6040 C   0  0  0  0  0  0  0  0  0  0  0  0
  -28.7840   88.0410  -12.4090 C   0  0  0  0  0  0  0  0  0  0  0  0
  -28.4170   87.4090  -11.2110 C   0  0  0  0  0  0  0  0  0  0  0  0
  -29.0860   87.7840   -9.9040 C   0  0  0  0  0  0  0  0  0  0  0  0
  -29.2850   86.8430   -9.0770 O   0  0  0  0  0  0  0  0  0  0  0  0
  -29.4060   89.0030   -9.7590 O   0  0  0  0  0  0  0  0  0  0  0  0
  -27.4100   86.4340  -11.2460 C   0  0  0  0  0  0  0  0  0  0  0  0
  -26.7580   86.1230  -12.4370 C   0  0  0  0  0  0  0  0  0  0  0  0
  -27.1390   88.2120  -15.8760 H   0  0  0  0  0  0  0  0  0  0  0  0
  -25.7320   88.5480  -15.0330 H   0  0  0  0  0  0  0  0  0  0  0  0
  -25.6450   87.7190  -16.4470 H   0  0  0  0  0  0  0  0  0  0  0  0
  -26.7934   85.8118  -15.4919 H   0  0  0  0  0  0  0  0  0  0  0  0
  -25.2963   86.2288  -14.5970 H   0  0  0  0  0  0  0  0  0  0  0  0
  -28.4349   88.2410  -14.5345 H   0  0  0  0  0  0  0  0  0  0  0  0
  -29.5920   88.7874  -12.4040 H   0  0  0  0  0  0  0  0  0  0  0  0
  -27.1313   85.9079  -10.3210 H   0  0  0  0  0  0  0  0  0  0  0  0
  -25.9666   85.3591  -12.4473 H   0  0  0  0  0  0  0  0  0  0  0  0
  1  2  1  0
  2  3  1  0
  3  4  2  0
  4  5  1  0
  5  6  2  0
  6  7  1  0
  7  8  2  0
  7  9  1  0
  6 10  1  0
 10 11  2  0
 11  3  1  0
  1 12  1  0
  1 13  1  0
  1 14  1  0
  2 15  1  0
  2 16  1  0
  4 17  1  0
  5 18  1  0
 10 19  1  0
 11 20  1  0
M  CHG  2   1   1   9  -1
M  END
>  <meeko>  (7) 
{"is_sidechain": [false], "free_energy": -4.564, "intermolecular_energy": -5.232, "internal_energy": -0.075}

$$$$
3kgp_ligand
     RDKit          3D

 20 20  0  0  0  0  0  0  0  0999 V2000
  -24.7870   83.9090   -9.4870 N   0  0  0  0  0  0  0  0  0  0  0  0
  -25.3640   83.6900  -10.8330 C   0  0  0  0  0  0  0  0  0  0  0  0
  -26.5120   84.6220  -11.0300 C   0  0  0  0  0  0  0  0  0  0  0  0
  -26.3160   86.0070  -10.9360 C   0  0  0  0  0  0  0  0  0  0  0  0
  -27.4090   86.8690  -10.9670 C   0  0  0  0  0  0  0  0  0  0  0  0
  -28.7150   86.3710  -11.0880 C   0  0  0  0  0  0  0  0  0  0  0  0
  -29.9050   87.3090  -11.0670 C   0  0  0  0  0  0  0  0  0  0  0  0
  -30.4010   87.6240  -12.1910 O   0  0  0  0  0  0  0  0  0  0  0  0
  -30.2890   87.7140   -9.9270 O   0  0  0  0  0  0  0  0  0  0  0  0
  -28.8970   84.9870  -11.2150 C   0  0  0  0  0  0  0  0  0  0  0  0
  -27.8090   84.1170  -11.1840 C   0  0  0  0  0  0  0  0  0  0  0  0
  -23.9320   83.3690   -9.3310 H   0  0  0  0  0  0  0  0  0  0  0  0
  -24.5870   84.9090   -9.3580 H   0  0  0  0  0  0  0  0  0  0  0  0
  -25.4820   83.6640   -8.7710 H   0  0  0  0  0  0  0  0  0  0  0  0
  -24.5976   83.8829  -11.5981 H   0  0  0  0  0  0  0  0  0  0  0  0
  -25.7116   82.6502  -10.9223 H   0  0  0  0  0  0  0  0  0  0  0  0
  -25.2983   86.4128  -10.8377 H   0  0  0  0  0  0  0  0  0  0  0  0
  -27.2464   87.9546  -10.8957 H   0  0  0  0  0  0  0  0  0  0  0  0
  -29.9121   84.5823  -11.3408 H   0  0  0  0  0  0  0  0  0  0  0  0
  -27.9690   83.0330  -11.2805 H   0  0  0  0  0  0  0  0  0  0  0  0
  1  2  1  0
  2  3  1  0
  3  4  2  0
  4  5  1  0
  5  6  2  0
  6  7  1  0
  7  8  2  0
  7  9  1  0
  6 10  1  0
 10 11  2  0
 11  3  1  0
  1 12  1  0
  1 13  1  0
  1 14  1  0
  2 15  1  0
  2 16  1  0
  4 17  1  0
  5 18  1  0
 10 19  1  0
 11 20  1  0
M  CHG  2   1   1   9  -1
M  END
>  <meeko>  (8) 
{"is_sidechain": [false], "free_energy": -4.554, "intermolecular_energy": -5.233, "internal_energy": -0.062}

$$$$
3kgp_ligand
     RDKit          3D

 20 20  0  0  0  0  0  0  0  0999 V2000
  -25.6110   84.9330  -14.2320 N   0  0  0  0  0  0  0  0  0  0  0  0
  -26.4160   86.1010  -14.6550 C   0  0  0  0  0  0  0  0  0  0  0  0
  -27.1230   86.6630  -13.4680 C   0  0  0  0  0  0  0  0  0  0  0  0
  -26.8960   86.1240  -12.1940 C   0  0  0  0  0  0  0  0  0  0  0  0
  -27.6660   86.5420  -11.1120 C   0  0  0  0  0  0  0  0  0  0  0  0
  -28.6780   87.4990  -11.2770 C   0  0  0  0  0  0  0  0  0  0  0  0
  -29.5500   87.9110  -10.1080 C   0  0  0  0  0  0  0  0  0  0  0  0
  -29.6890   89.1570   -9.9130 O   0  0  0  0  0  0  0  0  0  0  0  0
  -30.0490   86.9730   -9.4140 O   0  0  0  0  0  0  0  0  0  0  0  0
  -28.8760   88.0560  -12.5480 C   0  0  0  0  0  0  0  0  0  0  0  0
  -28.1100   87.6430  -13.6360 C   0  0  0  0  0  0  0  0  0  0  0  0
  -25.8070   84.0960  -14.7880 H   0  0  0  0  0  0  0  0  0  0  0  0
  -24.6120   85.1620  -14.3000 H   0  0  0  0  0  0  0  0  0  0  0  0
  -25.7900   84.7330  -13.2400 H   0  0  0  0  0  0  0  0  0  0  0  0
  -25.7549   86.8670  -15.0866 H   0  0  0  0  0  0  0  0  0  0  0  0
  -27.1518   85.7894  -15.4110 H   0  0  0  0  0  0  0  0  0  0  0  0
  -26.1085   85.3698  -12.0490 H   0  0  0  0  0  0  0  0  0  0  0  0
  -27.4783   86.1164  -10.1152 H   0  0  0  0  0  0  0  0  0  0  0  0
  -29.6459   88.8290  -12.6882 H   0  0  0  0  0  0  0  0  0  0  0  0
  -28.2803   88.0868  -14.6280 H   0  0  0  0  0  0  0  0  0  0  0  0
  1  2  1  0
  2  3  1  0
  3  4  2  0
  4  5  1  0
  5  6  2  0
  6  7  1  0
  7  8  2  0
  7  9  1  0
  6 10  1  0
 10 11  2  0
 11  3  1  0
  1 12  1  0
  1 13  1  0
  1 14  1  0
  2 15  1  0
  2 16  1  0
  4 17  1  0
  5 18  1  0
 10 19  1  0
 11 20  1  0
M  CHG  2   1   1   9  -1
M  END
>  <meeko>  (9) 
{"is_sidechain": [false], "free_energy": -4.514, "intermolecular_energy": -5.176, "internal_energy": -0.074}

$$$$
