3arv_ligand
     RDKit          3D

 39 44  0  0  0  0  0  0  0  0999 V2000
   14.8260   -9.2900   21.7480 C   0  0  0  0  0  0  0  0  0  0  0  0
   15.8300   -9.9260   20.8640 N   0  0  0  0  0  0  0  0  0  0  0  0
   15.3070  -10.6750   19.8680 C   0  0  0  0  0  0  0  0  0  0  0  0
   16.0620  -11.5750   19.1380 C   0  0  0  0  0  0  0  0  0  0  0  0
   15.4820  -12.3470   18.1330 C   0  0  0  0  0  0  0  0  0  0  0  0
   16.1950  -13.2750   17.4220 C   0  0  0  0  0  0  0  0  0  0  0  0
   17.5250  -13.4940   17.6730 C   0  0  0  0  0  0  0  0  0  0  0  0
   18.1310  -12.7290   18.6800 C   0  0  0  0  0  0  0  0  0  0  0  0
   17.4190  -11.7430   19.4420 C   0  0  0  0  0  0  0  0  0  0  0  0
   17.9780  -10.9100   20.4650 C   0  0  0  0  0  0  0  0  0  0  0  0
   19.3170  -11.0510   20.8650 C   0  0  0  0  0  0  0  0  0  0  0  0
   19.8950  -10.2290   21.8260 C   0  0  0  0  0  0  0  0  0  0  0  0
   19.1880   -9.1670   22.3740 C   0  0  0  0  0  0  0  0  0  0  0  0
   19.8710   -8.3250   23.2730 C   0  0  0  0  0  0  0  0  0  0  0  0
   19.2280   -7.2150   23.7560 C   0  0  0  0  0  0  0  0  0  0  0  0
   17.9590   -6.9170   23.3620 C   0  0  0  0  0  0  0  0  0  0  0  0
   17.2570   -7.7270   22.4900 C   0  0  0  0  0  0  0  0  0  0  0  0
   17.8270   -8.9390   21.9960 C   0  0  0  0  0  0  0  0  0  0  0  0
   17.1840   -9.9010   21.1170 C   0  0  0  0  0  0  0  0  0  0  0  0
   17.5020   -5.7570   23.9040 O   0  0  0  0  0  0  0  0  0  0  0  0
   18.6440   -5.3610   24.6990 C   0  0  0  0  0  0  0  0  0  0  0  0
   19.7430   -6.2920   24.6060 O   0  0  0  0  0  0  0  0  0  0  0  0
   15.4450  -13.9190   16.4940 O   0  0  0  0  0  0  0  0  0  0  0  0
   14.1630  -13.2920   16.6860 C   0  0  0  0  0  0  0  0  0  0  0  0
   14.1770  -12.2950   17.7360 O   0  0  0  0  0  0  0  0  0  0  0  0
   15.1003   -9.4638   22.7990 H   0  0  0  0  0  0  0  0  0  0  0  0
   14.7967   -8.2082   21.5508 H   0  0  0  0  0  0  0  0  0  0  0  0
   13.8354   -9.7257   21.5508 H   0  0  0  0  0  0  0  0  0  0  0  0
   14.2391  -10.5645   19.6286 H   0  0  0  0  0  0  0  0  0  0  0  0
   18.0962  -14.2429   17.1048 H   0  0  0  0  0  0  0  0  0  0  0  0
   19.1975  -12.8916   18.8950 H   0  0  0  0  0  0  0  0  0  0  0  0
   19.9294  -11.8388   20.4021 H   0  0  0  0  0  0  0  0  0  0  0  0
   20.9261  -10.4226   22.1566 H   0  0  0  0  0  0  0  0  0  0  0  0
   20.9016   -8.5540   23.5819 H   0  0  0  0  0  0  0  0  0  0  0  0
   16.2455   -7.4340   22.1722 H   0  0  0  0  0  0  0  0  0  0  0  0
   18.9884   -4.3756   24.3521 H   0  0  0  0  0  0  0  0  0  0  0  0
   18.3214   -5.3351   25.7503 H   0  0  0  0  0  0  0  0  0  0  0  0
   13.8646  -12.8069   15.7449 H   0  0  0  0  0  0  0  0  0  0  0  0
   13.4522  -14.0767   16.9842 H   0  0  0  0  0  0  0  0  0  0  0  0
  1  2  1  0
  2  3  2  0
  3  4  1  0
  4  5  2  0
  5  6  1  0
  6  7  2  0
  7  8  1  0
  8  9  2  0
  9 10  1  0
 10 11  2  0
 11 12  1  0
 12 13  2  0
 13 14  1  0
 14 15  2  0
 15 16  1  0
 16 17  2  0
 17 18  1  0
 18 19  2  0
 16 20  1  0
 20 21  1  0
 21 22  1  0
  6 23  1  0
 23 24  1  0
 24 25  1  0
 19  2  1  0
  9  4  1  0
 19 10  1  0
 25  5  1  0
 18 13  1  0
 22 15  1  0
  1 26  1  0
  1 27  1  0
  1 28  1  0
  3 29  1  0
  7 30  1  0
  8 31  1  0
 11 32  1  0
 12 33  1  0
 14 34  1  0
 17 35  1  0
 21 36  1  0
 21 37  1  0
 24 38  1  0
 24 39  1  0
M  CHG  1   2   1
M  END
>  <meeko>  (1) 
{"is_sidechain": [false], "free_energy": -10.785, "intermolecular_energy": -10.785, "internal_energy": 0.0}

$$$$
3arv_ligand
     RDKit          3D

 39 44  0  0  0  0  0  0  0  0999 V2000
   15.8020  -12.2490   17.7880 C   0  0  0  0  0  0  0  0  0  0  0  0
   15.9860  -11.6440   19.1270 N   0  0  0  0  0  0  0  0  0  0  0  0
   14.8430  -11.2330   19.7200 C   0  0  0  0  0  0  0  0  0  0  0  0
   14.8340  -10.3880   20.8140 C   0  0  0  0  0  0  0  0  0  0  0  0
   13.6340   -9.9680   21.3850 C   0  0  0  0  0  0  0  0  0  0  0  0
   13.5940   -9.0970   22.4430 C   0  0  0  0  0  0  0  0  0  0  0  0
   14.7440   -8.5910   22.9900 C   0  0  0  0  0  0  0  0  0  0  0  0
   15.9640   -9.0000   22.4320 C   0  0  0  0  0  0  0  0  0  0  0  0
   16.0480   -9.9130   21.3290 C   0  0  0  0  0  0  0  0  0  0  0  0
   17.2560  -10.3920   20.7270 C   0  0  0  0  0  0  0  0  0  0  0  0
   18.5130   -9.9260   21.1500 C   0  0  0  0  0  0  0  0  0  0  0  0
   19.7010  -10.4040   20.6100 C   0  0  0  0  0  0  0  0  0  0  0  0
   19.6990  -11.4350   19.6800 C   0  0  0  0  0  0  0  0  0  0  0  0
   20.9460  -11.9260   19.2490 C   0  0  0  0  0  0  0  0  0  0  0  0
   20.9750  -13.0060   18.4050 C   0  0  0  0  0  0  0  0  0  0  0  0
   19.8200  -13.6090   18.0040 C   0  0  0  0  0  0  0  0  0  0  0  0
   18.5800  -13.1460   18.4000 C   0  0  0  0  0  0  0  0  0  0  0  0
   18.4600  -11.9840   19.2210 C   0  0  0  0  0  0  0  0  0  0  0  0
   17.2230  -11.3660   19.6670 C   0  0  0  0  0  0  0  0  0  0  0  0
   20.0440  -14.6890   17.2110 O   0  0  0  0  0  0  0  0  0  0  0  0
   21.4900  -14.6910   17.1540 C   0  0  0  0  0  0  0  0  0  0  0  0
   22.0820  -13.6160   17.9150 O   0  0  0  0  0  0  0  0  0  0  0  0
   12.3300   -8.8150   22.8450 O   0  0  0  0  0  0  0  0  0  0  0  0
   11.5590   -9.6100   21.9260 C   0  0  0  0  0  0  0  0  0  0  0  0
   12.3840  -10.3410   20.9850 O   0  0  0  0  0  0  0  0  0  0  0  0
   15.4836  -13.2960   17.8993 H   0  0  0  0  0  0  0  0  0  0  0  0
   15.0336  -11.6889   17.2350 H   0  0  0  0  0  0  0  0  0  0  0  0
   16.7522  -12.2115   17.2350 H   0  0  0  0  0  0  0  0  0  0  0  0
   13.8822  -11.5848   19.3162 H   0  0  0  0  0  0  0  0  0  0  0  0
   14.7115   -7.8892   23.8364 H   0  0  0  0  0  0  0  0  0  0  0  0
   16.8970   -8.6033   22.8588 H   0  0  0  0  0  0  0  0  0  0  0  0
   18.5578   -9.1569   21.9351 H   0  0  0  0  0  0  0  0  0  0  0  0
   20.6568   -9.9591   20.9239 H   0  0  0  0  0  0  0  0  0  0  0  0
   21.8804  -11.4516   19.5834 H   0  0  0  0  0  0  0  0  0  0  0  0
   17.6733  -13.6795   18.0786 H   0  0  0  0  0  0  0  0  0  0  0  0
   21.8561  -15.6479   17.5543 H   0  0  0  0  0  0  0  0  0  0  0  0
   21.7799  -14.5507   16.1022 H   0  0  0  0  0  0  0  0  0  0  0  0
   10.9602  -10.3309   22.5020 H   0  0  0  0  0  0  0  0  0  0  0  0
   10.9250   -8.9232   21.3460 H   0  0  0  0  0  0  0  0  0  0  0  0
  1  2  1  0
  2  3  2  0
  3  4  1  0
  4  5  2  0
  5  6  1  0
  6  7  2  0
  7  8  1  0
  8  9  2  0
  9 10  1  0
 10 11  2  0
 11 12  1  0
 12 13  2  0
 13 14  1  0
 14 15  2  0
 15 16  1  0
 16 17  2  0
 17 18  1  0
 18 19  2  0
 16 20  1  0
 20 21  1  0
 21 22  1  0
  6 23  1  0
 23 24  1  0
 24 25  1  0
 19  2  1  0
  9  4  1  0
 19 10  1  0
 25  5  1  0
 18 13  1  0
 22 15  1  0
  1 26  1  0
  1 27  1  0
  1 28  1  0
  3 29  1  0
  7 30  1  0
  8 31  1  0
 11 32  1  0
 12 33  1  0
 14 34  1  0
 17 35  1  0
 21 36  1  0
 21 37  1  0
 24 38  1  0
 24 39  1  0
M  CHG  1   2   1
M  END
>  <meeko>  (2) 
{"is_sidechain": [false], "free_energy": -10.634, "intermolecular_energy": -10.634, "internal_energy": 0.0}

$$$$
3arv_ligand
     RDKit          3D

 39 44  0  0  0  0  0  0  0  0999 V2000
   20.6140  -11.0440   20.1470 C   0  0  0  0  0  0  0  0  0  0  0  0
   19.1430  -11.2090   20.1190 N   0  0  0  0  0  0  0  0  0  0  0  0
   18.6970  -12.1330   19.2390 C   0  0  0  0  0  0  0  0  0  0  0  0
   17.3710  -12.2170   18.8550 C   0  0  0  0  0  0  0  0  0  0  0  0
   16.9530  -13.1680   17.9270 C   0  0  0  0  0  0  0  0  0  0  0  0
   15.6550  -13.2470   17.4970 C   0  0  0  0  0  0  0  0  0  0  0  0
   14.6990  -12.3820   17.9610 C   0  0  0  0  0  0  0  0  0  0  0  0
   15.0950  -11.4150   18.8960 C   0  0  0  0  0  0  0  0  0  0  0  0
   16.4430  -11.3040   19.3750 C   0  0  0  0  0  0  0  0  0  0  0  0
   16.9130  -10.3600   20.3450 C   0  0  0  0  0  0  0  0  0  0  0  0
   16.0590   -9.3790   20.8760 C   0  0  0  0  0  0  0  0  0  0  0  0
   16.4790   -8.4770   21.8480 C   0  0  0  0  0  0  0  0  0  0  0  0
   17.7490   -8.5660   22.4020 C   0  0  0  0  0  0  0  0  0  0  0  0
   18.0680   -7.6760   23.4450 C   0  0  0  0  0  0  0  0  0  0  0  0
   19.2790   -7.8020   24.0740 C   0  0  0  0  0  0  0  0  0  0  0  0
   20.1540   -8.7830   23.7140 C   0  0  0  0  0  0  0  0  0  0  0  0
   19.8760   -9.6660   22.6880 C   0  0  0  0  0  0  0  0  0  0  0  0
   18.6680   -9.5580   21.9350 C   0  0  0  0  0  0  0  0  0  0  0  0
   18.2770  -10.3860   20.8070 C   0  0  0  0  0  0  0  0  0  0  0  0
   21.2780   -8.7870   24.4770 O   0  0  0  0  0  0  0  0  0  0  0  0
   21.0080   -7.6760   25.3650 C   0  0  0  0  0  0  0  0  0  0  0  0
   19.7340   -7.0480   25.1050 O   0  0  0  0  0  0  0  0  0  0  0  0
   15.4580  -14.2400   16.5930 O   0  0  0  0  0  0  0  0  0  0  0  0
   16.7830  -14.7950   16.4940 C   0  0  0  0  0  0  0  0  0  0  0  0
   17.7440  -14.1110   17.3350 O   0  0  0  0  0  0  0  0  0  0  0  0
   20.9588  -11.0053   21.1908 H   0  0  0  0  0  0  0  0  0  0  0  0
   21.0882  -11.8946   19.6355 H   0  0  0  0  0  0  0  0  0  0  0  0
   20.8879  -10.1095   19.6355 H   0  0  0  0  0  0  0  0  0  0  0  0
   19.4171  -12.8462   18.8114 H   0  0  0  0  0  0  0  0  0  0  0  0
   13.6576  -12.4440   17.6123 H   0  0  0  0  0  0  0  0  0  0  0  0
   14.3404  -10.7119   19.2784 H   0  0  0  0  0  0  0  0  0  0  0  0
   15.0230   -9.3223   20.5107 H   0  0  0  0  0  0  0  0  0  0  0  0
   15.7957   -7.6824   22.1823 H   0  0  0  0  0  0  0  0  0  0  0  0
   17.3578   -6.8932   23.7497 H   0  0  0  0  0  0  0  0  0  0  0  0
   20.5953  -10.4629   22.4483 H   0  0  0  0  0  0  0  0  0  0  0  0
   21.0128   -8.0452   26.4012 H   0  0  0  0  0  0  0  0  0  0  0  0
   21.7897   -6.9206   25.1971 H   0  0  0  0  0  0  0  0  0  0  0  0
   16.7440  -15.8526   16.7938 H   0  0  0  0  0  0  0  0  0  0  0  0
   17.1135  -14.6775   15.4514 H   0  0  0  0  0  0  0  0  0  0  0  0
  1  2  1  0
  2  3  2  0
  3  4  1  0
  4  5  2  0
  5  6  1  0
  6  7  2  0
  7  8  1  0
  8  9  2  0
  9 10  1  0
 10 11  2  0
 11 12  1  0
 12 13  2  0
 13 14  1  0
 14 15  2  0
 15 16  1  0
 16 17  2  0
 17 18  1  0
 18 19  2  0
 16 20  1  0
 20 21  1  0
 21 22  1  0
  6 23  1  0
 23 24  1  0
 24 25  1  0
 19  2  1  0
  9  4  1  0
 19 10  1  0
 25  5  1  0
 18 13  1  0
 22 15  1  0
  1 26  1  0
  1 27  1  0
  1 28  1  0
  3 29  1  0
  7 30  1  0
  8 31  1  0
 11 32  1  0
 12 33  1  0
 14 34  1  0
 17 35  1  0
 21 36  1  0
 21 37  1  0
 24 38  1  0
 24 39  1  0
M  CHG  1   2   1
M  END
>  <meeko>  (3) 
{"is_sidechain": [false], "free_energy": -10.601, "intermolecular_energy": -10.601, "internal_energy": 0.0}

$$$$
3arv_ligand
     RDKit          3D

 39 44  0  0  0  0  0  0  0  0999 V2000
   15.2430   -8.8670   21.2450 C   0  0  0  0  0  0  0  0  0  0  0  0
   16.5700   -9.2940   21.7420 N   0  0  0  0  0  0  0  0  0  0  0  0
   16.9310   -8.7480   22.9240 C   0  0  0  0  0  0  0  0  0  0  0  0
   18.2300   -8.7840   23.3960 C   0  0  0  0  0  0  0  0  0  0  0  0
   18.5680   -8.1900   24.6100 C   0  0  0  0  0  0  0  0  0  0  0  0
   19.8540   -8.1730   25.0820 C   0  0  0  0  0  0  0  0  0  0  0  0
   20.8790   -8.7420   24.3710 C   0  0  0  0  0  0  0  0  0  0  0  0
   20.5640   -9.3470   23.1460 C   0  0  0  0  0  0  0  0  0  0  0  0
   19.2290   -9.3890   22.6210 C   0  0  0  0  0  0  0  0  0  0  0  0
   18.8310  -10.0100   21.3930 C   0  0  0  0  0  0  0  0  0  0  0  0
   19.7770  -10.5930   20.5340 C   0  0  0  0  0  0  0  0  0  0  0  0
   19.4130  -11.2360   19.3560 C   0  0  0  0  0  0  0  0  0  0  0  0
   18.0770  -11.4060   19.0200 C   0  0  0  0  0  0  0  0  0  0  0  0
   17.7870  -12.1480   17.8590 C   0  0  0  0  0  0  0  0  0  0  0  0
   16.4770  -12.4120   17.5540 C   0  0  0  0  0  0  0  0  0  0  0  0
   15.4710  -11.9840   18.3670 C   0  0  0  0  0  0  0  0  0  0  0  0
   15.7200  -11.2450   19.5080 C   0  0  0  0  0  0  0  0  0  0  0  0
   17.0510  -10.8660   19.8590 C   0  0  0  0  0  0  0  0  0  0  0  0
   17.4470  -10.0550   20.9980 C   0  0  0  0  0  0  0  0  0  0  0  0
   14.2450  -12.3780   17.9340 O   0  0  0  0  0  0  0  0  0  0  0  0
   14.6010  -13.1070   16.7360 C   0  0  0  0  0  0  0  0  0  0  0  0
   16.0250  -13.1260   16.4940 O   0  0  0  0  0  0  0  0  0  0  0  0
   19.9690   -7.5440   26.2780 O   0  0  0  0  0  0  0  0  0  0  0  0
   18.6030   -7.1610   26.5250 C   0  0  0  0  0  0  0  0  0  0  0  0
   17.7060   -7.5610   25.4610 O   0  0  0  0  0  0  0  0  0  0  0  0
   14.5827   -8.6545   22.0987 H   0  0  0  0  0  0  0  0  0  0  0  0
   15.3551   -7.9596   20.6334 H   0  0  0  0  0  0  0  0  0  0  0  0
   14.8049   -9.6695   20.6334 H   0  0  0  0  0  0  0  0  0  0  0  0
   16.1606   -8.2551   23.5352 H   0  0  0  0  0  0  0  0  0  0  0  0
   21.9121   -8.7245   24.7484 H   0  0  0  0  0  0  0  0  0  0  0  0
   21.3742   -9.8089   22.5628 H   0  0  0  0  0  0  0  0  0  0  0  0
   20.8424  -10.5391   20.8023 H   0  0  0  0  0  0  0  0  0  0  0  0
   20.1945  -11.6151   18.6811 H   0  0  0  0  0  0  0  0  0  0  0  0
   18.5971  -12.5093   17.2085 H   0  0  0  0  0  0  0  0  0  0  0  0
   14.8818  -10.9449   20.1541 H   0  0  0  0  0  0  0  0  0  0  0  0
   14.2480  -14.1439   16.8377 H   0  0  0  0  0  0  0  0  0  0  0  0
   14.1274  -12.5961   15.8847 H   0  0  0  0  0  0  0  0  0  0  0  0
   18.2698   -7.6326   27.4613 H   0  0  0  0  0  0  0  0  0  0  0  0
   18.5734   -6.0632   26.5874 H   0  0  0  0  0  0  0  0  0  0  0  0
  1  2  1  0
  2  3  2  0
  3  4  1  0
  4  5  2  0
  5  6  1  0
  6  7  2  0
  7  8  1  0
  8  9  2  0
  9 10  1  0
 10 11  2  0
 11 12  1  0
 12 13  2  0
 13 14  1  0
 14 15  2  0
 15 16  1  0
 16 17  2  0
 17 18  1  0
 18 19  2  0
 16 20  1  0
 20 21  1  0
 21 22  1  0
  6 23  1  0
 23 24  1  0
 24 25  1  0
 19  2  1  0
  9  4  1  0
 19 10  1  0
 25  5  1  0
 18 13  1  0
 22 15  1  0
  1 26  1  0
  1 27  1  0
  1 28  1  0
  3 29  1  0
  7 30  1  0
  8 31  1  0
 11 32  1  0
 12 33  1  0
 14 34  1  0
 17 35  1  0
 21 36  1  0
 21 37  1  0
 24 38  1  0
 24 39  1  0
M  CHG  1   2   1
M  END
>  <meeko>  (4) 
{"is_sidechain": [false], "free_energy": -10.551, "intermolecular_energy": -10.551, "internal_energy": 0.0}

$$$$
3arv_ligand
     RDKit          3D

 39 44  0  0  0  0  0  0  0  0999 V2000
   13.0400  -10.9910   20.9380 C   0  0  0  0  0  0  0  0  0  0  0  0
   14.4350  -10.6110   20.6200 N   0  0  0  0  0  0  0  0  0  0  0  0
   14.9780  -11.2800   19.5790 C   0  0  0  0  0  0  0  0  0  0  0  0
   16.3370  -11.2860   19.3240 C   0  0  0  0  0  0  0  0  0  0  0  0
   16.8610  -12.0080   18.2530 C   0  0  0  0  0  0  0  0  0  0  0  0
   18.2070  -12.0670   18.0020 C   0  0  0  0  0  0  0  0  0  0  0  0
   19.1080  -11.4160   18.8030 C   0  0  0  0  0  0  0  0  0  0  0  0
   18.6040  -10.6820   19.8870 C   0  0  0  0  0  0  0  0  0  0  0  0
   17.2020  -10.5920   20.1800 C   0  0  0  0  0  0  0  0  0  0  0  0
   16.6160   -9.8440   21.2520 C   0  0  0  0  0  0  0  0  0  0  0  0
   17.4160   -9.1630   22.1840 C   0  0  0  0  0  0  0  0  0  0  0  0
   16.8720   -8.3970   23.2090 C   0  0  0  0  0  0  0  0  0  0  0  0
   15.5010   -8.2020   23.3030 C   0  0  0  0  0  0  0  0  0  0  0  0
   15.0340   -7.3390   24.3130 C   0  0  0  0  0  0  0  0  0  0  0  0
   13.6940   -7.0530   24.3700 C   0  0  0  0  0  0  0  0  0  0  0  0
   12.8300   -7.5760   23.4560 C   0  0  0  0  0  0  0  0  0  0  0  0
   13.2540   -8.4330   22.4590 C   0  0  0  0  0  0  0  0  0  0  0  0
   14.6200   -8.8380   22.3720 C   0  0  0  0  0  0  0  0  0  0  0  0
   15.1870   -9.7660   21.4090 C   0  0  0  0  0  0  0  0  0  0  0  0
   11.5540   -7.1460   23.6380 O   0  0  0  0  0  0  0  0  0  0  0  0
   11.7180   -6.2870   24.7910 C   0  0  0  0  0  0  0  0  0  0  0  0
   13.0830   -6.2310   25.2580 O   0  0  0  0  0  0  0  0  0  0  0  0
   18.5080  -12.8220   16.9160 O   0  0  0  0  0  0  0  0  0  0  0  0
   17.1970  -13.2400   16.4940 C   0  0  0  0  0  0  0  0  0  0  0  0
   16.1420  -12.7330   17.3470 O   0  0  0  0  0  0  0  0  0  0  0  0
   12.9094  -11.0266   22.0296 H   0  0  0  0  0  0  0  0  0  0  0  0
   12.3510  -10.2478   20.5103 H   0  0  0  0  0  0  0  0  0  0  0  0
   12.8231  -11.9810   20.5103 H   0  0  0  0  0  0  0  0  0  0  0  0
   14.3123  -11.8423   18.9077 H   0  0  0  0  0  0  0  0  0  0  0  0
   20.1885  -11.4671   18.6031 H   0  0  0  0  0  0  0  0  0  0  0  0
   19.3135  -10.1529   20.5402 H   0  0  0  0  0  0  0  0  0  0  0  0
   18.5102   -9.2382   22.1002 H   0  0  0  0  0  0  0  0  0  0  0  0
   17.5374   -7.9392   23.9558 H   0  0  0  0  0  0  0  0  0  0  0  0
   15.7314   -6.9022   25.0430 H   0  0  0  0  0  0  0  0  0  0  0  0
   12.5289   -8.8085   21.7219 H   0  0  0  0  0  0  0  0  0  0  0  0
   11.3974   -5.2702   24.5201 H   0  0  0  0  0  0  0  0  0  0  0  0
   11.1068   -6.7048   25.6045 H   0  0  0  0  0  0  0  0  0  0  0  0
   17.0255  -12.8767   15.4700 H   0  0  0  0  0  0  0  0  0  0  0  0
   17.1670  -14.3382   16.5492 H   0  0  0  0  0  0  0  0  0  0  0  0
  1  2  1  0
  2  3  2  0
  3  4  1  0
  4  5  2  0
  5  6  1  0
  6  7  2  0
  7  8  1  0
  8  9  2  0
  9 10  1  0
 10 11  2  0
 11 12  1  0
 12 13  2  0
 13 14  1  0
 14 15  2  0
 15 16  1  0
 16 17  2  0
 17 18  1  0
 18 19  2  0
 16 20  1  0
 20 21  1  0
 21 22  1  0
  6 23  1  0
 23 24  1  0
 24 25  1  0
 19  2  1  0
  9  4  1  0
 19 10  1  0
 25  5  1  0
 18 13  1  0
 22 15  1  0
  1 26  1  0
  1 27  1  0
  1 28  1  0
  3 29  1  0
  7 30  1  0
  8 31  1  0
 11 32  1  0
 12 33  1  0
 14 34  1  0
 17 35  1  0
 21 36  1  0
 21 37  1  0
 24 38  1  0
 24 39  1  0
M  CHG  1   2   1
M  END
>  <meeko>  (5) 
{"is_sidechain": [false], "free_energy": -10.55, "intermolecular_energy": -10.55, "internal_energy": 0.0}

$$$$
3arv_ligand
     RDKit          3D

 39 44  0  0  0  0  0  0  0  0999 V2000
   19.0210   -7.8210   23.7930 C   0  0  0  0  0  0  0  0  0  0  0  0
   18.9860   -8.9640   22.8520 N   0  0  0  0  0  0  0  0  0  0  0  0
   20.1900   -9.5250   22.6040 C   0  0  0  0  0  0  0  0  0  0  0  0
   20.4060  -10.3890   21.5460 C   0  0  0  0  0  0  0  0  0  0  0  0
   21.6680  -10.9300   21.3080 C   0  0  0  0  0  0  0  0  0  0  0  0
   21.9200  -11.7540   20.2430 C   0  0  0  0  0  0  0  0  0  0  0  0
   20.9340  -12.0830   19.3510 C   0  0  0  0  0  0  0  0  0  0  0  0
   19.6550  -11.5510   19.5690 C   0  0  0  0  0  0  0  0  0  0  0  0
   19.3500  -10.6890   20.6740 C   0  0  0  0  0  0  0  0  0  0  0  0
   18.0650  -10.1310   20.9720 C   0  0  0  0  0  0  0  0  0  0  0  0
   16.9660  -10.3410   20.1220 C   0  0  0  0  0  0  0  0  0  0  0  0
   15.7000   -9.8440   20.4080 C   0  0  0  0  0  0  0  0  0  0  0  0
   15.4460   -9.1850   21.6040 C   0  0  0  0  0  0  0  0  0  0  0  0
   14.1190   -8.7930   21.8610 C   0  0  0  0  0  0  0  0  0  0  0  0
   13.8220   -8.2260   23.0740 C   0  0  0  0  0  0  0  0  0  0  0  0
   14.7860   -8.0610   24.0220 C   0  0  0  0  0  0  0  0  0  0  0  0
   16.0990   -8.4250   23.7980 C   0  0  0  0  0  0  0  0  0  0  0  0
   16.5070   -8.9570   22.5370 C   0  0  0  0  0  0  0  0  0  0  0  0
   17.8570   -9.3340   22.1540 C   0  0  0  0  0  0  0  0  0  0  0  0
   14.2990   -7.5290   25.1740 O   0  0  0  0  0  0  0  0  0  0  0  0
   12.9020   -7.3710   24.8330 C   0  0  0  0  0  0  0  0  0  0  0  0
   12.5990   -7.8130   23.4920 O   0  0  0  0  0  0  0  0  0  0  0  0
   23.2100  -12.1690   20.1930 O   0  0  0  0  0  0  0  0  0  0  0  0
   23.7600  -11.5190   21.3540 C   0  0  0  0  0  0  0  0  0  0  0  0
   22.7840  -10.7190   22.0650 O   0  0  0  0  0  0  0  0  0  0  0  0
   19.0095   -8.1967   24.8268 H   0  0  0  0  0  0  0  0  0  0  0  0
   19.9375   -7.2362   23.6256 H   0  0  0  0  0  0  0  0  0  0  0  0
   18.1420   -7.1812   23.6256 H   0  0  0  0  0  0  0  0  0  0  0  0
   21.0318   -9.2849   23.2701 H   0  0  0  0  0  0  0  0  0  0  0  0
   21.1383  -12.7414   18.4938 H   0  0  0  0  0  0  0  0  0  0  0  0
   18.8513  -11.8056   18.8624 H   0  0  0  0  0  0  0  0  0  0  0  0
   17.1128  -10.9191   19.1977 H   0  0  0  0  0  0  0  0  0  0  0  0
   14.8882   -9.9743   19.6773 H   0  0  0  0  0  0  0  0  0  0  0  0
   13.3349   -8.9386   21.1034 H   0  0  0  0  0  0  0  0  0  0  0  0
   16.8405   -8.3036   24.6014 H   0  0  0  0  0  0  0  0  0  0  0  0
   12.2989   -7.9583   25.5411 H   0  0  0  0  0  0  0  0  0  0  0  0
   12.6672   -6.2978   24.8886 H   0  0  0  0  0  0  0  0  0  0  0  0
   24.1479  -12.2890   22.0371 H   0  0  0  0  0  0  0  0  0  0  0  0
   24.5549  -10.8416   21.0087 H   0  0  0  0  0  0  0  0  0  0  0  0
  1  2  1  0
  2  3  2  0
  3  4  1  0
  4  5  2  0
  5  6  1  0
  6  7  2  0
  7  8  1  0
  8  9  2  0
  9 10  1  0
 10 11  2  0
 11 12  1  0
 12 13  2  0
 13 14  1  0
 14 15  2  0
 15 16  1  0
 16 17  2  0
 17 18  1  0
 18 19  2  0
 16 20  1  0
 20 21  1  0
 21 22  1  0
  6 23  1  0
 23 24  1  0
 24 25  1  0
 19  2  1  0
  9  4  1  0
 19 10  1  0
 25  5  1  0
 18 13  1  0
 22 15  1  0
  1 26  1  0
  1 27  1  0
  1 28  1  0
  3 29  1  0
  7 30  1  0
  8 31  1  0
 11 32  1  0
 12 33  1  0
 14 34  1  0
 17 35  1  0
 21 36  1  0
 21 37  1  0
 24 38  1  0
 24 39  1  0
M  CHG  1   2   1
M  END
>  <meeko>  (6) 
{"is_sidechain": [false], "free_energy": -10.337, "intermolecular_energy": -10.337, "internal_energy": 0.0}

$$$$
3arv_ligand
     RDKit          3D

 39 44  0  0  0  0  0  0  0  0999 V2000
   19.3430   -7.7810   23.6580 C   0  0  0  0  0  0  0  0  0  0  0  0
   18.6710   -8.7880   22.8050 N   0  0  0  0  0  0  0  0  0  0  0  0
   19.5050   -9.5070   22.0210 C   0  0  0  0  0  0  0  0  0  0  0  0
   19.0550  -10.2680   20.9570 C   0  0  0  0  0  0  0  0  0  0  0  0
   19.9480  -10.9790   20.1580 C   0  0  0  0  0  0  0  0  0  0  0  0
   19.5370  -11.7060   19.0720 C   0  0  0  0  0  0  0  0  0  0  0  0
   18.2140  -11.7640   18.7160 C   0  0  0  0  0  0  0  0  0  0  0  0
   17.2960  -11.0570   19.5060 C   0  0  0  0  0  0  0  0  0  0  0  0
   17.6880  -10.2890   20.6530 C   0  0  0  0  0  0  0  0  0  0  0  0
   16.8050   -9.5640   21.5180 C   0  0  0  0  0  0  0  0  0  0  0  0
   15.4270   -9.4930   21.2540 C   0  0  0  0  0  0  0  0  0  0  0  0
   14.5430   -8.8300   22.0980 C   0  0  0  0  0  0  0  0  0  0  0  0
   14.9780   -8.2790   23.2950 C   0  0  0  0  0  0  0  0  0  0  0  0
   14.0080   -7.7060   24.1390 C   0  0  0  0  0  0  0  0  0  0  0  0
   14.3940   -7.2390   25.3690 C   0  0  0  0  0  0  0  0  0  0  0  0
   15.6890   -7.3450   25.7800 C   0  0  0  0  0  0  0  0  0  0  0  0
   16.6680   -7.8930   24.9730 C   0  0  0  0  0  0  0  0  0  0  0  0
   16.3630   -8.3370   23.6510 C   0  0  0  0  0  0  0  0  0  0  0  0
   17.3010   -8.8850   22.6860 C   0  0  0  0  0  0  0  0  0  0  0  0
   15.8770   -6.8750   27.0410 O   0  0  0  0  0  0  0  0  0  0  0  0
   14.5340   -6.4510   27.3770 C   0  0  0  0  0  0  0  0  0  0  0  0
   13.5900   -6.6820   26.3080 O   0  0  0  0  0  0  0  0  0  0  0  0
   20.5610  -12.3190   18.4290 O   0  0  0  0  0  0  0  0  0  0  0  0
   21.6830  -11.9060   19.2310 C   0  0  0  0  0  0  0  0  0  0  0  0
   21.3010  -11.0430   20.3300 O   0  0  0  0  0  0  0  0  0  0  0  0
   19.1778   -8.0285   24.7170 H   0  0  0  0  0  0  0  0  0  0  0  0
   20.4222   -7.7818   23.4453 H   0  0  0  0  0  0  0  0  0  0  0  0
   18.9281   -6.7847   23.4453 H   0  0  0  0  0  0  0  0  0  0  0  0
   20.5833   -9.4862   22.2374 H   0  0  0  0  0  0  0  0  0  0  0  0
   17.8845  -12.3445   17.8417 H   0  0  0  0  0  0  0  0  0  0  0  0
   16.2305  -11.0927   19.2350 H   0  0  0  0  0  0  0  0  0  0  0  0
   15.0339   -9.9785   20.3486 H   0  0  0  0  0  0  0  0  0  0  0  0
   13.4843   -8.7410   21.8129 H   0  0  0  0  0  0  0  0  0  0  0  0
   12.9585   -7.6341   23.8173 H   0  0  0  0  0  0  0  0  0  0  0  0
   17.6954   -7.9883   25.3543 H   0  0  0  0  0  0  0  0  0  0  0  0
   14.2017   -7.0076   28.2657 H   0  0  0  0  0  0  0  0  0  0  0  0
   14.5656   -5.3672   27.5625 H   0  0  0  0  0  0  0  0  0  0  0  0
   22.1704  -12.8026   19.6414 H   0  0  0  0  0  0  0  0  0  0  0  0
   22.3613  -11.3336   18.5812 H   0  0  0  0  0  0  0  0  0  0  0  0
  1  2  1  0
  2  3  2  0
  3  4  1  0
  4  5  2  0
  5  6  1  0
  6  7  2  0
  7  8  1  0
  8  9  2  0
  9 10  1  0
 10 11  2  0
 11 12  1  0
 12 13  2  0
 13 14  1  0
 14 15  2  0
 15 16  1  0
 16 17  2  0
 17 18  1  0
 18 19  2  0
 16 20  1  0
 20 21  1  0
 21 22  1  0
  6 23  1  0
 23 24  1  0
 24 25  1  0
 19  2  1  0
  9  4  1  0
 19 10  1  0
 25  5  1  0
 18 13  1  0
 22 15  1  0
  1 26  1  0
  1 27  1  0
  1 28  1  0
  3 29  1  0
  7 30  1  0
  8 31  1  0
 11 32  1  0
 12 33  1  0
 14 34  1  0
 17 35  1  0
 21 36  1  0
 21 37  1  0
 24 38  1  0
 24 39  1  0
M  CHG  1   2   1
M  END
>  <meeko>  (7) 
{"is_sidechain": [false], "free_energy": -10.329, "intermolecular_energy": -10.329, "internal_energy": 0.0}

$$$$
3arv_ligand
     RDKit          3D

 39 44  0  0  0  0  0  0  0  0999 V2000
   12.8230   -8.7010   21.5510 C   0  0  0  0  0  0  0  0  0  0  0  0
   13.9500   -8.7000   22.5120 N   0  0  0  0  0  0  0  0  0  0  0  0
   13.6740   -8.1190   23.7010 C   0  0  0  0  0  0  0  0  0  0  0  0
   14.6610   -7.7560   24.5990 C   0  0  0  0  0  0  0  0  0  0  0  0
   14.3390   -7.1380   25.8060 C   0  0  0  0  0  0  0  0  0  0  0  0
   15.2980   -6.7290   26.6950 C   0  0  0  0  0  0  0  0  0  0  0  0
   16.6320   -6.9060   26.4330 C   0  0  0  0  0  0  0  0  0  0  0  0
   16.9810   -7.5260   25.2250 C   0  0  0  0  0  0  0  0  0  0  0  0
   16.0060   -7.9730   24.2710 C   0  0  0  0  0  0  0  0  0  0  0  0
   16.2880   -8.6340   23.0320 C   0  0  0  0  0  0  0  0  0  0  0  0
   17.6110   -8.8430   22.6050 C   0  0  0  0  0  0  0  0  0  0  0  0
   17.9120   -9.5170   21.4270 C   0  0  0  0  0  0  0  0  0  0  0  0
   16.9090  -10.0930   20.6580 C   0  0  0  0  0  0  0  0  0  0  0  0
   17.3010  -10.8370   19.5290 C   0  0  0  0  0  0  0  0  0  0  0  0
   16.3400  -11.4950   18.8050 C   0  0  0  0  0  0  0  0  0  0  0  0
   15.0310  -11.4490   19.1800 C   0  0  0  0  0  0  0  0  0  0  0  0
   14.6120  -10.7200   20.2770 C   0  0  0  0  0  0  0  0  0  0  0  0
   15.5380   -9.9490   21.0420 C   0  0  0  0  0  0  0  0  0  0  0  0
   15.2250   -9.1050   22.1820 C   0  0  0  0  0  0  0  0  0  0  0  0
   14.2310  -12.1970   18.3770 O   0  0  0  0  0  0  0  0  0  0  0  0
   15.2000  -12.7200   17.4380 C   0  0  0  0  0  0  0  0  0  0  0  0
   16.5450  -12.2690   17.7110 O   0  0  0  0  0  0  0  0  0  0  0  0
   14.7750   -6.1500   27.8050 O   0  0  0  0  0  0  0  0  0  0  0  0
   13.3650   -6.2380   27.5280 C   0  0  0  0  0  0  0  0  0  0  0  0
   13.0800   -6.8590   26.2510 O   0  0  0  0  0  0  0  0  0  0  0  0
   11.8711   -8.7018   22.1022 H   0  0  0  0  0  0  0  0  0  0  0  0
   12.8797   -7.8028   20.9185 H   0  0  0  0  0  0  0  0  0  0  0  0
   12.8812   -9.5991   20.9185 H   0  0  0  0  0  0  0  0  0  0  0  0
   12.6233   -7.9275   23.9645 H   0  0  0  0  0  0  0  0  0  0  0  0
   17.4013   -6.5733   27.1454 H   0  0  0  0  0  0  0  0  0  0  0  0
   18.0469   -7.6763   24.9987 H   0  0  0  0  0  0  0  0  0  0  0  0
   18.4359   -8.4603   23.2239 H   0  0  0  0  0  0  0  0  0  0  0  0
   18.9591   -9.5952   21.0993 H   0  0  0  0  0  0  0  0  0  0  0  0
   18.3591  -10.8896   19.2329 H   0  0  0  0  0  0  0  0  0  0  0  0
   13.5503  -10.7342   20.5644 H   0  0  0  0  0  0  0  0  0  0  0  0
   15.1808  -13.8187   17.4887 H   0  0  0  0  0  0  0  0  0  0  0  0
   14.9242  -12.3523   16.4386 H   0  0  0  0  0  0  0  0  0  0  0  0
   12.8876   -6.8317   28.3215 H   0  0  0  0  0  0  0  0  0  0  0  0
   12.9707   -5.2118   27.4917 H   0  0  0  0  0  0  0  0  0  0  0  0
  1  2  1  0
  2  3  2  0
  3  4  1  0
  4  5  2  0
  5  6  1  0
  6  7  2  0
  7  8  1  0
  8  9  2  0
  9 10  1  0
 10 11  2  0
 11 12  1  0
 12 13  2  0
 13 14  1  0
 14 15  2  0
 15 16  1  0
 16 17  2  0
 17 18  1  0
 18 19  2  0
 16 20  1  0
 20 21  1  0
 21 22  1  0
  6 23  1  0
 23 24  1  0
 24 25  1  0
 19  2  1  0
  9  4  1  0
 19 10  1  0
 25  5  1  0
 18 13  1  0
 22 15  1  0
  1 26  1  0
  1 27  1  0
  1 28  1  0
  3 29  1  0
  7 30  1  0
  8 31  1  0
 11 32  1  0
 12 33  1  0
 14 34  1  0
 17 35  1  0
 21 36  1  0
 21 37  1  0
 24 38  1  0
 24 39  1  0
M  CHG  1   2   1
M  END
>  <meeko>  (8) 
{"is_sidechain": [false], "free_energy": -10.187, "intermolecular_energy": -10.187, "internal_energy": 0.0}

$$$$
3arv_ligand
     RDKit          3D

 39 44  0  0  0  0  0  0  0  0999 V2000
   17.8220   -9.1800   22.3290 C   0  0  0  0  0  0  0  0  0  0  0  0
   16.3730   -9.0240   22.0700 N   0  0  0  0  0  0  0  0  0  0  0  0
   15.7530   -8.1240   22.8660 C   0  0  0  0  0  0  0  0  0  0  0  0
   14.3770   -8.0560   22.9820 C   0  0  0  0  0  0  0  0  0  0  0  0
   13.7750   -7.1290   23.8310 C   0  0  0  0  0  0  0  0  0  0  0  0
   12.4170   -7.0670   23.9990 C   0  0  0  0  0  0  0  0  0  0  0  0
   11.5800   -7.9260   23.3360 C   0  0  0  0  0  0  0  0  0  0  0  0
   12.1620   -8.8680   22.4770 C   0  0  0  0  0  0  0  0  0  0  0  0
   13.5790   -8.9610   22.2700 C   0  0  0  0  0  0  0  0  0  0  0  0
   14.2390   -9.8790   21.3910 C   0  0  0  0  0  0  0  0  0  0  0  0
   13.5170  -10.8520   20.6800 C   0  0  0  0  0  0  0  0  0  0  0  0
   14.1280  -11.7280   19.7910 C   0  0  0  0  0  0  0  0  0  0  0  0
   15.4820  -11.6190   19.5000 C   0  0  0  0  0  0  0  0  0  0  0  0
   16.0080  -12.4830   18.5200 C   0  0  0  0  0  0  0  0  0  0  0  0
   17.3180  -12.3350   18.1450 C   0  0  0  0  0  0  0  0  0  0  0  0
   18.0950  -11.3580   18.6920 C   0  0  0  0  0  0  0  0  0  0  0  0
   17.6130  -10.5010   19.6620 C   0  0  0  0  0  0  0  0  0  0  0  0
   16.2810  -10.6340   20.1600 C   0  0  0  0  0  0  0  0  0  0  0  0
   15.6670   -9.8350   21.2070 C   0  0  0  0  0  0  0  0  0  0  0  0
   19.3480  -11.3310   18.1660 O   0  0  0  0  0  0  0  0  0  0  0  0
   19.2680  -12.4210   17.2170 C   0  0  0  0  0  0  0  0  0  0  0  0
   17.9750  -13.0620   17.2070 O   0  0  0  0  0  0  0  0  0  0  0  0
   12.0370   -6.0970   24.8680 O   0  0  0  0  0  0  0  0  0  0  0  0
   13.3100   -5.5380   25.2380 C   0  0  0  0  0  0  0  0  0  0  0  0
   14.4250   -6.1960   24.5880 O   0  0  0  0  0  0  0  0  0  0  0  0
   18.0005   -9.1992   23.4142 H   0  0  0  0  0  0  0  0  0  0  0  0
   18.1750  -10.1213   21.8826 H   0  0  0  0  0  0  0  0  0  0  0  0
   18.3673   -8.3354   21.8826 H   0  0  0  0  0  0  0  0  0  0  0  0
   16.3675   -7.4181   23.4440 H   0  0  0  0  0  0  0  0  0  0  0  0
   10.4897   -7.8778   23.4732 H   0  0  0  0  0  0  0  0  0  0  0  0
   11.5044   -9.5661   21.9383 H   0  0  0  0  0  0  0  0  0  0  0  0
   12.4299  -10.9229   20.8323 H   0  0  0  0  0  0  0  0  0  0  0  0
   13.5317  -12.5182   19.3114 H   0  0  0  0  0  0  0  0  0  0  0  0
   15.3793  -13.2620   18.0641 H   0  0  0  0  0  0  0  0  0  0  0  0
   18.2632   -9.7060   20.0560 H   0  0  0  0  0  0  0  0  0  0  0  0
   19.4720  -12.0262   16.2108 H   0  0  0  0  0  0  0  0  0  0  0  0
   20.0090  -13.1762   17.5179 H   0  0  0  0  0  0  0  0  0  0  0  0
   13.3201   -4.4737   24.9602 H   0  0  0  0  0  0  0  0  0  0  0  0
   13.4299   -5.6792   26.3223 H   0  0  0  0  0  0  0  0  0  0  0  0
  1  2  1  0
  2  3  2  0
  3  4  1  0
  4  5  2  0
  5  6  1  0
  6  7  2  0
  7  8  1  0
  8  9  2  0
  9 10  1  0
 10 11  2  0
 11 12  1  0
 12 13  2  0
 13 14  1  0
 14 15  2  0
 15 16  1  0
 16 17  2  0
 17 18  1  0
 18 19  2  0
 16 20  1  0
 20 21  1  0
 21 22  1  0
  6 23  1  0
 23 24  1  0
 24 25  1  0
 19  2  1  0
  9  4  1  0
 19 10  1  0
 25  5  1  0
 18 13  1  0
 22 15  1  0
  1 26  1  0
  1 27  1  0
  1 28  1  0
  3 29  1  0
  7 30  1  0
  8 31  1  0
 11 32  1  0
 12 33  1  0
 14 34  1  0
 17 35  1  0
 21 36  1  0
 21 37  1  0
 24 38  1  0
 24 39  1  0
M  CHG  1   2   1
M  END
>  <meeko>  (9) 
{"is_sidechain": [false], "free_energy": -10.183, "intermolecular_energy": -10.183, "internal_energy": 0.0}

$$$$
