4de2_ligand
     RDKit          3D

 43 45  0  0  0  0  0  0  0  0999 V2000
  -13.8390   58.1340   11.6810 C   0  0  0  0  0  0  0  0  0  0  0  0
  -13.0380   59.1850   12.4030 N   0  0  0  0  0  0  0  0  0  0  0  0
  -13.9180   60.2900   12.9110 C   0  0  0  0  0  0  0  0  0  0  0  0
  -11.8860   59.7240   11.5830 C   0  0  0  0  0  0  0  0  0  0  0  0
  -10.9660   58.6460   11.0770 C   0  0  0  0  0  0  0  0  0  0  0  0
  -10.7060   58.5030    9.7060 C   0  0  0  0  0  0  0  0  0  0  0  0
   -9.8050   57.5350    9.2540 C   0  0  0  0  0  0  0  0  0  0  0  0
   -9.1480   56.7010   10.1600 C   0  0  0  0  0  0  0  0  0  0  0  0
   -9.4080   56.8220   11.5290 C   0  0  0  0  0  0  0  0  0  0  0  0
   -8.7040   56.0020   12.5540 C   0  0  0  0  0  0  0  0  0  0  0  0
   -9.1840   55.9930   13.6820 O   0  0  0  0  0  0  0  0  0  0  0  0
   -7.5970   55.3120   12.1040 N   0  0  0  0  0  0  0  0  0  0  0  0
   -6.7320   54.4960   12.8660 C   0  0  0  0  0  0  0  0  0  0  0  0
   -7.1260   53.7850   14.0000 C   0  0  0  0  0  0  0  0  0  0  0  0
   -6.2040   53.0040   14.7020 C   0  0  0  0  0  0  0  0  0  0  0  0
   -4.8770   52.9300   14.2770 C   0  0  0  0  0  0  0  0  0  0  0  0
   -4.4570   53.6390   13.1450 C   0  0  0  0  0  0  0  0  0  0  0  0
   -3.0750   53.5740   12.6920 C   0  0  0  0  0  0  0  0  0  0  0  0
   -2.6980   53.8840   11.4030 N   0  0  0  0  0  0  0  0  0  0  0  0
   -1.3850   53.7210   11.3370 N   0  0  0  0  0  0  0  0  0  0  0  0
   -1.0320   53.3250   12.5650 N   0  0  0  0  0  0  0  0  0  0  0  0
   -2.0290   53.2120   13.4550 N   0  0  0  0  0  0  0  0  0  0  0  0
   -5.3950   54.4190   12.4490 C   0  0  0  0  0  0  0  0  0  0  0  0
  -10.3140   57.7930   11.9790 C   0  0  0  0  0  0  0  0  0  0  0  0
  -14.3355   57.4826   12.4153 H   0  0  0  0  0  0  0  0  0  0  0  0
  -14.5977   58.6202   11.0501 H   0  0  0  0  0  0  0  0  0  0  0  0
  -13.1690   57.5314   11.0501 H   0  0  0  0  0  0  0  0  0  0  0  0
  -12.6220   58.7240   13.2230 H   0  0  0  0  0  0  0  0  0  0  0  0
  -13.9143   60.2854   14.0110 H   0  0  0  0  0  0  0  0  0  0  0  0
  -13.5397   61.2567   12.5471 H   0  0  0  0  0  0  0  0  0  0  0  0
  -14.9448   60.1377   12.5471 H   0  0  0  0  0  0  0  0  0  0  0  0
  -12.2956   60.2684   10.7194 H   0  0  0  0  0  0  0  0  0  0  0  0
  -11.2941   60.3786   12.2397 H   0  0  0  0  0  0  0  0  0  0  0  0
  -11.2145   59.1568    8.9821 H   0  0  0  0  0  0  0  0  0  0  0  0
   -9.6122   57.4296    8.1762 H   0  0  0  0  0  0  0  0  0  0  0  0
   -8.4285   55.9514    9.7988 H   0  0  0  0  0  0  0  0  0  0  0  0
   -7.4050   55.3310   11.1100 H   0  0  0  0  0  0  0  0  0  0  0  0
   -8.1695   53.8396   14.3438 H   0  0  0  0  0  0  0  0  0  0  0  0
   -6.5257   52.4453   15.5933 H   0  0  0  0  0  0  0  0  0  0  0  0
   -4.1575   52.3118   14.8339 H   0  0  0  0  0  0  0  0  0  0  0  0
   -0.0650   53.1220   12.8030 H   0  0  0  0  0  0  0  0  0  0  0  0
   -5.0747   54.9807   11.5591 H   0  0  0  0  0  0  0  0  0  0  0  0
  -10.5164   57.8870   13.0561 H   0  0  0  0  0  0  0  0  0  0  0  0
  1  2  1  0
  2  3  1  0
  2  4  1  0
  4  5  1  0
  5  6  2  0
  6  7  1  0
  7  8  2  0
  8  9  1  0
  9 10  1  0
 10 11  2  0
 10 12  1  0
 12 13  1  0
 13 14  2  0
 14 15  1  0
 15 16  2  0
 16 17  1  0
 17 18  1  0
 18 19  1  0
 19 20  2  0
 20 21  1  0
 21 22  1  0
 17 23  2  0
  9 24  2  0
 24  5  1  0
 23 13  1  0
 22 18  2  0
  1 25  1  0
  1 26  1  0
  1 27  1  0
  2 28  1  0
  3 29  1  0
  3 30  1  0
  3 31  1  0
  4 32  1  0
  4 33  1  0
  6 34  1  0
  7 35  1  0
  8 36  1  0
 12 37  1  0
 14 38  1  0
 15 39  1  0
 16 40  1  0
 21 41  1  0
 23 42  1  0
 24 43  1  0
M  CHG  1   2   1
M  END
>  <meeko>  (1) 
{"is_sidechain": [false], "free_energy": -8.289, "intermolecular_energy": -10.712, "internal_energy": -0.264}

$$$$
4de2_ligand
     RDKit          3D

 43 45  0  0  0  0  0  0  0  0999 V2000
  -10.9270   56.0970    5.3180 C   0  0  0  0  0  0  0  0  0  0  0  0
  -10.2620   56.4910    6.6090 N   0  0  0  0  0  0  0  0  0  0  0  0
   -8.7670   56.5060    6.4720 C   0  0  0  0  0  0  0  0  0  0  0  0
  -10.7030   55.6520    7.7890 C   0  0  0  0  0  0  0  0  0  0  0  0
  -10.6040   56.3810    9.1020 C   0  0  0  0  0  0  0  0  0  0  0  0
  -11.3390   57.5520    9.3370 C   0  0  0  0  0  0  0  0  0  0  0  0
  -11.2820   58.1860   10.5800 C   0  0  0  0  0  0  0  0  0  0  0  0
  -10.4960   57.6600   11.6080 C   0  0  0  0  0  0  0  0  0  0  0  0
   -9.7460   56.5020   11.3840 C   0  0  0  0  0  0  0  0  0  0  0  0
   -8.9290   55.8590   12.4510 C   0  0  0  0  0  0  0  0  0  0  0  0
   -9.2560   56.0830   13.6110 O   0  0  0  0  0  0  0  0  0  0  0  0
   -7.9050   55.0480   12.0060 N   0  0  0  0  0  0  0  0  0  0  0  0
   -6.9630   54.3520   12.7960 C   0  0  0  0  0  0  0  0  0  0  0  0
   -7.2690   53.7240   14.0040 C   0  0  0  0  0  0  0  0  0  0  0  0
   -6.2750   53.0610   14.7280 C   0  0  0  0  0  0  0  0  0  0  0  0
   -4.9640   53.0210   14.2510 C   0  0  0  0  0  0  0  0  0  0  0  0
   -4.6330   53.6480   13.0440 C   0  0  0  0  0  0  0  0  0  0  0  0
   -3.2690   53.6190   12.5350 C   0  0  0  0  0  0  0  0  0  0  0  0
   -2.1680   53.8080   13.3430 N   0  0  0  0  0  0  0  0  0  0  0  0
   -1.1000   53.7180   12.5640 N   0  0  0  0  0  0  0  0  0  0  0  0
   -1.5920   53.4830   11.3430 N   0  0  0  0  0  0  0  0  0  0  0  0
   -2.9290   53.4110   11.2510 N   0  0  0  0  0  0  0  0  0  0  0  0
   -5.6420   54.3110   12.3260 C   0  0  0  0  0  0  0  0  0  0  0  0
   -9.8040   55.8680   10.1340 C   0  0  0  0  0  0  0  0  0  0  0  0
  -11.8546   55.5474    5.5362 H   0  0  0  0  0  0  0  0  0  0  0  0
  -11.1641   57.0005    4.7370 H   0  0  0  0  0  0  0  0  0  0  0  0
  -10.2485   55.4551    4.7370 H   0  0  0  0  0  0  0  0  0  0  0  0
  -10.5600   57.4550    6.8090 H   0  0  0  0  0  0  0  0  0  0  0  0
   -8.3073   56.5106    7.4713 H   0  0  0  0  0  0  0  0  0  0  0  0
   -8.4402   55.6111    5.9222 H   0  0  0  0  0  0  0  0  0  0  0  0
   -8.4582   57.4073    5.9222 H   0  0  0  0  0  0  0  0  0  0  0  0
  -11.7497   55.3518    7.6333 H   0  0  0  0  0  0  0  0  0  0  0  0
  -10.0294   54.7841    7.8442 H   0  0  0  0  0  0  0  0  0  0  0  0
  -11.9647   57.9740    8.5368 H   0  0  0  0  0  0  0  0  0  0  0  0
  -11.8601   59.1061   10.7508 H   0  0  0  0  0  0  0  0  0  0  0  0
  -10.4674   58.1551   12.5898 H   0  0  0  0  0  0  0  0  0  0  0  0
   -7.8450   54.8720   11.0120 H   0  0  0  0  0  0  0  0  0  0  0  0
   -8.2992   53.7512   14.3886 H   0  0  0  0  0  0  0  0  0  0  0  0
   -6.5269   52.5681   15.6786 H   0  0  0  0  0  0  0  0  0  0  0  0
   -4.1877   52.4947   14.8258 H   0  0  0  0  0  0  0  0  0  0  0  0
   -0.9860   53.3690   10.5350 H   0  0  0  0  0  0  0  0  0  0  0  0
   -5.3914   54.8076   11.3770 H   0  0  0  0  0  0  0  0  0  0  0  0
   -9.2140   54.9559    9.9606 H   0  0  0  0  0  0  0  0  0  0  0  0
  1  2  1  0
  2  3  1  0
  2  4  1  0
  4  5  1  0
  5  6  2  0
  6  7  1  0
  7  8  2  0
  8  9  1  0
  9 10  1  0
 10 11  2  0
 10 12  1  0
 12 13  1  0
 13 14  2  0
 14 15  1  0
 15 16  2  0
 16 17  1  0
 17 18  1  0
 18 19  1  0
 19 20  2  0
 20 21  1  0
 21 22  1  0
 17 23  2  0
  9 24  2  0
 24  5  1  0
 23 13  1  0
 22 18  2  0
  1 25  1  0
  1 26  1  0
  1 27  1  0
  2 28  1  0
  3 29  1  0
  3 30  1  0
  3 31  1  0
  4 32  1  0
  4 33  1  0
  6 34  1  0
  7 35  1  0
  8 36  1  0
 12 37  1  0
 14 38  1  0
 15 39  1  0
 16 40  1  0
 21 41  1  0
 23 42  1  0
 24 43  1  0
M  CHG  1   2   1
M  END
>  <meeko>  (2) 
{"is_sidechain": [false], "free_energy": -7.924, "intermolecular_energy": -10.079, "internal_energy": -0.426}

$$$$
4de2_ligand
     RDKit          3D

 43 45  0  0  0  0  0  0  0  0999 V2000
   -1.8460   47.8310   11.4730 C   0  0  0  0  0  0  0  0  0  0  0  0
   -1.4030   48.5170   10.2080 N   0  0  0  0  0  0  0  0  0  0  0  0
   -1.3500   47.5570    9.0550 C   0  0  0  0  0  0  0  0  0  0  0  0
   -0.1000   49.2700   10.3630 C   0  0  0  0  0  0  0  0  0  0  0  0
   -0.2850   50.7630   10.4230 C   0  0  0  0  0  0  0  0  0  0  0  0
    0.3790   51.6100    9.5230 C   0  0  0  0  0  0  0  0  0  0  0  0
    0.1540   52.9880    9.5520 C   0  0  0  0  0  0  0  0  0  0  0  0
   -0.7380   53.5410   10.4720 C   0  0  0  0  0  0  0  0  0  0  0  0
   -1.3960   52.7120   11.3850 C   0  0  0  0  0  0  0  0  0  0  0  0
   -2.4000   53.2270   12.3580 C   0  0  0  0  0  0  0  0  0  0  0  0
   -1.9730   53.8930   13.2950 O   0  0  0  0  0  0  0  0  0  0  0  0
   -3.7150   52.9200   12.0730 N   0  0  0  0  0  0  0  0  0  0  0  0
   -4.8540   53.2500   12.8410 C   0  0  0  0  0  0  0  0  0  0  0  0
   -5.1470   52.6890   14.0840 C   0  0  0  0  0  0  0  0  0  0  0  0
   -6.3000   53.0660   14.7770 C   0  0  0  0  0  0  0  0  0  0  0  0
   -7.1730   54.0090   14.2310 C   0  0  0  0  0  0  0  0  0  0  0  0
   -6.9010   54.5820   12.9830 C   0  0  0  0  0  0  0  0  0  0  0  0
   -7.8040   55.5640   12.3980 C   0  0  0  0  0  0  0  0  0  0  0  0
   -8.8990   56.0630   13.0710 N   0  0  0  0  0  0  0  0  0  0  0  0
   -9.4900   56.9240   12.2570 N   0  0  0  0  0  0  0  0  0  0  0  0
   -8.7430   56.9080   11.1480 N   0  0  0  0  0  0  0  0  0  0  0  0
   -7.6810   56.0870   11.1660 N   0  0  0  0  0  0  0  0  0  0  0  0
   -5.7380   54.1930   12.2970 C   0  0  0  0  0  0  0  0  0  0  0  0
   -1.1670   51.3280   11.3550 C   0  0  0  0  0  0  0  0  0  0  0  0
   -1.4812   48.3959   12.3435 H   0  0  0  0  0  0  0  0  0  0  0  0
   -2.9447   47.7852   11.4998 H   0  0  0  0  0  0  0  0  0  0  0  0
   -1.4357   46.8107   11.4998 H   0  0  0  0  0  0  0  0  0  0  0  0
   -2.1220   49.2190    9.9890 H   0  0  0  0  0  0  0  0  0  0  0  0
   -1.2931   46.5272    9.4376 H   0  0  0  0  0  0  0  0  0  0  0  0
   -2.2558   47.6707    8.4413 H   0  0  0  0  0  0  0  0  0  0  0  0
   -0.4622   47.7697    8.4413 H   0  0  0  0  0  0  0  0  0  0  0  0
    0.3869   48.9398   11.2925 H   0  0  0  0  0  0  0  0  0  0  0  0
    0.5134   49.0505    9.4767 H   0  0  0  0  0  0  0  0  0  0  0  0
    1.0812   51.1861    8.7900 H   0  0  0  0  0  0  0  0  0  0  0  0
    0.6839   53.6425    8.8443 H   0  0  0  0  0  0  0  0  0  0  0  0
   -0.9226   54.6254   10.4786 H   0  0  0  0  0  0  0  0  0  0  0  0
   -3.9090   52.4630   11.1910 H   0  0  0  0  0  0  0  0  0  0  0  0
   -4.4655   51.9446   14.5216 H   0  0  0  0  0  0  0  0  0  0  0  0
   -6.5210   52.6180   15.7570 H   0  0  0  0  0  0  0  0  0  0  0  0
   -8.0777   54.3027   14.7834 H   0  0  0  0  0  0  0  0  0  0  0  0
   -8.9690   57.4850   10.3420 H   0  0  0  0  0  0  0  0  0  0  0  0
   -5.5168   54.6364   11.3149 H   0  0  0  0  0  0  0  0  0  0  0  0
   -1.6870   50.6769   12.0731 H   0  0  0  0  0  0  0  0  0  0  0  0
  1  2  1  0
  2  3  1  0
  2  4  1  0
  4  5  1  0
  5  6  2  0
  6  7  1  0
  7  8  2  0
  8  9  1  0
  9 10  1  0
 10 11  2  0
 10 12  1  0
 12 13  1  0
 13 14  2  0
 14 15  1  0
 15 16  2  0
 16 17  1  0
 17 18  1  0
 18 19  1  0
 19 20  2  0
 20 21  1  0
 21 22  1  0
 17 23  2  0
  9 24  2  0
 24  5  1  0
 23 13  1  0
 22 18  2  0
  1 25  1  0
  1 26  1  0
  1 27  1  0
  2 28  1  0
  3 29  1  0
  3 30  1  0
  3 31  1  0
  4 32  1  0
  4 33  1  0
  6 34  1  0
  7 35  1  0
  8 36  1  0
 12 37  1  0
 14 38  1  0
 15 39  1  0
 16 40  1  0
 21 41  1  0
 23 42  1  0
 24 43  1  0
M  CHG  1   2   1
M  END
>  <meeko>  (3) 
{"is_sidechain": [false], "free_energy": -7.708, "intermolecular_energy": -9.654, "internal_energy": -0.571}

$$$$
4de2_ligand
     RDKit          3D

 43 45  0  0  0  0  0  0  0  0999 V2000
   -1.6670   51.5850   12.5860 C   0  0  0  0  0  0  0  0  0  0  0  0
   -2.2170   52.8110   11.9080 N   0  0  0  0  0  0  0  0  0  0  0  0
   -1.1940   53.4450   11.0100 C   0  0  0  0  0  0  0  0  0  0  0  0
   -2.8050   53.8150   12.8750 C   0  0  0  0  0  0  0  0  0  0  0  0
   -4.2830   53.6300   13.0920 C   0  0  0  0  0  0  0  0  0  0  0  0
   -4.7890   53.2550   14.3460 C   0  0  0  0  0  0  0  0  0  0  0  0
   -6.1660   53.1430   14.5490 C   0  0  0  0  0  0  0  0  0  0  0  0
   -7.0590   53.4080   13.5090 C   0  0  0  0  0  0  0  0  0  0  0  0
   -6.5700   53.7700   12.2500 C   0  0  0  0  0  0  0  0  0  0  0  0
   -7.4660   54.1190   11.1120 C   0  0  0  0  0  0  0  0  0  0  0  0
   -8.4990   53.4680   11.0010 O   0  0  0  0  0  0  0  0  0  0  0  0
   -7.0420   55.1670   10.3220 N   0  0  0  0  0  0  0  0  0  0  0  0
   -7.6760   55.6760    9.1670 C   0  0  0  0  0  0  0  0  0  0  0  0
   -8.8620   56.4090    9.1860 C   0  0  0  0  0  0  0  0  0  0  0  0
   -9.4280   56.8720    7.9950 C   0  0  0  0  0  0  0  0  0  0  0  0
   -8.8110   56.6040    6.7720 C   0  0  0  0  0  0  0  0  0  0  0  0
   -7.6220   55.8660    6.7280 C   0  0  0  0  0  0  0  0  0  0  0  0
   -6.9690   55.5750    5.4590 C   0  0  0  0  0  0  0  0  0  0  0  0
   -6.5720   54.3050    5.1000 N   0  0  0  0  0  0  0  0  0  0  0  0
   -6.0210   54.4010    3.8990 N   0  0  0  0  0  0  0  0  0  0  0  0
   -6.1050   55.7000    3.5910 N   0  0  0  0  0  0  0  0  0  0  0  0
   -6.6810   56.4860    4.5140 N   0  0  0  0  0  0  0  0  0  0  0  0
   -7.0640   55.4070    7.9330 C   0  0  0  0  0  0  0  0  0  0  0  0
   -5.1860   53.8800   12.0490 C   0  0  0  0  0  0  0  0  0  0  0  0
   -1.7242   51.7126   13.6771 H   0  0  0  0  0  0  0  0  0  0  0  0
   -2.2569   50.7056   12.2882 H   0  0  0  0  0  0  0  0  0  0  0  0
   -0.6179   51.4408   12.2882 H   0  0  0  0  0  0  0  0  0  0  0  0
   -2.9920   52.4930   11.3110 H   0  0  0  0  0  0  0  0  0  0  0  0
   -0.4170   53.9265   11.6219 H   0  0  0  0  0  0  0  0  0  0  0  0
   -0.7347   52.6730   10.3751 H   0  0  0  0  0  0  0  0  0  0  0  0
   -1.6809   54.1999   10.3751 H   0  0  0  0  0  0  0  0  0  0  0  0
   -2.2932   53.7100   13.8430 H   0  0  0  0  0  0  0  0  0  0  0  0
   -2.6600   54.8144   12.4388 H   0  0  0  0  0  0  0  0  0  0  0  0
   -4.0961   53.0478   15.1748 H   0  0  0  0  0  0  0  0  0  0  0  0
   -6.5499   52.8438   15.5354 H   0  0  0  0  0  0  0  0  0  0  0  0
   -8.1431   53.3323   13.6794 H   0  0  0  0  0  0  0  0  0  0  0  0
   -6.2220   55.6790   10.6230 H   0  0  0  0  0  0  0  0  0  0  0  0
   -9.3556   56.6244   10.1452 H   0  0  0  0  0  0  0  0  0  0  0  0
  -10.3635   57.4500    8.0215 H   0  0  0  0  0  0  0  0  0  0  0  0
   -9.2608   56.9741    5.8389 H   0  0  0  0  0  0  0  0  0  0  0  0
   -5.7520   56.0650    2.7110 H   0  0  0  0  0  0  0  0  0  0  0  0
   -6.1302   54.8261    7.9088 H   0  0  0  0  0  0  0  0  0  0  0  0
   -4.8035   54.1667   11.0583 H   0  0  0  0  0  0  0  0  0  0  0  0
  1  2  1  0
  2  3  1  0
  2  4  1  0
  4  5  1  0
  5  6  2  0
  6  7  1  0
  7  8  2  0
  8  9  1  0
  9 10  1  0
 10 11  2  0
 10 12  1  0
 12 13  1  0
 13 14  2  0
 14 15  1  0
 15 16  2  0
 16 17  1  0
 17 18  1  0
 18 19  1  0
 19 20  2  0
 20 21  1  0
 21 22  1  0
 17 23  2  0
  9 24  2  0
 24  5  1  0
 23 13  1  0
 22 18  2  0
  1 25  1  0
  1 26  1  0
  1 27  1  0
  2 28  1  0
  3 29  1  0
  3 30  1  0
  3 31  1  0
  4 32  1  0
  4 33  1  0
  6 34  1  0
  7 35  1  0
  8 36  1  0
 12 37  1  0
 14 38  1  0
 15 39  1  0
 16 40  1  0
 21 41  1  0
 23 42  1  0
 24 43  1  0
M  CHG  1   2   1
M  END
>  <meeko>  (4) 
{"is_sidechain": [false], "free_energy": -7.682, "intermolecular_energy": -9.546, "internal_energy": -0.646}

$$$$
4de2_ligand
     RDKit          3D

 43 45  0  0  0  0  0  0  0  0999 V2000
   -8.5640   57.7460    4.3050 C   0  0  0  0  0  0  0  0  0  0  0  0
   -7.8280   56.7850    5.2000 N   0  0  0  0  0  0  0  0  0  0  0  0
   -6.5400   56.3330    4.5750 C   0  0  0  0  0  0  0  0  0  0  0  0
   -8.6750   55.6110    5.6390 C   0  0  0  0  0  0  0  0  0  0  0  0
   -9.3460   55.8310    6.9680 C   0  0  0  0  0  0  0  0  0  0  0  0
  -10.7280   56.0560    7.0520 C   0  0  0  0  0  0  0  0  0  0  0  0
  -11.3470   56.2010    8.2960 C   0  0  0  0  0  0  0  0  0  0  0  0
  -10.6000   56.1190    9.4720 C   0  0  0  0  0  0  0  0  0  0  0  0
   -9.2200   55.9100    9.4040 C   0  0  0  0  0  0  0  0  0  0  0  0
   -8.3710   55.7590   10.6200 C   0  0  0  0  0  0  0  0  0  0  0  0
   -8.0510   56.7880   11.2040 O   0  0  0  0  0  0  0  0  0  0  0  0
   -8.0640   54.4600   10.9720 N   0  0  0  0  0  0  0  0  0  0  0  0
   -7.2530   54.0370   12.0490 C   0  0  0  0  0  0  0  0  0  0  0  0
   -7.7510   53.6140   13.2810 C   0  0  0  0  0  0  0  0  0  0  0  0
   -6.8780   53.2170   14.2970 C   0  0  0  0  0  0  0  0  0  0  0  0
   -5.4980   53.2420   14.0910 C   0  0  0  0  0  0  0  0  0  0  0  0
   -4.9760   53.6670   12.8630 C   0  0  0  0  0  0  0  0  0  0  0  0
   -3.5390   53.7020   12.6340 C   0  0  0  0  0  0  0  0  0  0  0  0
   -2.6230   53.8240   13.6570 N   0  0  0  0  0  0  0  0  0  0  0  0
   -1.4210   53.8210   13.0990 N   0  0  0  0  0  0  0  0  0  0  0  0
   -1.6580   53.7010   11.7880 N   0  0  0  0  0  0  0  0  0  0  0  0
   -2.9480   53.6230   11.4280 N   0  0  0  0  0  0  0  0  0  0  0  0
   -5.8650   54.0640   11.8500 C   0  0  0  0  0  0  0  0  0  0  0  0
   -8.6000   55.7660    8.1540 C   0  0  0  0  0  0  0  0  0  0  0  0
   -9.1182   58.4696    4.9209 H   0  0  0  0  0  0  0  0  0  0  0  0
   -7.8428   58.2814    3.6701 H   0  0  0  0  0  0  0  0  0  0  0  0
   -9.2689   57.1892    3.6701 H   0  0  0  0  0  0  0  0  0  0  0  0
   -7.5870   57.3060    6.0530 H   0  0  0  0  0  0  0  0  0  0  0  0
   -5.8180   56.0796    5.3653 H   0  0  0  0  0  0  0  0  0  0  0  0
   -6.7265   55.4466    3.9509 H   0  0  0  0  0  0  0  0  0  0  0  0
   -6.1317   57.1416    3.9509 H   0  0  0  0  0  0  0  0  0  0  0  0
   -9.4514   55.4361    4.8796 H   0  0  0  0  0  0  0  0  0  0  0  0
   -8.0044   54.7460    5.7495 H   0  0  0  0  0  0  0  0  0  0  0  0
  -11.3283   56.1187    6.1324 H   0  0  0  0  0  0  0  0  0  0  0  0
  -12.4309   56.3811    8.3490 H   0  0  0  0  0  0  0  0  0  0  0  0
  -11.0957   56.2185   10.4489 H   0  0  0  0  0  0  0  0  0  0  0  0
   -8.5090   53.7160   10.4510 H   0  0  0  0  0  0  0  0  0  0  0  0
   -8.8371   53.5928   13.4538 H   0  0  0  0  0  0  0  0  0  0  0  0
   -7.2806   52.8829   15.2646 H   0  0  0  0  0  0  0  0  0  0  0  0
   -4.8179   52.9268   14.8960 H   0  0  0  0  0  0  0  0  0  0  0  0
   -0.9020   53.6730   11.1090 H   0  0  0  0  0  0  0  0  0  0  0  0
   -5.4649   54.4023   10.8828 H   0  0  0  0  0  0  0  0  0  0  0  0
   -7.5138   55.5998    8.1032 H   0  0  0  0  0  0  0  0  0  0  0  0
  1  2  1  0
  2  3  1  0
  2  4  1  0
  4  5  1  0
  5  6  2  0
  6  7  1  0
  7  8  2  0
  8  9  1  0
  9 10  1  0
 10 11  2  0
 10 12  1  0
 12 13  1  0
 13 14  2  0
 14 15  1  0
 15 16  2  0
 16 17  1  0
 17 18  1  0
 18 19  1  0
 19 20  2  0
 20 21  1  0
 21 22  1  0
 17 23  2  0
  9 24  2  0
 24  5  1  0
 23 13  1  0
 22 18  2  0
  1 25  1  0
  1 26  1  0
  1 27  1  0
  2 28  1  0
  3 29  1  0
  3 30  1  0
  3 31  1  0
  4 32  1  0
  4 33  1  0
  6 34  1  0
  7 35  1  0
  8 36  1  0
 12 37  1  0
 14 38  1  0
 15 39  1  0
 16 40  1  0
 21 41  1  0
 23 42  1  0
 24 43  1  0
M  CHG  1   2   1
M  END
>  <meeko>  (5) 
{"is_sidechain": [false], "free_energy": -7.401, "intermolecular_energy": -9.187, "internal_energy": -0.641}

$$$$
4de2_ligand
     RDKit          3D

 43 45  0  0  0  0  0  0  0  0999 V2000
  -13.5270   57.3970    6.3960 C   0  0  0  0  0  0  0  0  0  0  0  0
  -12.1980   56.7430    6.6640 N   0  0  0  0  0  0  0  0  0  0  0  0
  -11.8040   55.8260    5.5430 C   0  0  0  0  0  0  0  0  0  0  0  0
  -12.1370   56.0420    8.0030 C   0  0  0  0  0  0  0  0  0  0  0  0
  -10.9890   56.5020    8.8600 C   0  0  0  0  0  0  0  0  0  0  0  0
  -11.0300   57.7390    9.5220 C   0  0  0  0  0  0  0  0  0  0  0  0
   -9.9830   58.1290   10.3600 C   0  0  0  0  0  0  0  0  0  0  0  0
   -8.8830   57.2920   10.5540 C   0  0  0  0  0  0  0  0  0  0  0  0
   -8.8200   56.0630    9.8910 C   0  0  0  0  0  0  0  0  0  0  0  0
   -7.7030   55.0990   10.0940 C   0  0  0  0  0  0  0  0  0  0  0  0
   -6.7600   55.1700    9.3130 O   0  0  0  0  0  0  0  0  0  0  0  0
   -7.8430   54.2450   11.1700 N   0  0  0  0  0  0  0  0  0  0  0  0
   -6.9580   53.2180   11.5650 C   0  0  0  0  0  0  0  0  0  0  0  0
   -7.2750   51.8600   11.5380 C   0  0  0  0  0  0  0  0  0  0  0  0
   -6.3420   50.9070   11.9530 C   0  0  0  0  0  0  0  0  0  0  0  0
   -5.0810   51.3040   12.4020 C   0  0  0  0  0  0  0  0  0  0  0  0
   -4.7420   52.6620   12.4420 C   0  0  0  0  0  0  0  0  0  0  0  0
   -3.4320   53.0920   12.9100 C   0  0  0  0  0  0  0  0  0  0  0  0
   -2.3260   52.2700   12.8870 N   0  0  0  0  0  0  0  0  0  0  0  0
   -1.3150   52.9730   13.3790 N   0  0  0  0  0  0  0  0  0  0  0  0
   -1.8450   54.1660   13.6720 N   0  0  0  0  0  0  0  0  0  0  0  0
   -3.1530   54.3090   13.4080 N   0  0  0  0  0  0  0  0  0  0  0  0
   -5.6900   53.6100   12.0210 C   0  0  0  0  0  0  0  0  0  0  0  0
   -9.8730   55.6740    9.0490 C   0  0  0  0  0  0  0  0  0  0  0  0
  -14.0164   57.6378    7.3512 H   0  0  0  0  0  0  0  0  0  0  0  0
  -13.3713   58.3214    5.8205 H   0  0  0  0  0  0  0  0  0  0  0  0
  -14.1645   56.7097    5.8205 H   0  0  0  0  0  0  0  0  0  0  0  0
  -11.5010   57.4990    6.6990 H   0  0  0  0  0  0  0  0  0  0  0  0
  -11.4020   54.8903    5.9588 H   0  0  0  0  0  0  0  0  0  0  0  0
  -12.6858   55.6033    4.9243 H   0  0  0  0  0  0  0  0  0  0  0  0
  -11.0354   56.3124    4.9243 H   0  0  0  0  0  0  0  0  0  0  0  0
  -13.0758   56.2359    8.5424 H   0  0  0  0  0  0  0  0  0  0  0  0
  -11.9887   54.9702    7.8049 H   0  0  0  0  0  0  0  0  0  0  0  0
  -11.8930   58.4061    9.3798 H   0  0  0  0  0  0  0  0  0  0  0  0
  -10.0256   59.1024   10.8706 H   0  0  0  0  0  0  0  0  0  0  0  0
   -8.0683   57.5985   11.2265 H   0  0  0  0  0  0  0  0  0  0  0  0
   -8.6280   54.3980   11.7890 H   0  0  0  0  0  0  0  0  0  0  0  0
   -8.2665   51.5373   11.1875 H   0  0  0  0  0  0  0  0  0  0  0  0
   -6.6020   49.8385   11.9259 H   0  0  0  0  0  0  0  0  0  0  0  0
   -4.3512   50.5472   12.7255 H   0  0  0  0  0  0  0  0  0  0  0  0
   -1.2860   54.9140   14.0720 H   0  0  0  0  0  0  0  0  0  0  0  0
   -5.4334   54.6793   12.0494 H   0  0  0  0  0  0  0  0  0  0  0  0
   -9.8224   54.7056    8.5297 H   0  0  0  0  0  0  0  0  0  0  0  0
  1  2  1  0
  2  3  1  0
  2  4  1  0
  4  5  1  0
  5  6  2  0
  6  7  1  0
  7  8  2  0
  8  9  1  0
  9 10  1  0
 10 11  2  0
 10 12  1  0
 12 13  1  0
 13 14  2  0
 14 15  1  0
 15 16  2  0
 16 17  1  0
 17 18  1  0
 18 19  1  0
 19 20  2  0
 20 21  1  0
 21 22  1  0
 17 23  2  0
  9 24  2  0
 24  5  1  0
 23 13  1  0
 22 18  2  0
  1 25  1  0
  1 26  1  0
  1 27  1  0
  2 28  1  0
  3 29  1  0
  3 30  1  0
  3 31  1  0
  4 32  1  0
  4 33  1  0
  6 34  1  0
  7 35  1  0
  8 36  1  0
 12 37  1  0
 14 38  1  0
 15 39  1  0
 16 40  1  0
 21 41  1  0
 23 42  1  0
 24 43  1  0
M  CHG  1   2   1
M  END
>  <meeko>  (6) 
{"is_sidechain": [false], "free_energy": -6.935, "intermolecular_energy": -8.697, "internal_energy": -0.53}

$$$$
4de2_ligand
     RDKit          3D

 43 45  0  0  0  0  0  0  0  0999 V2000
   -4.1860   50.2070    9.1880 C   0  0  0  0  0  0  0  0  0  0  0  0
   -3.8200   50.7200   10.5550 N   0  0  0  0  0  0  0  0  0  0  0  0
   -2.3950   50.3950   10.8980 C   0  0  0  0  0  0  0  0  0  0  0  0
   -4.7710   50.2610   11.6390 C   0  0  0  0  0  0  0  0  0  0  0  0
   -5.2380   51.3820   12.5290 C   0  0  0  0  0  0  0  0  0  0  0  0
   -4.4250   51.8730   13.5610 C   0  0  0  0  0  0  0  0  0  0  0  0
   -4.8460   52.9520   14.3420 C   0  0  0  0  0  0  0  0  0  0  0  0
   -6.0810   53.5590   14.1020 C   0  0  0  0  0  0  0  0  0  0  0  0
   -6.9090   53.0720   13.0870 C   0  0  0  0  0  0  0  0  0  0  0  0
   -8.2130   53.7050   12.7430 C   0  0  0  0  0  0  0  0  0  0  0  0
   -9.0310   53.8160   13.6490 O   0  0  0  0  0  0  0  0  0  0  0  0
   -8.3410   54.1280   11.4360 N   0  0  0  0  0  0  0  0  0  0  0  0
   -9.4750   54.7210   10.8380 C   0  0  0  0  0  0  0  0  0  0  0  0
  -10.2440   54.1130    9.8460 C   0  0  0  0  0  0  0  0  0  0  0  0
  -11.3480   54.7730    9.3030 C   0  0  0  0  0  0  0  0  0  0  0  0
  -11.6930   56.0510    9.7450 C   0  0  0  0  0  0  0  0  0  0  0  0
  -10.9330   56.6830   10.7360 C   0  0  0  0  0  0  0  0  0  0  0  0
  -11.2790   58.0180   11.2060 C   0  0  0  0  0  0  0  0  0  0  0  0
  -10.6700   59.1570   10.7260 N   0  0  0  0  0  0  0  0  0  0  0  0
  -11.2180   60.1820   11.3610 N   0  0  0  0  0  0  0  0  0  0  0  0
  -12.1160   59.6290   12.1840 N   0  0  0  0  0  0  0  0  0  0  0  0
  -12.2060   58.2900   12.1400 N   0  0  0  0  0  0  0  0  0  0  0  0
   -9.8250   56.0080   11.2750 C   0  0  0  0  0  0  0  0  0  0  0  0
   -6.4830   51.9870   12.3050 C   0  0  0  0  0  0  0  0  0  0  0  0
   -4.8222   49.3153    9.2892 H   0  0  0  0  0  0  0  0  0  0  0  0
   -4.7328   50.9870    8.6379 H   0  0  0  0  0  0  0  0  0  0  0  0
   -3.2705   49.9438    8.6379 H   0  0  0  0  0  0  0  0  0  0  0  0
   -3.8980   51.7450   10.5140 H   0  0  0  0  0  0  0  0  0  0  0  0
   -2.2780   50.3683   11.9914 H   0  0  0  0  0  0  0  0  0  0  0  0
   -2.1312   49.4136   10.4769 H   0  0  0  0  0  0  0  0  0  0  0  0
   -1.7317   51.1649   10.4769 H   0  0  0  0  0  0  0  0  0  0  0  0
   -5.6502   49.8030   11.1624 H   0  0  0  0  0  0  0  0  0  0  0  0
   -4.2258   49.5453   12.2719 H   0  0  0  0  0  0  0  0  0  0  0  0
   -3.4489   51.4051   13.7568 H   0  0  0  0  0  0  0  0  0  0  0  0
   -4.2011   53.3259   15.1509 H   0  0  0  0  0  0  0  0  0  0  0  0
   -6.4009   54.4179   14.7102 H   0  0  0  0  0  0  0  0  0  0  0  0
   -7.5230   54.0700   10.8430 H   0  0  0  0  0  0  0  0  0  0  0  0
   -9.9790   53.1068    9.4891 H   0  0  0  0  0  0  0  0  0  0  0  0
  -11.9490   54.2831    8.5227 H   0  0  0  0  0  0  0  0  0  0  0  0
  -12.5653   56.5634    9.3130 H   0  0  0  0  0  0  0  0  0  0  0  0
  -12.6920   60.1920   12.8030 H   0  0  0  0  0  0  0  0  0  0  0  0
   -9.2210   56.4970   12.0535 H   0  0  0  0  0  0  0  0  0  0  0  0
   -7.1350   51.6060   11.5052 H   0  0  0  0  0  0  0  0  0  0  0  0
  1  2  1  0
  2  3  1  0
  2  4  1  0
  4  5  1  0
  5  6  2  0
  6  7  1  0
  7  8  2  0
  8  9  1  0
  9 10  1  0
 10 11  2  0
 10 12  1  0
 12 13  1  0
 13 14  2  0
 14 15  1  0
 15 16  2  0
 16 17  1  0
 17 18  1  0
 18 19  1  0
 19 20  2  0
 20 21  1  0
 21 22  1  0
 17 23  2  0
  9 24  2  0
 24  5  1  0
 23 13  1  0
 22 18  2  0
  1 25  1  0
  1 26  1  0
  1 27  1  0
  2 28  1  0
  3 29  1  0
  3 30  1  0
  3 31  1  0
  4 32  1  0
  4 33  1  0
  6 34  1  0
  7 35  1  0
  8 36  1  0
 12 37  1  0
 14 38  1  0
 15 39  1  0
 16 40  1  0
 21 41  1  0
 23 42  1  0
 24 43  1  0
M  CHG  1   2   1
M  END
>  <meeko>  (7) 
{"is_sidechain": [false], "free_energy": -6.919, "intermolecular_energy": -8.664, "internal_energy": -0.541}

$$$$
4de2_ligand
     RDKit          3D

 43 45  0  0  0  0  0  0  0  0999 V2000
   -1.3010   51.8980    8.3820 C   0  0  0  0  0  0  0  0  0  0  0  0
   -1.0960   53.1420    9.2040 N   0  0  0  0  0  0  0  0  0  0  0  0
   -0.1340   54.0840    8.5390 C   0  0  0  0  0  0  0  0  0  0  0  0
   -0.6920   52.8530   10.6330 C   0  0  0  0  0  0  0  0  0  0  0  0
   -1.7560   52.1290   11.4120 C   0  0  0  0  0  0  0  0  0  0  0  0
   -1.4580   50.9660   12.1370 C   0  0  0  0  0  0  0  0  0  0  0  0
   -2.4420   50.3360   12.9030 C   0  0  0  0  0  0  0  0  0  0  0  0
   -3.7350   50.8590   12.9620 C   0  0  0  0  0  0  0  0  0  0  0  0
   -4.0520   52.0100   12.2340 C   0  0  0  0  0  0  0  0  0  0  0  0
   -5.3960   52.6510   12.2940 C   0  0  0  0  0  0  0  0  0  0  0  0
   -6.2990   51.9980   12.8030 O   0  0  0  0  0  0  0  0  0  0  0  0
   -5.4640   53.9350   11.7920 N   0  0  0  0  0  0  0  0  0  0  0  0
   -6.6110   54.7530   11.6930 C   0  0  0  0  0  0  0  0  0  0  0  0
   -7.3520   55.1950   12.7890 C   0  0  0  0  0  0  0  0  0  0  0  0
   -8.4800   55.9980   12.6030 C   0  0  0  0  0  0  0  0  0  0  0  0
   -8.8790   56.3640   11.3170 C   0  0  0  0  0  0  0  0  0  0  0  0
   -8.1540   55.9280   10.2020 C   0  0  0  0  0  0  0  0  0  0  0  0
   -8.5610   56.2990    8.8540 C   0  0  0  0  0  0  0  0  0  0  0  0
   -7.8690   55.8990    7.7300 N   0  0  0  0  0  0  0  0  0  0  0  0
   -8.5060   56.4080    6.6860 N   0  0  0  0  0  0  0  0  0  0  0  0
   -9.5350   57.0810    7.2130 N   0  0  0  0  0  0  0  0  0  0  0  0
   -9.6300   57.0560    8.5510 N   0  0  0  0  0  0  0  0  0  0  0  0
   -7.0220   55.1220   10.4030 C   0  0  0  0  0  0  0  0  0  0  0  0
   -3.0620   52.6390   11.4650 C   0  0  0  0  0  0  0  0  0  0  0  0
   -1.4430   51.0361    9.0505 H   0  0  0  0  0  0  0  0  0  0  0  0
   -2.1911   52.0204    7.7474 H   0  0  0  0  0  0  0  0  0  0  0  0
   -0.4187   51.7283    7.7474 H   0  0  0  0  0  0  0  0  0  0  0  0
   -2.0070   53.6170    9.2480 H   0  0  0  0  0  0  0  0  0  0  0  0
    0.4290   54.6353    9.3065 H   0  0  0  0  0  0  0  0  0  0  0  0
    0.5652   53.5116    7.9117 H   0  0  0  0  0  0  0  0  0  0  0  0
   -0.6916   54.7951    7.9117 H   0  0  0  0  0  0  0  0  0  0  0  0
    0.2165   52.2329   10.6214 H   0  0  0  0  0  0  0  0  0  0  0  0
   -0.5238   53.8206   11.1285 H   0  0  0  0  0  0  0  0  0  0  0  0
   -0.4417   50.5466   12.1023 H   0  0  0  0  0  0  0  0  0  0  0  0
   -2.1963   49.4218   13.4633 H   0  0  0  0  0  0  0  0  0  0  0  0
   -4.5017   50.3674   13.5789 H   0  0  0  0  0  0  0  0  0  0  0  0
   -4.5960   54.3770   11.5160 H   0  0  0  0  0  0  0  0  0  0  0  0
   -7.0462   54.9095   13.8063 H   0  0  0  0  0  0  0  0  0  0  0  0
   -9.0561   56.3432   13.4742 H   0  0  0  0  0  0  0  0  0  0  0  0
   -9.7673   56.9980   11.1789 H   0  0  0  0  0  0  0  0  0  0  0  0
  -10.2020   57.5800    6.6300 H   0  0  0  0  0  0  0  0  0  0  0  0
   -6.4465   54.7732    9.5329 H   0  0  0  0  0  0  0  0  0  0  0  0
   -3.3132   53.5456   10.8950 H   0  0  0  0  0  0  0  0  0  0  0  0
  1  2  1  0
  2  3  1  0
  2  4  1  0
  4  5  1  0
  5  6  2  0
  6  7  1  0
  7  8  2  0
  8  9  1  0
  9 10  1  0
 10 11  2  0
 10 12  1  0
 12 13  1  0
 13 14  2  0
 14 15  1  0
 15 16  2  0
 16 17  1  0
 17 18  1  0
 18 19  1  0
 19 20  2  0
 20 21  1  0
 21 22  1  0
 17 23  2  0
  9 24  2  0
 24  5  1  0
 23 13  1  0
 22 18  2  0
  1 25  1  0
  1 26  1  0
  1 27  1  0
  2 28  1  0
  3 29  1  0
  3 30  1  0
  3 31  1  0
  4 32  1  0
  4 33  1  0
  6 34  1  0
  7 35  1  0
  8 36  1  0
 12 37  1  0
 14 38  1  0
 15 39  1  0
 16 40  1  0
 21 41  1  0
 23 42  1  0
 24 43  1  0
M  CHG  1   2   1
M  END
>  <meeko>  (8) 
{"is_sidechain": [false], "free_energy": -6.895, "intermolecular_energy": -8.541, "internal_energy": -0.634}

$$$$
4de2_ligand
     RDKit          3D

 43 45  0  0  0  0  0  0  0  0999 V2000
  -11.4300   55.7060    3.5700 C   0  0  0  0  0  0  0  0  0  0  0  0
   -9.9860   56.0140    3.8600 N   0  0  0  0  0  0  0  0  0  0  0  0
   -9.6390   57.4230    3.4730 C   0  0  0  0  0  0  0  0  0  0  0  0
   -9.0280   55.0180    3.2450 C   0  0  0  0  0  0  0  0  0  0  0  0
   -8.1020   54.3910    4.2520 C   0  0  0  0  0  0  0  0  0  0  0  0
   -7.2750   53.3130    3.9030 C   0  0  0  0  0  0  0  0  0  0  0  0
   -6.3790   52.7770    4.8310 C   0  0  0  0  0  0  0  0  0  0  0  0
   -6.2890   53.3110    6.1180 C   0  0  0  0  0  0  0  0  0  0  0  0
   -7.1160   54.3760    6.4860 C   0  0  0  0  0  0  0  0  0  0  0  0
   -7.0350   55.0280    7.8230 C   0  0  0  0  0  0  0  0  0  0  0  0
   -6.2840   55.9920    7.9260 O   0  0  0  0  0  0  0  0  0  0  0  0
   -7.8490   54.4860    8.7980 N   0  0  0  0  0  0  0  0  0  0  0  0
   -7.9410   54.8840   10.1500 C   0  0  0  0  0  0  0  0  0  0  0  0
   -8.8910   55.7820   10.6370 C   0  0  0  0  0  0  0  0  0  0  0  0
   -8.9100   56.1270   11.9910 C   0  0  0  0  0  0  0  0  0  0  0  0
   -7.9760   55.5790   12.8700 C   0  0  0  0  0  0  0  0  0  0  0  0
   -7.0100   54.6790   12.4030 C   0  0  0  0  0  0  0  0  0  0  0  0
   -6.0260   54.1010   13.3080 C   0  0  0  0  0  0  0  0  0  0  0  0
   -4.6940   54.4550   13.2860 N   0  0  0  0  0  0  0  0  0  0  0  0
   -4.0930   53.7470   14.2300 N   0  0  0  0  0  0  0  0  0  0  0  0
   -5.0680   53.0090   14.7720 N   0  0  0  0  0  0  0  0  0  0  0  0
   -6.2920   53.1770   14.2480 N   0  0  0  0  0  0  0  0  0  0  0  0
   -7.0030   54.3400   11.0400 C   0  0  0  0  0  0  0  0  0  0  0  0
   -8.0160   54.9110    5.5530 C   0  0  0  0  0  0  0  0  0  0  0  0
  -11.9774   55.5893    4.5170 H   0  0  0  0  0  0  0  0  0  0  0  0
  -11.8715   56.5302    2.9905 H   0  0  0  0  0  0  0  0  0  0  0  0
  -11.4968   54.7734    2.9905 H   0  0  0  0  0  0  0  0  0  0  0  0
   -9.8700   55.9400    4.8790 H   0  0  0  0  0  0  0  0  0  0  0  0
   -9.4904   58.0265    4.3806 H   0  0  0  0  0  0  0  0  0  0  0  0
   -8.7141   57.4225    2.8775 H   0  0  0  0  0  0  0  0  0  0  0  0
  -10.4583   57.8520    2.8775 H   0  0  0  0  0  0  0  0  0  0  0  0
   -9.6132   54.2207    2.7634 H   0  0  0  0  0  0  0  0  0  0  0  0
   -8.4049   55.5652    2.5223 H   0  0  0  0  0  0  0  0  0  0  0  0
   -7.3325   52.8865    2.8907 H   0  0  0  0  0  0  0  0  0  0  0  0
   -5.7399   51.9283    4.5459 H   0  0  0  0  0  0  0  0  0  0  0  0
   -5.5701   52.8952    6.8394 H   0  0  0  0  0  0  0  0  0  0  0  0
   -8.5010   53.7660    8.5160 H   0  0  0  0  0  0  0  0  0  0  0  0
   -9.6299   56.2214    9.9507 H   0  0  0  0  0  0  0  0  0  0  0  0
   -9.6650   56.8340   12.3653 H   0  0  0  0  0  0  0  0  0  0  0  0
   -7.9982   55.8549   13.9346 H   0  0  0  0  0  0  0  0  0  0  0  0
   -4.8880   52.3600   15.5330 H   0  0  0  0  0  0  0  0  0  0  0  0
   -6.2477   53.6346   10.6633 H   0  0  0  0  0  0  0  0  0  0  0  0
   -8.6641   55.7505    5.8450 H   0  0  0  0  0  0  0  0  0  0  0  0
  1  2  1  0
  2  3  1  0
  2  4  1  0
  4  5  1  0
  5  6  2  0
  6  7  1  0
  7  8  2  0
  8  9  1  0
  9 10  1  0
 10 11  2  0
 10 12  1  0
 12 13  1  0
 13 14  2  0
 14 15  1  0
 15 16  2  0
 16 17  1  0
 17 18  1  0
 18 19  1  0
 19 20  2  0
 20 21  1  0
 21 22  1  0
 17 23  2  0
  9 24  2  0
 24  5  1  0
 23 13  1  0
 22 18  2  0
  1 25  1  0
  1 26  1  0
  1 27  1  0
  2 28  1  0
  3 29  1  0
  3 30  1  0
  3 31  1  0
  4 32  1  0
  4 33  1  0
  6 34  1  0
  7 35  1  0
  8 36  1  0
 12 37  1  0
 14 38  1  0
 15 39  1  0
 16 40  1  0
 21 41  1  0
 23 42  1  0
 24 43  1  0
M  CHG  1   2   1
M  END
>  <meeko>  (9) 
{"is_sidechain": [false], "free_energy": -6.805, "intermolecular_energy": -8.436, "internal_energy": -0.621}

$$$$
