2r9w_ligand
     RDKit          3D

 42 45  0  0  0  0  0  0  0  0999 V2000
   25.6310    6.3380   21.3630 O   0  0  0  0  0  0  0  0  0  0  0  0
   24.8650    5.7590   20.5300 C   0  0  0  0  0  0  0  0  0  0  0  0
   24.3820    4.5890   20.6580 O   0  0  0  0  0  0  0  0  0  0  0  0
   24.4880    6.5300   19.2770 C   0  0  0  0  0  0  0  0  0  0  0  0
   25.3650    7.5200   18.7560 C   0  0  0  0  0  0  0  0  0  0  0  0
   25.0610    8.2360   17.5940 C   0  0  0  0  0  0  0  0  0  0  0  0
   23.8640    7.9450   16.9680 C   0  0  0  0  0  0  0  0  0  0  0  0
   22.9930    6.9920   17.4580 C   0  0  0  0  0  0  0  0  0  0  0  0
   23.2740    6.2700   18.6050 C   0  0  0  0  0  0  0  0  0  0  0  0
   21.8550    6.9280   16.5370 C   0  0  0  0  0  0  0  0  0  0  0  0
   20.9170    6.1590   16.6700 O   0  0  0  0  0  0  0  0  0  0  0  0
   22.1020    7.8430   15.5470 N   0  0  0  0  0  0  0  0  0  0  0  0
   21.2100    8.0640   14.3930 C   0  0  2  0  0  0  0  0  0  0  0  0
   21.9530    7.9320   13.0480 C   0  0  0  0  0  0  0  0  0  0  0  0
   22.3320    6.4970   12.6910 C   0  0  0  0  0  0  0  0  0  0  0  0
   23.6290    6.0790   13.0440 C   0  0  0  0  0  0  0  0  0  0  0  0
   24.0850    4.8070   12.7250 C   0  0  0  0  0  0  0  0  0  0  0  0
   23.2510    3.9260   12.0470 C   0  0  0  0  0  0  0  0  0  0  0  0
   21.9510    4.3020   11.6800 C   0  0  0  0  0  0  0  0  0  0  0  0
   21.1360    3.3960   10.9800 C   0  0  0  0  0  0  0  0  0  0  0  0
   19.8450    3.7420   10.5890 C   0  0  0  0  0  0  0  0  0  0  0  0
   19.3500    4.9990   10.9010 C   0  0  0  0  0  0  0  0  0  0  0  0
   20.1470    5.9090   11.6000 C   0  0  0  0  0  0  0  0  0  0  0  0
   21.4660    5.5980   12.0040 C   0  0  0  0  0  0  0  0  0  0  0  0
   20.3990    9.3910   14.4630 C   0  0  0  0  0  0  0  0  0  0  0  0
   19.6230    9.5090   15.4570 O   0  0  0  0  0  0  0  0  0  0  0  0
   20.5470   10.1910   13.4900 O   0  0  0  0  0  0  0  0  0  0  0  0
   23.2990    8.4790   15.7310 C   0  0  0  0  0  0  0  0  0  0  0  0
   23.8870    9.2790   15.0240 O   0  0  0  0  0  0  0  0  0  0  0  0
   26.3087    7.7286   19.2813 H   0  0  0  0  0  0  0  0  0  0  0  0
   25.7459    8.9987   17.1951 H   0  0  0  0  0  0  0  0  0  0  0  0
   22.5702    5.5138   18.9828 H   0  0  0  0  0  0  0  0  0  0  0  0
   20.4678    7.2542   14.4519 H   0  0  0  0  0  0  0  0  0  0  0  0
   21.3035    8.3271   12.2529 H   0  0  0  0  0  0  0  0  0  0  0  0
   22.8921    8.4966   13.1444 H   0  0  0  0  0  0  0  0  0  0  0  0
   24.2926    6.7720   13.5818 H   0  0  0  0  0  0  0  0  0  0  0  0
   25.1021    4.4979   13.0077 H   0  0  0  0  0  0  0  0  0  0  0  0
   23.6159    2.9194   11.7947 H   0  0  0  0  0  0  0  0  0  0  0  0
   21.5246    2.3961   10.7367 H   0  0  0  0  0  0  0  0  0  0  0  0
   19.2223    3.0230   10.0365 H   0  0  0  0  0  0  0  0  0  0  0  0
   18.3304    5.2796   10.5983 H   0  0  0  0  0  0  0  0  0  0  0  0
   19.7352    6.8994   11.8440 H   0  0  0  0  0  0  0  0  0  0  0  0
  1  2  2  0
  2  3  1  0
  2  4  1  0
  4  5  2  0
  5  6  1  0
  6  7  2  0
  7  8  1  0
  8  9  2  0
  8 10  1  0
 10 11  2  0
 10 12  1  0
 12 13  1  0
 13 14  1  0
 14 15  1  0
 15 16  2  0
 16 17  1  0
 17 18  2  0
 18 19  1  0
 19 20  2  0
 20 21  1  0
 21 22  2  0
 22 23  1  0
 23 24  2  0
 13 25  1  0
 25 26  2  0
 25 27  1  0
 12 28  1  0
 28 29  2  0
  9  4  1  0
 24 15  1  0
 28  7  1  0
 24 19  1  0
  5 30  1  0
  6 31  1  0
  9 32  1  0
 13 33  1  6
 14 34  1  0
 14 35  1  0
 16 36  1  0
 17 37  1  0
 18 38  1  0
 20 39  1  0
 21 40  1  0
 22 41  1  0
 23 42  1  0
M  CHG  2   3  -1  27  -1
M  END
>  <meeko>  (1) 
{"is_sidechain": [false], "free_energy": -7.981, "intermolecular_energy": -10.313, "internal_energy": -0.98}

$$$$
2r9w_ligand
     RDKit          3D

 42 45  0  0  0  0  0  0  0  0999 V2000
   27.1910    8.0530   20.6590 O   0  0  0  0  0  0  0  0  0  0  0  0
   26.7890    6.8970   20.3160 C   0  0  0  0  0  0  0  0  0  0  0  0
   27.3580    5.7980   20.6120 O   0  0  0  0  0  0  0  0  0  0  0  0
   25.5190    6.8170   19.4880 C   0  0  0  0  0  0  0  0  0  0  0  0
   24.4000    6.0810   19.9640 C   0  0  0  0  0  0  0  0  0  0  0  0
   23.2070    6.0020   19.2390 C   0  0  0  0  0  0  0  0  0  0  0  0
   23.1580    6.6680   18.0300 C   0  0  0  0  0  0  0  0  0  0  0  0
   24.2330    7.3840   17.5420 C   0  0  0  0  0  0  0  0  0  0  0  0
   25.4230    7.4780   18.2440 C   0  0  0  0  0  0  0  0  0  0  0  0
   23.8210    7.9750   16.2670 C   0  0  0  0  0  0  0  0  0  0  0  0
   24.5350    8.6970   15.5910 O   0  0  0  0  0  0  0  0  0  0  0  0
   22.5240    7.5840   16.0560 N   0  0  0  0  0  0  0  0  0  0  0  0
   21.7200    8.0020   14.8930 C   0  0  2  0  0  0  0  0  0  0  0  0
   22.5070    7.8960   13.5710 C   0  0  0  0  0  0  0  0  0  0  0  0
   22.6350    6.4700   13.0420 C   0  0  0  0  0  0  0  0  0  0  0  0
   23.8450    5.8010   13.3110 C   0  0  0  0  0  0  0  0  0  0  0  0
   24.0760    4.5170   12.8360 C   0  0  0  0  0  0  0  0  0  0  0  0
   23.1010    3.8750   12.0820 C   0  0  0  0  0  0  0  0  0  0  0  0
   21.8810    4.5060   11.7940 C   0  0  0  0  0  0  0  0  0  0  0  0
   20.9210    3.8390   11.0140 C   0  0  0  0  0  0  0  0  0  0  0  0
   19.7050    4.4410   10.6980 C   0  0  0  0  0  0  0  0  0  0  0  0
   19.4330    5.7170   11.1660 C   0  0  0  0  0  0  0  0  0  0  0  0
   20.3770    6.3920   11.9450 C   0  0  0  0  0  0  0  0  0  0  0  0
   21.6260    5.8170   12.2770 C   0  0  0  0  0  0  0  0  0  0  0  0
   21.0620    9.4040   15.0480 C   0  0  0  0  0  0  0  0  0  0  0  0
   19.9020    9.4130   15.5580 O   0  0  0  0  0  0  0  0  0  0  0  0
   21.7210   10.3870   14.5920 O   0  0  0  0  0  0  0  0  0  0  0  0
   22.0540    6.8100   17.0830 C   0  0  0  0  0  0  0  0  0  0  0  0
   20.9410    6.3570   17.2860 O   0  0  0  0  0  0  0  0  0  0  0  0
   24.4746    5.5591   20.9294 H   0  0  0  0  0  0  0  0  0  0  0  0
   22.3439    5.4334   19.6156 H   0  0  0  0  0  0  0  0  0  0  0  0
   26.2711    8.0525   17.8431 H   0  0  0  0  0  0  0  0  0  0  0  0
   20.8893    7.2821   14.8521 H   0  0  0  0  0  0  0  0  0  0  0  0
   21.9921    8.5026   12.8114 H   0  0  0  0  0  0  0  0  0  0  0  0
   23.5267    8.2540   13.7760 H   0  0  0  0  0  0  0  0  0  0  0  0
   24.6201    6.3044   13.9075 H   0  0  0  0  0  0  0  0  0  0  0  0
   25.0271    4.0098   13.0556 H   0  0  0  0  0  0  0  0  0  0  0  0
   23.2881    2.8584   11.7058 H   0  0  0  0  0  0  0  0  0  0  0  0
   21.1333    2.8241   10.6466 H   0  0  0  0  0  0  0  0  0  0  0  0
   18.9663    3.9077   10.0817 H   0  0  0  0  0  0  0  0  0  0  0  0
   18.4740    6.1985   10.9243 H   0  0  0  0  0  0  0  0  0  0  0  0
   20.1413    7.4020   12.3114 H   0  0  0  0  0  0  0  0  0  0  0  0
  1  2  2  0
  2  3  1  0
  2  4  1  0
  4  5  2  0
  5  6  1  0
  6  7  2  0
  7  8  1  0
  8  9  2  0
  8 10  1  0
 10 11  2  0
 10 12  1  0
 12 13  1  0
 13 14  1  0
 14 15  1  0
 15 16  2  0
 16 17  1  0
 17 18  2  0
 18 19  1  0
 19 20  2  0
 20 21  1  0
 21 22  2  0
 22 23  1  0
 23 24  2  0
 13 25  1  0
 25 26  2  0
 25 27  1  0
 12 28  1  0
 28 29  2  0
  9  4  1  0
 24 15  1  0
 28  7  1  0
 24 19  1  0
  5 30  1  0
  6 31  1  0
  9 32  1  0
 13 33  1  6
 14 34  1  0
 14 35  1  0
 16 36  1  0
 17 37  1  0
 18 38  1  0
 20 39  1  0
 21 40  1  0
 22 41  1  0
 23 42  1  0
M  CHG  2   3  -1  27  -1
M  END
>  <meeko>  (2) 
{"is_sidechain": [false], "free_energy": -7.901, "intermolecular_energy": -10.338, "internal_energy": -0.852}

$$$$
2r9w_ligand
     RDKit          3D

 42 45  0  0  0  0  0  0  0  0999 V2000
   27.7190    8.1400   20.7690 O   0  0  0  0  0  0  0  0  0  0  0  0
   27.1780    6.9970   20.6320 C   0  0  0  0  0  0  0  0  0  0  0  0
   27.6630    5.8950   21.0450 O   0  0  0  0  0  0  0  0  0  0  0  0
   25.8380    6.9400   19.9200 C   0  0  0  0  0  0  0  0  0  0  0  0
   24.8310    6.0400   20.3650 C   0  0  0  0  0  0  0  0  0  0  0  0
   23.5780    5.9740   19.7470 C   0  0  0  0  0  0  0  0  0  0  0  0
   23.3550    6.8190   18.6780 C   0  0  0  0  0  0  0  0  0  0  0  0
   24.3200    7.6970   18.2230 C   0  0  0  0  0  0  0  0  0  0  0  0
   25.5660    7.7820   18.8200 C   0  0  0  0  0  0  0  0  0  0  0  0
   23.7360    8.4470   17.1080 C   0  0  0  0  0  0  0  0  0  0  0  0
   24.3220    9.3280   16.5030 O   0  0  0  0  0  0  0  0  0  0  0  0
   22.4550    7.9810   16.9520 N   0  0  0  0  0  0  0  0  0  0  0  0
   21.5070    8.5080   15.9540 C   0  0  2  0  0  0  0  0  0  0  0  0
   22.0690    8.4360   14.5200 C   0  0  0  0  0  0  0  0  0  0  0  0
   21.3840    7.3940   13.6410 C   0  0  0  0  0  0  0  0  0  0  0  0
   20.0160    7.5910   13.3750 C   0  0  0  0  0  0  0  0  0  0  0  0
   19.2920    6.6760   12.6210 C   0  0  0  0  0  0  0  0  0  0  0  0
   19.9230    5.5460   12.1160 C   0  0  0  0  0  0  0  0  0  0  0  0
   21.2860    5.3140   12.3550 C   0  0  0  0  0  0  0  0  0  0  0  0
   21.8940    4.1540   11.8470 C   0  0  0  0  0  0  0  0  0  0  0  0
   23.2410    3.8870   12.0760 C   0  0  0  0  0  0  0  0  0  0  0  0
   24.0000    4.7830   12.8140 C   0  0  0  0  0  0  0  0  0  0  0  0
   23.4100    5.9430   13.3240 C   0  0  0  0  0  0  0  0  0  0  0  0
   22.0430    6.2430   13.1200 C   0  0  0  0  0  0  0  0  0  0  0  0
   20.9710    9.9330   16.2800 C   0  0  0  0  0  0  0  0  0  0  0  0
   20.8960   10.7300   15.2970 O   0  0  0  0  0  0  0  0  0  0  0  0
   20.7240   10.1750   17.5000 O   0  0  0  0  0  0  0  0  0  0  0  0
   22.1520    7.0140   17.8720 C   0  0  0  0  0  0  0  0  0  0  0  0
   21.1020    6.4370   18.0950 O   0  0  0  0  0  0  0  0  0  0  0  0
   25.0430    5.3783   21.2177 H   0  0  0  0  0  0  0  0  0  0  0  0
   22.8022    5.2776   20.0981 H   0  0  0  0  0  0  0  0  0  0  0  0
   26.3239    8.4867   18.4473 H   0  0  0  0  0  0  0  0  0  0  0  0
   20.6367    7.8377   16.0111 H   0  0  0  0  0  0  0  0  0  0  0  0
   21.9450    9.4223   14.0491 H   0  0  0  0  0  0  0  0  0  0  0  0
   23.1248    8.1392   14.6046 H   0  0  0  0  0  0  0  0  0  0  0  0
   19.5115    8.4847   13.7709 H   0  0  0  0  0  0  0  0  0  0  0  0
   18.2231    6.8456   12.4245 H   0  0  0  0  0  0  0  0  0  0  0  0
   19.3461    4.8231   11.5205 H   0  0  0  0  0  0  0  0  0  0  0  0
   21.2951    3.4440   11.2578 H   0  0  0  0  0  0  0  0  0  0  0  0
   23.7002    2.9717   11.6744 H   0  0  0  0  0  0  0  0  0  0  0  0
   25.0655    4.5809   12.9978 H   0  0  0  0  0  0  0  0  0  0  0  0
   24.0286    6.6449   13.9025 H   0  0  0  0  0  0  0  0  0  0  0  0
  1  2  2  0
  2  3  1  0
  2  4  1  0
  4  5  2  0
  5  6  1  0
  6  7  2  0
  7  8  1  0
  8  9  2  0
  8 10  1  0
 10 11  2  0
 10 12  1  0
 12 13  1  0
 13 14  1  0
 14 15  1  0
 15 16  2  0
 16 17  1  0
 17 18  2  0
 18 19  1  0
 19 20  2  0
 20 21  1  0
 21 22  2  0
 22 23  1  0
 23 24  2  0
 13 25  1  0
 25 26  2  0
 25 27  1  0
 12 28  1  0
 28 29  2  0
  9  4  1  0
 24 15  1  0
 28  7  1  0
 24 19  1  0
  5 30  1  0
  6 31  1  0
  9 32  1  0
 13 33  1  6
 14 34  1  0
 14 35  1  0
 16 36  1  0
 17 37  1  0
 18 38  1  0
 20 39  1  0
 21 40  1  0
 22 41  1  0
 23 42  1  0
M  CHG  2   3  -1  27  -1
M  END
>  <meeko>  (3) 
{"is_sidechain": [false], "free_energy": -7.831, "intermolecular_energy": -10.199, "internal_energy": -0.901}

$$$$
2r9w_ligand
     RDKit          3D

 42 45  0  0  0  0  0  0  0  0999 V2000
   25.0950    5.5420   21.1070 O   0  0  0  0  0  0  0  0  0  0  0  0
   24.2020    5.2760   20.2440 C   0  0  0  0  0  0  0  0  0  0  0  0
   23.3320    4.3520   20.3400 O   0  0  0  0  0  0  0  0  0  0  0  0
   24.1620    6.1350   18.9920 C   0  0  0  0  0  0  0  0  0  0  0  0
   25.3680    6.4770   18.3220 C   0  0  0  0  0  0  0  0  0  0  0  0
   25.3700    7.2490   17.1560 C   0  0  0  0  0  0  0  0  0  0  0  0
   24.1460    7.6750   16.6790 C   0  0  0  0  0  0  0  0  0  0  0  0
   22.9610    7.3620   17.3160 C   0  0  0  0  0  0  0  0  0  0  0  0
   22.9350    6.5970   18.4690 C   0  0  0  0  0  0  0  0  0  0  0  0
   21.8740    7.9460   16.5260 C   0  0  0  0  0  0  0  0  0  0  0  0
   20.6930    7.8250   16.8040 O   0  0  0  0  0  0  0  0  0  0  0  0
   22.4610    8.5780   15.4600 N   0  0  0  0  0  0  0  0  0  0  0  0
   21.7060    9.2640   14.3960 C   0  0  2  0  0  0  0  0  0  0  0  0
   22.1740    8.8460   12.9870 C   0  0  0  0  0  0  0  0  0  0  0  0
   21.4700    7.6050   12.4460 C   0  0  0  0  0  0  0  0  0  0  0  0
   20.1170    7.7510   12.0860 C   0  0  0  0  0  0  0  0  0  0  0  0
   19.3760    6.6700   11.6240 C   0  0  0  0  0  0  0  0  0  0  0  0
   19.9760    5.4220   11.5120 C   0  0  0  0  0  0  0  0  0  0  0  0
   21.3220    5.2350   11.8570 C   0  0  0  0  0  0  0  0  0  0  0  0
   21.8970    3.9570   11.7490 C   0  0  0  0  0  0  0  0  0  0  0  0
   23.2270    3.7340   12.0960 C   0  0  0  0  0  0  0  0  0  0  0  0
   24.0020    4.7900   12.5490 C   0  0  0  0  0  0  0  0  0  0  0  0
   23.4450    6.0680   12.6590 C   0  0  0  0  0  0  0  0  0  0  0  0
   22.0960    6.3310   12.3260 C   0  0  0  0  0  0  0  0  0  0  0  0
   21.6680   10.8130   14.5430 C   0  0  0  0  0  0  0  0  0  0  0  0
   22.0550   11.4710   13.5310 O   0  0  0  0  0  0  0  0  0  0  0  0
   21.3180   11.2610   15.6760 O   0  0  0  0  0  0  0  0  0  0  0  0
   23.8230    8.4420   15.4780 C   0  0  0  0  0  0  0  0  0  0  0  0
   24.6620    8.7870   14.6650 O   0  0  0  0  0  0  0  0  0  0  0  0
   26.3261    6.1247   18.7319 H   0  0  0  0  0  0  0  0  0  0  0  0
   26.3071    7.5061   16.6405 H   0  0  0  0  0  0  0  0  0  0  0  0
   21.9833    6.3554   18.9648 H   0  0  0  0  0  0  0  0  0  0  0  0
   20.6676    8.9243   14.5236 H   0  0  0  0  0  0  0  0  0  0  0  0
   21.9838    9.6810   12.2967 H   0  0  0  0  0  0  0  0  0  0  0  0
   23.2430    8.5988   13.0652 H   0  0  0  0  0  0  0  0  0  0  0  0
   19.6381    8.7376   12.1719 H   0  0  0  0  0  0  0  0  0  0  0  0
   18.3193    6.8018   11.3483 H   0  0  0  0  0  0  0  0  0  0  0  0
   19.3864    4.5680   11.1473 H   0  0  0  0  0  0  0  0  0  0  0  0
   21.2858    3.1184   11.3840 H   0  0  0  0  0  0  0  0  0  0  0  0
   23.6597    2.7263   12.0111 H   0  0  0  0  0  0  0  0  0  0  0  0
   25.0545    4.6230   12.8218 H   0  0  0  0  0  0  0  0  0  0  0  0
   24.0763    6.8951   13.0159 H   0  0  0  0  0  0  0  0  0  0  0  0
  1  2  2  0
  2  3  1  0
  2  4  1  0
  4  5  2  0
  5  6  1  0
  6  7  2  0
  7  8  1  0
  8  9  2  0
  8 10  1  0
 10 11  2  0
 10 12  1  0
 12 13  1  0
 13 14  1  0
 14 15  1  0
 15 16  2  0
 16 17  1  0
 17 18  2  0
 18 19  1  0
 19 20  2  0
 20 21  1  0
 21 22  2  0
 22 23  1  0
 23 24  2  0
 13 25  1  0
 25 26  2  0
 25 27  1  0
 12 28  1  0
 28 29  2  0
  9  4  1  0
 24 15  1  0
 28  7  1  0
 24 19  1  0
  5 30  1  0
  6 31  1  0
  9 32  1  0
 13 33  1  6
 14 34  1  0
 14 35  1  0
 16 36  1  0
 17 37  1  0
 18 38  1  0
 20 39  1  0
 21 40  1  0
 22 41  1  0
 23 42  1  0
M  CHG  2   3  -1  27  -1
M  END
>  <meeko>  (4) 
{"is_sidechain": [false], "free_energy": -7.754, "intermolecular_energy": -9.915, "internal_energy": -1.085}

$$$$
2r9w_ligand
     RDKit          3D

 42 45  0  0  0  0  0  0  0  0999 V2000
   26.5840    7.0880   22.5740 O   0  0  0  0  0  0  0  0  0  0  0  0
   27.1010    7.4390   21.4670 C   0  0  0  0  0  0  0  0  0  0  0  0
   28.1570    8.1370   21.3320 O   0  0  0  0  0  0  0  0  0  0  0  0
   26.4070    6.9830   20.1960 C   0  0  0  0  0  0  0  0  0  0  0  0
   26.2150    5.5970   19.9450 C   0  0  0  0  0  0  0  0  0  0  0  0
   25.5620    5.1400   18.7960 C   0  0  0  0  0  0  0  0  0  0  0  0
   25.1110    6.0930   17.9040 C   0  0  0  0  0  0  0  0  0  0  0  0
   25.2920    7.4450   18.1220 C   0  0  0  0  0  0  0  0  0  0  0  0
   25.9330    7.9210   19.2530 C   0  0  0  0  0  0  0  0  0  0  0  0
   24.6690    8.1540   17.0010 C   0  0  0  0  0  0  0  0  0  0  0  0
   24.6280    9.3690   16.9060 O   0  0  0  0  0  0  0  0  0  0  0  0
   24.1510    7.1940   16.1710 N   0  0  0  0  0  0  0  0  0  0  0  0
   23.4010    7.4940   14.9380 C   0  0  2  0  0  0  0  0  0  0  0  0
   22.0780    6.7060   14.8520 C   0  0  0  0  0  0  0  0  0  0  0  0
   20.8680    7.4740   15.3740 C   0  0  0  0  0  0  0  0  0  0  0  0
   20.1740    8.2710   14.4440 C   0  0  0  0  0  0  0  0  0  0  0  0
   19.0850    9.0420   14.8290 C   0  0  0  0  0  0  0  0  0  0  0  0
   18.6670    9.0300   16.1550 C   0  0  0  0  0  0  0  0  0  0  0  0
   19.3290    8.2470   17.1120 C   0  0  0  0  0  0  0  0  0  0  0  0
   18.8940    8.2680   18.4480 C   0  0  0  0  0  0  0  0  0  0  0  0
   19.5360    7.5130   19.4270 C   0  0  0  0  0  0  0  0  0  0  0  0
   20.6190    6.7200   19.0780 C   0  0  0  0  0  0  0  0  0  0  0  0
   21.0610    6.6870   17.7520 C   0  0  0  0  0  0  0  0  0  0  0  0
   20.4410    7.4480   16.7340 C   0  0  0  0  0  0  0  0  0  0  0  0
   24.2370    7.3380   13.6340 C   0  0  0  0  0  0  0  0  0  0  0  0
   24.3270    6.1600   13.1760 O   0  0  0  0  0  0  0  0  0  0  0  0
   24.7960    8.3890   13.1970 O   0  0  0  0  0  0  0  0  0  0  0  0
   24.3630    5.9330   16.6590 C   0  0  0  0  0  0  0  0  0  0  0  0
   23.9800    4.8510   16.2490 O   0  0  0  0  0  0  0  0  0  0  0  0
   26.5903    4.8641   20.6744 H   0  0  0  0  0  0  0  0  0  0  0  0
   25.4137    4.0660   18.6103 H   0  0  0  0  0  0  0  0  0  0  0  0
   26.0694    9.0008   19.4127 H   0  0  0  0  0  0  0  0  0  0  0  0
   23.1542    8.5634   15.0127 H   0  0  0  0  0  0  0  0  0  0  0  0
   21.8963    6.4475   13.7983 H   0  0  0  0  0  0  0  0  0  0  0  0
   22.1927    5.8175   15.4902 H   0  0  0  0  0  0  0  0  0  0  0  0
   20.5001    8.2833   13.3935 H   0  0  0  0  0  0  0  0  0  0  0  0
   18.5556    9.6593   14.0883 H   0  0  0  0  0  0  0  0  0  0  0  0
   17.8053    9.6430   16.4577 H   0  0  0  0  0  0  0  0  0  0  0  0
   18.0314    8.8916   18.7257 H   0  0  0  0  0  0  0  0  0  0  0  0
   19.1865    7.5456   20.4695 H   0  0  0  0  0  0  0  0  0  0  0  0
   21.1297    6.1176   19.8437 H   0  0  0  0  0  0  0  0  0  0  0  0
   21.9184    6.0487   17.4923 H   0  0  0  0  0  0  0  0  0  0  0  0
  1  2  2  0
  2  3  1  0
  2  4  1  0
  4  5  2  0
  5  6  1  0
  6  7  2  0
  7  8  1  0
  8  9  2  0
  8 10  1  0
 10 11  2  0
 10 12  1  0
 12 13  1  0
 13 14  1  0
 14 15  1  0
 15 16  2  0
 16 17  1  0
 17 18  2  0
 18 19  1  0
 19 20  2  0
 20 21  1  0
 21 22  2  0
 22 23  1  0
 23 24  2  0
 13 25  1  0
 25 26  2  0
 25 27  1  0
 12 28  1  0
 28 29  2  0
  9  4  1  0
 24 15  1  0
 28  7  1  0
 24 19  1  0
  5 30  1  0
  6 31  1  0
  9 32  1  0
 13 33  1  1
 14 34  1  0
 14 35  1  0
 16 36  1  0
 17 37  1  0
 18 38  1  0
 20 39  1  0
 21 40  1  0
 22 41  1  0
 23 42  1  0
M  CHG  2   3  -1  27  -1
M  END
>  <meeko>  (5) 
{"is_sidechain": [false], "free_energy": -7.719, "intermolecular_energy": -9.861, "internal_energy": -1.094}

$$$$
2r9w_ligand
     RDKit          3D

 42 45  0  0  0  0  0  0  0  0999 V2000
   27.5700    6.8470   22.4190 O   0  0  0  0  0  0  0  0  0  0  0  0
   27.5840    7.5200   21.3400 C   0  0  0  0  0  0  0  0  0  0  0  0
   28.3060    8.5440   21.1150 O   0  0  0  0  0  0  0  0  0  0  0  0
   26.6680    7.0600   20.2190 C   0  0  0  0  0  0  0  0  0  0  0  0
   26.6390    5.6920   19.8360 C   0  0  0  0  0  0  0  0  0  0  0  0
   25.7930    5.2290   18.8230 C   0  0  0  0  0  0  0  0  0  0  0  0
   24.9850    6.1590   18.2000 C   0  0  0  0  0  0  0  0  0  0  0  0
   25.0000    7.4950   18.5500 C   0  0  0  0  0  0  0  0  0  0  0  0
   25.8270    7.9760   19.5510 C   0  0  0  0  0  0  0  0  0  0  0  0
   24.0080    8.1760   17.7150 C   0  0  0  0  0  0  0  0  0  0  0  0
   23.7520    9.3660   17.7970 O   0  0  0  0  0  0  0  0  0  0  0  0
   23.4510    7.2160   16.9090 N   0  0  0  0  0  0  0  0  0  0  0  0
   22.3720    7.4840   15.9400 C   0  0  2  0  0  0  0  0  0  0  0  0
   22.7410    8.6100   14.9530 C   0  0  0  0  0  0  0  0  0  0  0  0
   22.3550    8.3130   13.5070 C   0  0  0  0  0  0  0  0  0  0  0  0
   21.4790    9.2240   12.8860 C   0  0  0  0  0  0  0  0  0  0  0  0
   21.0340    9.0190   11.5850 C   0  0  0  0  0  0  0  0  0  0  0  0
   21.4590    7.8990   10.8800 C   0  0  0  0  0  0  0  0  0  0  0  0
   22.3340    6.9710   11.4610 C   0  0  0  0  0  0  0  0  0  0  0  0
   22.7330    5.8390   10.7300 C   0  0  0  0  0  0  0  0  0  0  0  0
   23.5910    4.8900   11.2810 C   0  0  0  0  0  0  0  0  0  0  0  0
   24.0660    5.0660   12.5720 C   0  0  0  0  0  0  0  0  0  0  0  0
   23.6800    6.1880   13.3100 C   0  0  0  0  0  0  0  0  0  0  0  0
   22.8030    7.1670   12.7880 C   0  0  0  0  0  0  0  0  0  0  0  0
   20.9820    7.7370   16.5930 C   0  0  0  0  0  0  0  0  0  0  0  0
   20.4730    6.7490   17.2010 O   0  0  0  0  0  0  0  0  0  0  0  0
   20.4700    8.8800   16.3970 O   0  0  0  0  0  0  0  0  0  0  0  0
   23.9770    5.9780   17.1580 C   0  0  0  0  0  0  0  0  0  0  0  0
   23.6760    4.8860   16.7080 O   0  0  0  0  0  0  0  0  0  0  0  0
   27.2995    4.9781   20.3499 H   0  0  0  0  0  0  0  0  0  0  0  0
   25.7723    4.1677   18.5346 H   0  0  0  0  0  0  0  0  0  0  0  0
   25.8286    9.0430   19.8184 H   0  0  0  0  0  0  0  0  0  0  0  0
   22.2698    6.5507   15.3669 H   0  0  0  0  0  0  0  0  0  0  0  0
   22.2257    9.5295   15.2676 H   0  0  0  0  0  0  0  0  0  0  0  0
   23.8360    8.7113   14.9777 H   0  0  0  0  0  0  0  0  0  0  0  0
   21.1412   10.1126   13.4395 H   0  0  0  0  0  0  0  0  0  0  0  0
   20.3486    9.7400   11.1156 H   0  0  0  0  0  0  0  0  0  0  0  0
   21.1035    7.7387    9.8514 H   0  0  0  0  0  0  0  0  0  0  0  0
   22.3610    5.6998    9.7042 H   0  0  0  0  0  0  0  0  0  0  0  0
   23.8896    4.0074   10.6964 H   0  0  0  0  0  0  0  0  0  0  0  0
   24.7459    4.3231   13.0146 H   0  0  0  0  0  0  0  0  0  0  0  0
   24.0711    6.3139   14.3304 H   0  0  0  0  0  0  0  0  0  0  0  0
  1  2  2  0
  2  3  1  0
  2  4  1  0
  4  5  2  0
  5  6  1  0
  6  7  2  0
  7  8  1  0
  8  9  2  0
  8 10  1  0
 10 11  2  0
 10 12  1  0
 12 13  1  0
 13 14  1  0
 14 15  1  0
 15 16  2  0
 16 17  1  0
 17 18  2  0
 18 19  1  0
 19 20  2  0
 20 21  1  0
 21 22  2  0
 22 23  1  0
 23 24  2  0
 13 25  1  0
 25 26  2  0
 25 27  1  0
 12 28  1  0
 28 29  2  0
  9  4  1  0
 24 15  1  0
 28  7  1  0
 24 19  1  0
  5 30  1  0
  6 31  1  0
  9 32  1  0
 13 33  1  6
 14 34  1  0
 14 35  1  0
 16 36  1  0
 17 37  1  0
 18 38  1  0
 20 39  1  0
 21 40  1  0
 22 41  1  0
 23 42  1  0
M  CHG  2   3  -1  27  -1
M  END
>  <meeko>  (6) 
{"is_sidechain": [false], "free_energy": -7.574, "intermolecular_energy": -10.122, "internal_energy": -0.645}

$$$$
2r9w_ligand
     RDKit          3D

 42 45  0  0  0  0  0  0  0  0999 V2000
   28.3780    8.0720   21.5350 O   0  0  0  0  0  0  0  0  0  0  0  0
   27.2410    7.5200   21.6690 C   0  0  0  0  0  0  0  0  0  0  0  0
   26.6070    7.3900   22.7650 O   0  0  0  0  0  0  0  0  0  0  0  0
   26.5780    6.9740   20.4170 C   0  0  0  0  0  0  0  0  0  0  0  0
   26.5310    5.5720   20.1870 C   0  0  0  0  0  0  0  0  0  0  0  0
   25.9120    5.0320   19.0550 C   0  0  0  0  0  0  0  0  0  0  0  0
   25.3470    5.9190   18.1600 C   0  0  0  0  0  0  0  0  0  0  0  0
   25.3850    7.2850   18.3580 C   0  0  0  0  0  0  0  0  0  0  0  0
   25.9910    7.8420   19.4710 C   0  0  0  0  0  0  0  0  0  0  0  0
   24.6720    7.9080   17.2400 C   0  0  0  0  0  0  0  0  0  0  0  0
   24.4990    9.1100   17.1310 O   0  0  0  0  0  0  0  0  0  0  0  0
   24.2450    6.8860   16.4320 N   0  0  0  0  0  0  0  0  0  0  0  0
   23.4470    7.0870   15.2080 C   0  0  2  0  0  0  0  0  0  0  0  0
   22.2690    6.0960   15.1100 C   0  0  0  0  0  0  0  0  0  0  0  0
   21.1920    6.5150   14.1140 C   0  0  0  0  0  0  0  0  0  0  0  0
   20.4640    7.6800   14.4210 C   0  0  0  0  0  0  0  0  0  0  0  0
   19.4340    8.1210   13.6000 C   0  0  0  0  0  0  0  0  0  0  0  0
   19.1120    7.4040   12.4540 C   0  0  0  0  0  0  0  0  0  0  0  0
   19.8150    6.2400   12.1100 C   0  0  0  0  0  0  0  0  0  0  0  0
   19.4560    5.5270   10.9540 C   0  0  0  0  0  0  0  0  0  0  0  0
   20.1240    4.3600   10.5910 C   0  0  0  0  0  0  0  0  0  0  0  0
   21.1660    3.8950   11.3780 C   0  0  0  0  0  0  0  0  0  0  0  0
   21.5370    4.5960   12.5300 C   0  0  0  0  0  0  0  0  0  0  0  0
   20.8750    5.7780   12.9360 C   0  0  0  0  0  0  0  0  0  0  0  0
   24.2870    7.0970   13.8980 C   0  0  0  0  0  0  0  0  0  0  0  0
   24.3850    8.2190   13.3170 O   0  0  0  0  0  0  0  0  0  0  0  0
   24.7340    5.9760   13.5090 O   0  0  0  0  0  0  0  0  0  0  0  0
   24.5990    5.6620   16.9310 C   0  0  0  0  0  0  0  0  0  0  0  0
   24.3260    4.5400   16.5420 O   0  0  0  0  0  0  0  0  0  0  0  0
   26.9938    4.8937   20.9189 H   0  0  0  0  0  0  0  0  0  0  0  0
   25.8767    3.9458   18.8847 H   0  0  0  0  0  0  0  0  0  0  0  0
   26.0145    8.9323   19.6145 H   0  0  0  0  0  0  0  0  0  0  0  0
   23.0309    8.1004   15.3070 H   0  0  0  0  0  0  0  0  0  0  0  0
   22.6644    5.1169   14.8016 H   0  0  0  0  0  0  0  0  0  0  0  0
   21.7934    6.0652   16.1014 H   0  0  0  0  0  0  0  0  0  0  0  0
   20.7152    8.2511   15.3269 H   0  0  0  0  0  0  0  0  0  0  0  0
   18.8758    9.0336   13.8558 H   0  0  0  0  0  0  0  0  0  0  0  0
   18.2940    7.7543   11.8073 H   0  0  0  0  0  0  0  0  0  0  0  0
   18.6331    5.8968   10.3246 H   0  0  0  0  0  0  0  0  0  0  0  0
   19.8266    3.8108    9.6855 H   0  0  0  0  0  0  0  0  0  0  0  0
   21.7005    2.9757   11.0968 H   0  0  0  0  0  0  0  0  0  0  0  0
   22.3701    4.2160   13.1396 H   0  0  0  0  0  0  0  0  0  0  0  0
  1  2  2  0
  2  3  1  0
  2  4  1  0
  4  5  2  0
  5  6  1  0
  6  7  2  0
  7  8  1  0
  8  9  2  0
  8 10  1  0
 10 11  2  0
 10 12  1  0
 12 13  1  0
 13 14  1  0
 14 15  1  0
 15 16  2  0
 16 17  1  0
 17 18  2  0
 18 19  1  0
 19 20  2  0
 20 21  1  0
 21 22  2  0
 22 23  1  0
 23 24  2  0
 13 25  1  0
 25 26  2  0
 25 27  1  0
 12 28  1  0
 28 29  2  0
  9  4  1  0
 24 15  1  0
 28  7  1  0
 24 19  1  0
  5 30  1  0
  6 31  1  0
  9 32  1  0
 13 33  1  1
 14 34  1  0
 14 35  1  0
 16 36  1  0
 17 37  1  0
 18 38  1  0
 20 39  1  0
 21 40  1  0
 22 41  1  0
 23 42  1  0
M  CHG  2   3  -1  27  -1
M  END
>  <meeko>  (7) 
{"is_sidechain": [false], "free_energy": -7.392, "intermolecular_energy": -9.834, "internal_energy": -0.698}

$$$$
2r9w_ligand
     RDKit          3D

 42 45  0  0  0  0  0  0  0  0999 V2000
   23.7610    4.4020   20.3480 O   0  0  0  0  0  0  0  0  0  0  0  0
   24.4950    5.4280   20.1950 C   0  0  0  0  0  0  0  0  0  0  0  0
   25.1740    5.9960   21.1100 O   0  0  0  0  0  0  0  0  0  0  0  0
   24.5760    6.0270   18.8020 C   0  0  0  0  0  0  0  0  0  0  0  0
   25.6560    6.8840   18.4550 C   0  0  0  0  0  0  0  0  0  0  0  0
   25.7750    7.4380   17.1760 C   0  0  0  0  0  0  0  0  0  0  0  0
   24.7940    7.1210   16.2570 C   0  0  0  0  0  0  0  0  0  0  0  0
   23.7320    6.2960   16.5720 C   0  0  0  0  0  0  0  0  0  0  0  0
   23.5940    5.7360   17.8300 C   0  0  0  0  0  0  0  0  0  0  0  0
   22.9140    6.1580   15.3650 C   0  0  0  0  0  0  0  0  0  0  0  0
   21.9120    5.4660   15.3000 O   0  0  0  0  0  0  0  0  0  0  0  0
   23.5250    6.9050   14.3910 N   0  0  0  0  0  0  0  0  0  0  0  0
   23.0360    7.0010   13.0030 C   0  0  2  0  0  0  0  0  0  0  0  0
   21.5760    7.4900   12.9310 C   0  0  0  0  0  0  0  0  0  0  0  0
   21.3070    8.7520   13.7460 C   0  0  0  0  0  0  0  0  0  0  0  0
   22.1320    9.8620   13.4850 C   0  0  0  0  0  0  0  0  0  0  0  0
   21.9960   11.0430   14.2030 C   0  0  0  0  0  0  0  0  0  0  0  0
   21.0290   11.1380   15.1970 C   0  0  0  0  0  0  0  0  0  0  0  0
   20.1850   10.0560   15.4860 C   0  0  0  0  0  0  0  0  0  0  0  0
   19.2280   10.1750   16.5080 C   0  0  0  0  0  0  0  0  0  0  0  0
   18.3820    9.1160   16.8300 C   0  0  0  0  0  0  0  0  0  0  0  0
   18.4800    7.9250   16.1270 C   0  0  0  0  0  0  0  0  0  0  0  0
   19.4240    7.7930   15.1060 C   0  0  0  0  0  0  0  0  0  0  0  0
   20.3070    8.8420   14.7570 C   0  0  0  0  0  0  0  0  0  0  0  0
   23.2400    5.7030   12.1680 C   0  0  0  0  0  0  0  0  0  0  0  0
   24.4310    5.4610   11.8100 O   0  0  0  0  0  0  0  0  0  0  0  0
   22.1910    5.0530   11.8760 O   0  0  0  0  0  0  0  0  0  0  0  0
   24.6690    7.4980   14.8500 C   0  0  0  0  0  0  0  0  0  0  0  0
   25.5110    8.1560   14.2620 O   0  0  0  0  0  0  0  0  0  0  0  0
   26.4185    7.1177   19.2126 H   0  0  0  0  0  0  0  0  0  0  0  0
   26.6146    8.0983   16.9133 H   0  0  0  0  0  0  0  0  0  0  0  0
   22.7420    5.0816   18.0664 H   0  0  0  0  0  0  0  0  0  0  0  0
   23.6725    7.7649   12.5326 H   0  0  0  0  0  0  0  0  0  0  0  0
   21.3317    7.6982   11.8789 H   0  0  0  0  0  0  0  0  0  0  0  0
   20.9503    6.6931   13.3594 H   0  0  0  0  0  0  0  0  0  0  0  0
   22.8980    9.7929   12.6985 H   0  0  0  0  0  0  0  0  0  0  0  0
   22.6509   11.8998   13.9860 H   0  0  0  0  0  0  0  0  0  0  0  0
   20.9244   12.0745   15.7645 H   0  0  0  0  0  0  0  0  0  0  0  0
   19.1454   11.1208   17.0635 H   0  0  0  0  0  0  0  0  0  0  0  0
   17.6415    9.2240   17.6363 H   0  0  0  0  0  0  0  0  0  0  0  0
   17.8146    7.0844   16.3732 H   0  0  0  0  0  0  0  0  0  0  0  0
   19.4828    6.8426   14.5553 H   0  0  0  0  0  0  0  0  0  0  0  0
  1  2  2  0
  2  3  1  0
  2  4  1  0
  4  5  2  0
  5  6  1  0
  6  7  2  0
  7  8  1  0
  8  9  2  0
  8 10  1  0
 10 11  2  0
 10 12  1  0
 12 13  1  0
 13 14  1  0
 14 15  1  0
 15 16  2  0
 16 17  1  0
 17 18  2  0
 18 19  1  0
 19 20  2  0
 20 21  1  0
 21 22  2  0
 22 23  1  0
 23 24  2  0
 13 25  1  0
 25 26  2  0
 25 27  1  0
 12 28  1  0
 28 29  2  0
  9  4  1  0
 24 15  1  0
 28  7  1  0
 24 19  1  0
  5 30  1  0
  6 31  1  0
  9 32  1  0
 13 33  1  6
 14 34  1  0
 14 35  1  0
 16 36  1  0
 17 37  1  0
 18 38  1  0
 20 39  1  0
 21 40  1  0
 22 41  1  0
 23 42  1  0
M  CHG  2   3  -1  27  -1
M  END
>  <meeko>  (8) 
{"is_sidechain": [false], "free_energy": -7.341, "intermolecular_energy": -9.278, "internal_energy": -1.189}

$$$$
2r9w_ligand
     RDKit          3D

 42 45  0  0  0  0  0  0  0  0999 V2000
   26.7520    7.8870   20.4730 O   0  0  0  0  0  0  0  0  0  0  0  0
   26.6540    6.7060   20.0130 C   0  0  0  0  0  0  0  0  0  0  0  0
   27.3510    5.7070   20.3820 O   0  0  0  0  0  0  0  0  0  0  0  0
   25.6130    6.4620   18.9340 C   0  0  0  0  0  0  0  0  0  0  0  0
   24.3800    5.8360   19.2610 C   0  0  0  0  0  0  0  0  0  0  0  0
   23.3900    5.6130   18.2980 C   0  0  0  0  0  0  0  0  0  0  0  0
   23.6600    6.0230   17.0070 C   0  0  0  0  0  0  0  0  0  0  0  0
   24.8530    6.6270   16.6640 C   0  0  0  0  0  0  0  0  0  0  0  0
   25.8470    6.8600   17.6000 C   0  0  0  0  0  0  0  0  0  0  0  0
   24.7840    6.9510   15.2370 C   0  0  0  0  0  0  0  0  0  0  0  0
   25.6710    7.5220   14.6260 O   0  0  0  0  0  0  0  0  0  0  0  0
   23.5560    6.5250   14.8000 N   0  0  0  0  0  0  0  0  0  0  0  0
   23.0710    6.7010   13.4180 C   0  0  2  0  0  0  0  0  0  0  0  0
   21.5940    7.1430   13.3700 C   0  0  0  0  0  0  0  0  0  0  0  0
   21.3500    8.5400   13.9340 C   0  0  0  0  0  0  0  0  0  0  0  0
   22.2580    9.5450   13.5500 C   0  0  0  0  0  0  0  0  0  0  0  0
   22.1470   10.8390   14.0420 C   0  0  0  0  0  0  0  0  0  0  0  0
   21.1240   11.1540   14.9300 C   0  0  0  0  0  0  0  0  0  0  0  0
   20.1970   10.1820   15.3340 C   0  0  0  0  0  0  0  0  0  0  0  0
   19.1840   10.5250   16.2460 C   0  0  0  0  0  0  0  0  0  0  0  0
   18.2560    9.5820   16.6790 C   0  0  0  0  0  0  0  0  0  0  0  0
   18.3260    8.2830   16.2000 C   0  0  0  0  0  0  0  0  0  0  0  0
   19.3260    7.9280   15.2900 C   0  0  0  0  0  0  0  0  0  0  0  0
   20.2930    8.8550   14.8360 C   0  0  0  0  0  0  0  0  0  0  0  0
   23.3230    5.4720   12.4960 C   0  0  0  0  0  0  0  0  0  0  0  0
   24.3430    5.5470   11.7480 O   0  0  0  0  0  0  0  0  0  0  0  0
   22.4530    4.5510   12.5380 O   0  0  0  0  0  0  0  0  0  0  0  0
   22.8200    5.9730   15.8130 C   0  0  0  0  0  0  0  0  0  0  0  0
   21.6700    5.5700   15.8260 O   0  0  0  0  0  0  0  0  0  0  0  0
   24.1992    5.5184   20.2985 H   0  0  0  0  0  0  0  0  0  0  0  0
   22.4360    5.1311   18.5582 H   0  0  0  0  0  0  0  0  0  0  0  0
   26.7928    7.3420   17.3118 H   0  0  0  0  0  0  0  0  0  0  0  0
   23.6834    7.5170   13.0068 H   0  0  0  0  0  0  0  0  0  0  0  0
   21.2620    7.1296   12.3214 H   0  0  0  0  0  0  0  0  0  0  0  0
   21.0289    6.4402   13.9999 H   0  0  0  0  0  0  0  0  0  0  0  0
   23.0693    9.3012   12.8483 H   0  0  0  0  0  0  0  0  0  0  0  0
   22.8653   11.6117   13.7306 H   0  0  0  0  0  0  0  0  0  0  0  0
   21.0408   12.1789   15.3206 H   0  0  0  0  0  0  0  0  0  0  0  0
   19.1235   11.5562   16.6241 H   0  0  0  0  0  0  0  0  0  0  0  0
   17.4722    9.8658   17.3967 H   0  0  0  0  0  0  0  0  0  0  0  0
   17.5954    7.5323   16.5357 H   0  0  0  0  0  0  0  0  0  0  0  0
   19.3620    6.8945   14.9150 H   0  0  0  0  0  0  0  0  0  0  0  0
  1  2  2  0
  2  3  1  0
  2  4  1  0
  4  5  2  0
  5  6  1  0
  6  7  2  0
  7  8  1  0
  8  9  2  0
  8 10  1  0
 10 11  2  0
 10 12  1  0
 12 13  1  0
 13 14  1  0
 14 15  1  0
 15 16  2  0
 16 17  1  0
 17 18  2  0
 18 19  1  0
 19 20  2  0
 20 21  1  0
 21 22  2  0
 22 23  1  0
 23 24  2  0
 13 25  1  0
 25 26  2  0
 25 27  1  0
 12 28  1  0
 28 29  2  0
  9  4  1  0
 24 15  1  0
 28  7  1  0
 24 19  1  0
  5 30  1  0
  6 31  1  0
  9 32  1  0
 13 33  1  6
 14 34  1  0
 14 35  1  0
 16 36  1  0
 17 37  1  0
 18 38  1  0
 20 39  1  0
 21 40  1  0
 22 41  1  0
 23 42  1  0
M  CHG  2   3  -1  27  -1
M  END
>  <meeko>  (9) 
{"is_sidechain": [false], "free_energy": -7.11, "intermolecular_energy": -9.284, "internal_energy": -0.884}

$$$$
