5c28_ligand
     RDKit          3D

 22 23  0  0  0  0  0  0  0  0999 V2000
    3.0960   12.3370   45.7600 C   0  0  0  0  0  0  0  0  0  0  0  0
    3.4130   12.6370   44.3300 C   0  0  0  0  0  0  0  0  0  0  0  0
    2.9360   13.7350   43.6430 C   0  0  0  0  0  0  0  0  0  0  0  0
    2.0970   14.6780   44.2450 N   0  0  0  0  0  0  0  0  0  0  0  0
    3.2420   13.9720   42.3610 N   0  0  0  0  0  0  0  0  0  0  0  0
    4.0470   13.1120   41.7110 C   0  0  0  0  0  0  0  0  0  0  0  0
    4.3810   13.3900   40.2670 C   0  0  0  0  0  0  0  0  0  0  0  0
    4.5780   14.8130   39.7910 C   0  0  0  0  0  0  0  0  0  0  0  0
    3.3600   14.0510   39.3650 C   0  0  0  0  0  0  0  0  0  0  0  0
    4.5540   12.0170   42.2880 N   0  0  0  0  0  0  0  0  0  0  0  0
    4.2250   11.8160   43.5710 C   0  0  0  0  0  0  0  0  0  0  0  0
    4.9360   10.3810   44.2120 Cl  0  0  0  0  0  0  0  0  0  0  0  0
    3.7387   12.9452   46.4134 H   0  0  0  0  0  0  0  0  0  0  0  0
    2.0407   12.5749   45.9593 H   0  0  0  0  0  0  0  0  0  0  0  0
    3.2754   11.2702   45.9593 H   0  0  0  0  0  0  0  0  0  0  0  0
    2.5940   15.1860   44.9690 H   0  0  0  0  0  0  0  0  0  0  0  0
    1.2920   14.2220   44.6640 H   0  0  0  0  0  0  0  0  0  0  0  0
    4.9750   12.4649   40.2302 H   0  0  0  0  0  0  0  0  0  0  0  0
    4.4829   15.6476   40.5012 H   0  0  0  0  0  0  0  0  0  0  0  0
    5.3802   15.3507   39.2643 H   0  0  0  0  0  0  0  0  0  0  0  0
    2.3724   14.3270   39.7632 H   0  0  0  0  0  0  0  0  0  0  0  0
    2.9010   13.7995   38.3975 H   0  0  0  0  0  0  0  0  0  0  0  0
  1  2  1  0
  2  3  2  0
  3  4  1  0
  3  5  1  0
  5  6  2  0
  6  7  1  0
  7  8  1  0
  8  9  1  0
  6 10  1  0
 10 11  2  0
 11 12  1  0
 11  2  1  0
  9  7  1  0
  1 13  1  0
  1 14  1  0
  1 15  1  0
  4 16  1  0
  4 17  1  0
  7 18  1  0
  8 19  1  0
  8 20  1  0
  9 21  1  0
  9 22  1  0
M  END
>  <meeko>  (1) 
{"is_sidechain": [false], "free_energy": -6.252, "intermolecular_energy": -6.8, "internal_energy": 0.302}

$$$$
5c28_ligand
     RDKit          3D

 22 23  0  0  0  0  0  0  0  0999 V2000
    2.3090   13.9340   44.2510 C   0  0  0  0  0  0  0  0  0  0  0  0
    3.3760   12.8880   44.2530 C   0  0  0  0  0  0  0  0  0  0  0  0
    3.7080   12.1210   45.3520 C   0  0  0  0  0  0  0  0  0  0  0  0
    3.0560   12.2660   46.5800 N   0  0  0  0  0  0  0  0  0  0  0  0
    4.6720   11.1910   45.3170 N   0  0  0  0  0  0  0  0  0  0  0  0
    5.3450   10.9890   44.1700 C   0  0  0  0  0  0  0  0  0  0  0  0
    6.4290    9.9410   44.1460 C   0  0  0  0  0  0  0  0  0  0  0  0
    7.0600    9.5270   42.8350 C   0  0  0  0  0  0  0  0  0  0  0  0
    6.1530    8.5760   43.5540 C   0  0  0  0  0  0  0  0  0  0  0  0
    5.1010   11.6860   43.0540 N   0  0  0  0  0  0  0  0  0  0  0  0
    4.1300   12.6060   43.1300 C   0  0  0  0  0  0  0  0  0  0  0  0
    3.8990   13.4370   41.6360 Cl  0  0  0  0  0  0  0  0  0  0  0  0
    2.0462   14.1917   45.2876 H   0  0  0  0  0  0  0  0  0  0  0  0
    2.6764   14.8316   43.7320 H   0  0  0  0  0  0  0  0  0  0  0  0
    1.4189   13.5488   43.7320 H   0  0  0  0  0  0  0  0  0  0  0  0
    2.4780   13.1000   46.5800 H   0  0  0  0  0  0  0  0  0  0  0  0
    3.7310   12.3400   47.3350 H   0  0  0  0  0  0  0  0  0  0  0  0
    6.8048   10.3142   45.1101 H   0  0  0  0  0  0  0  0  0  0  0  0
    6.7312    9.9951   41.8954 H   0  0  0  0  0  0  0  0  0  0  0  0
    8.0897    9.4769   42.4513 H   0  0  0  0  0  0  0  0  0  0  0  0
    5.1593    8.3470   43.1416 H   0  0  0  0  0  0  0  0  0  0  0  0
    6.2430    7.5409   43.9152 H   0  0  0  0  0  0  0  0  0  0  0  0
  1  2  1  0
  2  3  2  0
  3  4  1  0
  3  5  1  0
  5  6  2  0
  6  7  1  0
  7  8  1  0
  8  9  1  0
  6 10  1  0
 10 11  2  0
 11 12  1  0
 11  2  1  0
  9  7  1  0
  1 13  1  0
  1 14  1  0
  1 15  1  0
  4 16  1  0
  4 17  1  0
  7 18  1  0
  8 19  1  0
  8 20  1  0
  9 21  1  0
  9 22  1  0
M  END
>  <meeko>  (2) 
{"is_sidechain": [false], "free_energy": -5.978, "intermolecular_energy": -6.243, "internal_energy": 0.043}

$$$$
5c28_ligand
     RDKit          3D

 22 23  0  0  0  0  0  0  0  0999 V2000
    2.4890   14.2030   43.9040 C   0  0  0  0  0  0  0  0  0  0  0  0
    3.4180   13.0940   43.5300 C   0  0  0  0  0  0  0  0  0  0  0  0
    4.0050   12.9580   42.2880 C   0  0  0  0  0  0  0  0  0  0  0  0
    3.7690   13.8710   41.2540 N   0  0  0  0  0  0  0  0  0  0  0  0
    4.8340   11.9490   41.9880 N   0  0  0  0  0  0  0  0  0  0  0  0
    5.1120   11.0300   42.9300 C   0  0  0  0  0  0  0  0  0  0  0  0
    6.0460    9.8990   42.5770 C   0  0  0  0  0  0  0  0  0  0  0  0
    6.8740    9.2320   43.6530 C   0  0  0  0  0  0  0  0  0  0  0  0
    7.5440   10.1040   42.6350 C   0  0  0  0  0  0  0  0  0  0  0  0
    4.5890   11.0710   44.1600 N   0  0  0  0  0  0  0  0  0  0  0  0
    3.7650   12.0960   44.4200 C   0  0  0  0  0  0  0  0  0  0  0  0
    3.1550   12.0510   46.0330 Cl  0  0  0  0  0  0  0  0  0  0  0  0
    2.4277   14.2761   44.9999 H   0  0  0  0  0  0  0  0  0  0  0  0
    2.8662   15.1514   43.4937 H   0  0  0  0  0  0  0  0  0  0  0  0
    1.4892   13.9979   43.4937 H   0  0  0  0  0  0  0  0  0  0  0  0
    4.3740   14.6800   41.3490 H   0  0  0  0  0  0  0  0  0  0  0  0
    2.8040   14.1850   41.2700 H   0  0  0  0  0  0  0  0  0  0  0  0
    5.3332    9.5542   41.8135 H   0  0  0  0  0  0  0  0  0  0  0  0
    6.7926    9.5695   44.6968 H   0  0  0  0  0  0  0  0  0  0  0  0
    7.0098    8.1961   43.9972 H   0  0  0  0  0  0  0  0  0  0  0  0
    7.9535   11.0806   42.9326 H   0  0  0  0  0  0  0  0  0  0  0  0
    8.3735    9.9713   41.9249 H   0  0  0  0  0  0  0  0  0  0  0  0
  1  2  1  0
  2  3  2  0
  3  4  1  0
  3  5  1  0
  5  6  2  0
  6  7  1  0
  7  8  1  0
  8  9  1  0
  6 10  1  0
 10 11  2  0
 11 12  1  0
 11  2  1  0
  9  7  1  0
  1 13  1  0
  1 14  1  0
  1 15  1  0
  4 16  1  0
  4 17  1  0
  7 18  1  0
  8 19  1  0
  8 20  1  0
  9 21  1  0
  9 22  1  0
M  END
>  <meeko>  (3) 
{"is_sidechain": [false], "free_energy": -5.855, "intermolecular_energy": -6.106, "internal_energy": 0.039}

$$$$
5c28_ligand
     RDKit          3D

 22 23  0  0  0  0  0  0  0  0999 V2000
    3.5300   11.9320   45.6110 C   0  0  0  0  0  0  0  0  0  0  0  0
    3.7640   12.2720   44.1740 C   0  0  0  0  0  0  0  0  0  0  0  0
    4.5110   11.5010   43.3060 C   0  0  0  0  0  0  0  0  0  0  0  0
    5.1230   10.3110   43.7130 N   0  0  0  0  0  0  0  0  0  0  0  0
    4.7000   11.8370   42.0240 N   0  0  0  0  0  0  0  0  0  0  0  0
    4.1420   12.9670   41.5550 C   0  0  0  0  0  0  0  0  0  0  0  0
    4.3660   13.3340   40.1090 C   0  0  0  0  0  0  0  0  0  0  0  0
    4.5300   14.7830   39.7080 C   0  0  0  0  0  0  0  0  0  0  0  0
    3.2810   14.0460   39.3290 C   0  0  0  0  0  0  0  0  0  0  0  0
    3.4070   13.7840   42.3180 N   0  0  0  0  0  0  0  0  0  0  0  0
    3.2420   13.4120   43.5950 C   0  0  0  0  0  0  0  0  0  0  0  0
    2.2760   14.5330   44.4820 Cl  0  0  0  0  0  0  0  0  0  0  0  0
    4.0377   12.6697   46.2497 H   0  0  0  0  0  0  0  0  0  0  0  0
    2.4502   11.9473   45.8203 H   0  0  0  0  0  0  0  0  0  0  0  0
    3.9299   10.9289   45.8203 H   0  0  0  0  0  0  0  0  0  0  0  0
    4.5550    9.5110   43.4530 H   0  0  0  0  0  0  0  0  0  0  0  0
    5.2520   10.3030   44.7210 H   0  0  0  0  0  0  0  0  0  0  0  0
    4.9533   12.4142   39.9707 H   0  0  0  0  0  0  0  0  0  0  0  0
    4.4909   15.5722   40.4733 H   0  0  0  0  0  0  0  0  0  0  0  0
    5.2915   15.3537   39.1563 H   0  0  0  0  0  0  0  0  0  0  0  0
    2.3270   14.2947   39.8168 H   0  0  0  0  0  0  0  0  0  0  0  0
    2.7494   13.8532   38.3855 H   0  0  0  0  0  0  0  0  0  0  0  0
  1  2  1  0
  2  3  2  0
  3  4  1  0
  3  5  1  0
  5  6  2  0
  6  7  1  0
  7  8  1  0
  8  9  1  0
  6 10  1  0
 10 11  2  0
 11 12  1  0
 11  2  1  0
  9  7  1  0
  1 13  1  0
  1 14  1  0
  1 15  1  0
  4 16  1  0
  4 17  1  0
  7 18  1  0
  8 19  1  0
  8 20  1  0
  9 21  1  0
  9 22  1  0
M  END
>  <meeko>  (4) 
{"is_sidechain": [false], "free_energy": -5.832, "intermolecular_energy": -6.338, "internal_energy": 0.297}

$$$$
5c28_ligand
     RDKit          3D

 22 23  0  0  0  0  0  0  0  0999 V2000
    6.2800    9.1430   45.2480 C   0  0  0  0  0  0  0  0  0  0  0  0
    5.5120   10.2310   44.5710 C   0  0  0  0  0  0  0  0  0  0  0  0
    4.6970   11.1310   45.2270 C   0  0  0  0  0  0  0  0  0  0  0  0
    4.5210   11.0940   46.6140 N   0  0  0  0  0  0  0  0  0  0  0  0
    4.0230   12.0940   44.5860 N   0  0  0  0  0  0  0  0  0  0  0  0
    4.1420   12.1970   43.2500 C   0  0  0  0  0  0  0  0  0  0  0  0
    3.3750   13.2860   42.5410 C   0  0  0  0  0  0  0  0  0  0  0  0
    3.6660   13.6020   41.0910 C   0  0  0  0  0  0  0  0  0  0  0  0
    4.0670   14.5760   42.1570 C   0  0  0  0  0  0  0  0  0  0  0  0
    4.9010   11.3700   42.5240 N   0  0  0  0  0  0  0  0  0  0  0  0
    5.5590   10.4200   43.2030 C   0  0  0  0  0  0  0  0  0  0  0  0
    6.5080    9.4160   42.1690 Cl  0  0  0  0  0  0  0  0  0  0  0  0
    6.1975    9.2599   46.3387 H   0  0  0  0  0  0  0  0  0  0  0  0
    5.8703    8.1660   44.9519 H   0  0  0  0  0  0  0  0  0  0  0  0
    7.3378    9.2019   44.9519 H   0  0  0  0  0  0  0  0  0  0  0  0
    4.4630   12.0350   46.9910 H   0  0  0  0  0  0  0  0  0  0  0  0
    5.2970   10.6140   47.0590 H   0  0  0  0  0  0  0  0  0  0  0  0
    2.4761   13.0223   43.1175 H   0  0  0  0  0  0  0  0  0  0  0  0
    4.4360   13.0334   40.5490 H   0  0  0  0  0  0  0  0  0  0  0  0
    3.0620   13.6612   40.1736 H   0  0  0  0  0  0  0  0  0  0  0  0
    5.1308   14.7210   42.3965 H   0  0  0  0  0  0  0  0  0  0  0  0
    3.8783   15.6435   42.3438 H   0  0  0  0  0  0  0  0  0  0  0  0
  1  2  1  0
  2  3  2  0
  3  4  1  0
  3  5  1  0
  5  6  2  0
  6  7  1  0
  7  8  1  0
  8  9  1  0
  6 10  1  0
 10 11  2  0
 11 12  1  0
 11  2  1  0
  9  7  1  0
  1 13  1  0
  1 14  1  0
  1 15  1  0
  4 16  1  0
  4 17  1  0
  7 18  1  0
  8 19  1  0
  8 20  1  0
  9 21  1  0
  9 22  1  0
M  END
>  <meeko>  (5) 
{"is_sidechain": [false], "free_energy": -5.587, "intermolecular_energy": -5.814, "internal_energy": 0.039}

$$$$
5c28_ligand
     RDKit          3D

 22 23  0  0  0  0  0  0  0  0999 V2000
    4.9090   11.2610   39.5480 C   0  0  0  0  0  0  0  0  0  0  0  0
    4.6220   11.5880   40.9780 C   0  0  0  0  0  0  0  0  0  0  0  0
    4.9520   10.7730   42.0420 C   0  0  0  0  0  0  0  0  0  0  0  0
    5.5970    9.5450   41.8610 N   0  0  0  0  0  0  0  0  0  0  0  0
    4.6780   11.0990   43.3120 N   0  0  0  0  0  0  0  0  0  0  0  0
    4.0600   12.2650   43.5690 C   0  0  0  0  0  0  0  0  0  0  0  0
    3.7560   12.6180   45.0030 C   0  0  0  0  0  0  0  0  0  0  0  0
    4.0340   11.6210   46.1070 C   0  0  0  0  0  0  0  0  0  0  0  0
    2.6180   11.9340   45.7290 C   0  0  0  0  0  0  0  0  0  0  0  0
    3.6940   13.1200   42.6060 N   0  0  0  0  0  0  0  0  0  0  0  0
    3.9860   12.7570   41.3500 C   0  0  0  0  0  0  0  0  0  0  0  0
    3.4750   13.9320   40.1950 Cl  0  0  0  0  0  0  0  0  0  0  0  0
    5.6339   10.4351   39.4991 H   0  0  0  0  0  0  0  0  0  0  0  0
    3.9771   10.9612   39.0463 H   0  0  0  0  0  0  0  0  0  0  0  0
    5.3272   12.1461   39.0463 H   0  0  0  0  0  0  0  0  0  0  0  0
    6.4520    9.6670   41.3290 H   0  0  0  0  0  0  0  0  0  0  0  0
    4.9950    8.8970   41.3620 H   0  0  0  0  0  0  0  0  0  0  0  0
    4.0405   13.6615   44.8027 H   0  0  0  0  0  0  0  0  0  0  0  0
    4.4627   10.6376   45.8637 H   0  0  0  0  0  0  0  0  0  0  0  0
    4.6096   11.6415   47.0442 H   0  0  0  0  0  0  0  0  0  0  0  0
    2.0091   11.1800   45.2087 H   0  0  0  0  0  0  0  0  0  0  0  0
    1.7273   12.2786   46.2748 H   0  0  0  0  0  0  0  0  0  0  0  0
  1  2  1  0
  2  3  2  0
  3  4  1  0
  3  5  1  0
  5  6  2  0
  6  7  1  0
  7  8  1  0
  8  9  1  0
  6 10  1  0
 10 11  2  0
 11 12  1  0
 11  2  1  0
  9  7  1  0
  1 13  1  0
  1 14  1  0
  1 15  1  0
  4 16  1  0
  4 17  1  0
  7 18  1  0
  8 19  1  0
  8 20  1  0
  9 21  1  0
  9 22  1  0
M  END
>  <meeko>  (6) 
{"is_sidechain": [false], "free_energy": -5.413, "intermolecular_energy": -5.641, "internal_energy": 0.056}

$$$$
5c28_ligand
     RDKit          3D

 22 23  0  0  0  0  0  0  0  0999 V2000
    4.8520   11.4650   39.5990 C   0  0  0  0  0  0  0  0  0  0  0  0
    4.5210   11.8090   41.0160 C   0  0  0  0  0  0  0  0  0  0  0  0
    3.8700   12.9630   41.4020 C   0  0  0  0  0  0  0  0  0  0  0  0
    3.4580   13.9260   40.4760 N   0  0  0  0  0  0  0  0  0  0  0  0
    3.5910   13.2390   42.6830 N   0  0  0  0  0  0  0  0  0  0  0  0
    3.9530   12.3600   43.6350 C   0  0  0  0  0  0  0  0  0  0  0  0
    3.6340   12.6850   45.0730 C   0  0  0  0  0  0  0  0  0  0  0  0
    3.9280   11.6790   46.1640 C   0  0  0  0  0  0  0  0  0  0  0  0
    2.5070   11.9650   45.7820 C   0  0  0  0  0  0  0  0  0  0  0  0
    4.5930   11.2180   43.3610 N   0  0  0  0  0  0  0  0  0  0  0  0
    4.8540   10.9800   42.0690 C   0  0  0  0  0  0  0  0  0  0  0  0
    5.6750    9.4810   41.8340 Cl  0  0  0  0  0  0  0  0  0  0  0  0
    5.6146   10.6724   39.5826 H   0  0  0  0  0  0  0  0  0  0  0  0
    3.9453   11.1120   39.0860 H   0  0  0  0  0  0  0  0  0  0  0  0
    5.2396   12.3575   39.0860 H   0  0  0  0  0  0  0  0  0  0  0  0
    3.9610   14.7960   40.6190 H   0  0  0  0  0  0  0  0  0  0  0  0
    2.4630   14.1080   40.5690 H   0  0  0  0  0  0  0  0  0  0  0  0
    3.8968   13.7373   44.8897 H   0  0  0  0  0  0  0  0  0  0  0  0
    4.3805   10.7093   45.9093 H   0  0  0  0  0  0  0  0  0  0  0  0
    4.4975   11.6991   47.1049 H   0  0  0  0  0  0  0  0  0  0  0  0
    1.9185   11.2050   45.2472 H   0  0  0  0  0  0  0  0  0  0  0  0
    1.6054   12.2813   46.3271 H   0  0  0  0  0  0  0  0  0  0  0  0
  1  2  1  0
  2  3  2  0
  3  4  1  0
  3  5  1  0
  5  6  2  0
  6  7  1  0
  7  8  1  0
  8  9  1  0
  6 10  1  0
 10 11  2  0
 11 12  1  0
 11  2  1  0
  9  7  1  0
  1 13  1  0
  1 14  1  0
  1 15  1  0
  4 16  1  0
  4 17  1  0
  7 18  1  0
  8 19  1  0
  8 20  1  0
  9 21  1  0
  9 22  1  0
M  END
>  <meeko>  (7) 
{"is_sidechain": [false], "free_energy": -5.412, "intermolecular_energy": -5.641, "internal_energy": 0.056}

$$$$
5c28_ligand
     RDKit          3D

 22 23  0  0  0  0  0  0  0  0999 V2000
    6.7800    9.4640   43.3700 C   0  0  0  0  0  0  0  0  0  0  0  0
    5.7040   10.4150   43.7850 C   0  0  0  0  0  0  0  0  0  0  0  0
    5.2000   10.5050   45.0670 C   0  0  0  0  0  0  0  0  0  0  0  0
    5.6680    9.6930   46.1050 N   0  0  0  0  0  0  0  0  0  0  0  0
    4.2350   11.3710   45.4030 N   0  0  0  0  0  0  0  0  0  0  0  0
    3.7330   12.1890   44.4600 C   0  0  0  0  0  0  0  0  0  0  0  0
    2.6450   13.1570   44.8530 C   0  0  0  0  0  0  0  0  0  0  0  0
    2.2960   14.3180   43.9490 C   0  0  0  0  0  0  0  0  0  0  0  0
    2.9950   14.5750   45.2490 C   0  0  0  0  0  0  0  0  0  0  0  0
    4.1510   12.1740   43.1900 N   0  0  0  0  0  0  0  0  0  0  0  0
    5.1180   11.2940   42.8950 C   0  0  0  0  0  0  0  0  0  0  0  0
    5.5810   11.3650   41.2340 Cl  0  0  0  0  0  0  0  0  0  0  0  0
    7.2597    9.0400   44.2645 H   0  0  0  0  0  0  0  0  0  0  0  0
    6.3413    8.6531   42.7700 H   0  0  0  0  0  0  0  0  0  0  0  0
    7.5309    9.9990   42.7700 H   0  0  0  0  0  0  0  0  0  0  0  0
    6.0520   10.2590   46.8540 H   0  0  0  0  0  0  0  0  0  0  0  0
    6.3930    9.0670   45.7670 H   0  0  0  0  0  0  0  0  0  0  0  0
    2.0845   12.3316   45.3163 H   0  0  0  0  0  0  0  0  0  0  0  0
    2.8343   14.4557   42.9996 H   0  0  0  0  0  0  0  0  0  0  0  0
    1.3714   14.6850   43.4796 H   0  0  0  0  0  0  0  0  0  0  0  0
    4.0456   14.9008   45.2526 H   0  0  0  0  0  0  0  0  0  0  0  0
    2.7946   15.2078   46.1261 H   0  0  0  0  0  0  0  0  0  0  0  0
  1  2  1  0
  2  3  2  0
  3  4  1  0
  3  5  1  0
  5  6  2  0
  6  7  1  0
  7  8  1  0
  8  9  1  0
  6 10  1  0
 10 11  2  0
 11 12  1  0
 11  2  1  0
  9  7  1  0
  1 13  1  0
  1 14  1  0
  1 15  1  0
  4 16  1  0
  4 17  1  0
  7 18  1  0
  8 19  1  0
  8 20  1  0
  9 21  1  0
  9 22  1  0
M  END
>  <meeko>  (8) 
{"is_sidechain": [false], "free_energy": -5.384, "intermolecular_energy": -5.587, "internal_energy": 0.033}

$$$$
5c28_ligand
     RDKit          3D

 22 23  0  0  0  0  0  0  0  0999 V2000
    3.6830   13.9540   40.0180 C   0  0  0  0  0  0  0  0  0  0  0  0
    4.1250   12.8150   40.8790 C   0  0  0  0  0  0  0  0  0  0  0  0
    4.6740   11.6450   40.3970 C   0  0  0  0  0  0  0  0  0  0  0  0
    4.8670   11.4270   39.0280 N   0  0  0  0  0  0  0  0  0  0  0  0
    5.0590   10.6440   41.2000 N   0  0  0  0  0  0  0  0  0  0  0  0
    4.9080   10.7780   42.5300 C   0  0  0  0  0  0  0  0  0  0  0  0
    5.3430    9.6420   43.4210 C   0  0  0  0  0  0  0  0  0  0  0  0
    5.7300    9.9080   44.8590 C   0  0  0  0  0  0  0  0  0  0  0  0
    6.7860    9.5340   43.8650 C   0  0  0  0  0  0  0  0  0  0  0  0
    4.3800   11.8710   43.0930 N   0  0  0  0  0  0  0  0  0  0  0  0
    4.0090   12.8480   42.2550 C   0  0  0  0  0  0  0  0  0  0  0  0
    3.3480   14.2060   43.0890 Cl  0  0  0  0  0  0  0  0  0  0  0  0
    3.3584   14.7904   40.6545 H   0  0  0  0  0  0  0  0  0  0  0  0
    4.5199   14.2799   39.3829 H   0  0  0  0  0  0  0  0  0  0  0  0
    2.8453   13.6300   39.3829 H   0  0  0  0  0  0  0  0  0  0  0  0
    4.1020   10.8820   38.6440 H   0  0  0  0  0  0  0  0  0  0  0  0
    5.7350   10.9260   38.8670 H   0  0  0  0  0  0  0  0  0  0  0  0
    4.6287    8.9764   42.9143 H   0  0  0  0  0  0  0  0  0  0  0  0
    5.6897   10.9323   45.2579 H   0  0  0  0  0  0  0  0  0  0  0  0
    5.4085    9.5140   45.8344 H   0  0  0  0  0  0  0  0  0  0  0  0
    7.5197   10.2841   43.5349 H   0  0  0  0  0  0  0  0  0  0  0  0
    7.5583    8.7526   43.8103 H   0  0  0  0  0  0  0  0  0  0  0  0
  1  2  1  0
  2  3  2  0
  3  4  1  0
  3  5  1  0
  5  6  2  0
  6  7  1  0
  7  8  1  0
  8  9  1  0
  6 10  1  0
 10 11  2  0
 11 12  1  0
 11  2  1  0
  9  7  1  0
  1 13  1  0
  1 14  1  0
  1 15  1  0
  4 16  1  0
  4 17  1  0
  7 18  1  0
  8 19  1  0
  8 20  1  0
  9 21  1  0
  9 22  1  0
M  END
>  <meeko>  (9) 
{"is_sidechain": [false], "free_energy": -5.33, "intermolecular_energy": -5.528, "internal_energy": 0.033}

$$$$
