2xbv_ligand
     RDKit          3D

 57 60  0  0  0  0  0  0  0  0999 V2000
   12.3100   65.7300    2.8660 O   0  0  0  0  0  0  0  0  0  0  0  0
   11.7420   66.1540    3.8660 C   0  0  0  0  0  0  0  0  0  0  0  0
   12.1930   66.0090    5.1610 N   0  0  0  0  0  0  0  0  0  0  0  0
   13.3390   65.3540    5.6120 C   0  0  0  0  0  0  0  0  0  0  0  0
   14.3470   64.8780    4.7820 C   0  0  0  0  0  0  0  0  0  0  0  0
   15.4490   64.2330    5.3500 C   0  0  0  0  0  0  0  0  0  0  0  0
   15.5110   64.0820    6.7270 C   0  0  0  0  0  0  0  0  0  0  0  0
   16.8430   63.2970    7.4680 Cl  0  0  0  0  0  0  0  0  0  0  0  0
   14.4650   64.5830    7.4820 C   0  0  0  0  0  0  0  0  0  0  0  0
   13.3850   65.2110    6.9540 N   0  0  0  0  0  0  0  0  0  0  0  0
   10.4260   66.9190    3.7940 C   0  0  1  0  0  0  0  0  0  0  0  0
   10.5850   68.4450    3.8570 C   0  0  0  0  0  0  0  0  0  0  0  0
    9.9380   68.9610    2.6380 N   0  0  0  0  0  0  0  0  0  0  0  0
    9.3760   70.3170    2.7910 C   0  0  0  0  0  0  0  0  0  0  0  0
    7.9460   70.4110    3.3540 C   0  0  0  0  0  0  0  0  0  0  0  0
    7.8960   69.9370    4.6250 F   0  0  0  0  0  0  0  0  0  0  0  0
    7.5160   71.6950    3.3850 F   0  0  0  0  0  0  0  0  0  0  0  0
    8.9450   67.9680    2.2460 C   0  0  0  0  0  0  0  0  0  0  0  0
    9.7000   66.6660    2.4640 C   0  0  2  0  0  0  0  0  0  0  0  0
    8.7510   65.4820    2.5190 C   0  0  0  0  0  0  0  0  0  0  0  0
    7.5390   65.6420    2.4210 O   0  0  0  0  0  0  0  0  0  0  0  0
    9.3960   64.2890    2.7930 N   0  0  0  0  0  0  0  0  0  0  0  0
    8.8060   63.0050    2.7910 C   0  0  0  0  0  0  0  0  0  0  0  0
    8.1140   62.6210    3.9400 C   0  0  0  0  0  0  0  0  0  0  0  0
    7.4930   61.3640    4.0170 C   0  0  0  0  0  0  0  0  0  0  0  0
    7.5520   60.4440    2.9580 C   0  0  0  0  0  0  0  0  0  0  0  0
    6.9160   59.1440    3.0330 N   0  0  0  0  0  0  0  0  0  0  0  0
    7.5090   58.0980    3.7460 C   0  0  0  0  0  0  0  0  0  0  0  0
    6.9650   56.8780    3.8340 C   0  0  0  0  0  0  0  0  0  0  0  0
    5.7200   56.5960    3.1830 C   0  0  0  0  0  0  0  0  0  0  0  0
    5.0990   57.5520    2.4890 C   0  0  0  0  0  0  0  0  0  0  0  0
    5.6890   58.9170    2.3600 C   0  0  0  0  0  0  0  0  0  0  0  0
    5.0710   59.7150    1.6550 O   0  0  0  0  0  0  0  0  0  0  0  0
    8.2830   60.8290    1.8260 C   0  0  0  0  0  0  0  0  0  0  0  0
    8.9030   62.0820    1.7490 C   0  0  0  0  0  0  0  0  0  0  0  0
    9.6610   62.3190    0.6700 F   0  0  0  0  0  0  0  0  0  0  0  0
   11.6700   66.4440    5.9230 H   0  0  0  0  0  0  0  0  0  0  0  0
   14.2783   65.0073    3.6918 H   0  0  0  0  0  0  0  0  0  0  0  0
   16.2585   63.8493    4.7116 H   0  0  0  0  0  0  0  0  0  0  0  0
   14.5123   64.4650    8.5746 H   0  0  0  0  0  0  0  0  0  0  0  0
    9.8696   66.5510    4.6687 H   0  0  0  0  0  0  0  0  0  0  0  0
   10.0899   68.8460    4.7537 H   0  0  0  0  0  0  0  0  0  0  0  0
   11.6426   68.7422    3.9137 H   0  0  0  0  0  0  0  0  0  0  0  0
   10.0382   70.8785    3.4665 H   0  0  0  0  0  0  0  0  0  0  0  0
    9.3130   70.7218    1.7701 H   0  0  0  0  0  0  0  0  0  0  0  0
    7.3049   69.8109    2.6916 H   0  0  0  0  0  0  0  0  0  0  0  0
    8.0505   68.0234    2.8838 H   0  0  0  0  0  0  0  0  0  0  0  0
    8.5684   68.0970    1.2206 H   0  0  0  0  0  0  0  0  0  0  0  0
   10.3950   66.4078    1.6514 H   0  0  0  0  0  0  0  0  0  0  0  0
   10.3040   64.3620    3.2390 H   0  0  0  0  0  0  0  0  0  0  0  0
    8.0542   63.3105    4.7950 H   0  0  0  0  0  0  0  0  0  0  0  0
    6.9455   61.0927    4.9317 H   0  0  0  0  0  0  0  0  0  0  0  0
    8.4647   58.2856    4.2573 H   0  0  0  0  0  0  0  0  0  0  0  0
    7.4750   56.0900    4.4075 H   0  0  0  0  0  0  0  0  0  0  0  0
    5.2763   55.5920    3.2552 H   0  0  0  0  0  0  0  0  0  0  0  0
    4.1368   57.3304    2.0042 H   0  0  0  0  0  0  0  0  0  0  0  0
    8.3716   60.1318    0.9798 H   0  0  0  0  0  0  0  0  0  0  0  0
  1  2  2  0
  2  3  1  0
  3  4  1  0
  4  5  2  0
  5  6  1  0
  6  7  2  0
  7  8  1  0
  7  9  1  0
  9 10  2  0
  2 11  1  0
 11 12  1  0
 12 13  1  0
 13 14  1  0
 14 15  1  0
 15 16  1  0
 15 17  1  0
 13 18  1  0
 18 19  1  0
 19 20  1  0
 20 21  2  0
 20 22  1  0
 22 23  1  0
 23 24  2  0
 24 25  1  0
 25 26  2  0
 26 27  1  0
 27 28  1  0
 28 29  2  0
 29 30  1  0
 30 31  2  0
 31 32  1  0
 32 33  2  0
 26 34  1  0
 34 35  2  0
 35 36  1  0
 10  4  1  0
 19 11  1  0
 35 23  1  0
 32 27  1  0
  3 37  1  0
  5 38  1  0
  6 39  1  0
  9 40  1  0
 11 41  1  1
 12 42  1  0
 12 43  1  0
 14 44  1  0
 14 45  1  0
 15 46  1  0
 18 47  1  0
 18 48  1  0
 19 49  1  6
 22 50  1  0
 24 51  1  0
 25 52  1  0
 28 53  1  0
 29 54  1  0
 30 55  1  0
 31 56  1  0
 34 57  1  0
M  END
>  <meeko>  (1) 
{"is_sidechain": [false], "free_energy": -11.206, "intermolecular_energy": -15.792, "internal_energy": -0.99}

$$$$
2xbv_ligand
     RDKit          3D

 57 60  0  0  0  0  0  0  0  0999 V2000
   11.0330   68.2500    3.4860 O   0  0  0  0  0  0  0  0  0  0  0  0
   10.3350   67.2420    3.5050 C   0  0  0  0  0  0  0  0  0  0  0  0
   10.7750   65.9740    3.8190 N   0  0  0  0  0  0  0  0  0  0  0  0
   12.0660   65.5610    4.1500 C   0  0  0  0  0  0  0  0  0  0  0  0
   12.9570   64.9830    3.2540 C   0  0  0  0  0  0  0  0  0  0  0  0
   14.2260   64.6050    3.7030 C   0  0  0  0  0  0  0  0  0  0  0  0
   14.5660   64.8160    5.0310 C   0  0  0  0  0  0  0  0  0  0  0  0
   16.1100   64.3690    5.6260 Cl  0  0  0  0  0  0  0  0  0  0  0  0
   13.6210   65.3960    5.8580 C   0  0  0  0  0  0  0  0  0  0  0  0
   12.3830   65.7700    5.4460 N   0  0  0  0  0  0  0  0  0  0  0  0
    8.8470   67.2730    3.1760 C   0  0  1  0  0  0  0  0  0  0  0  0
    8.1870   68.6430    3.3910 C   0  0  0  0  0  0  0  0  0  0  0  0
    7.5850   69.0000    2.0940 N   0  0  0  0  0  0  0  0  0  0  0  0
    6.3910   69.8590    2.2090 C   0  0  0  0  0  0  0  0  0  0  0  0
    6.5980   71.3650    1.9640 C   0  0  0  0  0  0  0  0  0  0  0  0
    7.6970   71.8140    2.6220 F   0  0  0  0  0  0  0  0  0  0  0  0
    6.7800   71.6260    0.6470 F   0  0  0  0  0  0  0  0  0  0  0  0
    7.3250   67.7450    1.4000 C   0  0  0  0  0  0  0  0  0  0  0  0
    8.5920   66.9550    1.6950 C   0  0  2  0  0  0  0  0  0  0  0  0
    8.3920   65.4740    1.4300 C   0  0  0  0  0  0  0  0  0  0  0  0
    8.6890   64.9830    0.3450 O   0  0  0  0  0  0  0  0  0  0  0  0
    7.7610   64.8210    2.4730 N   0  0  0  0  0  0  0  0  0  0  0  0
    7.5430   63.4290    2.5730 C   0  0  0  0  0  0  0  0  0  0  0  0
    6.2660   63.0090    2.9480 C   0  0  0  0  0  0  0  0  0  0  0  0
    5.9650   61.6430    3.0630 C   0  0  0  0  0  0  0  0  0  0  0  0
    6.9290   60.6510    2.8230 C   0  0  0  0  0  0  0  0  0  0  0  0
    6.6250   59.2380    2.9440 N   0  0  0  0  0  0  0  0  0  0  0  0
    7.3150   58.4340    3.8560 C   0  0  0  0  0  0  0  0  0  0  0  0
    7.0770   57.1250    3.9950 C   0  0  0  0  0  0  0  0  0  0  0  0
    6.0770   56.4840    3.1930 C   0  0  0  0  0  0  0  0  0  0  0  0
    5.3790   57.1960    2.3050 C   0  0  0  0  0  0  0  0  0  0  0  0
    5.6330   58.6540    2.1160 C   0  0  0  0  0  0  0  0  0  0  0  0
    4.9780   59.2130    1.2360 O   0  0  0  0  0  0  0  0  0  0  0  0
    8.2170   61.0880    2.4850 C   0  0  0  0  0  0  0  0  0  0  0  0
    8.5180   62.4500    2.3700 C   0  0  0  0  0  0  0  0  0  0  0  0
    9.7980   62.7720    2.1420 F   0  0  0  0  0  0  0  0  0  0  0  0
   10.1020   65.2070    3.8560 H   0  0  0  0  0  0  0  0  0  0  0  0
   12.6676   64.8248    2.2046 H   0  0  0  0  0  0  0  0  0  0  0  0
   14.9467   64.1454    3.0107 H   0  0  0  0  0  0  0  0  0  0  0  0
   13.8886   65.5640    6.9116 H   0  0  0  0  0  0  0  0  0  0  0  0
    8.4191   66.5255    3.8602 H   0  0  0  0  0  0  0  0  0  0  0  0
    7.4123   68.5782    4.1692 H   0  0  0  0  0  0  0  0  0  0  0  0
    8.9145   69.3979    3.7239 H   0  0  0  0  0  0  0  0  0  0  0  0
    5.6508   69.5008    1.4784 H   0  0  0  0  0  0  0  0  0  0  0  0
    6.0754   69.7771    3.2596 H   0  0  0  0  0  0  0  0  0  0  0  0
    5.6937   71.8728    2.3305 H   0  0  0  0  0  0  0  0  0  0  0  0
    6.4355   67.2405    1.8052 H   0  0  0  0  0  0  0  0  0  0  0  0
    7.1160   67.8655    0.3268 H   0  0  0  0  0  0  0  0  0  0  0  0
    9.4471   67.2225    1.0568 H   0  0  0  0  0  0  0  0  0  0  0  0
    7.2250   65.4030    3.1070 H   0  0  0  0  0  0  0  0  0  0  0  0
    5.4867   63.7570    3.1558 H   0  0  0  0  0  0  0  0  0  0  0  0
    4.9465   61.3416    3.3488 H   0  0  0  0  0  0  0  0  0  0  0  0
    8.0874   58.8980    4.4869 H   0  0  0  0  0  0  0  0  0  0  0  0
    7.6509   56.5384    4.7275 H   0  0  0  0  0  0  0  0  0  0  0  0
    5.8848   55.4071    3.3089 H   0  0  0  0  0  0  0  0  0  0  0  0
    4.6039   56.6994    1.7028 H   0  0  0  0  0  0  0  0  0  0  0  0
    9.0081   60.3448    2.3063 H   0  0  0  0  0  0  0  0  0  0  0  0
  1  2  2  0
  2  3  1  0
  3  4  1  0
  4  5  2  0
  5  6  1  0
  6  7  2  0
  7  8  1  0
  7  9  1  0
  9 10  2  0
  2 11  1  0
 11 12  1  0
 12 13  1  0
 13 14  1  0
 14 15  1  0
 15 16  1  0
 15 17  1  0
 13 18  1  0
 18 19  1  0
 19 20  1  0
 20 21  2  0
 20 22  1  0
 22 23  1  0
 23 24  2  0
 24 25  1  0
 25 26  2  0
 26 27  1  0
 27 28  1  0
 28 29  2  0
 29 30  1  0
 30 31  2  0
 31 32  1  0
 32 33  2  0
 26 34  1  0
 34 35  2  0
 35 36  1  0
 10  4  1  0
 19 11  1  0
 35 23  1  0
 32 27  1  0
  3 37  1  0
  5 38  1  0
  6 39  1  0
  9 40  1  0
 11 41  1  1
 12 42  1  0
 12 43  1  0
 14 44  1  0
 14 45  1  0
 15 46  1  0
 18 47  1  0
 18 48  1  0
 19 49  1  6
 22 50  1  0
 24 51  1  0
 25 52  1  0
 28 53  1  0
 29 54  1  0
 30 55  1  0
 31 56  1  0
 34 57  1  0
M  END
>  <meeko>  (2) 
{"is_sidechain": [false], "free_energy": -9.145, "intermolecular_energy": -12.606, "internal_energy": -1.271}

$$$$
