3aru_ligand
     RDKit          3D

 38 39  0  0  0  0  0  0  0  0999 V2000
   -0.4100   10.1550   13.1050 C   0  0  0  0  0  0  0  0  0  0  0  0
    0.3060   11.4010   13.5580 C   0  0  0  0  0  0  0  0  0  0  0  0
    1.3470   11.7680   13.0130 O   0  0  0  0  0  0  0  0  0  0  0  0
   -0.2980   12.1310   14.7430 C   0  0  0  0  0  0  0  0  0  0  0  0
   -0.2210   11.3000   16.0230 C   0  0  0  0  0  0  0  0  0  0  0  0
   -1.5930   10.9500   16.6070 C   0  0  0  0  0  0  0  0  0  0  0  0
   -2.0730    9.5150   16.3400 C   0  0  0  0  0  0  0  0  0  0  0  0
   -2.1190    8.6890   17.5430 N   0  0  0  0  0  0  0  0  0  0  0  0
   -0.9840    7.9180   17.8240 C   0  0  0  0  0  0  0  0  0  0  0  0
    0.0220    7.8900   17.1190 O   0  0  0  0  0  0  0  0  0  0  0  0
   -1.1090    7.1580   19.0170 C   0  0  0  0  0  0  0  0  0  0  0  0
   -2.2220    7.1780   19.7990 C   0  0  0  0  0  0  0  0  0  0  0  0
   -2.0970    6.3640   20.8840 N   0  0  0  0  0  0  0  0  0  0  0  0
   -0.8910    5.8450   20.7670 C   0  0  0  0  0  0  0  0  0  0  0  0
   -0.2520    6.3000   19.6440 N   0  0  0  0  0  0  0  0  0  0  0  0
    1.0750    5.9390   19.2140 C   0  0  0  0  0  0  0  0  0  0  0  0
   -3.3160    7.9460   19.4830 N   0  0  0  0  0  0  0  0  0  0  0  0
   -4.4780    7.9450   20.3530 C   0  0  0  0  0  0  0  0  0  0  0  0
   -3.2890    8.7340   18.3310 C   0  0  0  0  0  0  0  0  0  0  0  0
   -4.2490    9.4450   18.0140 O   0  0  0  0  0  0  0  0  0  0  0  0
   -0.7396    9.5815   13.9839 H   0  0  0  0  0  0  0  0  0  0  0  0
   -1.2853   10.4344   12.5002 H   0  0  0  0  0  0  0  0  0  0  0  0
    0.2722    9.5395   12.5002 H   0  0  0  0  0  0  0  0  0  0  0  0
    0.2489   13.0729   14.8970 H   0  0  0  0  0  0  0  0  0  0  0  0
   -1.3589   12.3203   14.5224 H   0  0  0  0  0  0  0  0  0  0  0  0
    0.3113   10.3638   15.7989 H   0  0  0  0  0  0  0  0  0  0  0  0
    0.3045   11.9090   16.7733 H   0  0  0  0  0  0  0  0  0  0  0  0
   -1.5460   11.0956   17.6963 H   0  0  0  0  0  0  0  0  0  0  0  0
   -2.3151   11.6109   16.1051 H   0  0  0  0  0  0  0  0  0  0  0  0
   -3.0836    9.5594   15.9080 H   0  0  0  0  0  0  0  0  0  0  0  0
   -1.3492    9.0514   15.6535 H   0  0  0  0  0  0  0  0  0  0  0  0
   -0.4520    5.1343   21.4827 H   0  0  0  0  0  0  0  0  0  0  0  0
    1.7113    5.7659   20.0944 H   0  0  0  0  0  0  0  0  0  0  0  0
    1.0276    5.0211   18.6097 H   0  0  0  0  0  0  0  0  0  0  0  0
    1.4991    6.7544   18.6097 H   0  0  0  0  0  0  0  0  0  0  0  0
   -4.1499    7.9453   21.4029 H   0  0  0  0  0  0  0  0  0  0  0  0
   -5.0831    8.8426   20.1577 H   0  0  0  0  0  0  0  0  0  0  0  0
   -5.0815    7.0463   20.1577 H   0  0  0  0  0  0  0  0  0  0  0  0
  1  2  1  0
  2  3  2  0
  2  4  1  0
  4  5  1  0
  5  6  1  0
  6  7  1  0
  7  8  1  0
  8  9  1  0
  9 10  2  0
  9 11  1  0
 11 12  2  0
 12 13  1  0
 13 14  2  0
 14 15  1  0
 15 16  1  0
 12 17  1  0
 17 18  1  0
 17 19  1  0
 19 20  2  0
 19  8  1  0
 15 11  1  0
  1 21  1  0
  1 22  1  0
  1 23  1  0
  4 24  1  0
  4 25  1  0
  5 26  1  0
  5 27  1  0
  6 28  1  0
  6 29  1  0
  7 30  1  0
  7 31  1  0
 14 32  1  0
 16 33  1  0
 16 34  1  0
 16 35  1  0
 18 36  1  0
 18 37  1  0
 18 38  1  0
M  END
>  <meeko>  (1) 
{"is_sidechain": [false], "free_energy": -6.469, "intermolecular_energy": -8.36, "internal_energy": -0.425}

$$$$
3aru_ligand
     RDKit          3D

 38 39  0  0  0  0  0  0  0  0999 V2000
    2.4360   10.4560   14.4380 C   0  0  0  0  0  0  0  0  0  0  0  0
    1.2210   10.9510   13.6960 C   0  0  0  0  0  0  0  0  0  0  0  0
    1.3340   11.6280   12.6740 O   0  0  0  0  0  0  0  0  0  0  0  0
   -0.1250   10.6140   14.3100 C   0  0  0  0  0  0  0  0  0  0  0  0
   -0.5280   11.6200   15.3870 C   0  0  0  0  0  0  0  0  0  0  0  0
   -1.2080   10.9760   16.5990 C   0  0  0  0  0  0  0  0  0  0  0  0
   -1.8330    9.5960   16.3440 C   0  0  0  0  0  0  0  0  0  0  0  0
   -1.6730    8.6750   17.4660 N   0  0  0  0  0  0  0  0  0  0  0  0
   -2.7520    8.5680   18.3530 C   0  0  0  0  0  0  0  0  0  0  0  0
   -3.7970    9.2050   18.2480 O   0  0  0  0  0  0  0  0  0  0  0  0
   -2.5180    7.6420   19.4040 C   0  0  0  0  0  0  0  0  0  0  0  0
   -1.3600    6.9370   19.5310 C   0  0  0  0  0  0  0  0  0  0  0  0
   -1.3800    6.1190   20.6200 N   0  0  0  0  0  0  0  0  0  0  0  0
   -2.5650    6.3200   21.1600 C   0  0  0  0  0  0  0  0  0  0  0  0
   -3.2930    7.2400   20.4530 N   0  0  0  0  0  0  0  0  0  0  0  0
   -4.6250    7.6920   20.7630 C   0  0  0  0  0  0  0  0  0  0  0  0
   -0.3260    7.0770   18.6390 N   0  0  0  0  0  0  0  0  0  0  0  0
    0.8870    6.2970   18.8090 C   0  0  0  0  0  0  0  0  0  0  0  0
   -0.4600    7.9610   17.5670 C   0  0  0  0  0  0  0  0  0  0  0  0
    0.4440    8.1110   16.7380 O   0  0  0  0  0  0  0  0  0  0  0  0
    2.2588   10.5282   15.5212 H   0  0  0  0  0  0  0  0  0  0  0  0
    2.6291    9.4075   14.1671 H   0  0  0  0  0  0  0  0  0  0  0  0
    3.3068   11.0710   14.1671 H   0  0  0  0  0  0  0  0  0  0  0  0
   -0.8880   10.6166   13.5176 H   0  0  0  0  0  0  0  0  0  0  0  0
   -0.0461    9.6233   14.7814 H   0  0  0  0  0  0  0  0  0  0  0  0
    0.3766   12.1424   15.7318 H   0  0  0  0  0  0  0  0  0  0  0  0
   -1.2577   12.3063   14.9327 H   0  0  0  0  0  0  0  0  0  0  0  0
   -0.4547   10.8665   17.3931 H   0  0  0  0  0  0  0  0  0  0  0  0
   -2.0405   11.6418   16.8704 H   0  0  0  0  0  0  0  0  0  0  0  0
   -2.9078    9.7293   16.1518 H   0  0  0  0  0  0  0  0  0  0  0  0
   -1.3104    9.1550   15.4824 H   0  0  0  0  0  0  0  0  0  0  0  0
   -2.9252    5.8117   22.0666 H   0  0  0  0  0  0  0  0  0  0  0  0
   -4.7527    7.7353   21.8547 H   0  0  0  0  0  0  0  0  0  0  0  0
   -4.7812    8.6934   20.3355 H   0  0  0  0  0  0  0  0  0  0  0  0
   -5.3584    6.9924   20.3355 H   0  0  0  0  0  0  0  0  0  0  0  0
    1.0912    6.1657   19.8819 H   0  0  0  0  0  0  0  0  0  0  0  0
    0.7586    5.3118   18.3369 H   0  0  0  0  0  0  0  0  0  0  0  0
    1.7301    6.8227   18.3369 H   0  0  0  0  0  0  0  0  0  0  0  0
  1  2  1  0
  2  3  2  0
  2  4  1  0
  4  5  1  0
  5  6  1  0
  6  7  1  0
  7  8  1  0
  8  9  1  0
  9 10  2  0
  9 11  1  0
 11 12  2  0
 12 13  1  0
 13 14  2  0
 14 15  1  0
 15 16  1  0
 12 17  1  0
 17 18  1  0
 17 19  1  0
 19 20  2  0
 19  8  1  0
 15 11  1  0
  1 21  1  0
  1 22  1  0
  1 23  1  0
  4 24  1  0
  4 25  1  0
  5 26  1  0
  5 27  1  0
  6 28  1  0
  6 29  1  0
  7 30  1  0
  7 31  1  0
 14 32  1  0
 16 33  1  0
 16 34  1  0
 16 35  1  0
 18 36  1  0
 18 37  1  0
 18 38  1  0
M  END
>  <meeko>  (2) 
{"is_sidechain": [false], "free_energy": -6.364, "intermolecular_energy": -8.233, "internal_energy": -0.416}

$$$$
3aru_ligand
     RDKit          3D

 38 39  0  0  0  0  0  0  0  0999 V2000
    2.2950   10.4720   14.4530 C   0  0  0  0  0  0  0  0  0  0  0  0
    1.1630   11.0590   13.6520 C   0  0  0  0  0  0  0  0  0  0  0  0
    1.3590   11.5500   12.5400 O   0  0  0  0  0  0  0  0  0  0  0  0
   -0.2030   11.0570   14.3150 C   0  0  0  0  0  0  0  0  0  0  0  0
   -0.1640   11.7020   15.6990 C   0  0  0  0  0  0  0  0  0  0  0  0
   -0.9540   10.9240   16.7570 C   0  0  0  0  0  0  0  0  0  0  0  0
   -1.1070    9.4190   16.4850 C   0  0  0  0  0  0  0  0  0  0  0  0
   -0.9700    8.6000   17.6850 N   0  0  0  0  0  0  0  0  0  0  0  0
    0.3260    8.1930   18.0280 C   0  0  0  0  0  0  0  0  0  0  0  0
    1.3300    8.4720   17.3780 O   0  0  0  0  0  0  0  0  0  0  0  0
    0.3690    7.4130   19.2140 C   0  0  0  0  0  0  0  0  0  0  0  0
   -0.7400    7.0940   19.9350 C   0  0  0  0  0  0  0  0  0  0  0  0
   -0.4360    6.3370   21.0270 N   0  0  0  0  0  0  0  0  0  0  0  0
    0.8740    6.1980   20.9750 C   0  0  0  0  0  0  0  0  0  0  0  0
    1.4080    6.8370   19.8870 N   0  0  0  0  0  0  0  0  0  0  0  0
    2.8020    6.8880   19.5290 C   0  0  0  0  0  0  0  0  0  0  0  0
   -1.9930    7.5100   19.5600 N   0  0  0  0  0  0  0  0  0  0  0  0
   -3.1460    7.1550   20.3670 C   0  0  0  0  0  0  0  0  0  0  0  0
   -2.1400    8.2870   18.4100 C   0  0  0  0  0  0  0  0  0  0  0  0
   -3.2490    8.6880   18.0400 O   0  0  0  0  0  0  0  0  0  0  0  0
    2.0809   10.5830   15.5262 H   0  0  0  0  0  0  0  0  0  0  0  0
    2.4020    9.4048   14.2089 H   0  0  0  0  0  0  0  0  0  0  0  0
    3.2290   10.9994   14.2089 H   0  0  0  0  0  0  0  0  0  0  0  0
   -0.9069   11.6165   13.6814 H   0  0  0  0  0  0  0  0  0  0  0  0
   -0.5230   10.0114   14.4345 H   0  0  0  0  0  0  0  0  0  0  0  0
    0.8849   11.7657   16.0243 H   0  0  0  0  0  0  0  0  0  0  0  0
   -0.6328   12.6930   15.6081 H   0  0  0  0  0  0  0  0  0  0  0  0
   -0.4403   11.0447   17.7221 H   0  0  0  0  0  0  0  0  0  0  0  0
   -1.9718   11.3410   16.7454 H   0  0  0  0  0  0  0  0  0  0  0  0
   -2.1028    9.2415   16.0527 H   0  0  0  0  0  0  0  0  0  0  0  0
   -0.2994    9.1279   15.7972 H   0  0  0  0  0  0  0  0  0  0  0  0
    1.4655    5.6379   21.7142 H   0  0  0  0  0  0  0  0  0  0  0  0
    3.4146    6.9104   20.4424 H   0  0  0  0  0  0  0  0  0  0  0  0
    3.0609    5.9987   18.9356 H   0  0  0  0  0  0  0  0  0  0  0  0
    2.9953    7.7938   18.9356 H   0  0  0  0  0  0  0  0  0  0  0  0
   -2.8862    7.2350   21.4329 H   0  0  0  0  0  0  0  0  0  0  0  0
   -3.9771    7.8389   20.1399 H   0  0  0  0  0  0  0  0  0  0  0  0
   -3.4485    6.1221   20.1399 H   0  0  0  0  0  0  0  0  0  0  0  0
  1  2  1  0
  2  3  2  0
  2  4  1  0
  4  5  1  0
  5  6  1  0
  6  7  1  0
  7  8  1  0
  8  9  1  0
  9 10  2  0
  9 11  1  0
 11 12  2  0
 12 13  1  0
 13 14  2  0
 14 15  1  0
 15 16  1  0
 12 17  1  0
 17 18  1  0
 17 19  1  0
 19 20  2  0
 19  8  1  0
 15 11  1  0
  1 21  1  0
  1 22  1  0
  1 23  1  0
  4 24  1  0
  4 25  1  0
  5 26  1  0
  5 27  1  0
  6 28  1  0
  6 29  1  0
  7 30  1  0
  7 31  1  0
 14 32  1  0
 16 33  1  0
 16 34  1  0
 16 35  1  0
 18 36  1  0
 18 37  1  0
 18 38  1  0
M  END
>  <meeko>  (3) 
{"is_sidechain": [false], "free_energy": -6.239, "intermolecular_energy": -8.023, "internal_energy": -0.465}

$$$$
3aru_ligand
     RDKit          3D

 38 39  0  0  0  0  0  0  0  0999 V2000
    2.3090   10.4910   14.1900 C   0  0  0  0  0  0  0  0  0  0  0  0
    1.1350   10.9480   13.3640 C   0  0  0  0  0  0  0  0  0  0  0  0
    1.3010   11.5460   12.3000 O   0  0  0  0  0  0  0  0  0  0  0  0
   -0.2420   10.6780   13.9430 C   0  0  0  0  0  0  0  0  0  0  0  0
   -0.6870   11.7890   14.8940 C   0  0  0  0  0  0  0  0  0  0  0  0
   -0.5950   11.4000   16.3720 C   0  0  0  0  0  0  0  0  0  0  0  0
   -1.1460   10.0080   16.7190 C   0  0  0  0  0  0  0  0  0  0  0  0
   -0.6920    9.5150   18.0170 N   0  0  0  0  0  0  0  0  0  0  0  0
   -1.5310    9.7570   19.1120 C   0  0  0  0  0  0  0  0  0  0  0  0
   -2.5990   10.3600   19.0430 O   0  0  0  0  0  0  0  0  0  0  0  0
   -1.0210    9.2330   20.3300 C   0  0  0  0  0  0  0  0  0  0  0  0
    0.1640    8.5690   20.4160 C   0  0  0  0  0  0  0  0  0  0  0  0
    0.4320    8.1690   21.6900 N   0  0  0  0  0  0  0  0  0  0  0  0
   -0.6050    8.5870   22.3900 C   0  0  0  0  0  0  0  0  0  0  0  0
   -1.5150    9.2400   21.6020 N   0  0  0  0  0  0  0  0  0  0  0  0
   -2.7580    9.8210   22.0410 C   0  0  0  0  0  0  0  0  0  0  0  0
    0.9580    8.3590   19.3150 N   0  0  0  0  0  0  0  0  0  0  0  0
    2.2100    7.6360   19.4530 C   0  0  0  0  0  0  0  0  0  0  0  0
    0.5420    8.8320   18.0700 C   0  0  0  0  0  0  0  0  0  0  0  0
    1.2230    8.6580   17.0540 O   0  0  0  0  0  0  0  0  0  0  0  0
    2.0648   10.5860   15.2583 H   0  0  0  0  0  0  0  0  0  0  0  0
    2.5339    9.4397   13.9574 H   0  0  0  0  0  0  0  0  0  0  0  0
    3.1855   11.1136   13.9574 H   0  0  0  0  0  0  0  0  0  0  0  0
   -0.9664   10.6039   13.1185 H   0  0  0  0  0  0  0  0  0  0  0  0
   -0.1943    9.7388   14.5137 H   0  0  0  0  0  0  0  0  0  0  0  0
   -0.0486   12.6687   14.7250 H   0  0  0  0  0  0  0  0  0  0  0  0
   -1.7459   11.9949   14.6786 H   0  0  0  0  0  0  0  0  0  0  0  0
    0.4646   11.4293   16.6660 H   0  0  0  0  0  0  0  0  0  0  0  0
   -1.2229   12.1207   16.9164 H   0  0  0  0  0  0  0  0  0  0  0  0
   -2.2447   10.0600   16.7299 H   0  0  0  0  0  0  0  0  0  0  0  0
   -0.7721    9.3096   15.9558 H   0  0  0  0  0  0  0  0  0  0  0  0
   -0.7240    8.4305   23.4723 H   0  0  0  0  0  0  0  0  0  0  0  0
   -2.7881    9.8351   23.1405 H   0  0  0  0  0  0  0  0  0  0  0  0
   -2.8372   10.8494   21.6589 H   0  0  0  0  0  0  0  0  0  0  0  0
   -3.5978    9.2221   21.6589 H   0  0  0  0  0  0  0  0  0  0  0  0
    2.4407    7.5027   20.5202 H   0  0  0  0  0  0  0  0  0  0  0  0
    2.1196    6.6511   18.9716 H   0  0  0  0  0  0  0  0  0  0  0  0
    3.0179    8.2066   18.9716 H   0  0  0  0  0  0  0  0  0  0  0  0
  1  2  1  0
  2  3  2  0
  2  4  1  0
  4  5  1  0
  5  6  1  0
  6  7  1  0
  7  8  1  0
  8  9  1  0
  9 10  2  0
  9 11  1  0
 11 12  2  0
 12 13  1  0
 13 14  2  0
 14 15  1  0
 15 16  1  0
 12 17  1  0
 17 18  1  0
 17 19  1  0
 19 20  2  0
 19  8  1  0
 15 11  1  0
  1 21  1  0
  1 22  1  0
  1 23  1  0
  4 24  1  0
  4 25  1  0
  5 26  1  0
  5 27  1  0
  6 28  1  0
  6 29  1  0
  7 30  1  0
  7 31  1  0
 14 32  1  0
 16 33  1  0
 16 34  1  0
 16 35  1  0
 18 36  1  0
 18 37  1  0
 18 38  1  0
M  END
>  <meeko>  (4) 
{"is_sidechain": [false], "free_energy": -6.215, "intermolecular_energy": -8.051, "internal_energy": -0.405}

$$$$
3aru_ligand
     RDKit          3D

 38 39  0  0  0  0  0  0  0  0999 V2000
    2.4370   10.5420   14.5190 C   0  0  0  0  0  0  0  0  0  0  0  0
    1.3220   11.4710   14.1140 C   0  0  0  0  0  0  0  0  0  0  0  0
    1.0870   11.7000   12.9270 O   0  0  0  0  0  0  0  0  0  0  0  0
    0.5570   12.1370   15.2430 C   0  0  0  0  0  0  0  0  0  0  0  0
   -0.7200   11.3750   15.5930 C   0  0  0  0  0  0  0  0  0  0  0  0
   -0.5150   10.3050   16.6700 C   0  0  0  0  0  0  0  0  0  0  0  0
   -1.3010    9.0020   16.4560 C   0  0  0  0  0  0  0  0  0  0  0  0
   -1.9520    8.5150   17.6690 N   0  0  0  0  0  0  0  0  0  0  0  0
   -3.2420    8.9980   17.9300 C   0  0  0  0  0  0  0  0  0  0  0  0
   -3.8350    9.8010   17.2140 O   0  0  0  0  0  0  0  0  0  0  0  0
   -3.8050    8.4640   19.1190 C   0  0  0  0  0  0  0  0  0  0  0  0
   -3.1510    7.5790   19.9210 C   0  0  0  0  0  0  0  0  0  0  0  0
   -3.9010    7.2200   20.9990 N   0  0  0  0  0  0  0  0  0  0  0  0
   -5.0290    7.8880   20.8520 C   0  0  0  0  0  0  0  0  0  0  0  0
   -5.0150    8.6590   19.7210 N   0  0  0  0  0  0  0  0  0  0  0  0
   -6.0810    9.5100   19.2580 C   0  0  0  0  0  0  0  0  0  0  0  0
   -1.8850    7.1370   19.6290 N   0  0  0  0  0  0  0  0  0  0  0  0
   -1.2300    6.1840   20.5080 C   0  0  0  0  0  0  0  0  0  0  0  0
   -1.2460    7.5990   18.4770 C   0  0  0  0  0  0  0  0  0  0  0  0
   -0.1090    7.2210   18.1750 O   0  0  0  0  0  0  0  0  0  0  0  0
    2.4942   10.4944   15.6165 H   0  0  0  0  0  0  0  0  0  0  0  0
    2.2405    9.5367   14.1181 H   0  0  0  0  0  0  0  0  0  0  0  0
    3.3903   10.9167   14.1181 H   0  0  0  0  0  0  0  0  0  0  0  0
    1.2016   12.1786   16.1333 H   0  0  0  0  0  0  0  0  0  0  0  0
    0.2718   13.1466   14.9124 H   0  0  0  0  0  0  0  0  0  0  0  0
   -1.4677   12.0958   15.9556 H   0  0  0  0  0  0  0  0  0  0  0  0
   -1.0495   10.8574   14.6800 H   0  0  0  0  0  0  0  0  0  0  0  0
    0.5558   10.0551   16.7019 H   0  0  0  0  0  0  0  0  0  0  0  0
   -0.8932   10.7391   17.6073 H   0  0  0  0  0  0  0  0  0  0  0  0
   -2.0730    9.1811   15.6931 H   0  0  0  0  0  0  0  0  0  0  0  0
   -0.5792    8.2335   16.1423 H   0  0  0  0  0  0  0  0  0  0  0  0
   -5.8760    7.8323   21.5517 H   0  0  0  0  0  0  0  0  0  0  0  0
   -6.6129    9.9346   20.1222 H   0  0  0  0  0  0  0  0  0  0  0  0
   -5.6617   10.3245   18.6491 H   0  0  0  0  0  0  0  0  0  0  0  0
   -6.7824    8.9207   18.6491 H   0  0  0  0  0  0  0  0  0  0  0  0
   -1.4201    6.4606   21.5555 H   0  0  0  0  0  0  0  0  0  0  0  0
   -1.6271    5.1761   20.3171 H   0  0  0  0  0  0  0  0  0  0  0  0
   -0.1467    6.1936   20.3171 H   0  0  0  0  0  0  0  0  0  0  0  0
  1  2  1  0
  2  3  2  0
  2  4  1  0
  4  5  1  0
  5  6  1  0
  6  7  1  0
  7  8  1  0
  8  9  1  0
  9 10  2  0
  9 11  1  0
 11 12  2  0
 12 13  1  0
 13 14  2  0
 14 15  1  0
 15 16  1  0
 12 17  1  0
 17 18  1  0
 17 19  1  0
 19 20  2  0
 19  8  1  0
 15 11  1  0
  1 21  1  0
  1 22  1  0
  1 23  1  0
  4 24  1  0
  4 25  1  0
  5 26  1  0
  5 27  1  0
  6 28  1  0
  6 29  1  0
  7 30  1  0
  7 31  1  0
 14 32  1  0
 16 33  1  0
 16 34  1  0
 16 35  1  0
 18 36  1  0
 18 37  1  0
 18 38  1  0
M  END
>  <meeko>  (5) 
{"is_sidechain": [false], "free_energy": -6.202, "intermolecular_energy": -8.097, "internal_energy": -0.342}

$$$$
3aru_ligand
     RDKit          3D

 38 39  0  0  0  0  0  0  0  0999 V2000
   -4.2800    9.0520   16.3120 C   0  0  0  0  0  0  0  0  0  0  0  0
   -4.7390    9.0790   17.7470 C   0  0  0  0  0  0  0  0  0  0  0  0
   -5.9350    9.0210   18.0320 O   0  0  0  0  0  0  0  0  0  0  0  0
   -3.6550    9.2360   18.7970 C   0  0  0  0  0  0  0  0  0  0  0  0
   -2.9480    7.9120   19.0890 C   0  0  0  0  0  0  0  0  0  0  0  0
   -1.5490    7.8200   18.4720 C   0  0  0  0  0  0  0  0  0  0  0  0
   -0.6430    9.0360   18.7180 C   0  0  0  0  0  0  0  0  0  0  0  0
    0.2890    9.2910   17.6230 N   0  0  0  0  0  0  0  0  0  0  0  0
   -0.1650   10.1230   16.5900 C   0  0  0  0  0  0  0  0  0  0  0  0
   -1.2840   10.6260   16.5520 O   0  0  0  0  0  0  0  0  0  0  0  0
    0.8070   10.3290   15.5760 C   0  0  0  0  0  0  0  0  0  0  0  0
    2.0480    9.7690   15.6080 C   0  0  0  0  0  0  0  0  0  0  0  0
    2.7910   10.1170   14.5210 N   0  0  0  0  0  0  0  0  0  0  0  0
    1.9980   10.9030   13.8190 C   0  0  0  0  0  0  0  0  0  0  0  0
    0.7800   11.0610   14.4230 N   0  0  0  0  0  0  0  0  0  0  0  0
   -0.3190   11.8520   13.9310 C   0  0  0  0  0  0  0  0  0  0  0  0
    2.4480    8.9560   16.6390 N   0  0  0  0  0  0  0  0  0  0  0  0
    3.7860    8.3900   16.6360 C   0  0  0  0  0  0  0  0  0  0  0  0
    1.5660    8.6950   17.6880 C   0  0  0  0  0  0  0  0  0  0  0  0
    1.8900    7.9750   18.6380 O   0  0  0  0  0  0  0  0  0  0  0  0
   -3.1824    8.9874   16.2793 H   0  0  0  0  0  0  0  0  0  0  0  0
   -4.7140    8.1778   15.8046 H   0  0  0  0  0  0  0  0  0  0  0  0
   -4.6085    9.9710   15.8046 H   0  0  0  0  0  0  0  0  0  0  0  0
   -2.9129    9.9634   18.4360 H   0  0  0  0  0  0  0  0  0  0  0  0
   -4.1291    9.5817   19.7274 H   0  0  0  0  0  0  0  0  0  0  0  0
   -2.8563    7.7988   20.1793 H   0  0  0  0  0  0  0  0  0  0  0  0
   -3.5550    7.1134   18.6375 H   0  0  0  0  0  0  0  0  0  0  0  0
   -1.0501    6.9338   18.8912 H   0  0  0  0  0  0  0  0  0  0  0  0
   -1.6989    7.7670   17.3836 H   0  0  0  0  0  0  0  0  0  0  0  0
   -1.2784    9.9242   18.8500 H   0  0  0  0  0  0  0  0  0  0  0  0
   -0.0427    8.8199   19.6141 H   0  0  0  0  0  0  0  0  0  0  0  0
    2.2806   11.3735   12.8657 H   0  0  0  0  0  0  0  0  0  0  0  0
   -0.8862   12.2602   14.7805 H   0  0  0  0  0  0  0  0  0  0  0  0
    0.0697   12.6788   13.3184 H   0  0  0  0  0  0  0  0  0  0  0  0
   -0.9796   11.2209   13.3184 H   0  0  0  0  0  0  0  0  0  0  0  0
    4.1257    8.2463   17.6723 H   0  0  0  0  0  0  0  0  0  0  0  0
    3.7728    7.4204   16.1167 H   0  0  0  0  0  0  0  0  0  0  0  0
    4.4726    9.0747   16.1167 H   0  0  0  0  0  0  0  0  0  0  0  0
  1  2  1  0
  2  3  2  0
  2  4  1  0
  4  5  1  0
  5  6  1  0
  6  7  1  0
  7  8  1  0
  8  9  1  0
  9 10  2  0
  9 11  1  0
 11 12  2  0
 12 13  1  0
 13 14  2  0
 14 15  1  0
 15 16  1  0
 12 17  1  0
 17 18  1  0
 17 19  1  0
 19 20  2  0
 19  8  1  0
 15 11  1  0
  1 21  1  0
  1 22  1  0
  1 23  1  0
  4 24  1  0
  4 25  1  0
  5 26  1  0
  5 27  1  0
  6 28  1  0
  6 29  1  0
  7 30  1  0
  7 31  1  0
 14 32  1  0
 16 33  1  0
 16 34  1  0
 16 35  1  0
 18 36  1  0
 18 37  1  0
 18 38  1  0
M  END
>  <meeko>  (6) 
{"is_sidechain": [false], "free_energy": -6.1, "intermolecular_energy": -7.832, "internal_energy": -0.476}

$$$$
3aru_ligand
     RDKit          3D

 38 39  0  0  0  0  0  0  0  0999 V2000
   -7.4950    7.7660   13.3150 C   0  0  0  0  0  0  0  0  0  0  0  0
   -7.0900    8.0970   14.7280 C   0  0  0  0  0  0  0  0  0  0  0  0
   -7.5690    7.4860   15.6850 O   0  0  0  0  0  0  0  0  0  0  0  0
   -6.1150    9.2470   14.8980 C   0  0  0  0  0  0  0  0  0  0  0  0
   -5.2950    9.1140   16.1810 C   0  0  0  0  0  0  0  0  0  0  0  0
   -3.7860    9.0330   15.9340 C   0  0  0  0  0  0  0  0  0  0  0  0
   -2.9300    9.9770   16.7920 C   0  0  0  0  0  0  0  0  0  0  0  0
   -1.5200    9.5990   16.8340 N   0  0  0  0  0  0  0  0  0  0  0  0
   -0.6930   10.1340   15.8370 C   0  0  0  0  0  0  0  0  0  0  0  0
   -1.0860   10.8770   14.9410 O   0  0  0  0  0  0  0  0  0  0  0  0
    0.6620    9.7270   15.9610 C   0  0  0  0  0  0  0  0  0  0  0  0
    1.1030    8.8990   16.9460 C   0  0  0  0  0  0  0  0  0  0  0  0
    2.4400    8.6570   16.8470 N   0  0  0  0  0  0  0  0  0  0  0  0
    2.8220    9.3510   15.7930 C   0  0  0  0  0  0  0  0  0  0  0  0
    1.7720   10.0190   15.2210 N   0  0  0  0  0  0  0  0  0  0  0  0
    1.8340   10.8680   14.0590 C   0  0  0  0  0  0  0  0  0  0  0  0
    0.2560    8.3930   17.9010 N   0  0  0  0  0  0  0  0  0  0  0  0
    0.7730    7.5210   18.9410 C   0  0  0  0  0  0  0  0  0  0  0  0
   -1.0960    8.7390   17.8690 C   0  0  0  0  0  0  0  0  0  0  0  0
   -1.8910    8.3110   18.7130 O   0  0  0  0  0  0  0  0  0  0  0  0
   -8.3466    7.0700   13.3312 H   0  0  0  0  0  0  0  0  0  0  0  0
   -7.7854    8.6886   12.7911 H   0  0  0  0  0  0  0  0  0  0  0  0
   -6.6487    7.2978   12.7911 H   0  0  0  0  0  0  0  0  0  0  0  0
   -5.4295    9.2622   14.0378 H   0  0  0  0  0  0  0  0  0  0  0  0
   -6.6951   10.1796   14.9593 H   0  0  0  0  0  0  0  0  0  0  0  0
   -5.4976    9.9888   16.8163 H   0  0  0  0  0  0  0  0  0  0  0  0
   -5.5959    8.1715   16.6618 H   0  0  0  0  0  0  0  0  0  0  0  0
   -3.4629    8.0014   16.1377 H   0  0  0  0  0  0  0  0  0  0  0  0
   -3.6308    9.3447   14.8906 H   0  0  0  0  0  0  0  0  0  0  0  0
   -3.0071   10.9927   16.3768 H   0  0  0  0  0  0  0  0  0  0  0  0
   -3.3137    9.9202   17.8213 H   0  0  0  0  0  0  0  0  0  0  0  0
    3.8559    9.3888   15.4194 H   0  0  0  0  0  0  0  0  0  0  0  0
    1.9107   11.9185   14.3761 H   0  0  0  0  0  0  0  0  0  0  0  0
    2.7151   10.6015   13.4568 H   0  0  0  0  0  0  0  0  0  0  0  0
    0.9236   10.7323   13.4568 H   0  0  0  0  0  0  0  0  0  0  0  0
    0.5248    7.9397   19.9275 H   0  0  0  0  0  0  0  0  0  0  0  0
    0.3203    6.5234   18.8416 H   0  0  0  0  0  0  0  0  0  0  0  0
    1.8655    7.4395   18.8416 H   0  0  0  0  0  0  0  0  0  0  0  0
  1  2  1  0
  2  3  2  0
  2  4  1  0
  4  5  1  0
  5  6  1  0
  6  7  1  0
  7  8  1  0
  8  9  1  0
  9 10  2  0
  9 11  1  0
 11 12  2  0
 12 13  1  0
 13 14  2  0
 14 15  1  0
 15 16  1  0
 12 17  1  0
 17 18  1  0
 17 19  1  0
 19 20  2  0
 19  8  1  0
 15 11  1  0
  1 21  1  0
  1 22  1  0
  1 23  1  0
  4 24  1  0
  4 25  1  0
  5 26  1  0
  5 27  1  0
  6 28  1  0
  6 29  1  0
  7 30  1  0
  7 31  1  0
 14 32  1  0
 16 33  1  0
 16 34  1  0
 16 35  1  0
 18 36  1  0
 18 37  1  0
 18 38  1  0
M  END
>  <meeko>  (7) 
{"is_sidechain": [false], "free_energy": -6.097, "intermolecular_energy": -8.051, "internal_energy": -0.252}

$$$$
3aru_ligand
     RDKit          3D

 38 39  0  0  0  0  0  0  0  0999 V2000
    2.0070    7.8410   22.9140 C   0  0  0  0  0  0  0  0  0  0  0  0
    1.6710    9.2330   22.4440 C   0  0  0  0  0  0  0  0  0  0  0  0
    2.3260   10.2050   22.8200 O   0  0  0  0  0  0  0  0  0  0  0  0
    0.4620    9.3630   21.5360 C   0  0  0  0  0  0  0  0  0  0  0  0
    0.7500    8.8480   20.1270 C   0  0  0  0  0  0  0  0  0  0  0  0
   -0.0580    7.6010   19.7560 C   0  0  0  0  0  0  0  0  0  0  0  0
   -0.2350    7.3570   18.2500 C   0  0  0  0  0  0  0  0  0  0  0  0
   -0.4770    8.5820   17.4920 N   0  0  0  0  0  0  0  0  0  0  0  0
    0.6050    9.0990   16.7670 C   0  0  0  0  0  0  0  0  0  0  0  0
    1.7250    8.5950   16.7460 O   0  0  0  0  0  0  0  0  0  0  0  0
    0.2790   10.2800   16.0500 C   0  0  0  0  0  0  0  0  0  0  0  0
   -0.9570   10.8490   16.0730 C   0  0  0  0  0  0  0  0  0  0  0  0
   -1.0150   11.9740   15.3070 N   0  0  0  0  0  0  0  0  0  0  0  0
    0.1990   12.0910   14.8050 C   0  0  0  0  0  0  0  0  0  0  0  0
    1.0210   11.0820   15.2290 N   0  0  0  0  0  0  0  0  0  0  0  0
    2.4050   10.9040   14.8730 C   0  0  0  0  0  0  0  0  0  0  0  0
   -1.9880   10.3100   16.8020 N   0  0  0  0  0  0  0  0  0  0  0  0
   -3.2940   10.9450   16.7890 C   0  0  0  0  0  0  0  0  0  0  0  0
   -1.7700    9.1450   17.5390 C   0  0  0  0  0  0  0  0  0  0  0  0
   -2.6720    8.6230   18.2030 O   0  0  0  0  0  0  0  0  0  0  0  0
    2.0129    7.8167   24.0137 H   0  0  0  0  0  0  0  0  0  0  0  0
    1.2536    7.1344   22.5357 H   0  0  0  0  0  0  0  0  0  0  0  0
    2.9998    7.5559   22.5357 H   0  0  0  0  0  0  0  0  0  0  0  0
   -0.3684    8.7823   21.9641 H   0  0  0  0  0  0  0  0  0  0  0  0
    0.2036   10.4297   21.4629 H   0  0  0  0  0  0  0  0  0  0  0  0
    0.5092    9.6455   19.4087 H   0  0  0  0  0  0  0  0  0  0  0  0
    1.8128    8.5662   20.0962 H   0  0  0  0  0  0  0  0  0  0  0  0
    0.4523    6.7257   20.1843 H   0  0  0  0  0  0  0  0  0  0  0  0
   -1.0688    7.7629   20.1585 H   0  0  0  0  0  0  0  0  0  0  0  0
    0.6785    6.8816   17.8633 H   0  0  0  0  0  0  0  0  0  0  0  0
   -1.1199    6.7157   18.1251 H   0  0  0  0  0  0  0  0  0  0  0  0
    0.5124   12.9000   14.1287 H   0  0  0  0  0  0  0  0  0  0  0  0
    3.0117   10.8260   15.7873 H   0  0  0  0  0  0  0  0  0  0  0  0
    2.5157    9.9842   14.2799 H   0  0  0  0  0  0  0  0  0  0  0  0
    2.7448   11.7658   14.2799 H   0  0  0  0  0  0  0  0  0  0  0  0
   -3.6321   11.1094   17.8228 H   0  0  0  0  0  0  0  0  0  0  0  0
   -3.2268   11.9110   16.2672 H   0  0  0  0  0  0  0  0  0  0  0  0
   -4.0123   10.2956   16.2672 H   0  0  0  0  0  0  0  0  0  0  0  0
  1  2  1  0
  2  3  2  0
  2  4  1  0
  4  5  1  0
  5  6  1  0
  6  7  1  0
  7  8  1  0
  8  9  1  0
  9 10  2  0
  9 11  1  0
 11 12  2  0
 12 13  1  0
 13 14  2  0
 14 15  1  0
 15 16  1  0
 12 17  1  0
 17 18  1  0
 17 19  1  0
 19 20  2  0
 19  8  1  0
 15 11  1  0
  1 21  1  0
  1 22  1  0
  1 23  1  0
  4 24  1  0
  4 25  1  0
  5 26  1  0
  5 27  1  0
  6 28  1  0
  6 29  1  0
  7 30  1  0
  7 31  1  0
 14 32  1  0
 16 33  1  0
 16 34  1  0
 16 35  1  0
 18 36  1  0
 18 37  1  0
 18 38  1  0
M  END
>  <meeko>  (8) 
{"is_sidechain": [false], "free_energy": -6.095, "intermolecular_energy": -8.106, "internal_energy": -0.195}

$$$$
3aru_ligand
     RDKit          3D

 38 39  0  0  0  0  0  0  0  0999 V2000
    2.3460   10.5380   14.8600 C   0  0  0  0  0  0  0  0  0  0  0  0
    1.3270   11.4460   14.2220 C   0  0  0  0  0  0  0  0  0  0  0  0
    1.3690   11.7010   13.0180 O   0  0  0  0  0  0  0  0  0  0  0  0
    0.2960   12.0600   15.1520 C   0  0  0  0  0  0  0  0  0  0  0  0
   -0.7870   11.0550   15.5440 C   0  0  0  0  0  0  0  0  0  0  0  0
   -0.9250   10.8670   17.0580 C   0  0  0  0  0  0  0  0  0  0  0  0
   -1.4510    9.4940   17.5030 C   0  0  0  0  0  0  0  0  0  0  0  0
   -0.8720    9.0350   18.7620 N   0  0  0  0  0  0  0  0  0  0  0  0
    0.3710    8.3920   18.6870 C   0  0  0  0  0  0  0  0  0  0  0  0
    0.9790    8.1870   17.6400 O   0  0  0  0  0  0  0  0  0  0  0  0
    0.8670    7.9920   19.9560 C   0  0  0  0  0  0  0  0  0  0  0  0
    0.1950    8.2080   21.1210 C   0  0  0  0  0  0  0  0  0  0  0  0
    0.8770    7.7300   22.1980 N   0  0  0  0  0  0  0  0  0  0  0  0
    1.9810    7.2200   21.6880 C   0  0  0  0  0  0  0  0  0  0  0  0
    2.0180    7.3570   20.3250 N   0  0  0  0  0  0  0  0  0  0  0  0
    3.0750    6.9140   19.4540 C   0  0  0  0  0  0  0  0  0  0  0  0
   -1.0240    8.8390   21.1460 N   0  0  0  0  0  0  0  0  0  0  0  0
   -1.6990    9.0590   22.4130 C   0  0  0  0  0  0  0  0  0  0  0  0
   -1.5950    9.2760   19.9500 C   0  0  0  0  0  0  0  0  0  0  0  0
   -2.6870    9.8540   19.9290 O   0  0  0  0  0  0  0  0  0  0  0  0
    2.2661   10.6092   15.9548 H   0  0  0  0  0  0  0  0  0  0  0  0
    2.1604    9.5004   14.5455 H   0  0  0  0  0  0  0  0  0  0  0  0
    3.3555   10.8415   14.5455 H   0  0  0  0  0  0  0  0  0  0  0  0
    0.8028   12.4105   16.0632 H   0  0  0  0  0  0  0  0  0  0  0  0
   -0.1878   12.8938   14.6222 H   0  0  0  0  0  0  0  0  0  0  0  0
   -1.7503   11.4084   15.1475 H   0  0  0  0  0  0  0  0  0  0  0  0
   -0.4946   10.0822   15.1219 H   0  0  0  0  0  0  0  0  0  0  0  0
    0.0667   11.0142   17.5107 H   0  0  0  0  0  0  0  0  0  0  0  0
   -1.6736   11.6018   17.3891 H   0  0  0  0  0  0  0  0  0  0  0  0
   -2.5423    9.5605   17.6241 H   0  0  0  0  0  0  0  0  0  0  0  0
   -1.1639    8.7680   16.7281 H   0  0  0  0  0  0  0  0  0  0  0  0
    2.7741    6.7436   22.2830 H   0  0  0  0  0  0  0  0  0  0  0  0
    3.9230    6.5586   20.0578 H   0  0  0  0  0  0  0  0  0  0  0  0
    2.7077    6.0941   18.8193 H   0  0  0  0  0  0  0  0  0  0  0  0
    3.4020    7.7508   18.8193 H   0  0  0  0  0  0  0  0  0  0  0  0
   -1.0092    8.8342   23.2398 H   0  0  0  0  0  0  0  0  0  0  0  0
   -2.0212   10.1087   22.4794 H   0  0  0  0  0  0  0  0  0  0  0  0
   -2.5778    8.4008   22.4794 H   0  0  0  0  0  0  0  0  0  0  0  0
  1  2  1  0
  2  3  2  0
  2  4  1  0
  4  5  1  0
  5  6  1  0
  6  7  1  0
  7  8  1  0
  8  9  1  0
  9 10  2  0
  9 11  1  0
 11 12  2  0
 12 13  1  0
 13 14  2  0
 14 15  1  0
 15 16  1  0
 12 17  1  0
 17 18  1  0
 17 19  1  0
 19 20  2  0
 19  8  1  0
 15 11  1  0
  1 21  1  0
  1 22  1  0
  1 23  1  0
  4 24  1  0
  4 25  1  0
  5 26  1  0
  5 27  1  0
  6 28  1  0
  6 29  1  0
  7 30  1  0
  7 31  1  0
 14 32  1  0
 16 33  1  0
 16 34  1  0
 16 35  1  0
 18 36  1  0
 18 37  1  0
 18 38  1  0
M  END
>  <meeko>  (9) 
{"is_sidechain": [false], "free_energy": -5.868, "intermolecular_energy": -7.636, "internal_energy": -0.372}

$$$$
