3dxg_ligand
     RDKit          3D

 32 33  0  0  0  0  0  0  0  0999 V2000
   33.8720   -4.9500   12.0420 O   0  0  0  0  0  0  0  0  0  0  0  0
   34.9430   -4.3960   12.2690 C   0  0  0  0  0  0  0  0  0  0  0  0
   35.4110   -3.2320   11.5120 C   0  0  0  0  0  0  0  0  0  0  0  0
   36.5600   -2.6550   11.8700 C   0  0  0  0  0  0  0  0  0  0  0  0
   37.3500   -3.1330   12.9010 N   0  0  0  0  0  0  0  0  0  0  0  0
   38.5730   -2.4370   13.3020 C   0  0  2  0  0  0  0  0  0  0  0  0
   38.3050   -1.1530   13.8880 O   0  0  0  0  0  0  0  0  0  0  0  0
   38.4770   -0.1150   12.8790 C   0  0  2  0  0  0  0  0  0  0  0  0
   37.1800    0.6380   12.5810 C   0  0  0  0  0  0  0  0  0  0  0  0
   37.2300    1.1880   11.2800 O   0  0  0  0  0  0  0  0  0  0  0  0
   37.6230    2.7810   11.2300 P   0  0  0  0  0  0  0  0  0  0  0  0
   37.1660    3.3030   12.5810 O   0  0  0  0  0  0  0  0  0  0  0  0
   39.1290    2.7640   11.0140 O   0  0  0  0  0  0  0  0  0  0  0  0
   36.8270    3.3060   10.0400 O   0  0  0  0  0  0  0  0  0  0  0  0
   39.0090   -0.8120   11.6230 C   0  0  1  0  0  0  0  0  0  0  0  0
   40.0310   -0.0730   10.9510 O   0  0  0  0  0  0  0  0  0  0  0  0
   39.5690   -2.1100   12.1830 C   0  0  1  0  0  0  0  0  0  0  0  0
   40.8870   -1.8290   12.7340 O   0  0  0  0  0  0  0  0  0  0  0  0
   36.9220   -4.1940   13.6820 C   0  0  0  0  0  0  0  0  0  0  0  0
   37.5060   -4.5950   14.6900 O   0  0  0  0  0  0  0  0  0  0  0  0
   35.7660   -4.8090   13.2790 N   0  0  0  0  0  0  0  0  0  0  0  0
   34.8270   -2.8415   10.6656 H   0  0  0  0  0  0  0  0  0  0  0  0
   36.8934   -1.7613   11.3222 H   0  0  0  0  0  0  0  0  0  0  0  0
   39.0070   -3.1720   13.9958 H   0  0  0  0  0  0  0  0  0  0  0  0
   39.1783    0.6495   13.2447 H   0  0  0  0  0  0  0  0  0  0  0  0
   36.3305   -0.0574   12.6504 H   0  0  0  0  0  0  0  0  0  0  0  0
   37.0570    1.4502   13.3126 H   0  0  0  0  0  0  0  0  0  0  0  0
   38.2267   -0.9379   10.8600 H   0  0  0  0  0  0  0  0  0  0  0  0
   40.8660   -0.5280   11.1720 H   0  0  0  0  0  0  0  0  0  0  0  0
   39.6796   -2.9284   11.4564 H   0  0  0  0  0  0  0  0  0  0  0  0
   41.4510   -1.5970   11.9680 H   0  0  0  0  0  0  0  0  0  0  0  0
   35.4390   -5.5770   13.8390 H   0  0  0  0  0  0  0  0  0  0  0  0
  1  2  2  0
  2  3  1  0
  3  4  2  0
  4  5  1  0
  5  6  1  0
  6  7  1  0
  7  8  1  0
  8  9  1  0
  9 10  1  0
 10 11  1  0
 11 12  2  0
 11 13  1  0
 11 14  1  0
  8 15  1  0
 15 16  1  0
 15 17  1  0
 17 18  1  0
  5 19  1  0
 19 20  2  0
 19 21  1  0
 21  2  1  0
 17  6  1  0
  3 22  1  0
  4 23  1  0
  6 24  1  1
  8 25  1  1
  9 26  1  0
  9 27  1  0
 15 28  1  6
 16 29  1  0
 17 30  1  6
 18 31  1  0
 21 32  1  0
M  CHG  2  13  -1  14  -1
M  END
>  <meeko>  (1) 
{"is_sidechain": [false], "free_energy": -5.664, "intermolecular_energy": -7.32, "internal_energy": -0.329}

$$$$
3dxg_ligand
     RDKit          3D

 32 33  0  0  0  0  0  0  0  0999 V2000
   34.7290   -5.9390   13.7150 O   0  0  0  0  0  0  0  0  0  0  0  0
   35.3100   -4.9460   13.2900 C   0  0  0  0  0  0  0  0  0  0  0  0
   36.6320   -4.5340   13.7680 C   0  0  0  0  0  0  0  0  0  0  0  0
   37.2160   -3.4750   13.2040 C   0  0  0  0  0  0  0  0  0  0  0  0
   36.6080   -2.7220   12.2130 N   0  0  0  0  0  0  0  0  0  0  0  0
   37.3050   -1.6040   11.5780 C   0  0  2  0  0  0  0  0  0  0  0  0
   38.4450   -1.1680   12.3360 O   0  0  0  0  0  0  0  0  0  0  0  0
   38.0780   -0.0090   13.1400 C   0  0  2  0  0  0  0  0  0  0  0  0
   38.1830   -0.2780   14.6420 C   0  0  0  0  0  0  0  0  0  0  0  0
   39.2600   -1.1570   14.9000 O   0  0  0  0  0  0  0  0  0  0  0  0
   39.1240   -2.0040   16.2990 P   0  0  0  0  0  0  0  0  0  0  0  0
   40.0650   -1.2810   17.2460 O   0  0  0  0  0  0  0  0  0  0  0  0
   37.6450   -1.8900   16.6350 O   0  0  0  0  0  0  0  0  0  0  0  0
   39.5680   -3.4100   15.9070 O   0  0  0  0  0  0  0  0  0  0  0  0
   36.6440    0.3580   12.7460 C   0  0  1  0  0  0  0  0  0  0  0  0
   36.4260    1.7660   12.6350 O   0  0  0  0  0  0  0  0  0  0  0  0
   36.4960   -0.3150   11.3910 C   0  0  1  0  0  0  0  0  0  0  0  0
   37.1200    0.5440   10.3940 O   0  0  0  0  0  0  0  0  0  0  0  0
   35.3840   -3.1050   11.6890 C   0  0  0  0  0  0  0  0  0  0  0  0
   34.8400   -2.5640   10.7260 O   0  0  0  0  0  0  0  0  0  0  0  0
   34.7720   -4.1650   12.3050 N   0  0  0  0  0  0  0  0  0  0  0  0
   37.1335   -5.0868   14.5761 H   0  0  0  0  0  0  0  0  0  0  0  0
   38.2231   -3.1878   13.5404 H   0  0  0  0  0  0  0  0  0  0  0  0
   37.5502   -2.0458   10.6009 H   0  0  0  0  0  0  0  0  0  0  0  0
   38.7750    0.8191   12.9440 H   0  0  0  0  0  0  0  0  0  0  0  0
   38.3522    0.6712   15.1715 H   0  0  0  0  0  0  0  0  0  0  0  0
   37.2479   -0.7386   14.9934 H   0  0  0  0  0  0  0  0  0  0  0  0
   35.9140    0.0358   13.5032 H   0  0  0  0  0  0  0  0  0  0  0  0
   35.9900    2.0260   13.4700 H   0  0  0  0  0  0  0  0  0  0  0  0
   35.4615   -0.5034   11.0681 H   0  0  0  0  0  0  0  0  0  0  0  0
   37.9920    0.7900   10.7630 H   0  0  0  0  0  0  0  0  0  0  0  0
   33.8860   -4.4590   11.9330 H   0  0  0  0  0  0  0  0  0  0  0  0
  1  2  2  0
  2  3  1  0
  3  4  2  0
  4  5  1  0
  5  6  1  0
  6  7  1  0
  7  8  1  0
  8  9  1  0
  9 10  1  0
 10 11  1  0
 11 12  2  0
 11 13  1  0
 11 14  1  0
  8 15  1  0
 15 16  1  0
 15 17  1  0
 17 18  1  0
  5 19  1  0
 19 20  2  0
 19 21  1  0
 21  2  1  0
 17  6  1  0
  3 22  1  0
  4 23  1  0
  6 24  1  6
  8 25  1  6
  9 26  1  0
  9 27  1  0
 15 28  1  1
 16 29  1  0
 17 30  1  6
 18 31  1  0
 21 32  1  0
M  CHG  2  13  -1  14  -1
M  END
>  <meeko>  (2) 
{"is_sidechain": [false], "free_energy": -5.611, "intermolecular_energy": -7.236, "internal_energy": -0.344}

$$$$
3dxg_ligand
     RDKit          3D

 32 33  0  0  0  0  0  0  0  0999 V2000
   38.4070   -2.1230   17.5940 O   0  0  0  0  0  0  0  0  0  0  0  0
   38.0840   -2.2130   16.4140 C   0  0  0  0  0  0  0  0  0  0  0  0
   38.2380   -1.1100   15.4630 C   0  0  0  0  0  0  0  0  0  0  0  0
   37.9180   -1.3170   14.1840 C   0  0  0  0  0  0  0  0  0  0  0  0
   37.4080   -2.5200   13.7240 N   0  0  0  0  0  0  0  0  0  0  0  0
   37.1260   -2.7280   12.3040 C   0  0  2  0  0  0  0  0  0  0  0  0
   37.5880   -1.6390   11.4890 O   0  0  0  0  0  0  0  0  0  0  0  0
   36.4770   -0.7400   11.2060 C   0  0  2  0  0  0  0  0  0  0  0  0
   36.6860    0.6580   11.7910 C   0  0  0  0  0  0  0  0  0  0  0  0
   37.8920    1.2100   11.3010 O   0  0  0  0  0  0  0  0  0  0  0  0
   37.9610    2.8480   11.3580 P   0  0  0  0  0  0  0  0  0  0  0  0
   36.9420    3.2840   10.3200 O   0  0  0  0  0  0  0  0  0  0  0  0
   37.5980    3.1640   12.8010 O   0  0  0  0  0  0  0  0  0  0  0  0
   39.4110    3.1550   10.9980 O   0  0  0  0  0  0  0  0  0  0  0  0
   35.2240   -1.3980   11.7890 C   0  0  1  0  0  0  0  0  0  0  0  0
   34.0740   -1.2810   10.9490 O   0  0  0  0  0  0  0  0  0  0  0  0
   35.6480   -2.8530   11.9130 C   0  0  1  0  0  0  0  0  0  0  0  0
   35.5130   -3.4730   10.6030 O   0  0  0  0  0  0  0  0  0  0  0  0
   37.2990   -3.6090   14.5730 C   0  0  0  0  0  0  0  0  0  0  0  0
   36.9750   -4.7410   14.2130 O   0  0  0  0  0  0  0  0  0  0  0  0
   37.5850   -3.3740   15.8920 N   0  0  0  0  0  0  0  0  0  0  0  0
   38.6102   -0.1300   15.7964 H   0  0  0  0  0  0  0  0  0  0  0  0
   38.0654   -0.4978   13.4648 H   0  0  0  0  0  0  0  0  0  0  0  0
   37.6484   -3.6805   12.1311 H   0  0  0  0  0  0  0  0  0  0  0  0
   36.3856   -0.5891   10.1202 H   0  0  0  0  0  0  0  0  0  0  0  0
   35.8447    1.3043   11.5005 H   0  0  0  0  0  0  0  0  0  0  0  0
   36.7396    0.5872   12.8874 H   0  0  0  0  0  0  0  0  0  0  0  0
   34.9129   -0.9249   12.7321 H   0  0  0  0  0  0  0  0  0  0  0  0
   33.3190   -1.5600   11.5040 H   0  0  0  0  0  0  0  0  0  0  0  0
   35.0664   -3.4547   12.6269 H   0  0  0  0  0  0  0  0  0  0  0  0
   36.4030   -3.8090   10.3750 H   0  0  0  0  0  0  0  0  0  0  0  0
   37.5160   -4.1550   16.5200 H   0  0  0  0  0  0  0  0  0  0  0  0
  1  2  2  0
  2  3  1  0
  3  4  2  0
  4  5  1  0
  5  6  1  0
  6  7  1  0
  7  8  1  0
  8  9  1  0
  9 10  1  0
 10 11  1  0
 11 12  2  0
 11 13  1  0
 11 14  1  0
  8 15  1  0
 15 16  1  0
 15 17  1  0
 17 18  1  0
  5 19  1  0
 19 20  2  0
 19 21  1  0
 21  2  1  0
 17  6  1  0
  3 22  1  0
  4 23  1  0
  6 24  1  6
  8 25  1  6
  9 26  1  0
  9 27  1  0
 15 28  1  1
 16 29  1  0
 17 30  1  1
 18 31  1  0
 21 32  1  0
M  CHG  2  13  -1  14  -1
M  END
>  <meeko>  (3) 
{"is_sidechain": [false], "free_energy": -5.583, "intermolecular_energy": -7.429, "internal_energy": -0.114}

$$$$
3dxg_ligand
     RDKit          3D

 32 33  0  0  0  0  0  0  0  0999 V2000
   36.9840    3.3080   10.3510 O   0  0  0  0  0  0  0  0  0  0  0  0
   37.5240    2.5450   11.1450 C   0  0  0  0  0  0  0  0  0  0  0  0
   37.0170    2.3200   12.5000 C   0  0  0  0  0  0  0  0  0  0  0  0
   37.6330    1.4230   13.2740 C   0  0  0  0  0  0  0  0  0  0  0  0
   38.7560    0.7250   12.8650 N   0  0  0  0  0  0  0  0  0  0  0  0
   39.3670   -0.2930   13.7200 C   0  0  2  0  0  0  0  0  0  0  0  0
   39.5510   -1.5430   13.0360 O   0  0  0  0  0  0  0  0  0  0  0  0
   38.4530   -2.4430   13.3670 C   0  0  2  0  0  0  0  0  0  0  0  0
   37.6080   -2.8140   12.1480 C   0  0  0  0  0  0  0  0  0  0  0  0
   37.0610   -4.1070   12.3150 O   0  0  0  0  0  0  0  0  0  0  0  0
   35.4270   -4.1760   12.1820 P   0  0  0  0  0  0  0  0  0  0  0  0
   34.9380   -3.7140   13.5430 O   0  0  0  0  0  0  0  0  0  0  0  0
   35.1300   -3.2290   11.0280 O   0  0  0  0  0  0  0  0  0  0  0  0
   35.1580   -5.6440   11.8700 O   0  0  0  0  0  0  0  0  0  0  0  0
   37.6080   -1.7290   14.4250 C   0  0  1  0  0  0  0  0  0  0  0  0
   37.1530   -2.5920   15.4690 O   0  0  0  0  0  0  0  0  0  0  0  0
   38.5780   -0.6940   14.9730 C   0  0  1  0  0  0  0  0  0  0  0  0
   39.4450   -1.3570   15.9360 O   0  0  0  0  0  0  0  0  0  0  0  0
   39.2370    0.8600   11.5730 C   0  0  0  0  0  0  0  0  0  0  0  0
   40.1500    0.1840   11.0970 O   0  0  0  0  0  0  0  0  0  0  0  0
   38.6290    1.8150   10.8020 N   0  0  0  0  0  0  0  0  0  0  0  0
   36.1460    2.8788   12.8730 H   0  0  0  0  0  0  0  0  0  0  0  0
   37.2307    1.2306   14.2796 H   0  0  0  0  0  0  0  0  0  0  0  0
   40.3015    0.2134   14.0033 H   0  0  0  0  0  0  0  0  0  0  0  0
   38.8513   -3.3963   13.7446 H   0  0  0  0  0  0  0  0  0  0  0  0
   36.7921   -2.0850   12.0347 H   0  0  0  0  0  0  0  0  0  0  0  0
   38.2442   -2.8039   11.2507 H   0  0  0  0  0  0  0  0  0  0  0  0
   36.6818   -1.3147   14.0001 H   0  0  0  0  0  0  0  0  0  0  0  0
   36.1850   -2.6550   15.3490 H   0  0  0  0  0  0  0  0  0  0  0  0
   38.1142    0.1653   15.4795 H   0  0  0  0  0  0  0  0  0  0  0  0
   39.7660   -2.1680   15.4920 H   0  0  0  0  0  0  0  0  0  0  0  0
   38.9630    1.9220    9.8610 H   0  0  0  0  0  0  0  0  0  0  0  0
  1  2  2  0
  2  3  1  0
  3  4  2  0
  4  5  1  0
  5  6  1  0
  6  7  1  0
  7  8  1  0
  8  9  1  0
  9 10  1  0
 10 11  1  0
 11 12  2  0
 11 13  1  0
 11 14  1  0
  8 15  1  0
 15 16  1  0
 15 17  1  0
 17 18  1  0
  5 19  1  0
 19 20  2  0
 19 21  1  0
 21  2  1  0
 17  6  1  0
  3 22  1  0
  4 23  1  0
  6 24  1  1
  8 25  1  1
  9 26  1  0
  9 27  1  0
 15 28  1  6
 16 29  1  0
 17 30  1  1
 18 31  1  0
 21 32  1  0
M  CHG  2  13  -1  14  -1
M  END
>  <meeko>  (4) 
{"is_sidechain": [false], "free_energy": -5.539, "intermolecular_energy": -7.155, "internal_energy": -0.332}

$$$$
3dxg_ligand
     RDKit          3D

 32 33  0  0  0  0  0  0  0  0999 V2000
   36.9710    3.3080   10.3800 O   0  0  0  0  0  0  0  0  0  0  0  0
   37.4310    2.4430   11.1180 C   0  0  0  0  0  0  0  0  0  0  0  0
   37.8410    1.1230   10.6330 C   0  0  0  0  0  0  0  0  0  0  0  0
   38.3900    0.2650   11.4960 C   0  0  0  0  0  0  0  0  0  0  0  0
   38.5520    0.5550   12.8400 N   0  0  0  0  0  0  0  0  0  0  0  0
   39.2120   -0.3880   13.7430 C   0  0  2  0  0  0  0  0  0  0  0  0
   39.4690   -1.6560   13.1180 O   0  0  0  0  0  0  0  0  0  0  0  0
   38.4210   -2.5980   13.4870 C   0  0  2  0  0  0  0  0  0  0  0  0
   37.6040   -3.0710   12.2830 C   0  0  0  0  0  0  0  0  0  0  0  0
   37.0390   -4.3380   12.5520 O   0  0  0  0  0  0  0  0  0  0  0  0
   35.4130   -4.4150   12.3440 P   0  0  0  0  0  0  0  0  0  0  0  0
   34.8600   -3.9600   13.6830 O   0  0  0  0  0  0  0  0  0  0  0  0
   35.1640   -3.4670   11.1800 O   0  0  0  0  0  0  0  0  0  0  0  0
   35.1650   -5.8830   12.0160 O   0  0  0  0  0  0  0  0  0  0  0  0
   37.5320   -1.8840   14.5080 C   0  0  1  0  0  0  0  0  0  0  0  0
   37.1190   -2.7220   15.5900 O   0  0  0  0  0  0  0  0  0  0  0  0
   38.4400   -0.7730   15.0110 C   0  0  1  0  0  0  0  0  0  0  0  0
   39.3370   -1.3430   16.0070 O   0  0  0  0  0  0  0  0  0  0  0  0
   38.2330    1.8100   13.3340 C   0  0  0  0  0  0  0  0  0  0  0  0
   38.4630    2.1830   14.4840 O   0  0  0  0  0  0  0  0  0  0  0  0
   37.6280    2.6660   12.4520 N   0  0  0  0  0  0  0  0  0  0  0  0
   37.6993    0.8442    9.5784 H   0  0  0  0  0  0  0  0  0  0  0  0
   38.7278   -0.7134   11.1236 H   0  0  0  0  0  0  0  0  0  0  0  0
   40.1156    0.1816   14.0056 H   0  0  0  0  0  0  0  0  0  0  0  0
   38.8691   -3.5092   13.9099 H   0  0  0  0  0  0  0  0  0  0  0  0
   36.7995   -2.3483   12.0817 H   0  0  0  0  0  0  0  0  0  0  0  0
   38.2634   -3.1478   11.4059 H   0  0  0  0  0  0  0  0  0  0  0  0
   36.5870   -1.5418   14.0609 H   0  0  0  0  0  0  0  0  0  0  0  0
   36.4430   -2.2070   16.0730 H   0  0  0  0  0  0  0  0  0  0  0  0
   37.9275    0.0820   15.4761 H   0  0  0  0  0  0  0  0  0  0  0  0
   40.2180   -1.3780   15.5820 H   0  0  0  0  0  0  0  0  0  0  0  0
   37.3950    3.5820   12.7930 H   0  0  0  0  0  0  0  0  0  0  0  0
  1  2  2  0
  2  3  1  0
  3  4  2  0
  4  5  1  0
  5  6  1  0
  6  7  1  0
  7  8  1  0
  8  9  1  0
  9 10  1  0
 10 11  1  0
 11 12  2  0
 11 13  1  0
 11 14  1  0
  8 15  1  0
 15 16  1  0
 15 17  1  0
 17 18  1  0
  5 19  1  0
 19 20  2  0
 19 21  1  0
 21  2  1  0
 17  6  1  0
  3 22  1  0
  4 23  1  0
  6 24  1  1
  8 25  1  1
  9 26  1  0
  9 27  1  0
 15 28  1  6
 16 29  1  0
 17 30  1  1
 18 31  1  0
 21 32  1  0
M  CHG  2  13  -1  14  -1
M  END
>  <meeko>  (5) 
{"is_sidechain": [false], "free_energy": -5.529, "intermolecular_energy": -7.039, "internal_energy": -0.435}

$$$$
3dxg_ligand
     RDKit          3D

 32 33  0  0  0  0  0  0  0  0999 V2000
   36.6430    3.0850   12.9040 O   0  0  0  0  0  0  0  0  0  0  0  0
   37.0360    1.9230   12.8890 C   0  0  0  0  0  0  0  0  0  0  0  0
   36.6980    0.9850   11.8170 C   0  0  0  0  0  0  0  0  0  0  0  0
   37.2220   -0.2420   11.8500 C   0  0  0  0  0  0  0  0  0  0  0  0
   38.0410   -0.6800   12.8770 N   0  0  0  0  0  0  0  0  0  0  0  0
   38.6450   -2.0120   12.8480 C   0  0  2  0  0  0  0  0  0  0  0  0
   38.0100   -2.8800   11.8950 O   0  0  0  0  0  0  0  0  0  0  0  0
   37.0450   -3.7290   12.5820 C   0  0  2  0  0  0  0  0  0  0  0  0
   35.6090   -3.4840   12.1170 C   0  0  0  0  0  0  0  0  0  0  0  0
   34.7110   -4.2360   12.9080 O   0  0  0  0  0  0  0  0  0  0  0  0
   34.4580   -5.7680   12.3780 P   0  0  0  0  0  0  0  0  0  0  0  0
   35.5030   -6.5800   13.1230 O   0  0  0  0  0  0  0  0  0  0  0  0
   33.0150   -6.0430   12.7760 O   0  0  0  0  0  0  0  0  0  0  0  0
   34.6820   -5.6650   10.8740 O   0  0  0  0  0  0  0  0  0  0  0  0
   37.1960   -3.4400   14.0780 C   0  0  1  0  0  0  0  0  0  0  0  0
   37.1270   -4.6100   14.8950 O   0  0  0  0  0  0  0  0  0  0  0  0
   38.5820   -2.8180   14.1510 C   0  0  1  0  0  0  0  0  0  0  0  0
   39.5590   -3.8970   14.1360 O   0  0  0  0  0  0  0  0  0  0  0  0
   38.4350    0.1880   13.8820 C   0  0  0  0  0  0  0  0  0  0  0  0
   39.2570   -0.0880   14.7570 O   0  0  0  0  0  0  0  0  0  0  0  0
   37.8560    1.4300   13.8650 N   0  0  0  0  0  0  0  0  0  0  0  0
   36.0253    1.2857   11.0003 H   0  0  0  0  0  0  0  0  0  0  0  0
   36.9936   -0.9346   11.0265 H   0  0  0  0  0  0  0  0  0  0  0  0
   39.6877   -1.7570   12.6078 H   0  0  0  0  0  0  0  0  0  0  0  0
   37.2473   -4.7858   12.3533 H   0  0  0  0  0  0  0  0  0  0  0  0
   35.3720   -2.4142   12.2138 H   0  0  0  0  0  0  0  0  0  0  0  0
   35.5115   -3.7935   11.0660 H   0  0  0  0  0  0  0  0  0  0  0  0
   36.3833   -2.8034   14.4578 H   0  0  0  0  0  0  0  0  0  0  0  0
   38.0280   -4.9880   14.8800 H   0  0  0  0  0  0  0  0  0  0  0  0
   38.7775   -2.2045   15.0429 H   0  0  0  0  0  0  0  0  0  0  0  0
   39.7290   -4.0890   13.1920 H   0  0  0  0  0  0  0  0  0  0  0  0
   38.1360    2.0730   14.5840 H   0  0  0  0  0  0  0  0  0  0  0  0
  1  2  2  0
  2  3  1  0
  3  4  2  0
  4  5  1  0
  5  6  1  0
  6  7  1  0
  7  8  1  0
  8  9  1  0
  9 10  1  0
 10 11  1  0
 11 12  2  0
 11 13  1  0
 11 14  1  0
  8 15  1  0
 15 16  1  0
 15 17  1  0
 17 18  1  0
  5 19  1  0
 19 20  2  0
 19 21  1  0
 21  2  1  0
 17  6  1  0
  3 22  1  0
  4 23  1  0
  6 24  1  6
  8 25  1  1
  9 26  1  0
  9 27  1  0
 15 28  1  1
 16 29  1  0
 17 30  1  1
 18 31  1  0
 21 32  1  0
M  CHG  2  13  -1  14  -1
M  END
>  <meeko>  (6) 
{"is_sidechain": [false], "free_energy": -5.469, "intermolecular_energy": -6.91, "internal_energy": -0.487}

$$$$
3dxg_ligand
     RDKit          3D

 32 33  0  0  0  0  0  0  0  0999 V2000
   42.2220   -3.7550   11.0740 O   0  0  0  0  0  0  0  0  0  0  0  0
   41.6700   -2.6800   11.2890 C   0  0  0  0  0  0  0  0  0  0  0  0
   40.6580   -2.5030   12.3340 C   0  0  0  0  0  0  0  0  0  0  0  0
   40.1560   -1.2840   12.5390 C   0  0  0  0  0  0  0  0  0  0  0  0
   40.5200   -0.1850   11.7800 N   0  0  0  0  0  0  0  0  0  0  0  0
   39.9920    1.1470   12.0740 C   0  0  2  0  0  0  0  0  0  0  0  0
   39.0900    1.1430   13.1920 O   0  0  0  0  0  0  0  0  0  0  0  0
   37.7170    1.1030   12.7050 C   0  0  2  0  0  0  0  0  0  0  0  0
   36.9790   -0.1690   13.1260 C   0  0  0  0  0  0  0  0  0  0  0  0
   35.9590   -0.4650   12.1940 O   0  0  0  0  0  0  0  0  0  0  0  0
   35.7450   -2.0670   11.9080 P   0  0  0  0  0  0  0  0  0  0  0  0
   34.6240   -2.1000   10.8840 O   0  0  0  0  0  0  0  0  0  0  0  0
   37.1060   -2.5160   11.3970 O   0  0  0  0  0  0  0  0  0  0  0  0
   35.3770   -2.6270   13.2770 O   0  0  0  0  0  0  0  0  0  0  0  0
   37.7910    1.2160   11.1800 C   0  0  1  0  0  0  0  0  0  0  0  0
   36.7840    2.0620   10.6210 O   0  0  0  0  0  0  0  0  0  0  0  0
   39.1720    1.8160   10.9650 C   0  0  1  0  0  0  0  0  0  0  0  0
   39.0770    3.2510   11.1890 O   0  0  0  0  0  0  0  0  0  0  0  0
   41.5150   -0.2910   10.8200 C   0  0  0  0  0  0  0  0  0  0  0  0
   41.9800    0.6620   10.1950 O   0  0  0  0  0  0  0  0  0  0  0  0
   41.9910   -1.5540   10.5850 N   0  0  0  0  0  0  0  0  0  0  0  0
   40.3190   -3.3581   12.9373 H   0  0  0  0  0  0  0  0  0  0  0  0
   39.4212   -1.1463   13.3459 H   0  0  0  0  0  0  0  0  0  0  0  0
   40.9260    1.7026   12.2443 H   0  0  0  0  0  0  0  0  0  0  0  0
   37.1409    1.9312   13.1435 H   0  0  0  0  0  0  0  0  0  0  0  0
   37.6905   -1.0069   13.1662 H   0  0  0  0  0  0  0  0  0  0  0  0
   36.5291   -0.0148   14.1179 H   0  0  0  0  0  0  0  0  0  0  0  0
   37.6263    0.2463   10.6875 H   0  0  0  0  0  0  0  0  0  0  0  0
   36.4700    1.5950    9.8210 H   0  0  0  0  0  0  0  0  0  0  0  0
   39.6026    1.6637    9.9643 H   0  0  0  0  0  0  0  0  0  0  0  0
   39.9890    3.5520   11.3770 H   0  0  0  0  0  0  0  0  0  0  0  0
   42.7160   -1.6460    9.8960 H   0  0  0  0  0  0  0  0  0  0  0  0
  1  2  2  0
  2  3  1  0
  3  4  2  0
  4  5  1  0
  5  6  1  0
  6  7  1  0
  7  8  1  0
  8  9  1  0
  9 10  1  0
 10 11  1  0
 11 12  2  0
 11 13  1  0
 11 14  1  0
  8 15  1  0
 15 16  1  0
 15 17  1  0
 17 18  1  0
  5 19  1  0
 19 20  2  0
 19 21  1  0
 21  2  1  0
 17  6  1  0
  3 22  1  0
  4 23  1  0
  6 24  1  1
  8 25  1  1
  9 26  1  0
  9 27  1  0
 15 28  1  6
 16 29  1  0
 17 30  1  6
 18 31  1  0
 21 32  1  0
M  CHG  2  13  -1  14  -1
M  END
>  <meeko>  (7) 
{"is_sidechain": [false], "free_energy": -5.411, "intermolecular_energy": -6.823, "internal_energy": -0.498}

$$$$
3dxg_ligand
     RDKit          3D

 32 33  0  0  0  0  0  0  0  0999 V2000
   36.6820   -5.1780   12.9350 O   0  0  0  0  0  0  0  0  0  0  0  0
   36.5660   -3.9630   12.8060 C   0  0  0  0  0  0  0  0  0  0  0  0
   37.4570   -3.0070   13.4670 C   0  0  0  0  0  0  0  0  0  0  0  0
   37.2960   -1.7050   13.2190 C   0  0  0  0  0  0  0  0  0  0  0  0
   36.2970   -1.2160   12.3960 N   0  0  0  0  0  0  0  0  0  0  0  0
   36.1900    0.2130   12.1010 C   0  0  2  0  0  0  0  0  0  0  0  0
   37.0300    0.6100   11.0050 O   0  0  0  0  0  0  0  0  0  0  0  0
   38.2670    1.1790   11.5240 C   0  0  2  0  0  0  0  0  0  0  0  0
   39.5000    0.3640   11.1320 C   0  0  0  0  0  0  0  0  0  0  0  0
   40.4480    0.3890   12.1800 O   0  0  0  0  0  0  0  0  0  0  0  0
   41.7770    1.3010   11.8730 P   0  0  0  0  0  0  0  0  0  0  0  0
   42.8830    0.5850   12.6270 O   0  0  0  0  0  0  0  0  0  0  0  0
   41.8880    1.2580   10.3560 O   0  0  0  0  0  0  0  0  0  0  0  0
   41.4050    2.6700   12.4330 O   0  0  0  0  0  0  0  0  0  0  0  0
   38.1120    1.2440   13.0460 C   0  0  1  0  0  0  0  0  0  0  0  0
   38.6290    2.4460   13.6210 O   0  0  0  0  0  0  0  0  0  0  0  0
   36.6040    1.1730   13.2240 C   0  0  1  0  0  0  0  0  0  0  0  0
   36.0610    2.5030   12.9900 O   0  0  0  0  0  0  0  0  0  0  0  0
   35.4670   -2.0840   11.7040 C   0  0  0  0  0  0  0  0  0  0  0  0
   34.6420   -1.7320   10.8610 O   0  0  0  0  0  0  0  0  0  0  0  0
   35.6090   -3.4140   11.9990 N   0  0  0  0  0  0  0  0  0  0  0  0
   38.2428   -3.3545   14.1538 H   0  0  0  0  0  0  0  0  0  0  0  0
   37.9874   -0.9903   13.6892 H   0  0  0  0  0  0  0  0  0  0  0  0
   35.1116    0.2999   11.9025 H   0  0  0  0  0  0  0  0  0  0  0  0
   38.4299    2.1773   11.0918 H   0  0  0  0  0  0  0  0  0  0  0  0
   39.2017   -0.6763   10.9351 H   0  0  0  0  0  0  0  0  0  0  0  0
   39.9492    0.8003   10.2277 H   0  0  0  0  0  0  0  0  0  0  0  0
   38.6745    0.4446   13.5505 H   0  0  0  0  0  0  0  0  0  0  0  0
   37.9060    2.7970   14.1770 H   0  0  0  0  0  0  0  0  0  0  0  0
   36.2610    0.8441   14.2161 H   0  0  0  0  0  0  0  0  0  0  0  0
   35.0890    2.4080   13.0510 H   0  0  0  0  0  0  0  0  0  0  0  0
   35.0190   -4.0570   11.5020 H   0  0  0  0  0  0  0  0  0  0  0  0
  1  2  2  0
  2  3  1  0
  3  4  2  0
  4  5  1  0
  5  6  1  0
  6  7  1  0
  7  8  1  0
  8  9  1  0
  9 10  1  0
 10 11  1  0
 11 12  2  0
 11 13  1  0
 11 14  1  0
  8 15  1  0
 15 16  1  0
 15 17  1  0
 17 18  1  0
  5 19  1  0
 19 20  2  0
 19 21  1  0
 21  2  1  0
 17  6  1  0
  3 22  1  0
  4 23  1  0
  6 24  1  6
  8 25  1  6
  9 26  1  0
  9 27  1  0
 15 28  1  1
 16 29  1  0
 17 30  1  1
 18 31  1  0
 21 32  1  0
M  CHG  2  13  -1  14  -1
M  END
>  <meeko>  (8) 
{"is_sidechain": [false], "free_energy": -5.335, "intermolecular_energy": -6.655, "internal_energy": -0.568}

$$$$
