4ddh_ligand
     RDKit          3D

 24 25  0  0  0  0  0  0  0  0999 V2000
   13.8530    9.3930   -4.1990 C   0  0  0  0  0  0  0  0  0  0  0  0
   13.9500    8.6630   -2.9840 O   0  0  0  0  0  0  0  0  0  0  0  0
   14.6580    9.2540   -1.9680 C   0  0  0  0  0  0  0  0  0  0  0  0
   15.8490    9.8680   -2.3760 C   0  0  0  0  0  0  0  0  0  0  0  0
   16.6900   10.5210   -1.4620 C   0  0  0  0  0  0  0  0  0  0  0  0
   16.3150   10.5560   -0.1090 C   0  0  0  0  0  0  0  0  0  0  0  0
   16.8690   11.1050    1.0880 C   0  0  0  0  0  0  0  0  0  0  0  0
   18.1190   11.9060    1.2300 C   0  0  0  0  0  0  0  0  0  0  0  0
   19.3640   11.0630    0.9520 C   0  0  0  0  0  0  0  0  0  0  0  0
   20.1800   11.5600    0.1210 O   0  0  0  0  0  0  0  0  0  0  0  0
   19.4060    9.9470    1.5480 O   0  0  0  0  0  0  0  0  0  0  0  0
   15.9950   10.7470    2.0960 C   0  0  0  0  0  0  0  0  0  0  0  0
   14.9340   10.0530    1.6050 O   0  0  0  0  0  0  0  0  0  0  0  0
   15.1320    9.9320    0.2630 C   0  0  0  0  0  0  0  0  0  0  0  0
   14.2740    9.2770   -0.6210 C   0  0  0  0  0  0  0  0  0  0  0  0
   13.7111   10.4606   -3.9750 H   0  0  0  0  0  0  0  0  0  0  0  0
   14.7767    9.2601   -4.7813 H   0  0  0  0  0  0  0  0  0  0  0  0
   12.9961    9.0235   -4.7813 H   0  0  0  0  0  0  0  0  0  0  0  0
   16.1319    9.8376   -3.4386 H   0  0  0  0  0  0  0  0  0  0  0  0
   17.6236   10.9956   -1.7983 H   0  0  0  0  0  0  0  0  0  0  0  0
   18.0889   12.7435    0.5175 H   0  0  0  0  0  0  0  0  0  0  0  0
   18.1764   12.2723    2.2656 H   0  0  0  0  0  0  0  0  0  0  0  0
   16.1389   10.9918    3.1587 H   0  0  0  0  0  0  0  0  0  0  0  0
   13.3429    8.8026   -0.2775 H   0  0  0  0  0  0  0  0  0  0  0  0
  1  2  1  0
  2  3  1  0
  3  4  2  0
  4  5  1  0
  5  6  2  0
  6  7  1  0
  7  8  1  0
  8  9  1  0
  9 10  2  0
  9 11  1  0
  7 12  2  0
 12 13  1  0
 13 14  1  0
 14 15  2  0
 15  3  1  0
 14  6  1  0
  1 16  1  0
  1 17  1  0
  1 18  1  0
  4 19  1  0
  5 20  1  0
  8 21  1  0
  8 22  1  0
 12 23  1  0
 15 24  1  0
M  CHG  1  11  -1
M  END
>  <meeko>  (1) 
{"is_sidechain": [false], "free_energy": -6.865, "intermolecular_energy": -8.069, "internal_energy": -0.269}

$$$$
4ddh_ligand
     RDKit          3D

 24 25  0  0  0  0  0  0  0  0999 V2000
   12.6900    9.3890   -4.4730 C   0  0  0  0  0  0  0  0  0  0  0  0
   12.3350    9.7870   -3.1560 O   0  0  0  0  0  0  0  0  0  0  0  0
   13.3670    9.9510   -2.2660 C   0  0  0  0  0  0  0  0  0  0  0  0
   14.6420    9.8780   -2.8410 C   0  0  0  0  0  0  0  0  0  0  0  0
   15.8050   10.0260   -2.0700 C   0  0  0  0  0  0  0  0  0  0  0  0
   15.6740   10.2570   -0.6910 C   0  0  0  0  0  0  0  0  0  0  0  0
   16.5750   10.4630    0.3980 C   0  0  0  0  0  0  0  0  0  0  0  0
   18.0640   10.5260    0.3490 C   0  0  0  0  0  0  0  0  0  0  0  0
   18.5970   11.8040    0.9990 C   0  0  0  0  0  0  0  0  0  0  0  0
   18.0570   12.8790    0.6030 O   0  0  0  0  0  0  0  0  0  0  0  0
   19.5460   11.6380    1.8190 O   0  0  0  0  0  0  0  0  0  0  0  0
   15.7760   10.6030    1.5150 C   0  0  0  0  0  0  0  0  0  0  0  0
   14.4580   10.5340    1.1910 O   0  0  0  0  0  0  0  0  0  0  0  0
   14.3960   10.3180   -0.1530 C   0  0  0  0  0  0  0  0  0  0  0  0
   13.2210   10.1760   -0.8920 C   0  0  0  0  0  0  0  0  0  0  0  0
   13.4215    8.5689   -4.4236 H   0  0  0  0  0  0  0  0  0  0  0  0
   11.7914    9.0471   -5.0075 H   0  0  0  0  0  0  0  0  0  0  0  0
   13.1319   10.2428   -5.0075 H   0  0  0  0  0  0  0  0  0  0  0  0
   14.7338    9.7004   -3.9227 H   0  0  0  0  0  0  0  0  0  0  0  0
   16.7992    9.9624   -2.5363 H   0  0  0  0  0  0  0  0  0  0  0  0
   18.4755    9.6563    0.8822 H   0  0  0  0  0  0  0  0  0  0  0  0
   18.3732   10.5231   -0.7067 H   0  0  0  0  0  0  0  0  0  0  0  0
   16.1572   10.7513    2.5361 H   0  0  0  0  0  0  0  0  0  0  0  0
   12.2299   10.2377   -0.4188 H   0  0  0  0  0  0  0  0  0  0  0  0
  1  2  1  0
  2  3  1  0
  3  4  2  0
  4  5  1  0
  5  6  2  0
  6  7  1  0
  7  8  1  0
  8  9  1  0
  9 10  2  0
  9 11  1  0
  7 12  2  0
 12 13  1  0
 13 14  1  0
 14 15  2  0
 15  3  1  0
 14  6  1  0
  1 16  1  0
  1 17  1  0
  1 18  1  0
  4 19  1  0
  5 20  1  0
  8 21  1  0
  8 22  1  0
 12 23  1  0
 15 24  1  0
M  CHG  1  11  -1
M  END
>  <meeko>  (2) 
{"is_sidechain": [false], "free_energy": -6.784, "intermolecular_energy": -8.069, "internal_energy": -0.174}

$$$$
4ddh_ligand
     RDKit          3D

 24 25  0  0  0  0  0  0  0  0999 V2000
   15.2690    9.6610   -5.3330 C   0  0  0  0  0  0  0  0  0  0  0  0
   14.1360   10.0760   -4.5840 O   0  0  0  0  0  0  0  0  0  0  0  0
   14.2890   10.1320   -3.2210 C   0  0  0  0  0  0  0  0  0  0  0  0
   13.0860   10.1430   -2.5040 C   0  0  0  0  0  0  0  0  0  0  0  0
   13.0660   10.1960   -1.1020 C   0  0  0  0  0  0  0  0  0  0  0  0
   14.2880   10.2330   -0.4120 C   0  0  0  0  0  0  0  0  0  0  0  0
   14.6830   10.2800    0.9590 C   0  0  0  0  0  0  0  0  0  0  0  0
   13.8020   10.2690    2.1620 C   0  0  0  0  0  0  0  0  0  0  0  0
   13.2110    8.8820    2.4170 C   0  0  0  0  0  0  0  0  0  0  0  0
   13.9780    8.0670    3.0090 O   0  0  0  0  0  0  0  0  0  0  0  0
   12.0440    8.7000    1.9620 O   0  0  0  0  0  0  0  0  0  0  0  0
   16.0630   10.3280    0.9430 C   0  0  0  0  0  0  0  0  0  0  0  0
   16.5440   10.2790   -0.3270 O   0  0  0  0  0  0  0  0  0  0  0  0
   15.4620   10.2260   -1.1530 C   0  0  0  0  0  0  0  0  0  0  0  0
   15.5160   10.1740   -2.5470 C   0  0  0  0  0  0  0  0  0  0  0  0
   16.0751    9.3657   -4.6452 H   0  0  0  0  0  0  0  0  0  0  0  0
   14.9958    8.8046   -5.9669 H   0  0  0  0  0  0  0  0  0  0  0  0
   15.6136   10.4913   -5.9669 H   0  0  0  0  0  0  0  0  0  0  0  0
   12.1336   10.1093   -3.0533 H   0  0  0  0  0  0  0  0  0  0  0  0
   12.1120   10.2083   -0.5546 H   0  0  0  0  0  0  0  0  0  0  0  0
   14.3926   10.5717    3.0392 H   0  0  0  0  0  0  0  0  0  0  0  0
   12.9717   10.9686    1.9856 H   0  0  0  0  0  0  0  0  0  0  0  0
   16.6921   10.3970    1.8427 H   0  0  0  0  0  0  0  0  0  0  0  0
   16.4735   10.1664   -3.0885 H   0  0  0  0  0  0  0  0  0  0  0  0
  1  2  1  0
  2  3  1  0
  3  4  2  0
  4  5  1  0
  5  6  2  0
  6  7  1  0
  7  8  1  0
  8  9  1  0
  9 10  2  0
  9 11  1  0
  7 12  2  0
 12 13  1  0
 13 14  1  0
 14 15  2  0
 15  3  1  0
 14  6  1  0
  1 16  1  0
  1 17  1  0
  1 18  1  0
  4 19  1  0
  5 20  1  0
  8 21  1  0
  8 22  1  0
 12 23  1  0
 15 24  1  0
M  CHG  1  11  -1
M  END
>  <meeko>  (3) 
{"is_sidechain": [false], "free_energy": -6.584, "intermolecular_energy": -7.734, "internal_energy": -0.275}

$$$$
4ddh_ligand
     RDKit          3D

 24 25  0  0  0  0  0  0  0  0999 V2000
   17.2230   12.0100    2.6480 C   0  0  0  0  0  0  0  0  0  0  0  0
   16.8260   10.6870    2.3160 O   0  0  0  0  0  0  0  0  0  0  0  0
   16.1100   10.5350    1.1550 C   0  0  0  0  0  0  0  0  0  0  0  0
   16.8970   10.3830    0.0070 C   0  0  0  0  0  0  0  0  0  0  0  0
   16.3220   10.2140   -1.2620 C   0  0  0  0  0  0  0  0  0  0  0  0
   14.9220   10.1960   -1.3700 C   0  0  0  0  0  0  0  0  0  0  0  0
   13.9840   10.0460   -2.4350 C   0  0  0  0  0  0  0  0  0  0  0  0
   14.2740    9.8090   -3.8790 C   0  0  0  0  0  0  0  0  0  0  0  0
   13.2670    8.8450   -4.5070 C   0  0  0  0  0  0  0  0  0  0  0  0
   13.4690    7.6180   -4.2650 O   0  0  0  0  0  0  0  0  0  0  0  0
   12.3820    9.3840   -5.2330 O   0  0  0  0  0  0  0  0  0  0  0  0
   12.7390   10.1560   -1.8480 C   0  0  0  0  0  0  0  0  0  0  0  0
   12.8410   10.3260   -0.5030 O   0  0  0  0  0  0  0  0  0  0  0  0
   14.1720   10.3560   -0.2130 C   0  0  0  0  0  0  0  0  0  0  0  0
   14.7130   10.5240    1.0630 C   0  0  0  0  0  0  0  0  0  0  0  0
   17.2558   12.1193    3.7421 H   0  0  0  0  0  0  0  0  0  0  0  0
   18.2205   12.2094    2.2295 H   0  0  0  0  0  0  0  0  0  0  0  0
   16.5000   12.7257    2.2295 H   0  0  0  0  0  0  0  0  0  0  0  0
   17.9928   10.3964    0.1021 H   0  0  0  0  0  0  0  0  0  0  0  0
   16.9551   10.0980   -2.1540 H   0  0  0  0  0  0  0  0  0  0  0  0
   14.2296   10.7692   -4.4138 H   0  0  0  0  0  0  0  0  0  0  0  0
   15.2748    9.3594   -3.9586 H   0  0  0  0  0  0  0  0  0  0  0  0
   11.7873   10.1118   -2.3978 H   0  0  0  0  0  0  0  0  0  0  0  0
   14.0743   10.6417    1.9508 H   0  0  0  0  0  0  0  0  0  0  0  0
  1  2  1  0
  2  3  1  0
  3  4  2  0
  4  5  1  0
  5  6  2  0
  6  7  1  0
  7  8  1  0
  8  9  1  0
  9 10  2  0
  9 11  1  0
  7 12  2  0
 12 13  1  0
 13 14  1  0
 14 15  2  0
 15  3  1  0
 14  6  1  0
  1 16  1  0
  1 17  1  0
  1 18  1  0
  4 19  1  0
  5 20  1  0
  8 21  1  0
  8 22  1  0
 12 23  1  0
 15 24  1  0
M  CHG  1  11  -1
M  END
>  <meeko>  (4) 
{"is_sidechain": [false], "free_energy": -6.474, "intermolecular_energy": -7.686, "internal_energy": -0.192}

$$$$
4ddh_ligand
     RDKit          3D

 24 25  0  0  0  0  0  0  0  0999 V2000
   17.1290   11.7610    2.5660 C   0  0  0  0  0  0  0  0  0  0  0  0
   16.1770   10.7110    2.4650 O   0  0  0  0  0  0  0  0  0  0  0  0
   15.6270   10.5000    1.2250 C   0  0  0  0  0  0  0  0  0  0  0  0
   14.2390   10.3130    1.2340 C   0  0  0  0  0  0  0  0  0  0  0  0
   13.5190   10.0880    0.0500 C   0  0  0  0  0  0  0  0  0  0  0  0
   14.2190   10.0570   -1.1670 C   0  0  0  0  0  0  0  0  0  0  0  0
   13.8690    9.8720   -2.5390 C   0  0  0  0  0  0  0  0  0  0  0  0
   12.5070    9.6710   -3.1130 C   0  0  0  0  0  0  0  0  0  0  0  0
   12.5650    8.9670   -4.4690 C   0  0  0  0  0  0  0  0  0  0  0  0
   12.2880    9.6940   -5.4690 O   0  0  0  0  0  0  0  0  0  0  0  0
   12.8350    7.7320   -4.4270 O   0  0  0  0  0  0  0  0  0  0  0  0
   15.0610    9.9270   -3.2340 C   0  0  0  0  0  0  0  0  0  0  0  0
   16.1080   10.1670   -2.3990 O   0  0  0  0  0  0  0  0  0  0  0  0
   15.5950   10.2400   -1.1400 C   0  0  0  0  0  0  0  0  0  0  0  0
   16.3380   10.4670    0.0200 C   0  0  0  0  0  0  0  0  0  0  0  0
   17.3251   11.9773    3.6265 H   0  0  0  0  0  0  0  0  0  0  0  0
   18.0648   11.4560    2.0748 H   0  0  0  0  0  0  0  0  0  0  0  0
   16.7340   12.6625    2.0748 H   0  0  0  0  0  0  0  0  0  0  0  0
   13.6998   10.3432    2.1923 H   0  0  0  0  0  0  0  0  0  0  0  0
   12.4294    9.9391    0.0750 H   0  0  0  0  0  0  0  0  0  0  0  0
   11.9138    9.0585   -2.4181 H   0  0  0  0  0  0  0  0  0  0  0  0
   12.0460   10.6591   -3.2582 H   0  0  0  0  0  0  0  0  0  0  0  0
   15.1522    9.7940   -4.3221 H   0  0  0  0  0  0  0  0  0  0  0  0
   17.4279   10.6126   -0.0116 H   0  0  0  0  0  0  0  0  0  0  0  0
  1  2  1  0
  2  3  1  0
  3  4  2  0
  4  5  1  0
  5  6  2  0
  6  7  1  0
  7  8  1  0
  8  9  1  0
  9 10  2  0
  9 11  1  0
  7 12  2  0
 12 13  1  0
 13 14  1  0
 14 15  2  0
 15  3  1  0
 14  6  1  0
  1 16  1  0
  1 17  1  0
  1 18  1  0
  4 19  1  0
  5 20  1  0
  8 21  1  0
  8 22  1  0
 12 23  1  0
 15 24  1  0
M  CHG  1  11  -1
M  END
>  <meeko>  (5) 
{"is_sidechain": [false], "free_energy": -6.279, "intermolecular_energy": -7.516, "internal_energy": -0.133}

$$$$
4ddh_ligand
     RDKit          3D

 24 25  0  0  0  0  0  0  0  0999 V2000
   11.8570    9.5600   -4.7810 C   0  0  0  0  0  0  0  0  0  0  0  0
   13.1390    9.0010   -4.5320 O   0  0  0  0  0  0  0  0  0  0  0  0
   13.7620    9.3880   -3.3720 C   0  0  0  0  0  0  0  0  0  0  0  0
   12.9100    9.4840   -2.2640 C   0  0  0  0  0  0  0  0  0  0  0  0
   13.3860    9.8650   -1.0010 C   0  0  0  0  0  0  0  0  0  0  0  0
   14.7540   10.1490   -0.8550 C   0  0  0  0  0  0  0  0  0  0  0  0
   15.6030   10.5470    0.2220 C   0  0  0  0  0  0  0  0  0  0  0  0
   15.2250   10.7590    1.6500 C   0  0  0  0  0  0  0  0  0  0  0  0
   16.4570   10.9050    2.5440 C   0  0  0  0  0  0  0  0  0  0  0  0
   16.9200    9.8220    3.0090 O   0  0  0  0  0  0  0  0  0  0  0  0
   16.8370   12.0940    2.7510 O   0  0  0  0  0  0  0  0  0  0  0  0
   16.8600   10.6860   -0.3320 C   0  0  0  0  0  0  0  0  0  0  0  0
   16.8540   10.3720   -1.6540 O   0  0  0  0  0  0  0  0  0  0  0  0
   15.5690   10.0500   -1.9740 C   0  0  0  0  0  0  0  0  0  0  0  0
   15.1260    9.6730   -3.2430 C   0  0  0  0  0  0  0  0  0  0  0  0
   11.3595    9.7769   -3.8242 H   0  0  0  0  0  0  0  0  0  0  0  0
   11.9684   10.4912   -5.3558 H   0  0  0  0  0  0  0  0  0  0  0  0
   11.2504    8.8447   -5.3558 H   0  0  0  0  0  0  0  0  0  0  0  0
   11.8413    9.2549   -2.3877 H   0  0  0  0  0  0  0  0  0  0  0  0
   12.7023    9.9399   -0.1425 H   0  0  0  0  0  0  0  0  0  0  0  0
   14.6183   11.6734    1.7265 H   0  0  0  0  0  0  0  0  0  0  0  0
   14.6567    9.8803    1.9890 H   0  0  0  0  0  0  0  0  0  0  0  0
   17.7516   11.0093    0.2252 H   0  0  0  0  0  0  0  0  0  0  0  0
   15.8143    9.6035   -4.0983 H   0  0  0  0  0  0  0  0  0  0  0  0
  1  2  1  0
  2  3  1  0
  3  4  2  0
  4  5  1  0
  5  6  2  0
  6  7  1  0
  7  8  1  0
  8  9  1  0
  9 10  2  0
  9 11  1  0
  7 12  2  0
 12 13  1  0
 13 14  1  0
 14 15  2  0
 15  3  1  0
 14  6  1  0
  1 16  1  0
  1 17  1  0
  1 18  1  0
  4 19  1  0
  5 20  1  0
  8 21  1  0
  8 22  1  0
 12 23  1  0
 15 24  1  0
M  CHG  1  11  -1
M  END
>  <meeko>  (6) 
{"is_sidechain": [false], "free_energy": -5.599, "intermolecular_energy": -6.708, "internal_energy": -0.142}

$$$$
4ddh_ligand
     RDKit          3D

 24 25  0  0  0  0  0  0  0  0999 V2000
   19.1000   10.1910    2.8260 C   0  0  0  0  0  0  0  0  0  0  0  0
   18.0130   11.0870    3.0100 O   0  0  0  0  0  0  0  0  0  0  0  0
   16.9100   10.8830    2.2180 C   0  0  0  0  0  0  0  0  0  0  0  0
   17.0600   11.3200    0.8960 C   0  0  0  0  0  0  0  0  0  0  0  0
   16.0280   11.1840   -0.0440 C   0  0  0  0  0  0  0  0  0  0  0  0
   14.8220   10.5900    0.3610 C   0  0  0  0  0  0  0  0  0  0  0  0
   13.5800   10.2720   -0.2690 C   0  0  0  0  0  0  0  0  0  0  0  0
   13.2020   10.4820   -1.6960 C   0  0  0  0  0  0  0  0  0  0  0  0
   14.0370    9.6120   -2.6350 C   0  0  0  0  0  0  0  0  0  0  0  0
   14.3550   10.1520   -3.7350 O   0  0  0  0  0  0  0  0  0  0  0  0
   14.2700    8.4390   -2.2220 O   0  0  0  0  0  0  0  0  0  0  0  0
   12.7960    9.7170    0.7230 C   0  0  0  0  0  0  0  0  0  0  0  0
   13.4710    9.6370    1.9000 O   0  0  0  0  0  0  0  0  0  0  0  0
   14.7040   10.1740    1.6800 C   0  0  0  0  0  0  0  0  0  0  0  0
   15.7110   10.2940    2.6390 C   0  0  0  0  0  0  0  0  0  0  0  0
   19.4842    9.8743    3.8069 H   0  0  0  0  0  0  0  0  0  0  0  0
   18.7575    9.3094    2.2643 H   0  0  0  0  0  0  0  0  0  0  0  0
   19.9000   10.6955    2.2643 H   0  0  0  0  0  0  0  0  0  0  0  0
   18.0099   11.7809    0.5875 H   0  0  0  0  0  0  0  0  0  0  0  0
   16.1608   11.5357   -1.0778 H   0  0  0  0  0  0  0  0  0  0  0  0
   12.1396   10.2277   -1.8246 H   0  0  0  0  0  0  0  0  0  0  0  0
   13.3879   11.5363   -1.9488 H   0  0  0  0  0  0  0  0  0  0  0  0
   11.7580    9.3825    0.5791 H   0  0  0  0  0  0  0  0  0  0  0  0
   15.5702    9.9440    3.6723 H   0  0  0  0  0  0  0  0  0  0  0  0
  1  2  1  0
  2  3  1  0
  3  4  2  0
  4  5  1  0
  5  6  2  0
  6  7  1  0
  7  8  1  0
  8  9  1  0
  9 10  2  0
  9 11  1  0
  7 12  2  0
 12 13  1  0
 13 14  1  0
 14 15  2  0
 15  3  1  0
 14  6  1  0
  1 16  1  0
  1 17  1  0
  1 18  1  0
  4 19  1  0
  5 20  1  0
  8 21  1  0
  8 22  1  0
 12 23  1  0
 15 24  1  0
M  CHG  1  11  -1
M  END
>  <meeko>  (7) 
{"is_sidechain": [false], "free_energy": -5.223, "intermolecular_energy": -6.195, "internal_energy": -0.213}

$$$$
4ddh_ligand
     RDKit          3D

 24 25  0  0  0  0  0  0  0  0999 V2000
   12.8400    8.9920    3.0080 C   0  0  0  0  0  0  0  0  0  0  0  0
   13.7250    9.9860    2.5130 O   0  0  0  0  0  0  0  0  0  0  0  0
   13.8850   10.0420    1.1510 C   0  0  0  0  0  0  0  0  0  0  0  0
   15.1940   10.3110    0.7330 C   0  0  0  0  0  0  0  0  0  0  0  0
   15.5280   10.3990   -0.6270 C   0  0  0  0  0  0  0  0  0  0  0  0
   14.5180   10.2060   -1.5820 C   0  0  0  0  0  0  0  0  0  0  0  0
   14.4500   10.2050   -3.0090 C   0  0  0  0  0  0  0  0  0  0  0  0
   15.5710   10.4000   -3.9740 C   0  0  0  0  0  0  0  0  0  0  0  0
   15.2020    9.9070   -5.3740 C   0  0  0  0  0  0  0  0  0  0  0  0
   16.0650    9.1690   -5.9330 O   0  0  0  0  0  0  0  0  0  0  0  0
   14.1000   10.3360   -5.8250 O   0  0  0  0  0  0  0  0  0  0  0  0
   13.1240    9.9750   -3.3150 C   0  0  0  0  0  0  0  0  0  0  0  0
   12.3810    9.8010   -2.1900 O   0  0  0  0  0  0  0  0  0  0  0  0
   13.2290    9.9470   -1.1340 C   0  0  0  0  0  0  0  0  0  0  0  0
   12.8650    9.8520    0.2100 C   0  0  0  0  0  0  0  0  0  0  0  0
   12.8519    9.0053    4.1079 H   0  0  0  0  0  0  0  0  0  0  0  0
   11.8205    9.1976    2.6498 H   0  0  0  0  0  0  0  0  0  0  0  0
   13.1621    8.0031    2.6498 H   0  0  0  0  0  0  0  0  0  0  0  0
   15.9795   10.4569    1.4891 H   0  0  0  0  0  0  0  0  0  0  0  0
   16.5607   10.6149   -0.9383 H   0  0  0  0  0  0  0  0  0  0  0  0
   15.8150   11.4714   -4.0258 H   0  0  0  0  0  0  0  0  0  0  0  0
   16.4341    9.8167   -3.6206 H   0  0  0  0  0  0  0  0  0  0  0  0
   12.7203    9.9373   -4.3376 H   0  0  0  0  0  0  0  0  0  0  0  0
   11.8298    9.6388    0.5148 H   0  0  0  0  0  0  0  0  0  0  0  0
  1  2  1  0
  2  3  1  0
  3  4  2  0
  4  5  1  0
  5  6  2  0
  6  7  1  0
  7  8  1  0
  8  9  1  0
  9 10  2  0
  9 11  1  0
  7 12  2  0
 12 13  1  0
 13 14  1  0
 14 15  2  0
 15  3  1  0
 14  6  1  0
  1 16  1  0
  1 17  1  0
  1 18  1  0
  4 19  1  0
  5 20  1  0
  8 21  1  0
  8 22  1  0
 12 23  1  0
 15 24  1  0
M  CHG  1  11  -1
M  END
>  <meeko>  (8) 
{"is_sidechain": [false], "free_energy": -4.991, "intermolecular_energy": -6.637, "internal_energy": 0.501}

$$$$
4ddh_ligand
     RDKit          3D

 24 25  0  0  0  0  0  0  0  0999 V2000
   14.6010   10.0170   -4.5270 C   0  0  0  0  0  0  0  0  0  0  0  0
   14.2040    8.9090   -3.7320 O   0  0  0  0  0  0  0  0  0  0  0  0
   14.0110    9.1510   -2.3950 C   0  0  0  0  0  0  0  0  0  0  0  0
   14.6810    8.2630   -1.5450 C   0  0  0  0  0  0  0  0  0  0  0  0
   14.5910    8.3730   -0.1490 C   0  0  0  0  0  0  0  0  0  0  0  0
   13.8110    9.4060    0.3960 C   0  0  0  0  0  0  0  0  0  0  0  0
   13.4820    9.8470    1.7140 C   0  0  0  0  0  0  0  0  0  0  0  0
   13.9600    9.2840    3.0100 C   0  0  0  0  0  0  0  0  0  0  0  0
   15.4660    9.0230    2.9910 C   0  0  0  0  0  0  0  0  0  0  0  0
   15.8040    7.8030    3.0080 O   0  0  0  0  0  0  0  0  0  0  0  0
   16.1950   10.0570    3.0100 O   0  0  0  0  0  0  0  0  0  0  0  0
   12.6300   10.9200    1.5400 C   0  0  0  0  0  0  0  0  0  0  0  0
   12.4400   11.1910    0.2220 O   0  0  0  0  0  0  0  0  0  0  0  0
   13.1560   10.2650   -0.4750 C   0  0  0  0  0  0  0  0  0  0  0  0
   13.2250   10.1830   -1.8660 C   0  0  0  0  0  0  0  0  0  0  0  0
   14.8993   10.8495   -3.8728 H   0  0  0  0  0  0  0  0  0  0  0  0
   15.4511    9.7269   -5.1619 H   0  0  0  0  0  0  0  0  0  0  0  0
   13.7601   10.3328   -5.1619 H   0  0  0  0  0  0  0  0  0  0  0  0
   15.2926    7.4599   -1.9819 H   0  0  0  0  0  0  0  0  0  0  0  0
   15.1205    7.6647    0.5051 H   0  0  0  0  0  0  0  0  0  0  0  0
   13.7320    9.9983    3.8149 H   0  0  0  0  0  0  0  0  0  0  0  0
   13.4476    8.3252    3.1775 H   0  0  0  0  0  0  0  0  0  0  0  0
   12.1649   11.4830    2.3627 H   0  0  0  0  0  0  0  0  0  0  0  0
   12.6896   10.8924   -2.5142 H   0  0  0  0  0  0  0  0  0  0  0  0
  1  2  1  0
  2  3  1  0
  3  4  2  0
  4  5  1  0
  5  6  2  0
  6  7  1  0
  7  8  1  0
  8  9  1  0
  9 10  2  0
  9 11  1  0
  7 12  2  0
 12 13  1  0
 13 14  1  0
 14 15  2  0
 15  3  1  0
 14  6  1  0
  1 16  1  0
  1 17  1  0
  1 18  1  0
  4 19  1  0
  5 20  1  0
  8 21  1  0
  8 22  1  0
 12 23  1  0
 15 24  1  0
M  CHG  1  11  -1
M  END
>  <meeko>  (9) 
{"is_sidechain": [false], "free_energy": -4.381, "intermolecular_energy": -5.343, "internal_energy": -0.076}

$$$$
