1z9g_ligand
     RDKit          3D

 31 31  0  0  0  0  0  0  0  0999 V2000
   38.6900   42.0660   -3.7470 O   0  0  0  0  0  0  0  0  0  0  0  0
   37.7070   42.7820   -3.4140 C   0  0  0  0  0  0  0  0  0  0  0  0
   37.7040   43.8900   -2.7930 O   0  0  0  0  0  0  0  0  0  0  0  0
   36.3380   42.2330   -3.7720 C   0  0  0  0  0  0  0  0  0  0  0  0
   36.1380   42.0180   -5.2500 C   0  0  0  0  0  0  0  0  0  0  0  0
   36.4730   42.8700   -6.0770 O   0  0  0  0  0  0  0  0  0  0  0  0
   35.6770   40.7860   -5.6300 N   0  0  0  0  0  0  0  0  0  0  0  0
   35.4530   40.3810   -7.0120 C   0  0  1  0  0  0  0  0  0  0  0  0
   35.9190   38.9230   -7.1990 C   0  0  0  0  0  0  0  0  0  0  0  0
   34.5640   37.7890   -7.6620 S   0  0  0  0  0  0  0  0  0  0  0  0
   33.9650   40.5580   -7.3920 C   0  0  0  0  0  0  0  0  0  0  0  0
   33.7670   41.3720   -8.6530 C   0  0  0  0  0  0  0  0  0  0  0  0
   33.9080   42.7660   -8.6330 C   0  0  0  0  0  0  0  0  0  0  0  0
   33.7490   43.5090   -9.8040 C   0  0  0  0  0  0  0  0  0  0  0  0
   33.4440   42.8690  -11.0030 C   0  0  0  0  0  0  0  0  0  0  0  0
   33.3020   41.4830  -11.0350 C   0  0  0  0  0  0  0  0  0  0  0  0
   33.4670   40.7360   -9.8660 C   0  0  0  0  0  0  0  0  0  0  0  0
   36.2061   41.2684   -3.2600 H   0  0  0  0  0  0  0  0  0  0  0  0
   35.5983   42.9824   -3.4536 H   0  0  0  0  0  0  0  0  0  0  0  0
   35.4500   40.1460   -4.8520 H   0  0  0  0  0  0  0  0  0  0  0  0
   36.0403   41.0222   -7.6857 H   0  0  0  0  0  0  0  0  0  0  0  0
   36.6817   38.8985   -7.9913 H   0  0  0  0  0  0  0  0  0  0  0  0
   36.3166   38.5801   -6.2324 H   0  0  0  0  0  0  0  0  0  0  0  0
   34.1870   38.4730   -8.7540 H   0  0  0  0  0  0  0  0  0  0  0  0
   33.5218   39.5628   -7.5445 H   0  0  0  0  0  0  0  0  0  0  0  0
   33.4791   41.1036   -6.5697 H   0  0  0  0  0  0  0  0  0  0  0  0
   34.1454   43.2779   -7.6888 H   0  0  0  0  0  0  0  0  0  0  0  0
   33.8649   44.6026   -9.7798 H   0  0  0  0  0  0  0  0  0  0  0  0
   33.3153   43.4570  -11.9237 H   0  0  0  0  0  0  0  0  0  0  0  0
   33.0599   40.9769  -11.9812 H   0  0  0  0  0  0  0  0  0  0  0  0
   33.3608   39.6416   -9.8974 H   0  0  0  0  0  0  0  0  0  0  0  0
  1  2  2  0
  2  3  1  0
  2  4  1  0
  4  5  1  0
  5  6  2  0
  5  7  1  0
  7  8  1  0
  8  9  1  0
  9 10  1  0
  8 11  1  0
 11 12  1  0
 12 13  2  0
 13 14  1  0
 14 15  2  0
 15 16  1  0
 16 17  2  0
 17 12  1  0
  4 18  1  0
  4 19  1  0
  7 20  1  0
  8 21  1  6
  9 22  1  0
  9 23  1  0
 10 24  1  0
 11 25  1  0
 11 26  1  0
 13 27  1  0
 14 28  1  0
 15 29  1  0
 16 30  1  0
 17 31  1  0
M  CHG  1   3  -1
M  END
>  <meeko>  (1) 
{"is_sidechain": [false], "free_energy": -6.082, "intermolecular_energy": -8.394, "internal_energy": -0.585}

$$$$
1z9g_ligand
     RDKit          3D

 31 31  0  0  0  0  0  0  0  0999 V2000
   38.1530   42.8750   -4.2780 O   0  0  0  0  0  0  0  0  0  0  0  0
   37.3850   41.8760   -4.2170 C   0  0  0  0  0  0  0  0  0  0  0  0
   37.6470   40.6940   -3.8310 O   0  0  0  0  0  0  0  0  0  0  0  0
   35.9650   42.1030   -4.7000 C   0  0  0  0  0  0  0  0  0  0  0  0
   35.7870   41.8970   -6.1820 C   0  0  0  0  0  0  0  0  0  0  0  0
   36.2050   42.7180   -7.0020 O   0  0  0  0  0  0  0  0  0  0  0  0
   35.2450   40.7010   -6.5710 N   0  0  0  0  0  0  0  0  0  0  0  0
   35.0260   40.3090   -7.9580 C   0  0  1  0  0  0  0  0  0  0  0  0
   35.3300   38.8050   -8.1160 C   0  0  0  0  0  0  0  0  0  0  0  0
   35.5980   38.3050   -9.8520 S   0  0  0  0  0  0  0  0  0  0  0  0
   33.5830   40.6490   -8.3940 C   0  0  0  0  0  0  0  0  0  0  0  0
   33.5260   41.6250   -9.5490 C   0  0  0  0  0  0  0  0  0  0  0  0
   33.2440   41.1810  -10.8480 C   0  0  0  0  0  0  0  0  0  0  0  0
   33.1680   42.0890  -11.9050 C   0  0  0  0  0  0  0  0  0  0  0  0
   33.3770   43.4480  -11.6770 C   0  0  0  0  0  0  0  0  0  0  0  0
   33.6570   43.9010  -10.3900 C   0  0  0  0  0  0  0  0  0  0  0  0
   33.7270   42.9960   -9.3290 C   0  0  0  0  0  0  0  0  0  0  0  0
   35.3023   41.4028   -4.1704 H   0  0  0  0  0  0  0  0  0  0  0  0
   35.7195   43.1546   -4.4907 H   0  0  0  0  0  0  0  0  0  0  0  0
   34.9510   40.0830   -5.7980 H   0  0  0  0  0  0  0  0  0  0  0  0
   35.7055   40.8722   -8.6146 H   0  0  0  0  0  0  0  0  0  0  0  0
   36.2370   38.5690   -7.5400 H   0  0  0  0  0  0  0  0  0  0  0  0
   34.4524   38.2532   -7.7482 H   0  0  0  0  0  0  0  0  0  0  0  0
   36.9320   38.4560   -9.8290 H   0  0  0  0  0  0  0  0  0  0  0  0
   33.0804   39.7186   -8.6968 H   0  0  0  0  0  0  0  0  0  0  0  0
   33.0853   41.1260   -7.5368 H   0  0  0  0  0  0  0  0  0  0  0  0
   33.0814   40.1094  -11.0357 H   0  0  0  0  0  0  0  0  0  0  0  0
   32.9426   41.7313  -12.9205 H   0  0  0  0  0  0  0  0  0  0  0  0
   33.3209   44.1617  -12.5122 H   0  0  0  0  0  0  0  0  0  0  0  0
   33.8232   44.9732  -10.2092 H   0  0  0  0  0  0  0  0  0  0  0  0
   33.9412   43.3605   -8.3135 H   0  0  0  0  0  0  0  0  0  0  0  0
  1  2  2  0
  2  3  1  0
  2  4  1  0
  4  5  1  0
  5  6  2  0
  5  7  1  0
  7  8  1  0
  8  9  1  0
  9 10  1  0
  8 11  1  0
 11 12  1  0
 12 13  2  0
 13 14  1  0
 14 15  2  0
 15 16  1  0
 16 17  2  0
 17 12  1  0
  4 18  1  0
  4 19  1  0
  7 20  1  0
  8 21  1  6
  9 22  1  0
  9 23  1  0
 10 24  1  0
 11 25  1  0
 11 26  1  0
 13 27  1  0
 14 28  1  0
 15 29  1  0
 16 30  1  0
 17 31  1  0
M  CHG  1   3  -1
M  END
>  <meeko>  (2) 
{"is_sidechain": [false], "free_energy": -5.899, "intermolecular_energy": -8.142, "internal_energy": -0.585}

$$$$
1z9g_ligand
     RDKit          3D

 31 31  0  0  0  0  0  0  0  0999 V2000
   35.3400   40.9770   -7.9430 O   0  0  0  0  0  0  0  0  0  0  0  0
   34.8280   42.1220   -7.8050 C   0  0  0  0  0  0  0  0  0  0  0  0
   34.5240   42.9690   -8.7020 O   0  0  0  0  0  0  0  0  0  0  0  0
   34.5690   42.5630   -6.3770 C   0  0  0  0  0  0  0  0  0  0  0  0
   35.7730   42.4480   -5.4790 C   0  0  0  0  0  0  0  0  0  0  0  0
   36.8690   42.9100   -5.8060 O   0  0  0  0  0  0  0  0  0  0  0  0
   35.5580   41.9120   -4.2370 N   0  0  0  0  0  0  0  0  0  0  0  0
   36.5910   41.7500   -3.2210 C   0  0  1  0  0  0  0  0  0  0  0  0
   37.8370   41.1040   -3.8590 C   0  0  0  0  0  0  0  0  0  0  0  0
   38.3840   39.5910   -2.9950 S   0  0  0  0  0  0  0  0  0  0  0  0
   36.9230   43.1110   -2.5680 C   0  0  0  0  0  0  0  0  0  0  0  0
   37.3820   42.9840   -1.1310 C   0  0  0  0  0  0  0  0  0  0  0  0
   38.3260   43.8730   -0.6010 C   0  0  0  0  0  0  0  0  0  0  0  0
   38.7260   43.7670    0.7320 C   0  0  0  0  0  0  0  0  0  0  0  0
   38.1920   42.7700    1.5460 C   0  0  0  0  0  0  0  0  0  0  0  0
   37.2520   41.8810    1.0300 C   0  0  0  0  0  0  0  0  0  0  0  0
   36.8440   41.9890   -0.3020 C   0  0  0  0  0  0  0  0  0  0  0  0
   34.2460   43.6144   -6.3916 H   0  0  0  0  0  0  0  0  0  0  0  0
   33.7986   41.8924   -5.9686 H   0  0  0  0  0  0  0  0  0  0  0  0
   34.5960   41.5790   -4.0660 H   0  0  0  0  0  0  0  0  0  0  0  0
   36.2265   41.0862   -2.4232 H   0  0  0  0  0  0  0  0  0  0  0  0
   37.6017   40.8455   -4.9020 H   0  0  0  0  0  0  0  0  0  0  0  0
   38.6563   41.8348   -3.7896 H   0  0  0  0  0  0  0  0  0  0  0  0
   39.6990   39.8300   -3.1280 H   0  0  0  0  0  0  0  0  0  0  0  0
   37.7228   43.5926   -3.1497 H   0  0  0  0  0  0  0  0  0  0  0  0
   35.9989   43.7078   -2.5656 H   0  0  0  0  0  0  0  0  0  0  0  0
   38.7547   44.6596   -1.2394 H   0  0  0  0  0  0  0  0  0  0  0  0
   39.4646   44.4722    1.1410 H   0  0  0  0  0  0  0  0  0  0  0  0
   38.5124   42.6851    2.5949 H   0  0  0  0  0  0  0  0  0  0  0  0
   36.8305   41.0932    1.6717 H   0  0  0  0  0  0  0  0  0  0  0  0
   36.0961   41.2891   -0.7029 H   0  0  0  0  0  0  0  0  0  0  0  0
  1  2  2  0
  2  3  1  0
  2  4  1  0
  4  5  1  0
  5  6  2  0
  5  7  1  0
  7  8  1  0
  8  9  1  0
  9 10  1  0
  8 11  1  0
 11 12  1  0
 12 13  2  0
 13 14  1  0
 14 15  2  0
 15 16  1  0
 16 17  2  0
 17 12  1  0
  4 18  1  0
  4 19  1  0
  7 20  1  0
  8 21  1  1
  9 22  1  0
  9 23  1  0
 10 24  1  0
 11 25  1  0
 11 26  1  0
 13 27  1  0
 14 28  1  0
 15 29  1  0
 16 30  1  0
 17 31  1  0
M  CHG  1   3  -1
M  END
>  <meeko>  (3) 
{"is_sidechain": [false], "free_energy": -5.849, "intermolecular_energy": -8.79, "internal_energy": 0.133}

$$$$
1z9g_ligand
     RDKit          3D

 31 31  0  0  0  0  0  0  0  0999 V2000
   35.4050   43.0870   -6.1790 O   0  0  0  0  0  0  0  0  0  0  0  0
   35.8300   42.0080   -5.6830 C   0  0  0  0  0  0  0  0  0  0  0  0
   36.6320   41.8410   -4.7120 O   0  0  0  0  0  0  0  0  0  0  0  0
   35.3470   40.7360   -6.3560 C   0  0  0  0  0  0  0  0  0  0  0  0
   35.0460   40.9020   -7.8220 C   0  0  0  0  0  0  0  0  0  0  0  0
   35.6650   40.2720   -8.6830 O   0  0  0  0  0  0  0  0  0  0  0  0
   33.9750   41.6950   -8.1400 N   0  0  0  0  0  0  0  0  0  0  0  0
   33.5120   41.9480   -9.4980 C   0  0  1  0  0  0  0  0  0  0  0  0
   32.0720   41.4180   -9.6520 C   0  0  0  0  0  0  0  0  0  0  0  0
   31.9910   39.6050   -9.8560 S   0  0  0  0  0  0  0  0  0  0  0  0
   33.6050   43.4550   -9.8290 C   0  0  0  0  0  0  0  0  0  0  0  0
   33.4530   43.7490  -11.3060 C   0  0  0  0  0  0  0  0  0  0  0  0
   33.1220   42.7290  -12.2080 C   0  0  0  0  0  0  0  0  0  0  0  0
   32.9590   43.0100  -13.5640 C   0  0  0  0  0  0  0  0  0  0  0  0
   33.1290   44.3110  -14.0350 C   0  0  0  0  0  0  0  0  0  0  0  0
   33.4570   45.3330  -13.1480 C   0  0  0  0  0  0  0  0  0  0  0  0
   33.6140   45.0560  -11.7880 C   0  0  0  0  0  0  0  0  0  0  0  0
   36.1268   39.9679   -6.2467 H   0  0  0  0  0  0  0  0  0  0  0  0
   34.4046   40.4512   -5.8652 H   0  0  0  0  0  0  0  0  0  0  0  0
   33.5190   42.1550   -7.3360 H   0  0  0  0  0  0  0  0  0  0  0  0
   34.1563   41.4175  -10.2146 H   0  0  0  0  0  0  0  0  0  0  0  0
   31.4997   41.6948   -8.7543 H   0  0  0  0  0  0  0  0  0  0  0  0
   31.6534   41.8687  -10.5640 H   0  0  0  0  0  0  0  0  0  0  0  0
   31.9300   39.3270   -8.5450 H   0  0  0  0  0  0  0  0  0  0  0  0
   32.8092   43.9831   -9.2832 H   0  0  0  0  0  0  0  0  0  0  0  0
   34.6067   43.7957   -9.5282 H   0  0  0  0  0  0  0  0  0  0  0  0
   32.9898   41.6995  -11.8438 H   0  0  0  0  0  0  0  0  0  0  0  0
   32.6956   42.2032  -14.2638 H   0  0  0  0  0  0  0  0  0  0  0  0
   33.0042   44.5299  -15.1058 H   0  0  0  0  0  0  0  0  0  0  0  0
   33.5926   46.3597  -13.5188 H   0  0  0  0  0  0  0  0  0  0  0  0
   33.8656   45.8685  -11.0904 H   0  0  0  0  0  0  0  0  0  0  0  0
  1  2  2  0
  2  3  1  0
  2  4  1  0
  4  5  1  0
  5  6  2  0
  5  7  1  0
  7  8  1  0
  8  9  1  0
  9 10  1  0
  8 11  1  0
 11 12  1  0
 12 13  2  0
 13 14  1  0
 14 15  2  0
 15 16  1  0
 16 17  2  0
 17 12  1  0
  4 18  1  0
  4 19  1  0
  7 20  1  0
  8 21  1  6
  9 22  1  0
  9 23  1  0
 10 24  1  0
 11 25  1  0
 11 26  1  0
 13 27  1  0
 14 28  1  0
 15 29  1  0
 16 30  1  0
 17 31  1  0
M  CHG  1   3  -1
M  END
>  <meeko>  (4) 
{"is_sidechain": [false], "free_energy": -5.843, "intermolecular_energy": -8.439, "internal_energy": -0.209}

$$$$
1z9g_ligand
     RDKit          3D

 31 31  0  0  0  0  0  0  0  0999 V2000
   37.6700   38.4150   -1.4780 O   0  0  0  0  0  0  0  0  0  0  0  0
   38.7230   38.3220   -2.1670 C   0  0  0  0  0  0  0  0  0  0  0  0
   39.8270   37.7720   -1.8600 O   0  0  0  0  0  0  0  0  0  0  0  0
   38.6810   38.9810   -3.5320 C   0  0  0  0  0  0  0  0  0  0  0  0
   38.3770   40.4560   -3.4850 C   0  0  0  0  0  0  0  0  0  0  0  0
   39.2730   41.2960   -3.3630 O   0  0  0  0  0  0  0  0  0  0  0  0
   37.0750   40.8180   -3.7010 N   0  0  0  0  0  0  0  0  0  0  0  0
   36.5960   42.1950   -3.7250 C   0  0  1  0  0  0  0  0  0  0  0  0
   35.7570   42.4200   -4.9990 C   0  0  0  0  0  0  0  0  0  0  0  0
   35.5360   40.9030   -5.9920 S   0  0  0  0  0  0  0  0  0  0  0  0
   35.7870   42.5070   -2.4460 C   0  0  0  0  0  0  0  0  0  0  0  0
   36.6610   42.7260   -1.2300 C   0  0  0  0  0  0  0  0  0  0  0  0
   36.5570   41.8860   -0.1140 C   0  0  0  0  0  0  0  0  0  0  0  0
   37.3830   42.0770    0.9950 C   0  0  0  0  0  0  0  0  0  0  0  0
   38.3170   43.1110    1.0020 C   0  0  0  0  0  0  0  0  0  0  0  0
   38.4300   43.9520   -0.1030 C   0  0  0  0  0  0  0  0  0  0  0  0
   37.6100   43.7590   -1.2160 C   0  0  0  0  0  0  0  0  0  0  0  0
   39.6603   38.8437   -4.0139 H   0  0  0  0  0  0  0  0  0  0  0  0
   37.8651   38.5030   -4.0940 H   0  0  0  0  0  0  0  0  0  0  0  0
   36.4160   40.0310   -3.8120 H   0  0  0  0  0  0  0  0  0  0  0  0
   37.4519   42.8857   -3.7458 H   0  0  0  0  0  0  0  0  0  0  0  0
   34.7649   42.7919   -4.7032 H   0  0  0  0  0  0  0  0  0  0  0  0
   36.2999   43.1440   -5.6244 H   0  0  0  0  0  0  0  0  0  0  0  0
   34.4450   40.4740   -5.3380 H   0  0  0  0  0  0  0  0  0  0  0  0
   35.1944   43.4173   -2.6198 H   0  0  0  0  0  0  0  0  0  0  0  0
   35.1500   41.6343   -2.2395 H   0  0  0  0  0  0  0  0  0  0  0  0
   35.8193   41.0701   -0.1114 H   0  0  0  0  0  0  0  0  0  0  0  0
   37.2964   41.4098    1.8652 H   0  0  0  0  0  0  0  0  0  0  0  0
   38.9640   43.2630    1.8785 H   0  0  0  0  0  0  0  0  0  0  0  0
   39.1664   44.7692   -0.0983 H   0  0  0  0  0  0  0  0  0  0  0  0
   37.7087   44.4217   -2.0884 H   0  0  0  0  0  0  0  0  0  0  0  0
  1  2  2  0
  2  3  1  0
  2  4  1  0
  4  5  1  0
  5  6  2  0
  5  7  1  0
  7  8  1  0
  8  9  1  0
  9 10  1  0
  8 11  1  0
 11 12  1  0
 12 13  2  0
 13 14  1  0
 14 15  2  0
 15 16  1  0
 16 17  2  0
 17 12  1  0
  4 18  1  0
  4 19  1  0
  7 20  1  0
  8 21  1  6
  9 22  1  0
  9 23  1  0
 10 24  1  0
 11 25  1  0
 11 26  1  0
 13 27  1  0
 14 28  1  0
 15 29  1  0
 16 30  1  0
 17 31  1  0
M  CHG  1   3  -1
M  END
>  <meeko>  (5) 
{"is_sidechain": [false], "free_energy": -5.811, "intermolecular_energy": -7.809, "internal_energy": -0.796}

$$$$
1z9g_ligand
     RDKit          3D

 31 31  0  0  0  0  0  0  0  0999 V2000
   33.7490   39.0700   -6.4660 O   0  0  0  0  0  0  0  0  0  0  0  0
   34.7560   39.8290   -6.4370 C   0  0  0  0  0  0  0  0  0  0  0  0
   35.9780   39.5220   -6.2730 O   0  0  0  0  0  0  0  0  0  0  0  0
   34.4710   41.3120   -6.5840 C   0  0  0  0  0  0  0  0  0  0  0  0
   34.4170   41.7810   -8.0140 C   0  0  0  0  0  0  0  0  0  0  0  0
   35.0140   42.7950   -8.3840 O   0  0  0  0  0  0  0  0  0  0  0  0
   33.7690   40.9620   -8.9010 N   0  0  0  0  0  0  0  0  0  0  0  0
   33.6410   41.2310  -10.3280 C   0  0  1  0  0  0  0  0  0  0  0  0
   33.4010   39.9050  -11.0770 C   0  0  0  0  0  0  0  0  0  0  0  0
   34.0720   38.4510  -10.1980 S   0  0  0  0  0  0  0  0  0  0  0  0
   32.5050   42.2470  -10.5860 C   0  0  0  0  0  0  0  0  0  0  0  0
   32.8590   43.2780  -11.6370 C   0  0  0  0  0  0  0  0  0  0  0  0
   33.4410   44.4990  -11.2730 C   0  0  0  0  0  0  0  0  0  0  0  0
   33.7880   45.4350  -12.2480 C   0  0  0  0  0  0  0  0  0  0  0  0
   33.5530   45.1640  -13.5940 C   0  0  0  0  0  0  0  0  0  0  0  0
   32.9760   43.9520  -13.9680 C   0  0  0  0  0  0  0  0  0  0  0  0
   32.6330   43.0100  -12.9950 C   0  0  0  0  0  0  0  0  0  0  0  0
   33.5014   41.5275   -6.1114 H   0  0  0  0  0  0  0  0  0  0  0  0
   35.3022   41.8476   -6.1020 H   0  0  0  0  0  0  0  0  0  0  0  0
   33.3240   40.1300   -8.4820 H   0  0  0  0  0  0  0  0  0  0  0  0
   34.5714   41.6799  -10.7060 H   0  0  0  0  0  0  0  0  0  0  0  0
   32.3172   39.7668  -11.2049 H   0  0  0  0  0  0  0  0  0  0  0  0
   33.9251   39.9747  -12.0416 H   0  0  0  0  0  0  0  0  0  0  0  0
   35.3610   38.7230  -10.4560 H   0  0  0  0  0  0  0  0  0  0  0  0
   31.6129   41.6974  -10.9209 H   0  0  0  0  0  0  0  0  0  0  0  0
   32.3264   42.7862   -9.6440 H   0  0  0  0  0  0  0  0  0  0  0  0
   33.6257   44.7214  -10.2117 H   0  0  0  0  0  0  0  0  0  0  0  0
   34.2484   46.3895  -11.9529 H   0  0  0  0  0  0  0  0  0  0  0  0
   33.8225   45.9056  -14.3605 H   0  0  0  0  0  0  0  0  0  0  0  0
   32.7904   43.7367  -15.0306 H   0  0  0  0  0  0  0  0  0  0  0  0
   32.1830   42.0524  -13.2958 H   0  0  0  0  0  0  0  0  0  0  0  0
  1  2  2  0
  2  3  1  0
  2  4  1  0
  4  5  1  0
  5  6  2  0
  5  7  1  0
  7  8  1  0
  8  9  1  0
  9 10  1  0
  8 11  1  0
 11 12  1  0
 12 13  2  0
 13 14  1  0
 14 15  2  0
 15 16  1  0
 16 17  2  0
 17 12  1  0
  4 18  1  0
  4 19  1  0
  7 20  1  0
  8 21  1  6
  9 22  1  0
  9 23  1  0
 10 24  1  0
 11 25  1  0
 11 26  1  0
 13 27  1  0
 14 28  1  0
 15 29  1  0
 16 30  1  0
 17 31  1  0
M  CHG  1   3  -1
M  END
>  <meeko>  (6) 
{"is_sidechain": [false], "free_energy": -5.718, "intermolecular_energy": -7.737, "internal_energy": -0.739}

$$$$
1z9g_ligand
     RDKit          3D

 31 31  0  0  0  0  0  0  0  0999 V2000
   35.7490   40.6100   -6.1310 O   0  0  0  0  0  0  0  0  0  0  0  0
   35.7310   41.8530   -6.3440 C   0  0  0  0  0  0  0  0  0  0  0  0
   35.8500   42.4720   -7.4460 O   0  0  0  0  0  0  0  0  0  0  0  0
   35.5790   42.7320   -5.1160 C   0  0  0  0  0  0  0  0  0  0  0  0
   36.6750   42.5490   -4.0990 C   0  0  0  0  0  0  0  0  0  0  0  0
   37.8480   42.8310   -4.3560 O   0  0  0  0  0  0  0  0  0  0  0  0
   36.2840   42.1670   -2.8430 N   0  0  0  0  0  0  0  0  0  0  0  0
   37.1940   41.9710   -1.7220 C   0  0  1  0  0  0  0  0  0  0  0  0
   36.9570   43.0760   -0.6730 C   0  0  0  0  0  0  0  0  0  0  0  0
   37.5820   44.7100   -1.1980 S   0  0  0  0  0  0  0  0  0  0  0  0
   37.0090   40.5610   -1.1170 C   0  0  0  0  0  0  0  0  0  0  0  0
   37.9830   39.5440   -1.6730 C   0  0  0  0  0  0  0  0  0  0  0  0
   38.0180   38.2370   -1.1680 C   0  0  0  0  0  0  0  0  0  0  0  0
   38.9000   37.2970   -1.7010 C   0  0  0  0  0  0  0  0  0  0  0  0
   39.7580   37.6520   -2.7410 C   0  0  0  0  0  0  0  0  0  0  0  0
   39.7310   38.9480   -3.2510 C   0  0  0  0  0  0  0  0  0  0  0  0
   38.8450   39.8900   -2.7240 C   0  0  0  0  0  0  0  0  0  0  0  0
   35.5781   43.7833   -5.4398 H   0  0  0  0  0  0  0  0  0  0  0  0
   34.6369   42.4414   -4.6281 H   0  0  0  0  0  0  0  0  0  0  0  0
   35.2750   41.9790   -2.7390 H   0  0  0  0  0  0  0  0  0  0  0  0
   38.2343   42.0419   -2.0724 H   0  0  0  0  0  0  0  0  0  0  0  0
   35.8756   43.1576   -0.4890 H   0  0  0  0  0  0  0  0  0  0  0  0
   37.5093   42.7901    0.2343 H   0  0  0  0  0  0  0  0  0  0  0  0
   38.1800   44.2710   -2.3160 H   0  0  0  0  0  0  0  0  0  0  0  0
   37.1534   40.6254   -0.0284 H   0  0  0  0  0  0  0  0  0  0  0  0
   35.9957   40.2221   -1.3786 H   0  0  0  0  0  0  0  0  0  0  0  0
   37.3455   37.9507   -0.3460 H   0  0  0  0  0  0  0  0  0  0  0  0
   38.9187   36.2730   -1.2997 H   0  0  0  0  0  0  0  0  0  0  0  0
   40.4549   36.9101   -3.1580 H   0  0  0  0  0  0  0  0  0  0  0  0
   40.4088   39.2299   -4.0703 H   0  0  0  0  0  0  0  0  0  0  0  0
   38.8230   40.9098   -3.1357 H   0  0  0  0  0  0  0  0  0  0  0  0
  1  2  2  0
  2  3  1  0
  2  4  1  0
  4  5  1  0
  5  6  2  0
  5  7  1  0
  7  8  1  0
  8  9  1  0
  9 10  1  0
  8 11  1  0
 11 12  1  0
 12 13  2  0
 13 14  1  0
 14 15  2  0
 15 16  1  0
 16 17  2  0
 17 12  1  0
  4 18  1  0
  4 19  1  0
  7 20  1  0
  8 21  1  6
  9 22  1  0
  9 23  1  0
 10 24  1  0
 11 25  1  0
 11 26  1  0
 13 27  1  0
 14 28  1  0
 15 29  1  0
 16 30  1  0
 17 31  1  0
M  CHG  1   3  -1
M  END
>  <meeko>  (7) 
{"is_sidechain": [false], "free_energy": -5.537, "intermolecular_energy": -7.675, "internal_energy": -0.552}

$$$$
1z9g_ligand
     RDKit          3D

 31 31  0  0  0  0  0  0  0  0999 V2000
   34.0950   45.8050  -14.8170 O   0  0  0  0  0  0  0  0  0  0  0  0
   33.2930   45.4200  -13.9220 C   0  0  0  0  0  0  0  0  0  0  0  0
   32.0990   45.0060  -14.0490 O   0  0  0  0  0  0  0  0  0  0  0  0
   33.8100   45.4910  -12.4970 C   0  0  0  0  0  0  0  0  0  0  0  0
   33.0800   44.5840  -11.5410 C   0  0  0  0  0  0  0  0  0  0  0  0
   32.3710   45.0360  -10.6380 O   0  0  0  0  0  0  0  0  0  0  0  0
   33.1510   43.2410  -11.7980 N   0  0  0  0  0  0  0  0  0  0  0  0
   32.4860   42.2150  -11.0050 C   0  0  1  0  0  0  0  0  0  0  0  0
   31.2880   41.6560  -11.7980 C   0  0  0  0  0  0  0  0  0  0  0  0
   30.3280   40.4110  -10.8680 S   0  0  0  0  0  0  0  0  0  0  0  0
   33.4850   41.1000  -10.6190 C   0  0  0  0  0  0  0  0  0  0  0  0
   34.0280   41.2520   -9.2140 C   0  0  0  0  0  0  0  0  0  0  0  0
   34.8650   40.2740   -8.6620 C   0  0  0  0  0  0  0  0  0  0  0  0
   35.3840   40.4310   -7.3760 C   0  0  0  0  0  0  0  0  0  0  0  0
   35.0700   41.5630   -6.6270 C   0  0  0  0  0  0  0  0  0  0  0  0
   34.2390   42.5430   -7.1670 C   0  0  0  0  0  0  0  0  0  0  0  0
   33.7230   42.3920   -8.4560 C   0  0  0  0  0  0  0  0  0  0  0  0
   34.8733   45.2094  -12.4991 H   0  0  0  0  0  0  0  0  0  0  0  0
   33.6489   46.5217  -12.1480 H   0  0  0  0  0  0  0  0  0  0  0  0
   33.7570   42.9810  -12.5920 H   0  0  0  0  0  0  0  0  0  0  0  0
   32.1096   42.6543  -10.0694 H   0  0  0  0  0  0  0  0  0  0  0  0
   30.6200   42.4907  -12.0570 H   0  0  0  0  0  0  0  0  0  0  0  0
   31.6914   41.1573  -12.6916 H   0  0  0  0  0  0  0  0  0  0  0  0
   31.2770   39.4620  -10.8970 H   0  0  0  0  0  0  0  0  0  0  0  0
   32.9728   40.1294  -10.6937 H   0  0  0  0  0  0  0  0  0  0  0  0
   34.3378   41.1688  -11.3103 H   0  0  0  0  0  0  0  0  0  0  0  0
   35.1150   39.3760   -9.2461 H   0  0  0  0  0  0  0  0  0  0  0  0
   36.0429   39.6587   -6.9525 H   0  0  0  0  0  0  0  0  0  0  0  0
   35.4769   41.6830   -5.6121 H   0  0  0  0  0  0  0  0  0  0  0  0
   33.9891   43.4370   -6.5769 H   0  0  0  0  0  0  0  0  0  0  0  0
   33.0733   43.1721   -8.8794 H   0  0  0  0  0  0  0  0  0  0  0  0
  1  2  2  0
  2  3  1  0
  2  4  1  0
  4  5  1  0
  5  6  2  0
  5  7  1  0
  7  8  1  0
  8  9  1  0
  9 10  1  0
  8 11  1  0
 11 12  1  0
 12 13  2  0
 13 14  1  0
 14 15  2  0
 15 16  1  0
 16 17  2  0
 17 12  1  0
  4 18  1  0
  4 19  1  0
  7 20  1  0
  8 21  1  1
  9 22  1  0
  9 23  1  0
 10 24  1  0
 11 25  1  0
 11 26  1  0
 13 27  1  0
 14 28  1  0
 15 29  1  0
 16 30  1  0
 17 31  1  0
M  CHG  1   3  -1
M  END
>  <meeko>  (8) 
{"is_sidechain": [false], "free_energy": -5.49, "intermolecular_energy": -7.409, "internal_energy": -0.752}

$$$$
1z9g_ligand
     RDKit          3D

 31 31  0  0  0  0  0  0  0  0999 V2000
   34.4090   42.7640   -6.6500 O   0  0  0  0  0  0  0  0  0  0  0  0
   35.4350   42.1720   -6.2170 C   0  0  0  0  0  0  0  0  0  0  0  0
   36.4340   42.6600   -5.6030 O   0  0  0  0  0  0  0  0  0  0  0  0
   35.5040   40.6820   -6.4930 C   0  0  0  0  0  0  0  0  0  0  0  0
   35.0450   40.2980   -7.8750 C   0  0  0  0  0  0  0  0  0  0  0  0
   35.8320   40.2370   -8.8230 O   0  0  0  0  0  0  0  0  0  0  0  0
   33.7370   39.9090   -7.9980 N   0  0  0  0  0  0  0  0  0  0  0  0
   33.1210   39.4730   -9.2450 C   0  0  1  0  0  0  0  0  0  0  0  0
   32.5690   38.0440   -9.0680 C   0  0  0  0  0  0  0  0  0  0  0  0
   32.1840   37.6320   -7.3310 S   0  0  0  0  0  0  0  0  0  0  0  0
   32.0160   40.4630   -9.6750 C   0  0  0  0  0  0  0  0  0  0  0  0
   32.5520   41.6540  -10.4420 C   0  0  0  0  0  0  0  0  0  0  0  0
   32.6360   41.6240  -11.8400 C   0  0  0  0  0  0  0  0  0  0  0  0
   33.1070   42.7330  -12.5440 C   0  0  0  0  0  0  0  0  0  0  0  0
   33.5020   43.8810  -11.8590 C   0  0  0  0  0  0  0  0  0  0  0  0
   33.4210   43.9220  -10.4690 C   0  0  0  0  0  0  0  0  0  0  0  0
   32.9440   42.8160   -9.7620 C   0  0  0  0  0  0  0  0  0  0  0  0
   36.5469   40.3545   -6.3705 H   0  0  0  0  0  0  0  0  0  0  0  0
   34.8227   40.1925   -5.7815 H   0  0  0  0  0  0  0  0  0  0  0  0
   33.1780   39.9800   -7.1330 H   0  0  0  0  0  0  0  0  0  0  0  0
   33.8745   39.4575  -10.0462 H   0  0  0  0  0  0  0  0  0  0  0  0
   31.6483   37.9487   -9.6623 H   0  0  0  0  0  0  0  0  0  0  0  0
   33.3513   37.3473   -9.4037 H   0  0  0  0  0  0  0  0  0  0  0  0
   31.8880   38.8870   -6.9590 H   0  0  0  0  0  0  0  0  0  0  0  0
   31.2972   39.9295  -10.3142 H   0  0  0  0  0  0  0  0  0  0  0  0
   31.5450   40.8477   -8.7584 H   0  0  0  0  0  0  0  0  0  0  0  0
   32.3286   40.7202  -12.3865 H   0  0  0  0  0  0  0  0  0  0  0  0
   33.1667   42.7012  -13.6419 H   0  0  0  0  0  0  0  0  0  0  0  0
   33.8770   44.7529  -12.4151 H   0  0  0  0  0  0  0  0  0  0  0  0
   33.7333   44.8270   -9.9273 H   0  0  0  0  0  0  0  0  0  0  0  0
   32.8754   42.8567   -8.6649 H   0  0  0  0  0  0  0  0  0  0  0  0
  1  2  2  0
  2  3  1  0
  2  4  1  0
  4  5  1  0
  5  6  2  0
  5  7  1  0
  7  8  1  0
  8  9  1  0
  9 10  1  0
  8 11  1  0
 11 12  1  0
 12 13  2  0
 13 14  1  0
 14 15  2  0
 15 16  1  0
 16 17  2  0
 17 12  1  0
  4 18  1  0
  4 19  1  0
  7 20  1  0
  8 21  1  6
  9 22  1  0
  9 23  1  0
 10 24  1  0
 11 25  1  0
 11 26  1  0
 13 27  1  0
 14 28  1  0
 15 29  1  0
 16 30  1  0
 17 31  1  0
M  CHG  1   3  -1
M  END
>  <meeko>  (9) 
{"is_sidechain": [false], "free_energy": -5.449, "intermolecular_energy": -7.34, "internal_energy": -0.764}

$$$$
