4crc_ligand
     RDKit          3D

 60 64  0  0  0  0  0  0  0  0999 V2000
  -53.3860  -12.5320  -27.2490 O   0  0  0  0  0  0  0  0  0  0  0  0
  -52.6290  -13.0280  -26.4210 C   0  0  0  0  0  0  0  0  0  0  0  0
  -52.4190  -14.4860  -26.3430 C   0  0  0  0  0  0  0  0  0  0  0  0
  -52.3180  -15.0860  -25.1470 C   0  0  0  0  0  0  0  0  0  0  0  0
  -52.0100  -16.5120  -25.0090 C   0  0  0  0  0  0  0  0  0  0  0  0
  -52.3640  -17.3370  -26.0940 C   0  0  0  0  0  0  0  0  0  0  0  0
  -52.1310  -18.7090  -26.0490 C   0  0  0  0  0  0  0  0  0  0  0  0
  -52.5710  -19.6980  -27.3850 Cl  0  0  0  0  0  0  0  0  0  0  0  0
  -51.5470  -19.2830  -24.9280 C   0  0  0  0  0  0  0  0  0  0  0  0
  -51.1900  -18.4820  -23.8380 C   0  0  0  0  0  0  0  0  0  0  0  0
  -51.4130  -17.0900  -23.8610 C   0  0  0  0  0  0  0  0  0  0  0  0
  -51.0200  -16.3120  -22.7300 N   0  0  0  0  0  0  0  0  0  0  0  0
  -49.9740  -15.4260  -22.6080 C   0  0  0  0  0  0  0  0  0  0  0  0
  -49.9590  -14.9200  -21.3970 N   0  0  0  0  0  0  0  0  0  0  0  0
  -51.0160  -15.4890  -20.7450 N   0  0  0  0  0  0  0  0  0  0  0  0
  -51.6630  -16.3290  -21.5360 N   0  0  0  0  0  0  0  0  0  0  0  0
  -51.8470  -12.2980  -25.5720 N   0  0  0  0  0  0  0  0  0  0  0  0
  -52.0230  -10.8580  -25.3590 C   0  0  1  0  0  0  0  0  0  0  0  0
  -53.4420  -10.5450  -24.8430 C   0  0  0  0  0  0  0  0  0  0  0  0
  -53.9570   -9.1950  -25.2920 C   0  0  0  0  0  0  0  0  0  0  0  0
  -54.9610   -8.5360  -24.5710 C   0  0  0  0  0  0  0  0  0  0  0  0
  -55.4140   -7.2790  -24.9760 C   0  0  0  0  0  0  0  0  0  0  0  0
  -54.8700   -6.6710  -26.1070 C   0  0  0  0  0  0  0  0  0  0  0  0
  -53.8770   -7.3210  -26.8360 C   0  0  0  0  0  0  0  0  0  0  0  0
  -53.4230   -8.5780  -26.4320 C   0  0  0  0  0  0  0  0  0  0  0  0
  -50.9580  -10.3000  -24.3800 C   0  0  0  0  0  0  0  0  0  0  0  0
  -50.1480   -9.4430  -24.7270 O   0  0  0  0  0  0  0  0  0  0  0  0
  -50.9860  -10.9310  -23.1460 N   0  0  0  0  0  0  0  0  0  0  0  0
  -50.1670  -10.6960  -22.0260 C   0  0  0  0  0  0  0  0  0  0  0  0
  -48.8270  -11.0850  -22.1270 C   0  0  0  0  0  0  0  0  0  0  0  0
  -47.9420  -10.8910  -21.0590 C   0  0  0  0  0  0  0  0  0  0  0  0
  -48.3830  -10.3040  -19.8670 C   0  0  0  0  0  0  0  0  0  0  0  0
  -47.4630  -10.1020  -18.7560 C   0  0  0  0  0  0  0  0  0  0  0  0
  -46.0950  -10.2180  -18.8860 N   0  0  0  0  0  0  0  0  0  0  0  0
  -45.5720   -9.9730  -17.6930 N   0  0  0  0  0  0  0  0  0  0  0  0
  -46.6270   -9.7250  -16.9110 N   0  0  0  0  0  0  0  0  0  0  0  0
  -47.8290   -9.7880  -17.5000 N   0  0  0  0  0  0  0  0  0  0  0  0
  -49.7260   -9.9170  -19.7700 C   0  0  0  0  0  0  0  0  0  0  0  0
  -50.6110  -10.1110  -20.8400 C   0  0  0  0  0  0  0  0  0  0  0  0
  -52.3452  -15.0813  -27.2651 H   0  0  0  0  0  0  0  0  0  0  0  0
  -52.4719  -14.4861  -24.2379 H   0  0  0  0  0  0  0  0  0  0  0  0
  -52.8294  -16.8929  -26.9863 H   0  0  0  0  0  0  0  0  0  0  0  0
  -51.3650  -20.3674  -24.8968 H   0  0  0  0  0  0  0  0  0  0  0  0
  -50.7297  -18.9439  -22.9521 H   0  0  0  0  0  0  0  0  0  0  0  0
  -49.2580  -15.1790  -23.4057 H   0  0  0  0  0  0  0  0  0  0  0  0
  -51.1430  -12.7770  -25.0160 H   0  0  0  0  0  0  0  0  0  0  0  0
  -51.8888  -10.3614  -26.3313 H   0  0  0  0  0  0  0  0  0  0  0  0
  -54.1276  -11.3213  -25.2136 H   0  0  0  0  0  0  0  0  0  0  0  0
  -53.3928  -10.5263  -23.7443 H   0  0  0  0  0  0  0  0  0  0  0  0
  -55.3955   -9.0121  -23.6796 H   0  0  0  0  0  0  0  0  0  0  0  0
  -56.2010   -6.7676  -24.4023 H   0  0  0  0  0  0  0  0  0  0  0  0
  -55.2248   -5.6789  -26.4231 H   0  0  0  0  0  0  0  0  0  0  0  0
  -53.4502   -6.8438  -27.7305 H   0  0  0  0  0  0  0  0  0  0  0  0
  -52.6403   -9.0881  -27.0126 H   0  0  0  0  0  0  0  0  0  0  0  0
  -51.6930  -11.6610  -23.0400 H   0  0  0  0  0  0  0  0  0  0  0  0
  -48.4642  -11.5487  -23.0562 H   0  0  0  0  0  0  0  0  0  0  0  0
  -46.8916  -11.2025  -21.1576 H   0  0  0  0  0  0  0  0  0  0  0  0
  -46.5190   -9.5010  -15.9260 H   0  0  0  0  0  0  0  0  0  0  0  0
  -50.0913   -9.4544  -18.8412 H   0  0  0  0  0  0  0  0  0  0  0  0
  -51.6617   -9.8000  -20.7437 H   0  0  0  0  0  0  0  0  0  0  0  0
  1  2  2  0
  2  3  1  0
  3  4  2  0
  4  5  1  0
  5  6  2  0
  6  7  1  0
  7  8  1  0
  7  9  2  0
  9 10  1  0
 10 11  2  0
 11 12  1  0
 12 13  1  0
 13 14  2  0
 14 15  1  0
 15 16  2  0
  2 17  1  0
 17 18  1  0
 18 19  1  0
 19 20  1  0
 20 21  2  0
 21 22  1  0
 22 23  2  0
 23 24  1  0
 24 25  2  0
 18 26  1  0
 26 27  2  0
 26 28  1  0
 28 29  1  0
 29 30  2  0
 30 31  1  0
 31 32  2  0
 32 33  1  0
 33 34  1  0
 34 35  2  0
 35 36  1  0
 36 37  1  0
 32 38  1  0
 38 39  2  0
 11  5  1  0
 16 12  1  0
 25 20  1  0
 39 29  1  0
 37 33  2  0
  3 40  1  0
  4 41  1  0
  6 42  1  0
  9 43  1  0
 10 44  1  0
 13 45  1  0
 17 46  1  0
 18 47  1  6
 19 48  1  0
 19 49  1  0
 21 50  1  0
 22 51  1  0
 23 52  1  0
 24 53  1  0
 25 54  1  0
 28 55  1  0
 30 56  1  0
 31 57  1  0
 36 58  1  0
 38 59  1  0
 39 60  1  0
M  END
>  <meeko>  (1) 
{"is_sidechain": [false], "free_energy": -10.245, "intermolecular_energy": -15.636, "internal_energy": -1.437}

$$$$
4crc_ligand
     RDKit          3D

 60 64  0  0  0  0  0  0  0  0999 V2000
  -49.7450   -9.3650  -24.2950 O   0  0  0  0  0  0  0  0  0  0  0  0
  -49.8590  -10.0040  -23.2550 C   0  0  0  0  0  0  0  0  0  0  0  0
  -49.0180   -9.7160  -22.0760 C   0  0  0  0  0  0  0  0  0  0  0  0
  -48.7310  -10.6930  -21.2040 C   0  0  0  0  0  0  0  0  0  0  0  0
  -47.9860  -10.4440  -19.9650 C   0  0  0  0  0  0  0  0  0  0  0  0
  -46.5820  -10.4400  -20.0700 C   0  0  0  0  0  0  0  0  0  0  0  0
  -45.7870  -10.2330  -18.9460 C   0  0  0  0  0  0  0  0  0  0  0  0
  -44.0740  -10.2310  -19.0950 Cl  0  0  0  0  0  0  0  0  0  0  0  0
  -46.3720  -10.0310  -17.7030 C   0  0  0  0  0  0  0  0  0  0  0  0
  -47.7650  -10.0340  -17.5770 C   0  0  0  0  0  0  0  0  0  0  0  0
  -48.5910  -10.2380  -18.7010 C   0  0  0  0  0  0  0  0  0  0  0  0
  -50.0080  -10.2210  -18.5250 N   0  0  0  0  0  0  0  0  0  0  0  0
  -50.7880  -10.9880  -17.6890 C   0  0  0  0  0  0  0  0  0  0  0  0
  -52.0500  -10.6580  -17.8320 N   0  0  0  0  0  0  0  0  0  0  0  0
  -52.0690   -9.6630  -18.7670 N   0  0  0  0  0  0  0  0  0  0  0  0
  -50.8460   -9.3900  -19.1930 N   0  0  0  0  0  0  0  0  0  0  0  0
  -50.8140  -10.9570  -23.0480 N   0  0  0  0  0  0  0  0  0  0  0  0
  -51.6300  -11.5210  -24.1290 C   0  0  1  0  0  0  0  0  0  0  0  0
  -52.0590  -12.9650  -23.8010 C   0  0  0  0  0  0  0  0  0  0  0  0
  -51.6870  -13.3940  -22.3980 C   0  0  0  0  0  0  0  0  0  0  0  0
  -50.4400  -13.9760  -22.1340 C   0  0  0  0  0  0  0  0  0  0  0  0
  -50.0940  -14.3460  -20.8330 C   0  0  0  0  0  0  0  0  0  0  0  0
  -50.9910  -14.1410  -19.7850 C   0  0  0  0  0  0  0  0  0  0  0  0
  -52.2360  -13.5710  -20.0380 C   0  0  0  0  0  0  0  0  0  0  0  0
  -52.5840  -13.2010  -21.3380 C   0  0  0  0  0  0  0  0  0  0  0  0
  -52.8750  -10.6410  -24.4130 C   0  0  0  0  0  0  0  0  0  0  0  0
  -53.9620  -10.8720  -23.8900 O   0  0  0  0  0  0  0  0  0  0  0  0
  -52.6270   -9.6580  -25.3580 N   0  0  0  0  0  0  0  0  0  0  0  0
  -53.5140   -8.6910  -25.8660 C   0  0  0  0  0  0  0  0  0  0  0  0
  -53.7030   -8.6690  -27.2530 C   0  0  0  0  0  0  0  0  0  0  0  0
  -54.5660   -7.7380  -27.8440 C   0  0  0  0  0  0  0  0  0  0  0  0
  -55.2570   -6.8090  -27.0570 C   0  0  0  0  0  0  0  0  0  0  0  0
  -56.1550   -5.8410  -27.6720 C   0  0  0  0  0  0  0  0  0  0  0  0
  -56.3160   -5.7300  -29.0370 N   0  0  0  0  0  0  0  0  0  0  0  0
  -57.1950   -4.7600  -29.2440 N   0  0  0  0  0  0  0  0  0  0  0  0
  -57.5210   -4.3370  -28.0190 N   0  0  0  0  0  0  0  0  0  0  0  0
  -56.9150   -4.9580  -26.9970 N   0  0  0  0  0  0  0  0  0  0  0  0
  -55.0650   -6.8340  -25.6700 C   0  0  0  0  0  0  0  0  0  0  0  0
  -54.2000   -7.7670  -25.0790 C   0  0  0  0  0  0  0  0  0  0  0  0
  -48.6273   -8.7007  -21.9133 H   0  0  0  0  0  0  0  0  0  0  0  0
  -49.0658  -11.7172  -21.4253 H   0  0  0  0  0  0  0  0  0  0  0  0
  -46.1086  -10.6020  -21.0496 H   0  0  0  0  0  0  0  0  0  0  0  0
  -45.7400   -9.8686  -16.8175 H   0  0  0  0  0  0  0  0  0  0  0  0
  -48.2215   -9.8753  -16.5889 H   0  0  0  0  0  0  0  0  0  0  0  0
  -50.4101  -11.7613  -17.0041 H   0  0  0  0  0  0  0  0  0  0  0  0
  -50.9350  -11.3400  -22.1140 H   0  0  0  0  0  0  0  0  0  0  0  0
  -51.0085  -11.5390  -25.0365 H   0  0  0  0  0  0  0  0  0  0  0  0
  -53.1510  -13.0387  -23.9110 H   0  0  0  0  0  0  0  0  0  0  0  0
  -51.5274  -13.6299  -24.4976 H   0  0  0  0  0  0  0  0  0  0  0  0
  -49.7293  -14.1424  -22.9569 H   0  0  0  0  0  0  0  0  0  0  0  0
  -49.1120  -14.8001  -20.6342 H   0  0  0  0  0  0  0  0  0  0  0  0
  -50.7154  -14.4292  -18.7598 H   0  0  0  0  0  0  0  0  0  0  0  0
  -52.9457  -13.4122  -19.2127 H   0  0  0  0  0  0  0  0  0  0  0  0
  -53.5702  -12.7543  -21.5325 H   0  0  0  0  0  0  0  0  0  0  0  0
  -51.6760   -9.6360  -25.7320 H   0  0  0  0  0  0  0  0  0  0  0  0
  -53.1672   -9.3916  -27.8860 H   0  0  0  0  0  0  0  0  0  0  0  0
  -54.7021   -7.7366  -28.9355 H   0  0  0  0  0  0  0  0  0  0  0  0
  -58.1900   -3.5870  -27.8740 H   0  0  0  0  0  0  0  0  0  0  0  0
  -55.5998   -6.1121  -25.0353 H   0  0  0  0  0  0  0  0  0  0  0  0
  -54.0621   -7.7696  -23.9877 H   0  0  0  0  0  0  0  0  0  0  0  0
  1  2  2  0
  2  3  1  0
  3  4  2  0
  4  5  1  0
  5  6  2  0
  6  7  1  0
  7  8  1  0
  7  9  2  0
  9 10  1  0
 10 11  2  0
 11 12  1  0
 12 13  1  0
 13 14  2  0
 14 15  1  0
 15 16  2  0
  2 17  1  0
 17 18  1  0
 18 19  1  0
 19 20  1  0
 20 21  2  0
 21 22  1  0
 22 23  2  0
 23 24  1  0
 24 25  2  0
 18 26  1  0
 26 27  2  0
 26 28  1  0
 28 29  1  0
 29 30  2  0
 30 31  1  0
 31 32  2  0
 32 33  1  0
 33 34  1  0
 34 35  2  0
 35 36  1  0
 36 37  1  0
 32 38  1  0
 38 39  2  0
 11  5  1  0
 16 12  1  0
 25 20  1  0
 39 29  1  0
 37 33  2  0
  3 40  1  0
  4 41  1  0
  6 42  1  0
  9 43  1  0
 10 44  1  0
 13 45  1  0
 17 46  1  0
 18 47  1  6
 19 48  1  0
 19 49  1  0
 21 50  1  0
 22 51  1  0
 23 52  1  0
 24 53  1  0
 25 54  1  0
 28 55  1  0
 30 56  1  0
 31 57  1  0
 36 58  1  0
 38 59  1  0
 39 60  1  0
M  END
>  <meeko>  (2) 
{"is_sidechain": [false], "free_energy": -9.96, "intermolecular_energy": -14.802, "internal_energy": -1.836}

$$$$
4crc_ligand
     RDKit          3D

 60 64  0  0  0  0  0  0  0  0999 V2000
  -51.5550  -12.4010  -26.9330 O   0  0  0  0  0  0  0  0  0  0  0  0
  -52.2530  -12.7180  -25.9770 C   0  0  0  0  0  0  0  0  0  0  0  0
  -52.7710  -14.0910  -25.8200 C   0  0  0  0  0  0  0  0  0  0  0  0
  -53.2350  -14.7580  -26.8870 C   0  0  0  0  0  0  0  0  0  0  0  0
  -53.8530  -16.0830  -26.7760 C   0  0  0  0  0  0  0  0  0  0  0  0
  -52.9760  -17.1690  -26.5950 C   0  0  0  0  0  0  0  0  0  0  0  0
  -53.4650  -18.4690  -26.5000 C   0  0  0  0  0  0  0  0  0  0  0  0
  -52.3760  -19.7820  -26.2790 Cl  0  0  0  0  0  0  0  0  0  0  0  0
  -54.8290  -18.7110  -26.5840 C   0  0  0  0  0  0  0  0  0  0  0  0
  -55.7180  -17.6460  -26.7660 C   0  0  0  0  0  0  0  0  0  0  0  0
  -55.2470  -16.3210  -26.8630 C   0  0  0  0  0  0  0  0  0  0  0  0
  -56.1940  -15.2660  -27.0360 N   0  0  0  0  0  0  0  0  0  0  0  0
  -56.7160  -14.7520  -28.2020 C   0  0  0  0  0  0  0  0  0  0  0  0
  -57.5580  -13.7850  -27.9220 N   0  0  0  0  0  0  0  0  0  0  0  0
  -57.5740  -13.6900  -26.5600 N   0  0  0  0  0  0  0  0  0  0  0  0
  -56.7570  -14.5760  -26.0140 N   0  0  0  0  0  0  0  0  0  0  0  0
  -52.5370  -11.8850  -24.9330 N   0  0  0  0  0  0  0  0  0  0  0  0
  -52.2770  -10.4420  -24.9650 C   0  0  1  0  0  0  0  0  0  0  0  0
  -53.5100   -9.6470  -24.4930 C   0  0  0  0  0  0  0  0  0  0  0  0
  -53.9260   -8.5590  -25.4590 C   0  0  0  0  0  0  0  0  0  0  0  0
  -54.8810   -7.6030  -25.0920 C   0  0  0  0  0  0  0  0  0  0  0  0
  -55.2410   -6.5860  -25.9780 C   0  0  0  0  0  0  0  0  0  0  0  0
  -54.6520   -6.5180  -27.2410 C   0  0  0  0  0  0  0  0  0  0  0  0
  -53.7070   -7.4690  -27.6190 C   0  0  0  0  0  0  0  0  0  0  0  0
  -53.3460   -8.4860  -26.7340 C   0  0  0  0  0  0  0  0  0  0  0  0
  -51.0380  -10.0740  -24.1090 C   0  0  0  0  0  0  0  0  0  0  0  0
  -50.0800   -9.4690  -24.5850 O   0  0  0  0  0  0  0  0  0  0  0  0
  -51.1150  -10.5740  -22.8180 N   0  0  0  0  0  0  0  0  0  0  0  0
  -50.1800  -10.4470  -21.7750 C   0  0  0  0  0  0  0  0  0  0  0  0
  -48.8490  -10.7650  -22.0730 C   0  0  0  0  0  0  0  0  0  0  0  0
  -47.8530  -10.6710  -21.0940 C   0  0  0  0  0  0  0  0  0  0  0  0
  -48.1690  -10.2560  -19.7950 C   0  0  0  0  0  0  0  0  0  0  0  0
  -47.1320  -10.1580  -18.7760 C   0  0  0  0  0  0  0  0  0  0  0  0
  -45.7860  -10.1600  -19.0750 N   0  0  0  0  0  0  0  0  0  0  0  0
  -45.1360  -10.0580  -17.9250 N   0  0  0  0  0  0  0  0  0  0  0  0
  -46.0990   -9.9980  -17.0000 N   0  0  0  0  0  0  0  0  0  0  0  0
  -47.3590  -10.0560  -17.4530 N   0  0  0  0  0  0  0  0  0  0  0  0
  -49.5010   -9.9400  -19.5000 C   0  0  0  0  0  0  0  0  0  0  0  0
  -50.4990  -10.0350  -20.4810 C   0  0  0  0  0  0  0  0  0  0  0  0
  -52.7765  -14.5670  -24.8284 H   0  0  0  0  0  0  0  0  0  0  0  0
  -53.1489  -14.2945  -27.8809 H   0  0  0  0  0  0  0  0  0  0  0  0
  -51.8930  -16.9886  -26.5279 H   0  0  0  0  0  0  0  0  0  0  0  0
  -55.2110  -19.7397  -26.5075 H   0  0  0  0  0  0  0  0  0  0  0  0
  -56.7977  -17.8452  -26.8342 H   0  0  0  0  0  0  0  0  0  0  0  0
  -56.4651  -15.0994  -29.2151 H   0  0  0  0  0  0  0  0  0  0  0  0
  -53.0010  -12.2640  -24.1120 H   0  0  0  0  0  0  0  0  0  0  0  0
  -52.0657  -10.1683  -26.0093 H   0  0  0  0  0  0  0  0  0  0  0  0
  -54.3506  -10.3460  -24.3713 H   0  0  0  0  0  0  0  0  0  0  0  0
  -53.2388   -9.1564  -23.5466 H   0  0  0  0  0  0  0  0  0  0  0  0
  -55.3508   -7.6537  -24.0987 H   0  0  0  0  0  0  0  0  0  0  0  0
  -55.9899   -5.8374  -25.6800 H   0  0  0  0  0  0  0  0  0  0  0  0
  -54.9335   -5.7144  -27.9374 H   0  0  0  0  0  0  0  0  0  0  0  0
  -53.2449   -7.4184  -28.6159 H   0  0  0  0  0  0  0  0  0  0  0  0
  -52.6011   -9.2359  -27.0386 H   0  0  0  0  0  0  0  0  0  0  0  0
  -51.9630  -11.1020  -22.6000 H   0  0  0  0  0  0  0  0  0  0  0  0
  -48.5831  -11.0926  -23.0888 H   0  0  0  0  0  0  0  0  0  0  0  0
  -46.8133  -10.9254  -21.3475 H   0  0  0  0  0  0  0  0  0  0  0  0
  -45.8840   -9.9140  -16.0110 H   0  0  0  0  0  0  0  0  0  0  0  0
  -49.7684   -9.6126  -18.4845 H   0  0  0  0  0  0  0  0  0  0  0  0
  -51.5395   -9.7831  -20.2284 H   0  0  0  0  0  0  0  0  0  0  0  0
  1  2  2  0
  2  3  1  0
  3  4  2  0
  4  5  1  0
  5  6  2  0
  6  7  1  0
  7  8  1  0
  7  9  2  0
  9 10  1  0
 10 11  2  0
 11 12  1  0
 12 13  1  0
 13 14  2  0
 14 15  1  0
 15 16  2  0
  2 17  1  0
 17 18  1  0
 18 19  1  0
 19 20  1  0
 20 21  2  0
 21 22  1  0
 22 23  2  0
 23 24  1  0
 24 25  2  0
 18 26  1  0
 26 27  2  0
 26 28  1  0
 28 29  1  0
 29 30  2  0
 30 31  1  0
 31 32  2  0
 32 33  1  0
 33 34  1  0
 34 35  2  0
 35 36  1  0
 36 37  1  0
 32 38  1  0
 38 39  2  0
 11  5  1  0
 16 12  1  0
 25 20  1  0
 39 29  1  0
 37 33  2  0
  3 40  1  0
  4 41  1  0
  6 42  1  0
  9 43  1  0
 10 44  1  0
 13 45  1  0
 17 46  1  0
 18 47  1  6
 19 48  1  0
 19 49  1  0
 21 50  1  0
 22 51  1  0
 23 52  1  0
 24 53  1  0
 25 54  1  0
 28 55  1  0
 30 56  1  0
 31 57  1  0
 36 58  1  0
 38 59  1  0
 39 60  1  0
M  END
>  <meeko>  (3) 
{"is_sidechain": [false], "free_energy": -9.618, "intermolecular_energy": -14.853, "internal_energy": -1.262}

$$$$
4crc_ligand
     RDKit          3D

 60 64  0  0  0  0  0  0  0  0999 V2000
  -53.0090  -12.8090  -27.1500 O   0  0  0  0  0  0  0  0  0  0  0  0
  -53.5970  -13.0570  -26.1040 C   0  0  0  0  0  0  0  0  0  0  0  0
  -54.5250  -14.2000  -25.9930 C   0  0  0  0  0  0  0  0  0  0  0  0
  -54.3470  -15.2850  -26.7600 C   0  0  0  0  0  0  0  0  0  0  0  0
  -55.2920  -16.4060  -26.7650 C   0  0  0  0  0  0  0  0  0  0  0  0
  -56.6290  -16.0950  -27.0770 C   0  0  0  0  0  0  0  0  0  0  0  0
  -57.6050  -17.0880  -27.0870 C   0  0  0  0  0  0  0  0  0  0  0  0
  -59.2330  -16.6870  -27.4720 Cl  0  0  0  0  0  0  0  0  0  0  0  0
  -57.2710  -18.4010  -26.7840 C   0  0  0  0  0  0  0  0  0  0  0  0
  -55.9480  -18.7300  -26.4690 C   0  0  0  0  0  0  0  0  0  0  0  0
  -54.9420  -17.7430  -26.4550 C   0  0  0  0  0  0  0  0  0  0  0  0
  -53.6040  -18.1300  -26.1380 N   0  0  0  0  0  0  0  0  0  0  0  0
  -52.6560  -18.7150  -26.9480 C   0  0  0  0  0  0  0  0  0  0  0  0
  -51.5520  -18.9100  -26.2670 N   0  0  0  0  0  0  0  0  0  0  0  0
  -51.8010  -18.4370  -25.0110 N   0  0  0  0  0  0  0  0  0  0  0  0
  -53.0340  -17.9640  -24.9200 N   0  0  0  0  0  0  0  0  0  0  0  0
  -53.3890  -12.3830  -24.9350 N   0  0  0  0  0  0  0  0  0  0  0  0
  -52.6530  -11.1160  -24.8610 C   0  0  1  0  0  0  0  0  0  0  0  0
  -53.5160  -10.0130  -24.2170 C   0  0  0  0  0  0  0  0  0  0  0  0
  -53.8570   -8.8880  -25.1700 C   0  0  0  0  0  0  0  0  0  0  0  0
  -54.8020   -7.9150  -24.8190 C   0  0  0  0  0  0  0  0  0  0  0  0
  -55.0930   -6.8650  -25.6930 C   0  0  0  0  0  0  0  0  0  0  0  0
  -54.4440   -6.7800  -26.9240 C   0  0  0  0  0  0  0  0  0  0  0  0
  -53.5080   -7.7460  -27.2850 C   0  0  0  0  0  0  0  0  0  0  0  0
  -53.2160   -8.7960  -26.4140 C   0  0  0  0  0  0  0  0  0  0  0  0
  -51.3220  -11.2830  -24.0830 C   0  0  0  0  0  0  0  0  0  0  0  0
  -50.4600  -12.0810  -24.4440 O   0  0  0  0  0  0  0  0  0  0  0  0
  -51.2760  -10.5110  -22.9330 N   0  0  0  0  0  0  0  0  0  0  0  0
  -50.2410  -10.4160  -21.9860 C   0  0  0  0  0  0  0  0  0  0  0  0
  -50.5060  -10.9120  -20.7040 C   0  0  0  0  0  0  0  0  0  0  0  0
  -49.5330  -10.8550  -19.6980 C   0  0  0  0  0  0  0  0  0  0  0  0
  -48.2750  -10.2990  -19.9560 C   0  0  0  0  0  0  0  0  0  0  0  0
  -47.2630  -10.2400  -18.9090 C   0  0  0  0  0  0  0  0  0  0  0  0
  -47.5730  -10.2390  -17.5660 N   0  0  0  0  0  0  0  0  0  0  0  0
  -46.4270  -10.1770  -16.9060 N   0  0  0  0  0  0  0  0  0  0  0  0
  -45.4920  -10.1450  -17.8600 N   0  0  0  0  0  0  0  0  0  0  0  0
  -45.9350  -10.1790  -19.1240 N   0  0  0  0  0  0  0  0  0  0  0  0
  -48.0140   -9.8030  -21.2400 C   0  0  0  0  0  0  0  0  0  0  0  0
  -48.9890   -9.8600  -22.2460 C   0  0  0  0  0  0  0  0  0  0  0  0
  -55.3625  -14.1613  -25.2809 H   0  0  0  0  0  0  0  0  0  0  0  0
  -53.4602  -15.3361  -27.4088 H   0  0  0  0  0  0  0  0  0  0  0  0
  -56.9054  -15.0573  -27.3152 H   0  0  0  0  0  0  0  0  0  0  0  0
  -58.0457  -19.1819  -26.7916 H   0  0  0  0  0  0  0  0  0  0  0  0
  -55.6898  -19.7721  -26.2293 H   0  0  0  0  0  0  0  0  0  0  0  0
  -52.8025  -18.9787  -28.0058 H   0  0  0  0  0  0  0  0  0  0  0  0
  -53.8060  -12.7390  -24.0800 H   0  0  0  0  0  0  0  0  0  0  0  0
  -52.4122  -10.8130  -25.8907 H   0  0  0  0  0  0  0  0  0  0  0  0
  -54.4533  -10.4658  -23.8615 H   0  0  0  0  0  0  0  0  0  0  0  0
  -52.9287   -9.5775  -23.3951 H   0  0  0  0  0  0  0  0  0  0  0  0
  -55.3178   -7.9783  -23.8495 H   0  0  0  0  0  0  0  0  0  0  0  0
  -55.8352   -6.1042  -25.4097 H   0  0  0  0  0  0  0  0  0  0  0  0
  -54.6711   -5.9504  -27.6097 H   0  0  0  0  0  0  0  0  0  0  0  0
  -52.9985   -7.6811  -28.2577 H   0  0  0  0  0  0  0  0  0  0  0  0
  -52.4775   -9.5574  -26.7052 H   0  0  0  0  0  0  0  0  0  0  0  0
  -52.1040   -9.9380  -22.7530 H   0  0  0  0  0  0  0  0  0  0  0  0
  -51.4900  -11.3517  -20.4841 H   0  0  0  0  0  0  0  0  0  0  0  0
  -49.7596  -11.2506  -18.6969 H   0  0  0  0  0  0  0  0  0  0  0  0
  -44.5020  -10.0980  -17.6360 H   0  0  0  0  0  0  0  0  0  0  0  0
  -47.0307   -9.3628  -21.4619 H   0  0  0  0  0  0  0  0  0  0  0  0
  -48.7647   -9.4634  -23.2472 H   0  0  0  0  0  0  0  0  0  0  0  0
  1  2  2  0
  2  3  1  0
  3  4  2  0
  4  5  1  0
  5  6  2  0
  6  7  1  0
  7  8  1  0
  7  9  2  0
  9 10  1  0
 10 11  2  0
 11 12  1  0
 12 13  1  0
 13 14  2  0
 14 15  1  0
 15 16  2  0
  2 17  1  0
 17 18  1  0
 18 19  1  0
 19 20  1  0
 20 21  2  0
 21 22  1  0
 22 23  2  0
 23 24  1  0
 24 25  2  0
 18 26  1  0
 26 27  2  0
 26 28  1  0
 28 29  1  0
 29 30  2  0
 30 31  1  0
 31 32  2  0
 32 33  1  0
 33 34  1  0
 34 35  2  0
 35 36  1  0
 36 37  1  0
 32 38  1  0
 38 39  2  0
 11  5  1  0
 16 12  1  0
 25 20  1  0
 39 29  1  0
 37 33  2  0
  3 40  1  0
  4 41  1  0
  6 42  1  0
  9 43  1  0
 10 44  1  0
 13 45  1  0
 17 46  1  0
 18 47  1  6
 19 48  1  0
 19 49  1  0
 21 50  1  0
 22 51  1  0
 23 52  1  0
 24 53  1  0
 25 54  1  0
 28 55  1  0
 30 56  1  0
 31 57  1  0
 36 58  1  0
 38 59  1  0
 39 60  1  0
M  END
>  <meeko>  (4) 
{"is_sidechain": [false], "free_energy": -9.486, "intermolecular_energy": -14.449, "internal_energy": -1.466}

$$$$
4crc_ligand
     RDKit          3D

 60 64  0  0  0  0  0  0  0  0999 V2000
  -49.9680  -11.7120  -23.7500 O   0  0  0  0  0  0  0  0  0  0  0  0
  -50.4300  -10.9530  -22.9070 C   0  0  0  0  0  0  0  0  0  0  0  0
  -49.5910  -10.3900  -21.8310 C   0  0  0  0  0  0  0  0  0  0  0  0
  -48.8200  -11.1990  -21.0890 C   0  0  0  0  0  0  0  0  0  0  0  0
  -48.0440  -10.7100  -19.9450 C   0  0  0  0  0  0  0  0  0  0  0  0
  -46.6460  -10.6730  -20.1070 C   0  0  0  0  0  0  0  0  0  0  0  0
  -45.8220  -10.2440  -19.0710 C   0  0  0  0  0  0  0  0  0  0  0  0
  -44.1170  -10.2060  -19.2900 Cl  0  0  0  0  0  0  0  0  0  0  0  0
  -46.3710   -9.8490  -17.8580 C   0  0  0  0  0  0  0  0  0  0  0  0
  -47.7580   -9.8810  -17.6750 C   0  0  0  0  0  0  0  0  0  0  0  0
  -48.6130  -10.3090  -18.7110 C   0  0  0  0  0  0  0  0  0  0  0  0
  -50.0220  -10.3120  -18.4810 N   0  0  0  0  0  0  0  0  0  0  0  0
  -50.7810  -11.2080  -17.7620 C   0  0  0  0  0  0  0  0  0  0  0  0
  -52.0430  -10.8500  -17.7980 N   0  0  0  0  0  0  0  0  0  0  0  0
  -52.0830   -9.7070  -18.5450 N   0  0  0  0  0  0  0  0  0  0  0  0
  -50.8720   -9.3730  -18.9620 N   0  0  0  0  0  0  0  0  0  0  0  0
  -51.7110  -10.4810  -22.9280 N   0  0  0  0  0  0  0  0  0  0  0  0
  -52.7570  -11.0400  -23.7930 C   0  0  1  0  0  0  0  0  0  0  0  0
  -52.5310  -10.6360  -25.2630 C   0  0  0  0  0  0  0  0  0  0  0  0
  -53.2230   -9.3440  -25.6410 C   0  0  0  0  0  0  0  0  0  0  0  0
  -52.9490   -8.7160  -26.8620 C   0  0  0  0  0  0  0  0  0  0  0  0
  -53.6100   -7.5380  -27.2160 C   0  0  0  0  0  0  0  0  0  0  0  0
  -54.5490   -6.9760  -26.3510 C   0  0  0  0  0  0  0  0  0  0  0  0
  -54.8230   -7.5890  -25.1310 C   0  0  0  0  0  0  0  0  0  0  0  0
  -54.1630   -8.7660  -24.7760 C   0  0  0  0  0  0  0  0  0  0  0  0
  -52.8300  -12.5830  -23.6620 C   0  0  0  0  0  0  0  0  0  0  0  0
  -53.2090  -13.1260  -22.6270 O   0  0  0  0  0  0  0  0  0  0  0  0
  -52.3490  -13.2370  -24.7860 N   0  0  0  0  0  0  0  0  0  0  0  0
  -52.2540  -14.6210  -25.0170 C   0  0  0  0  0  0  0  0  0  0  0  0
  -52.9060  -15.1210  -26.1500 C   0  0  0  0  0  0  0  0  0  0  0  0
  -52.8660  -16.4870  -26.4560 C   0  0  0  0  0  0  0  0  0  0  0  0
  -52.1720  -17.3800  -25.6310 C   0  0  0  0  0  0  0  0  0  0  0  0
  -52.1310  -18.8020  -25.9490 C   0  0  0  0  0  0  0  0  0  0  0  0
  -51.7380  -19.2830  -27.1800 N   0  0  0  0  0  0  0  0  0  0  0  0
  -51.8200  -20.6040  -27.1210 N   0  0  0  0  0  0  0  0  0  0  0  0
  -52.2480  -20.8580  -25.8810 N   0  0  0  0  0  0  0  0  0  0  0  0
  -52.4630  -19.7910  -25.0990 N   0  0  0  0  0  0  0  0  0  0  0  0
  -51.5220  -16.8760  -24.4980 C   0  0  0  0  0  0  0  0  0  0  0  0
  -51.5630  -15.5080  -24.1930 C   0  0  0  0  0  0  0  0  0  0  0  0
  -49.5980   -9.3072  -21.6376 H   0  0  0  0  0  0  0  0  0  0  0  0
  -48.7681  -12.2668  -21.3479 H   0  0  0  0  0  0  0  0  0  0  0  0
  -46.2004  -10.9865  -21.0626 H   0  0  0  0  0  0  0  0  0  0  0  0
  -45.7159   -9.5112  -17.0415 H   0  0  0  0  0  0  0  0  0  0  0  0
  -48.1863   -9.5684  -16.7112 H   0  0  0  0  0  0  0  0  0  0  0  0
  -50.3885  -12.0911  -17.2365 H   0  0  0  0  0  0  0  0  0  0  0  0
  -51.9770   -9.7460  -22.2780 H   0  0  0  0  0  0  0  0  0  0  0  0
  -53.7191  -10.6226  -23.4612 H   0  0  0  0  0  0  0  0  0  0  0  0
  -51.4505  -10.5153  -25.4299 H   0  0  0  0  0  0  0  0  0  0  0  0
  -52.9604  -11.4315  -25.8897 H   0  0  0  0  0  0  0  0  0  0  0  0
  -52.2080   -9.1536  -27.5471 H   0  0  0  0  0  0  0  0  0  0  0  0
  -53.3899   -7.0526  -28.1783 H   0  0  0  0  0  0  0  0  0  0  0  0
  -55.0722   -6.0501  -26.6321 H   0  0  0  0  0  0  0  0  0  0  0  0
  -55.5606   -7.1448  -24.4464 H   0  0  0  0  0  0  0  0  0  0  0  0
  -54.3819   -9.2442  -23.8099 H   0  0  0  0  0  0  0  0  0  0  0  0
  -52.0230  -12.6310  -25.5420 H   0  0  0  0  0  0  0  0  0  0  0  0
  -53.4565  -14.4327  -26.8081 H   0  0  0  0  0  0  0  0  0  0  0  0
  -53.3839  -16.8611  -27.3515 H   0  0  0  0  0  0  0  0  0  0  0  0
  -52.4000  -21.8070  -25.5540 H   0  0  0  0  0  0  0  0  0  0  0  0
  -50.9716  -17.5626  -23.8380 H   0  0  0  0  0  0  0  0  0  0  0  0
  -51.0464  -15.1322  -23.2975 H   0  0  0  0  0  0  0  0  0  0  0  0
  1  2  2  0
  2  3  1  0
  3  4  2  0
  4  5  1  0
  5  6  2  0
  6  7  1  0
  7  8  1  0
  7  9  2  0
  9 10  1  0
 10 11  2  0
 11 12  1  0
 12 13  1  0
 13 14  2  0
 14 15  1  0
 15 16  2  0
  2 17  1  0
 17 18  1  0
 18 19  1  0
 19 20  1  0
 20 21  2  0
 21 22  1  0
 22 23  2  0
 23 24  1  0
 24 25  2  0
 18 26  1  0
 26 27  2  0
 26 28  1  0
 28 29  1  0
 29 30  2  0
 30 31  1  0
 31 32  2  0
 32 33  1  0
 33 34  1  0
 34 35  2  0
 35 36  1  0
 36 37  1  0
 32 38  1  0
 38 39  2  0
 11  5  1  0
 16 12  1  0
 25 20  1  0
 39 29  1  0
 37 33  2  0
  3 40  1  0
  4 41  1  0
  6 42  1  0
  9 43  1  0
 10 44  1  0
 13 45  1  0
 17 46  1  0
 18 47  1  1
 19 48  1  0
 19 49  1  0
 21 50  1  0
 22 51  1  0
 23 52  1  0
 24 53  1  0
 25 54  1  0
 28 55  1  0
 30 56  1  0
 31 57  1  0
 36 58  1  0
 38 59  1  0
 39 60  1  0
M  END
>  <meeko>  (5) 
{"is_sidechain": [false], "free_energy": -9.346, "intermolecular_energy": -14.712, "internal_energy": -0.989}

$$$$
4crc_ligand
     RDKit          3D

 60 64  0  0  0  0  0  0  0  0999 V2000
  -49.6650  -11.9800  -23.5230 O   0  0  0  0  0  0  0  0  0  0  0  0
  -49.9680  -12.5130  -22.4620 C   0  0  0  0  0  0  0  0  0  0  0  0
  -49.3330  -12.1160  -21.1900 C   0  0  0  0  0  0  0  0  0  0  0  0
  -48.6380  -10.9720  -21.1160 C   0  0  0  0  0  0  0  0  0  0  0  0
  -47.9040  -10.5770  -19.9090 C   0  0  0  0  0  0  0  0  0  0  0  0
  -46.5000  -10.5620  -20.0080 C   0  0  0  0  0  0  0  0  0  0  0  0
  -45.7140  -10.2210  -18.9110 C   0  0  0  0  0  0  0  0  0  0  0  0
  -44.0000  -10.2080  -19.0530 Cl  0  0  0  0  0  0  0  0  0  0  0  0
  -46.3080   -9.8930  -17.7000 C   0  0  0  0  0  0  0  0  0  0  0  0
  -47.7020   -9.9040  -17.5800 C   0  0  0  0  0  0  0  0  0  0  0  0
  -48.5190  -10.2430  -18.6780 C   0  0  0  0  0  0  0  0  0  0  0  0
  -49.9370  -10.2290  -18.5090 N   0  0  0  0  0  0  0  0  0  0  0  0
  -50.7190  -10.9900  -17.6690 C   0  0  0  0  0  0  0  0  0  0  0  0
  -51.9810  -10.6660  -17.8230 N   0  0  0  0  0  0  0  0  0  0  0  0
  -51.9980   -9.6810  -18.7690 N   0  0  0  0  0  0  0  0  0  0  0  0
  -50.7740   -9.4080  -19.1910 N   0  0  0  0  0  0  0  0  0  0  0  0
  -50.9660  -13.4360  -22.3310 N   0  0  0  0  0  0  0  0  0  0  0  0
  -51.6000  -14.0980  -23.4760 C   0  0  1  0  0  0  0  0  0  0  0  0
  -52.4990  -15.2610  -23.0130 C   0  0  0  0  0  0  0  0  0  0  0  0
  -52.1050  -16.5950  -23.6080 C   0  0  0  0  0  0  0  0  0  0  0  0
  -52.3190  -16.8640  -24.9660 C   0  0  0  0  0  0  0  0  0  0  0  0
  -51.9290  -18.0880  -25.5140 C   0  0  0  0  0  0  0  0  0  0  0  0
  -51.3260  -19.0540  -24.7100 C   0  0  0  0  0  0  0  0  0  0  0  0
  -51.1150  -18.7990  -23.3560 C   0  0  0  0  0  0  0  0  0  0  0  0
  -51.5050  -17.5770  -22.8070 C   0  0  0  0  0  0  0  0  0  0  0  0
  -52.4150  -13.0910  -24.3290 C   0  0  0  0  0  0  0  0  0  0  0  0
  -52.4820  -13.1870  -25.5520 O   0  0  0  0  0  0  0  0  0  0  0  0
  -52.9590  -12.0680  -23.5680 N   0  0  0  0  0  0  0  0  0  0  0  0
  -53.7420  -10.9810  -23.9990 C   0  0  0  0  0  0  0  0  0  0  0  0
  -53.0600   -9.8700  -24.5080 C   0  0  0  0  0  0  0  0  0  0  0  0
  -53.7600   -8.7430  -24.9560 C   0  0  0  0  0  0  0  0  0  0  0  0
  -55.1580   -8.7060  -24.9030 C   0  0  0  0  0  0  0  0  0  0  0  0
  -55.8870   -7.5340  -25.3700 C   0  0  0  0  0  0  0  0  0  0  0  0
  -55.2660   -6.4490  -25.9520 N   0  0  0  0  0  0  0  0  0  0  0  0
  -56.2170   -5.5770  -26.2510 N   0  0  0  0  0  0  0  0  0  0  0  0
  -57.3480   -6.1610  -25.8460 N   0  0  0  0  0  0  0  0  0  0  0  0
  -57.2210   -7.3740  -25.2890 N   0  0  0  0  0  0  0  0  0  0  0  0
  -55.8370   -9.8210  -24.3930 C   0  0  0  0  0  0  0  0  0  0  0  0
  -55.1350  -10.9480  -23.9440 C   0  0  0  0  0  0  0  0  0  0  0  0
  -49.4301  -12.7589  -20.3027 H   0  0  0  0  0  0  0  0  0  0  0  0
  -48.6174  -10.3061  -21.9913 H   0  0  0  0  0  0  0  0  0  0  0  0
  -46.0189  -10.8225  -20.9623 H   0  0  0  0  0  0  0  0  0  0  0  0
  -45.6832   -9.6246  -16.8353 H   0  0  0  0  0  0  0  0  0  0  0  0
  -48.1663   -9.6449  -16.6170 H   0  0  0  0  0  0  0  0  0  0  0  0
  -50.3423  -11.7545  -16.9736 H   0  0  0  0  0  0  0  0  0  0  0  0
  -51.2520  -13.7240  -21.4000 H   0  0  0  0  0  0  0  0  0  0  0  0
  -50.7973  -14.5085  -24.1062 H   0  0  0  0  0  0  0  0  0  0  0  0
  -52.4371  -15.3354  -21.9173 H   0  0  0  0  0  0  0  0  0  0  0  0
  -53.5205  -15.0400  -23.3562 H   0  0  0  0  0  0  0  0  0  0  0  0
  -52.7971  -16.1066  -25.6046 H   0  0  0  0  0  0  0  0  0  0  0  0
  -52.0980  -18.2901  -26.5820 H   0  0  0  0  0  0  0  0  0  0  0  0
  -51.0170  -20.0165  -25.1437 H   0  0  0  0  0  0  0  0  0  0  0  0
  -50.6410  -19.5613  -22.7202 H   0  0  0  0  0  0  0  0  0  0  0  0
  -51.3404  -17.3824  -21.7369 H   0  0  0  0  0  0  0  0  0  0  0  0
  -52.7630  -12.1110  -22.5660 H   0  0  0  0  0  0  0  0  0  0  0  0
  -51.9611   -9.8822  -24.5567 H   0  0  0  0  0  0  0  0  0  0  0  0
  -53.2063   -7.8794  -25.3530 H   0  0  0  0  0  0  0  0  0  0  0  0
  -58.2510   -5.7090  -25.9550 H   0  0  0  0  0  0  0  0  0  0  0  0
  -56.9359   -9.8115  -24.3444 H   0  0  0  0  0  0  0  0  0  0  0  0
  -55.6866  -11.8123  -23.5456 H   0  0  0  0  0  0  0  0  0  0  0  0
  1  2  2  0
  2  3  1  0
  3  4  2  0
  4  5  1  0
  5  6  2  0
  6  7  1  0
  7  8  1  0
  7  9  2  0
  9 10  1  0
 10 11  2  0
 11 12  1  0
 12 13  1  0
 13 14  2  0
 14 15  1  0
 15 16  2  0
  2 17  1  0
 17 18  1  0
 18 19  1  0
 19 20  1  0
 20 21  2  0
 21 22  1  0
 22 23  2  0
 23 24  1  0
 24 25  2  0
 18 26  1  0
 26 27  2  0
 26 28  1  0
 28 29  1  0
 29 30  2  0
 30 31  1  0
 31 32  2  0
 32 33  1  0
 33 34  1  0
 34 35  2  0
 35 36  1  0
 36 37  1  0
 32 38  1  0
 38 39  2  0
 11  5  1  0
 16 12  1  0
 25 20  1  0
 39 29  1  0
 37 33  2  0
  3 40  1  0
  4 41  1  0
  6 42  1  0
  9 43  1  0
 10 44  1  0
 13 45  1  0
 17 46  1  0
 18 47  1  6
 19 48  1  0
 19 49  1  0
 21 50  1  0
 22 51  1  0
 23 52  1  0
 24 53  1  0
 25 54  1  0
 28 55  1  0
 30 56  1  0
 31 57  1  0
 36 58  1  0
 38 59  1  0
 39 60  1  0
M  END
>  <meeko>  (6) 
{"is_sidechain": [false], "free_energy": -9.311, "intermolecular_energy": -14.545, "internal_energy": -1.102}

$$$$
4crc_ligand
     RDKit          3D

 60 64  0  0  0  0  0  0  0  0999 V2000
  -51.6550  -15.3210  -24.9830 O   0  0  0  0  0  0  0  0  0  0  0  0
  -52.7570  -15.2110  -25.5080 C   0  0  0  0  0  0  0  0  0  0  0  0
  -53.7450  -16.3070  -25.4650 C   0  0  0  0  0  0  0  0  0  0  0  0
  -54.1540  -16.8850  -26.6040 C   0  0  0  0  0  0  0  0  0  0  0  0
  -55.2050  -17.9070  -26.6310 C   0  0  0  0  0  0  0  0  0  0  0  0
  -56.5300  -17.4400  -26.7140 C   0  0  0  0  0  0  0  0  0  0  0  0
  -57.5990  -18.3310  -26.7250 C   0  0  0  0  0  0  0  0  0  0  0  0
  -59.2100  -17.7390  -26.8280 Cl  0  0  0  0  0  0  0  0  0  0  0  0
  -57.3700  -19.6990  -26.6490 C   0  0  0  0  0  0  0  0  0  0  0  0
  -56.0600  -20.1840  -26.5630 C   0  0  0  0  0  0  0  0  0  0  0  0
  -54.9620  -19.3000  -26.5530 C   0  0  0  0  0  0  0  0  0  0  0  0
  -53.6430  -19.8440  -26.4760 N   0  0  0  0  0  0  0  0  0  0  0  0
  -52.8490  -20.3380  -27.4860 C   0  0  0  0  0  0  0  0  0  0  0  0
  -51.7030  -20.7450  -26.9910 N   0  0  0  0  0  0  0  0  0  0  0  0
  -51.7710  -20.4980  -25.6500 N   0  0  0  0  0  0  0  0  0  0  0  0
  -52.9340  -19.9560  -25.3260 N   0  0  0  0  0  0  0  0  0  0  0  0
  -53.2130  -14.0620  -26.0860 N   0  0  0  0  0  0  0  0  0  0  0  0
  -52.3450  -12.9200  -26.3940 C   0  0  1  0  0  0  0  0  0  0  0  0
  -52.9600  -12.0420  -27.5020 C   0  0  0  0  0  0  0  0  0  0  0  0
  -53.7750  -12.8290  -28.5050 C   0  0  0  0  0  0  0  0  0  0  0  0
  -55.1330  -12.5460  -28.7040 C   0  0  0  0  0  0  0  0  0  0  0  0
  -55.8730  -13.2590  -29.6490 C   0  0  0  0  0  0  0  0  0  0  0  0
  -55.2640  -14.2630  -30.4010 C   0  0  0  0  0  0  0  0  0  0  0  0
  -53.9170  -14.5580  -30.2060 C   0  0  0  0  0  0  0  0  0  0  0  0
  -53.1760  -13.8460  -29.2610 C   0  0  0  0  0  0  0  0  0  0  0  0
  -52.0620  -12.0710  -25.1280 C   0  0  0  0  0  0  0  0  0  0  0  0
  -52.7850  -11.1320  -24.8050 O   0  0  0  0  0  0  0  0  0  0  0  0
  -50.8890  -12.4420  -24.4900 N   0  0  0  0  0  0  0  0  0  0  0  0
  -50.3150  -11.8930  -23.3280 C   0  0  0  0  0  0  0  0  0  0  0  0
  -50.0670  -12.7710  -22.2670 C   0  0  0  0  0  0  0  0  0  0  0  0
  -49.5010  -12.3100  -21.0720 C   0  0  0  0  0  0  0  0  0  0  0  0
  -49.1730  -10.9580  -20.9160 C   0  0  0  0  0  0  0  0  0  0  0  0
  -48.5840  -10.4780  -19.6730 C   0  0  0  0  0  0  0  0  0  0  0  0
  -48.8830  -11.0230  -18.4420 N   0  0  0  0  0  0  0  0  0  0  0  0
  -48.1790  -10.3530  -17.5420 N   0  0  0  0  0  0  0  0  0  0  0  0
  -47.4980   -9.4500  -18.2540 N   0  0  0  0  0  0  0  0  0  0  0  0
  -47.7000   -9.4670  -19.5790 N   0  0  0  0  0  0  0  0  0  0  0  0
  -49.4240  -10.0820  -21.9800 C   0  0  0  0  0  0  0  0  0  0  0  0
  -49.9910  -10.5450  -23.1760 C   0  0  0  0  0  0  0  0  0  0  0  0
  -54.1455  -16.6494  -24.4994 H   0  0  0  0  0  0  0  0  0  0  0  0
  -53.6844  -16.5816  -27.5513 H   0  0  0  0  0  0  0  0  0  0  0  0
  -56.7229  -16.3585  -26.7708 H   0  0  0  0  0  0  0  0  0  0  0  0
  -58.2174  -20.4003  -26.6564 H   0  0  0  0  0  0  0  0  0  0  0  0
  -55.8850  -21.2683  -26.5025 H   0  0  0  0  0  0  0  0  0  0  0  0
  -53.1319  -20.3848  -28.5480 H   0  0  0  0  0  0  0  0  0  0  0  0
  -54.1870  -14.0060  -26.3710 H   0  0  0  0  0  0  0  0  0  0  0  0
  -51.3879  -13.3212  -26.7586 H   0  0  0  0  0  0  0  0  0  0  0  0
  -53.6139  -11.2929  -27.0315 H   0  0  0  0  0  0  0  0  0  0  0  0
  -52.1270  -11.5783  -28.0507 H   0  0  0  0  0  0  0  0  0  0  0  0
  -55.6191  -11.7568  -28.1117 H   0  0  0  0  0  0  0  0  0  0  0  0
  -56.9378  -13.0285  -29.8006 H   0  0  0  0  0  0  0  0  0  0  0  0
  -55.8472  -14.8217  -31.1478 H   0  0  0  0  0  0  0  0  0  0  0  0
  -53.4368  -15.3521  -30.7966 H   0  0  0  0  0  0  0  0  0  0  0  0
  -52.1132  -14.0851  -29.1084 H   0  0  0  0  0  0  0  0  0  0  0  0
  -50.3770  -13.2140  -24.9210 H   0  0  0  0  0  0  0  0  0  0  0  0
  -50.3197  -13.8363  -22.3730 H   0  0  0  0  0  0  0  0  0  0  0  0
  -49.3126  -13.0157  -20.2495 H   0  0  0  0  0  0  0  0  0  0  0  0
  -46.8650   -8.7900  -17.8130 H   0  0  0  0  0  0  0  0  0  0  0  0
  -49.1728   -9.0161  -21.8758 H   0  0  0  0  0  0  0  0  0  0  0  0
  -50.1814   -9.8408  -23.9993 H   0  0  0  0  0  0  0  0  0  0  0  0
  1  2  2  0
  2  3  1  0
  3  4  2  0
  4  5  1  0
  5  6  2  0
  6  7  1  0
  7  8  1  0
  7  9  2  0
  9 10  1  0
 10 11  2  0
 11 12  1  0
 12 13  1  0
 13 14  2  0
 14 15  1  0
 15 16  2  0
  2 17  1  0
 17 18  1  0
 18 19  1  0
 19 20  1  0
 20 21  2  0
 21 22  1  0
 22 23  2  0
 23 24  1  0
 24 25  2  0
 18 26  1  0
 26 27  2  0
 26 28  1  0
 28 29  1  0
 29 30  2  0
 30 31  1  0
 31 32  2  0
 32 33  1  0
 33 34  1  0
 34 35  2  0
 35 36  1  0
 36 37  1  0
 32 38  1  0
 38 39  2  0
 11  5  1  0
 16 12  1  0
 25 20  1  0
 39 29  1  0
 37 33  2  0
  3 40  1  0
  4 41  1  0
  6 42  1  0
  9 43  1  0
 10 44  1  0
 13 45  1  0
 17 46  1  0
 18 47  1  6
 19 48  1  0
 19 49  1  0
 21 50  1  0
 22 51  1  0
 23 52  1  0
 24 53  1  0
 25 54  1  0
 28 55  1  0
 30 56  1  0
 31 57  1  0
 36 58  1  0
 38 59  1  0
 39 60  1  0
M  END
>  <meeko>  (7) 
{"is_sidechain": [false], "free_energy": -9.265, "intermolecular_energy": -13.924, "internal_energy": -1.653}

$$$$
4crc_ligand
     RDKit          3D

 60 64  0  0  0  0  0  0  0  0999 V2000
  -56.8530  -11.2460  -22.2760 O   0  0  0  0  0  0  0  0  0  0  0  0
  -55.7580  -11.1690  -22.8200 C   0  0  0  0  0  0  0  0  0  0  0  0
  -55.5600  -10.3670  -24.0430 C   0  0  0  0  0  0  0  0  0  0  0  0
  -54.6920   -9.3440  -24.0410 C   0  0  0  0  0  0  0  0  0  0  0  0
  -54.5270   -8.4530  -25.1930 C   0  0  0  0  0  0  0  0  0  0  0  0
  -55.4530   -7.3990  -25.3060 C   0  0  0  0  0  0  0  0  0  0  0  0
  -55.3930   -6.5110  -26.3770 C   0  0  0  0  0  0  0  0  0  0  0  0
  -56.5340   -5.2300  -26.4950 Cl  0  0  0  0  0  0  0  0  0  0  0  0
  -54.4150   -6.6570  -27.3520 C   0  0  0  0  0  0  0  0  0  0  0  0
  -53.4870   -7.7000  -27.2600 C   0  0  0  0  0  0  0  0  0  0  0  0
  -53.5270   -8.6100  -26.1830 C   0  0  0  0  0  0  0  0  0  0  0  0
  -52.5500   -9.6500  -26.1260 N   0  0  0  0  0  0  0  0  0  0  0  0
  -52.3670  -10.7150  -26.9790 C   0  0  0  0  0  0  0  0  0  0  0  0
  -51.3540  -11.4430  -26.5700 N   0  0  0  0  0  0  0  0  0  0  0  0
  -50.8850  -10.8250  -25.4460 N   0  0  0  0  0  0  0  0  0  0  0  0
  -51.5960   -9.7440  -25.1680 N   0  0  0  0  0  0  0  0  0  0  0  0
  -54.6160  -11.7190  -22.3140 N   0  0  0  0  0  0  0  0  0  0  0  0
  -54.6130  -12.6950  -21.2180 C   0  0  1  0  0  0  0  0  0  0  0  0
  -54.6650  -14.1360  -21.7620 C   0  0  0  0  0  0  0  0  0  0  0  0
  -53.3230  -14.6400  -22.2460 C   0  0  0  0  0  0  0  0  0  0  0  0
  -52.5610  -15.5150  -21.4610 C   0  0  0  0  0  0  0  0  0  0  0  0
  -51.3350  -15.9970  -21.9250 C   0  0  0  0  0  0  0  0  0  0  0  0
  -50.8590  -15.6060  -23.1760 C   0  0  0  0  0  0  0  0  0  0  0  0
  -51.6050  -14.7310  -23.9620 C   0  0  0  0  0  0  0  0  0  0  0  0
  -52.8300  -14.2480  -23.4990 C   0  0  0  0  0  0  0  0  0  0  0  0
  -53.3770  -12.5070  -20.3010 C   0  0  0  0  0  0  0  0  0  0  0  0
  -53.3770  -12.8850  -19.1320 O   0  0  0  0  0  0  0  0  0  0  0  0
  -52.3530  -11.8100  -20.9230 N   0  0  0  0  0  0  0  0  0  0  0  0
  -51.0980  -11.4500  -20.4000 C   0  0  0  0  0  0  0  0  0  0  0  0
  -51.0770  -10.4190  -19.4540 C   0  0  0  0  0  0  0  0  0  0  0  0
  -49.8720   -9.9940  -18.8830 C   0  0  0  0  0  0  0  0  0  0  0  0
  -48.6610  -10.5930  -19.2490 C   0  0  0  0  0  0  0  0  0  0  0  0
  -47.4060  -10.1520  -18.6550 C   0  0  0  0  0  0  0  0  0  0  0  0
  -46.2010  -10.2050  -19.3230 N   0  0  0  0  0  0  0  0  0  0  0  0
  -45.2810   -9.7320  -18.4970 N   0  0  0  0  0  0  0  0  0  0  0  0
  -45.9570   -9.4170  -17.3870 N   0  0  0  0  0  0  0  0  0  0  0  0
  -47.2760   -9.6510  -17.4120 N   0  0  0  0  0  0  0  0  0  0  0  0
  -48.6860  -11.6250  -20.1970 C   0  0  0  0  0  0  0  0  0  0  0  0
  -49.8940  -12.0490  -20.7680 C   0  0  0  0  0  0  0  0  0  0  0  0
  -56.1241  -10.6080  -24.9561 H   0  0  0  0  0  0  0  0  0  0  0  0
  -54.0823   -9.1676  -23.1426 H   0  0  0  0  0  0  0  0  0  0  0  0
  -56.2326   -7.2754  -24.5399 H   0  0  0  0  0  0  0  0  0  0  0  0
  -54.3699   -5.9531  -28.1961 H   0  0  0  0  0  0  0  0  0  0  0  0
  -52.7166   -7.8118  -28.0372 H   0  0  0  0  0  0  0  0  0  0  0  0
  -52.9778  -10.9245  -27.8695 H   0  0  0  0  0  0  0  0  0  0  0  0
  -53.7250  -11.4910  -22.7470 H   0  0  0  0  0  0  0  0  0  0  0  0
  -55.5160  -12.5186  -20.6151 H   0  0  0  0  0  0  0  0  0  0  0  0
  -55.0189  -14.7999  -20.9595 H   0  0  0  0  0  0  0  0  0  0  0  0
  -55.3444  -14.1341  -22.6271 H   0  0  0  0  0  0  0  0  0  0  0  0
  -52.9308  -15.8246  -20.4724 H   0  0  0  0  0  0  0  0  0  0  0  0
  -50.7444  -16.6857  -21.3030 H   0  0  0  0  0  0  0  0  0  0  0  0
  -49.8947  -15.9885  -23.5419 H   0  0  0  0  0  0  0  0  0  0  0  0
  -51.2287  -14.4205  -24.9479 H   0  0  0  0  0  0  0  0  0  0  0  0
  -53.4135  -13.5542  -24.1220 H   0  0  0  0  0  0  0  0  0  0  0  0
  -52.5370  -11.5230  -21.8870 H   0  0  0  0  0  0  0  0  0  0  0  0
  -52.0194   -9.9366  -19.1554 H   0  0  0  0  0  0  0  0  0  0  0  0
  -49.8766   -9.1825  -18.1404 H   0  0  0  0  0  0  0  0  0  0  0  0
  -45.4930   -9.0240  -16.5740 H   0  0  0  0  0  0  0  0  0  0  0  0
  -47.7448  -12.1089  -20.4971 H   0  0  0  0  0  0  0  0  0  0  0  0
  -49.8920  -12.8598  -21.5114 H   0  0  0  0  0  0  0  0  0  0  0  0
  1  2  2  0
  2  3  1  0
  3  4  2  0
  4  5  1  0
  5  6  2  0
  6  7  1  0
  7  8  1  0
  7  9  2  0
  9 10  1  0
 10 11  2  0
 11 12  1  0
 12 13  1  0
 13 14  2  0
 14 15  1  0
 15 16  2  0
  2 17  1  0
 17 18  1  0
 18 19  1  0
 19 20  1  0
 20 21  2  0
 21 22  1  0
 22 23  2  0
 23 24  1  0
 24 25  2  0
 18 26  1  0
 26 27  2  0
 26 28  1  0
 28 29  1  0
 29 30  2  0
 30 31  1  0
 31 32  2  0
 32 33  1  0
 33 34  1  0
 34 35  2  0
 35 36  1  0
 36 37  1  0
 32 38  1  0
 38 39  2  0
 11  5  1  0
 16 12  1  0
 25 20  1  0
 39 29  1  0
 37 33  2  0
  3 40  1  0
  4 41  1  0
  6 42  1  0
  9 43  1  0
 10 44  1  0
 13 45  1  0
 17 46  1  0
 18 47  1  1
 19 48  1  0
 19 49  1  0
 21 50  1  0
 22 51  1  0
 23 52  1  0
 24 53  1  0
 25 54  1  0
 28 55  1  0
 30 56  1  0
 31 57  1  0
 36 58  1  0
 38 59  1  0
 39 60  1  0
M  END
>  <meeko>  (8) 
{"is_sidechain": [false], "free_energy": -9.173, "intermolecular_energy": -13.786, "internal_energy": -1.651}

$$$$
4crc_ligand
     RDKit          3D

 60 64  0  0  0  0  0  0  0  0999 V2000
  -51.8470  -12.3180  -27.3530 O   0  0  0  0  0  0  0  0  0  0  0  0
  -52.7810  -12.5960  -26.6090 C   0  0  0  0  0  0  0  0  0  0  0  0
  -53.7340  -13.6740  -26.9370 C   0  0  0  0  0  0  0  0  0  0  0  0
  -54.8810  -13.7850  -26.2510 C   0  0  0  0  0  0  0  0  0  0  0  0
  -55.8170  -14.8930  -26.4640 C   0  0  0  0  0  0  0  0  0  0  0  0
  -55.7780  -15.9360  -25.5200 C   0  0  0  0  0  0  0  0  0  0  0  0
  -56.6130  -17.0430  -25.6470 C   0  0  0  0  0  0  0  0  0  0  0  0
  -56.5490  -18.3050  -24.4820 Cl  0  0  0  0  0  0  0  0  0  0  0  0
  -57.4970  -17.1320  -26.7140 C   0  0  0  0  0  0  0  0  0  0  0  0
  -57.5510  -16.1070  -27.6650 C   0  0  0  0  0  0  0  0  0  0  0  0
  -56.7160  -14.9760  -27.5560 C   0  0  0  0  0  0  0  0  0  0  0  0
  -56.8160  -13.9510  -28.5450 N   0  0  0  0  0  0  0  0  0  0  0  0
  -56.2090  -13.8740  -29.7780 C   0  0  0  0  0  0  0  0  0  0  0  0
  -56.5650  -12.7630  -30.3790 N   0  0  0  0  0  0  0  0  0  0  0  0
  -57.4150  -12.1310  -29.5170 N   0  0  0  0  0  0  0  0  0  0  0  0
  -57.5750  -12.8360  -28.4090 N   0  0  0  0  0  0  0  0  0  0  0  0
  -52.9780  -12.0200  -25.3870 N   0  0  0  0  0  0  0  0  0  0  0  0
  -52.2650  -10.8170  -24.9430 C   0  0  1  0  0  0  0  0  0  0  0  0
  -53.2440   -9.7790  -24.3590 C   0  0  0  0  0  0  0  0  0  0  0  0
  -53.6460   -8.7120  -25.3540 C   0  0  0  0  0  0  0  0  0  0  0  0
  -53.1240   -8.7110  -26.6540 C   0  0  0  0  0  0  0  0  0  0  0  0
  -53.5190   -7.7390  -27.5750 C   0  0  0  0  0  0  0  0  0  0  0  0
  -54.4380   -6.7580  -27.2040 C   0  0  0  0  0  0  0  0  0  0  0  0
  -54.9580   -6.7450  -25.9120 C   0  0  0  0  0  0  0  0  0  0  0  0
  -54.5640   -7.7160  -24.9900 C   0  0  0  0  0  0  0  0  0  0  0  0
  -51.1650  -11.1640  -23.9070 C   0  0  0  0  0  0  0  0  0  0  0  0
  -50.5920  -12.2520  -23.9140 O   0  0  0  0  0  0  0  0  0  0  0  0
  -50.9860  -10.1640  -22.9650 N   0  0  0  0  0  0  0  0  0  0  0  0
  -50.0910  -10.1370  -21.8790 C   0  0  0  0  0  0  0  0  0  0  0  0
  -48.7480   -9.8700  -22.1700 C   0  0  0  0  0  0  0  0  0  0  0  0
  -47.7890   -9.8270  -21.1520 C   0  0  0  0  0  0  0  0  0  0  0  0
  -48.1550  -10.0520  -19.8190 C   0  0  0  0  0  0  0  0  0  0  0  0
  -47.1570  -10.0070  -18.7590 C   0  0  0  0  0  0  0  0  0  0  0  0
  -45.8040  -10.1290  -18.9980 N   0  0  0  0  0  0  0  0  0  0  0  0
  -45.1970  -10.0450  -17.8240 N   0  0  0  0  0  0  0  0  0  0  0  0
  -46.1890   -9.8770  -16.9440 N   0  0  0  0  0  0  0  0  0  0  0  0
  -47.4300   -9.8460  -17.4510 N   0  0  0  0  0  0  0  0  0  0  0  0
  -49.5000  -10.3190  -19.5320 C   0  0  0  0  0  0  0  0  0  0  0  0
  -50.4600  -10.3620  -20.5540 C   0  0  0  0  0  0  0  0  0  0  0  0
  -53.5038  -14.3858  -27.7434 H   0  0  0  0  0  0  0  0  0  0  0  0
  -55.1281  -13.0179  -25.5024 H   0  0  0  0  0  0  0  0  0  0  0  0
  -55.0798  -15.8760  -24.6721 H   0  0  0  0  0  0  0  0  0  0  0  0
  -58.1548  -18.0082  -26.8117 H   0  0  0  0  0  0  0  0  0  0  0  0
  -58.2534  -16.1845  -28.5080 H   0  0  0  0  0  0  0  0  0  0  0  0
  -55.5281  -14.6298  -30.1965 H   0  0  0  0  0  0  0  0  0  0  0  0
  -53.6890  -12.4030  -24.7700 H   0  0  0  0  0  0  0  0  0  0  0  0
  -51.7771  -10.3777  -25.8256 H   0  0  0  0  0  0  0  0  0  0  0  0
  -54.1508  -10.3037  -24.0238 H   0  0  0  0  0  0  0  0  0  0  0  0
  -52.7279   -9.2740  -23.5292 H   0  0  0  0  0  0  0  0  0  0  0  0
  -52.3976   -9.4817  -26.9513 H   0  0  0  0  0  0  0  0  0  0  0  0
  -53.1050   -7.7470  -28.5941 H   0  0  0  0  0  0  0  0  0  0  0  0
  -54.7521   -5.9949  -27.9313 H   0  0  0  0  0  0  0  0  0  0  0  0
  -55.6798   -5.9688  -25.6180 H   0  0  0  0  0  0  0  0  0  0  0  0
  -54.9765   -7.7000  -23.9704 H   0  0  0  0  0  0  0  0  0  0  0  0
  -51.5830   -9.3420  -23.0760 H   0  0  0  0  0  0  0  0  0  0  0  0
  -48.4429   -9.6918  -23.2117 H   0  0  0  0  0  0  0  0  0  0  0  0
  -46.7387   -9.6147  -21.4008 H   0  0  0  0  0  0  0  0  0  0  0  0
  -46.0100   -9.7800  -15.9490 H   0  0  0  0  0  0  0  0  0  0  0  0
  -49.8075  -10.4974  -18.4910 H   0  0  0  0  0  0  0  0  0  0  0  0
  -51.5108  -10.5747  -20.3080 H   0  0  0  0  0  0  0  0  0  0  0  0
  1  2  2  0
  2  3  1  0
  3  4  2  0
  4  5  1  0
  5  6  2  0
  6  7  1  0
  7  8  1  0
  7  9  2  0
  9 10  1  0
 10 11  2  0
 11 12  1  0
 12 13  1  0
 13 14  2  0
 14 15  1  0
 15 16  2  0
  2 17  1  0
 17 18  1  0
 18 19  1  0
 19 20  1  0
 20 21  2  0
 21 22  1  0
 22 23  2  0
 23 24  1  0
 24 25  2  0
 18 26  1  0
 26 27  2  0
 26 28  1  0
 28 29  1  0
 29 30  2  0
 30 31  1  0
 31 32  2  0
 32 33  1  0
 33 34  1  0
 34 35  2  0
 35 36  1  0
 36 37  1  0
 32 38  1  0
 38 39  2  0
 11  5  1  0
 16 12  1  0
 25 20  1  0
 39 29  1  0
 37 33  2  0
  3 40  1  0
  4 41  1  0
  6 42  1  0
  9 43  1  0
 10 44  1  0
 13 45  1  0
 17 46  1  0
 18 47  1  6
 19 48  1  0
 19 49  1  0
 21 50  1  0
 22 51  1  0
 23 52  1  0
 24 53  1  0
 25 54  1  0
 28 55  1  0
 30 56  1  0
 31 57  1  0
 36 58  1  0
 38 59  1  0
 39 60  1  0
M  END
>  <meeko>  (9) 
{"is_sidechain": [false], "free_energy": -8.943, "intermolecular_energy": -13.374, "internal_energy": -1.711}

$$$$
