3b27_ligand
     RDKit          3D

 25 26  0  0  0  0  0  0  0  0999 V2000
   12.9900    4.6970   12.7230 C   0  0  0  0  0  0  0  0  0  0  0  0
   11.5940    5.4560   11.8580 S   0  0  0  0  0  0  0  0  0  0  0  0
   10.2470    4.5130   12.5370 C   0  0  0  0  0  0  0  0  0  0  0  0
    9.0320    5.0530   12.5620 N   0  0  0  0  0  0  0  0  0  0  0  0
    8.0940    4.2910   13.0970 C   0  0  0  0  0  0  0  0  0  0  0  0
    6.8120    4.7990   13.1500 N   0  0  0  0  0  0  0  0  0  0  0  0
    8.2800    3.0680   13.5590 N   0  0  0  0  0  0  0  0  0  0  0  0
    9.5240    2.6060   13.4600 C   0  0  0  0  0  0  0  0  0  0  0  0
    9.8080    1.2640   13.9850 C   0  0  0  0  0  0  0  0  0  0  0  0
   10.5540    1.1360   15.1770 C   0  0  0  0  0  0  0  0  0  0  0  0
   10.8420   -0.1140   15.7340 C   0  0  0  0  0  0  0  0  0  0  0  0
   10.3930   -1.2710   15.1080 C   0  0  0  0  0  0  0  0  0  0  0  0
    9.6660   -1.1760   13.9220 C   0  0  0  0  0  0  0  0  0  0  0  0
    9.3780    0.0780   13.3620 C   0  0  0  0  0  0  0  0  0  0  0  0
    8.5270    0.0680   11.8510 Cl  0  0  0  0  0  0  0  0  0  0  0  0
   10.5530    3.2960   12.9750 N   0  0  0  0  0  0  0  0  0  0  0  0
   12.8373    4.7800   13.8092 H   0  0  0  0  0  0  0  0  0  0  0  0
   13.0617    3.6357   12.4429 H   0  0  0  0  0  0  0  0  0  0  0  0
   13.9198    5.2138   12.4429 H   0  0  0  0  0  0  0  0  0  0  0  0
    6.6100    5.1360   14.0830 H   0  0  0  0  0  0  0  0  0  0  0  0
    6.1530    4.1540   12.7400 H   0  0  0  0  0  0  0  0  0  0  0  0
   10.9182    2.0435   15.6808 H   0  0  0  0  0  0  0  0  0  0  0  0
   11.4228   -0.1815   16.6658 H   0  0  0  0  0  0  0  0  0  0  0  0
   10.6101   -2.2564   15.5460 H   0  0  0  0  0  0  0  0  0  0  0  0
    9.3156   -2.0908   13.4216 H   0  0  0  0  0  0  0  0  0  0  0  0
  1  2  1  0
  2  3  1  0
  3  4  2  0
  4  5  1  0
  5  6  1  0
  5  7  2  0
  7  8  1  0
  8  9  1  0
  9 10  2  0
 10 11  1  0
 11 12  2  0
 12 13  1  0
 13 14  2  0
 14 15  1  0
  8 16  2  0
 16  3  1  0
 14  9  1  0
  1 17  1  0
  1 18  1  0
  1 19  1  0
  6 20  1  0
  6 21  1  0
 10 22  1  0
 11 23  1  0
 12 24  1  0
 13 25  1  0
M  END
>  <meeko>  (1) 
{"is_sidechain": [false], "free_energy": -7.171, "intermolecular_energy": -8.219, "internal_energy": -0.267}

$$$$
3b27_ligand
     RDKit          3D

 25 26  0  0  0  0  0  0  0  0999 V2000
   13.0500    4.7930   12.7350 C   0  0  0  0  0  0  0  0  0  0  0  0
   11.6690    5.4570   11.7730 S   0  0  0  0  0  0  0  0  0  0  0  0
   10.3170    4.5430   12.4830 C   0  0  0  0  0  0  0  0  0  0  0  0
    9.1020    5.0830   12.4740 N   0  0  0  0  0  0  0  0  0  0  0  0
    8.1610    4.3450   13.0350 C   0  0  0  0  0  0  0  0  0  0  0  0
    6.8780    4.8540   13.0560 N   0  0  0  0  0  0  0  0  0  0  0  0
    8.3440    3.1430   13.5520 N   0  0  0  0  0  0  0  0  0  0  0  0
    9.5890    2.6790   13.4840 C   0  0  0  0  0  0  0  0  0  0  0  0
    9.8690    1.3620   14.0710 C   0  0  0  0  0  0  0  0  0  0  0  0
    9.4180    0.2020   13.4040 C   0  0  0  0  0  0  0  0  0  0  0  0
    9.6680   -1.0780   13.9060 C   0  0  0  0  0  0  0  0  0  0  0  0
   10.3740   -1.2310   15.0940 C   0  0  0  0  0  0  0  0  0  0  0  0
   10.8200   -0.1030   15.7810 C   0  0  0  0  0  0  0  0  0  0  0  0
   10.5680    1.1830   15.2790 C   0  0  0  0  0  0  0  0  0  0  0  0
   11.1110    2.5090   16.2550 Cl  0  0  0  0  0  0  0  0  0  0  0  0
   10.6210    3.3480   12.9770 N   0  0  0  0  0  0  0  0  0  0  0  0
   12.8329    4.8974   13.8083 H   0  0  0  0  0  0  0  0  0  0  0  0
   13.1892    3.7295   12.4908 H   0  0  0  0  0  0  0  0  0  0  0  0
   13.9675    5.3484   12.4908 H   0  0  0  0  0  0  0  0  0  0  0  0
    6.2250    4.1660   12.7010 H   0  0  0  0  0  0  0  0  0  0  0  0
    6.8500    5.7740   12.6420 H   0  0  0  0  0  0  0  0  0  0  0  0
    8.8553    0.3087   12.4649 H   0  0  0  0  0  0  0  0  0  0  0  0
    9.3068   -1.9632   13.3620 H   0  0  0  0  0  0  0  0  0  0  0  0
   10.5795   -2.2366   15.4896 H   0  0  0  0  0  0  0  0  0  0  0  0
   11.3738   -0.2219   16.7240 H   0  0  0  0  0  0  0  0  0  0  0  0
  1  2  1  0
  2  3  1  0
  3  4  2  0
  4  5  1  0
  5  6  1  0
  5  7  2  0
  7  8  1  0
  8  9  1  0
  9 10  2  0
 10 11  1  0
 11 12  2  0
 12 13  1  0
 13 14  2  0
 14 15  1  0
  8 16  2  0
 16  3  1  0
 14  9  1  0
  1 17  1  0
  1 18  1  0
  1 19  1  0
  6 20  1  0
  6 21  1  0
 10 22  1  0
 11 23  1  0
 12 24  1  0
 13 25  1  0
M  END
>  <meeko>  (2) 
{"is_sidechain": [false], "free_energy": -6.917, "intermolecular_energy": -7.939, "internal_energy": -0.256}

$$$$
3b27_ligand
     RDKit          3D

 25 26  0  0  0  0  0  0  0  0999 V2000
    9.3920   -0.5030   13.7190 C   0  0  0  0  0  0  0  0  0  0  0  0
    8.6390    0.2580   12.2600 S   0  0  0  0  0  0  0  0  0  0  0  0
    8.5730    1.9570   12.7850 C   0  0  0  0  0  0  0  0  0  0  0  0
    7.4310    2.6250   12.6560 N   0  0  0  0  0  0  0  0  0  0  0  0
    7.4750    3.8840   13.0550 C   0  0  0  0  0  0  0  0  0  0  0  0
    6.3180    4.6290   12.9450 N   0  0  0  0  0  0  0  0  0  0  0  0
    8.5300    4.4800   13.5790 N   0  0  0  0  0  0  0  0  0  0  0  0
    9.6150    3.7170   13.6950 C   0  0  0  0  0  0  0  0  0  0  0  0
   10.8340    4.3260   14.2390 C   0  0  0  0  0  0  0  0  0  0  0  0
   11.0210    4.3600   15.6390 C   0  0  0  0  0  0  0  0  0  0  0  0
   12.1690    4.9120   16.2140 C   0  0  0  0  0  0  0  0  0  0  0  0
   13.1600    5.4510   15.4020 C   0  0  0  0  0  0  0  0  0  0  0  0
   12.9970    5.4450   14.0180 C   0  0  0  0  0  0  0  0  0  0  0  0
   11.8450    4.8920   13.4390 C   0  0  0  0  0  0  0  0  0  0  0  0
   11.7220    5.0040   11.7130 Cl  0  0  0  0  0  0  0  0  0  0  0  0
    9.6970    2.4510   13.2930 N   0  0  0  0  0  0  0  0  0  0  0  0
    8.9565   -0.0628   14.6282 H   0  0  0  0  0  0  0  0  0  0  0  0
    9.2002   -1.5861   13.7079 H   0  0  0  0  0  0  0  0  0  0  0  0
   10.4771   -0.3227   13.7079 H   0  0  0  0  0  0  0  0  0  0  0  0
    5.8330    4.6520   13.8330 H   0  0  0  0  0  0  0  0  0  0  0  0
    5.7850    4.3480   12.1350 H   0  0  0  0  0  0  0  0  0  0  0  0
   10.2426    3.9410   16.2936 H   0  0  0  0  0  0  0  0  0  0  0  0
   12.2881    4.9199   17.3075 H   0  0  0  0  0  0  0  0  0  0  0  0
   14.0685    5.8802   15.8496 H   0  0  0  0  0  0  0  0  0  0  0  0
   13.7776    5.8772   13.3746 H   0  0  0  0  0  0  0  0  0  0  0  0
  1  2  1  0
  2  3  1  0
  3  4  2  0
  4  5  1  0
  5  6  1  0
  5  7  2  0
  7  8  1  0
  8  9  1  0
  9 10  2  0
 10 11  1  0
 11 12  2  0
 12 13  1  0
 13 14  2  0
 14 15  1  0
  8 16  2  0
 16  3  1  0
 14  9  1  0
  1 17  1  0
  1 18  1  0
  1 19  1  0
  6 20  1  0
  6 21  1  0
 10 22  1  0
 11 23  1  0
 12 24  1  0
 13 25  1  0
M  END
>  <meeko>  (3) 
{"is_sidechain": [false], "free_energy": -6.769, "intermolecular_energy": -7.738, "internal_energy": -0.287}

$$$$
3b27_ligand
     RDKit          3D

 25 26  0  0  0  0  0  0  0  0999 V2000
    5.6390    2.9200   13.9030 C   0  0  0  0  0  0  0  0  0  0  0  0
    6.3530    4.3760   13.1010 S   0  0  0  0  0  0  0  0  0  0  0  0
    8.0570    3.8750   12.9880 C   0  0  0  0  0  0  0  0  0  0  0  0
    8.9210    4.6730   12.3680 N   0  0  0  0  0  0  0  0  0  0  0  0
   10.1600    4.2180   12.3160 C   0  0  0  0  0  0  0  0  0  0  0  0
   11.1030    5.0030   11.6840 N   0  0  0  0  0  0  0  0  0  0  0  0
   10.5770    3.0830   12.8480 N   0  0  0  0  0  0  0  0  0  0  0  0
    9.6420    2.3720   13.4730 C   0  0  0  0  0  0  0  0  0  0  0  0
   10.0290    1.0820   14.0580 C   0  0  0  0  0  0  0  0  0  0  0  0
   10.8750    1.0660   15.1890 C   0  0  0  0  0  0  0  0  0  0  0  0
   11.2650   -0.1300   15.7990 C   0  0  0  0  0  0  0  0  0  0  0  0
   10.8220   -1.3440   15.2880 C   0  0  0  0  0  0  0  0  0  0  0  0
    9.9970   -1.3600   14.1640 C   0  0  0  0  0  0  0  0  0  0  0  0
    9.6060   -0.1610   13.5510 C   0  0  0  0  0  0  0  0  0  0  0  0
    8.6370   -0.3090   12.1200 Cl  0  0  0  0  0  0  0  0  0  0  0  0
    8.3580    2.7120   13.5550 N   0  0  0  0  0  0  0  0  0  0  0  0
    5.6967    3.0377   14.9952 H   0  0  0  0  0  0  0  0  0  0  0  0
    4.5867    2.8140   13.6007 H   0  0  0  0  0  0  0  0  0  0  0  0
    6.1995    2.0231   13.6007 H   0  0  0  0  0  0  0  0  0  0  0  0
   11.6880    5.4650   12.3690 H   0  0  0  0  0  0  0  0  0  0  0  0
   10.6730    5.5830   10.9790 H   0  0  0  0  0  0  0  0  0  0  0  0
   11.2366    2.0198   15.6007 H   0  0  0  0  0  0  0  0  0  0  0  0
   11.9212   -0.1101   16.6816 H   0  0  0  0  0  0  0  0  0  0  0  0
   11.1207   -2.2877   15.7679 H   0  0  0  0  0  0  0  0  0  0  0  0
    9.6503   -2.3205   13.7551 H   0  0  0  0  0  0  0  0  0  0  0  0
  1  2  1  0
  2  3  1  0
  3  4  2  0
  4  5  1  0
  5  6  1  0
  5  7  2  0
  7  8  1  0
  8  9  1  0
  9 10  2  0
 10 11  1  0
 11 12  2  0
 12 13  1  0
 13 14  2  0
 14 15  1  0
  8 16  2  0
 16  3  1  0
 14  9  1  0
  1 17  1  0
  1 18  1  0
  1 19  1  0
  6 20  1  0
  6 21  1  0
 10 22  1  0
 11 23  1  0
 12 24  1  0
 13 25  1  0
M  END
>  <meeko>  (4) 
{"is_sidechain": [false], "free_energy": -6.293, "intermolecular_energy": -7.248, "internal_energy": -0.232}

$$$$
3b27_ligand
     RDKit          3D

 25 26  0  0  0  0  0  0  0  0999 V2000
    5.6130    2.6390   14.0690 C   0  0  0  0  0  0  0  0  0  0  0  0
    6.2900    4.0470   13.1540 S   0  0  0  0  0  0  0  0  0  0  0  0
    8.0060    3.5830   13.0780 C   0  0  0  0  0  0  0  0  0  0  0  0
    8.8580    4.3760   12.4360 N   0  0  0  0  0  0  0  0  0  0  0  0
   10.1080    3.9490   12.4140 C   0  0  0  0  0  0  0  0  0  0  0  0
   11.0390    4.7310   11.7610 N   0  0  0  0  0  0  0  0  0  0  0  0
   10.5450    2.8460   12.9950 N   0  0  0  0  0  0  0  0  0  0  0  0
    9.6210    2.1380   13.6390 C   0  0  0  0  0  0  0  0  0  0  0  0
   10.0320    0.8820   14.2780 C   0  0  0  0  0  0  0  0  0  0  0  0
    9.6800   -0.3450   13.6750 C   0  0  0  0  0  0  0  0  0  0  0  0
   10.0570   -1.5720   14.2280 C   0  0  0  0  0  0  0  0  0  0  0  0
   10.7950   -1.6030   15.4060 C   0  0  0  0  0  0  0  0  0  0  0  0
   11.1450   -0.4070   16.0320 C   0  0  0  0  0  0  0  0  0  0  0  0
   10.7660    0.8240   15.4780 C   0  0  0  0  0  0  0  0  0  0  0  0
   11.1990    2.2400   16.3810 Cl  0  0  0  0  0  0  0  0  0  0  0  0
    8.3280    2.4510   13.6950 N   0  0  0  0  0  0  0  0  0  0  0  0
    5.7030    2.8262   15.1492 H   0  0  0  0  0  0  0  0  0  0  0  0
    4.5529    2.5069   13.8069 H   0  0  0  0  0  0  0  0  0  0  0  0
    6.1718    1.7285   13.8069 H   0  0  0  0  0  0  0  0  0  0  0  0
   11.6290    4.1540   11.1760 H   0  0  0  0  0  0  0  0  0  0  0  0
   11.4990    5.3560   12.4060 H   0  0  0  0  0  0  0  0  0  0  0  0
    9.0931   -0.3351   12.7447 H   0  0  0  0  0  0  0  0  0  0  0  0
    9.7704   -2.5112   13.7323 H   0  0  0  0  0  0  0  0  0  0  0  0
   11.1011   -2.5655   15.8417 H   0  0  0  0  0  0  0  0  0  0  0  0
   11.7229   -0.4296   16.9677 H   0  0  0  0  0  0  0  0  0  0  0  0
  1  2  1  0
  2  3  1  0
  3  4  2  0
  4  5  1  0
  5  6  1  0
  5  7  2  0
  7  8  1  0
  8  9  1  0
  9 10  2  0
 10 11  1  0
 11 12  2  0
 12 13  1  0
 13 14  2  0
 14 15  1  0
  8 16  2  0
 16  3  1  0
 14  9  1  0
  1 17  1  0
  1 18  1  0
  1 19  1  0
  6 20  1  0
  6 21  1  0
 10 22  1  0
 11 23  1  0
 12 24  1  0
 13 25  1  0
M  END
>  <meeko>  (5) 
{"is_sidechain": [false], "free_energy": -6.263, "intermolecular_energy": -7.166, "internal_energy": -0.28}

$$$$
3b27_ligand
     RDKit          3D

 25 26  0  0  0  0  0  0  0  0999 V2000
   13.4580    5.7110   16.7660 C   0  0  0  0  0  0  0  0  0  0  0  0
   12.1040    4.5130   16.8330 S   0  0  0  0  0  0  0  0  0  0  0  0
   11.7700    4.3090   15.0980 C   0  0  0  0  0  0  0  0  0  0  0  0
   12.5000    4.9890   14.2190 N   0  0  0  0  0  0  0  0  0  0  0  0
   12.1760    4.7910   12.9530 C   0  0  0  0  0  0  0  0  0  0  0  0
   12.9000    5.4700   11.9950 N   0  0  0  0  0  0  0  0  0  0  0  0
   11.2310    3.9710   12.5300 N   0  0  0  0  0  0  0  0  0  0  0  0
   10.5780    3.3140   13.4860 C   0  0  0  0  0  0  0  0  0  0  0  0
    9.4920    2.4100   13.0860 C   0  0  0  0  0  0  0  0  0  0  0  0
    9.7900    1.0600   12.8030 C   0  0  0  0  0  0  0  0  0  0  0  0
    8.7960    0.1490   12.4330 C   0  0  0  0  0  0  0  0  0  0  0  0
    7.4750    0.5700   12.3320 C   0  0  0  0  0  0  0  0  0  0  0  0
    7.1530    1.9010   12.5930 C   0  0  0  0  0  0  0  0  0  0  0  0
    8.1500    2.8150   12.9620 C   0  0  0  0  0  0  0  0  0  0  0  0
    7.6400    4.4570   13.1930 Cl  0  0  0  0  0  0  0  0  0  0  0  0
   10.7940    3.4620   14.7900 N   0  0  0  0  0  0  0  0  0  0  0  0
   13.7612    5.9793   17.7888 H   0  0  0  0  0  0  0  0  0  0  0  0
   14.3132    5.2684   16.2342 H   0  0  0  0  0  0  0  0  0  0  0  0
   13.1229    6.6137   16.2342 H   0  0  0  0  0  0  0  0  0  0  0  0
   12.5290    6.4040   11.8760 H   0  0  0  0  0  0  0  0  0  0  0  0
   13.0100    4.9090   11.1630 H   0  0  0  0  0  0  0  0  0  0  0  0
   10.8321    0.7152   12.8754 H   0  0  0  0  0  0  0  0  0  0  0  0
    9.0586   -0.8982   12.2224 H   0  0  0  0  0  0  0  0  0  0  0  0
    6.6877   -0.1436   12.0475 H   0  0  0  0  0  0  0  0  0  0  0  0
    6.1088    2.2366   12.5088 H   0  0  0  0  0  0  0  0  0  0  0  0
  1  2  1  0
  2  3  1  0
  3  4  2  0
  4  5  1  0
  5  6  1  0
  5  7  2  0
  7  8  1  0
  8  9  1  0
  9 10  2  0
 10 11  1  0
 11 12  2  0
 12 13  1  0
 13 14  2  0
 14 15  1  0
  8 16  2  0
 16  3  1  0
 14  9  1  0
  1 17  1  0
  1 18  1  0
  1 19  1  0
  6 20  1  0
  6 21  1  0
 10 22  1  0
 11 23  1  0
 12 24  1  0
 13 25  1  0
M  END
>  <meeko>  (6) 
{"is_sidechain": [false], "free_energy": -6.197, "intermolecular_energy": -7.088, "internal_energy": -0.281}

$$$$
3b27_ligand
     RDKit          3D

 25 26  0  0  0  0  0  0  0  0999 V2000
   15.1230    3.6040   13.1950 C   0  0  0  0  0  0  0  0  0  0  0  0
   13.8550    4.8210   12.7640 S   0  0  0  0  0  0  0  0  0  0  0  0
   12.4970    4.2320   13.7510 C   0  0  0  0  0  0  0  0  0  0  0  0
   12.4480    4.5630   15.0380 N   0  0  0  0  0  0  0  0  0  0  0  0
   11.4150    4.0710   15.7000 C   0  0  0  0  0  0  0  0  0  0  0  0
   11.3100    4.3810   17.0410 N   0  0  0  0  0  0  0  0  0  0  0  0
   10.4580    3.3280   15.1740 N   0  0  0  0  0  0  0  0  0  0  0  0
   10.5830    3.0790   13.8720 C   0  0  0  0  0  0  0  0  0  0  0  0
    9.5710    2.2310   13.2310 C   0  0  0  0  0  0  0  0  0  0  0  0
    9.8790    0.8810   12.9550 C   0  0  0  0  0  0  0  0  0  0  0  0
    8.9510    0.0210   12.3600 C   0  0  0  0  0  0  0  0  0  0  0  0
    7.6880    0.4930   12.0200 C   0  0  0  0  0  0  0  0  0  0  0  0
    7.3600    1.8250   12.2680 C   0  0  0  0  0  0  0  0  0  0  0  0
    8.2910    2.6890   12.8630 C   0  0  0  0  0  0  0  0  0  0  0  0
    7.7950    4.3390   13.0580 Cl  0  0  0  0  0  0  0  0  0  0  0  0
   11.5970    3.4900   13.1150 N   0  0  0  0  0  0  0  0  0  0  0  0
   15.2017    3.5285   14.2896 H   0  0  0  0  0  0  0  0  0  0  0  0
   14.8471    2.6239   12.7787 H   0  0  0  0  0  0  0  0  0  0  0  0
   16.0910    3.9199   12.7787 H   0  0  0  0  0  0  0  0  0  0  0  0
   12.0300    3.9020   17.5660 H   0  0  0  0  0  0  0  0  0  0  0  0
   10.3580    4.2750   17.3600 H   0  0  0  0  0  0  0  0  0  0  0  0
   10.8759    0.4955   13.2151 H   0  0  0  0  0  0  0  0  0  0  0  0
    9.2195   -1.0270   12.1612 H   0  0  0  0  0  0  0  0  0  0  0  0
    6.9517   -0.1810   11.5579 H   0  0  0  0  0  0  0  0  0  0  0  0
    6.3631    2.2014   11.9949 H   0  0  0  0  0  0  0  0  0  0  0  0
  1  2  1  0
  2  3  1  0
  3  4  2  0
  4  5  1  0
  5  6  1  0
  5  7  2  0
  7  8  1  0
  8  9  1  0
  9 10  2  0
 10 11  1  0
 11 12  2  0
 12 13  1  0
 13 14  2  0
 14 15  1  0
  8 16  2  0
 16  3  1  0
 14  9  1  0
  1 17  1  0
  1 18  1  0
  1 19  1  0
  6 20  1  0
  6 21  1  0
 10 22  1  0
 11 23  1  0
 12 24  1  0
 13 25  1  0
M  END
>  <meeko>  (7) 
{"is_sidechain": [false], "free_energy": -6.152, "intermolecular_energy": -7.058, "internal_energy": -0.261}

$$$$
3b27_ligand
     RDKit          3D

 25 26  0  0  0  0  0  0  0  0999 V2000
   14.1910    3.1670   14.8680 C   0  0  0  0  0  0  0  0  0  0  0  0
   13.0280    1.8700   14.3810 S   0  0  0  0  0  0  0  0  0  0  0  0
   11.8150    2.8380   13.5110 C   0  0  0  0  0  0  0  0  0  0  0  0
   12.2290    3.7920   12.6830 N   0  0  0  0  0  0  0  0  0  0  0  0
   11.2630    4.4720   12.0900 C   0  0  0  0  0  0  0  0  0  0  0  0
   11.6320    5.4760   11.2180 N   0  0  0  0  0  0  0  0  0  0  0  0
    9.9710    4.2470   12.2430 N   0  0  0  0  0  0  0  0  0  0  0  0
    9.6610    3.2510   13.0680 C   0  0  0  0  0  0  0  0  0  0  0  0
    8.2400    2.9700   13.3100 C   0  0  0  0  0  0  0  0  0  0  0  0
    7.3260    4.0450   13.3700 C   0  0  0  0  0  0  0  0  0  0  0  0
    5.9600    3.8370   13.5820 C   0  0  0  0  0  0  0  0  0  0  0  0
    5.4720    2.5460   13.7440 C   0  0  0  0  0  0  0  0  0  0  0  0
    6.3530    1.4660   13.7030 C   0  0  0  0  0  0  0  0  0  0  0  0
    7.7240    1.6720   13.4920 C   0  0  0  0  0  0  0  0  0  0  0  0
    8.7290    0.2600   13.5310 Cl  0  0  0  0  0  0  0  0  0  0  0  0
   10.5460    2.5250   13.7470 N   0  0  0  0  0  0  0  0  0  0  0  0
   14.2403    3.2220   15.9655 H   0  0  0  0  0  0  0  0  0  0  0  0
   15.1886    2.9343   14.4673 H   0  0  0  0  0  0  0  0  0  0  0  0
   13.8513    4.1335   14.4673 H   0  0  0  0  0  0  0  0  0  0  0  0
   11.2630    5.2880   10.2950 H   0  0  0  0  0  0  0  0  0  0  0  0
   12.6200    5.6690   11.2900 H   0  0  0  0  0  0  0  0  0  0  0  0
    7.6987    5.0726   13.2467 H   0  0  0  0  0  0  0  0  0  0  0  0
    5.2720    4.6945   13.6205 H   0  0  0  0  0  0  0  0  0  0  0  0
    4.3968    2.3770   13.9037 H   0  0  0  0  0  0  0  0  0  0  0  0
    5.9694    0.4438   13.8373 H   0  0  0  0  0  0  0  0  0  0  0  0
  1  2  1  0
  2  3  1  0
  3  4  2  0
  4  5  1  0
  5  6  1  0
  5  7  2  0
  7  8  1  0
  8  9  1  0
  9 10  2  0
 10 11  1  0
 11 12  2  0
 12 13  1  0
 13 14  2  0
 14 15  1  0
  8 16  2  0
 16  3  1  0
 14  9  1  0
  1 17  1  0
  1 18  1  0
  1 19  1  0
  6 20  1  0
  6 21  1  0
 10 22  1  0
 11 23  1  0
 12 24  1  0
 13 25  1  0
M  END
>  <meeko>  (8) 
{"is_sidechain": [false], "free_energy": -6.099, "intermolecular_energy": -7.395, "internal_energy": 0.138}

$$$$
3b27_ligand
     RDKit          3D

 25 26  0  0  0  0  0  0  0  0999 V2000
   11.6160    3.6140   17.7440 C   0  0  0  0  0  0  0  0  0  0  0  0
   13.1860    4.0680   16.9700 S   0  0  0  0  0  0  0  0  0  0  0  0
   12.6780    4.1970   15.2690 C   0  0  0  0  0  0  0  0  0  0  0  0
   13.5630    4.6040   14.3640 N   0  0  0  0  0  0  0  0  0  0  0  0
   13.0980    4.6860   13.1290 C   0  0  0  0  0  0  0  0  0  0  0  0
   13.9710    5.1030   12.1450 N   0  0  0  0  0  0  0  0  0  0  0  0
   11.8710    4.3720   12.7560 N   0  0  0  0  0  0  0  0  0  0  0  0
   11.0720    3.9450   13.7320 C   0  0  0  0  0  0  0  0  0  0  0  0
    9.6830    3.6110   13.3920 C   0  0  0  0  0  0  0  0  0  0  0  0
    8.7080    4.6320   13.4000 C   0  0  0  0  0  0  0  0  0  0  0  0
    7.3740    4.3780   13.0700 C   0  0  0  0  0  0  0  0  0  0  0  0
    6.9790    3.0900   12.7270 C   0  0  0  0  0  0  0  0  0  0  0  0
    7.9170    2.0590   12.7230 C   0  0  0  0  0  0  0  0  0  0  0  0
    9.2560    2.3130   13.0550 C   0  0  0  0  0  0  0  0  0  0  0  0
   10.3150    0.9400   13.0830 Cl  0  0  0  0  0  0  0  0  0  0  0  0
   11.4190    3.8590   15.0130 N   0  0  0  0  0  0  0  0  0  0  0  0
   11.7241    3.6453   18.8382 H   0  0  0  0  0  0  0  0  0  0  0  0
   10.8350    4.3231   17.4323 H   0  0  0  0  0  0  0  0  0  0  0  0
   11.3339    2.5975   17.4323 H   0  0  0  0  0  0  0  0  0  0  0  0
   13.6390    5.9630   11.7270 H   0  0  0  0  0  0  0  0  0  0  0  0
   14.1960    4.3440   11.5200 H   0  0  0  0  0  0  0  0  0  0  0  0
    9.0064    5.6549   13.6733 H   0  0  0  0  0  0  0  0  0  0  0  0
    6.6381    5.1955   13.0816 H   0  0  0  0  0  0  0  0  0  0  0  0
    5.9316    2.8856   12.4601 H   0  0  0  0  0  0  0  0  0  0  0  0
    7.6048    1.0382   12.4574 H   0  0  0  0  0  0  0  0  0  0  0  0
  1  2  1  0
  2  3  1  0
  3  4  2  0
  4  5  1  0
  5  6  1  0
  5  7  2  0
  7  8  1  0
  8  9  1  0
  9 10  2  0
 10 11  1  0
 11 12  2  0
 12 13  1  0
 13 14  2  0
 14 15  1  0
  8 16  2  0
 16  3  1  0
 14  9  1  0
  1 17  1  0
  1 18  1  0
  1 19  1  0
  6 20  1  0
  6 21  1  0
 10 22  1  0
 11 23  1  0
 12 24  1  0
 13 25  1  0
M  END
>  <meeko>  (9) 
{"is_sidechain": [false], "free_energy": -5.986, "intermolecular_energy": -6.836, "internal_energy": -0.292}

$$$$
