1gpn_ligand
     RDKit          3D

 40 43  0  0  0  0  0  0  0  0999 V2000
    6.1320   69.3700   65.7880 C   0  0  0  0  0  0  0  0  0  0  0  0
    5.1000   68.9100   64.7980 C   0  0  0  0  0  0  0  0  0  0  0  0
    5.2910   69.0090   63.4660 C   0  0  0  0  0  0  0  0  0  0  0  0
    4.2650   68.5870   62.4240 C   0  0  1  0  0  0  0  0  0  0  0  0
    4.6230   67.2080   61.8430 C   0  0  0  0  0  0  0  0  0  0  0  0
    4.2950   66.0800   62.7950 C   0  0  0  0  0  0  0  0  0  0  0  0
    4.7920   64.8390   62.4660 N   0  0  0  0  0  0  0  0  0  0  0  0
    4.6350   63.7050   63.2200 C   0  0  0  0  0  0  0  0  0  0  0  0
    5.0670   62.6120   62.8870 O   0  0  0  0  0  0  0  0  0  0  0  0
    3.9000   63.8890   64.4950 C   0  0  0  0  0  0  0  0  0  0  0  0
    3.4140   65.0950   64.8180 C   0  0  0  0  0  0  0  0  0  0  0  0
    3.5770   66.2440   63.9280 C   0  0  0  0  0  0  0  0  0  0  0  0
    2.9530   67.6030   64.3050 C   0  0  2  0  0  0  0  0  0  0  0  0
    3.8330   68.3070   65.3830 C   0  0  0  0  0  0  0  0  0  0  0  0
    1.5390   67.3980   64.8430 N   0  0  0  0  0  0  0  0  0  0  0  0
    0.5110   68.3860   64.4080 C   0  0  0  0  0  0  0  0  0  0  0  0
    0.3710   68.3350   62.8920 C   0  0  0  0  0  0  0  0  0  0  0  0
    1.7110   68.2230   62.1520 C   0  0  0  0  0  0  0  0  0  0  0  0
    2.8750   68.5670   63.0850 C   0  0  2  0  0  0  0  0  0  0  0  0
    5.7596   69.2040   66.8097 H   0  0  0  0  0  0  0  0  0  0  0  0
    7.0617   68.8011   65.6396 H   0  0  0  0  0  0  0  0  0  0  0  0
    6.3304   70.4417   65.6396 H   0  0  0  0  0  0  0  0  0  0  0  0
    6.2476   69.4202   63.1111 H   0  0  0  0  0  0  0  0  0  0  0  0
    4.2607   69.3034   61.5892 H   0  0  0  0  0  0  0  0  0  0  0  0
    4.0579   67.0596   60.9110 H   0  0  0  0  0  0  0  0  0  0  0  0
    5.7080   67.1908   61.6629 H   0  0  0  0  0  0  0  0  0  0  0  0
    5.3300   64.7060   61.6140 H   0  0  0  0  0  0  0  0  0  0  0  0
    3.7541   63.0364   65.1746 H   0  0  0  0  0  0  0  0  0  0  0  0
    2.8816   65.2236   65.7719 H   0  0  0  0  0  0  0  0  0  0  0  0
    3.2435   69.1097   65.8502 H   0  0  0  0  0  0  0  0  0  0  0  0
    4.1339   67.5457   66.1177 H   0  0  0  0  0  0  0  0  0  0  0  0
    1.2150   66.4720   64.5350 H   0  0  0  0  0  0  0  0  0  0  0  0
    1.5620   67.3550   65.8700 H   0  0  0  0  0  0  0  0  0  0  0  0
   -0.4546   68.1406   64.8743 H   0  0  0  0  0  0  0  0  0  0  0  0
    0.8188   69.3964   64.7151 H   0  0  0  0  0  0  0  0  0  0  0  0
   -0.2448   67.4622   62.6293 H   0  0  0  0  0  0  0  0  0  0  0  0
   -0.0904   69.2835   62.5797 H   0  0  0  0  0  0  0  0  0  0  0  0
    1.8353   67.1939   61.7839 H   0  0  0  0  0  0  0  0  0  0  0  0
    1.7107   68.9318   61.3108 H   0  0  0  0  0  0  0  0  0  0  0  0
    2.6368   69.5936   63.4003 H   0  0  0  0  0  0  0  0  0  0  0  0
  1  2  1  0
  2  3  2  0
  3  4  1  0
  4  5  1  0
  5  6  1  0
  6  7  1  0
  7  8  1  0
  8  9  2  0
  8 10  1  0
 10 11  2  0
 11 12  1  0
 12 13  1  0
 13 14  1  1
 13 15  1  0
 15 16  1  0
 16 17  1  0
 17 18  1  0
 18 19  1  0
 14  2  1  0
 19  4  1  0
 12  6  2  0
 19 13  1  0
  1 20  1  0
  1 21  1  0
  1 22  1  0
  3 23  1  0
  4 24  1  6
  5 25  1  0
  5 26  1  0
  7 27  1  0
 10 28  1  0
 11 29  1  0
 14 30  1  0
 14 31  1  0
 15 32  1  0
 15 33  1  0
 16 34  1  0
 16 35  1  0
 17 36  1  0
 17 37  1  0
 18 38  1  0
 18 39  1  0
 19 40  1  1
M  CHG  1  15   1
M  END
>  <meeko>  (1) 
{"is_sidechain": [false], "free_energy": -11.517, "intermolecular_energy": -11.517, "internal_energy": 0.0}

$$$$
1gpn_ligand
     RDKit          3D

 40 43  0  0  0  0  0  0  0  0999 V2000
    5.8290   70.0110   65.5160 C   0  0  0  0  0  0  0  0  0  0  0  0
    4.9050   68.8570   65.2480 C   0  0  0  0  0  0  0  0  0  0  0  0
    3.7600   68.6820   65.9400 C   0  0  0  0  0  0  0  0  0  0  0  0
    2.8080   67.5140   65.7270 C   0  0  1  0  0  0  0  0  0  0  0  0
    1.6070   67.9460   64.8670 C   0  0  0  0  0  0  0  0  0  0  0  0
    1.9630   68.0750   63.4040 C   0  0  0  0  0  0  0  0  0  0  0  0
    1.0260   68.6810   62.5980 N   0  0  0  0  0  0  0  0  0  0  0  0
    1.1820   68.9220   61.2580 C   0  0  0  0  0  0  0  0  0  0  0  0
    0.3190   69.4390   60.5640 O   0  0  0  0  0  0  0  0  0  0  0  0
    2.4890   68.5170   60.6890 C   0  0  0  0  0  0  0  0  0  0  0  0
    3.4040   67.9270   61.4700 C   0  0  0  0  0  0  0  0  0  0  0  0
    3.1360   67.6530   62.8810 C   0  0  0  0  0  0  0  0  0  0  0  0
    4.1890   66.9180   63.7360 C   0  0  2  0  0  0  0  0  0  0  0  0
    5.3250   67.9070   64.1380 C   0  0  0  0  0  0  0  0  0  0  0  0
    4.7750   65.7470   62.9510 N   0  0  0  0  0  0  0  0  0  0  0  0
    5.0070   64.4860   63.7110 C   0  0  0  0  0  0  0  0  0  0  0  0
    3.6800   63.9740   64.2580 C   0  0  0  0  0  0  0  0  0  0  0  0
    2.7820   65.0790   64.8310 C   0  0  0  0  0  0  0  0  0  0  0  0
    3.5830   66.3640   65.0590 C   0  0  2  0  0  0  0  0  0  0  0  0
    5.9389   70.1482   66.6019 H   0  0  0  0  0  0  0  0  0  0  0  0
    6.8134   69.8035   65.0712 H   0  0  0  0  0  0  0  0  0  0  0  0
    5.4112   70.9262   65.0712 H   0  0  0  0  0  0  0  0  0  0  0  0
    3.4989   69.4287   66.7043 H   0  0  0  0  0  0  0  0  0  0  0  0
    2.4123   67.1723   66.6948 H   0  0  0  0  0  0  0  0  0  0  0  0
    0.8094   67.1957   64.9717 H   0  0  0  0  0  0  0  0  0  0  0  0
    1.2793   68.9346   65.2209 H   0  0  0  0  0  0  0  0  0  0  0  0
    0.1400   68.9980   62.9830 H   0  0  0  0  0  0  0  0  0  0  0  0
    2.7077   68.7005   59.6267 H   0  0  0  0  0  0  0  0  0  0  0  0
    4.3763   67.6431   61.0410 H   0  0  0  0  0  0  0  0  0  0  0  0
    6.1935   67.3257   64.4812 H   0  0  0  0  0  0  0  0  0  0  0  0
    5.5680   68.5138   63.2533 H   0  0  0  0  0  0  0  0  0  0  0  0
    4.1240   65.5220   62.1870 H   0  0  0  0  0  0  0  0  0  0  0  0
    5.6470   66.0390   62.4930 H   0  0  0  0  0  0  0  0  0  0  0  0
    5.4448   63.7299   63.0427 H   0  0  0  0  0  0  0  0  0  0  0  0
    5.6977   64.6809   64.5446 H   0  0  0  0  0  0  0  0  0  0  0  0
    3.1377   63.4739   63.4421 H   0  0  0  0  0  0  0  0  0  0  0  0
    3.9160   63.2895   65.0861 H   0  0  0  0  0  0  0  0  0  0  0  0
    1.9651   65.2836   64.1233 H   0  0  0  0  0  0  0  0  0  0  0  0
    2.3758   64.7398   65.7954 H   0  0  0  0  0  0  0  0  0  0  0  0
    4.3696   66.0385   65.7557 H   0  0  0  0  0  0  0  0  0  0  0  0
  1  2  1  0
  2  3  2  0
  3  4  1  0
  4  5  1  0
  5  6  1  0
  6  7  1  0
  7  8  1  0
  8  9  2  0
  8 10  1  0
 10 11  2  0
 11 12  1  0
 12 13  1  0
 13 14  1  1
 13 15  1  0
 15 16  1  0
 16 17  1  0
 17 18  1  0
 18 19  1  0
 14  2  1  0
 19  4  1  0
 12  6  2  0
 19 13  1  0
  1 20  1  0
  1 21  1  0
  1 22  1  0
  3 23  1  0
  4 24  1  1
  5 25  1  0
  5 26  1  0
  7 27  1  0
 10 28  1  0
 11 29  1  0
 14 30  1  0
 14 31  1  0
 15 32  1  0
 15 33  1  0
 16 34  1  0
 16 35  1  0
 17 36  1  0
 17 37  1  0
 18 38  1  0
 18 39  1  0
 19 40  1  1
M  CHG  1  15   1
M  END
>  <meeko>  (2) 
{"is_sidechain": [false], "free_energy": -10.483, "intermolecular_energy": -10.483, "internal_energy": 0.0}

$$$$
1gpn_ligand
     RDKit          3D

 40 43  0  0  0  0  0  0  0  0999 V2000
    3.5680   63.8980   64.5070 C   0  0  0  0  0  0  0  0  0  0  0  0
    4.0380   65.2800   64.1530 C   0  0  0  0  0  0  0  0  0  0  0  0
    4.8640   65.5110   63.1110 C   0  0  0  0  0  0  0  0  0  0  0  0
    5.3920   66.8870   62.7320 C   0  0  1  0  0  0  0  0  0  0  0  0
    4.5940   67.4650   61.5500 C   0  0  0  0  0  0  0  0  0  0  0  0
    3.2330   67.9730   61.9690 C   0  0  0  0  0  0  0  0  0  0  0  0
    2.3590   68.2880   60.9530 N   0  0  0  0  0  0  0  0  0  0  0  0
    1.0730   68.7260   61.1320 C   0  0  0  0  0  0  0  0  0  0  0  0
    0.3300   69.0210   60.2080 O   0  0  0  0  0  0  0  0  0  0  0  0
    0.6230   68.8140   62.5420 C   0  0  0  0  0  0  0  0  0  0  0  0
    1.4710   68.5080   63.5330 C   0  0  0  0  0  0  0  0  0  0  0  0
    2.8490   68.1030   63.2590 C   0  0  0  0  0  0  0  0  0  0  0  0
    3.8140   67.8170   64.4270 C   0  0  2  0  0  0  0  0  0  0  0  0
    3.5150   66.4090   65.0260 C   0  0  0  0  0  0  0  0  0  0  0  0
    3.6590   68.8840   65.5070 N   0  0  0  0  0  0  0  0  0  0  0  0
    4.9130   69.3710   66.1480 C   0  0  0  0  0  0  0  0  0  0  0  0
    5.8090   70.0040   65.0890 C   0  0  0  0  0  0  0  0  0  0  0  0
    5.8560   69.2180   63.7730 C   0  0  0  0  0  0  0  0  0  0  0  0
    5.3010   67.8040   63.9650 C   0  0  2  0  0  0  0  0  0  0  0  0
    3.5320   63.7920   65.6013 H   0  0  0  0  0  0  0  0  0  0  0  0
    2.5636   63.7341   64.0895 H   0  0  0  0  0  0  0  0  0  0  0  0
    4.2642   63.1558   64.0895 H   0  0  0  0  0  0  0  0  0  0  0  0
    5.1746   64.6520   62.4981 H   0  0  0  0  0  0  0  0  0  0  0  0
    6.4416   66.8108   62.4119 H   0  0  0  0  0  0  0  0  0  0  0  0
    5.1633   68.2986   61.1129 H   0  0  0  0  0  0  0  0  0  0  0  0
    4.4408   66.6562   60.8203 H   0  0  0  0  0  0  0  0  0  0  0  0
    2.6420   68.1960   59.9810 H   0  0  0  0  0  0  0  0  0  0  0  0
   -0.4049   69.1298   62.7739 H   0  0  0  0  0  0  0  0  0  0  0  0
    1.1232   68.5626   64.5751 H   0  0  0  0  0  0  0  0  0  0  0  0
    3.9906   66.3387   66.0154 H   0  0  0  0  0  0  0  0  0  0  0  0
    2.4224   66.3002   65.0927 H   0  0  0  0  0  0  0  0  0  0  0  0
    3.2020   69.7020   65.0800 H   0  0  0  0  0  0  0  0  0  0  0  0
    3.0090   68.5520   66.2300 H   0  0  0  0  0  0  0  0  0  0  0  0
    4.6664   70.1195   66.9154 H   0  0  0  0  0  0  0  0  0  0  0  0
    5.4384   68.5262   66.6173 H   0  0  0  0  0  0  0  0  0  0  0  0
    5.4339   71.0159   64.8762 H   0  0  0  0  0  0  0  0  0  0  0  0
    6.8311   70.0128   65.4955 H   0  0  0  0  0  0  0  0  0  0  0  0
    5.2528   69.7428   63.0176 H   0  0  0  0  0  0  0  0  0  0  0  0
    6.9028   69.1445   63.4430 H   0  0  0  0  0  0  0  0  0  0  0  0
    5.9594   67.3890   64.7424 H   0  0  0  0  0  0  0  0  0  0  0  0
  1  2  1  0
  2  3  2  0
  3  4  1  0
  4  5  1  0
  5  6  1  0
  6  7  1  0
  7  8  1  0
  8  9  2  0
  8 10  1  0
 10 11  2  0
 11 12  1  0
 12 13  1  0
 13 14  1  1
 13 15  1  0
 15 16  1  0
 16 17  1  0
 17 18  1  0
 18 19  1  0
 14  2  1  0
 19  4  1  0
 12  6  2  0
 19 13  1  0
  1 20  1  0
  1 21  1  0
  1 22  1  0
  3 23  1  0
  4 24  1  6
  5 25  1  0
  5 26  1  0
  7 27  1  0
 10 28  1  0
 11 29  1  0
 14 30  1  0
 14 31  1  0
 15 32  1  0
 15 33  1  0
 16 34  1  0
 16 35  1  0
 17 36  1  0
 17 37  1  0
 18 38  1  0
 18 39  1  0
 19 40  1  1
M  CHG  1  15   1
M  END
>  <meeko>  (3) 
{"is_sidechain": [false], "free_energy": -10.469, "intermolecular_energy": -10.469, "internal_energy": 0.0}

$$$$
1gpn_ligand
     RDKit          3D

 40 43  0  0  0  0  0  0  0  0999 V2000
    0.9960   68.6000   61.0160 C   0  0  0  0  0  0  0  0  0  0  0  0
    1.7920   68.4900   62.2860 C   0  0  0  0  0  0  0  0  0  0  0  0
    1.2020   68.4300   63.4980 C   0  0  0  0  0  0  0  0  0  0  0  0
    1.9640   68.3500   64.8130 C   0  0  1  0  0  0  0  0  0  0  0  0
    1.9880   66.9030   65.3350 C   0  0  0  0  0  0  0  0  0  0  0  0
    2.9680   66.0340   64.5790 C   0  0  0  0  0  0  0  0  0  0  0  0
    2.8900   64.6800   64.8130 N   0  0  0  0  0  0  0  0  0  0  0  0
    3.6650   63.7320   64.1960 C   0  0  0  0  0  0  0  0  0  0  0  0
    3.5890   62.5380   64.4450 O   0  0  0  0  0  0  0  0  0  0  0  0
    4.6140   64.2500   63.1830 C   0  0  0  0  0  0  0  0  0  0  0  0
    4.6920   65.5680   62.9530 C   0  0  0  0  0  0  0  0  0  0  0  0
    3.8690   66.5200   63.6970 C   0  0  0  0  0  0  0  0  0  0  0  0
    4.0290   68.0340   63.4480 C   0  0  2  0  0  0  0  0  0  0  0  0
    3.3030   68.4310   62.1270 C   0  0  0  0  0  0  0  0  0  0  0  0
    5.5090   68.3960   63.3550 N   0  0  0  0  0  0  0  0  0  0  0  0
    5.9280   69.6630   64.0190 C   0  0  0  0  0  0  0  0  0  0  0  0
    5.6330   69.5740   65.5110 C   0  0  0  0  0  0  0  0  0  0  0  0
    4.2770   68.9320   65.8340 C   0  0  0  0  0  0  0  0  0  0  0  0
    3.3900   68.8820   64.5870 C   0  0  2  0  0  0  0  0  0  0  0  0
   -0.0663   68.7468   61.2607 H   0  0  0  0  0  0  0  0  0  0  0  0
    1.3588   69.4565   60.4289 H   0  0  0  0  0  0  0  0  0  0  0  0
    1.1129   67.6772   60.4289 H   0  0  0  0  0  0  0  0  0  0  0  0
    0.1028   68.4395   63.5381 H   0  0  0  0  0  0  0  0  0  0  0  0
    1.4629   68.9651   65.5749 H   0  0  0  0  0  0  0  0  0  0  0  0
    2.2732   66.9153   66.3973 H   0  0  0  0  0  0  0  0  0  0  0  0
    0.9834   66.4781   65.1924 H   0  0  0  0  0  0  0  0  0  0  0  0
    2.2180   64.3070   65.4770 H   0  0  0  0  0  0  0  0  0  0  0  0
    5.2536   63.5539   62.6205 H   0  0  0  0  0  0  0  0  0  0  0  0
    5.3896   65.9411   62.1887 H   0  0  0  0  0  0  0  0  0  0  0  0
    3.6630   69.4212   61.8108 H   0  0  0  0  0  0  0  0  0  0  0  0
    3.5295   67.6589   61.3770 H   0  0  0  0  0  0  0  0  0  0  0  0
    6.0480   67.6350   63.7920 H   0  0  0  0  0  0  0  0  0  0  0  0
    5.8010   68.4100   62.3700 H   0  0  0  0  0  0  0  0  0  0  0  0
    7.0063   69.8179   63.8667 H   0  0  0  0  0  0  0  0  0  0  0  0
    5.3722   70.5069   63.5843 H   0  0  0  0  0  0  0  0  0  0  0  0
    6.4233   68.9743   65.9862 H   0  0  0  0  0  0  0  0  0  0  0  0
    5.6006   70.6045   65.8945 H   0  0  0  0  0  0  0  0  0  0  0  0
    4.4408   67.9083   66.2017 H   0  0  0  0  0  0  0  0  0  0  0  0
    3.7733   69.5378   66.6017 H   0  0  0  0  0  0  0  0  0  0  0  0
    3.3122   69.9418   64.3029 H   0  0  0  0  0  0  0  0  0  0  0  0
  1  2  1  0
  2  3  2  0
  3  4  1  0
  4  5  1  0
  5  6  1  0
  6  7  1  0
  7  8  1  0
  8  9  2  0
  8 10  1  0
 10 11  2  0
 11 12  1  0
 12 13  1  0
 13 14  1  6
 13 15  1  0
 15 16  1  0
 16 17  1  0
 17 18  1  0
 18 19  1  0
 14  2  1  0
 19  4  1  0
 12  6  2  0
 19 13  1  0
  1 20  1  0
  1 21  1  0
  1 22  1  0
  3 23  1  0
  4 24  1  1
  5 25  1  0
  5 26  1  0
  7 27  1  0
 10 28  1  0
 11 29  1  0
 14 30  1  0
 14 31  1  0
 15 32  1  0
 15 33  1  0
 16 34  1  0
 16 35  1  0
 17 36  1  0
 17 37  1  0
 18 38  1  0
 18 39  1  0
 19 40  1  6
M  CHG  1  15   1
M  END
>  <meeko>  (4) 
{"is_sidechain": [false], "free_energy": -10.258, "intermolecular_energy": -10.258, "internal_energy": 0.0}

$$$$
1gpn_ligand
     RDKit          3D

 40 43  0  0  0  0  0  0  0  0999 V2000
    0.9460   69.2020   61.5720 C   0  0  0  0  0  0  0  0  0  0  0  0
    2.1080   68.3590   62.0190 C   0  0  0  0  0  0  0  0  0  0  0  0
    3.2440   68.2670   61.2980 C   0  0  0  0  0  0  0  0  0  0  0  0
    4.4350   67.4040   61.6930 C   0  0  1  0  0  0  0  0  0  0  0  0
    5.5340   68.2650   62.3390 C   0  0  0  0  0  0  0  0  0  0  0  0
    5.1980   68.6580   63.7590 C   0  0  0  0  0  0  0  0  0  0  0  0
    6.0020   69.6160   64.3350 N   0  0  0  0  0  0  0  0  0  0  0  0
    5.8330   70.1270   65.5950 C   0  0  0  0  0  0  0  0  0  0  0  0
    6.5800   70.9600   66.0870 O   0  0  0  0  0  0  0  0  0  0  0  0
    4.6620   69.6060   66.3400 C   0  0  0  0  0  0  0  0  0  0  0  0
    3.8770   68.6730   65.7820 C   0  0  0  0  0  0  0  0  0  0  0  0
    4.1610   68.1370   64.4520 C   0  0  0  0  0  0  0  0  0  0  0  0
    3.2710   67.0210   63.8670 C   0  0  2  0  0  0  0  0  0  0  0  0
    1.9360   67.6310   63.3420 C   0  0  0  0  0  0  0  0  0  0  0  0
    2.9770   65.9720   64.9360 N   0  0  0  0  0  0  0  0  0  0  0  0
    3.0060   64.5480   64.4980 C   0  0  0  0  0  0  0  0  0  0  0  0
    4.3980   64.2070   63.9780 C   0  0  0  0  0  0  0  0  0  0  0  0
    5.0160   65.3070   63.1060 C   0  0  0  0  0  0  0  0  0  0  0  0
    3.9480   66.3090   62.6590 C   0  0  2  0  0  0  0  0  0  0  0  0
    0.4131   69.5886   62.4532 H   0  0  0  0  0  0  0  0  0  0  0  0
    1.3148   70.0440   60.9679 H   0  0  0  0  0  0  0  0  0  0  0  0
    0.2600   68.5901   60.9679 H   0  0  0  0  0  0  0  0  0  0  0  0
    3.3146   68.8507   60.3683 H   0  0  0  0  0  0  0  0  0  0  0  0
    4.8705   66.9334   60.7992 H   0  0  0  0  0  0  0  0  0  0  0  0
    6.4737   67.6932   62.3437 H   0  0  0  0  0  0  0  0  0  0  0  0
    5.6270   69.1884   61.7486 H   0  0  0  0  0  0  0  0  0  0  0  0
    6.7860   70.0090   63.8220 H   0  0  0  0  0  0  0  0  0  0  0  0
    4.4376   69.9840   67.3483 H   0  0  0  0  0  0  0  0  0  0  0  0
    3.0016   68.3035   66.3363 H   0  0  0  0  0  0  0  0  0  0  0  0
    1.2070   66.8187   63.2052 H   0  0  0  0  0  0  0  0  0  0  0  0
    1.5898   68.3652   64.0844 H   0  0  0  0  0  0  0  0  0  0  0  0
    3.6820   66.0720   65.6790 H   0  0  0  0  0  0  0  0  0  0  0  0
    2.0750   66.1770   65.3830 H   0  0  0  0  0  0  0  0  0  0  0  0
    2.7628   63.8967   65.3505 H   0  0  0  0  0  0  0  0  0  0  0  0
    2.2668   64.3943   63.6980 H   0  0  0  0  0  0  0  0  0  0  0  0
    5.0587   64.0352   64.8406 H   0  0  0  0  0  0  0  0  0  0  0  0
    4.2950   63.3138   63.3443 H   0  0  0  0  0  0  0  0  0  0  0  0
    5.7872   65.8360   63.6851 H   0  0  0  0  0  0  0  0  0  0  0  0
    5.4599   64.8423   62.2133 H   0  0  0  0  0  0  0  0  0  0  0  0
    3.2329   65.6740   62.1155 H   0  0  0  0  0  0  0  0  0  0  0  0
  1  2  1  0
  2  3  2  0
  3  4  1  0
  4  5  1  0
  5  6  1  0
  6  7  1  0
  7  8  1  0
  8  9  2  0
  8 10  1  0
 10 11  2  0
 11 12  1  0
 12 13  1  0
 13 14  1  6
 13 15  1  0
 15 16  1  0
 16 17  1  0
 17 18  1  0
 18 19  1  0
 14  2  1  0
 19  4  1  0
 12  6  2  0
 19 13  1  0
  1 20  1  0
  1 21  1  0
  1 22  1  0
  3 23  1  0
  4 24  1  6
  5 25  1  0
  5 26  1  0
  7 27  1  0
 10 28  1  0
 11 29  1  0
 14 30  1  0
 14 31  1  0
 15 32  1  0
 15 33  1  0
 16 34  1  0
 16 35  1  0
 17 36  1  0
 17 37  1  0
 18 38  1  0
 18 39  1  0
 19 40  1  6
M  CHG  1  15   1
M  END
>  <meeko>  (5) 
{"is_sidechain": [false], "free_energy": -9.837, "intermolecular_energy": -9.837, "internal_energy": 0.0}

$$$$
1gpn_ligand
     RDKit          3D

 40 43  0  0  0  0  0  0  0  0999 V2000
    3.9450   64.0760   64.6580 C   0  0  0  0  0  0  0  0  0  0  0  0
    3.2750   65.4010   64.4290 C   0  0  0  0  0  0  0  0  0  0  0  0
    2.3150   65.8690   65.2540 C   0  0  0  0  0  0  0  0  0  0  0  0
    1.5860   67.1890   65.0480 C   0  0  1  0  0  0  0  0  0  0  0  0
    2.1700   68.2780   65.9660 C   0  0  0  0  0  0  0  0  0  0  0  0
    3.4990   68.7980   65.4670 C   0  0  0  0  0  0  0  0  0  0  0  0
    4.2070   69.5960   66.3370 N   0  0  0  0  0  0  0  0  0  0  0  0
    5.4440   70.1300   66.0810 C   0  0  0  0  0  0  0  0  0  0  0  0
    6.0360   70.8550   66.8650 O   0  0  0  0  0  0  0  0  0  0  0  0
    6.0360   69.7600   64.7740 C   0  0  0  0  0  0  0  0  0  0  0  0
    5.3490   68.9840   63.9250 C   0  0  0  0  0  0  0  0  0  0  0  0
    4.0070   68.5020   64.2500 C   0  0  0  0  0  0  0  0  0  0  0  0
    3.2220   67.6610   63.2240 C   0  0  2  0  0  0  0  0  0  0  0  0
    3.7540   66.1950   63.2250 C   0  0  0  0  0  0  0  0  0  0  0  0
    3.3690   68.2650   61.8300 N   0  0  0  0  0  0  0  0  0  0  0  0
    2.1460   68.2820   60.9790 C   0  0  0  0  0  0  0  0  0  0  0  0
    1.0670   69.1140   61.6610 C   0  0  0  0  0  0  0  0  0  0  0  0
    0.9660   68.8720   63.1720 C   0  0  0  0  0  0  0  0  0  0  0  0
    1.7050   67.5900   63.5670 C   0  0  2  0  0  0  0  0  0  0  0  0
    4.0372   63.8937   65.7389 H   0  0  0  0  0  0  0  0  0  0  0  0
    3.3427   63.2768   64.2014 H   0  0  0  0  0  0  0  0  0  0  0  0
    4.9457   64.0874   64.2014 H   0  0  0  0  0  0  0  0  0  0  0  0
    2.0429   65.2595   66.1283 H   0  0  0  0  0  0  0  0  0  0  0  0
    0.5238   67.0747   65.3098 H   0  0  0  0  0  0  0  0  0  0  0  0
    1.4591   69.1159   66.0172 H   0  0  0  0  0  0  0  0  0  0  0  0
    2.3350   67.8295   66.9568 H   0  0  0  0  0  0  0  0  0  0  0  0
    3.8300   69.8270   67.2520 H   0  0  0  0  0  0  0  0  0  0  0  0
    7.0383   70.1220   64.5012 H   0  0  0  0  0  0  0  0  0  0  0  0
    5.8038   68.7036   62.9635 H   0  0  0  0  0  0  0  0  0  0  0  0
    3.4054   65.6930   62.3104 H   0  0  0  0  0  0  0  0  0  0  0  0
    4.8522   66.2388   63.2699 H   0  0  0  0  0  0  0  0  0  0  0  0
    3.6730   69.2420   61.9400 H   0  0  0  0  0  0  0  0  0  0  0  0
    4.1320   67.7940   61.3280 H   0  0  0  0  0  0  0  0  0  0  0  0
    2.3859   68.7231   60.0003 H   0  0  0  0  0  0  0  0  0  0  0  0
    1.7825   67.2535   60.8372 H   0  0  0  0  0  0  0  0  0  0  0  0
    1.2910   70.1779   61.4937 H   0  0  0  0  0  0  0  0  0  0  0  0
    0.1040   68.8142   61.2220 H   0  0  0  0  0  0  0  0  0  0  0  0
    1.4126   69.7246   63.7046 H   0  0  0  0  0  0  0  0  0  0  0  0
   -0.0949   68.7655   63.4423 H   0  0  0  0  0  0  0  0  0  0  0  0
    1.1930   66.8217   62.9691 H   0  0  0  0  0  0  0  0  0  0  0  0
  1  2  1  0
  2  3  2  0
  3  4  1  0
  4  5  1  0
  5  6  1  0
  6  7  1  0
  7  8  1  0
  8  9  2  0
  8 10  1  0
 10 11  2  0
 11 12  1  0
 12 13  1  0
 13 14  1  6
 13 15  1  0
 15 16  1  0
 16 17  1  0
 17 18  1  0
 18 19  1  0
 14  2  1  0
 19  4  1  0
 12  6  2  0
 19 13  1  0
  1 20  1  0
  1 21  1  0
  1 22  1  0
  3 23  1  0
  4 24  1  1
  5 25  1  0
  5 26  1  0
  7 27  1  0
 10 28  1  0
 11 29  1  0
 14 30  1  0
 14 31  1  0
 15 32  1  0
 15 33  1  0
 16 34  1  0
 16 35  1  0
 17 36  1  0
 17 37  1  0
 18 38  1  0
 18 39  1  0
 19 40  1  6
M  CHG  1  15   1
M  END
>  <meeko>  (6) 
{"is_sidechain": [false], "free_energy": -9.742, "intermolecular_energy": -9.742, "internal_energy": 0.0}

$$$$
1gpn_ligand
     RDKit          3D

 40 43  0  0  0  0  0  0  0  0999 V2000
    6.4410   70.1850   66.2430 C   0  0  0  0  0  0  0  0  0  0  0  0
    5.8660   69.0980   65.3790 C   0  0  0  0  0  0  0  0  0  0  0  0
    6.2200   67.8050   65.5250 C   0  0  0  0  0  0  0  0  0  0  0  0
    5.6900   66.6740   64.6550 C   0  0  1  0  0  0  0  0  0  0  0  0
    4.5750   65.9070   65.3870 C   0  0  0  0  0  0  0  0  0  0  0  0
    3.2680   66.6670   65.4010 C   0  0  0  0  0  0  0  0  0  0  0  0
    2.2840   66.1750   66.2290 N   0  0  0  0  0  0  0  0  0  0  0  0
    1.0500   66.7450   66.4060 C   0  0  0  0  0  0  0  0  0  0  0  0
    0.1890   66.2690   67.1300 O   0  0  0  0  0  0  0  0  0  0  0  0
    0.8200   68.0040   65.6580 C   0  0  0  0  0  0  0  0  0  0  0  0
    1.7760   68.4850   64.8500 C   0  0  0  0  0  0  0  0  0  0  0  0
    3.0460   67.7840   64.6730 C   0  0  0  0  0  0  0  0  0  0  0  0
    4.0990   68.3350   63.6900 C   0  0  2  0  0  0  0  0  0  0  0  0
    4.8480   69.5380   64.3400 C   0  0  0  0  0  0  0  0  0  0  0  0
    3.4220   68.7830   62.3970 N   0  0  0  0  0  0  0  0  0  0  0  0
    4.1340   68.4620   61.1270 C   0  0  0  0  0  0  0  0  0  0  0  0
    4.2800   66.9510   60.9980 C   0  0  0  0  0  0  0  0  0  0  0  0
    4.6650   66.2540   62.3090 C   0  0  0  0  0  0  0  0  0  0  0  0
    5.1770   67.2710   63.3330 C   0  0  2  0  0  0  0  0  0  0  0  0
    6.3025   69.9232   67.3024 H   0  0  0  0  0  0  0  0  0  0  0  0
    7.5146   70.2937   66.0295 H   0  0  0  0  0  0  0  0  0  0  0  0
    5.9268   71.1337   66.0295 H   0  0  0  0  0  0  0  0  0  0  0  0
    6.9354   67.5522   66.3214 H   0  0  0  0  0  0  0  0  0  0  0  0
    6.4957   65.9561   64.4415 H   0  0  0  0  0  0  0  0  0  0  0  0
    4.4180   64.9430   64.8809 H   0  0  0  0  0  0  0  0  0  0  0  0
    4.8931   65.7664   66.4306 H   0  0  0  0  0  0  0  0  0  0  0  0
    2.4420   65.3340   66.7770 H   0  0  0  0  0  0  0  0  0  0  0  0
   -0.1331   68.5426   65.7655 H   0  0  0  0  0  0  0  0  0  0  0  0
    1.6006   69.4267   64.3092 H   0  0  0  0  0  0  0  0  0  0  0  0
    5.3701   70.0971   63.5495 H   0  0  0  0  0  0  0  0  0  0  0  0
    4.0989   70.1617   64.8497 H   0  0  0  0  0  0  0  0  0  0  0  0
    2.5010   68.3280   62.3480 H   0  0  0  0  0  0  0  0  0  0  0  0
    3.2300   69.7920   62.4380 H   0  0  0  0  0  0  0  0  0  0  0  0
    3.5568   68.8492   60.2744 H   0  0  0  0  0  0  0  0  0  0  0  0
    5.1302   68.9284   61.1357 H   0  0  0  0  0  0  0  0  0  0  0  0
    3.3205   66.5376   60.6538 H   0  0  0  0  0  0  0  0  0  0  0  0
    5.0967   66.7670   60.2845 H   0  0  0  0  0  0  0  0  0  0  0  0
    3.7816   65.7424   62.7188 H   0  0  0  0  0  0  0  0  0  0  0  0
    5.4648   65.5278   62.1017 H   0  0  0  0  0  0  0  0  0  0  0  0
    6.0337   67.7260   62.8143 H   0  0  0  0  0  0  0  0  0  0  0  0
  1  2  1  0
  2  3  2  0
  3  4  1  0
  4  5  1  0
  5  6  1  0
  6  7  1  0
  7  8  1  0
  8  9  2  0
  8 10  1  0
 10 11  2  0
 11 12  1  0
 12 13  1  0
 13 14  1  1
 13 15  1  0
 15 16  1  0
 16 17  1  0
 17 18  1  0
 18 19  1  0
 14  2  1  0
 19  4  1  0
 12  6  2  0
 19 13  1  0
  1 20  1  0
  1 21  1  0
  1 22  1  0
  3 23  1  0
  4 24  1  6
  5 25  1  0
  5 26  1  0
  7 27  1  0
 10 28  1  0
 11 29  1  0
 14 30  1  0
 14 31  1  0
 15 32  1  0
 15 33  1  0
 16 34  1  0
 16 35  1  0
 17 36  1  0
 17 37  1  0
 18 38  1  0
 18 39  1  0
 19 40  1  6
M  CHG  1  15   1
M  END
>  <meeko>  (7) 
{"is_sidechain": [false], "free_energy": -8.874, "intermolecular_energy": -8.874, "internal_energy": 0.0}

$$$$
