4jxs_ligand
     RDKit          3D

 31 32  0  0  0  0  0  0  0  0999 V2000
   83.7030    4.4610   35.5920 O   0  0  0  0  0  0  0  0  0  0  0  0
   82.5200    4.8860   35.7930 C   0  0  0  0  0  0  0  0  0  0  0  0
   82.0490    5.2570   36.9150 O   0  0  0  0  0  0  0  0  0  0  0  0
   81.5950    4.9560   34.5920 C   0  0  0  0  0  0  0  0  0  0  0  0
   80.8560    6.1170   34.3140 C   0  0  0  0  0  0  0  0  0  0  0  0
   80.0030    6.1820   33.2070 C   0  0  0  0  0  0  0  0  0  0  0  0
   79.8700    5.0860   32.3450 C   0  0  0  0  0  0  0  0  0  0  0  0
   78.9340    5.1530   31.1620 C   0  0  0  0  0  0  0  0  0  0  0  0
   79.3200    4.1870   30.1290 N   0  0  0  0  0  0  0  0  0  0  0  0
   79.4460    4.7900   28.5480 S   0  0  0  0  0  0  0  0  0  0  0  0
   78.6450    5.9910   28.5220 O   0  0  0  0  0  0  0  0  0  0  0  0
   79.2620    3.6330   27.7010 O   0  0  0  0  0  0  0  0  0  0  0  0
   81.1030    5.2690   28.3150 C   0  0  0  0  0  0  0  0  0  0  0  0
   82.1160    5.0880   29.3150 C   0  0  0  0  0  0  0  0  0  0  0  0
   83.3330    5.6040   28.9260 C   0  0  0  0  0  0  0  0  0  0  0  0
   83.2660    6.2840   27.3610 S   0  0  0  0  0  0  0  0  0  0  0  0
   81.6190    5.8620   27.1800 C   0  0  0  0  0  0  0  0  0  0  0  0
   80.8170    6.1130   25.8470 C   0  0  0  0  0  0  0  0  0  0  0  0
   80.2540    7.2440   25.7300 O   0  0  0  0  0  0  0  0  0  0  0  0
   80.8500    5.1820   24.9920 O   0  0  0  0  0  0  0  0  0  0  0  0
   80.5990    3.9210   32.6170 C   0  0  0  0  0  0  0  0  0  0  0  0
   81.4510    3.8600   33.7250 C   0  0  0  0  0  0  0  0  0  0  0  0
   80.9492    6.9896   34.9773 H   0  0  0  0  0  0  0  0  0  0  0  0
   79.4319    7.1017   33.0119 H   0  0  0  0  0  0  0  0  0  0  0  0
   77.9114    4.9287   31.4997 H   0  0  0  0  0  0  0  0  0  0  0  0
   78.9858    6.1641   30.7320 H   0  0  0  0  0  0  0  0  0  0  0  0
   80.1050    3.5830   30.3610 H   0  0  0  0  0  0  0  0  0  0  0  0
   81.9410    4.5937   30.2820 H   0  0  0  0  0  0  0  0  0  0  0  0
   84.2393    5.5807   29.5490 H   0  0  0  0  0  0  0  0  0  0  0  0
   80.5008    3.0482   31.9548 H   0  0  0  0  0  0  0  0  0  0  0  0
   82.0180    2.9379   33.9207 H   0  0  0  0  0  0  0  0  0  0  0  0
  1  2  2  0
  2  3  1  0
  2  4  1  0
  4  5  2  0
  5  6  1  0
  6  7  2  0
  7  8  1  0
  8  9  1  0
  9 10  1  0
 10 11  2  0
 10 12  2  0
 10 13  1  0
 13 14  1  0
 14 15  2  0
 15 16  1  0
 16 17  1  0
 17 18  1  0
 18 19  2  0
 18 20  1  0
  7 21  1  0
 21 22  2  0
 22  4  1  0
 17 13  2  0
  5 23  1  0
  6 24  1  0
  8 25  1  0
  8 26  1  0
  9 27  1  0
 14 28  1  0
 15 29  1  0
 21 30  1  0
 22 31  1  0
M  CHG  2   3  -1  20  -1
M  END
>  <meeko>  (1) 
{"is_sidechain": [false], "free_energy": -7.744, "intermolecular_energy": -10.461, "internal_energy": -0.815}

$$$$
4jxs_ligand
     RDKit          3D

 31 32  0  0  0  0  0  0  0  0999 V2000
   81.7200    6.0820   36.7960 O   0  0  0  0  0  0  0  0  0  0  0  0
   82.2430    5.3790   35.8730 C   0  0  0  0  0  0  0  0  0  0  0  0
   83.3940    4.8380   35.9190 O   0  0  0  0  0  0  0  0  0  0  0  0
   81.4260    5.1700   34.6120 C   0  0  0  0  0  0  0  0  0  0  0  0
   80.6010    6.1880   34.1060 C   0  0  0  0  0  0  0  0  0  0  0  0
   79.8480    5.9960   32.9430 C   0  0  0  0  0  0  0  0  0  0  0  0
   79.9030    4.7790   32.2520 C   0  0  0  0  0  0  0  0  0  0  0  0
   79.0740    4.5690   31.0070 C   0  0  0  0  0  0  0  0  0  0  0  0
   78.1290    5.6720   30.8120 N   0  0  0  0  0  0  0  0  0  0  0  0
   78.4740    6.7360   29.5350 S   0  0  0  0  0  0  0  0  0  0  0  0
   78.4000    8.0630   30.1000 O   0  0  0  0  0  0  0  0  0  0  0  0
   77.6850    6.2440   28.4280 O   0  0  0  0  0  0  0  0  0  0  0  0
   80.1300    6.4610   29.0750 C   0  0  0  0  0  0  0  0  0  0  0  0
   81.2350    7.1330   29.6960 C   0  0  0  0  0  0  0  0  0  0  0  0
   82.4400    6.8000   29.1170 C   0  0  0  0  0  0  0  0  0  0  0  0
   82.2500    5.6710   27.8500 S   0  0  0  0  0  0  0  0  0  0  0  0
   80.5580    5.5940   28.0890 C   0  0  0  0  0  0  0  0  0  0  0  0
   79.6270    4.6170   27.2770 C   0  0  0  0  0  0  0  0  0  0  0  0
   79.3570    4.9540   26.0840 O   0  0  0  0  0  0  0  0  0  0  0  0
   79.2750    3.5580   27.8710 O   0  0  0  0  0  0  0  0  0  0  0  0
   80.7190    3.7550   32.7510 C   0  0  0  0  0  0  0  0  0  0  0  0
   81.4710    3.9510   33.9140 C   0  0  0  0  0  0  0  0  0  0  0  0
   80.5462    7.1520   34.6330 H   0  0  0  0  0  0  0  0  0  0  0  0
   79.2072    6.8076   32.5679 H   0  0  0  0  0  0  0  0  0  0  0  0
   79.7426    4.5101   30.1355 H   0  0  0  0  0  0  0  0  0  0  0  0
   78.5037    3.6352   31.1196 H   0  0  0  0  0  0  0  0  0  0  0  0
   77.1440    5.4180   30.8300 H   0  0  0  0  0  0  0  0  0  0  0  0
   81.1320    7.8336   30.5377 H   0  0  0  0  0  0  0  0  0  0  0  0
   83.4094    7.2124   29.4333 H   0  0  0  0  0  0  0  0  0  0  0  0
   80.7685    2.7904   32.2245 H   0  0  0  0  0  0  0  0  0  0  0  0
   82.1087    3.1369   34.2888 H   0  0  0  0  0  0  0  0  0  0  0  0
  1  2  2  0
  2  3  1  0
  2  4  1  0
  4  5  2  0
  5  6  1  0
  6  7  2  0
  7  8  1  0
  8  9  1  0
  9 10  1  0
 10 11  2  0
 10 12  2  0
 10 13  1  0
 13 14  1  0
 14 15  2  0
 15 16  1  0
 16 17  1  0
 17 18  1  0
 18 19  2  0
 18 20  1  0
  7 21  1  0
 21 22  2  0
 22  4  1  0
 17 13  2  0
  5 23  1  0
  6 24  1  0
  8 25  1  0
  8 26  1  0
  9 27  1  0
 14 28  1  0
 15 29  1  0
 21 30  1  0
 22 31  1  0
M  CHG  2   3  -1  20  -1
M  END
>  <meeko>  (2) 
{"is_sidechain": [false], "free_energy": -7.507, "intermolecular_energy": -10.868, "internal_energy": -0.087}

$$$$
4jxs_ligand
     RDKit          3D

 31 32  0  0  0  0  0  0  0  0999 V2000
   83.2300    5.8880   36.9340 O   0  0  0  0  0  0  0  0  0  0  0  0
   83.1790    4.9250   36.1040 C   0  0  0  0  0  0  0  0  0  0  0  0
   83.9100    3.8840   36.1330 O   0  0  0  0  0  0  0  0  0  0  0  0
   82.1580    5.0270   34.9850 C   0  0  0  0  0  0  0  0  0  0  0  0
   82.0300    4.0080   34.0270 C   0  0  0  0  0  0  0  0  0  0  0  0
   81.0890    4.1020   32.9960 C   0  0  0  0  0  0  0  0  0  0  0  0
   80.2480    5.2180   32.8990 C   0  0  0  0  0  0  0  0  0  0  0  0
   79.2460    5.3240   31.7730 C   0  0  0  0  0  0  0  0  0  0  0  0
   79.5960    6.4150   30.8590 N   0  0  0  0  0  0  0  0  0  0  0  0
   78.3630    6.9450   29.8200 S   0  0  0  0  0  0  0  0  0  0  0  0
   78.1300    8.3280   30.1630 O   0  0  0  0  0  0  0  0  0  0  0  0
   77.3780    5.8880   29.8550 O   0  0  0  0  0  0  0  0  0  0  0  0
   79.0090    6.9150   28.2040 C   0  0  0  0  0  0  0  0  0  0  0  0
   78.8870    8.0180   27.2930 C   0  0  0  0  0  0  0  0  0  0  0  0
   79.4180    7.7320   26.0540 C   0  0  0  0  0  0  0  0  0  0  0  0
   80.0770    6.1580   25.9890 S   0  0  0  0  0  0  0  0  0  0  0  0
   79.6880    5.8600   27.6280 C   0  0  0  0  0  0  0  0  0  0  0  0
   80.0950    4.5320   28.3720 C   0  0  0  0  0  0  0  0  0  0  0  0
   81.2000    4.5480   28.9940 O   0  0  0  0  0  0  0  0  0  0  0  0
   79.2570    3.5870   28.3240 O   0  0  0  0  0  0  0  0  0  0  0  0
   80.3720    6.2420   33.8460 C   0  0  0  0  0  0  0  0  0  0  0  0
   81.3140    6.1450   34.8760 C   0  0  0  0  0  0  0  0  0  0  0  0
   82.6796    3.1224   34.0883 H   0  0  0  0  0  0  0  0  0  0  0  0
   81.0089    3.2927   32.2553 H   0  0  0  0  0  0  0  0  0  0  0  0
   79.2319    4.3769   31.2138 H   0  0  0  0  0  0  0  0  0  0  0  0
   78.2555    5.5321   32.2039 H   0  0  0  0  0  0  0  0  0  0  0  0
   80.0950    7.1970   31.2750 H   0  0  0  0  0  0  0  0  0  0  0  0
   78.4230    8.9806   27.5540 H   0  0  0  0  0  0  0  0  0  0  0  0
   79.4174    8.4343   25.2073 H   0  0  0  0  0  0  0  0  0  0  0  0
   79.7244    7.1287   33.7797 H   0  0  0  0  0  0  0  0  0  0  0  0
   81.3952    6.9577   35.6128 H   0  0  0  0  0  0  0  0  0  0  0  0
  1  2  2  0
  2  3  1  0
  2  4  1  0
  4  5  2  0
  5  6  1  0
  6  7  2  0
  7  8  1  0
  8  9  1  0
  9 10  1  0
 10 11  2  0
 10 12  2  0
 10 13  1  0
 13 14  1  0
 14 15  2  0
 15 16  1  0
 16 17  1  0
 17 18  1  0
 18 19  2  0
 18 20  1  0
  7 21  1  0
 21 22  2  0
 22  4  1  0
 17 13  2  0
  5 23  1  0
  6 24  1  0
  8 25  1  0
  8 26  1  0
  9 27  1  0
 14 28  1  0
 15 29  1  0
 21 30  1  0
 22 31  1  0
M  CHG  2   3  -1  20  -1
M  END
>  <meeko>  (3) 
{"is_sidechain": [false], "free_energy": -7.207, "intermolecular_energy": -9.987, "internal_energy": -0.562}

$$$$
4jxs_ligand
     RDKit          3D

 31 32  0  0  0  0  0  0  0  0999 V2000
   84.2110    5.8650   36.9220 O   0  0  0  0  0  0  0  0  0  0  0  0
   83.8890    4.7880   36.3260 C   0  0  0  0  0  0  0  0  0  0  0  0
   84.4140    3.6460   36.5280 O   0  0  0  0  0  0  0  0  0  0  0  0
   82.7870    4.8730   35.2860 C   0  0  0  0  0  0  0  0  0  0  0  0
   82.6580    3.8950   34.2870 C   0  0  0  0  0  0  0  0  0  0  0  0
   81.6420    3.9730   33.3280 C   0  0  0  0  0  0  0  0  0  0  0  0
   80.7240    5.0310   33.3480 C   0  0  0  0  0  0  0  0  0  0  0  0
   79.6400    5.1210   32.3000 C   0  0  0  0  0  0  0  0  0  0  0  0
   80.1330    4.6780   30.9930 N   0  0  0  0  0  0  0  0  0  0  0  0
   81.1550    5.7560   30.1720 S   0  0  0  0  0  0  0  0  0  0  0  0
   82.3760    5.0270   29.9250 O   0  0  0  0  0  0  0  0  0  0  0  0
   81.0440    6.9950   30.9100 O   0  0  0  0  0  0  0  0  0  0  0  0
   80.4220    6.0770   28.6260 C   0  0  0  0  0  0  0  0  0  0  0  0
   81.0720    5.7910   27.3790 C   0  0  0  0  0  0  0  0  0  0  0  0
   80.3220    6.1940   26.2960 C   0  0  0  0  0  0  0  0  0  0  0  0
   78.8380    6.8920   26.7700 S   0  0  0  0  0  0  0  0  0  0  0  0
   79.1720    6.6300   28.4270 C   0  0  0  0  0  0  0  0  0  0  0  0
   78.1400    6.9680   29.5670 C   0  0  0  0  0  0  0  0  0  0  0  0
   77.4090    6.0140   29.9710 O   0  0  0  0  0  0  0  0  0  0  0  0
   78.1710    8.1510   30.0140 O   0  0  0  0  0  0  0  0  0  0  0  0
   80.8480    6.0140   34.3380 C   0  0  0  0  0  0  0  0  0  0  0  0
   81.8660    5.9330   35.2950 C   0  0  0  0  0  0  0  0  0  0  0  0
   83.3667    3.0543   34.2577 H   0  0  0  0  0  0  0  0  0  0  0  0
   81.5635    3.1972   32.5521 H   0  0  0  0  0  0  0  0  0  0  0  0
   78.7956    4.4834   32.6006 H   0  0  0  0  0  0  0  0  0  0  0  0
   79.3208    6.1703   32.2161 H   0  0  0  0  0  0  0  0  0  0  0  0
   80.4880    3.7260   30.9550 H   0  0  0  0  0  0  0  0  0  0  0  0
   82.0558    5.3058   27.2973 H   0  0  0  0  0  0  0  0  0  0  0  0
   80.6416    6.0796   25.2497 H   0  0  0  0  0  0  0  0  0  0  0  0
   80.1402    6.8557   34.3635 H   0  0  0  0  0  0  0  0  0  0  0  0
   81.9460    6.7125   36.0670 H   0  0  0  0  0  0  0  0  0  0  0  0
  1  2  2  0
  2  3  1  0
  2  4  1  0
  4  5  2  0
  5  6  1  0
  6  7  2  0
  7  8  1  0
  8  9  1  0
  9 10  1  0
 10 11  2  0
 10 12  2  0
 10 13  1  0
 13 14  1  0
 14 15  2  0
 15 16  1  0
 16 17  1  0
 17 18  1  0
 18 19  2  0
 18 20  1  0
  7 21  1  0
 21 22  2  0
 22  4  1  0
 17 13  2  0
  5 23  1  0
  6 24  1  0
  8 25  1  0
  8 26  1  0
  9 27  1  0
 14 28  1  0
 15 29  1  0
 21 30  1  0
 22 31  1  0
M  CHG  2   3  -1  20  -1
M  END
>  <meeko>  (4) 
{"is_sidechain": [false], "free_energy": -7.127, "intermolecular_energy": -9.984, "internal_energy": -0.457}

$$$$
4jxs_ligand
     RDKit          3D

 31 32  0  0  0  0  0  0  0  0999 V2000
   83.7440    4.0690   36.9330 O   0  0  0  0  0  0  0  0  0  0  0  0
   83.3490    5.1920   36.4810 C   0  0  0  0  0  0  0  0  0  0  0  0
   83.6890    6.3310   36.9340 O   0  0  0  0  0  0  0  0  0  0  0  0
   82.3930    5.1670   35.3030 C   0  0  0  0  0  0  0  0  0  0  0  0
   82.3650    4.0790   34.4160 C   0  0  0  0  0  0  0  0  0  0  0  0
   81.4830    4.0560   33.3300 C   0  0  0  0  0  0  0  0  0  0  0  0
   80.6020    5.1220   33.1050 C   0  0  0  0  0  0  0  0  0  0  0  0
   79.6660    5.1010   31.9210 C   0  0  0  0  0  0  0  0  0  0  0  0
   79.2620    6.4600   31.5450 N   0  0  0  0  0  0  0  0  0  0  0  0
   78.4510    6.6170   30.0630 S   0  0  0  0  0  0  0  0  0  0  0  0
   78.2020    8.0310   29.9010 O   0  0  0  0  0  0  0  0  0  0  0  0
   77.4440    5.5800   30.0870 O   0  0  0  0  0  0  0  0  0  0  0  0
   79.5680    6.1420   28.8160 C   0  0  0  0  0  0  0  0  0  0  0  0
   79.2650    5.1370   27.8370 C   0  0  0  0  0  0  0  0  0  0  0  0
   80.3290    4.8880   26.9990 C   0  0  0  0  0  0  0  0  0  0  0  0
   81.6780    5.8670   27.3700 S   0  0  0  0  0  0  0  0  0  0  0  0
   80.8360    6.6560   28.6320 C   0  0  0  0  0  0  0  0  0  0  0  0
   81.4580    7.8460   29.4560 C   0  0  0  0  0  0  0  0  0  0  0  0
   81.3070    9.0090   28.9730 O   0  0  0  0  0  0  0  0  0  0  0  0
   82.0070    7.5390   30.5530 O   0  0  0  0  0  0  0  0  0  0  0  0
   80.6270    6.2150   33.9810 C   0  0  0  0  0  0  0  0  0  0  0  0
   81.5100    6.2340   35.0660 C   0  0  0  0  0  0  0  0  0  0  0  0
   83.0472    3.2313   34.5774 H   0  0  0  0  0  0  0  0  0  0  0  0
   81.4813    3.1937   32.6471 H   0  0  0  0  0  0  0  0  0  0  0  0
   80.1755    4.6285   31.0683 H   0  0  0  0  0  0  0  0  0  0  0  0
   78.7659    4.5318   32.1964 H   0  0  0  0  0  0  0  0  0  0  0  0
   78.8120    7.0050   32.2770 H   0  0  0  0  0  0  0  0  0  0  0  0
   78.2944    4.6246   27.7645 H   0  0  0  0  0  0  0  0  0  0  0  0
   80.3119    4.1463   26.1868 H   0  0  0  0  0  0  0  0  0  0  0  0
   79.9477    7.0641   33.8146 H   0  0  0  0  0  0  0  0  0  0  0  0
   81.5131    7.0992   35.7453 H   0  0  0  0  0  0  0  0  0  0  0  0
  1  2  2  0
  2  3  1  0
  2  4  1  0
  4  5  2  0
  5  6  1  0
  6  7  2  0
  7  8  1  0
  8  9  1  0
  9 10  1  0
 10 11  2  0
 10 12  2  0
 10 13  1  0
 13 14  1  0
 14 15  2  0
 15 16  1  0
 16 17  1  0
 17 18  1  0
 18 19  2  0
 18 20  1  0
  7 21  1  0
 21 22  2  0
 22  4  1  0
 17 13  2  0
  5 23  1  0
  6 24  1  0
  8 25  1  0
  8 26  1  0
  9 27  1  0
 14 28  1  0
 15 29  1  0
 21 30  1  0
 22 31  1  0
M  CHG  2   3  -1  20  -1
M  END
>  <meeko>  (5) 
{"is_sidechain": [false], "free_energy": -7.057, "intermolecular_energy": -9.574, "internal_energy": -0.772}

$$$$
4jxs_ligand
     RDKit          3D

 31 32  0  0  0  0  0  0  0  0999 V2000
   83.8260    4.3220   36.8020 O   0  0  0  0  0  0  0  0  0  0  0  0
   83.8860    4.1890   35.5380 C   0  0  0  0  0  0  0  0  0  0  0  0
   84.8810    3.7330   34.8900 O   0  0  0  0  0  0  0  0  0  0  0  0
   82.6690    4.6120   34.7370 C   0  0  0  0  0  0  0  0  0  0  0  0
   82.0530    5.8550   34.9570 C   0  0  0  0  0  0  0  0  0  0  0  0
   80.9310    6.2450   34.2190 C   0  0  0  0  0  0  0  0  0  0  0  0
   80.3970    5.4020   33.2360 C   0  0  0  0  0  0  0  0  0  0  0  0
   79.1740    5.8190   32.4540 C   0  0  0  0  0  0  0  0  0  0  0  0
   79.5470    6.5760   31.2550 N   0  0  0  0  0  0  0  0  0  0  0  0
   79.1180    5.8820   29.7670 S   0  0  0  0  0  0  0  0  0  0  0  0
   78.2200    6.8230   29.1410 O   0  0  0  0  0  0  0  0  0  0  0  0
   78.8130    4.5050   30.0830 O   0  0  0  0  0  0  0  0  0  0  0  0
   80.5620    5.8210   28.7980 C   0  0  0  0  0  0  0  0  0  0  0  0
   81.8550    6.1910   29.2980 C   0  0  0  0  0  0  0  0  0  0  0  0
   82.8300    6.1230   28.3270 C   0  0  0  0  0  0  0  0  0  0  0  0
   82.2020    5.5980   26.8280 S   0  0  0  0  0  0  0  0  0  0  0  0
   80.6290    5.4260   27.4760 C   0  0  0  0  0  0  0  0  0  0  0  0
   79.4220    4.8550   26.6410 C   0  0  0  0  0  0  0  0  0  0  0  0
   79.0400    3.6800   26.9290 O   0  0  0  0  0  0  0  0  0  0  0  0
   78.9090    5.6400   25.7930 O   0  0  0  0  0  0  0  0  0  0  0  0
   81.0010    4.1580   33.0130 C   0  0  0  0  0  0  0  0  0  0  0  0
   82.1230    3.7710   33.7530 C   0  0  0  0  0  0  0  0  0  0  0  0
   82.4597    6.5326   35.7221 H   0  0  0  0  0  0  0  0  0  0  0  0
   80.4639    7.2220   34.4121 H   0  0  0  0  0  0  0  0  0  0  0  0
   78.6167    4.9199   32.1523 H   0  0  0  0  0  0  0  0  0  0  0  0
   78.5525    6.4624   33.0942 H   0  0  0  0  0  0  0  0  0  0  0  0
   79.3370    7.5710   31.2780 H   0  0  0  0  0  0  0  0  0  0  0  0
   82.0460    6.4943   30.3380 H   0  0  0  0  0  0  0  0  0  0  0  0
   83.8868    6.3766   28.4969 H   0  0  0  0  0  0  0  0  0  0  0  0
   80.5898    3.4804   32.2502 H   0  0  0  0  0  0  0  0  0  0  0  0
   82.5857    2.7916   33.5613 H   0  0  0  0  0  0  0  0  0  0  0  0
  1  2  2  0
  2  3  1  0
  2  4  1  0
  4  5  2  0
  5  6  1  0
  6  7  2  0
  7  8  1  0
  8  9  1  0
  9 10  1  0
 10 11  2  0
 10 12  2  0
 10 13  1  0
 13 14  1  0
 14 15  2  0
 15 16  1  0
 16 17  1  0
 17 18  1  0
 18 19  2  0
 18 20  1  0
  7 21  1  0
 21 22  2  0
 22  4  1  0
 17 13  2  0
  5 23  1  0
  6 24  1  0
  8 25  1  0
  8 26  1  0
  9 27  1  0
 14 28  1  0
 15 29  1  0
 21 30  1  0
 22 31  1  0
M  CHG  2   3  -1  20  -1
M  END
>  <meeko>  (6) 
{"is_sidechain": [false], "free_energy": -7.019, "intermolecular_energy": -9.535, "internal_energy": -0.761}

$$$$
4jxs_ligand
     RDKit          3D

 31 32  0  0  0  0  0  0  0  0999 V2000
   82.8380    6.4580   36.9310 O   0  0  0  0  0  0  0  0  0  0  0  0
   82.7390    5.3230   36.3630 C   0  0  0  0  0  0  0  0  0  0  0  0
   83.3000    4.2500   36.7540 O   0  0  0  0  0  0  0  0  0  0  0  0
   81.8790    5.2450   35.1150 C   0  0  0  0  0  0  0  0  0  0  0  0
   81.0740    6.3260   34.7220 C   0  0  0  0  0  0  0  0  0  0  0  0
   80.2820    6.2550   33.5710 C   0  0  0  0  0  0  0  0  0  0  0  0
   80.2770    5.0980   32.7800 C   0  0  0  0  0  0  0  0  0  0  0  0
   79.4050    5.0180   31.5500 C   0  0  0  0  0  0  0  0  0  0  0  0
   80.1740    4.5600   30.3890 N   0  0  0  0  0  0  0  0  0  0  0  0
   79.5110    4.9080   28.8660 S   0  0  0  0  0  0  0  0  0  0  0  0
   78.5190    5.9310   29.0960 O   0  0  0  0  0  0  0  0  0  0  0  0
   79.2670    3.6130   28.2710 O   0  0  0  0  0  0  0  0  0  0  0  0
   80.7780    5.6200   27.9080 C   0  0  0  0  0  0  0  0  0  0  0  0
   81.2020    5.0780   26.6490 C   0  0  0  0  0  0  0  0  0  0  0  0
   82.2630    5.7750   26.1120 C   0  0  0  0  0  0  0  0  0  0  0  0
   82.7340    7.0840   27.1030 S   0  0  0  0  0  0  0  0  0  0  0  0
   81.5000    6.7480   28.2400 C   0  0  0  0  0  0  0  0  0  0  0  0
   81.2310    7.6580   29.4970 C   0  0  0  0  0  0  0  0  0  0  0  0
   81.8580    7.3570   30.5580 O   0  0  0  0  0  0  0  0  0  0  0  0
   80.4510    8.6370   29.3210 O   0  0  0  0  0  0  0  0  0  0  0  0
   81.0720    4.0120   33.1680 C   0  0  0  0  0  0  0  0  0  0  0  0
   81.8630    4.0870   34.3190 C   0  0  0  0  0  0  0  0  0  0  0  0
   81.0659    7.2435   35.3288 H   0  0  0  0  0  0  0  0  0  0  0  0
   79.6580    7.1144   33.2844 H   0  0  0  0  0  0  0  0  0  0  0  0
   78.5824    4.3122   31.7376 H   0  0  0  0  0  0  0  0  0  0  0  0
   79.0103    6.0219   31.3347 H   0  0  0  0  0  0  0  0  0  0  0  0
   81.1720    4.7560   30.4150 H   0  0  0  0  0  0  0  0  0  0  0  0
   80.7342    4.2065   26.1677 H   0  0  0  0  0  0  0  0  0  0  0  0
   82.7485    5.5188   25.1588 H   0  0  0  0  0  0  0  0  0  0  0  0
   81.0742    3.0933   32.5630 H   0  0  0  0  0  0  0  0  0  0  0  0
   82.4831    3.2250   34.6060 H   0  0  0  0  0  0  0  0  0  0  0  0
  1  2  2  0
  2  3  1  0
  2  4  1  0
  4  5  2  0
  5  6  1  0
  6  7  2  0
  7  8  1  0
  8  9  1  0
  9 10  1  0
 10 11  2  0
 10 12  2  0
 10 13  1  0
 13 14  1  0
 14 15  2  0
 15 16  1  0
 16 17  1  0
 17 18  1  0
 18 19  2  0
 18 20  1  0
  7 21  1  0
 21 22  2  0
 22  4  1  0
 17 13  2  0
  5 23  1  0
  6 24  1  0
  8 25  1  0
  8 26  1  0
  9 27  1  0
 14 28  1  0
 15 29  1  0
 21 30  1  0
 22 31  1  0
M  CHG  2   3  -1  20  -1
M  END
>  <meeko>  (7) 
{"is_sidechain": [false], "free_energy": -6.943, "intermolecular_energy": -9.48, "internal_energy": -0.713}

$$$$
4jxs_ligand
     RDKit          3D

 31 32  0  0  0  0  0  0  0  0999 V2000
   83.5010    4.2390   36.8650 O   0  0  0  0  0  0  0  0  0  0  0  0
   83.0600    5.3300   36.3780 C   0  0  0  0  0  0  0  0  0  0  0  0
   83.3520    6.4960   36.7950 O   0  0  0  0  0  0  0  0  0  0  0  0
   82.1080    5.2290   35.2010 C   0  0  0  0  0  0  0  0  0  0  0  0
   82.0930    4.0920   34.3770 C   0  0  0  0  0  0  0  0  0  0  0  0
   81.2150    3.9980   33.2920 C   0  0  0  0  0  0  0  0  0  0  0  0
   80.3240    5.0400   33.0050 C   0  0  0  0  0  0  0  0  0  0  0  0
   79.3910    4.9430   31.8220 C   0  0  0  0  0  0  0  0  0  0  0  0
   80.1350    4.7000   30.5820 N   0  0  0  0  0  0  0  0  0  0  0  0
   80.4410    6.0590   29.6130 S   0  0  0  0  0  0  0  0  0  0  0  0
   81.8660    6.2820   29.6890 O   0  0  0  0  0  0  0  0  0  0  0  0
   79.4160    7.0090   29.9840 O   0  0  0  0  0  0  0  0  0  0  0  0
   80.0750    5.6090   27.9730 C   0  0  0  0  0  0  0  0  0  0  0  0
   79.5090    4.3370   27.6200 C   0  0  0  0  0  0  0  0  0  0  0  0
   79.3720    4.1880   26.2570 C   0  0  0  0  0  0  0  0  0  0  0  0
   79.8980    5.5720   25.4060 S   0  0  0  0  0  0  0  0  0  0  0  0
   80.2820    6.3940   26.8560 C   0  0  0  0  0  0  0  0  0  0  0  0
   80.7880    7.8850   26.8810 C   0  0  0  0  0  0  0  0  0  0  0  0
   81.9670    8.0900   26.4610 O   0  0  0  0  0  0  0  0  0  0  0  0
   79.9530    8.7520   27.2700 O   0  0  0  0  0  0  0  0  0  0  0  0
   80.3350    6.1810   33.8180 C   0  0  0  0  0  0  0  0  0  0  0  0
   81.2150    6.2710   34.9020 C   0  0  0  0  0  0  0  0  0  0  0  0
   82.7829    3.2617   34.5882 H   0  0  0  0  0  0  0  0  0  0  0  0
   81.2244    3.0984   32.6590 H   0  0  0  0  0  0  0  0  0  0  0  0
   78.6867    4.1142   31.9868 H   0  0  0  0  0  0  0  0  0  0  0  0
   78.8503    5.8959   31.7242 H   0  0  0  0  0  0  0  0  0  0  0  0
   80.9600    4.1120   30.6710 H   0  0  0  0  0  0  0  0  0  0  0  0
   79.2184    3.5702   28.3532 H   0  0  0  0  0  0  0  0  0  0  0  0
   78.9712    3.2845   25.7742 H   0  0  0  0  0  0  0  0  0  0  0  0
   79.6470    7.0118   33.6026 H   0  0  0  0  0  0  0  0  0  0  0  0
   81.2073    7.1734   35.5309 H   0  0  0  0  0  0  0  0  0  0  0  0
  1  2  2  0
  2  3  1  0
  2  4  1  0
  4  5  2  0
  5  6  1  0
  6  7  2  0
  7  8  1  0
  8  9  1  0
  9 10  1  0
 10 11  2  0
 10 12  2  0
 10 13  1  0
 13 14  1  0
 14 15  2  0
 15 16  1  0
 16 17  1  0
 17 18  1  0
 18 19  2  0
 18 20  1  0
  7 21  1  0
 21 22  2  0
 22  4  1  0
 17 13  2  0
  5 23  1  0
  6 24  1  0
  8 25  1  0
  8 26  1  0
  9 27  1  0
 14 28  1  0
 15 29  1  0
 21 30  1  0
 22 31  1  0
M  CHG  2   3  -1  20  -1
M  END
>  <meeko>  (8) 
{"is_sidechain": [false], "free_energy": -6.873, "intermolecular_energy": -9.497, "internal_energy": -0.602}

$$$$
4jxs_ligand
     RDKit          3D

 31 32  0  0  0  0  0  0  0  0999 V2000
   83.3760    4.4670   36.0530 O   0  0  0  0  0  0  0  0  0  0  0  0
   82.3310    5.1920   36.0050 C   0  0  0  0  0  0  0  0  0  0  0  0
   81.9190    5.9570   36.9340 O   0  0  0  0  0  0  0  0  0  0  0  0
   81.5070    5.1370   34.7320 C   0  0  0  0  0  0  0  0  0  0  0  0
   81.4900    3.9850   33.9290 C   0  0  0  0  0  0  0  0  0  0  0  0
   80.7300    3.9330   32.7560 C   0  0  0  0  0  0  0  0  0  0  0  0
   79.9620    5.0350   32.3560 C   0  0  0  0  0  0  0  0  0  0  0  0
   79.1580    4.9820   31.0790 C   0  0  0  0  0  0  0  0  0  0  0  0
   79.9880    4.5450   29.9520 N   0  0  0  0  0  0  0  0  0  0  0  0
   79.8120    5.4200   28.5080 S   0  0  0  0  0  0  0  0  0  0  0  0
   78.4580    5.9230   28.5180 O   0  0  0  0  0  0  0  0  0  0  0  0
   80.3900    4.5670   27.4940 O   0  0  0  0  0  0  0  0  0  0  0  0
   80.8760    6.7940   28.6120 C   0  0  0  0  0  0  0  0  0  0  0  0
   80.4060    8.1490   28.5790 C   0  0  0  0  0  0  0  0  0  0  0  0
   81.4390    9.0600   28.6080 C   0  0  0  0  0  0  0  0  0  0  0  0
   82.9630    8.2950   28.6960 S   0  0  0  0  0  0  0  0  0  0  0  0
   82.2500    6.7410   28.7300 C   0  0  0  0  0  0  0  0  0  0  0  0
   83.0930    5.4210   28.9010 C   0  0  0  0  0  0  0  0  0  0  0  0
   83.8650    5.1140   27.9430 O   0  0  0  0  0  0  0  0  0  0  0  0
   82.9610    4.8140   30.0030 O   0  0  0  0  0  0  0  0  0  0  0  0
   79.9770    6.1910   33.1470 C   0  0  0  0  0  0  0  0  0  0  0  0
   80.7380    6.2380   34.3200 C   0  0  0  0  0  0  0  0  0  0  0  0
   82.0844    3.1089   34.2276 H   0  0  0  0  0  0  0  0  0  0  0  0
   80.7351    3.0199   32.1426 H   0  0  0  0  0  0  0  0  0  0  0  0
   78.3252    4.2750   31.2076 H   0  0  0  0  0  0  0  0  0  0  0  0
   78.7775    5.9912   30.8628 H   0  0  0  0  0  0  0  0  0  0  0  0
   80.9670    4.3710   30.1660 H   0  0  0  0  0  0  0  0  0  0  0  0
   79.3430    8.4285   28.5355 H   0  0  0  0  0  0  0  0  0  0  0  0
   81.2987   10.1506   28.5780 H   0  0  0  0  0  0  0  0  0  0  0  0
   79.3863    7.0680   32.8437 H   0  0  0  0  0  0  0  0  0  0  0  0
   80.7341    7.1531   34.9304 H   0  0  0  0  0  0  0  0  0  0  0  0
  1  2  2  0
  2  3  1  0
  2  4  1  0
  4  5  2  0
  5  6  1  0
  6  7  2  0
  7  8  1  0
  8  9  1  0
  9 10  1  0
 10 11  2  0
 10 12  2  0
 10 13  1  0
 13 14  1  0
 14 15  2  0
 15 16  1  0
 16 17  1  0
 17 18  1  0
 18 19  2  0
 18 20  1  0
  7 21  1  0
 21 22  2  0
 22  4  1  0
 17 13  2  0
  5 23  1  0
  6 24  1  0
  8 25  1  0
  8 26  1  0
  9 27  1  0
 14 28  1  0
 15 29  1  0
 21 30  1  0
 22 31  1  0
M  CHG  2   3  -1  20  -1
M  END
>  <meeko>  (9) 
{"is_sidechain": [false], "free_energy": -6.856, "intermolecular_energy": -9.359, "internal_energy": -0.716}

$$$$
