1qkt_ligand
     RDKit          3D

 44 47  0  0  0  0  0  0  0  0999 V2000
  -16.1030   29.6650  158.7870 C   0  0  0  0  0  0  0  0  0  0  0  0
  -16.7910   29.4450  157.4170 C   0  0  2  0  0  0  0  0  0  0  0  0
  -17.7990   28.2950  157.5360 C   0  0  0  0  0  0  0  0  0  0  0  0
  -17.0970   26.9350  157.7200 C   0  0  0  0  0  0  0  0  0  0  0  0
  -16.0060   26.6480  156.6530 C   0  0  2  0  0  0  0  0  0  0  0  0
  -15.2530   25.3320  156.8350 C   0  0  0  0  0  0  0  0  0  0  0  0
  -15.8890   24.2000  157.3750 C   0  0  0  0  0  0  0  0  0  0  0  0
  -15.2150   22.9830  157.5030 C   0  0  0  0  0  0  0  0  0  0  0  0
  -13.9020   22.8770  157.0800 C   0  0  0  0  0  0  0  0  0  0  0  0
  -13.2790   21.6730  157.2260 O   0  0  0  0  0  0  0  0  0  0  0  0
  -13.2510   23.9690  156.5210 C   0  0  0  0  0  0  0  0  0  0  0  0
  -13.9210   25.1980  156.3790 C   0  0  0  0  0  0  0  0  0  0  0  0
  -13.1540   26.3540  155.7830 C   0  0  0  0  0  0  0  0  0  0  0  0
  -14.0240   27.5460  155.3960 C   0  0  0  0  0  0  0  0  0  0  0  0
  -15.0200   27.8480  156.5170 C   0  0  1  0  0  0  0  0  0  0  0  0
  -15.8280   29.1190  156.2560 C   0  0  2  0  0  0  0  0  0  0  0  0
  -15.0950   30.4370  156.0220 C   0  0  0  0  0  0  0  0  0  0  0  0
  -16.1610   31.5130  156.3030 C   0  0  0  0  0  0  0  0  0  0  0  0
  -17.3800   30.7670  156.8840 C   0  0  2  0  0  0  0  0  0  0  0  0
  -18.0650   31.5310  157.8570 O   0  0  0  0  0  0  0  0  0  0  0  0
  -16.8139   29.4377  159.5950 H   0  0  0  0  0  0  0  0  0  0  0  0
  -15.2297   29.0013  158.8695 H   0  0  0  0  0  0  0  0  0  0  0  0
  -15.7768   30.7123  158.8695 H   0  0  0  0  0  0  0  0  0  0  0  0
  -18.4496   28.4801  158.4035 H   0  0  0  0  0  0  0  0  0  0  0  0
  -18.3833   28.2549  156.6049 H   0  0  0  0  0  0  0  0  0  0  0  0
  -16.6244   26.9194  158.7132 H   0  0  0  0  0  0  0  0  0  0  0  0
  -17.8673   26.1574  157.6103 H   0  0  0  0  0  0  0  0  0  0  0  0
  -16.5602   26.5265  155.7106 H   0  0  0  0  0  0  0  0  0  0  0  0
  -16.9365   24.2741  157.7026 H   0  0  0  0  0  0  0  0  0  0  0  0
  -15.7265   22.1120  157.9386 H   0  0  0  0  0  0  0  0  0  0  0  0
  -13.9550   20.9920  157.3690 H   0  0  0  0  0  0  0  0  0  0  0  0
  -12.2071   23.8726  156.1878 H   0  0  0  0  0  0  0  0  0  0  0  0
  -12.4120   26.6931  156.5208 H   0  0  0  0  0  0  0  0  0  0  0  0
  -12.6928   25.9838  154.8555 H   0  0  0  0  0  0  0  0  0  0  0  0
  -13.3847   28.4255  155.2291 H   0  0  0  0  0  0  0  0  0  0  0  0
  -14.5761   27.3081  154.4748 H   0  0  0  0  0  0  0  0  0  0  0  0
  -14.4430   28.0015  157.4408 H   0  0  0  0  0  0  0  0  0  0  0  0
  -16.3014   28.8197  155.3092 H   0  0  0  0  0  0  0  0  0  0  0  0
  -14.2450   30.5393  156.7126 H   0  0  0  0  0  0  0  0  0  0  0  0
  -14.6747   30.5128  155.0083 H   0  0  0  0  0  0  0  0  0  0  0  0
  -15.7807   32.2465  157.0292 H   0  0  0  0  0  0  0  0  0  0  0  0
  -16.4259   32.0643  155.3887 H   0  0  0  0  0  0  0  0  0  0  0  0
  -18.1634   30.5771  156.1355 H   0  0  0  0  0  0  0  0  0  0  0  0
  -19.0060   31.2920  157.8330 H   0  0  0  0  0  0  0  0  0  0  0  0
  2  1  1  1
  2  3  1  0
  3  4  1  0
  4  5  1  0
  5  6  1  0
  6  7  2  0
  7  8  1  0
  8  9  2  0
  9 10  1  0
  9 11  1  0
 11 12  2  0
 12 13  1  0
 13 14  1  0
 14 15  1  0
 15 16  1  0
 16 17  1  0
 17 18  1  0
 18 19  1  0
 19 20  1  0
 16  2  1  0
 19  2  1  0
 15  5  1  0
 12  6  1  0
  1 21  1  0
  1 22  1  0
  1 23  1  0
  3 24  1  0
  3 25  1  0
  4 26  1  0
  4 27  1  0
  5 28  1  6
  7 29  1  0
  8 30  1  0
 10 31  1  0
 11 32  1  0
 13 33  1  0
 13 34  1  0
 14 35  1  0
 14 36  1  0
 15 37  1  1
 16 38  1  6
 17 39  1  0
 17 40  1  0
 18 41  1  0
 18 42  1  0
 19 43  1  6
 20 44  1  0
M  END
>  <meeko>  (1) 
{"is_sidechain": [false], "free_energy": -10.35, "intermolecular_energy": -10.955, "internal_energy": 0.0}

$$$$
1qkt_ligand
     RDKit          3D

 44 47  0  0  0  0  0  0  0  0999 V2000
  -16.2320   29.3510  158.6660 C   0  0  0  0  0  0  0  0  0  0  0  0
  -16.7830   29.2040  157.2250 C   0  0  2  0  0  0  0  0  0  0  0  0
  -17.8000   28.0570  157.1880 C   0  0  0  0  0  0  0  0  0  0  0  0
  -17.1240   26.6840  157.3720 C   0  0  0  0  0  0  0  0  0  0  0  0
  -15.9340   26.4430  156.4040 C   0  0  2  0  0  0  0  0  0  0  0  0
  -15.2060   25.1130  156.5930 C   0  0  0  0  0  0  0  0  0  0  0  0
  -15.8950   23.9610  157.0120 C   0  0  0  0  0  0  0  0  0  0  0  0
  -15.2410   22.7330  157.1450 C   0  0  0  0  0  0  0  0  0  0  0  0
  -13.8920   22.6390  156.8470 C   0  0  0  0  0  0  0  0  0  0  0  0
  -13.2900   21.4250  156.9940 O   0  0  0  0  0  0  0  0  0  0  0  0
  -13.1860   23.7520  156.4100 C   0  0  0  0  0  0  0  0  0  0  0  0
  -13.8360   24.9920  156.2640 C   0  0  0  0  0  0  0  0  0  0  0  0
  -13.0110   26.1690  155.8040 C   0  0  0  0  0  0  0  0  0  0  0  0
  -13.8350   27.3860  155.3930 C   0  0  0  0  0  0  0  0  0  0  0  0
  -14.9360   27.6400  156.4250 C   0  0  1  0  0  0  0  0  0  0  0  0
  -15.7110   28.9280  156.1500 C   0  0  2  0  0  0  0  0  0  0  0  0
  -14.9550   30.2510  156.0540 C   0  0  0  0  0  0  0  0  0  0  0  0
  -16.0400   31.3190  156.2820 C   0  0  0  0  0  0  0  0  0  0  0  0
  -17.3120   30.5550  156.7030 C   0  0  2  0  0  0  0  0  0  0  0  0
  -18.0880   31.2750  157.6410 O   0  0  0  0  0  0  0  0  0  0  0  0
  -17.0334   29.1372  159.3886 H   0  0  0  0  0  0  0  0  0  0  0  0
  -15.4043   28.6423  158.8161 H   0  0  0  0  0  0  0  0  0  0  0  0
  -15.8673   30.3779  158.8161 H   0  0  0  0  0  0  0  0  0  0  0  0
  -18.5319   28.2043  157.9959 H   0  0  0  0  0  0  0  0  0  0  0  0
  -18.2897   28.0669  156.2031 H   0  0  0  0  0  0  0  0  0  0  0  0
  -16.7518   26.6151  158.4048 H   0  0  0  0  0  0  0  0  0  0  0  0
  -17.8818   25.9185  157.1489 H   0  0  0  0  0  0  0  0  0  0  0  0
  -16.3934   26.3739  155.4069 H   0  0  0  0  0  0  0  0  0  0  0  0
  -16.9692   24.0276  157.2394 H   0  0  0  0  0  0  0  0  0  0  0  0
  -15.7952   21.8456  157.4847 H   0  0  0  0  0  0  0  0  0  0  0  0
  -13.9270   20.7340  156.7510 H   0  0  0  0  0  0  0  0  0  0  0  0
  -12.1145   23.6643  156.1770 H   0  0  0  0  0  0  0  0  0  0  0  0
  -12.3438   26.4656  156.6267 H   0  0  0  0  0  0  0  0  0  0  0  0
  -12.4624   25.8408  154.9088 H   0  0  0  0  0  0  0  0  0  0  0  0
  -13.1797   28.2675  155.3339 H   0  0  0  0  0  0  0  0  0  0  0  0
  -14.2942   27.1986  154.4112 H   0  0  0  0  0  0  0  0  0  0  0  0
  -14.4516   27.7431  157.4072 H   0  0  0  0  0  0  0  0  0  0  0  0
  -16.0898   28.6786  155.1478 H   0  0  0  0  0  0  0  0  0  0  0  0
  -14.1765   30.3133  156.8286 H   0  0  0  0  0  0  0  0  0  0  0  0
  -14.4372   30.3732  155.0912 H   0  0  0  0  0  0  0  0  0  0  0  0
  -15.7310   32.0131  157.0774 H   0  0  0  0  0  0  0  0  0  0  0  0
  -16.2123   31.9163  155.3745 H   0  0  0  0  0  0  0  0  0  0  0  0
  -18.0179   30.4088  155.8721 H   0  0  0  0  0  0  0  0  0  0  0  0
  -17.8850   32.2210  157.5510 H   0  0  0  0  0  0  0  0  0  0  0  0
  2  1  1  1
  2  3  1  0
  3  4  1  0
  4  5  1  0
  5  6  1  0
  6  7  2  0
  7  8  1  0
  8  9  2  0
  9 10  1  0
  9 11  1  0
 11 12  2  0
 12 13  1  0
 13 14  1  0
 14 15  1  0
 15 16  1  0
 16 17  1  0
 17 18  1  0
 18 19  1  0
 19 20  1  0
 16  2  1  0
 19  2  1  0
 15  5  1  0
 12  6  1  0
  1 21  1  0
  1 22  1  0
  1 23  1  0
  3 24  1  0
  3 25  1  0
  4 26  1  0
  4 27  1  0
  5 28  1  6
  7 29  1  0
  8 30  1  0
 10 31  1  0
 11 32  1  0
 13 33  1  0
 13 34  1  0
 14 35  1  0
 14 36  1  0
 15 37  1  1
 16 38  1  6
 17 39  1  0
 17 40  1  0
 18 41  1  0
 18 42  1  0
 19 43  1  6
 20 44  1  0
M  END
>  <meeko>  (2) 
{"is_sidechain": [false], "free_energy": -10.239, "intermolecular_energy": -10.837, "internal_energy": 0.0}

$$$$
1qkt_ligand
     RDKit          3D

 44 47  0  0  0  0  0  0  0  0999 V2000
  -16.9270   29.6370  155.9870 C   0  0  0  0  0  0  0  0  0  0  0  0
  -16.6440   29.5400  157.5070 C   0  0  2  0  0  0  0  0  0  0  0  0
  -15.1280   29.5000  157.7370 C   0  0  0  0  0  0  0  0  0  0  0  0
  -14.5100   28.1750  157.2510 C   0  0  0  0  0  0  0  0  0  0  0  0
  -15.2200   26.9140  157.8130 C   0  0  2  0  0  0  0  0  0  0  0  0
  -14.6670   25.5810  157.3110 C   0  0  0  0  0  0  0  0  0  0  0  0
  -13.3010   25.4290  157.0110 C   0  0  0  0  0  0  0  0  0  0  0  0
  -12.7850   24.2000  156.5930 C   0  0  0  0  0  0  0  0  0  0  0  0
  -13.6230   23.1050  156.4820 C   0  0  0  0  0  0  0  0  0  0  0  0
  -13.0810   21.9250  156.0670 O   0  0  0  0  0  0  0  0  0  0  0  0
  -14.9730   23.2150  156.7920 C   0  0  0  0  0  0  0  0  0  0  0  0
  -15.5030   24.4450  157.2220 C   0  0  0  0  0  0  0  0  0  0  0  0
  -16.9810   24.5060  157.5240 C   0  0  0  0  0  0  0  0  0  0  0  0
  -17.4160   25.7730  158.2560 C   0  0  0  0  0  0  0  0  0  0  0  0
  -16.7630   26.9970  157.6080 C   0  0  1  0  0  0  0  0  0  0  0  0
  -17.2670   28.3120  158.2020 C   0  0  2  0  0  0  0  0  0  0  0  0
  -18.7620   28.6160  158.1890 C   0  0  0  0  0  0  0  0  0  0  0  0
  -18.8350   30.1430  158.3730 C   0  0  0  0  0  0  0  0  0  0  0  0
  -17.3840   30.6570  158.2710 C   0  0  2  0  0  0  0  0  0  0  0  0
  -17.3050   31.9290  157.6590 O   0  0  0  0  0  0  0  0  0  0  0  0
  -17.9566   29.9899  155.8275 H   0  0  0  0  0  0  0  0  0  0  0  0
  -16.2215   30.3446  155.5271 H   0  0  0  0  0  0  0  0  0  0  0  0
  -16.8039   28.6454  155.5271 H   0  0  0  0  0  0  0  0  0  0  0  0
  -14.6626   30.3322  157.1885 H   0  0  0  0  0  0  0  0  0  0  0  0
  -14.9439   29.5868  158.8180 H   0  0  0  0  0  0  0  0  0  0  0  0
  -14.5683   28.1464  156.1529 H   0  0  0  0  0  0  0  0  0  0  0  0
  -13.4727   28.1503  157.6161 H   0  0  0  0  0  0  0  0  0  0  0  0
  -14.9965   26.9230  158.8900 H   0  0  0  0  0  0  0  0  0  0  0  0
  -12.6273   26.2932  157.1073 H   0  0  0  0  0  0  0  0  0  0  0  0
  -11.7159   24.1033  156.3529 H   0  0  0  0  0  0  0  0  0  0  0  0
  -13.4890   21.6790  155.2210 H   0  0  0  0  0  0  0  0  0  0  0  0
  -15.6296   22.3372  156.7009 H   0  0  0  0  0  0  0  0  0  0  0  0
  -17.5305   24.4508  156.5727 H   0  0  0  0  0  0  0  0  0  0  0  0
  -17.2032   23.6613  158.1927 H   0  0  0  0  0  0  0  0  0  0  0  0
  -18.5102   25.8700  158.1992 H   0  0  0  0  0  0  0  0  0  0  0  0
  -17.1034   25.7095  159.3087 H   0  0  0  0  0  0  0  0  0  0  0  0
  -17.0275   26.9883  156.5403 H   0  0  0  0  0  0  0  0  0  0  0  0
  -16.9637   28.1457  159.2462 H   0  0  0  0  0  0  0  0  0  0  0  0
  -19.2134   28.3158  157.2319 H   0  0  0  0  0  0  0  0  0  0  0  0
  -19.3113   28.0694  158.9697 H   0  0  0  0  0  0  0  0  0  0  0  0
  -19.4556   30.5932  157.5842 H   0  0  0  0  0  0  0  0  0  0  0  0
  -19.2885   30.4098  159.3390 H   0  0  0  0  0  0  0  0  0  0  0  0
  -16.9227   30.8366  159.2533 H   0  0  0  0  0  0  0  0  0  0  0  0
  -17.1130   31.8090  156.7150 H   0  0  0  0  0  0  0  0  0  0  0  0
  2  1  1  6
  2  3  1  0
  3  4  1  0
  4  5  1  0
  5  6  1  0
  6  7  2  0
  7  8  1  0
  8  9  2  0
  9 10  1  0
  9 11  1  0
 11 12  2  0
 12 13  1  0
 13 14  1  0
 14 15  1  0
 15 16  1  0
 16 17  1  0
 17 18  1  0
 18 19  1  0
 19 20  1  0
 16  2  1  0
 19  2  1  0
 15  5  1  0
 12  6  1  0
  1 21  1  0
  1 22  1  0
  1 23  1  0
  3 24  1  0
  3 25  1  0
  4 26  1  0
  4 27  1  0
  5 28  1  1
  7 29  1  0
  8 30  1  0
 10 31  1  0
 11 32  1  0
 13 33  1  0
 13 34  1  0
 14 35  1  0
 14 36  1  0
 15 37  1  6
 16 38  1  1
 17 39  1  0
 17 40  1  0
 18 41  1  0
 18 42  1  0
 19 43  1  1
 20 44  1  0
M  END
>  <meeko>  (3) 
{"is_sidechain": [false], "free_energy": -9.067, "intermolecular_energy": -9.597, "internal_energy": 0.0}

$$$$
1qkt_ligand
     RDKit          3D

 44 47  0  0  0  0  0  0  0  0999 V2000
  -15.5810   24.7430  156.1820 C   0  0  0  0  0  0  0  0  0  0  0  0
  -14.6450   25.3130  157.2770 C   0  0  2  0  0  0  0  0  0  0  0  0
  -15.3770   25.2970  158.6250 C   0  0  0  0  0  0  0  0  0  0  0  0
  -16.5210   26.3280  158.6680 C   0  0  0  0  0  0  0  0  0  0  0  0
  -16.0830   27.7600  158.2570 C   0  0  2  0  0  0  0  0  0  0  0  0
  -17.2030   28.7990  158.2370 C   0  0  0  0  0  0  0  0  0  0  0  0
  -18.2770   28.7260  159.1430 C   0  0  0  0  0  0  0  0  0  0  0  0
  -19.2810   29.6980  159.1560 C   0  0  0  0  0  0  0  0  0  0  0  0
  -19.2160   30.7620  158.2740 C   0  0  0  0  0  0  0  0  0  0  0  0
  -20.2170   31.6870  158.3160 O   0  0  0  0  0  0  0  0  0  0  0  0
  -18.1590   30.8770  157.3820 C   0  0  0  0  0  0  0  0  0  0  0  0
  -17.1370   29.9090  157.3650 C   0  0  0  0  0  0  0  0  0  0  0  0
  -16.0250   30.0780  156.3580 C   0  0  0  0  0  0  0  0  0  0  0  0
  -14.8240   29.1670  156.5980 C   0  0  0  0  0  0  0  0  0  0  0  0
  -15.3030   27.7470  156.9080 C   0  0  1  0  0  0  0  0  0  0  0  0
  -14.1490   26.7500  157.0190 C   0  0  2  0  0  0  0  0  0  0  0  0
  -13.1840   26.5880  155.8470 C   0  0  0  0  0  0  0  0  0  0  0  0
  -12.5220   25.2200  156.0940 C   0  0  0  0  0  0  0  0  0  0  0  0
  -13.2880   24.5800  157.2700 C   0  0  2  0  0  0  0  0  0  0  0  0
  -13.3880   23.1750  157.1460 O   0  0  0  0  0  0  0  0  0  0  0  0
  -16.4286   24.2268  156.6565 H   0  0  0  0  0  0  0  0  0  0  0  0
  -15.9566   25.5658  155.5560 H   0  0  0  0  0  0  0  0  0  0  0  0
  -15.0224   24.0316  155.5560 H   0  0  0  0  0  0  0  0  0  0  0  0
  -15.7959   24.2935  158.7906 H   0  0  0  0  0  0  0  0  0  0  0  0
  -14.6523   25.5579  159.4103 H   0  0  0  0  0  0  0  0  0  0  0  0
  -17.3140   25.9964  157.9815 H   0  0  0  0  0  0  0  0  0  0  0  0
  -16.8665   26.3832  159.7109 H   0  0  0  0  0  0  0  0  0  0  0  0
  -15.4087   28.0882  159.0617 H   0  0  0  0  0  0  0  0  0  0  0  0
  -18.3273   27.8884  159.8542 H   0  0  0  0  0  0  0  0  0  0  0  0
  -20.1189   29.6175  159.8641 H   0  0  0  0  0  0  0  0  0  0  0  0
  -20.0360   32.3040  159.0430 H   0  0  0  0  0  0  0  0  0  0  0  0
  -18.1197   31.7277  156.6857 H   0  0  0  0  0  0  0  0  0  0  0  0
  -16.4286   29.8614  155.3579 H   0  0  0  0  0  0  0  0  0  0  0  0
  -15.6633   31.1123  156.4550 H   0  0  0  0  0  0  0  0  0  0  0  0
  -14.1925   29.1507  155.6975 H   0  0  0  0  0  0  0  0  0  0  0  0
  -14.2440   29.5486  157.4512 H   0  0  0  0  0  0  0  0  0  0  0  0
  -15.9452   27.4252  156.0750 H   0  0  0  0  0  0  0  0  0  0  0  0
  -13.6023   27.2250  157.8469 H   0  0  0  0  0  0  0  0  0  0  0  0
  -13.7269   26.5923  154.8903 H   0  0  0  0  0  0  0  0  0  0  0  0
  -12.4522   27.4069  155.7856 H   0  0  0  0  0  0  0  0  0  0  0  0
  -12.6035   24.5889  155.1967 H   0  0  0  0  0  0  0  0  0  0  0  0
  -11.4514   25.3271  156.3226 H   0  0  0  0  0  0  0  0  0  0  0  0
  -12.7707   24.6979  158.2336 H   0  0  0  0  0  0  0  0  0  0  0  0
  -14.1090   22.9680  156.5290 H   0  0  0  0  0  0  0  0  0  0  0  0
  2  1  1  6
  2  3  1  0
  3  4  1  0
  4  5  1  0
  5  6  1  0
  6  7  2  0
  7  8  1  0
  8  9  2  0
  9 10  1  0
  9 11  1  0
 11 12  2  0
 12 13  1  0
 13 14  1  0
 14 15  1  0
 15 16  1  0
 16 17  1  0
 17 18  1  0
 18 19  1  0
 19 20  1  0
 16  2  1  0
 19  2  1  0
 15  5  1  0
 12  6  1  0
  1 21  1  0
  1 22  1  0
  1 23  1  0
  3 24  1  0
  3 25  1  0
  4 26  1  0
  4 27  1  0
  5 28  1  1
  7 29  1  0
  8 30  1  0
 10 31  1  0
 11 32  1  0
 13 33  1  0
 13 34  1  0
 14 35  1  0
 14 36  1  0
 15 37  1  6
 16 38  1  1
 17 39  1  0
 17 40  1  0
 18 41  1  0
 18 42  1  0
 19 43  1  1
 20 44  1  0
M  END
>  <meeko>  (4) 
{"is_sidechain": [false], "free_energy": -8.488, "intermolecular_energy": -8.984, "internal_energy": 0.0}

$$$$
1qkt_ligand
     RDKit          3D

 44 47  0  0  0  0  0  0  0  0999 V2000
  -13.4920   24.3920  158.0060 C   0  0  0  0  0  0  0  0  0  0  0  0
  -14.0780   24.2740  156.5760 C   0  0  2  0  0  0  0  0  0  0  0  0
  -13.4370   25.3390  155.6780 C   0  0  0  0  0  0  0  0  0  0  0  0
  -13.9000   26.7610  156.0560 C   0  0  0  0  0  0  0  0  0  0  0  0
  -15.4430   26.9120  156.1340 C   0  0  2  0  0  0  0  0  0  0  0  0
  -15.9360   28.2950  156.5570 C   0  0  0  0  0  0  0  0  0  0  0  0
  -15.2260   29.4580  156.2080 C   0  0  0  0  0  0  0  0  0  0  0  0
  -15.6970   30.7260  156.5560 C   0  0  0  0  0  0  0  0  0  0  0  0
  -16.8910   30.8490  157.2460 C   0  0  0  0  0  0  0  0  0  0  0  0
  -17.3140   32.1040  157.5700 O   0  0  0  0  0  0  0  0  0  0  0  0
  -17.6290   29.7230  157.5870 C   0  0  0  0  0  0  0  0  0  0  0  0
  -17.1690   28.4410  157.2340 C   0  0  0  0  0  0  0  0  0  0  0  0
  -18.0050   27.2540  157.6500 C   0  0  0  0  0  0  0  0  0  0  0  0
  -17.5990   25.9420  156.9850 C   0  0  0  0  0  0  0  0  0  0  0  0
  -16.0770   25.7930  157.0150 C   0  0  1  0  0  0  0  0  0  0  0  0
  -15.6100   24.4350  156.4920 C   0  0  2  0  0  0  0  0  0  0  0  0
  -16.1380   23.1600  157.1450 C   0  0  0  0  0  0  0  0  0  0  0  0
  -15.1170   22.0810  156.7370 C   0  0  0  0  0  0  0  0  0  0  0  0
  -13.9540   22.8280  156.0540 C   0  0  2  0  0  0  0  0  0  0  0  0
  -12.7010   22.2240  156.3110 O   0  0  0  0  0  0  0  0  0  0  0  0
  -14.2914   24.2310  158.7443 H   0  0  0  0  0  0  0  0  0  0  0  0
  -12.7071   23.6339  158.1443 H   0  0  0  0  0  0  0  0  0  0  0  0
  -13.0616   25.3948  158.1443 H   0  0  0  0  0  0  0  0  0  0  0  0
  -12.3434   25.2812  155.7819 H   0  0  0  0  0  0  0  0  0  0  0  0
  -13.7464   25.1430  154.6408 H   0  0  0  0  0  0  0  0  0  0  0  0
  -13.4756   27.0152  157.0385 H   0  0  0  0  0  0  0  0  0  0  0  0
  -13.5496   27.4362  155.2615 H   0  0  0  0  0  0  0  0  0  0  0  0
  -15.7897   26.7940  155.0968 H   0  0  0  0  0  0  0  0  0  0  0  0
  -14.2821   29.3672  155.6505 H   0  0  0  0  0  0  0  0  0  0  0  0
  -15.1218   31.6230  156.2831 H   0  0  0  0  0  0  0  0  0  0  0  0
  -16.6190   32.7360  157.3260 H   0  0  0  0  0  0  0  0  0  0  0  0
  -18.5764   29.8338  158.1349 H   0  0  0  0  0  0  0  0  0  0  0  0
  -17.9135   27.1319  158.7394 H   0  0  0  0  0  0  0  0  0  0  0  0
  -19.0364   27.4652  157.3312 H   0  0  0  0  0  0  0  0  0  0  0  0
  -18.0586   25.1014  157.5256 H   0  0  0  0  0  0  0  0  0  0  0  0
  -17.9424   25.9439  155.9400 H   0  0  0  0  0  0  0  0  0  0  0  0
  -15.7569   25.8760  158.0641 H   0  0  0  0  0  0  0  0  0  0  0  0
  -16.0305   24.4977  155.4775 H   0  0  0  0  0  0  0  0  0  0  0  0
  -16.1763   23.2681  158.2390 H   0  0  0  0  0  0  0  0  0  0  0  0
  -17.1622   22.9149  156.8274 H   0  0  0  0  0  0  0  0  0  0  0  0
  -14.7553   21.5425  157.6254 H   0  0  0  0  0  0  0  0  0  0  0  0
  -15.5669   21.3368  156.0634 H   0  0  0  0  0  0  0  0  0  0  0  0
  -14.0122   22.7983  154.9559 H   0  0  0  0  0  0  0  0  0  0  0  0
  -12.0920   22.4520  155.5890 H   0  0  0  0  0  0  0  0  0  0  0  0
  2  1  1  1
  2  3  1  0
  3  4  1  0
  4  5  1  0
  5  6  1  0
  6  7  2  0
  7  8  1  0
  8  9  2  0
  9 10  1  0
  9 11  1  0
 11 12  2  0
 12 13  1  0
 13 14  1  0
 14 15  1  0
 15 16  1  0
 16 17  1  0
 17 18  1  0
 18 19  1  0
 19 20  1  0
 16  2  1  0
 19  2  1  0
 15  5  1  0
 12  6  1  0
  1 21  1  0
  1 22  1  0
  1 23  1  0
  3 24  1  0
  3 25  1  0
  4 26  1  0
  4 27  1  0
  5 28  1  6
  7 29  1  0
  8 30  1  0
 10 31  1  0
 11 32  1  0
 13 33  1  0
 13 34  1  0
 14 35  1  0
 14 36  1  0
 15 37  1  1
 16 38  1  6
 17 39  1  0
 17 40  1  0
 18 41  1  0
 18 42  1  0
 19 43  1  6
 20 44  1  0
M  END
>  <meeko>  (5) 
{"is_sidechain": [false], "free_energy": -8.485, "intermolecular_energy": -8.981, "internal_energy": 0.0}

$$$$
1qkt_ligand
     RDKit          3D

 44 47  0  0  0  0  0  0  0  0999 V2000
  -15.6040   24.8770  156.4380 C   0  0  0  0  0  0  0  0  0  0  0  0
  -14.6640   25.8160  157.2360 C   0  0  2  0  0  0  0  0  0  0  0  0
  -14.6890   25.4160  158.7170 C   0  0  0  0  0  0  0  0  0  0  0  0
  -16.0430   25.7450  159.3770 C   0  0  0  0  0  0  0  0  0  0  0  0
  -16.5000   27.2120  159.1600 C   0  0  2  0  0  0  0  0  0  0  0  0
  -17.8630   27.5610  159.7550 C   0  0  0  0  0  0  0  0  0  0  0  0
  -18.3160   26.9500  160.9390 C   0  0  0  0  0  0  0  0  0  0  0  0
  -19.5430   27.2970  161.5100 C   0  0  0  0  0  0  0  0  0  0  0  0
  -20.3260   28.2680  160.9130 C   0  0  0  0  0  0  0  0  0  0  0  0
  -21.5190   28.5760  161.4990 O   0  0  0  0  0  0  0  0  0  0  0  0
  -19.9000   28.9080  159.7560 C   0  0  0  0  0  0  0  0  0  0  0  0
  -18.6620   28.5730  159.1760 C   0  0  0  0  0  0  0  0  0  0  0  0
  -18.2630   29.2880  157.9080 C   0  0  0  0  0  0  0  0  0  0  0  0
  -16.8020   29.0870  157.5130 C   0  0  0  0  0  0  0  0  0  0  0  0
  -16.4240   27.6110  157.6540 C   0  0  1  0  0  0  0  0  0  0  0  0
  -15.0160   27.3150  157.1390 C   0  0  2  0  0  0  0  0  0  0  0  0
  -14.6550   27.6720  155.7000 C   0  0  0  0  0  0  0  0  0  0  0  0
  -13.4160   26.8080  155.4000 C   0  0  0  0  0  0  0  0  0  0  0  0
  -13.2600   25.8520  156.6000 C   0  0  2  0  0  0  0  0  0  0  0  0
  -12.7640   24.5840  156.2170 O   0  0  0  0  0  0  0  0  0  0  0  0
  -16.2042   24.2775  157.1383 H   0  0  0  0  0  0  0  0  0  0  0  0
  -16.2722   25.4790  155.8047 H   0  0  0  0  0  0  0  0  0  0  0  0
  -15.0028   24.2081  155.8047 H   0  0  0  0  0  0  0  0  0  0  0  0
  -14.5079   24.3339  158.7965 H   0  0  0  0  0  0  0  0  0  0  0  0
  -13.9070   25.9875  159.2384 H   0  0  0  0  0  0  0  0  0  0  0  0
  -16.8075   25.0765  158.9542 H   0  0  0  0  0  0  0  0  0  0  0  0
  -15.9164   25.6036  160.4605 H   0  0  0  0  0  0  0  0  0  0  0  0
  -15.7804   27.8164  159.7317 H   0  0  0  0  0  0  0  0  0  0  0  0
  -17.6923   26.1847  161.4241 H   0  0  0  0  0  0  0  0  0  0  0  0
  -19.8846   26.8002  162.4301 H   0  0  0  0  0  0  0  0  0  0  0  0
  -21.8950   27.7640  161.8750 H   0  0  0  0  0  0  0  0  0  0  0  0
  -20.5322   29.6791  159.2916 H   0  0  0  0  0  0  0  0  0  0  0  0
  -18.8966   28.9178  157.0885 H   0  0  0  0  0  0  0  0  0  0  0  0
  -18.3962   30.3638  158.0949 H   0  0  0  0  0  0  0  0  0  0  0  0
  -16.6596   29.4020  156.4687 H   0  0  0  0  0  0  0  0  0  0  0  0
  -16.1615   29.6901  158.1733 H   0  0  0  0  0  0  0  0  0  0  0  0
  -17.1321   27.0279  157.0469 H   0  0  0  0  0  0  0  0  0  0  0  0
  -14.4542   27.9842  157.8073 H   0  0  0  0  0  0  0  0  0  0  0  0
  -15.4801   27.4225  155.0167 H   0  0  0  0  0  0  0  0  0  0  0  0
  -14.4634   28.7469  155.5663 H   0  0  0  0  0  0  0  0  0  0  0  0
  -13.5654   26.2354  154.4727 H   0  0  0  0  0  0  0  0  0  0  0  0
  -12.5181   27.4280  155.2609 H   0  0  0  0  0  0  0  0  0  0  0  0
  -12.5067   26.1937  157.3251 H   0  0  0  0  0  0  0  0  0  0  0  0
  -13.3590   23.8990  156.5650 H   0  0  0  0  0  0  0  0  0  0  0  0
  2  1  1  6
  2  3  1  0
  3  4  1  0
  4  5  1  0
  5  6  1  0
  6  7  2  0
  7  8  1  0
  8  9  2  0
  9 10  1  0
  9 11  1  0
 11 12  2  0
 12 13  1  0
 13 14  1  0
 14 15  1  0
 15 16  1  0
 16 17  1  0
 17 18  1  0
 18 19  1  0
 19 20  1  0
 16  2  1  0
 19  2  1  0
 15  5  1  0
 12  6  1  0
  1 21  1  0
  1 22  1  0
  1 23  1  0
  3 24  1  0
  3 25  1  0
  4 26  1  0
  4 27  1  0
  5 28  1  1
  7 29  1  0
  8 30  1  0
 10 31  1  0
 11 32  1  0
 13 33  1  0
 13 34  1  0
 14 35  1  0
 14 36  1  0
 15 37  1  6
 16 38  1  1
 17 39  1  0
 17 40  1  0
 18 41  1  0
 18 42  1  0
 19 43  1  1
 20 44  1  0
M  END
>  <meeko>  (6) 
{"is_sidechain": [false], "free_energy": -8.021, "intermolecular_energy": -8.49, "internal_energy": 0.0}

$$$$
1qkt_ligand
     RDKit          3D

 44 47  0  0  0  0  0  0  0  0999 V2000
  -14.8100   28.5590  154.8250 C   0  0  0  0  0  0  0  0  0  0  0  0
  -14.7020   28.5470  156.3710 C   0  0  2  0  0  0  0  0  0  0  0  0
  -13.3800   27.8870  156.7800 C   0  0  0  0  0  0  0  0  0  0  0  0
  -13.3810   26.3730  156.4860 C   0  0  0  0  0  0  0  0  0  0  0  0
  -14.6120   25.6280  157.0680 C   0  0  2  0  0  0  0  0  0  0  0  0
  -14.6740   24.1350  156.7510 C   0  0  0  0  0  0  0  0  0  0  0  0
  -13.5000   23.3700  156.6280 C   0  0  0  0  0  0  0  0  0  0  0  0
  -13.5530   21.9960  156.3810 C   0  0  0  0  0  0  0  0  0  0  0  0
  -14.7800   21.3660  156.2680 C   0  0  0  0  0  0  0  0  0  0  0  0
  -14.7900   20.0250  156.0230 O   0  0  0  0  0  0  0  0  0  0  0  0
  -15.9590   22.0870  156.4060 C   0  0  0  0  0  0  0  0  0  0  0  0
  -15.9180   23.4700  156.6630 C   0  0  0  0  0  0  0  0  0  0  0  0
  -17.2330   24.2030  156.7830 C   0  0  0  0  0  0  0  0  0  0  0  0
  -17.1100   25.6150  157.3470 C   0  0  0  0  0  0  0  0  0  0  0  0
  -15.9420   26.3420  156.6770 C   0  0  1  0  0  0  0  0  0  0  0  0
  -15.8490   27.8100  157.0920 C   0  0  2  0  0  0  0  0  0  0  0  0
  -17.0510   28.7260  156.8770 C   0  0  0  0  0  0  0  0  0  0  0  0
  -16.4530   30.1440  156.9180 C   0  0  0  0  0  0  0  0  0  0  0  0
  -14.9220   29.9630  156.9430 C   0  0  2  0  0  0  0  0  0  0  0  0
  -14.2460   30.9850  156.2370 O   0  0  0  0  0  0  0  0  0  0  0  0
  -15.8638   28.6761  154.5320 H   0  0  0  0  0  0  0  0  0  0  0  0
  -14.2223   29.3974  154.4229 H   0  0  0  0  0  0  0  0  0  0  0  0
  -14.4206   27.6121  154.4229 H   0  0  0  0  0  0  0  0  0  0  0  0
  -12.5586   28.3580  156.2200 H   0  0  0  0  0  0  0  0  0  0  0  0
  -13.2497   28.0249  157.8635 H   0  0  0  0  0  0  0  0  0  0  0  0
  -13.3719   26.2305  155.3953 H   0  0  0  0  0  0  0  0  0  0  0  0
  -12.4888   25.9496  156.9706 H   0  0  0  0  0  0  0  0  0  0  0  0
  -14.4805   25.6797  158.1589 H   0  0  0  0  0  0  0  0  0  0  0  0
  -12.5217   23.8629  156.7282 H   0  0  0  0  0  0  0  0  0  0  0  0
  -12.6233   21.4173  156.2768 H   0  0  0  0  0  0  0  0  0  0  0  0
  -15.6700   19.7770  155.6970 H   0  0  0  0  0  0  0  0  0  0  0  0
  -16.9283   21.5752  156.3141 H   0  0  0  0  0  0  0  0  0  0  0  0
  -17.6843   24.2690  155.7820 H   0  0  0  0  0  0  0  0  0  0  0  0
  -17.8512   23.6315  157.4910 H   0  0  0  0  0  0  0  0  0  0  0  0
  -18.0419   26.1671  157.1552 H   0  0  0  0  0  0  0  0  0  0  0  0
  -16.9285   25.5583  158.4304 H   0  0  0  0  0  0  0  0  0  0  0  0
  -16.1123   26.3108  155.5907 H   0  0  0  0  0  0  0  0  0  0  0  0
  -15.7203   27.6655  158.1748 H   0  0  0  0  0  0  0  0  0  0  0  0
  -17.5230   28.5291  155.9031 H   0  0  0  0  0  0  0  0  0  0  0  0
  -17.8367   28.5766  157.6323 H   0  0  0  0  0  0  0  0  0  0  0  0
  -16.7556   30.7117  156.0257 H   0  0  0  0  0  0  0  0  0  0  0  0
  -16.8055   30.7031  157.7973 H   0  0  0  0  0  0  0  0  0  0  0  0
  -14.4973   30.0516  157.9538 H   0  0  0  0  0  0  0  0  0  0  0  0
  -14.0170   31.6940  156.8610 H   0  0  0  0  0  0  0  0  0  0  0  0
  2  1  1  6
  2  3  1  0
  3  4  1  0
  4  5  1  0
  5  6  1  0
  6  7  2  0
  7  8  1  0
  8  9  2  0
  9 10  1  0
  9 11  1  0
 11 12  2  0
 12 13  1  0
 13 14  1  0
 14 15  1  0
 15 16  1  0
 16 17  1  0
 17 18  1  0
 18 19  1  0
 19 20  1  0
 16  2  1  0
 19  2  1  0
 15  5  1  0
 12  6  1  0
  1 21  1  0
  1 22  1  0
  1 23  1  0
  3 24  1  0
  3 25  1  0
  4 26  1  0
  4 27  1  0
  5 28  1  1
  7 29  1  0
  8 30  1  0
 10 31  1  0
 11 32  1  0
 13 33  1  0
 13 34  1  0
 14 35  1  0
 14 36  1  0
 15 37  1  6
 16 38  1  1
 17 39  1  0
 17 40  1  0
 18 41  1  0
 18 42  1  0
 19 43  1  1
 20 44  1  0
M  END
>  <meeko>  (7) 
{"is_sidechain": [false], "free_energy": -7.877, "intermolecular_energy": -8.338, "internal_energy": 0.0}

$$$$
1qkt_ligand
     RDKit          3D

 44 47  0  0  0  0  0  0  0  0999 V2000
  -17.6840   25.7460  157.2990 C   0  0  0  0  0  0  0  0  0  0  0  0
  -16.9260   27.0400  157.6920 C   0  0  2  0  0  0  0  0  0  0  0  0
  -16.1750   26.8050  159.0080 C   0  0  0  0  0  0  0  0  0  0  0  0
  -17.1410   26.6710  160.2020 C   0  0  0  0  0  0  0  0  0  0  0  0
  -18.1610   27.8350  160.3110 C   0  0  2  0  0  0  0  0  0  0  0  0
  -19.1690   27.7090  161.4520 C   0  0  0  0  0  0  0  0  0  0  0  0
  -18.8170   27.0920  162.6660 C   0  0  0  0  0  0  0  0  0  0  0  0
  -19.7220   27.0130  163.7280 C   0  0  0  0  0  0  0  0  0  0  0  0
  -20.9850   27.5620  163.5940 C   0  0  0  0  0  0  0  0  0  0  0  0
  -21.8400   27.4600  164.6520 O   0  0  0  0  0  0  0  0  0  0  0  0
  -21.3580   28.1980  162.4170 C   0  0  0  0  0  0  0  0  0  0  0  0
  -20.4520   28.2910  161.3440 C   0  0  0  0  0  0  0  0  0  0  0  0
  -20.9230   28.9770  160.0840 C   0  0  0  0  0  0  0  0  0  0  0  0
  -19.8060   29.2950  159.0940 C   0  0  0  0  0  0  0  0  0  0  0  0
  -18.8800   28.0850  158.9500 C   0  0  1  0  0  0  0  0  0  0  0  0
  -17.8210   28.2840  157.8660 C   0  0  2  0  0  0  0  0  0  0  0  0
  -18.2600   28.6080  156.4410 C   0  0  0  0  0  0  0  0  0  0  0  0
  -17.0380   28.2400  155.5800 C   0  0  0  0  0  0  0  0  0  0  0  0
  -16.0460   27.5310  156.5250 C   0  0  2  0  0  0  0  0  0  0  0  0
  -15.3200   26.5070  155.8740 O   0  0  0  0  0  0  0  0  0  0  0  0
  -17.9962   25.2131  158.2093 H   0  0  0  0  0  0  0  0  0  0  0  0
  -18.5718   26.0073  156.7044 H   0  0  0  0  0  0  0  0  0  0  0  0
  -17.0219   25.0994  156.7044 H   0  0  0  0  0  0  0  0  0  0  0  0
  -15.5855   25.8804  158.9214 H   0  0  0  0  0  0  0  0  0  0  0  0
  -15.5243   27.6730  159.1902 H   0  0  0  0  0  0  0  0  0  0  0  0
  -17.6988   25.7291  160.0937 H   0  0  0  0  0  0  0  0  0  0  0  0
  -16.5287   26.6927  161.1156 H   0  0  0  0  0  0  0  0  0  0  0  0
  -17.5540   28.7156  160.5679 H   0  0  0  0  0  0  0  0  0  0  0  0
  -17.8105   26.6636  162.7817 H   0  0  0  0  0  0  0  0  0  0  0  0
  -19.4317   26.5168  164.6658 H   0  0  0  0  0  0  0  0  0  0  0  0
  -21.3360   27.1700  165.4280 H   0  0  0  0  0  0  0  0  0  0  0  0
  -22.3650   28.6305  162.3231 H   0  0  0  0  0  0  0  0  0  0  0  0
  -21.6510   28.3207  159.5846 H   0  0  0  0  0  0  0  0  0  0  0  0
  -21.3593   29.9392  160.3903 H   0  0  0  0  0  0  0  0  0  0  0  0
  -20.2443   29.5379  158.1148 H   0  0  0  0  0  0  0  0  0  0  0  0
  -19.2264   30.1535  159.4642 H   0  0  0  0  0  0  0  0  0  0  0  0
  -19.5008   27.2249  158.6586 H   0  0  0  0  0  0  0  0  0  0  0  0
  -17.3284   29.1755  158.2813 H   0  0  0  0  0  0  0  0  0  0  0  0
  -19.1349   28.0056  156.1552 H   0  0  0  0  0  0  0  0  0  0  0  0
  -18.5610   29.6591  156.3202 H   0  0  0  0  0  0  0  0  0  0  0  0
  -17.3356   27.5657  154.7634 H   0  0  0  0  0  0  0  0  0  0  0  0
  -16.5872   29.1320  155.1204 H   0  0  0  0  0  0  0  0  0  0  0  0
  -15.2473   28.1959  156.8855 H   0  0  0  0  0  0  0  0  0  0  0  0
  -14.3750   26.7290  155.9030 H   0  0  0  0  0  0  0  0  0  0  0  0
  2  1  1  6
  2  3  1  0
  3  4  1  0
  4  5  1  0
  5  6  1  0
  6  7  2  0
  7  8  1  0
  8  9  2  0
  9 10  1  0
  9 11  1  0
 11 12  2  0
 12 13  1  0
 13 14  1  0
 14 15  1  0
 15 16  1  0
 16 17  1  0
 17 18  1  0
 18 19  1  0
 19 20  1  0
 16  2  1  0
 19  2  1  0
 15  5  1  0
 12  6  1  0
  1 21  1  0
  1 22  1  0
  1 23  1  0
  3 24  1  0
  3 25  1  0
  4 26  1  0
  4 27  1  0
  5 28  1  1
  7 29  1  0
  8 30  1  0
 10 31  1  0
 11 32  1  0
 13 33  1  0
 13 34  1  0
 14 35  1  0
 14 36  1  0
 15 37  1  6
 16 38  1  1
 17 39  1  0
 17 40  1  0
 18 41  1  0
 18 42  1  0
 19 43  1  1
 20 44  1  0
M  END
>  <meeko>  (8) 
{"is_sidechain": [false], "free_energy": -7.753, "intermolecular_energy": -8.206, "internal_energy": 0.0}

$$$$
