3bv9_ligand
     RDKit          3D

 95 98  0  0  0  0  0  0  0  0999 V2000
   13.3050   17.9870   22.9670 C   0  0  0  0  0  0  0  0  0  0  0  0
   12.0210   18.7220   22.7150 C   0  0  0  0  0  0  0  0  0  0  0  0
   12.0390   19.9370   22.2520 N   0  0  0  0  0  0  0  0  0  0  0  0
   10.8150   20.5380   22.0560 C   0  0  0  0  0  0  0  0  0  0  0  0
   10.1140   20.9500   22.9770 O   0  0  0  0  0  0  0  0  0  0  0  0
   10.3710   20.7060   20.5820 C   0  0  2  0  0  0  0  0  0  0  0  0
    8.8560   20.5240   20.4720 C   0  0  0  0  0  0  0  0  0  0  0  0
    8.6990   19.0370   20.1680 C   0  0  0  0  0  0  0  0  0  0  0  0
    9.8900   18.7310   19.2770 C   0  0  0  0  0  0  0  0  0  0  0  0
   10.9020   19.7080   19.6400 N   0  0  0  0  0  0  0  0  0  0  0  0
   12.1690   19.6380   19.1050 C   0  0  0  0  0  0  0  0  0  0  0  0
   12.9590   20.5860   19.1990 O   0  0  0  0  0  0  0  0  0  0  0  0
   12.5910   18.3290   18.3890 C   0  0  2  0  0  0  0  0  0  0  0  0
   13.3510   17.3600   19.2890 C   0  0  0  0  0  0  0  0  0  0  0  0
   14.8260   17.7040   19.0970 C   0  0  2  0  0  0  0  0  0  0  0  0
   15.3430   18.6780   20.1600 C   0  0  0  0  0  0  0  0  0  0  0  0
   16.7990   19.0640   19.9150 C   0  0  0  0  0  0  0  0  0  0  0  0
   17.1600   19.1450   18.4340 C   0  0  0  0  0  0  0  0  0  0  0  0
   15.9440   19.4000   17.5480 C   0  0  0  0  0  0  0  0  0  0  0  0
   14.9130   18.2690   17.6610 C   0  0  2  0  0  0  0  0  0  0  0  0
   13.5310   18.6370   17.2980 N   0  0  0  0  0  0  0  0  0  0  0  0
   13.0100   19.1580   16.1390 C   0  0  0  0  0  0  0  0  0  0  0  0
   12.2370   18.4970   15.4290 O   0  0  0  0  0  0  0  0  0  0  0  0
   13.3370   20.5900   15.6860 C   0  0  2  0  0  0  0  0  0  0  0  0
   12.0690   21.3080   15.2880 N   0  0  0  0  0  0  0  0  0  0  0  0
   14.3740   20.6430   14.5440 C   0  0  0  0  0  0  0  0  0  0  0  0
   14.5390   19.4690   13.6050 C   0  0  0  0  0  0  0  0  0  0  0  0
   13.8850   19.1780   12.4730 C   0  0  0  0  0  0  0  0  0  0  0  0
   12.8000   19.8140   11.9200 N   0  0  0  0  0  0  0  0  0  0  0  0
   11.4910   19.6090   12.2360 C   0  0  0  0  0  0  0  0  0  0  0  0
   11.0500   18.5420   12.7970 N   0  0  0  0  0  0  0  0  0  0  0  0
   10.6930   20.6250   11.8480 N   0  0  0  0  0  0  0  0  0  0  0  0
   10.7580   17.9440   23.0370 C   0  0  0  0  0  0  0  0  0  0  0  0
   10.3980   17.0700   22.2670 O   0  0  0  0  0  0  0  0  0  0  0  0
   10.1410   18.3360   24.1950 N   0  0  0  0  0  0  0  0  0  0  0  0
    8.8680   17.7560   24.6140 C   0  0  1  0  0  0  0  0  0  0  0  0
    9.0600   16.5650   25.5670 C   0  0  0  0  0  0  0  0  0  0  0  0
    8.5460   15.2430   25.0400 C   0  0  0  0  0  0  0  0  0  0  0  0
    7.2930   14.7640   25.4460 C   0  0  0  0  0  0  0  0  0  0  0  0
    6.8070   13.5460   24.9640 C   0  0  0  0  0  0  0  0  0  0  0  0
    7.5660   12.7800   24.0740 C   0  0  0  0  0  0  0  0  0  0  0  0
    7.0280   11.4920   23.5250 C   0  0  0  0  0  0  0  0  0  0  0  0
    8.8060   13.2680   23.6500 C   0  0  0  0  0  0  0  0  0  0  0  0
    9.2920   14.4870   24.1290 C   0  0  0  0  0  0  0  0  0  0  0  0
    8.0970   18.8610   25.3510 C   0  0  0  0  0  0  0  0  0  0  0  0
    6.8030   18.5800   25.6780 N   0  0  0  0  0  0  0  0  0  0  0  0
    8.6190   19.9210   25.6950 O   0  0  0  0  0  0  0  0  0  0  0  0
   13.4676   17.8939   24.0509 H   0  0  0  0  0  0  0  0  0  0  0  0
   13.2481   16.9847   22.5174 H   0  0  0  0  0  0  0  0  0  0  0  0
   14.1405   18.5436   22.5174 H   0  0  0  0  0  0  0  0  0  0  0  0
   10.7489   21.7046   20.3176 H   0  0  0  0  0  0  0  0  0  0  0  0
    8.3584   20.7871   21.4171 H   0  0  0  0  0  0  0  0  0  0  0  0
    8.4007   21.1691   19.7061 H   0  0  0  0  0  0  0  0  0  0  0  0
    8.7352   18.4407   21.0916 H   0  0  0  0  0  0  0  0  0  0  0  0
    7.7359   18.7953   19.6947 H   0  0  0  0  0  0  0  0  0  0  0  0
   10.2565   17.7103   19.4609 H   0  0  0  0  0  0  0  0  0  0  0  0
    9.6290   18.7883   18.2099 H   0  0  0  0  0  0  0  0  0  0  0  0
   11.6489   17.8734   18.0501 H   0  0  0  0  0  0  0  0  0  0  0  0
   13.0567   17.4987   20.3398 H   0  0  0  0  0  0  0  0  0  0  0  0
   13.1381   16.3112   19.0345 H   0  0  0  0  0  0  0  0  0  0  0  0
   15.4747   16.8243   19.2209 H   0  0  0  0  0  0  0  0  0  0  0  0
   14.7252   19.5879   20.1397 H   0  0  0  0  0  0  0  0  0  0  0  0
   15.2815   18.1799   21.1388 H   0  0  0  0  0  0  0  0  0  0  0  0
   16.9817   20.0471   20.3734 H   0  0  0  0  0  0  0  0  0  0  0  0
   17.4247   18.2768   20.3608 H   0  0  0  0  0  0  0  0  0  0  0  0
   17.8788   19.9652   18.2907 H   0  0  0  0  0  0  0  0  0  0  0  0
   17.5886   18.1751   18.1414 H   0  0  0  0  0  0  0  0  0  0  0  0
   15.4716   20.3450   17.8542 H   0  0  0  0  0  0  0  0  0  0  0  0
   16.2850   19.4504   16.5034 H   0  0  0  0  0  0  0  0  0  0  0  0
   15.2938   17.5325   16.9381 H   0  0  0  0  0  0  0  0  0  0  0  0
   13.7976   21.1010   16.5443 H   0  0  0  0  0  0  0  0  0  0  0  0
   11.5230   21.6620   16.0780 H   0  0  0  0  0  0  0  0  0  0  0  0
   11.4850   20.7200   14.6830 H   0  0  0  0  0  0  0  0  0  0  0  0
   12.3270   22.1270   14.7040 H   0  0  0  0  0  0  0  0  0  0  0  0
   14.1133   21.5113   13.9210 H   0  0  0  0  0  0  0  0  0  0  0  0
   15.3337   20.6685   15.0809 H   0  0  0  0  0  0  0  0  0  0  0  0
   15.3136   18.7442   13.8958 H   0  0  0  0  0  0  0  0  0  0  0  0
   14.2680   18.3137   11.9105 H   0  0  0  0  0  0  0  0  0  0  0  0
   12.9860   20.7760   11.6370 H   0  0  0  0  0  0  0  0  0  0  0  0
   10.0440   18.6200   12.9620 H   0  0  0  0  0  0  0  0  0  0  0  0
   10.9720   21.1430   11.0190 H   0  0  0  0  0  0  0  0  0  0  0  0
    9.6950   20.4580   11.8830 H   0  0  0  0  0  0  0  0  0  0  0  0
   10.3640   19.2450   24.5920 H   0  0  0  0  0  0  0  0  0  0  0  0
    8.3299   17.3839   23.7297 H   0  0  0  0  0  0  0  0  0  0  0  0
   10.1360   16.4581   25.7690 H   0  0  0  0  0  0  0  0  0  0  0  0
    8.4703   16.7903   26.4678 H   0  0  0  0  0  0  0  0  0  0  0  0
    6.6867   15.3523   26.1505 H   0  0  0  0  0  0  0  0  0  0  0  0
    5.8189   13.1867   25.2874 H   0  0  0  0  0  0  0  0  0  0  0  0
    6.7502   10.8269   24.3559 H   0  0  0  0  0  0  0  0  0  0  0  0
    6.1409   11.6984   22.9082 H   0  0  0  0  0  0  0  0  0  0  0  0
    7.7984   11.0061   22.9082 H   0  0  0  0  0  0  0  0  0  0  0  0
    9.4041   12.6868   22.9328 H   0  0  0  0  0  0  0  0  0  0  0  0
   10.2702   14.8559   23.7868 H   0  0  0  0  0  0  0  0  0  0  0  0
    6.2730   19.3390   26.0930 H   0  0  0  0  0  0  0  0  0  0  0  0
    6.2730   17.8690   25.1920 H   0  0  0  0  0  0  0  0  0  0  0  0
  1  2  1  0
  2  3  2  0
  3  4  1  0
  4  5  2  0
  4  6  1  0
  6  7  1  0
  7  8  1  0
  8  9  1  0
  9 10  1  0
 10 11  1  0
 11 12  2  0
 11 13  1  0
 13 14  1  0
 14 15  1  0
 15 16  1  0
 16 17  1  0
 17 18  1  0
 18 19  1  0
 19 20  1  0
 20 21  1  0
 21 22  1  0
 22 23  2  0
 22 24  1  0
 24 25  1  0
 24 26  1  0
 26 27  1  0
 27 28  2  0
 28 29  1  0
 29 30  1  0
 30 31  2  3
 30 32  1  0
  2 33  1  0
 33 34  2  0
 33 35  1  0
 35 36  1  0
 36 37  1  0
 37 38  1  0
 38 39  2  0
 39 40  1  0
 40 41  2  0
 41 42  1  0
 41 43  1  0
 43 44  2  0
 36 45  1  0
 45 46  1  0
 45 47  2  0
 10  6  1  0
 21 13  1  0
 44 38  1  0
 20 15  1  0
  1 48  1  0
  1 49  1  0
  1 50  1  0
  6 51  1  6
  7 52  1  0
  7 53  1  0
  8 54  1  0
  8 55  1  0
  9 56  1  0
  9 57  1  0
 13 58  1  6
 14 59  1  0
 14 60  1  0
 15 61  1  6
 16 62  1  0
 16 63  1  0
 17 64  1  0
 17 65  1  0
 18 66  1  0
 18 67  1  0
 19 68  1  0
 19 69  1  0
 20 70  1  6
 24 71  1  1
 25 72  1  0
 25 73  1  0
 25 74  1  0
 26 75  1  0
 26 76  1  0
 27 77  1  0
 28 78  1  0
 29 79  1  0
 31 80  1  0
 32 81  1  0
 32 82  1  0
 35 83  1  0
 36 84  1  6
 37 85  1  0
 37 86  1  0
 39 87  1  0
 40 88  1  0
 42 89  1  0
 42 90  1  0
 42 91  1  0
 43 92  1  0
 44 93  1  0
 46 94  1  0
 46 95  1  0
M  CHG  1  25   1
M  END
>  <meeko>  (1) 
{"is_sidechain": [false], "free_energy": -9.477, "intermolecular_energy": -17.51, "internal_energy": -2.873}

$$$$
3bv9_ligand
     RDKit          3D

 95 98  0  0  0  0  0  0  0  0999 V2000
   17.0470   19.2380   19.5250 C   0  0  0  0  0  0  0  0  0  0  0  0
   16.0210   18.8410   18.5050 C   0  0  0  0  0  0  0  0  0  0  0  0
   16.2430   19.0360   17.2380 N   0  0  0  0  0  0  0  0  0  0  0  0
   15.2450   18.6470   16.3720 C   0  0  0  0  0  0  0  0  0  0  0  0
   14.7630   17.5170   16.3680 O   0  0  0  0  0  0  0  0  0  0  0  0
   14.7210   19.7390   15.4060 C   0  0  2  0  0  0  0  0  0  0  0  0
   14.9350   21.1220   16.0230 C   0  0  0  0  0  0  0  0  0  0  0  0
   13.6250   21.3890   16.7580 C   0  0  0  0  0  0  0  0  0  0  0  0
   12.5780   20.7600   15.8550 C   0  0  0  0  0  0  0  0  0  0  0  0
   13.2750   19.7070   15.1360 N   0  0  0  0  0  0  0  0  0  0  0  0
   12.5860   18.8450   14.3130 C   0  0  0  0  0  0  0  0  0  0  0  0
   11.4790   18.3970   14.6350 O   0  0  0  0  0  0  0  0  0  0  0  0
   13.2290   18.4540   12.9570 C   0  0  2  0  0  0  0  0  0  0  0  0
   13.0270   19.4980   11.8640 C   0  0  0  0  0  0  0  0  0  0  0  0
   11.7430   19.0860   11.1460 C   0  0  2  0  0  0  0  0  0  0  0  0
   10.5090   19.8090   11.6940 C   0  0  0  0  0  0  0  0  0  0  0  0
    9.2270   19.3370   11.0120 C   0  0  0  0  0  0  0  0  0  0  0  0
    9.2540   17.8580   10.6350 C   0  0  0  0  0  0  0  0  0  0  0  0
   10.2330   17.0550   11.4860 C   0  0  0  0  0  0  0  0  0  0  0  0
   11.6750   17.5510   11.3150 C   0  0  2  0  0  0  0  0  0  0  0  0
   12.5870   17.2370   12.4320 N   0  0  0  0  0  0  0  0  0  0  0  0
   12.9420   16.0380   12.9980 C   0  0  0  0  0  0  0  0  0  0  0  0
   12.1870   15.4530   13.7890 O   0  0  0  0  0  0  0  0  0  0  0  0
   14.2760   15.3530   12.6550 C   0  0  2  0  0  0  0  0  0  0  0  0
   14.0190   13.9720   12.1010 N   0  0  0  0  0  0  0  0  0  0  0  0
   15.2490   15.2890   13.8500 C   0  0  0  0  0  0  0  0  0  0  0  0
   16.7430   15.2900   13.6210 C   0  0  0  0  0  0  0  0  0  0  0  0
   17.5600   14.2830   13.2860 C   0  0  0  0  0  0  0  0  0  0  0  0
   17.2720   12.9440   13.1750 N   0  0  0  0  0  0  0  0  0  0  0  0
   17.0850   12.2480   12.0190 C   0  0  0  0  0  0  0  0  0  0  0  0
   16.7660   12.7900   10.9010 N   0  0  0  0  0  0  0  0  0  0  0  0
   17.2190   10.9160   12.1830 N   0  0  0  0  0  0  0  0  0  0  0  0
   14.7560   18.2170   19.0690 C   0  0  0  0  0  0  0  0  0  0  0  0
   14.8140   17.0840   19.5150 O   0  0  0  0  0  0  0  0  0  0  0  0
   13.6550   19.0280   19.0000 N   0  0  0  0  0  0  0  0  0  0  0  0
   12.3370   18.5580   19.4170 C   0  0  1  0  0  0  0  0  0  0  0  0
   11.5020   19.6750   20.0650 C   0  0  0  0  0  0  0  0  0  0  0  0
   10.7170   19.2510   21.2860 C   0  0  0  0  0  0  0  0  0  0  0  0
   11.2260   18.2630   22.1420 C   0  0  0  0  0  0  0  0  0  0  0  0
   10.5110   17.8660   23.2740 C   0  0  0  0  0  0  0  0  0  0  0  0
    9.2710   18.4410   23.5700 C   0  0  0  0  0  0  0  0  0  0  0  0
    8.5230   18.0440   24.8070 C   0  0  0  0  0  0  0  0  0  0  0  0
    8.7740   19.4430   22.7310 C   0  0  0  0  0  0  0  0  0  0  0  0
    9.4890   19.8440   21.5990 C   0  0  0  0  0  0  0  0  0  0  0  0
   11.6170   18.0740   18.1500 C   0  0  0  0  0  0  0  0  0  0  0  0
   12.1890   17.0240   17.4930 N   0  0  0  0  0  0  0  0  0  0  0  0
   10.5480   18.5490   17.7690 O   0  0  0  0  0  0  0  0  0  0  0  0
   16.6402   19.0806   20.5348 H   0  0  0  0  0  0  0  0  0  0  0  0
   17.9507   18.6246   19.3940 H   0  0  0  0  0  0  0  0  0  0  0  0
   17.3025   20.2999   19.3940 H   0  0  0  0  0  0  0  0  0  0  0  0
   15.2768   19.5433   14.4771 H   0  0  0  0  0  0  0  0  0  0  0  0
   15.7839   21.1137   16.7225 H   0  0  0  0  0  0  0  0  0  0  0  0
   15.1724   21.8932   15.2754 H   0  0  0  0  0  0  0  0  0  0  0  0
   13.6263   20.9129   17.7497 H   0  0  0  0  0  0  0  0  0  0  0  0
   13.4464   22.4589   16.9409 H   0  0  0  0  0  0  0  0  0  0  0  0
   11.7560   20.3395   16.4528 H   0  0  0  0  0  0  0  0  0  0  0  0
   12.1299   21.4963   15.1715 H   0  0  0  0  0  0  0  0  0  0  0  0
   14.3007   18.3337   13.1738 H   0  0  0  0  0  0  0  0  0  0  0  0
   12.9179   20.5003   12.3039 H   0  0  0  0  0  0  0  0  0  0  0  0
   13.8847   19.5438   11.1768 H   0  0  0  0  0  0  0  0  0  0  0  0
   11.7534   19.3709   10.0836 H   0  0  0  0  0  0  0  0  0  0  0  0
   10.4313   19.6127   12.7735 H   0  0  0  0  0  0  0  0  0  0  0  0
   10.6262   20.8846   11.4957 H   0  0  0  0  0  0  0  0  0  0  0  0
    8.3836   19.5075   11.6973 H   0  0  0  0  0  0  0  0  0  0  0  0
    9.1242   19.9098   10.0785 H   0  0  0  0  0  0  0  0  0  0  0  0
    8.2451   17.4412   10.7703 H   0  0  0  0  0  0  0  0  0  0  0  0
    9.5848   17.7863    9.5884 H   0  0  0  0  0  0  0  0  0  0  0  0
    9.9466   17.1501   12.5438 H   0  0  0  0  0  0  0  0  0  0  0  0
   10.1907   16.0058   11.1583 H   0  0  0  0  0  0  0  0  0  0  0  0
   12.0041   17.0095   10.4158 H   0  0  0  0  0  0  0  0  0  0  0  0
   14.7686   15.9719   11.8906 H   0  0  0  0  0  0  0  0  0  0  0  0
   14.1740   13.2150   12.7720 H   0  0  0  0  0  0  0  0  0  0  0  0
   14.5640   13.8090   11.2460 H   0  0  0  0  0  0  0  0  0  0  0  0
   13.0260   13.9180   11.8050 H   0  0  0  0  0  0  0  0  0  0  0  0
   15.0265   16.1591   14.4851 H   0  0  0  0  0  0  0  0  0  0  0  0
   15.0626   14.2891   14.2688 H   0  0  0  0  0  0  0  0  0  0  0  0
   17.2339   16.2661   13.7489 H   0  0  0  0  0  0  0  0  0  0  0  0
   18.6011   14.5657   13.0709 H   0  0  0  0  0  0  0  0  0  0  0  0
   17.6810   12.3720   13.9130 H   0  0  0  0  0  0  0  0  0  0  0  0
   16.7060   12.0800   10.1680 H   0  0  0  0  0  0  0  0  0  0  0  0
   16.9650   10.5320   13.0910 H   0  0  0  0  0  0  0  0  0  0  0  0
   16.9140   10.3300   11.4160 H   0  0  0  0  0  0  0  0  0  0  0  0
   13.6610   19.8180   18.3610 H   0  0  0  0  0  0  0  0  0  0  0  0
   12.4557   17.7613   20.1661 H   0  0  0  0  0  0  0  0  0  0  0  0
   12.1847   20.4851   20.3611 H   0  0  0  0  0  0  0  0  0  0  0  0
   10.7619   19.9854   19.3127 H   0  0  0  0  0  0  0  0  0  0  0  0
   12.1971   17.7968   21.9195 H   0  0  0  0  0  0  0  0  0  0  0  0
   10.9267   17.0943   23.9386 H   0  0  0  0  0  0  0  0  0  0  0  0
    9.0959   18.3481   25.6954 H   0  0  0  0  0  0  0  0  0  0  0  0
    7.5410   18.5396   24.8166 H   0  0  0  0  0  0  0  0  0  0  0  0
    8.3832   16.9530   24.8166 H   0  0  0  0  0  0  0  0  0  0  0  0
    7.8108   19.9204   22.9641 H   0  0  0  0  0  0  0  0  0  0  0  0
    9.0828   20.6326   20.9486 H   0  0  0  0  0  0  0  0  0  0  0  0
   11.7580   16.7580   16.6150 H   0  0  0  0  0  0  0  0  0  0  0  0
   13.1680   16.7970   17.6040 H   0  0  0  0  0  0  0  0  0  0  0  0
  1  2  1  0
  2  3  2  0
  3  4  1  0
  4  5  2  0
  4  6  1  0
  6  7  1  0
  7  8  1  0
  8  9  1  0
  9 10  1  0
 10 11  1  0
 11 12  2  0
 11 13  1  0
 13 14  1  0
 14 15  1  0
 15 16  1  0
 16 17  1  0
 17 18  1  0
 18 19  1  0
 19 20  1  0
 20 21  1  0
 21 22  1  0
 22 23  2  0
 22 24  1  0
 24 25  1  0
 24 26  1  0
 26 27  1  0
 27 28  2  0
 28 29  1  0
 29 30  1  0
 30 31  2  3
 30 32  1  0
  2 33  1  0
 33 34  2  0
 33 35  1  0
 35 36  1  0
 36 37  1  0
 37 38  1  0
 38 39  2  0
 39 40  1  0
 40 41  2  0
 41 42  1  0
 41 43  1  0
 43 44  2  0
 36 45  1  0
 45 46  1  0
 45 47  2  0
 10  6  1  0
 21 13  1  0
 44 38  1  0
 20 15  1  0
  1 48  1  0
  1 49  1  0
  1 50  1  0
  6 51  1  6
  7 52  1  0
  7 53  1  0
  8 54  1  0
  8 55  1  0
  9 56  1  0
  9 57  1  0
 13 58  1  1
 14 59  1  0
 14 60  1  0
 15 61  1  6
 16 62  1  0
 16 63  1  0
 17 64  1  0
 17 65  1  0
 18 66  1  0
 18 67  1  0
 19 68  1  0
 19 69  1  0
 20 70  1  6
 24 71  1  6
 25 72  1  0
 25 73  1  0
 25 74  1  0
 26 75  1  0
 26 76  1  0
 27 77  1  0
 28 78  1  0
 29 79  1  0
 31 80  1  0
 32 81  1  0
 32 82  1  0
 35 83  1  0
 36 84  1  1
 37 85  1  0
 37 86  1  0
 39 87  1  0
 40 88  1  0
 42 89  1  0
 42 90  1  0
 42 91  1  0
 43 92  1  0
 44 93  1  0
 46 94  1  0
 46 95  1  0
M  CHG  1  25   1
M  END
>  <meeko>  (2) 
{"is_sidechain": [false], "free_energy": -9.417, "intermolecular_energy": -17.193, "internal_energy": -3.079}

$$$$
3bv9_ligand
     RDKit          3D

 95 98  0  0  0  0  0  0  0  0999 V2000
   17.5130   19.1110   19.0690 C   0  0  0  0  0  0  0  0  0  0  0  0
   16.2730   18.8220   18.2740 C   0  0  0  0  0  0  0  0  0  0  0  0
   16.2920   18.8970   16.9760 N   0  0  0  0  0  0  0  0  0  0  0  0
   15.1090   18.6210   16.3270 C   0  0  0  0  0  0  0  0  0  0  0  0
   14.4900   17.5710   16.4780 O   0  0  0  0  0  0  0  0  0  0  0  0
   14.5640   19.7400   15.4050 C   0  0  2  0  0  0  0  0  0  0  0  0
   14.7640   21.1030   16.0700 C   0  0  0  0  0  0  0  0  0  0  0  0
   13.4560   21.3260   16.8220 C   0  0  0  0  0  0  0  0  0  0  0  0
   12.4110   20.7150   15.9040 C   0  0  0  0  0  0  0  0  0  0  0  0
   13.1170   19.6980   15.1430 N   0  0  0  0  0  0  0  0  0  0  0  0
   12.4330   18.8570   14.2940 C   0  0  0  0  0  0  0  0  0  0  0  0
   11.3130   18.4210   14.5860 O   0  0  0  0  0  0  0  0  0  0  0  0
   13.1000   18.4740   12.9460 C   0  0  2  0  0  0  0  0  0  0  0  0
   12.8940   19.5130   11.8490 C   0  0  0  0  0  0  0  0  0  0  0  0
   11.6260   19.0780   11.1160 C   0  0  2  0  0  0  0  0  0  0  0  0
   10.3730   19.7810   11.6470 C   0  0  0  0  0  0  0  0  0  0  0  0
    9.1090   19.2870   10.9500 C   0  0  0  0  0  0  0  0  0  0  0  0
    9.1650   17.8070   10.5760 C   0  0  0  0  0  0  0  0  0  0  0  0
   10.1470   17.0220   11.4410 C   0  0  0  0  0  0  0  0  0  0  0  0
   11.5820   17.5430   11.2870 C   0  0  2  0  0  0  0  0  0  0  0  0
   12.4850   17.2470   12.4160 N   0  0  0  0  0  0  0  0  0  0  0  0
   12.8530   16.0540   12.9890 C   0  0  0  0  0  0  0  0  0  0  0  0
   12.1010   15.4610   13.7770 O   0  0  0  0  0  0  0  0  0  0  0  0
   14.1990   15.3870   12.6570 C   0  0  2  0  0  0  0  0  0  0  0  0
   13.9640   14.0160   12.0690 N   0  0  0  0  0  0  0  0  0  0  0  0
   15.1490   15.3040   13.8690 C   0  0  0  0  0  0  0  0  0  0  0  0
   16.6470   15.2930   13.6670 C   0  0  0  0  0  0  0  0  0  0  0  0
   17.4600   14.2820   13.3340 C   0  0  0  0  0  0  0  0  0  0  0  0
   17.1610   12.9480   13.1980 N   0  0  0  0  0  0  0  0  0  0  0  0
   17.0130   12.2630   12.0300 C   0  0  0  0  0  0  0  0  0  0  0  0
   16.7460   12.8190   10.9040 N   0  0  0  0  0  0  0  0  0  0  0  0
   17.1230   10.9290   12.1870 N   0  0  0  0  0  0  0  0  0  0  0  0
   15.0510   18.4490   19.0950 C   0  0  0  0  0  0  0  0  0  0  0  0
   14.3560   19.3440   19.5460 O   0  0  0  0  0  0  0  0  0  0  0  0
   14.8710   17.1000   19.2460 N   0  0  0  0  0  0  0  0  0  0  0  0
   13.7970   16.5640   20.0780 C   0  0  1  0  0  0  0  0  0  0  0  0
   12.4880   16.3880   19.2910 C   0  0  0  0  0  0  0  0  0  0  0  0
   11.4400   17.4440   19.5600 C   0  0  0  0  0  0  0  0  0  0  0  0
   10.7990   17.4980   20.8060 C   0  0  0  0  0  0  0  0  0  0  0  0
    9.8310   18.4710   21.0660 C   0  0  0  0  0  0  0  0  0  0  0  0
    9.4800   19.4040   20.0860 C   0  0  0  0  0  0  0  0  0  0  0  0
    8.4700   20.4740   20.3800 C   0  0  0  0  0  0  0  0  0  0  0  0
   10.1350   19.3670   18.8520 C   0  0  0  0  0  0  0  0  0  0  0  0
   11.1060   18.3960   18.5900 C   0  0  0  0  0  0  0  0  0  0  0  0
   14.2650   15.1890   20.5760 C   0  0  0  0  0  0  0  0  0  0  0  0
   15.5680   15.0990   20.9710 N   0  0  0  0  0  0  0  0  0  0  0  0
   13.5060   14.2260   20.6830 O   0  0  0  0  0  0  0  0  0  0  0  0
   17.2810   19.0569   20.1429 H   0  0  0  0  0  0  0  0  0  0  0  0
   18.2872   18.3692   18.8234 H   0  0  0  0  0  0  0  0  0  0  0  0
   17.8795   20.1186   18.8234 H   0  0  0  0  0  0  0  0  0  0  0  0
   15.1161   19.5857   14.4662 H   0  0  0  0  0  0  0  0  0  0  0  0
   15.6176   21.0810   16.7634 H   0  0  0  0  0  0  0  0  0  0  0  0
   14.9862   21.9036   15.3491 H   0  0  0  0  0  0  0  0  0  0  0  0
   13.4705   20.8154   17.7962 H   0  0  0  0  0  0  0  0  0  0  0  0
   13.2644   22.3863   17.0437 H   0  0  0  0  0  0  0  0  0  0  0  0
   11.5991   20.2621   16.4920 H   0  0  0  0  0  0  0  0  0  0  0  0
   11.9481   21.4689   15.2503 H   0  0  0  0  0  0  0  0  0  0  0  0
   14.1708   18.3714   13.1759 H   0  0  0  0  0  0  0  0  0  0  0  0
   12.7625   20.5139   12.2859 H   0  0  0  0  0  0  0  0  0  0  0  0
   13.7593   19.5726   11.1724 H   0  0  0  0  0  0  0  0  0  0  0  0
   11.6448   19.3613   10.0533 H   0  0  0  0  0  0  0  0  0  0  0  0
   10.2847   19.5850   12.7258 H   0  0  0  0  0  0  0  0  0  0  0  0
   10.4747   20.8581   11.4484 H   0  0  0  0  0  0  0  0  0  0  0  0
    8.2541   19.4448   11.6240 H   0  0  0  0  0  0  0  0  0  0  0  0
    9.0091   19.8562   10.0141 H   0  0  0  0  0  0  0  0  0  0  0  0
    8.1615   17.3737   10.6998 H   0  0  0  0  0  0  0  0  0  0  0  0
    9.5095   17.7387    9.5336 H   0  0  0  0  0  0  0  0  0  0  0  0
    9.8457   17.1137   12.4950 H   0  0  0  0  0  0  0  0  0  0  0  0
   10.1270   15.9716   11.1150 H   0  0  0  0  0  0  0  0  0  0  0  0
   11.9313   17.0059   10.3928 H   0  0  0  0  0  0  0  0  0  0  0  0
   14.7008   16.0263   11.9157 H   0  0  0  0  0  0  0  0  0  0  0  0
   14.0200   13.2530   12.7480 H   0  0  0  0  0  0  0  0  0  0  0  0
   14.5950   13.8400   11.2790 H   0  0  0  0  0  0  0  0  0  0  0  0
   13.0090   13.9940   11.6630 H   0  0  0  0  0  0  0  0  0  0  0  0
   14.9229   16.1709   14.5073 H   0  0  0  0  0  0  0  0  0  0  0  0
   14.9457   14.3025   14.2761 H   0  0  0  0  0  0  0  0  0  0  0  0
   17.1450   16.2624   13.8161 H   0  0  0  0  0  0  0  0  0  0  0  0
   18.5080   14.5567   13.1438 H   0  0  0  0  0  0  0  0  0  0  0  0
   17.5320   12.3640   13.9470 H   0  0  0  0  0  0  0  0  0  0  0  0
   16.7070   12.1170   10.1630 H   0  0  0  0  0  0  0  0  0  0  0  0
   16.8280   10.5400   13.0800 H   0  0  0  0  0  0  0  0  0  0  0  0
   16.8430   10.3540   11.4030 H   0  0  0  0  0  0  0  0  0  0  0  0
   15.6540   16.4740   19.0780 H   0  0  0  0  0  0  0  0  0  0  0  0
   13.5916   17.2635   20.9018 H   0  0  0  0  0  0  0  0  0  0  0  0
   12.7283   16.4098   18.2178 H   0  0  0  0  0  0  0  0  0  0  0  0
   12.0553   15.4314   19.6193 H   0  0  0  0  0  0  0  0  0  0  0  0
   11.0608   16.7676   21.5857 H   0  0  0  0  0  0  0  0  0  0  0  0
    9.3408   18.5033   22.0502 H   0  0  0  0  0  0  0  0  0  0  0  0
    8.3627   20.5877   21.4688 H   0  0  0  0  0  0  0  0  0  0  0  0
    8.8066   21.4259   19.9433 H   0  0  0  0  0  0  0  0  0  0  0  0
    7.5003   20.1929   19.9433 H   0  0  0  0  0  0  0  0  0  0  0  0
    9.8841   20.1089   18.0796 H   0  0  0  0  0  0  0  0  0  0  0  0
   11.6118   18.3801   17.6133 H   0  0  0  0  0  0  0  0  0  0  0  0
   15.8960   14.1740   21.2230 H   0  0  0  0  0  0  0  0  0  0  0  0
   16.2670   15.7570   20.6510 H   0  0  0  0  0  0  0  0  0  0  0  0
  1  2  1  0
  2  3  2  0
  3  4  1  0
  4  5  2  0
  4  6  1  0
  6  7  1  0
  7  8  1  0
  8  9  1  0
  9 10  1  0
 10 11  1  0
 11 12  2  0
 11 13  1  0
 13 14  1  0
 14 15  1  0
 15 16  1  0
 16 17  1  0
 17 18  1  0
 18 19  1  0
 19 20  1  0
 20 21  1  0
 21 22  1  0
 22 23  2  0
 22 24  1  0
 24 25  1  0
 24 26  1  0
 26 27  1  0
 27 28  2  0
 28 29  1  0
 29 30  1  0
 30 31  2  3
 30 32  1  0
  2 33  1  0
 33 34  2  0
 33 35  1  0
 35 36  1  0
 36 37  1  0
 37 38  1  0
 38 39  2  0
 39 40  1  0
 40 41  2  0
 41 42  1  0
 41 43  1  0
 43 44  2  0
 36 45  1  0
 45 46  1  0
 45 47  2  0
 10  6  1  0
 21 13  1  0
 44 38  1  0
 20 15  1  0
  1 48  1  0
  1 49  1  0
  1 50  1  0
  6 51  1  6
  7 52  1  0
  7 53  1  0
  8 54  1  0
  8 55  1  0
  9 56  1  0
  9 57  1  0
 13 58  1  1
 14 59  1  0
 14 60  1  0
 15 61  1  6
 16 62  1  0
 16 63  1  0
 17 64  1  0
 17 65  1  0
 18 66  1  0
 18 67  1  0
 19 68  1  0
 19 69  1  0
 20 70  1  6
 24 71  1  6
 25 72  1  0
 25 73  1  0
 25 74  1  0
 26 75  1  0
 26 76  1  0
 27 77  1  0
 28 78  1  0
 29 79  1  0
 31 80  1  0
 32 81  1  0
 32 82  1  0
 35 83  1  0
 36 84  1  1
 37 85  1  0
 37 86  1  0
 39 87  1  0
 40 88  1  0
 42 89  1  0
 42 90  1  0
 42 91  1  0
 43 92  1  0
 44 93  1  0
 46 94  1  0
 46 95  1  0
M  CHG  1  25   1
M  END
>  <meeko>  (3) 
{"is_sidechain": [false], "free_energy": -9.35, "intermolecular_energy": -17.056, "internal_energy": -3.092}

$$$$
3bv9_ligand
     RDKit          3D

 95 98  0  0  0  0  0  0  0  0999 V2000
   12.3380   11.9910   17.7930 C   0  0  0  0  0  0  0  0  0  0  0  0
   13.1160   13.1490   17.2400 C   0  0  0  0  0  0  0  0  0  0  0  0
   14.0510   12.9520   16.3590 N   0  0  0  0  0  0  0  0  0  0  0  0
   14.7170   14.0710   15.9100 C   0  0  0  0  0  0  0  0  0  0  0  0
   15.7140   14.5270   16.4640 O   0  0  0  0  0  0  0  0  0  0  0  0
   14.1570   14.7220   14.6200 C   0  0  2  0  0  0  0  0  0  0  0  0
   14.5750   13.8970   13.4010 C   0  0  0  0  0  0  0  0  0  0  0  0
   15.8790   14.5550   12.9580 C   0  0  0  0  0  0  0  0  0  0  0  0
   15.6440   16.0300   13.2350 C   0  0  0  0  0  0  0  0  0  0  0  0
   14.6690   16.0660   14.3130 N   0  0  0  0  0  0  0  0  0  0  0  0
   14.3190   17.2610   14.9020 C   0  0  0  0  0  0  0  0  0  0  0  0
   13.4770   17.3090   15.8070 O   0  0  0  0  0  0  0  0  0  0  0  0
   15.0190   18.5540   14.4090 C   0  0  2  0  0  0  0  0  0  0  0  0
   15.8220   19.2640   15.4950 C   0  0  0  0  0  0  0  0  0  0  0  0
   14.8530   20.2660   16.1200 C   0  0  2  0  0  0  0  0  0  0  0  0
   14.1610   19.7100   17.3680 C   0  0  0  0  0  0  0  0  0  0  0  0
   13.1480   20.6970   17.9420 C   0  0  0  0  0  0  0  0  0  0  0  0
   12.4430   21.5280   16.8720 C   0  0  0  0  0  0  0  0  0  0  0  0
   12.4420   20.8450   15.5070 C   0  0  0  0  0  0  0  0  0  0  0  0
   13.8670   20.6200   14.9840 C   0  0  2  0  0  0  0  0  0  0  0  0
   14.0100   19.5400   13.9880 N   0  0  0  0  0  0  0  0  0  0  0  0
   13.4060   19.3490   12.7700 C   0  0  0  0  0  0  0  0  0  0  0  0
   14.0230   19.5330   11.7110 O   0  0  0  0  0  0  0  0  0  0  0  0
   11.9470   18.8710   12.6660 C   0  0  2  0  0  0  0  0  0  0  0  0
   11.6570   17.8590   13.7490 N   0  0  0  0  0  0  0  0  0  0  0  0
   11.5950   18.2990   11.2770 C   0  0  0  0  0  0  0  0  0  0  0  0
   10.4280   17.3530   11.1130 C   0  0  0  0  0  0  0  0  0  0  0  0
    9.1370   17.6160   10.8700 C   0  0  0  0  0  0  0  0  0  0  0  0
    8.5040   18.8340   10.8220 N   0  0  0  0  0  0  0  0  0  0  0  0
    7.3140   19.1070   10.2180 C   0  0  0  0  0  0  0  0  0  0  0  0
    6.8020   18.3860    9.2880 N   0  0  0  0  0  0  0  0  0  0  0  0
    6.7500   20.2490   10.6620 N   0  0  0  0  0  0  0  0  0  0  0  0
   12.7200   14.5110   17.7840 C   0  0  0  0  0  0  0  0  0  0  0  0
   11.6560   14.9920   17.4330 O   0  0  0  0  0  0  0  0  0  0  0  0
   13.6440   15.0640   18.6300 N   0  0  0  0  0  0  0  0  0  0  0  0
   13.4680   16.4060   19.1770 C   0  0  1  0  0  0  0  0  0  0  0  0
   12.5960   16.4060   20.4440 C   0  0  0  0  0  0  0  0  0  0  0  0
   11.4840   17.4300   20.4480 C   0  0  0  0  0  0  0  0  0  0  0  0
   11.0410   17.9920   19.2410 C   0  0  0  0  0  0  0  0  0  0  0  0
   10.0120   18.9370   19.2320 C   0  0  0  0  0  0  0  0  0  0  0  0
    9.4110   19.3440   20.4270 C   0  0  0  0  0  0  0  0  0  0  0  0
    8.2790   20.3280   20.4140 C   0  0  0  0  0  0  0  0  0  0  0  0
    9.8350   18.7680   21.6280 C   0  0  0  0  0  0  0  0  0  0  0  0
   10.8620   17.8210   21.6390 C   0  0  0  0  0  0  0  0  0  0  0  0
   14.8670   16.9260   19.5380 C   0  0  0  0  0  0  0  0  0  0  0  0
   15.8600   16.6620   18.6410 N   0  0  0  0  0  0  0  0  0  0  0  0
   15.0870   17.6010   20.5430 O   0  0  0  0  0  0  0  0  0  0  0  0
   12.3610   12.0253   18.8922 H   0  0  0  0  0  0  0  0  0  0  0  0
   11.2958   12.0503   17.4461 H   0  0  0  0  0  0  0  0  0  0  0  0
   12.7869   11.0486   17.4461 H   0  0  0  0  0  0  0  0  0  0  0  0
   13.0748   14.7720   14.8105 H   0  0  0  0  0  0  0  0  0  0  0  0
   14.7388   12.8445   13.6756 H   0  0  0  0  0  0  0  0  0  0  0  0
   13.8109   13.8829   12.6098 H   0  0  0  0  0  0  0  0  0  0  0  0
   16.7295   14.1756   13.5434 H   0  0  0  0  0  0  0  0  0  0  0  0
   16.1260   14.3508   11.9057 H   0  0  0  0  0  0  0  0  0  0  0  0
   16.5798   16.5179   13.5451 H   0  0  0  0  0  0  0  0  0  0  0  0
   15.2883   16.5640   12.3415 H   0  0  0  0  0  0  0  0  0  0  0  0
   15.6851   18.2253   13.5976 H   0  0  0  0  0  0  0  0  0  0  0  0
   16.1716   18.5437   16.2493 H   0  0  0  0  0  0  0  0  0  0  0  0
   16.7171   19.7571   15.0881 H   0  0  0  0  0  0  0  0  0  0  0  0
   15.3699   21.1622   16.4937 H   0  0  0  0  0  0  0  0  0  0  0  0
   13.6392   18.7792   17.1009 H   0  0  0  0  0  0  0  0  0  0  0  0
   14.9305   19.5266   18.1324 H   0  0  0  0  0  0  0  0  0  0  0  0
   12.3885   20.1320   18.5023 H   0  0  0  0  0  0  0  0  0  0  0  0
   13.7021   21.3961   18.5856 H   0  0  0  0  0  0  0  0  0  0  0  0
   11.4013   21.6941   17.1840 H   0  0  0  0  0  0  0  0  0  0  0  0
   12.9912   22.4762   16.7706 H   0  0  0  0  0  0  0  0  0  0  0  0
   11.9370   19.8718   15.5957 H   0  0  0  0  0  0  0  0  0  0  0  0
   11.9152   21.4991   14.7966 H   0  0  0  0  0  0  0  0  0  0  0  0
   14.0966   21.5850   14.5085 H   0  0  0  0  0  0  0  0  0  0  0  0
   11.3077   19.7551   12.8060 H   0  0  0  0  0  0  0  0  0  0  0  0
   11.7390   18.2270   14.7000 H   0  0  0  0  0  0  0  0  0  0  0  0
   12.2400   17.0210   13.6370 H   0  0  0  0  0  0  0  0  0  0  0  0
   10.6800   17.5280   13.6320 H   0  0  0  0  0  0  0  0  0  0  0  0
   11.3977   19.1602   10.6217 H   0  0  0  0  0  0  0  0  0  0  0  0
   12.4632   17.6658   11.0417 H   0  0  0  0  0  0  0  0  0  0  0  0
   10.6764   16.2856   11.2076 H   0  0  0  0  0  0  0  0  0  0  0  0
    8.4988   16.7395   10.6841 H   0  0  0  0  0  0  0  0  0  0  0  0
    8.6660   19.4170   11.6430 H   0  0  0  0  0  0  0  0  0  0  0  0
    5.8960   18.7650    9.0050 H   0  0  0  0  0  0  0  0  0  0  0  0
    7.3790   20.9870   10.9720 H   0  0  0  0  0  0  0  0  0  0  0  0
    5.9660   20.6060   10.1310 H   0  0  0  0  0  0  0  0  0  0  0  0
   14.5970   14.7120   18.6200 H   0  0  0  0  0  0  0  0  0  0  0  0
   12.9622   17.0381   18.4323 H   0  0  0  0  0  0  0  0  0  0  0  0
   12.1434   15.4088   20.5479 H   0  0  0  0  0  0  0  0  0  0  0  0
   13.2624   16.6692   21.2787 H   0  0  0  0  0  0  0  0  0  0  0  0
   11.5081   17.6858   18.2933 H   0  0  0  0  0  0  0  0  0  0  0  0
    9.6719   19.3642   18.2771 H   0  0  0  0  0  0  0  0  0  0  0  0
    7.9955   20.5744   21.4479 H   0  0  0  0  0  0  0  0  0  0  0  0
    8.5949   21.2434   19.8923 H   0  0  0  0  0  0  0  0  0  0  0  0
    7.4164   19.8877   19.8923 H   0  0  0  0  0  0  0  0  0  0  0  0
    9.3556   19.0631   22.5731 H   0  0  0  0  0  0  0  0  0  0  0  0
   11.1848   17.3785   22.5929 H   0  0  0  0  0  0  0  0  0  0  0  0
   16.7970   16.9360   18.9180 H   0  0  0  0  0  0  0  0  0  0  0  0
   15.7870   15.9060   17.9730 H   0  0  0  0  0  0  0  0  0  0  0  0
  1  2  1  0
  2  3  2  0
  3  4  1  0
  4  5  2  0
  4  6  1  0
  6  7  1  0
  7  8  1  0
  8  9  1  0
  9 10  1  0
 10 11  1  0
 11 12  2  0
 11 13  1  0
 13 14  1  0
 14 15  1  0
 15 16  1  0
 16 17  1  0
 17 18  1  0
 18 19  1  0
 19 20  1  0
 20 21  1  0
 21 22  1  0
 22 23  2  0
 22 24  1  0
 24 25  1  0
 24 26  1  0
 26 27  1  0
 27 28  2  0
 28 29  1  0
 29 30  1  0
 30 31  2  3
 30 32  1  0
  2 33  1  0
 33 34  2  0
 33 35  1  0
 35 36  1  0
 36 37  1  0
 37 38  1  0
 38 39  2  0
 39 40  1  0
 40 41  2  0
 41 42  1  0
 41 43  1  0
 43 44  2  0
 36 45  1  0
 45 46  1  0
 45 47  2  0
 10  6  1  0
 21 13  1  0
 44 38  1  0
 20 15  1  0
  1 48  1  0
  1 49  1  0
  1 50  1  0
  6 51  1  1
  7 52  1  0
  7 53  1  0
  8 54  1  0
  8 55  1  0
  9 56  1  0
  9 57  1  0
 13 58  1  6
 14 59  1  0
 14 60  1  0
 15 61  1  1
 16 62  1  0
 16 63  1  0
 17 64  1  0
 17 65  1  0
 18 66  1  0
 18 67  1  0
 19 68  1  0
 19 69  1  0
 20 70  1  6
 24 71  1  1
 25 72  1  0
 25 73  1  0
 25 74  1  0
 26 75  1  0
 26 76  1  0
 27 77  1  0
 28 78  1  0
 29 79  1  0
 31 80  1  0
 32 81  1  0
 32 82  1  0
 35 83  1  0
 36 84  1  6
 37 85  1  0
 37 86  1  0
 39 87  1  0
 40 88  1  0
 42 89  1  0
 42 90  1  0
 42 91  1  0
 43 92  1  0
 44 93  1  0
 46 94  1  0
 46 95  1  0
M  CHG  1  25   1
M  END
>  <meeko>  (4) 
{"is_sidechain": [false], "free_energy": -9.329, "intermolecular_energy": -16.798, "internal_energy": -3.312}

$$$$
3bv9_ligand
     RDKit          3D

 95 98  0  0  0  0  0  0  0  0999 V2000
   17.4690   19.1230   18.9090 C   0  0  0  0  0  0  0  0  0  0  0  0
   16.2270   18.9220   18.0910 C   0  0  0  0  0  0  0  0  0  0  0  0
   16.2470   19.1200   16.8060 N   0  0  0  0  0  0  0  0  0  0  0  0
   15.0610   18.9170   16.1350 C   0  0  0  0  0  0  0  0  0  0  0  0
   14.4550   17.8490   16.1510 O   0  0  0  0  0  0  0  0  0  0  0  0
   14.4960   20.1400   15.3710 C   0  0  2  0  0  0  0  0  0  0  0  0
   14.6570   21.4020   16.2210 C   0  0  0  0  0  0  0  0  0  0  0  0
   13.3370   21.4870   16.9820 C   0  0  0  0  0  0  0  0  0  0  0  0
   12.3150   20.9860   15.9760 C   0  0  0  0  0  0  0  0  0  0  0  0
   13.0530   20.1020   15.0890 N   0  0  0  0  0  0  0  0  0  0  0  0
   12.3970   19.3710   14.1230 C   0  0  0  0  0  0  0  0  0  0  0  0
   11.2880   18.8680   14.3400 O   0  0  0  0  0  0  0  0  0  0  0  0
   13.0810   19.2020   12.7410 C   0  0  2  0  0  0  0  0  0  0  0  0
   12.4940   20.1010   11.6570 C   0  0  0  0  0  0  0  0  0  0  0  0
   11.3990   19.2680   10.9940 C   0  0  2  0  0  0  0  0  0  0  0  0
   10.0150   19.5380   11.5920 C   0  0  0  0  0  0  0  0  0  0  0  0
    8.9440   18.6500   10.9640 C   0  0  0  0  0  0  0  0  0  0  0  0
    9.4560   17.2620   10.5860 C   0  0  0  0  0  0  0  0  0  0  0  0
   10.6820   16.8500   11.3960 C   0  0  0  0  0  0  0  0  0  0  0  0
   11.8620   17.8040   11.1650 C   0  0  2  0  0  0  0  0  0  0  0  0
   12.8700   17.8330   12.2430 N   0  0  0  0  0  0  0  0  0  0  0  0
   13.6320   16.8330   12.7940 C   0  0  0  0  0  0  0  0  0  0  0  0
   14.8540   16.9710   12.9540 O   0  0  0  0  0  0  0  0  0  0  0  0
   13.0020   15.5100   13.2610 C   0  0  2  0  0  0  0  0  0  0  0  0
   12.7430   15.5590   14.7490 N   0  0  0  0  0  0  0  0  0  0  0  0
   13.8480   14.2730   12.8960 C   0  0  0  0  0  0  0  0  0  0  0  0
   14.5860   13.5060   13.9690 C   0  0  0  0  0  0  0  0  0  0  0  0
   15.6090   13.8860   14.7450 C   0  0  0  0  0  0  0  0  0  0  0  0
   16.3440   15.0460   14.6890 N   0  0  0  0  0  0  0  0  0  0  0  0
   16.8680   15.7270   15.7470 C   0  0  0  0  0  0  0  0  0  0  0  0
   16.4390   15.6160   16.9510 N   0  0  0  0  0  0  0  0  0  0  0  0
   17.8550   16.5730   15.3880 N   0  0  0  0  0  0  0  0  0  0  0  0
   15.0020   18.4820   18.8740 C   0  0  0  0  0  0  0  0  0  0  0  0
   14.3300   19.3330   19.4320 O   0  0  0  0  0  0  0  0  0  0  0  0
   14.7920   17.1290   18.8690 N   0  0  0  0  0  0  0  0  0  0  0  0
   13.7120   16.5230   19.6420 C   0  0  1  0  0  0  0  0  0  0  0  0
   12.3880   16.4910   18.8600 C   0  0  0  0  0  0  0  0  0  0  0  0
   11.3640   17.5110   19.3060 C   0  0  0  0  0  0  0  0  0  0  0  0
   10.9590   18.5290   18.4300 C   0  0  0  0  0  0  0  0  0  0  0  0
   10.0120   19.4750   18.8290 C   0  0  0  0  0  0  0  0  0  0  0  0
    9.4580   19.4280   20.1120 C   0  0  0  0  0  0  0  0  0  0  0  0
    8.4110   20.4190   20.5270 C   0  0  0  0  0  0  0  0  0  0  0  0
    9.8430   18.4000   20.9780 C   0  0  0  0  0  0  0  0  0  0  0  0
   10.7880   17.4510   20.5790 C   0  0  0  0  0  0  0  0  0  0  0  0
   14.1400   15.0810   19.9500 C   0  0  0  0  0  0  0  0  0  0  0  0
   13.1360   14.1880   20.1840 N   0  0  0  0  0  0  0  0  0  0  0  0
   15.3150   14.7170   19.9270 O   0  0  0  0  0  0  0  0  0  0  0  0
   17.2144   19.0818   19.9783 H   0  0  0  0  0  0  0  0  0  0  0  0
   18.1950   18.3307   18.6741 H   0  0  0  0  0  0  0  0  0  0  0  0
   17.9080   20.1039   18.6741 H   0  0  0  0  0  0  0  0  0  0  0  0
   15.0593   20.1297   14.4263 H   0  0  0  0  0  0  0  0  0  0  0  0
   15.5054   21.3040   16.9143 H   0  0  0  0  0  0  0  0  0  0  0  0
   14.8652   22.3001   15.6209 H   0  0  0  0  0  0  0  0  0  0  0  0
   13.3563   20.8457   17.8755 H   0  0  0  0  0  0  0  0  0  0  0  0
   13.1174   22.5011   17.3471 H   0  0  0  0  0  0  0  0  0  0  0  0
   11.5098   20.4364   16.4856 H   0  0  0  0  0  0  0  0  0  0  0  0
   11.8385   21.8126   15.4285 H   0  0  0  0  0  0  0  0  0  0  0  0
   14.1376   19.4548   12.9132 H   0  0  0  0  0  0  0  0  0  0  0  0
   12.0689   21.0132   12.1011 H   0  0  0  0  0  0  0  0  0  0  0  0
   13.2575   20.4254   10.9346 H   0  0  0  0  0  0  0  0  0  0  0  0
   11.2706   19.5245    9.9321 H   0  0  0  0  0  0  0  0  0  0  0  0
   10.0502   19.3427   12.6740 H   0  0  0  0  0  0  0  0  0  0  0  0
    9.7528   20.5867   11.3883 H   0  0  0  0  0  0  0  0  0  0  0  0
    8.1203   18.5343   11.6838 H   0  0  0  0  0  0  0  0  0  0  0  0
    8.6171   19.1408   10.0354 H   0  0  0  0  0  0  0  0  0  0  0  0
    8.6542   16.5301   10.7630 H   0  0  0  0  0  0  0  0  0  0  0  0
    9.7503   17.2917    9.5265 H   0  0  0  0  0  0  0  0  0  0  0  0
   10.4219   16.8570   12.4648 H   0  0  0  0  0  0  0  0  0  0  0  0
   10.9856   15.8440   11.0707 H   0  0  0  0  0  0  0  0  0  0  0  0
   12.3191   17.3942   10.2522 H   0  0  0  0  0  0  0  0  0  0  0  0
   12.0490   15.4002   12.7227 H   0  0  0  0  0  0  0  0  0  0  0  0
   12.9070   14.6720   15.2320 H   0  0  0  0  0  0  0  0  0  0  0  0
   11.7980   15.9070   14.9480 H   0  0  0  0  0  0  0  0  0  0  0  0
   13.3850   16.2580   15.1690 H   0  0  0  0  0  0  0  0  0  0  0  0
   13.1682   13.5586   12.4087 H   0  0  0  0  0  0  0  0  0  0  0  0
   14.6622   14.6991   12.2914 H   0  0  0  0  0  0  0  0  0  0  0  0
   14.2284   12.4796   14.1382 H   0  0  0  0  0  0  0  0  0  0  0  0
   15.8999   13.1749   15.5323 H   0  0  0  0  0  0  0  0  0  0  0  0
   16.9150   15.1330   13.8490 H   0  0  0  0  0  0  0  0  0  0  0  0
   16.9970   16.1980   17.5800 H   0  0  0  0  0  0  0  0  0  0  0  0
   17.8000   16.9820   14.4580 H   0  0  0  0  0  0  0  0  0  0  0  0
   18.1590   17.2390   16.0860 H   0  0  0  0  0  0  0  0  0  0  0  0
   15.5600   16.5110   18.6210 H   0  0  0  0  0  0  0  0  0  0  0  0
   13.5405   17.1156   20.5527 H   0  0  0  0  0  0  0  0  0  0  0  0
   12.6128   16.6730   17.7987 H   0  0  0  0  0  0  0  0  0  0  0  0
   11.9422   15.5026   19.0455 H   0  0  0  0  0  0  0  0  0  0  0  0
   11.3911   18.5828   17.4198 H   0  0  0  0  0  0  0  0  0  0  0  0
    9.6995   20.2633   18.1283 H   0  0  0  0  0  0  0  0  0  0  0  0
    8.3635   20.4640   21.6251 H   0  0  0  0  0  0  0  0  0  0  0  0
    8.6683   21.4121   20.1301 H   0  0  0  0  0  0  0  0  0  0  0  0
    7.4335   20.1075   20.1301 H   0  0  0  0  0  0  0  0  0  0  0  0
    9.3982   18.3377   21.9821 H   0  0  0  0  0  0  0  0  0  0  0  0
   11.0816   16.6493   21.2726 H   0  0  0  0  0  0  0  0  0  0  0  0
   13.4220   13.2570   20.4650 H   0  0  0  0  0  0  0  0  0  0  0  0
   12.2150   14.4880   20.4770 H   0  0  0  0  0  0  0  0  0  0  0  0
  1  2  1  0
  2  3  2  0
  3  4  1  0
  4  5  2  0
  4  6  1  0
  6  7  1  0
  7  8  1  0
  8  9  1  0
  9 10  1  0
 10 11  1  0
 11 12  2  0
 11 13  1  0
 13 14  1  0
 14 15  1  0
 15 16  1  0
 16 17  1  0
 17 18  1  0
 18 19  1  0
 19 20  1  0
 20 21  1  0
 21 22  1  0
 22 23  2  0
 22 24  1  0
 24 25  1  0
 24 26  1  0
 26 27  1  0
 27 28  2  0
 28 29  1  0
 29 30  1  0
 30 31  2  3
 30 32  1  0
  2 33  1  0
 33 34  2  0
 33 35  1  0
 35 36  1  0
 36 37  1  0
 37 38  1  0
 38 39  2  0
 39 40  1  0
 40 41  2  0
 41 42  1  0
 41 43  1  0
 43 44  2  0
 36 45  1  0
 45 46  1  0
 45 47  2  0
 10  6  1  0
 21 13  1  0
 44 38  1  0
 20 15  1  0
  1 48  1  0
  1 49  1  0
  1 50  1  0
  6 51  1  6
  7 52  1  0
  7 53  1  0
  8 54  1  0
  8 55  1  0
  9 56  1  0
  9 57  1  0
 13 58  1  1
 14 59  1  0
 14 60  1  0
 15 61  1  6
 16 62  1  0
 16 63  1  0
 17 64  1  0
 17 65  1  0
 18 66  1  0
 18 67  1  0
 19 68  1  0
 19 69  1  0
 20 70  1  6
 24 71  1  6
 25 72  1  0
 25 73  1  0
 25 74  1  0
 26 75  1  0
 26 76  1  0
 27 77  1  0
 28 78  1  0
 29 79  1  0
 31 80  1  0
 32 81  1  0
 32 82  1  0
 35 83  1  0
 36 84  1  1
 37 85  1  0
 37 86  1  0
 39 87  1  0
 40 88  1  0
 42 89  1  0
 42 90  1  0
 42 91  1  0
 43 92  1  0
 44 93  1  0
 46 94  1  0
 46 95  1  0
M  CHG  1  25   1
M  END
>  <meeko>  (5) 
{"is_sidechain": [false], "free_energy": -9.25, "intermolecular_energy": -15.216, "internal_energy": -4.748}

$$$$
3bv9_ligand
     RDKit          3D

 95 98  0  0  0  0  0  0  0  0999 V2000
   16.5890   19.1540   20.2150 C   0  0  0  0  0  0  0  0  0  0  0  0
   15.6360   18.8370   19.0990 C   0  0  0  0  0  0  0  0  0  0  0  0
   15.9980   18.9990   17.8600 N   0  0  0  0  0  0  0  0  0  0  0  0
   15.0590   18.6890   16.9010 C   0  0  0  0  0  0  0  0  0  0  0  0
   14.4700   17.6120   16.8610 O   0  0  0  0  0  0  0  0  0  0  0  0
   14.7490   19.8040   15.8720 C   0  0  2  0  0  0  0  0  0  0  0  0
   14.9940   21.1760   16.5030 C   0  0  0  0  0  0  0  0  0  0  0  0
   13.6270   21.5550   17.0670 C   0  0  0  0  0  0  0  0  0  0  0  0
   12.6540   20.9960   16.0430 C   0  0  0  0  0  0  0  0  0  0  0  0
   13.3500   19.8820   15.4220 N   0  0  0  0  0  0  0  0  0  0  0  0
   12.7020   19.0630   14.5240 C   0  0  0  0  0  0  0  0  0  0  0  0
   11.5640   18.6330   14.7510 O   0  0  0  0  0  0  0  0  0  0  0  0
   13.4310   18.7010   13.2040 C   0  0  2  0  0  0  0  0  0  0  0  0
   13.1730   19.6910   12.0730 C   0  0  0  0  0  0  0  0  0  0  0  0
   11.9630   19.1370   11.3230 C   0  0  2  0  0  0  0  0  0  0  0  0
   10.6450   19.7510   11.8030 C   0  0  0  0  0  0  0  0  0  0  0  0
    9.4420   19.1400   11.0910 C   0  0  0  0  0  0  0  0  0  0  0  0
    9.6250   17.6600   10.7600 C   0  0  0  0  0  0  0  0  0  0  0  0
   10.6430   16.9790   11.6700 C   0  0  0  0  0  0  0  0  0  0  0  0
   12.0360   17.6090   11.5350 C   0  0  2  0  0  0  0  0  0  0  0  0
   12.9300   17.4140   12.6930 N   0  0  0  0  0  0  0  0  0  0  0  0
   13.3760   16.2700   13.3080 C   0  0  0  0  0  0  0  0  0  0  0  0
   12.6620   15.6530   14.1120 O   0  0  0  0  0  0  0  0  0  0  0  0
   14.7670   15.6880   13.0050 C   0  0  2  0  0  0  0  0  0  0  0  0
   14.6890   14.1820   12.9190 N   0  0  0  0  0  0  0  0  0  0  0  0
   15.8400   16.1210   14.0260 C   0  0  0  0  0  0  0  0  0  0  0  0
   16.4510   15.1100   14.9690 C   0  0  0  0  0  0  0  0  0  0  0  0
   15.9000   14.4570   16.0000 C   0  0  0  0  0  0  0  0  0  0  0  0
   14.6520   14.6210   16.5530 N   0  0  0  0  0  0  0  0  0  0  0  0
   13.5910   13.7750   16.4280 C   0  0  0  0  0  0  0  0  0  0  0  0
   13.4680   12.9180   15.4810 N   0  0  0  0  0  0  0  0  0  0  0  0
   12.6530   13.9690   17.3770 N   0  0  0  0  0  0  0  0  0  0  0  0
   14.2730   18.3320   19.5370 C   0  0  0  0  0  0  0  0  0  0  0  0
   14.1860   17.2000   19.9830 O   0  0  0  0  0  0  0  0  0  0  0  0
   13.2600   19.2380   19.3660 N   0  0  0  0  0  0  0  0  0  0  0  0
   11.8710   18.8900   19.6520 C   0  0  1  0  0  0  0  0  0  0  0  0
   11.0710   20.0910   20.1810 C   0  0  0  0  0  0  0  0  0  0  0  0
   10.5280   19.9230   21.5820 C   0  0  0  0  0  0  0  0  0  0  0  0
   10.9720   20.7640   22.6130 C   0  0  0  0  0  0  0  0  0  0  0  0
   10.4770   20.6200   23.9110 C   0  0  0  0  0  0  0  0  0  0  0  0
    9.5350   19.6310   24.2070 C   0  0  0  0  0  0  0  0  0  0  0  0
    8.9720   19.5030   25.5910 C   0  0  0  0  0  0  0  0  0  0  0  0
    9.0730   18.8070   23.1750 C   0  0  0  0  0  0  0  0  0  0  0  0
    9.5660   18.9510   21.8750 C   0  0  0  0  0  0  0  0  0  0  0  0
   11.2480   18.4230   18.3280 C   0  0  0  0  0  0  0  0  0  0  0  0
   11.8090   17.3220   17.7500 N   0  0  0  0  0  0  0  0  0  0  0  0
   10.2570   18.9590   17.8340 O   0  0  0  0  0  0  0  0  0  0  0  0
   16.0903   18.9881   21.1813 H   0  0  0  0  0  0  0  0  0  0  0  0
   17.4710   18.5008   20.1407 H   0  0  0  0  0  0  0  0  0  0  0  0
   16.9040   20.2053   20.1407 H   0  0  0  0  0  0  0  0  0  0  0  0
   15.3997   19.5507   15.0220 H   0  0  0  0  0  0  0  0  0  0  0  0
   15.7462   21.1126   17.3032 H   0  0  0  0  0  0  0  0  0  0  0  0
   15.3830   21.9148   15.7869 H   0  0  0  0  0  0  0  0  0  0  0  0
   13.4672   21.0950   18.0533 H   0  0  0  0  0  0  0  0  0  0  0  0
   13.5121   22.6381   17.2208 H   0  0  0  0  0  0  0  0  0  0  0  0
   11.7335   20.6491   16.5353 H   0  0  0  0  0  0  0  0  0  0  0  0
   12.3536   21.7548   15.3054 H   0  0  0  0  0  0  0  0  0  0  0  0
   14.5000   18.6916   13.4631 H   0  0  0  0  0  0  0  0  0  0  0  0
   12.9518   20.6897   12.4777 H   0  0  0  0  0  0  0  0  0  0  0  0
   14.0483   19.8014   11.4160 H   0  0  0  0  0  0  0  0  0  0  0  0
   11.9873   19.3934   10.2536 H   0  0  0  0  0  0  0  0  0  0  0  0
   10.5445   19.5773   12.8845 H   0  0  0  0  0  0  0  0  0  0  0  0
   10.6665   20.8270   11.5753 H   0  0  0  0  0  0  0  0  0  0  0  0
    8.5605   19.2464   11.7404 H   0  0  0  0  0  0  0  0  0  0  0  0
    9.3206   19.6751   10.1376 H   0  0  0  0  0  0  0  0  0  0  0  0
    8.6562   17.1512   10.8716 H   0  0  0  0  0  0  0  0  0  0  0  0
   10.0010   17.5923    9.7285 H   0  0  0  0  0  0  0  0  0  0  0  0
   10.3083   17.0743   12.7135 H   0  0  0  0  0  0  0  0  0  0  0  0
   10.7145   15.9220   11.3739 H   0  0  0  0  0  0  0  0  0  0  0  0
   12.4496   17.0797   10.6639 H   0  0  0  0  0  0  0  0  0  0  0  0
   15.0828   16.0974   12.0341 H   0  0  0  0  0  0  0  0  0  0  0  0
   15.4890   13.7470   12.4530 H   0  0  0  0  0  0  0  0  0  0  0  0
   13.8110   13.8820   12.4800 H   0  0  0  0  0  0  0  0  0  0  0  0
   14.6540   13.8020   13.8840 H   0  0  0  0  0  0  0  0  0  0  0  0
   16.6692   16.5545   13.4477 H   0  0  0  0  0  0  0  0  0  0  0  0
   15.2847   16.7875   14.7023 H   0  0  0  0  0  0  0  0  0  0  0  0
   17.5088   14.8750   14.7796 H   0  0  0  0  0  0  0  0  0  0  0  0
   16.5304   13.6860   16.4671 H   0  0  0  0  0  0  0  0  0  0  0  0
   14.6580   15.1080   17.4480 H   0  0  0  0  0  0  0  0  0  0  0  0
   12.6100   12.3760   15.6040 H   0  0  0  0  0  0  0  0  0  0  0  0
   12.5490   14.9130   17.7420 H   0  0  0  0  0  0  0  0  0  0  0  0
   11.7630   13.5070   17.2370 H   0  0  0  0  0  0  0  0  0  0  0  0
   13.3990   20.0200   18.7330 H   0  0  0  0  0  0  0  0  0  0  0  0
   11.8437   18.1113   20.4285 H   0  0  0  0  0  0  0  0  0  0  0  0
   11.7300   20.9717   20.1726 H   0  0  0  0  0  0  0  0  0  0  0  0
   10.1976   20.1966   19.5207 H   0  0  0  0  0  0  0  0  0  0  0  0
   11.7169   21.5441   22.3973 H   0  0  0  0  0  0  0  0  0  0  0  0
   10.8317   21.2909   24.7073 H   0  0  0  0  0  0  0  0  0  0  0  0
    9.7677   19.6839   26.3287 H   0  0  0  0  0  0  0  0  0  0  0  0
    8.1686   20.2414   25.7298 H   0  0  0  0  0  0  0  0  0  0  0  0
    8.5668   18.4898   25.7298 H   0  0  0  0  0  0  0  0  0  0  0  0
    8.3150   18.0390   23.3886 H   0  0  0  0  0  0  0  0  0  0  0  0
    9.1940   18.2939   21.0751 H   0  0  0  0  0  0  0  0  0  0  0  0
   11.4490   17.0630   16.8390 H   0  0  0  0  0  0  0  0  0  0  0  0
   12.7550   17.0320   17.9640 H   0  0  0  0  0  0  0  0  0  0  0  0
  1  2  1  0
  2  3  2  0
  3  4  1  0
  4  5  2  0
  4  6  1  0
  6  7  1  0
  7  8  1  0
  8  9  1  0
  9 10  1  0
 10 11  1  0
 11 12  2  0
 11 13  1  0
 13 14  1  0
 14 15  1  0
 15 16  1  0
 16 17  1  0
 17 18  1  0
 18 19  1  0
 19 20  1  0
 20 21  1  0
 21 22  1  0
 22 23  2  0
 22 24  1  0
 24 25  1  0
 24 26  1  0
 26 27  1  0
 27 28  2  0
 28 29  1  0
 29 30  1  0
 30 31  2  3
 30 32  1  0
  2 33  1  0
 33 34  2  0
 33 35  1  0
 35 36  1  0
 36 37  1  0
 37 38  1  0
 38 39  2  0
 39 40  1  0
 40 41  2  0
 41 42  1  0
 41 43  1  0
 43 44  2  0
 36 45  1  0
 45 46  1  0
 45 47  2  0
 10  6  1  0
 21 13  1  0
 44 38  1  0
 20 15  1  0
  1 48  1  0
  1 49  1  0
  1 50  1  0
  6 51  1  6
  7 52  1  0
  7 53  1  0
  8 54  1  0
  8 55  1  0
  9 56  1  0
  9 57  1  0
 13 58  1  1
 14 59  1  0
 14 60  1  0
 15 61  1  6
 16 62  1  0
 16 63  1  0
 17 64  1  0
 17 65  1  0
 18 66  1  0
 18 67  1  0
 19 68  1  0
 19 69  1  0
 20 70  1  6
 24 71  1  6
 25 72  1  0
 25 73  1  0
 25 74  1  0
 26 75  1  0
 26 76  1  0
 27 77  1  0
 28 78  1  0
 29 79  1  0
 31 80  1  0
 32 81  1  0
 32 82  1  0
 35 83  1  0
 36 84  1  1
 37 85  1  0
 37 86  1  0
 39 87  1  0
 40 88  1  0
 42 89  1  0
 42 90  1  0
 42 91  1  0
 43 92  1  0
 44 93  1  0
 46 94  1  0
 46 95  1  0
M  CHG  1  25   1
M  END
>  <meeko>  (6) 
{"is_sidechain": [false], "free_energy": -9.055, "intermolecular_energy": -15.521, "internal_energy": -4.083}

$$$$
3bv9_ligand
     RDKit          3D

 95 98  0  0  0  0  0  0  0  0999 V2000
   15.6710   11.6490   16.6670 C   0  0  0  0  0  0  0  0  0  0  0  0
   15.1390   13.0430   16.8290 C   0  0  0  0  0  0  0  0  0  0  0  0
   15.3140   13.6880   17.9450 N   0  0  0  0  0  0  0  0  0  0  0  0
   14.7880   14.9590   18.0090 C   0  0  0  0  0  0  0  0  0  0  0  0
   15.0660   15.8420   17.2020 O   0  0  0  0  0  0  0  0  0  0  0  0
   13.7770   15.2180   19.1530 C   0  0  2  0  0  0  0  0  0  0  0  0
   13.0350   13.9230   19.4920 C   0  0  0  0  0  0  0  0  0  0  0  0
   11.7900   13.9880   18.6120 C   0  0  0  0  0  0  0  0  0  0  0  0
   11.4360   15.4650   18.6060 C   0  0  0  0  0  0  0  0  0  0  0  0
   12.6910   16.1600   18.8410 N   0  0  0  0  0  0  0  0  0  0  0  0
   12.7540   17.5340   18.7730 C   0  0  0  0  0  0  0  0  0  0  0  0
   13.6470   18.1650   19.3520 O   0  0  0  0  0  0  0  0  0  0  0  0
   11.6800   18.2780   17.9380 C   0  0  2  0  0  0  0  0  0  0  0  0
   11.9620   18.2730   16.4390 C   0  0  0  0  0  0  0  0  0  0  0  0
   12.7620   19.5480   16.1760 C   0  0  2  0  0  0  0  0  0  0  0  0
   14.2730   19.3040   16.1910 C   0  0  0  0  0  0  0  0  0  0  0  0
   15.0580   20.5980   15.9940 C   0  0  0  0  0  0  0  0  0  0  0  0
   14.3820   21.8150   16.6210 C   0  0  0  0  0  0  0  0  0  0  0  0
   13.4350   21.4370   17.7560 C   0  0  0  0  0  0  0  0  0  0  0  0
   12.2930   20.5360   17.2670 C   0  0  2  0  0  0  0  0  0  0  0  0
   11.6580   19.7020   18.3070 N   0  0  0  0  0  0  0  0  0  0  0  0
   11.0430   20.0430   19.4860 C   0  0  0  0  0  0  0  0  0  0  0  0
   11.5880   20.8050   20.2980 O   0  0  0  0  0  0  0  0  0  0  0  0
    9.6400   19.5200   19.8390 C   0  0  2  0  0  0  0  0  0  0  0  0
    8.7050   20.6790   20.0910 N   0  0  0  0  0  0  0  0  0  0  0  0
    9.6390   18.5480   21.0370 C   0  0  0  0  0  0  0  0  0  0  0  0
    9.2620   19.0360   22.4180 C   0  0  0  0  0  0  0  0  0  0  0  0
    9.9740   19.7480   23.3000 C   0  0  0  0  0  0  0  0  0  0  0  0
   11.2930   20.1290   23.2310 N   0  0  0  0  0  0  0  0  0  0  0  0
   11.9930   20.8080   24.1830 C   0  0  0  0  0  0  0  0  0  0  0  0
   11.4460   21.5240   25.0970 N   0  0  0  0  0  0  0  0  0  0  0  0
   13.3280   20.6910   24.0340 N   0  0  0  0  0  0  0  0  0  0  0  0
   14.4110   13.6020   15.6190 C   0  0  0  0  0  0  0  0  0  0  0  0
   13.2130   13.4040   15.5160 O   0  0  0  0  0  0  0  0  0  0  0  0
   15.2190   14.2830   14.7480 N   0  0  0  0  0  0  0  0  0  0  0  0
   14.7040   14.8120   13.4880 C   0  0  1  0  0  0  0  0  0  0  0  0
   15.1710   16.2550   13.2330 C   0  0  0  0  0  0  0  0  0  0  0  0
   14.0580   17.2400   12.9520 C   0  0  0  0  0  0  0  0  0  0  0  0
   12.7190   16.8310   13.0360 C   0  0  0  0  0  0  0  0  0  0  0  0
   11.6830   17.7330   12.7810 C   0  0  0  0  0  0  0  0  0  0  0  0
   11.9640   19.0570   12.4310 C   0  0  0  0  0  0  0  0  0  0  0  0
   10.8510   20.0360   12.1970 C   0  0  0  0  0  0  0  0  0  0  0  0
   13.2970   19.4730   12.3710 C   0  0  0  0  0  0  0  0  0  0  0  0
   14.3350   18.5730   12.6280 C   0  0  0  0  0  0  0  0  0  0  0  0
   15.2500   13.9110   12.3710 C   0  0  0  0  0  0  0  0  0  0  0  0
   16.6060   13.8770   12.2290 N   0  0  0  0  0  0  0  0  0  0  0  0
   14.5250   13.1990   11.6770 O   0  0  0  0  0  0  0  0  0  0  0  0
   15.8409   11.2039   17.6585 H   0  0  0  0  0  0  0  0  0  0  0  0
   14.9419   11.0405   16.1119 H   0  0  0  0  0  0  0  0  0  0  0  0
   16.6201   11.6810   16.1119 H   0  0  0  0  0  0  0  0  0  0  0  0
   14.4054   15.6291   19.9568 H   0  0  0  0  0  0  0  0  0  0  0  0
   13.6464   13.0427   19.2445 H   0  0  0  0  0  0  0  0  0  0  0  0
   12.7998   13.8305   20.5626 H   0  0  0  0  0  0  0  0  0  0  0  0
   12.0089   13.6321   17.5944 H   0  0  0  0  0  0  0  0  0  0  0  0
   10.9712   13.3529   18.9810 H   0  0  0  0  0  0  0  0  0  0  0  0
   11.0106   15.7555   17.6341 H   0  0  0  0  0  0  0  0  0  0  0  0
   10.6821   15.7096   19.3688 H   0  0  0  0  0  0  0  0  0  0  0  0
   10.7389   17.7490   18.1490 H   0  0  0  0  0  0  0  0  0  0  0  0
   12.5488   17.3853   16.1601 H   0  0  0  0  0  0  0  0  0  0  0  0
   11.0354   18.2403   15.8471 H   0  0  0  0  0  0  0  0  0  0  0  0
   12.5805   19.9499   15.1683 H   0  0  0  0  0  0  0  0  0  0  0  0
   14.5527   18.8617   17.1585 H   0  0  0  0  0  0  0  0  0  0  0  0
   14.5181   18.6256   15.3605 H   0  0  0  0  0  0  0  0  0  0  0  0
   16.0516   20.4767   16.4502 H   0  0  0  0  0  0  0  0  0  0  0  0
   15.1191   20.7807   14.9110 H   0  0  0  0  0  0  0  0  0  0  0  0
   15.1591   22.4847   17.0181 H   0  0  0  0  0  0  0  0  0  0  0  0
   13.7860   22.3067   15.8381 H   0  0  0  0  0  0  0  0  0  0  0  0
   14.0035   20.9026   18.5314 H   0  0  0  0  0  0  0  0  0  0  0  0
   12.9942   22.3617   18.1568 H   0  0  0  0  0  0  0  0  0  0  0  0
   11.5615   21.2669   16.8920 H   0  0  0  0  0  0  0  0  0  0  0  0
    9.2856   18.9412   18.9733 H   0  0  0  0  0  0  0  0  0  0  0  0
    7.7500   20.4020   20.3340 H   0  0  0  0  0  0  0  0  0  0  0  0
    8.6990   21.3280   19.2960 H   0  0  0  0  0  0  0  0  0  0  0  0
    9.0750   21.2290   20.8890 H   0  0  0  0  0  0  0  0  0  0  0  0
    8.9379   17.7384   20.7860 H   0  0  0  0  0  0  0  0  0  0  0  0
   10.7022   18.2880   21.1469 H   0  0  0  0  0  0  0  0  0  0  0  0
    8.2484   18.7645   22.7478 H   0  0  0  0  0  0  0  0  0  0  0  0
    9.4311   20.0714   24.2003 H   0  0  0  0  0  0  0  0  0  0  0  0
   11.8800   19.4870   22.6990 H   0  0  0  0  0  0  0  0  0  0  0  0
   12.1620   21.9160   25.7130 H   0  0  0  0  0  0  0  0  0  0  0  0
   13.6810   20.5740   23.0870 H   0  0  0  0  0  0  0  0  0  0  0  0
   13.9030   21.3140   24.5870 H   0  0  0  0  0  0  0  0  0  0  0  0
   16.2240   14.1380   14.7890 H   0  0  0  0  0  0  0  0  0  0  0  0
   13.6046   14.8237   13.5211 H   0  0  0  0  0  0  0  0  0  0  0  0
   15.7175   16.6004   14.1230 H   0  0  0  0  0  0  0  0  0  0  0  0
   15.7941   16.2240   12.3270 H   0  0  0  0  0  0  0  0  0  0  0  0
   12.4825   15.7910   13.3050 H   0  0  0  0  0  0  0  0  0  0  0  0
   10.6377   17.3987   12.8562 H   0  0  0  0  0  0  0  0  0  0  0  0
   10.4576   20.3820   13.1642 H   0  0  0  0  0  0  0  0  0  0  0  0
   11.2330   20.8962   11.6276 H   0  0  0  0  0  0  0  0  0  0  0  0
   10.0466   19.5474   11.6276 H   0  0  0  0  0  0  0  0  0  0  0  0
   13.5312   20.5179   12.1193 H   0  0  0  0  0  0  0  0  0  0  0  0
   15.3790   18.9155   12.5751 H   0  0  0  0  0  0  0  0  0  0  0  0
   16.9590   13.3440   11.4410 H   0  0  0  0  0  0  0  0  0  0  0  0
   17.1960   14.6230   12.5730 H   0  0  0  0  0  0  0  0  0  0  0  0
  1  2  1  0
  2  3  2  0
  3  4  1  0
  4  5  2  0
  4  6  1  0
  6  7  1  0
  7  8  1  0
  8  9  1  0
  9 10  1  0
 10 11  1  0
 11 12  2  0
 11 13  1  0
 13 14  1  0
 14 15  1  0
 15 16  1  0
 16 17  1  0
 17 18  1  0
 18 19  1  0
 19 20  1  0
 20 21  1  0
 21 22  1  0
 22 23  2  0
 22 24  1  0
 24 25  1  0
 24 26  1  0
 26 27  1  0
 27 28  2  0
 28 29  1  0
 29 30  1  0
 30 31  2  3
 30 32  1  0
  2 33  1  0
 33 34  2  0
 33 35  1  0
 35 36  1  0
 36 37  1  0
 37 38  1  0
 38 39  2  0
 39 40  1  0
 40 41  2  0
 41 42  1  0
 41 43  1  0
 43 44  2  0
 36 45  1  0
 45 46  1  0
 45 47  2  0
 10  6  1  0
 21 13  1  0
 44 38  1  0
 20 15  1  0
  1 48  1  0
  1 49  1  0
  1 50  1  0
  6 51  1  1
  7 52  1  0
  7 53  1  0
  8 54  1  0
  8 55  1  0
  9 56  1  0
  9 57  1  0
 13 58  1  6
 14 59  1  0
 14 60  1  0
 15 61  1  6
 16 62  1  0
 16 63  1  0
 17 64  1  0
 17 65  1  0
 18 66  1  0
 18 67  1  0
 19 68  1  0
 19 69  1  0
 20 70  1  6
 24 71  1  6
 25 72  1  0
 25 73  1  0
 25 74  1  0
 26 75  1  0
 26 76  1  0
 27 77  1  0
 28 78  1  0
 29 79  1  0
 31 80  1  0
 32 81  1  0
 32 82  1  0
 35 83  1  0
 36 84  1  1
 37 85  1  0
 37 86  1  0
 39 87  1  0
 40 88  1  0
 42 89  1  0
 42 90  1  0
 42 91  1  0
 43 92  1  0
 44 93  1  0
 46 94  1  0
 46 95  1  0
M  CHG  1  25   1
M  END
>  <meeko>  (7) 
{"is_sidechain": [false], "free_energy": -8.99, "intermolecular_energy": -15.278, "internal_energy": -4.206}

$$$$
3bv9_ligand
     RDKit          3D

 95 98  0  0  0  0  0  0  0  0999 V2000
   15.6370   18.5250   19.5840 C   0  0  0  0  0  0  0  0  0  0  0  0
   15.2950   17.0990   19.2620 C   0  0  0  0  0  0  0  0  0  0  0  0
   16.0550   16.4040   18.4680 N   0  0  0  0  0  0  0  0  0  0  0  0
   15.6630   15.1060   18.2240 C   0  0  0  0  0  0  0  0  0  0  0  0
   15.6330   14.2390   19.0930 O   0  0  0  0  0  0  0  0  0  0  0  0
   15.2170   14.7940   16.7740 C   0  0  2  0  0  0  0  0  0  0  0  0
   16.0920   13.6840   16.1890 C   0  0  0  0  0  0  0  0  0  0  0  0
   17.2160   14.4480   15.4940 C   0  0  0  0  0  0  0  0  0  0  0  0
   16.5180   15.6780   14.9390 C   0  0  0  0  0  0  0  0  0  0  0  0
   15.3750   15.8950   15.8100 N   0  0  0  0  0  0  0  0  0  0  0  0
   14.5860   17.0140   15.6660 C   0  0  0  0  0  0  0  0  0  0  0  0
   13.5450   17.1560   16.3200 O   0  0  0  0  0  0  0  0  0  0  0  0
   15.0410   18.1080   14.6650 C   0  0  2  0  0  0  0  0  0  0  0  0
   15.8510   19.2270   15.3130 C   0  0  0  0  0  0  0  0  0  0  0  0
   14.8260   20.2920   15.7010 C   0  0  2  0  0  0  0  0  0  0  0  0
   14.3590   20.1510   17.1530 C   0  0  0  0  0  0  0  0  0  0  0  0
   13.2870   21.1800   17.5050 C   0  0  0  0  0  0  0  0  0  0  0  0
   12.3610   21.5090   16.3360 C   0  0  0  0  0  0  0  0  0  0  0  0
   12.3060   20.3910   15.3000 C   0  0  0  0  0  0  0  0  0  0  0  0
   13.6820   20.1280   14.6750 C   0  0  2  0  0  0  0  0  0  0  0  0
   13.8650   18.7830   14.0930 N   0  0  0  0  0  0  0  0  0  0  0  0
   13.1630   18.1190   13.1180 C   0  0  0  0  0  0  0  0  0  0  0  0
   13.7400   17.6070   12.1470 O   0  0  0  0  0  0  0  0  0  0  0  0
   11.6360   17.9550   13.2000 C   0  0  2  0  0  0  0  0  0  0  0  0
   11.2350   16.5910   12.6910 N   0  0  0  0  0  0  0  0  0  0  0  0
   10.8660   19.0630   12.4520 C   0  0  0  0  0  0  0  0  0  0  0  0
   10.8760   19.1160   10.9410 C   0  0  0  0  0  0  0  0  0  0  0  0
    9.9060   18.8220   10.0660 C   0  0  0  0  0  0  0  0  0  0  0  0
    8.6670   18.2780   10.3080 N   0  0  0  0  0  0  0  0  0  0  0  0
    8.3970   16.9750   10.6010 C   0  0  0  0  0  0  0  0  0  0  0  0
    9.1820   16.0000   10.3180 N   0  0  0  0  0  0  0  0  0  0  0  0
    7.1880   16.8080   11.1760 N   0  0  0  0  0  0  0  0  0  0  0  0
   14.0350   16.5720   19.9250 C   0  0  0  0  0  0  0  0  0  0  0  0
   14.0530   16.3560   21.1250 O   0  0  0  0  0  0  0  0  0  0  0  0
   12.9870   16.3860   19.0630 N   0  0  0  0  0  0  0  0  0  0  0  0
   11.7260   15.8030   19.5120 C   0  0  1  0  0  0  0  0  0  0  0  0
   10.5330   16.7400   19.2610 C   0  0  0  0  0  0  0  0  0  0  0  0
   10.5550   18.0230   20.0610 C   0  0  0  0  0  0  0  0  0  0  0  0
   10.3330   17.9920   21.4460 C   0  0  0  0  0  0  0  0  0  0  0  0
   10.3530   19.1700   22.1960 C   0  0  0  0  0  0  0  0  0  0  0  0
   10.5890   20.4020   21.5780 C   0  0  0  0  0  0  0  0  0  0  0  0
   10.6510   21.6620   22.3900 C   0  0  0  0  0  0  0  0  0  0  0  0
   10.8340   20.4320   20.2020 C   0  0  0  0  0  0  0  0  0  0  0  0
   10.8170   19.2540   19.4500 C   0  0  0  0  0  0  0  0  0  0  0  0
   11.5210   14.5120   18.7060 C   0  0  0  0  0  0  0  0  0  0  0  0
   11.7460   14.5950   17.3630 N   0  0  0  0  0  0  0  0  0  0  0  0
   11.2330   13.4380   19.2320 O   0  0  0  0  0  0  0  0  0  0  0  0
   15.6686   18.6570   20.6756 H   0  0  0  0  0  0  0  0  0  0  0  0
   16.6198   18.7719   19.1562 H   0  0  0  0  0  0  0  0  0  0  0  0
   14.8731   19.1909   19.1562 H   0  0  0  0  0  0  0  0  0  0  0  0
   14.1508   14.5473   16.8855 H   0  0  0  0  0  0  0  0  0  0  0  0
   16.4896   13.0361   16.9841 H   0  0  0  0  0  0  0  0  0  0  0  0
   15.5418   13.0172   15.5088 H   0  0  0  0  0  0  0  0  0  0  0  0
   18.0008   14.7311   16.2108 H   0  0  0  0  0  0  0  0  0  0  0  0
   17.7210   13.8548   14.7174 H   0  0  0  0  0  0  0  0  0  0  0  0
   17.1916   16.5473   14.9632 H   0  0  0  0  0  0  0  0  0  0  0  0
   16.2148   15.5399   13.8907 H   0  0  0  0  0  0  0  0  0  0  0  0
   15.6537   17.5770   13.9216 H   0  0  0  0  0  0  0  0  0  0  0  0
   16.3773   18.8555   16.2046 H   0  0  0  0  0  0  0  0  0  0  0  0
   16.6192   19.6246   14.6334 H   0  0  0  0  0  0  0  0  0  0  0  0
   15.2503   21.3063   15.6668 H   0  0  0  0  0  0  0  0  0  0  0  0
   13.9456   19.1420   17.2979 H   0  0  0  0  0  0  0  0  0  0  0  0
   15.2252   20.3207   17.8094 H   0  0  0  0  0  0  0  0  0  0  0  0
   12.6791   20.7827   18.3313 H   0  0  0  0  0  0  0  0  0  0  0  0
   13.8053   22.1096   17.7827 H   0  0  0  0  0  0  0  0  0  0  0  0
   11.3466   21.6779   16.7266 H   0  0  0  0  0  0  0  0  0  0  0  0
   12.7580   22.4059   15.8381 H   0  0  0  0  0  0  0  0  0  0  0  0
   11.9542   19.4700   15.7879 H   0  0  0  0  0  0  0  0  0  0  0  0
   11.6189   20.6999   14.4985 H   0  0  0  0  0  0  0  0  0  0  0  0
   13.7209   20.8787   13.8719 H   0  0  0  0  0  0  0  0  0  0  0  0
   11.3595   18.0500   14.2604 H   0  0  0  0  0  0  0  0  0  0  0  0
   11.1750   15.8730   13.4180 H   0  0  0  0  0  0  0  0  0  0  0  0
   11.8560   16.2820   11.9330 H   0  0  0  0  0  0  0  0  0  0  0  0
   10.2950   16.6670   12.2580 H   0  0  0  0  0  0  0  0  0  0  0  0
    9.8129   18.9768   12.7577 H   0  0  0  0  0  0  0  0  0  0  0  0
   11.4081   19.9770   12.7360 H   0  0  0  0  0  0  0  0  0  0  0  0
   11.8244   19.4463   10.4922 H   0  0  0  0  0  0  0  0  0  0  0  0
   10.1307   19.0457    9.0127 H   0  0  0  0  0  0  0  0  0  0  0  0
    8.0140   18.9210   10.7540 H   0  0  0  0  0  0  0  0  0  0  0  0
    8.7870   15.1190   10.6540 H   0  0  0  0  0  0  0  0  0  0  0  0
    6.4560   17.4650   10.9170 H   0  0  0  0  0  0  0  0  0  0  0  0
    6.8470   15.8580   11.2500 H   0  0  0  0  0  0  0  0  0  0  0  0
   13.1720   16.3250   18.0660 H   0  0  0  0  0  0  0  0  0  0  0  0
   11.7757   15.6201   20.5956 H   0  0  0  0  0  0  0  0  0  0  0  0
   10.5232   17.0029   18.1929 H   0  0  0  0  0  0  0  0  0  0  0  0
    9.6353   16.1908   19.5812 H   0  0  0  0  0  0  0  0  0  0  0  0
   10.1414   17.0310   21.9458 H   0  0  0  0  0  0  0  0  0  0  0  0
   10.1817   19.1283   23.2818 H   0  0  0  0  0  0  0  0  0  0  0  0
   10.6386   21.4093   23.4605 H   0  0  0  0  0  0  0  0  0  0  0  0
   11.5770   22.2061   22.1524 H   0  0  0  0  0  0  0  0  0  0  0  0
    9.7829   22.2944   22.1524 H   0  0  0  0  0  0  0  0  0  0  0  0
   11.0421   21.3918   19.7065 H   0  0  0  0  0  0  0  0  0  0  0  0
   11.0114   19.2951   18.3681 H   0  0  0  0  0  0  0  0  0  0  0  0
   11.5340   13.7640   16.8220 H   0  0  0  0  0  0  0  0  0  0  0  0
   11.7110   15.4780   16.8710 H   0  0  0  0  0  0  0  0  0  0  0  0
  1  2  1  0
  2  3  2  0
  3  4  1  0
  4  5  2  0
  4  6  1  0
  6  7  1  0
  7  8  1  0
  8  9  1  0
  9 10  1  0
 10 11  1  0
 11 12  2  0
 11 13  1  0
 13 14  1  0
 14 15  1  0
 15 16  1  0
 16 17  1  0
 17 18  1  0
 18 19  1  0
 19 20  1  0
 20 21  1  0
 21 22  1  0
 22 23  2  0
 22 24  1  0
 24 25  1  0
 24 26  1  0
 26 27  1  0
 27 28  2  0
 28 29  1  0
 29 30  1  0
 30 31  2  3
 30 32  1  0
  2 33  1  0
 33 34  2  0
 33 35  1  0
 35 36  1  0
 36 37  1  0
 37 38  1  0
 38 39  2  0
 39 40  1  0
 40 41  2  0
 41 42  1  0
 41 43  1  0
 43 44  2  0
 36 45  1  0
 45 46  1  0
 45 47  2  0
 10  6  1  0
 21 13  1  0
 44 38  1  0
 20 15  1  0
  1 48  1  0
  1 49  1  0
  1 50  1  0
  6 51  1  1
  7 52  1  0
  7 53  1  0
  8 54  1  0
  8 55  1  0
  9 56  1  0
  9 57  1  0
 13 58  1  6
 14 59  1  0
 14 60  1  0
 15 61  1  1
 16 62  1  0
 16 63  1  0
 17 64  1  0
 17 65  1  0
 18 66  1  0
 18 67  1  0
 19 68  1  0
 19 69  1  0
 20 70  1  6
 24 71  1  1
 25 72  1  0
 25 73  1  0
 25 74  1  0
 26 75  1  0
 26 76  1  0
 27 77  1  0
 28 78  1  0
 29 79  1  0
 31 80  1  0
 32 81  1  0
 32 82  1  0
 35 83  1  0
 36 84  1  1
 37 85  1  0
 37 86  1  0
 39 87  1  0
 40 88  1  0
 42 89  1  0
 42 90  1  0
 42 91  1  0
 43 92  1  0
 44 93  1  0
 46 94  1  0
 46 95  1  0
M  CHG  1  25   1
M  END
>  <meeko>  (8) 
{"is_sidechain": [false], "free_energy": -8.933, "intermolecular_energy": -16.024, "internal_energy": -3.354}

$$$$
3bv9_ligand
     RDKit          3D

 95 98  0  0  0  0  0  0  0  0999 V2000
    9.6550   18.9850   25.4840 C   0  0  0  0  0  0  0  0  0  0  0  0
   10.5960   19.4900   24.4300 C   0  0  0  0  0  0  0  0  0  0  0  0
   10.6080   18.9510   23.2470 N   0  0  0  0  0  0  0  0  0  0  0  0
   11.5070   19.4730   22.3430 C   0  0  0  0  0  0  0  0  0  0  0  0
   12.7050   19.2030   22.3550 O   0  0  0  0  0  0  0  0  0  0  0  0
   10.9150   20.4110   21.2620 C   0  0  2  0  0  0  0  0  0  0  0  0
    9.4210   20.6220   21.5200 C   0  0  0  0  0  0  0  0  0  0  0  0
    8.7600   19.5280   20.6870 C   0  0  0  0  0  0  0  0  0  0  0  0
    9.6400   19.4430   19.4520 C   0  0  0  0  0  0  0  0  0  0  0  0
   10.9520   19.8960   19.8840 N   0  0  0  0  0  0  0  0  0  0  0  0
   12.0330   19.8270   19.0340 C   0  0  0  0  0  0  0  0  0  0  0  0
   12.7500   20.8130   18.8260 O   0  0  0  0  0  0  0  0  0  0  0  0
   12.3420   18.4710   18.3490 C   0  0  2  0  0  0  0  0  0  0  0  0
   13.1210   17.5040   19.2350 C   0  0  0  0  0  0  0  0  0  0  0  0
   14.5930   17.7690   18.9220 C   0  0  2  0  0  0  0  0  0  0  0  0
   15.2290   18.7590   19.9020 C   0  0  0  0  0  0  0  0  0  0  0  0
   16.6790   19.0640   19.5370 C   0  0  0  0  0  0  0  0  0  0  0  0
   16.9340   19.0670   18.0310 C   0  0  0  0  0  0  0  0  0  0  0  0
   15.6690   19.3430   17.2240 C   0  0  0  0  0  0  0  0  0  0  0  0
   14.5990   18.2680   17.4600 C   0  0  2  0  0  0  0  0  0  0  0  0
   13.2120   18.6880   17.1810 N   0  0  0  0  0  0  0  0  0  0  0  0
   12.6310   19.1840   16.0400 C   0  0  0  0  0  0  0  0  0  0  0  0
   11.7230   18.5690   15.4620 O   0  0  0  0  0  0  0  0  0  0  0  0
   13.0600   20.5360   15.4460 C   0  0  2  0  0  0  0  0  0  0  0  0
   12.0660   21.6070   15.8280 N   0  0  0  0  0  0  0  0  0  0  0  0
   13.2520   20.4920   13.9160 C   0  0  0  0  0  0  0  0  0  0  0  0
   14.3710   19.6790   13.3070 C   0  0  0  0  0  0  0  0  0  0  0  0
   14.3240   18.5160   12.6450 C   0  0  0  0  0  0  0  0  0  0  0  0
   13.2480   17.6860   12.4420 N   0  0  0  0  0  0  0  0  0  0  0  0
   12.8110   16.7040   13.2790 C   0  0  0  0  0  0  0  0  0  0  0  0
   13.5440   16.1480   14.1730 N   0  0  0  0  0  0  0  0  0  0  0  0
   11.5370   16.3360   13.0340 N   0  0  0  0  0  0  0  0  0  0  0  0
   11.4910   20.6400   24.8590 C   0  0  0  0  0  0  0  0  0  0  0  0
   11.1410   21.7790   24.6010 O   0  0  0  0  0  0  0  0  0  0  0  0
   12.6340   20.2470   25.5030 N   0  0  0  0  0  0  0  0  0  0  0  0
   13.6500   21.2150   25.9090 C   0  0  1  0  0  0  0  0  0  0  0  0
   14.6650   20.6100   26.8930 C   0  0  0  0  0  0  0  0  0  0  0  0
   15.9050   21.4460   27.1160 C   0  0  0  0  0  0  0  0  0  0  0  0
   17.1680   20.9320   26.7870 C   0  0  0  0  0  0  0  0  0  0  0  0
   18.3210   21.6960   26.9860 C   0  0  0  0  0  0  0  0  0  0  0  0
   18.2360   22.9830   27.5250 C   0  0  0  0  0  0  0  0  0  0  0  0
   19.4690   23.8190   27.7010 C   0  0  0  0  0  0  0  0  0  0  0  0
   16.9760   23.5060   27.8310 C   0  0  0  0  0  0  0  0  0  0  0  0
   15.8210   22.7450   27.6300 C   0  0  0  0  0  0  0  0  0  0  0  0
   14.3900   21.6420   24.6330 C   0  0  0  0  0  0  0  0  0  0  0  0
   14.3380   22.9680   24.3190 N   0  0  0  0  0  0  0  0  0  0  0  0
   15.0540   20.8590   23.9550 O   0  0  0  0  0  0  0  0  0  0  0  0
   10.0670   19.2061   26.4797 H   0  0  0  0  0  0  0  0  0  0  0  0
    8.6794   19.4807   25.3725 H   0  0  0  0  0  0  0  0  0  0  0  0
    9.5288   17.8980   25.3725 H   0  0  0  0  0  0  0  0  0  0  0  0
   11.5415   21.3119   21.3390 H   0  0  0  0  0  0  0  0  0  0  0  0
    9.1850   20.5006   22.5875 H   0  0  0  0  0  0  0  0  0  0  0  0
    9.0776   21.6321   21.2522 H   0  0  0  0  0  0  0  0  0  0  0  0
    8.7510   18.5715   21.2301 H   0  0  0  0  0  0  0  0  0  0  0  0
    7.7083   19.7463   20.4498 H   0  0  0  0  0  0  0  0  0  0  0  0
    9.6913   18.4069   19.0860 H   0  0  0  0  0  0  0  0  0  0  0  0
    9.2470   20.0534   18.6256 H   0  0  0  0  0  0  0  0  0  0  0  0
   11.3580   18.0477   18.0988 H   0  0  0  0  0  0  0  0  0  0  0  0
   12.9113   17.6999   20.2969 H   0  0  0  0  0  0  0  0  0  0  0  0
   12.8426   16.4571   19.0441 H   0  0  0  0  0  0  0  0  0  0  0  0
   15.2103   16.8658   19.0373 H   0  0  0  0  0  0  0  0  0  0  0  0
   14.6530   19.6960   19.8859 H   0  0  0  0  0  0  0  0  0  0  0  0
   15.2165   18.3049   20.9038 H   0  0  0  0  0  0  0  0  0  0  0  0
   16.9390   20.0550   19.9373 H   0  0  0  0  0  0  0  0  0  0  0  0
   17.2995   18.2663   19.9714 H   0  0  0  0  0  0  0  0  0  0  0  0
   17.6761   19.8455   17.8006 H   0  0  0  0  0  0  0  0  0  0  0  0
   17.2966   18.0667   17.7518 H   0  0  0  0  0  0  0  0  0  0  0  0
   15.2630   20.3213   17.5210 H   0  0  0  0  0  0  0  0  0  0  0  0
   15.9345   19.3339   16.1566 H   0  0  0  0  0  0  0  0  0  0  0  0
   14.8910   17.4844   16.7454 H   0  0  0  0  0  0  0  0  0  0  0  0
   14.0447   20.7766   15.8732 H   0  0  0  0  0  0  0  0  0  0  0  0
   12.3730   22.5600   15.6160 H   0  0  0  0  0  0  0  0  0  0  0  0
   11.7990   21.5270   16.8160 H   0  0  0  0  0  0  0  0  0  0  0  0
   11.1890   21.4430   15.2960 H   0  0  0  0  0  0  0  0  0  0  0  0
   12.3139   20.1048   13.4916 H   0  0  0  0  0  0  0  0  0  0  0  0
   13.5364   21.5263   13.6723 H   0  0  0  0  0  0  0  0  0  0  0  0
   15.3770   20.1078   13.4256 H   0  0  0  0  0  0  0  0  0  0  0  0
   15.2743   18.1800   12.2046 H   0  0  0  0  0  0  0  0  0  0  0  0
   12.4870   18.1180   11.9180 H   0  0  0  0  0  0  0  0  0  0  0  0
   13.0010   15.4600   14.6980 H   0  0  0  0  0  0  0  0  0  0  0  0
   11.2080   16.4120   12.0740 H   0  0  0  0  0  0  0  0  0  0  0  0
   11.2120   15.4920   13.4890 H   0  0  0  0  0  0  0  0  0  0  0  0
   12.9510   19.2870   25.4060 H   0  0  0  0  0  0  0  0  0  0  0  0
   13.1648   22.0605   26.4186 H   0  0  0  0  0  0  0  0  0  0  0  0
   14.1636   20.4755   27.8628 H   0  0  0  0  0  0  0  0  0  0  0  0
   15.0046   19.6639   26.4462 H   0  0  0  0  0  0  0  0  0  0  0  0
   17.2516   19.9182   26.3685 H   0  0  0  0  0  0  0  0  0  0  0  0
   19.3035   21.2813   26.7163 H   0  0  0  0  0  0  0  0  0  0  0  0
   19.6697   23.9551   28.7739 H   0  0  0  0  0  0  0  0  0  0  0  0
   20.3248   23.3141   27.2291 H   0  0  0  0  0  0  0  0  0  0  0  0
   19.3167   24.8009   27.2291 H   0  0  0  0  0  0  0  0  0  0  0  0
   16.8929   24.5262   28.2338 H   0  0  0  0  0  0  0  0  0  0  0  0
   14.8375   23.1707   27.8779 H   0  0  0  0  0  0  0  0  0  0  0  0
   14.7590   23.2350   23.4360 H   0  0  0  0  0  0  0  0  0  0  0  0
   13.6070   23.5710   24.6730 H   0  0  0  0  0  0  0  0  0  0  0  0
  1  2  1  0
  2  3  2  0
  3  4  1  0
  4  5  2  0
  4  6  1  0
  6  7  1  0
  7  8  1  0
  8  9  1  0
  9 10  1  0
 10 11  1  0
 11 12  2  0
 11 13  1  0
 13 14  1  0
 14 15  1  0
 15 16  1  0
 16 17  1  0
 17 18  1  0
 18 19  1  0
 19 20  1  0
 20 21  1  0
 21 22  1  0
 22 23  2  0
 22 24  1  0
 24 25  1  0
 24 26  1  0
 26 27  1  0
 27 28  2  0
 28 29  1  0
 29 30  1  0
 30 31  2  3
 30 32  1  0
  2 33  1  0
 33 34  2  0
 33 35  1  0
 35 36  1  0
 36 37  1  0
 37 38  1  0
 38 39  2  0
 39 40  1  0
 40 41  2  0
 41 42  1  0
 41 43  1  0
 43 44  2  0
 36 45  1  0
 45 46  1  0
 45 47  2  0
 10  6  1  0
 21 13  1  0
 44 38  1  0
 20 15  1  0
  1 48  1  0
  1 49  1  0
  1 50  1  0
  6 51  1  6
  7 52  1  0
  7 53  1  0
  8 54  1  0
  8 55  1  0
  9 56  1  0
  9 57  1  0
 13 58  1  6
 14 59  1  0
 14 60  1  0
 15 61  1  6
 16 62  1  0
 16 63  1  0
 17 64  1  0
 17 65  1  0
 18 66  1  0
 18 67  1  0
 19 68  1  0
 19 69  1  0
 20 70  1  6
 24 71  1  1
 25 72  1  0
 25 73  1  0
 25 74  1  0
 26 75  1  0
 26 76  1  0
 27 77  1  0
 28 78  1  0
 29 79  1  0
 31 80  1  0
 32 81  1  0
 32 82  1  0
 35 83  1  0
 36 84  1  1
 37 85  1  0
 37 86  1  0
 39 87  1  0
 40 88  1  0
 42 89  1  0
 42 90  1  0
 42 91  1  0
 43 92  1  0
 44 93  1  0
 46 94  1  0
 46 95  1  0
M  CHG  1  25   1
M  END
>  <meeko>  (9) 
{"is_sidechain": [false], "free_energy": -8.847, "intermolecular_energy": -16.512, "internal_energy": -2.707}

$$$$
