4m0y_ligand
     RDKit          3D

 35 37  0  0  0  0  0  0  0  0999 V2000
   -1.2830    5.1070   16.7530 N   0  0  0  0  0  0  0  0  0  0  0  0
   -2.0110    5.6820   15.7530 C   0  0  0  0  0  0  0  0  0  0  0  0
   -1.4920    5.9660   14.6830 O   0  0  0  0  0  0  0  0  0  0  0  0
   -3.3320    5.8210   16.0960 N   0  0  0  0  0  0  0  0  0  0  0  0
   -4.2230    6.5210   15.3020 C   0  0  0  0  0  0  0  0  0  0  0  0
   -3.8510    7.5600   14.4850 C   0  0  0  0  0  0  0  0  0  0  0  0
   -5.0010    8.0760   13.9190 N   0  0  0  0  0  0  0  0  0  0  0  0
   -5.0880    9.1590   12.9830 C   0  0  0  0  0  0  0  0  0  0  0  0
   -4.3510    9.0380   11.7870 C   0  0  0  0  0  0  0  0  0  0  0  0
   -4.4330   10.0100   10.7970 C   0  0  0  0  0  0  0  0  0  0  0  0
   -5.2500   11.1170   10.9840 C   0  0  0  0  0  0  0  0  0  0  0  0
   -5.9820   11.2860   12.1670 C   0  0  0  0  0  0  0  0  0  0  0  0
   -6.7730   12.4390   12.3060 C   0  0  0  0  0  0  0  0  0  0  0  0
   -7.4920   12.6860   13.4700 C   0  0  0  0  0  0  0  0  0  0  0  0
   -7.4180   11.7850   14.5180 C   0  0  0  0  0  0  0  0  0  0  0  0
   -6.6370   10.6310   14.3910 C   0  0  0  0  0  0  0  0  0  0  0  0
   -5.9100   10.3170   13.2080 C   0  0  0  0  0  0  0  0  0  0  0  0
   -6.0860    7.3610   14.2980 N   0  0  0  0  0  0  0  0  0  0  0  0
   -5.6180    6.3730   15.0880 C   0  0  0  0  0  0  0  0  0  0  0  0
   -6.5130    5.2890   15.5250 C   0  0  0  0  0  0  0  0  0  0  0  0
   -7.7200    5.2660   14.8760 N   0  0  0  0  0  0  0  0  0  0  0  0
   -6.2090    4.4070   16.3230 O   0  0  0  0  0  0  0  0  0  0  0  0
   -1.4750    5.4770   17.6730 H   0  0  0  0  0  0  0  0  0  0  0  0
   -0.2940    5.1100   16.5290 H   0  0  0  0  0  0  0  0  0  0  0  0
   -3.6970    5.0530   16.6420 H   0  0  0  0  0  0  0  0  0  0  0  0
   -2.8248    7.9165   14.3126 H   0  0  0  0  0  0  0  0  0  0  0  0
   -3.7024    8.1625   11.6355 H   0  0  0  0  0  0  0  0  0  0  0  0
   -3.8528    9.9027    9.8687 H   0  0  0  0  0  0  0  0  0  0  0  0
   -5.3240   11.8745   10.1898 H   0  0  0  0  0  0  0  0  0  0  0  0
   -6.8244   13.1606   11.4773 H   0  0  0  0  0  0  0  0  0  0  0  0
   -8.1139   13.5891   13.5572 H   0  0  0  0  0  0  0  0  0  0  0  0
   -7.9721   11.9758   15.4489 H   0  0  0  0  0  0  0  0  0  0  0  0
   -6.5824    9.9363   15.2421 H   0  0  0  0  0  0  0  0  0  0  0  0
   -7.8180    5.8560   14.0580 H   0  0  0  0  0  0  0  0  0  0  0  0
   -8.2970    4.4470   14.9850 H   0  0  0  0  0  0  0  0  0  0  0  0
  1  2  1  0
  2  3  2  0
  2  4  1  0
  4  5  1  0
  5  6  2  0
  6  7  1  0
  7  8  1  0
  8  9  2  0
  9 10  1  0
 10 11  2  0
 11 12  1  0
 12 13  2  0
 13 14  1  0
 14 15  2  0
 15 16  1  0
 16 17  2  0
  7 18  1  0
 18 19  2  0
 19 20  1  0
 20 21  1  0
 20 22  2  0
 19  5  1  0
 17  8  1  0
 17 12  1  0
  1 23  1  0
  1 24  1  0
  4 25  1  0
  6 26  1  0
  9 27  1  0
 10 28  1  0
 11 29  1  0
 13 30  1  0
 14 31  1  0
 15 32  1  0
 16 33  1  0
 21 34  1  0
 21 35  1  0
M  END
>  <meeko>  (1) 
{"is_sidechain": [false], "free_energy": -11.514, "intermolecular_energy": -13.533, "internal_energy": -0.141}

$$$$
4m0y_ligand
     RDKit          3D

 35 37  0  0  0  0  0  0  0  0999 V2000
   -1.3240    5.4230   16.0490 N   0  0  0  0  0  0  0  0  0  0  0  0
   -2.2450    6.0870   15.2940 C   0  0  0  0  0  0  0  0  0  0  0  0
   -1.9270    6.6210   14.2410 O   0  0  0  0  0  0  0  0  0  0  0  0
   -3.5040    6.0080   15.8360 N   0  0  0  0  0  0  0  0  0  0  0  0
   -4.5640    6.7360   15.3270 C   0  0  0  0  0  0  0  0  0  0  0  0
   -4.4110    7.9220   14.6520 C   0  0  0  0  0  0  0  0  0  0  0  0
   -5.6750    8.4080   14.3750 N   0  0  0  0  0  0  0  0  0  0  0  0
   -5.9970    9.6120   13.6660 C   0  0  0  0  0  0  0  0  0  0  0  0
   -6.8980   10.5040   14.2860 C   0  0  0  0  0  0  0  0  0  0  0  0
   -7.2100   11.7240   13.6990 C   0  0  0  0  0  0  0  0  0  0  0  0
   -6.6320   12.0750   12.4870 C   0  0  0  0  0  0  0  0  0  0  0  0
   -5.7490   11.2090   11.8280 C   0  0  0  0  0  0  0  0  0  0  0  0
   -5.2140   11.6120   10.5920 C   0  0  0  0  0  0  0  0  0  0  0  0
   -4.3640   10.7830    9.8690 C   0  0  0  0  0  0  0  0  0  0  0  0
   -4.0480    9.5310   10.3680 C   0  0  0  0  0  0  0  0  0  0  0  0
   -4.5710    9.1200   11.5990 C   0  0  0  0  0  0  0  0  0  0  0  0
   -5.4170    9.9450   12.3920 C   0  0  0  0  0  0  0  0  0  0  0  0
   -6.6270    7.5420   14.7940 N   0  0  0  0  0  0  0  0  0  0  0  0
   -5.9620    6.4900   15.3160 C   0  0  0  0  0  0  0  0  0  0  0  0
   -6.6920    5.2710   15.6990 C   0  0  0  0  0  0  0  0  0  0  0  0
   -7.9640    5.1990   15.1910 N   0  0  0  0  0  0  0  0  0  0  0  0
   -6.2110    4.3340   16.3290 O   0  0  0  0  0  0  0  0  0  0  0  0
   -1.4000    5.5930   17.0420 H   0  0  0  0  0  0  0  0  0  0  0  0
   -0.3860    5.5810   15.6970 H   0  0  0  0  0  0  0  0  0  0  0  0
   -3.7120    5.1150   16.2620 H   0  0  0  0  0  0  0  0  0  0  0  0
   -3.4571    8.3982   14.3813 H   0  0  0  0  0  0  0  0  0  0  0  0
   -7.3591   10.2298   15.2463 H   0  0  0  0  0  0  0  0  0  0  0  0
   -7.9134   12.4100   14.1936 H   0  0  0  0  0  0  0  0  0  0  0  0
   -6.8710   13.0494   12.0360 H   0  0  0  0  0  0  0  0  0  0  0  0
   -5.4730   12.6023   10.1893 H   0  0  0  0  0  0  0  0  0  0  0  0
   -3.9461   11.1190    8.9086 H   0  0  0  0  0  0  0  0  0  0  0  0
   -3.3874    8.8610    9.7982 H   0  0  0  0  0  0  0  0  0  0  0  0
   -4.3173    8.1159   11.9698 H   0  0  0  0  0  0  0  0  0  0  0  0
   -8.2170    5.8730   14.4790 H   0  0  0  0  0  0  0  0  0  0  0  0
   -8.4450    4.3160   15.2520 H   0  0  0  0  0  0  0  0  0  0  0  0
  1  2  1  0
  2  3  2  0
  2  4  1  0
  4  5  1  0
  5  6  2  0
  6  7  1  0
  7  8  1  0
  8  9  2  0
  9 10  1  0
 10 11  2  0
 11 12  1  0
 12 13  2  0
 13 14  1  0
 14 15  2  0
 15 16  1  0
 16 17  2  0
  7 18  1  0
 18 19  2  0
 19 20  1  0
 20 21  1  0
 20 22  2  0
 19  5  1  0
 17  8  1  0
 17 12  1  0
  1 23  1  0
  1 24  1  0
  4 25  1  0
  6 26  1  0
  9 27  1  0
 10 28  1  0
 11 29  1  0
 13 30  1  0
 14 31  1  0
 15 32  1  0
 16 33  1  0
 21 34  1  0
 21 35  1  0
M  END
>  <meeko>  (2) 
{"is_sidechain": [false], "free_energy": -9.99, "intermolecular_energy": -11.85, "internal_energy": -0.032}

$$$$
4m0y_ligand
     RDKit          3D

 35 37  0  0  0  0  0  0  0  0999 V2000
   -6.4790    3.8020   16.1200 N   0  0  0  0  0  0  0  0  0  0  0  0
   -6.1930    4.8440   15.2880 C   0  0  0  0  0  0  0  0  0  0  0  0
   -6.8770    5.0630   14.2990 O   0  0  0  0  0  0  0  0  0  0  0  0
   -5.1330    5.5880   15.7440 N   0  0  0  0  0  0  0  0  0  0  0  0
   -4.5680    6.5950   14.9840 C   0  0  0  0  0  0  0  0  0  0  0  0
   -5.3060    7.5030   14.2640 C   0  0  0  0  0  0  0  0  0  0  0  0
   -4.4180    8.2960   13.5620 N   0  0  0  0  0  0  0  0  0  0  0  0
   -4.7430    9.3890   12.6930 C   0  0  0  0  0  0  0  0  0  0  0  0
   -4.1020    9.4270   11.4370 C   0  0  0  0  0  0  0  0  0  0  0  0
   -4.4110   10.4140   10.5090 C   0  0  0  0  0  0  0  0  0  0  0  0
   -5.3610   11.3780   10.8170 C   0  0  0  0  0  0  0  0  0  0  0  0
   -6.0040   11.3890   12.0620 C   0  0  0  0  0  0  0  0  0  0  0  0
   -6.9410   12.4050   12.3230 C   0  0  0  0  0  0  0  0  0  0  0  0
   -7.5840   12.4950   13.5520 C   0  0  0  0  0  0  0  0  0  0  0  0
   -7.2890   11.5750   14.5430 C   0  0  0  0  0  0  0  0  0  0  0  0
   -6.3620   10.5570   14.2940 C   0  0  0  0  0  0  0  0  0  0  0  0
   -5.7030   10.4020   13.0430 C   0  0  0  0  0  0  0  0  0  0  0  0
   -3.1390    7.9650   13.8570 N   0  0  0  0  0  0  0  0  0  0  0  0
   -3.2170    6.9760   14.7710 C   0  0  0  0  0  0  0  0  0  0  0  0
   -2.0030    6.5050   15.4570 C   0  0  0  0  0  0  0  0  0  0  0  0
   -2.0960    5.2260   15.9440 N   0  0  0  0  0  0  0  0  0  0  0  0
   -0.9480    7.1290   15.5240 O   0  0  0  0  0  0  0  0  0  0  0  0
   -5.6690    3.2880   16.4360 H   0  0  0  0  0  0  0  0  0  0  0  0
   -7.1900    3.2010   15.7170 H   0  0  0  0  0  0  0  0  0  0  0  0
   -5.1060    5.6890   16.7500 H   0  0  0  0  0  0  0  0  0  0  0  0
   -6.4029    7.5840   14.2490 H   0  0  0  0  0  0  0  0  0  0  0  0
   -3.3479    8.6655   11.1890 H   0  0  0  0  0  0  0  0  0  0  0  0
   -3.9041   10.4313    9.5329 H   0  0  0  0  0  0  0  0  0  0  0  0
   -5.6133   12.1462   10.0712 H   0  0  0  0  0  0  0  0  0  0  0  0
   -7.1693   13.1425   11.5395 H   0  0  0  0  0  0  0  0  0  0  0  0
   -8.3211   13.2907   13.7354 H   0  0  0  0  0  0  0  0  0  0  0  0
   -7.7821   11.6440   15.5239 H   0  0  0  0  0  0  0  0  0  0  0  0
   -6.1328    9.8454   15.1009 H   0  0  0  0  0  0  0  0  0  0  0  0
   -2.8900    4.6730   15.6440 H   0  0  0  0  0  0  0  0  0  0  0  0
   -1.2480    4.7770   16.2500 H   0  0  0  0  0  0  0  0  0  0  0  0
  1  2  1  0
  2  3  2  0
  2  4  1  0
  4  5  1  0
  5  6  2  0
  6  7  1  0
  7  8  1  0
  8  9  2  0
  9 10  1  0
 10 11  2  0
 11 12  1  0
 12 13  2  0
 13 14  1  0
 14 15  2  0
 15 16  1  0
 16 17  2  0
  7 18  1  0
 18 19  2  0
 19 20  1  0
 20 21  1  0
 20 22  2  0
 19  5  1  0
 17  8  1  0
 17 12  1  0
  1 23  1  0
  1 24  1  0
  4 25  1  0
  6 26  1  0
  9 27  1  0
 10 28  1  0
 11 29  1  0
 13 30  1  0
 14 31  1  0
 15 32  1  0
 16 33  1  0
 21 34  1  0
 21 35  1  0
M  END
>  <meeko>  (3) 
{"is_sidechain": [false], "free_energy": -9.513, "intermolecular_energy": -11.682, "internal_energy": 0.36}

$$$$
4m0y_ligand
     RDKit          3D

 35 37  0  0  0  0  0  0  0  0999 V2000
   -5.9030    3.5290   16.2630 N   0  0  0  0  0  0  0  0  0  0  0  0
   -5.9240    4.8700   16.0200 C   0  0  0  0  0  0  0  0  0  0  0  0
   -6.9190    5.5370   16.2650 O   0  0  0  0  0  0  0  0  0  0  0  0
   -4.7170    5.3250   15.5500 N   0  0  0  0  0  0  0  0  0  0  0  0
   -4.5550    6.6180   15.0870 C   0  0  0  0  0  0  0  0  0  0  0  0
   -5.6040    7.4470   14.7780 C   0  0  0  0  0  0  0  0  0  0  0  0
   -5.0730    8.6160   14.2660 N   0  0  0  0  0  0  0  0  0  0  0  0
   -5.8000    9.7720   13.8290 C   0  0  0  0  0  0  0  0  0  0  0  0
   -6.6890   10.3620   14.7520 C   0  0  0  0  0  0  0  0  0  0  0  0
   -7.3810   11.5230   14.4340 C   0  0  0  0  0  0  0  0  0  0  0  0
   -7.2000   12.1150   13.1910 C   0  0  0  0  0  0  0  0  0  0  0  0
   -6.3430   11.5490   12.2370 C   0  0  0  0  0  0  0  0  0  0  0  0
   -6.2190   12.1840   10.9880 C   0  0  0  0  0  0  0  0  0  0  0  0
   -5.4170   11.6520    9.9850 C   0  0  0  0  0  0  0  0  0  0  0  0
   -4.7370   10.4690   10.2150 C   0  0  0  0  0  0  0  0  0  0  0  0
   -4.8480    9.8310   11.4540 C   0  0  0  0  0  0  0  0  0  0  0  0
   -5.6290   10.3520   12.5230 C   0  0  0  0  0  0  0  0  0  0  0  0
   -3.7210    8.5840   14.2960 N   0  0  0  0  0  0  0  0  0  0  0  0
   -3.3930    7.4000   14.8540 C   0  0  0  0  0  0  0  0  0  0  0  0
   -1.9950    7.1140   15.2150 C   0  0  0  0  0  0  0  0  0  0  0  0
   -1.1840    8.2200   15.2240 N   0  0  0  0  0  0  0  0  0  0  0  0
   -1.5740    6.0200   15.5780 O   0  0  0  0  0  0  0  0  0  0  0  0
   -5.4660    2.9800   15.5350 H   0  0  0  0  0  0  0  0  0  0  0  0
   -6.8280    3.1900   16.5040 H   0  0  0  0  0  0  0  0  0  0  0  0
   -3.9170    4.8750   15.9730 H   0  0  0  0  0  0  0  0  0  0  0  0
   -6.6723    7.2223   14.9131 H   0  0  0  0  0  0  0  0  0  0  0  0
   -6.8360    9.8957   15.7374 H   0  0  0  0  0  0  0  0  0  0  0  0
   -8.0702   11.9723   15.1642 H   0  0  0  0  0  0  0  0  0  0  0  0
   -7.7382   13.0438   12.9509 H   0  0  0  0  0  0  0  0  0  0  0  0
   -6.7671   13.1193   10.8014 H   0  0  0  0  0  0  0  0  0  0  0  0
   -5.3238   12.1667    9.0173 H   0  0  0  0  0  0  0  0  0  0  0  0
   -4.1101   10.0313    9.4242 H   0  0  0  0  0  0  0  0  0  0  0  0
   -4.3081    8.8852   11.6091 H   0  0  0  0  0  0  0  0  0  0  0  0
   -1.6330    9.1250   15.1630 H   0  0  0  0  0  0  0  0  0  0  0  0
   -0.2720    8.1300   15.6430 H   0  0  0  0  0  0  0  0  0  0  0  0
  1  2  1  0
  2  3  2  0
  2  4  1  0
  4  5  1  0
  5  6  2  0
  6  7  1  0
  7  8  1  0
  8  9  2  0
  9 10  1  0
 10 11  2  0
 11 12  1  0
 12 13  2  0
 13 14  1  0
 14 15  2  0
 15 16  1  0
 16 17  2  0
  7 18  1  0
 18 19  2  0
 19 20  1  0
 20 21  1  0
 20 22  2  0
 19  5  1  0
 17  8  1  0
 17 12  1  0
  1 23  1  0
  1 24  1  0
  4 25  1  0
  6 26  1  0
  9 27  1  0
 10 28  1  0
 11 29  1  0
 13 30  1  0
 14 31  1  0
 15 32  1  0
 16 33  1  0
 21 34  1  0
 21 35  1  0
M  END
>  <meeko>  (4) 
{"is_sidechain": [false], "free_energy": -9.467, "intermolecular_energy": -11.275, "internal_energy": 0.007}

$$$$
4m0y_ligand
     RDKit          3D

 35 37  0  0  0  0  0  0  0  0999 V2000
    8.7530    7.1300   15.6080 N   0  0  0  0  0  0  0  0  0  0  0  0
    7.8770    7.3360   16.6320 C   0  0  0  0  0  0  0  0  0  0  0  0
    7.1230    8.2980   16.6280 O   0  0  0  0  0  0  0  0  0  0  0  0
    7.9310    6.3300   17.5640 N   0  0  0  0  0  0  0  0  0  0  0  0
    7.2470    6.4080   18.7630 C   0  0  0  0  0  0  0  0  0  0  0  0
    6.1630    5.6210   19.0660 C   0  0  0  0  0  0  0  0  0  0  0  0
    5.6830    6.0320   20.2960 N   0  0  0  0  0  0  0  0  0  0  0  0
    4.5730    5.4780   21.0140 C   0  0  0  0  0  0  0  0  0  0  0  0
    3.3150    5.5040   20.3760 C   0  0  0  0  0  0  0  0  0  0  0  0
    2.2010    4.9270   20.9730 C   0  0  0  0  0  0  0  0  0  0  0  0
    2.3210    4.3170   22.2150 C   0  0  0  0  0  0  0  0  0  0  0  0
    3.5480    4.2890   22.8920 C   0  0  0  0  0  0  0  0  0  0  0  0
    3.6020    3.6760   24.1560 C   0  0  0  0  0  0  0  0  0  0  0  0
    4.7780    3.6500   24.8960 C   0  0  0  0  0  0  0  0  0  0  0  0
    5.9160    4.2490   24.3860 C   0  0  0  0  0  0  0  0  0  0  0  0
    5.8770    4.8580   23.1270 C   0  0  0  0  0  0  0  0  0  0  0  0
    4.7070    4.8830   22.3170 C   0  0  0  0  0  0  0  0  0  0  0  0
    6.4610    7.0110   20.8140 N   0  0  0  0  0  0  0  0  0  0  0  0
    7.4540    7.2030   19.9200 C   0  0  0  0  0  0  0  0  0  0  0  0
    8.5930    8.0720   20.2560 C   0  0  0  0  0  0  0  0  0  0  0  0
    9.0290    7.9450   21.5510 N   0  0  0  0  0  0  0  0  0  0  0  0
    9.1920    8.7850   19.4570 O   0  0  0  0  0  0  0  0  0  0  0  0
    9.6750    6.8350   15.9020 H   0  0  0  0  0  0  0  0  0  0  0  0
    8.7800    7.9320   14.9870 H   0  0  0  0  0  0  0  0  0  0  0  0
    8.0770    5.4120   17.1670 H   0  0  0  0  0  0  0  0  0  0  0  0
    5.7520    4.8120   18.4442 H   0  0  0  0  0  0  0  0  0  0  0  0
    3.2148    5.9874   19.3930 H   0  0  0  0  0  0  0  0  0  0  0  0
    1.2265    4.9532   20.4634 H   0  0  0  0  0  0  0  0  0  0  0  0
    1.4386    3.8481   22.6749 H   0  0  0  0  0  0  0  0  0  0  0  0
    2.6956    3.2077   24.5674 H   0  0  0  0  0  0  0  0  0  0  0  0
    4.8038    3.1572   25.8791 H   0  0  0  0  0  0  0  0  0  0  0  0
    6.8489    4.2465   24.9688 H   0  0  0  0  0  0  0  0  0  0  0  0
    6.7905    5.3385   22.7466 H   0  0  0  0  0  0  0  0  0  0  0  0
    8.6650    7.1670   22.0880 H   0  0  0  0  0  0  0  0  0  0  0  0
    9.9150    8.3610   21.7910 H   0  0  0  0  0  0  0  0  0  0  0  0
  1  2  1  0
  2  3  2  0
  2  4  1  0
  4  5  1  0
  5  6  2  0
  6  7  1  0
  7  8  1  0
  8  9  2  0
  9 10  1  0
 10 11  2  0
 11 12  1  0
 12 13  2  0
 13 14  1  0
 14 15  2  0
 15 16  1  0
 16 17  2  0
  7 18  1  0
 18 19  2  0
 19 20  1  0
 20 21  1  0
 20 22  2  0
 19  5  1  0
 17  8  1  0
 17 12  1  0
  1 23  1  0
  1 24  1  0
  4 25  1  0
  6 26  1  0
  9 27  1  0
 10 28  1  0
 11 29  1  0
 13 30  1  0
 14 31  1  0
 15 32  1  0
 16 33  1  0
 21 34  1  0
 21 35  1  0
M  END
>  <meeko>  (5) 
{"is_sidechain": [false], "free_energy": -9.161, "intermolecular_energy": -10.339, "internal_energy": -0.57}

$$$$
