3udh_ligand
     RDKit          3D

 27 29  0  0  0  0  0  0  0  0999 V2000
   21.7550   36.0000   43.1940 O   0  0  0  0  0  0  0  0  0  0  0  0
   22.8190   36.3510   42.7120 C   0  0  0  0  0  0  0  0  0  0  0  0
   24.0230   36.5270   43.3650 N   0  0  0  0  0  0  0  0  0  0  0  0
   25.0290   36.8760   42.4760 C   0  0  0  0  0  0  0  0  0  0  0  0
   26.3540   37.1150   42.7680 C   0  0  0  0  0  0  0  0  0  0  0  0
   27.1910   37.4490   41.7030 C   0  0  0  0  0  0  0  0  0  0  0  0
   26.6880   37.5360   40.3910 C   0  0  0  0  0  0  0  0  0  0  0  0
   25.3390   37.2880   40.1180 C   0  0  0  0  0  0  0  0  0  0  0  0
   24.5140   36.9550   41.1790 C   0  0  0  0  0  0  0  0  0  0  0  0
   23.0480   36.6410   41.2170 C   0  0  2  0  0  0  0  0  0  0  0  0
   22.1280   37.7460   40.7150 C   0  0  0  0  0  0  0  0  0  0  0  0
   20.7910   37.0580   40.4740 C   0  0  0  0  0  0  0  0  0  0  0  0
   21.1110   35.6000   40.3090 N   0  0  0  0  0  0  0  0  0  0  0  0
   22.6040   35.4290   40.4210 C   0  0  0  0  0  0  0  0  0  0  0  0
   24.1480   36.4000   44.3620 H   0  0  0  0  0  0  0  0  0  0  0  0
   26.7358   37.0454   43.7973 H   0  0  0  0  0  0  0  0  0  0  0  0
   28.2567   37.6467   41.8907 H   0  0  0  0  0  0  0  0  0  0  0  0
   27.3667   37.8032   39.5676 H   0  0  0  0  0  0  0  0  0  0  0  0
   24.9458   37.3553   39.0929 H   0  0  0  0  0  0  0  0  0  0  0  0
   22.0255   38.5384   41.4710 H   0  0  0  0  0  0  0  0  0  0  0  0
   22.5164   38.2295   39.8065 H   0  0  0  0  0  0  0  0  0  0  0  0
   20.1210   37.2092   41.3332 H   0  0  0  0  0  0  0  0  0  0  0  0
   20.2775   37.4646   39.5902 H   0  0  0  0  0  0  0  0  0  0  0  0
   20.7290   35.2010   39.4420 H   0  0  0  0  0  0  0  0  0  0  0  0
   20.6680   35.0940   41.0960 H   0  0  0  0  0  0  0  0  0  0  0  0
   22.8531   34.4985   40.9522 H   0  0  0  0  0  0  0  0  0  0  0  0
   23.0989   35.3589   39.4411 H   0  0  0  0  0  0  0  0  0  0  0  0
  1  2  2  0
  2  3  1  0
  3  4  1  0
  4  5  2  0
  5  6  1  0
  6  7  2  0
  7  8  1  0
  8  9  2  0
  9 10  1  0
 10 11  1  6
 11 12  1  0
 12 13  1  0
 13 14  1  0
 10  2  1  0
  9  4  1  0
 14 10  1  0
  3 15  1  0
  5 16  1  0
  6 17  1  0
  7 18  1  0
  8 19  1  0
 11 20  1  0
 11 21  1  0
 12 22  1  0
 12 23  1  0
 13 24  1  0
 13 25  1  0
 14 26  1  0
 14 27  1  0
M  CHG  1  13   1
M  END
>  <meeko>  (1) 
{"is_sidechain": [false], "free_energy": -7.483, "intermolecular_energy": -7.483, "internal_energy": 0.0}

$$$$
3udh_ligand
     RDKit          3D

 27 29  0  0  0  0  0  0  0  0999 V2000
   26.9910   35.0280   43.4030 O   0  0  0  0  0  0  0  0  0  0  0  0
   25.9510   35.4670   42.9430 C   0  0  0  0  0  0  0  0  0  0  0  0
   24.6700   35.2790   43.4260 N   0  0  0  0  0  0  0  0  0  0  0  0
   23.7420   35.9830   42.6720 C   0  0  0  0  0  0  0  0  0  0  0  0
   22.3800   36.0410   42.8700 C   0  0  0  0  0  0  0  0  0  0  0  0
   21.6400   36.8240   41.9830 C   0  0  0  0  0  0  0  0  0  0  0  0
   22.2730   37.5170   40.9340 C   0  0  0  0  0  0  0  0  0  0  0  0
   23.6580   37.4430   40.7540 C   0  0  0  0  0  0  0  0  0  0  0  0
   24.3860   36.6680   41.6390 C   0  0  0  0  0  0  0  0  0  0  0  0
   25.8570   36.3850   41.7110 C   0  0  2  0  0  0  0  0  0  0  0  0
   26.4590   35.7250   40.4770 C   0  0  0  0  0  0  0  0  0  0  0  0
   27.9620   35.9200   40.6260 C   0  0  0  0  0  0  0  0  0  0  0  0
   28.1270   37.0820   41.5630 N   0  0  0  0  0  0  0  0  0  0  0  0
   26.7570   37.5850   41.9380 C   0  0  0  0  0  0  0  0  0  0  0  0
   24.4490   34.7110   44.2340 H   0  0  0  0  0  0  0  0  0  0  0  0
   21.8963   35.4934   43.6923 H   0  0  0  0  0  0  0  0  0  0  0  0
   20.5495   36.9005   42.1050 H   0  0  0  0  0  0  0  0  0  0  0  0
   21.6691   38.1261   40.2453 H   0  0  0  0  0  0  0  0  0  0  0  0
   24.1531   37.9842   39.9342 H   0  0  0  0  0  0  0  0  0  0  0  0
   26.2080   34.6544   40.4488 H   0  0  0  0  0  0  0  0  0  0  0  0
   26.0742   36.1610   39.5433 H   0  0  0  0  0  0  0  0  0  0  0  0
   28.4264   35.0169   41.0486 H   0  0  0  0  0  0  0  0  0  0  0  0
   28.4465   36.1068   39.6563 H   0  0  0  0  0  0  0  0  0  0  0  0
   28.7320   37.8220   41.1820 H   0  0  0  0  0  0  0  0  0  0  0  0
   28.5880   36.7280   42.4200 H   0  0  0  0  0  0  0  0  0  0  0  0
   26.7303   37.9014   42.9912 H   0  0  0  0  0  0  0  0  0  0  0  0
   26.4509   38.4637   41.3513 H   0  0  0  0  0  0  0  0  0  0  0  0
  1  2  2  0
  2  3  1  0
  3  4  1  0
  4  5  2  0
  5  6  1  0
  6  7  2  0
  7  8  1  0
  8  9  2  0
  9 10  1  0
 10 11  1  6
 11 12  1  0
 12 13  1  0
 13 14  1  0
 10  2  1  0
  9  4  1  0
 14 10  1  0
  3 15  1  0
  5 16  1  0
  6 17  1  0
  7 18  1  0
  8 19  1  0
 11 20  1  0
 11 21  1  0
 12 22  1  0
 12 23  1  0
 13 24  1  0
 13 25  1  0
 14 26  1  0
 14 27  1  0
M  CHG  1  13   1
M  END
>  <meeko>  (2) 
{"is_sidechain": [false], "free_energy": -6.905, "intermolecular_energy": -6.905, "internal_energy": 0.0}

$$$$
3udh_ligand
     RDKit          3D

 27 29  0  0  0  0  0  0  0  0999 V2000
   26.3750   37.7590   39.9850 O   0  0  0  0  0  0  0  0  0  0  0  0
   25.3450   37.4800   40.5760 C   0  0  0  0  0  0  0  0  0  0  0  0
   24.0470   37.6770   40.1480 N   0  0  0  0  0  0  0  0  0  0  0  0
   23.1350   37.1780   41.0660 C   0  0  0  0  0  0  0  0  0  0  0  0
   21.7610   37.1860   40.9650 C   0  0  0  0  0  0  0  0  0  0  0  0
   21.0410   36.6190   42.0170 C   0  0  0  0  0  0  0  0  0  0  0  0
   21.7050   36.0660   43.1280 C   0  0  0  0  0  0  0  0  0  0  0  0
   23.1020   36.0690   43.2090 C   0  0  0  0  0  0  0  0  0  0  0  0
   23.8100   36.6310   42.1610 C   0  0  0  0  0  0  0  0  0  0  0  0
   25.2860   36.7900   41.9520 C   0  0  2  0  0  0  0  0  0  0  0  0
   26.0150   37.6010   43.0150 C   0  0  0  0  0  0  0  0  0  0  0  0
   27.4880   37.2760   42.8090 C   0  0  0  0  0  0  0  0  0  0  0  0
   27.5140   35.9650   42.0770 N   0  0  0  0  0  0  0  0  0  0  0  0
   26.0920   35.5070   41.8790 C   0  0  0  0  0  0  0  0  0  0  0  0
   23.8030   38.1170   39.2690 H   0  0  0  0  0  0  0  0  0  0  0  0
   21.2530   37.6211   40.0917 H   0  0  0  0  0  0  0  0  0  0  0  0
   19.9418   36.6040   41.9777 H   0  0  0  0  0  0  0  0  0  0  0  0
   21.1164   35.6244   43.9456 H   0  0  0  0  0  0  0  0  0  0  0  0
   23.6210   35.6383   44.0780 H   0  0  0  0  0  0  0  0  0  0  0  0
   25.8321   38.6766   42.8751 H   0  0  0  0  0  0  0  0  0  0  0  0
   25.6736   37.3557   44.0315 H   0  0  0  0  0  0  0  0  0  0  0  0
   27.9740   38.0600   42.2097 H   0  0  0  0  0  0  0  0  0  0  0  0
   28.0297   37.2193   43.7647 H   0  0  0  0  0  0  0  0  0  0  0  0
   28.0980   35.2570   42.5420 H   0  0  0  0  0  0  0  0  0  0  0  0
   27.9320   36.1370   41.1460 H   0  0  0  0  0  0  0  0  0  0  0  0
   25.9691   35.0221   40.8993 H   0  0  0  0  0  0  0  0  0  0  0  0
   25.7765   34.7630   42.6253 H   0  0  0  0  0  0  0  0  0  0  0  0
  1  2  2  0
  2  3  1  0
  3  4  1  0
  4  5  2  0
  5  6  1  0
  6  7  2  0
  7  8  1  0
  8  9  2  0
  9 10  1  0
 10 11  1  1
 11 12  1  0
 12 13  1  0
 13 14  1  0
 10  2  1  0
  9  4  1  0
 14 10  1  0
  3 15  1  0
  5 16  1  0
  6 17  1  0
  7 18  1  0
  8 19  1  0
 11 20  1  0
 11 21  1  0
 12 22  1  0
 12 23  1  0
 13 24  1  0
 13 25  1  0
 14 26  1  0
 14 27  1  0
M  CHG  1  13   1
M  END
>  <meeko>  (3) 
{"is_sidechain": [false], "free_energy": -6.868, "intermolecular_energy": -6.868, "internal_energy": 0.0}

$$$$
3udh_ligand
     RDKit          3D

 27 29  0  0  0  0  0  0  0  0999 V2000
   23.6400   32.9560   42.5900 O   0  0  0  0  0  0  0  0  0  0  0  0
   24.1970   33.9490   42.1510 C   0  0  0  0  0  0  0  0  0  0  0  0
   25.5290   34.0880   41.8110 N   0  0  0  0  0  0  0  0  0  0  0  0
   25.7850   35.3470   41.2900 C   0  0  0  0  0  0  0  0  0  0  0  0
   26.9910   35.8310   40.8340 C   0  0  0  0  0  0  0  0  0  0  0  0
   27.0090   37.1380   40.3440 C   0  0  0  0  0  0  0  0  0  0  0  0
   25.8370   37.9160   40.3250 C   0  0  0  0  0  0  0  0  0  0  0  0
   24.6230   37.4030   40.7930 C   0  0  0  0  0  0  0  0  0  0  0  0
   24.6110   36.1050   41.2750 C   0  0  0  0  0  0  0  0  0  0  0  0
   23.4920   35.2820   41.8400 C   0  0  2  0  0  0  0  0  0  0  0  0
   22.8160   35.8580   43.0780 C   0  0  0  0  0  0  0  0  0  0  0  0
   21.5090   35.0850   43.2000 C   0  0  0  0  0  0  0  0  0  0  0  0
   21.2310   34.5410   41.8280 N   0  0  0  0  0  0  0  0  0  0  0  0
   22.3310   35.0030   40.9060 C   0  0  0  0  0  0  0  0  0  0  0  0
   26.2180   33.3530   41.9190 H   0  0  0  0  0  0  0  0  0  0  0  0
   27.9014   35.2139   40.8550 H   0  0  0  0  0  0  0  0  0  0  0  0
   27.9507   37.5647   39.9683 H   0  0  0  0  0  0  0  0  0  0  0  0
   25.8761   38.9441   39.9359 H   0  0  0  0  0  0  0  0  0  0  0  0
   23.7067   38.0114   40.7786 H   0  0  0  0  0  0  0  0  0  0  0  0
   23.4424   35.7040   43.9690 H   0  0  0  0  0  0  0  0  0  0  0  0
   22.6519   36.9426   42.9959 H   0  0  0  0  0  0  0  0  0  0  0  0
   21.6149   34.2639   43.9243 H   0  0  0  0  0  0  0  0  0  0  0  0
   20.6894   35.7258   43.5572 H   0  0  0  0  0  0  0  0  0  0  0  0
   20.2940   34.7850   41.4820 H   0  0  0  0  0  0  0  0  0  0  0  0
   21.2720   33.5090   41.8890 H   0  0  0  0  0  0  0  0  0  0  0  0
   22.5910   34.2172   40.1815 H   0  0  0  0  0  0  0  0  0  0  0  0
   22.0448   35.8813   40.3088 H   0  0  0  0  0  0  0  0  0  0  0  0
  1  2  2  0
  2  3  1  0
  3  4  1  0
  4  5  2  0
  5  6  1  0
  6  7  2  0
  7  8  1  0
  8  9  2  0
  9 10  1  0
 10 11  1  1
 11 12  1  0
 12 13  1  0
 13 14  1  0
 10  2  1  0
  9  4  1  0
 14 10  1  0
  3 15  1  0
  5 16  1  0
  6 17  1  0
  7 18  1  0
  8 19  1  0
 11 20  1  0
 11 21  1  0
 12 22  1  0
 12 23  1  0
 13 24  1  0
 13 25  1  0
 14 26  1  0
 14 27  1  0
M  CHG  1  13   1
M  END
>  <meeko>  (4) 
{"is_sidechain": [false], "free_energy": -6.823, "intermolecular_energy": -6.823, "internal_energy": 0.0}

$$$$
3udh_ligand
     RDKit          3D

 27 29  0  0  0  0  0  0  0  0999 V2000
   21.9430   34.1460   45.5560 O   0  0  0  0  0  0  0  0  0  0  0  0
   22.1680   34.8870   44.6140 C   0  0  0  0  0  0  0  0  0  0  0  0
   23.3840   35.4230   44.2340 N   0  0  0  0  0  0  0  0  0  0  0  0
   23.2600   36.1750   43.0760 C   0  0  0  0  0  0  0  0  0  0  0  0
   24.2620   36.8410   42.4040 C   0  0  0  0  0  0  0  0  0  0  0  0
   23.9020   37.5340   41.2470 C   0  0  0  0  0  0  0  0  0  0  0  0
   22.5680   37.5440   40.8000 C   0  0  0  0  0  0  0  0  0  0  0  0
   21.5680   36.8590   41.4990 C   0  0  0  0  0  0  0  0  0  0  0  0
   21.9320   36.1720   42.6430 C   0  0  0  0  0  0  0  0  0  0  0  0
   21.1110   35.3600   43.6000 C   0  0  2  0  0  0  0  0  0  0  0  0
   19.9740   36.1070   44.2860 C   0  0  0  0  0  0  0  0  0  0  0  0
   19.0790   35.0140   44.8540 C   0  0  0  0  0  0  0  0  0  0  0  0
   19.3910   33.7810   44.0560 N   0  0  0  0  0  0  0  0  0  0  0  0
   20.4250   34.1380   43.0190 C   0  0  0  0  0  0  0  0  0  0  0  0
   24.2500   35.2680   44.7360 H   0  0  0  0  0  0  0  0  0  0  0  0
   25.3013   36.8271   42.7641 H   0  0  0  0  0  0  0  0  0  0  0  0
   24.6701   38.0785   40.6782 H   0  0  0  0  0  0  0  0  0  0  0  0
   22.3071   38.0990   39.8868 H   0  0  0  0  0  0  0  0  0  0  0  0
   20.5250   36.8666   41.1497 H   0  0  0  0  0  0  0  0  0  0  0  0
   20.3616   36.7482   45.0914 H   0  0  0  0  0  0  0  0  0  0  0  0
   19.4335   36.7685   43.5930 H   0  0  0  0  0  0  0  0  0  0  0  0
   19.3026   34.8492   45.9184 H   0  0  0  0  0  0  0  0  0  0  0  0
   18.0147   35.2837   44.7868 H   0  0  0  0  0  0  0  0  0  0  0  0
   18.5540   33.3440   43.6480 H   0  0  0  0  0  0  0  0  0  0  0  0
   19.8070   33.0890   44.7030 H   0  0  0  0  0  0  0  0  0  0  0  0
   21.1415   33.3150   42.8801 H   0  0  0  0  0  0  0  0  0  0  0  0
   19.9869   34.3264   42.0278 H   0  0  0  0  0  0  0  0  0  0  0  0
  1  2  2  0
  2  3  1  0
  3  4  1  0
  4  5  2  0
  5  6  1  0
  6  7  2  0
  7  8  1  0
  8  9  2  0
  9 10  1  0
 10 11  1  1
 11 12  1  0
 12 13  1  0
 13 14  1  0
 10  2  1  0
  9  4  1  0
 14 10  1  0
  3 15  1  0
  5 16  1  0
  6 17  1  0
  7 18  1  0
  8 19  1  0
 11 20  1  0
 11 21  1  0
 12 22  1  0
 12 23  1  0
 13 24  1  0
 13 25  1  0
 14 26  1  0
 14 27  1  0
M  CHG  1  13   1
M  END
>  <meeko>  (5) 
{"is_sidechain": [false], "free_energy": -6.648, "intermolecular_energy": -6.648, "internal_energy": 0.0}

$$$$
3udh_ligand
     RDKit          3D

 27 29  0  0  0  0  0  0  0  0999 V2000
   17.8620   35.5120   42.7160 O   0  0  0  0  0  0  0  0  0  0  0  0
   19.0160   35.8190   42.4650 C   0  0  0  0  0  0  0  0  0  0  0  0
   19.4710   36.6100   41.4280 N   0  0  0  0  0  0  0  0  0  0  0  0
   20.8450   36.7850   41.4980 C   0  0  0  0  0  0  0  0  0  0  0  0
   21.6360   37.5220   40.6440 C   0  0  0  0  0  0  0  0  0  0  0  0
   23.0040   37.5600   40.9160 C   0  0  0  0  0  0  0  0  0  0  0  0
   23.5390   36.8690   42.0180 C   0  0  0  0  0  0  0  0  0  0  0  0
   22.7160   36.1270   42.8730 C   0  0  0  0  0  0  0  0  0  0  0  0
   21.3600   36.0950   42.5990 C   0  0  0  0  0  0  0  0  0  0  0  0
   20.2350   35.4010   43.3070 C   0  0  2  0  0  0  0  0  0  0  0  0
   20.3560   33.8860   43.4020 C   0  0  0  0  0  0  0  0  0  0  0  0
   19.3550   33.4830   44.4770 C   0  0  0  0  0  0  0  0  0  0  0  0
   19.1260   34.7190   45.2990 N   0  0  0  0  0  0  0  0  0  0  0  0
   19.9910   35.8210   44.7440 C   0  0  0  0  0  0  0  0  0  0  0  0
   18.8700   37.0160   40.7220 H   0  0  0  0  0  0  0  0  0  0  0  0
   21.2073   38.0577   39.7842 H   0  0  0  0  0  0  0  0  0  0  0  0
   23.6723   38.1376   40.2604 H   0  0  0  0  0  0  0  0  0  0  0  0
   24.6211   36.9124   42.2109 H   0  0  0  0  0  0  0  0  0  0  0  0
   23.1337   35.5866   43.7352 H   0  0  0  0  0  0  0  0  0  0  0  0
   20.1024   33.4159   42.4404 H   0  0  0  0  0  0  0  0  0  0  0  0
   21.3795   33.5655   43.6462 H   0  0  0  0  0  0  0  0  0  0  0  0
   18.4134   33.1469   44.0183 H   0  0  0  0  0  0  0  0  0  0  0  0
   19.7293   32.6499   45.0901 H   0  0  0  0  0  0  0  0  0  0  0  0
   19.2740   34.5650   46.3050 H   0  0  0  0  0  0  0  0  0  0  0  0
   18.1350   34.9920   45.1780 H   0  0  0  0  0  0  0  0  0  0  0  0
   19.4686   36.7881   44.7862 H   0  0  0  0  0  0  0  0  0  0  0  0
   20.9234   35.9565   45.3116 H   0  0  0  0  0  0  0  0  0  0  0  0
  1  2  2  0
  2  3  1  0
  3  4  1  0
  4  5  2  0
  5  6  1  0
  6  7  2  0
  7  8  1  0
  8  9  2  0
  9 10  1  0
 10 11  1  1
 11 12  1  0
 12 13  1  0
 13 14  1  0
 10  2  1  0
  9  4  1  0
 14 10  1  0
  3 15  1  0
  5 16  1  0
  6 17  1  0
  7 18  1  0
  8 19  1  0
 11 20  1  0
 11 21  1  0
 12 22  1  0
 12 23  1  0
 13 24  1  0
 13 25  1  0
 14 26  1  0
 14 27  1  0
M  CHG  1  13   1
M  END
>  <meeko>  (6) 
{"is_sidechain": [false], "free_energy": -6.55, "intermolecular_energy": -6.55, "internal_energy": 0.0}

$$$$
3udh_ligand
     RDKit          3D

 27 29  0  0  0  0  0  0  0  0999 V2000
   21.2400   37.4010   40.3650 O   0  0  0  0  0  0  0  0  0  0  0  0
   21.2150   36.8670   41.4610 C   0  0  0  0  0  0  0  0  0  0  0  0
   20.1580   36.8150   42.3500 N   0  0  0  0  0  0  0  0  0  0  0  0
   20.4830   36.0690   43.4720 C   0  0  0  0  0  0  0  0  0  0  0  0
   19.6740   35.7930   44.5530 C   0  0  0  0  0  0  0  0  0  0  0  0
   20.2170   35.0110   45.5720 C   0  0  0  0  0  0  0  0  0  0  0  0
   21.5380   34.5320   45.4860 C   0  0  0  0  0  0  0  0  0  0  0  0
   22.3410   34.8240   44.3790 C   0  0  0  0  0  0  0  0  0  0  0  0
   21.7950   35.5990   43.3700 C   0  0  0  0  0  0  0  0  0  0  0  0
   22.3860   36.0820   42.0790 C   0  0  2  0  0  0  0  0  0  0  0  0
   23.6310   36.9500   42.2130 C   0  0  0  0  0  0  0  0  0  0  0  0
   24.2480   36.9600   40.8200 C   0  0  0  0  0  0  0  0  0  0  0  0
   23.7060   35.7410   40.1300 N   0  0  0  0  0  0  0  0  0  0  0  0
   22.8130   35.0080   41.0970 C   0  0  0  0  0  0  0  0  0  0  0  0
   19.2610   37.2570   42.1860 H   0  0  0  0  0  0  0  0  0  0  0  0
   18.6435   36.1735   44.6097 H   0  0  0  0  0  0  0  0  0  0  0  0
   19.6060   34.7656   46.4532 H   0  0  0  0  0  0  0  0  0  0  0  0
   21.9452   33.9180   46.3029 H   0  0  0  0  0  0  0  0  0  0  0  0
   23.3733   34.4500   44.3120 H   0  0  0  0  0  0  0  0  0  0  0  0
   23.3611   37.9697   42.5249 H   0  0  0  0  0  0  0  0  0  0  0  0
   24.3266   36.5651   42.9733 H   0  0  0  0  0  0  0  0  0  0  0  0
   23.9554   37.8707   40.2769 H   0  0  0  0  0  0  0  0  0  0  0  0
   25.3472   36.9496   40.8614 H   0  0  0  0  0  0  0  0  0  0  0  0
   24.4440   35.1410   39.7370 H   0  0  0  0  0  0  0  0  0  0  0  0
   23.1270   36.0650   39.3360 H   0  0  0  0  0  0  0  0  0  0  0  0
   21.9413   34.5812   40.5793 H   0  0  0  0  0  0  0  0  0  0  0  0
   23.3181   34.1614   41.5850 H   0  0  0  0  0  0  0  0  0  0  0  0
  1  2  2  0
  2  3  1  0
  3  4  1  0
  4  5  2  0
  5  6  1  0
  6  7  2  0
  7  8  1  0
  8  9  2  0
  9 10  1  0
 10 11  1  1
 11 12  1  0
 12 13  1  0
 13 14  1  0
 10  2  1  0
  9  4  1  0
 14 10  1  0
  3 15  1  0
  5 16  1  0
  6 17  1  0
  7 18  1  0
  8 19  1  0
 11 20  1  0
 11 21  1  0
 12 22  1  0
 12 23  1  0
 13 24  1  0
 13 25  1  0
 14 26  1  0
 14 27  1  0
M  CHG  1  13   1
M  END
>  <meeko>  (7) 
{"is_sidechain": [false], "free_energy": -6.41, "intermolecular_energy": -6.41, "internal_energy": 0.0}

$$$$
3udh_ligand
     RDKit          3D

 27 29  0  0  0  0  0  0  0  0999 V2000
   22.7260   33.8000   41.9720 O   0  0  0  0  0  0  0  0  0  0  0  0
   21.6740   34.3170   42.3110 C   0  0  0  0  0  0  0  0  0  0  0  0
   20.4010   33.7920   42.1980 N   0  0  0  0  0  0  0  0  0  0  0  0
   19.4570   34.6470   42.7450 C   0  0  0  0  0  0  0  0  0  0  0  0
   18.0960   34.4450   42.8240 C   0  0  0  0  0  0  0  0  0  0  0  0
   17.3360   35.4480   43.4260 C   0  0  0  0  0  0  0  0  0  0  0  0
   17.9490   36.6120   43.9270 C   0  0  0  0  0  0  0  0  0  0  0  0
   19.3330   36.7950   43.8370 C   0  0  0  0  0  0  0  0  0  0  0  0
   20.0800   35.7950   43.2410 C   0  0  0  0  0  0  0  0  0  0  0  0
   21.5560   35.6930   42.9910 C   0  0  2  0  0  0  0  0  0  0  0  0
   22.1520   36.7960   42.1280 C   0  0  0  0  0  0  0  0  0  0  0  0
   23.6540   36.7040   42.3620 C   0  0  0  0  0  0  0  0  0  0  0  0
   23.8150   35.9930   43.6750 N   0  0  0  0  0  0  0  0  0  0  0  0
   22.4420   35.6960   44.2220 C   0  0  0  0  0  0  0  0  0  0  0  0
   20.1970   32.8910   41.7820 H   0  0  0  0  0  0  0  0  0  0  0  0
   17.6285   33.5310   42.4289 H   0  0  0  0  0  0  0  0  0  0  0  0
   16.2458   35.3280   43.5101 H   0  0  0  0  0  0  0  0  0  0  0  0
   17.3297   37.3903   44.3969 H   0  0  0  0  0  0  0  0  0  0  0  0
   19.8118   37.7050   44.2277 H   0  0  0  0  0  0  0  0  0  0  0  0
   21.9141   36.6292   41.0671 H   0  0  0  0  0  0  0  0  0  0  0  0
   21.7514   37.7874   42.3861 H   0  0  0  0  0  0  0  0  0  0  0  0
   24.1342   36.1322   41.5542 H   0  0  0  0  0  0  0  0  0  0  0  0
   24.1254   37.6977   42.3766 H   0  0  0  0  0  0  0  0  0  0  0  0
   24.4050   36.5080   44.3410 H   0  0  0  0  0  0  0  0  0  0  0  0
   24.2890   35.0930   43.4850 H   0  0  0  0  0  0  0  0  0  0  0  0
   22.4225   34.7161   44.7214 H   0  0  0  0  0  0  0  0  0  0  0  0
   22.1178   36.4262   44.9781 H   0  0  0  0  0  0  0  0  0  0  0  0
  1  2  2  0
  2  3  1  0
  3  4  1  0
  4  5  2  0
  5  6  1  0
  6  7  2  0
  7  8  1  0
  8  9  2  0
  9 10  1  0
 10 11  1  6
 11 12  1  0
 12 13  1  0
 13 14  1  0
 10  2  1  0
  9  4  1  0
 14 10  1  0
  3 15  1  0
  5 16  1  0
  6 17  1  0
  7 18  1  0
  8 19  1  0
 11 20  1  0
 11 21  1  0
 12 22  1  0
 12 23  1  0
 13 24  1  0
 13 25  1  0
 14 26  1  0
 14 27  1  0
M  CHG  1  13   1
M  END
>  <meeko>  (8) 
{"is_sidechain": [false], "free_energy": -6.256, "intermolecular_energy": -6.256, "internal_energy": 0.0}

$$$$
3udh_ligand
     RDKit          3D

 27 29  0  0  0  0  0  0  0  0999 V2000
   22.3720   34.6470   40.8920 O   0  0  0  0  0  0  0  0  0  0  0  0
   23.4440   35.1910   41.1000 C   0  0  0  0  0  0  0  0  0  0  0  0
   24.2820   35.7850   40.1760 N   0  0  0  0  0  0  0  0  0  0  0  0
   25.3870   36.3510   40.7930 C   0  0  0  0  0  0  0  0  0  0  0  0
   26.4190   37.0360   40.1890 C   0  0  0  0  0  0  0  0  0  0  0  0
   27.4290   37.5260   41.0170 C   0  0  0  0  0  0  0  0  0  0  0  0
   27.3830   37.3200   42.4090 C   0  0  0  0  0  0  0  0  0  0  0  0
   26.3250   36.6220   43.0000 C   0  0  0  0  0  0  0  0  0  0  0  0
   25.3240   36.1410   42.1730 C   0  0  0  0  0  0  0  0  0  0  0  0
   24.0810   35.3640   42.4910 C   0  0  2  0  0  0  0  0  0  0  0  0
   24.3050   34.0210   43.1740 C   0  0  0  0  0  0  0  0  0  0  0  0
   22.9420   33.6430   43.7400 C   0  0  0  0  0  0  0  0  0  0  0  0
   22.1810   34.9320   43.8550 N   0  0  0  0  0  0  0  0  0  0  0  0
   23.0780   36.0530   43.3950 C   0  0  0  0  0  0  0  0  0  0  0  0
   24.0960   35.8100   39.1810 H   0  0  0  0  0  0  0  0  0  0  0  0
   26.4452   37.1898   39.1001 H   0  0  0  0  0  0  0  0  0  0  0  0
   28.2714   38.0799   40.5771 H   0  0  0  0  0  0  0  0  0  0  0  0
   28.1919   37.7142   43.0416 H   0  0  0  0  0  0  0  0  0  0  0  0
   26.2892   36.4602   44.0874 H   0  0  0  0  0  0  0  0  0  0  0  0
   24.6457   33.2684   42.4477 H   0  0  0  0  0  0  0  0  0  0  0  0
   25.0792   34.0745   43.9536 H   0  0  0  0  0  0  0  0  0  0  0  0
   22.4232   32.9500   43.0613 H   0  0  0  0  0  0  0  0  0  0  0  0
   23.0314   33.1351   44.7116 H   0  0  0  0  0  0  0  0  0  0  0  0
   21.7980   35.0900   44.7960 H   0  0  0  0  0  0  0  0  0  0  0  0
   21.3750   34.8760   43.2070 H   0  0  0  0  0  0  0  0  0  0  0  0
   22.5055   36.8106   42.8398 H   0  0  0  0  0  0  0  0  0  0  0  0
   23.5542   36.5875   44.2302 H   0  0  0  0  0  0  0  0  0  0  0  0
  1  2  2  0
  2  3  1  0
  3  4  1  0
  4  5  2  0
  5  6  1  0
  6  7  2  0
  7  8  1  0
  8  9  2  0
  9 10  1  0
 10 11  1  1
 11 12  1  0
 12 13  1  0
 13 14  1  0
 10  2  1  0
  9  4  1  0
 14 10  1  0
  3 15  1  0
  5 16  1  0
  6 17  1  0
  7 18  1  0
  8 19  1  0
 11 20  1  0
 11 21  1  0
 12 22  1  0
 12 23  1  0
 13 24  1  0
 13 25  1  0
 14 26  1  0
 14 27  1  0
M  CHG  1  13   1
M  END
>  <meeko>  (9) 
{"is_sidechain": [false], "free_energy": -6.195, "intermolecular_energy": -6.195, "internal_energy": 0.0}

$$$$
