2vw5_ligand
     RDKit          3D

 78 79  0  0  0  0  0  0  0  0999 V2000
   42.1250  -10.6570   31.5370 C   0  0  0  0  0  0  0  0  0  0  0  0
   42.2550  -10.8350   32.9420 O   0  0  0  0  0  0  0  0  0  0  0  0
   41.5350   -9.8590   33.7010 C   0  0  1  0  0  0  0  0  0  0  0  0
   40.4390  -10.5350   34.5700 C   0  0  0  0  0  0  0  0  0  0  0  0
   39.0350  -10.8380   33.9810 C   0  0  2  0  0  0  0  0  0  0  0  0
   38.2860   -9.5810   33.5380 C   0  0  0  0  0  0  0  0  0  0  0  0
   38.2200  -11.8390   34.8500 C   0  0  0  0  0  0  0  0  0  0  0  0
   37.4530  -11.2440   36.0060 C   0  0  0  0  0  0  0  0  0  0  0  0
   36.0550  -11.2350   36.0320 C   0  0  0  0  0  0  0  0  0  0  0  0
   35.3930  -10.5460   37.0460 C   0  0  0  0  0  0  0  0  0  0  0  0
   34.0300  -10.4970   37.0940 O   0  0  0  0  0  0  0  0  0  0  0  0
   36.0980   -9.8550   38.0290 C   0  0  0  0  0  0  0  0  0  0  0  0
   37.4920   -9.8840   38.0320 C   0  0  0  0  0  0  0  0  0  0  0  0
   38.1620  -10.5990   37.0330 C   0  0  0  0  0  0  0  0  0  0  0  0
   38.1830   -9.0770   38.9590 N   0  0  0  0  0  0  0  0  0  0  0  0
   39.2430   -9.5090   39.7230 C   0  0  0  0  0  0  0  0  0  0  0  0
   39.3750  -10.6290   40.2060 O   0  0  0  0  0  0  0  0  0  0  0  0
   40.3070   -8.4790   39.9460 C   0  0  0  0  0  0  0  0  0  0  0  0
   41.6960   -9.0140   40.0800 C   0  0  0  0  0  0  0  0  0  0  0  0
   39.9420   -7.1910   39.7750 C   0  0  0  0  0  0  0  0  0  0  0  0
   40.8580   -6.0240   39.5180 C   0  0  0  0  0  0  0  0  0  0  0  0
   40.1040   -5.0410   38.6070 C   0  0  0  0  0  0  0  0  0  0  0  0
   40.9630   -4.3730   37.5160 C   0  0  2  0  0  0  0  0  0  0  0  0
   40.7550   -2.8540   37.5070 C   0  0  0  0  0  0  0  0  0  0  0  0
   40.6500   -4.9790   36.1110 C   0  0  1  0  0  0  0  0  0  0  0  0
   41.6390   -4.5000   35.1790 O   0  0  0  0  0  0  0  0  0  0  0  0
   41.2060   -4.2820   33.9200 C   0  0  0  0  0  0  0  0  0  0  0  0
   40.0930   -3.5160   33.9480 N   0  0  0  0  0  0  0  0  0  0  0  0
   41.7090   -4.6910   32.8860 O   0  0  0  0  0  0  0  0  0  0  0  0
   40.6850   -6.5100   36.0910 C   0  0  0  0  0  0  0  0  0  0  0  0
   39.3480   -7.2040   36.0150 C   0  0  0  0  0  0  0  0  0  0  0  0
   41.8690   -7.1620   36.1130 C   0  0  0  0  0  0  0  0  0  0  0  0
   42.0980   -8.6580   35.9330 C   0  0  2  0  0  0  0  0  0  0  0  0
   43.0910   -9.1520   36.9880 C   0  0  0  0  0  0  0  0  0  0  0  0
   42.5620   -8.9710   34.4700 C   0  0  1  0  0  0  0  0  0  0  0  0
   43.8490   -9.5960   34.4700 O   0  0  0  0  0  0  0  0  0  0  0  0
   41.4872   -9.7837   31.3355 H   0  0  0  0  0  0  0  0  0  0  0  0
   43.1189  -10.4951   31.0944 H   0  0  0  0  0  0  0  0  0  0  0  0
   41.6683  -11.5545   31.0944 H   0  0  0  0  0  0  0  0  0  0  0  0
   40.9674   -9.1765   33.0514 H   0  0  0  0  0  0  0  0  0  0  0  0
   40.8532  -11.4972   34.9055 H   0  0  0  0  0  0  0  0  0  0  0  0
   40.2253   -9.7714   35.3324 H   0  0  0  0  0  0  0  0  0  0  0  0
   39.1939  -11.3821   33.0383 H   0  0  0  0  0  0  0  0  0  0  0  0
   37.9525   -9.0214   34.4243 H   0  0  0  0  0  0  0  0  0  0  0  0
   38.9548   -8.9489   32.9355 H   0  0  0  0  0  0  0  0  0  0  0  0
   37.4117   -9.8683   32.9355 H   0  0  0  0  0  0  0  0  0  0  0  0
   37.4977  -12.3443   34.1921 H   0  0  0  0  0  0  0  0  0  0  0  0
   38.9642  -12.5101   35.3036 H   0  0  0  0  0  0  0  0  0  0  0  0
   35.4826  -11.7675   35.2582 H   0  0  0  0  0  0  0  0  0  0  0  0
   33.7360   -9.6910   36.6380 H   0  0  0  0  0  0  0  0  0  0  0  0
   35.5564   -9.2881   38.8006 H   0  0  0  0  0  0  0  0  0  0  0  0
   39.2603  -10.6569   37.0522 H   0  0  0  0  0  0  0  0  0  0  0  0
   38.0010   -8.0840   38.9210 H   0  0  0  0  0  0  0  0  0  0  0  0
   41.9500   -9.1118   41.1458 H   0  0  0  0  0  0  0  0  0  0  0  0
   41.7574  -10.0001   39.5964 H   0  0  0  0  0  0  0  0  0  0  0  0
   42.4030   -8.3238   39.5964 H   0  0  0  0  0  0  0  0  0  0  0  0
   38.8655   -6.9714   39.8289 H   0  0  0  0  0  0  0  0  0  0  0  0
   41.1176   -5.5333   40.4676 H   0  0  0  0  0  0  0  0  0  0  0  0
   41.7906   -6.3594   39.0407 H   0  0  0  0  0  0  0  0  0  0  0  0
   39.2904   -5.5909   38.1114 H   0  0  0  0  0  0  0  0  0  0  0  0
   39.7494   -4.2288   39.2586 H   0  0  0  0  0  0  0  0  0  0  0  0
   42.0192   -4.5730   37.7494 H   0  0  0  0  0  0  0  0  0  0  0  0
   40.7044   -2.4847   38.5419 H   0  0  0  0  0  0  0  0  0  0  0  0
   41.5955   -2.3719   36.9863 H   0  0  0  0  0  0  0  0  0  0  0  0
   39.8158   -2.6156   36.9863 H   0  0  0  0  0  0  0  0  0  0  0  0
   39.6303   -4.6660   35.8423 H   0  0  0  0  0  0  0  0  0  0  0  0
   39.7200   -3.1810   33.0730 H   0  0  0  0  0  0  0  0  0  0  0  0
   39.8010   -3.1040   34.8200 H   0  0  0  0  0  0  0  0  0  0  0  0
   38.9766   -7.3968   37.0323 H   0  0  0  0  0  0  0  0  0  0  0  0
   38.6324   -6.5635   35.4786 H   0  0  0  0  0  0  0  0  0  0  0  0
   39.4599   -8.1578   35.4786 H   0  0  0  0  0  0  0  0  0  0  0  0
   42.7648   -6.5456   36.2789 H   0  0  0  0  0  0  0  0  0  0  0  0
   41.1544   -9.2030   36.0834 H   0  0  0  0  0  0  0  0  0  0  0  0
   42.6889   -8.9520   37.9921 H   0  0  0  0  0  0  0  0  0  0  0  0
   43.2488  -10.2337   36.8650 H   0  0  0  0  0  0  0  0  0  0  0  0
   44.0489   -8.6254   36.8650 H   0  0  0  0  0  0  0  0  0  0  0  0
   42.6276   -8.0078   33.9429 H   0  0  0  0  0  0  0  0  0  0  0  0
   44.4030   -9.1240   35.1160 H   0  0  0  0  0  0  0  0  0  0  0  0
  1  2  1  0
  2  3  1  0
  3  4  1  0
  4  5  1  0
  5  6  1  0
  5  7  1  0
  7  8  1  0
  8  9  2  0
  9 10  1  0
 10 11  1  0
 10 12  2  0
 12 13  1  0
 13 14  2  0
 13 15  1  0
 15 16  1  0
 16 17  2  0
 16 18  1  0
 18 19  1  0
 18 20  2  0
 20 21  1  0
 21 22  1  0
 22 23  1  0
 23 24  1  0
 23 25  1  0
 25 26  1  0
 26 27  1  0
 27 28  1  0
 27 29  2  0
 25 30  1  0
 30 31  1  0
 30 32  2  0
 32 33  1  0
 33 34  1  0
 33 35  1  0
 35 36  1  0
 35  3  1  0
 14  8  1  0
  1 37  1  0
  1 38  1  0
  1 39  1  0
  3 40  1  6
  4 41  1  0
  4 42  1  0
  5 43  1  6
  6 44  1  0
  6 45  1  0
  6 46  1  0
  7 47  1  0
  7 48  1  0
  9 49  1  0
 11 50  1  0
 12 51  1  0
 14 52  1  0
 15 53  1  0
 19 54  1  0
 19 55  1  0
 19 56  1  0
 20 57  1  0
 21 58  1  0
 21 59  1  0
 22 60  1  0
 22 61  1  0
 23 62  1  1
 24 63  1  0
 24 64  1  0
 24 65  1  0
 25 66  1  6
 28 67  1  0
 28 68  1  0
 31 69  1  0
 31 70  1  0
 31 71  1  0
 32 72  1  0
 33 73  1  1
 34 74  1  0
 34 75  1  0
 34 76  1  0
 35 77  1  6
 36 78  1  0
M  END
>  <meeko>  (1) 
{"is_sidechain": [false], "free_energy": -5.802, "intermolecular_energy": -11.568, "internal_energy": -3.186}

$$$$
2vw5_ligand
     RDKit          3D

 78 79  0  0  0  0  0  0  0  0999 V2000
   45.3030   -8.3760   39.3040 C   0  0  0  0  0  0  0  0  0  0  0  0
   44.7490   -8.1590   38.0130 O   0  0  0  0  0  0  0  0  0  0  0  0
   43.3220   -8.0480   38.0260 C   0  0  1  0  0  0  0  0  0  0  0  0
   42.8320   -7.3810   39.3410 C   0  0  0  0  0  0  0  0  0  0  0  0
   41.8790   -8.1380   40.3050 C   0  0  2  0  0  0  0  0  0  0  0  0
   42.3780   -8.1540   41.7510 C   0  0  0  0  0  0  0  0  0  0  0  0
   41.4100   -9.5080   39.7370 C   0  0  0  0  0  0  0  0  0  0  0  0
   39.9770   -9.5760   39.2660 C   0  0  0  0  0  0  0  0  0  0  0  0
   38.9170   -9.1620   40.0790 C   0  0  0  0  0  0  0  0  0  0  0  0
   37.6060   -9.3810   39.6600 C   0  0  0  0  0  0  0  0  0  0  0  0
   36.5450   -9.0100   40.4350 O   0  0  0  0  0  0  0  0  0  0  0  0
   37.3300  -10.0150   38.4500 C   0  0  0  0  0  0  0  0  0  0  0  0
   38.3790  -10.4020   37.6160 C   0  0  0  0  0  0  0  0  0  0  0  0
   39.6970  -10.1580   38.0190 C   0  0  0  0  0  0  0  0  0  0  0  0
   38.0810  -11.1520   36.4600 N   0  0  0  0  0  0  0  0  0  0  0  0
   38.1320  -10.6520   35.1790 C   0  0  0  0  0  0  0  0  0  0  0  0
   37.8250   -9.5150   34.8350 O   0  0  0  0  0  0  0  0  0  0  0  0
   38.6190  -11.6270   34.1520 C   0  0  0  0  0  0  0  0  0  0  0  0
   37.7690  -12.8420   33.9720 C   0  0  0  0  0  0  0  0  0  0  0  0
   39.6210  -11.2070   33.3520 C   0  0  0  0  0  0  0  0  0  0  0  0
   40.0010  -11.7790   32.0110 C   0  0  0  0  0  0  0  0  0  0  0  0
   41.5350  -11.8800   31.9740 C   0  0  0  0  0  0  0  0  0  0  0  0
   42.2810  -10.5610   32.2520 C   0  0  2  0  0  0  0  0  0  0  0  0
   43.0810  -10.1140   31.0220 C   0  0  0  0  0  0  0  0  0  0  0  0
   43.2170  -10.7000   33.4940 C   0  0  1  0  0  0  0  0  0  0  0  0
   44.4340   -9.9760   33.2300 O   0  0  0  0  0  0  0  0  0  0  0  0
   45.5470  -10.4600   33.8190 C   0  0  0  0  0  0  0  0  0  0  0  0
   45.6010  -11.8010   33.6590 N   0  0  0  0  0  0  0  0  0  0  0  0
   46.4020   -9.8240   34.4140 O   0  0  0  0  0  0  0  0  0  0  0  0
   42.6030  -10.1360   34.7800 C   0  0  0  0  0  0  0  0  0  0  0  0
   42.5660  -11.0710   35.9630 C   0  0  0  0  0  0  0  0  0  0  0  0
   42.1570   -8.8600   34.8160 C   0  0  0  0  0  0  0  0  0  0  0  0
   41.6760   -8.0900   36.0400 C   0  0  2  0  0  0  0  0  0  0  0  0
   40.5420   -7.1450   35.6330 C   0  0  0  0  0  0  0  0  0  0  0  0
   42.8710   -7.3440   36.7250 C   0  0  1  0  0  0  0  0  0  0  0  0
   42.5270   -5.9810   36.9980 O   0  0  0  0  0  0  0  0  0  0  0  0
   44.5689   -8.0885   40.0711 H   0  0  0  0  0  0  0  0  0  0  0  0
   45.5568   -9.4400   39.4200 H   0  0  0  0  0  0  0  0  0  0  0  0
   46.2120   -7.7675   39.4200 H   0  0  0  0  0  0  0  0  0  0  0  0
   42.8434   -9.0384   38.0309 H   0  0  0  0  0  0  0  0  0  0  0  0
   43.7325   -7.1309   39.9212 H   0  0  0  0  0  0  0  0  0  0  0  0
   42.2066   -6.5521   38.9779 H   0  0  0  0  0  0  0  0  0  0  0  0
   40.9506   -7.5510   40.3643 H   0  0  0  0  0  0  0  0  0  0  0  0
   41.5178   -8.1264   42.4361 H   0  0  0  0  0  0  0  0  0  0  0  0
   42.9587   -9.0712   41.9284 H   0  0  0  0  0  0  0  0  0  0  0  0
   43.0163   -7.2759   41.9284 H   0  0  0  0  0  0  0  0  0  0  0  0
   42.0568   -9.7569   38.8828 H   0  0  0  0  0  0  0  0  0  0  0  0
   41.4791  -10.2154   40.5766 H   0  0  0  0  0  0  0  0  0  0  0  0
   39.1164   -8.6676   41.0412 H   0  0  0  0  0  0  0  0  0  0  0  0
   35.7270   -9.2190   39.9550 H   0  0  0  0  0  0  0  0  0  0  0  0
   36.2887  -10.2095   38.1537 H   0  0  0  0  0  0  0  0  0  0  0  0
   40.5266  -10.4264   37.3484 H   0  0  0  0  0  0  0  0  0  0  0  0
   38.0060  -12.1530   36.5750 H   0  0  0  0  0  0  0  0  0  0  0  0
   37.4887  -13.2427   34.9573 H   0  0  0  0  0  0  0  0  0  0  0  0
   36.8602  -12.5742   33.4130 H   0  0  0  0  0  0  0  0  0  0  0  0
   38.3321  -13.6039   33.4130 H   0  0  0  0  0  0  0  0  0  0  0  0
   40.2218  -10.3605   33.7160 H   0  0  0  0  0  0  0  0  0  0  0  0
   39.5551  -12.7770   31.8876 H   0  0  0  0  0  0  0  0  0  0  0  0
   39.6335  -11.1378   31.1963 H   0  0  0  0  0  0  0  0  0  0  0  0
   41.8470  -12.6146   32.7310 H   0  0  0  0  0  0  0  0  0  0  0  0
   41.7993  -12.1722   30.9470 H   0  0  0  0  0  0  0  0  0  0  0  0
   41.5291   -9.7891   32.4727 H   0  0  0  0  0  0  0  0  0  0  0  0
   43.9982   -9.6015   31.3476 H   0  0  0  0  0  0  0  0  0  0  0  0
   43.3473  -10.9940   30.4182 H   0  0  0  0  0  0  0  0  0  0  0  0
   42.4712   -9.4259   30.4182 H   0  0  0  0  0  0  0  0  0  0  0  0
   43.3909  -11.7749   33.6504 H   0  0  0  0  0  0  0  0  0  0  0  0
   46.4340  -12.2860   33.9540 H   0  0  0  0  0  0  0  0  0  0  0  0
   44.9350  -12.2510   33.0510 H   0  0  0  0  0  0  0  0  0  0  0  0
   42.5892  -10.4855   36.8940 H   0  0  0  0  0  0  0  0  0  0  0  0
   41.6435  -11.6692   35.9289 H   0  0  0  0  0  0  0  0  0  0  0  0
   43.4384  -11.7402   35.9289 H   0  0  0  0  0  0  0  0  0  0  0  0
   42.1395   -8.3193   33.8582 H   0  0  0  0  0  0  0  0  0  0  0  0
   41.2750   -8.7880   36.7897 H   0  0  0  0  0  0  0  0  0  0  0  0
   40.0587   -6.7422   36.5353 H   0  0  0  0  0  0  0  0  0  0  0  0
   40.9513   -6.3170   35.0356 H   0  0  0  0  0  0  0  0  0  0  0  0
   39.8014   -7.6969   35.0356 H   0  0  0  0  0  0  0  0  0  0  0  0
   43.7148   -7.3681   36.0198 H   0  0  0  0  0  0  0  0  0  0  0  0
   43.3170   -5.4410   36.8250 H   0  0  0  0  0  0  0  0  0  0  0  0
  1  2  1  0
  2  3  1  0
  3  4  1  0
  4  5  1  0
  5  6  1  0
  5  7  1  0
  7  8  1  0
  8  9  2  0
  9 10  1  0
 10 11  1  0
 10 12  2  0
 12 13  1  0
 13 14  2  0
 13 15  1  0
 15 16  1  0
 16 17  2  0
 16 18  1  0
 18 19  1  0
 18 20  2  0
 20 21  1  0
 21 22  1  0
 22 23  1  0
 23 24  1  0
 23 25  1  0
 25 26  1  0
 26 27  1  0
 27 28  1  0
 27 29  2  0
 25 30  1  0
 30 31  1  0
 30 32  2  0
 32 33  1  0
 33 34  1  0
 33 35  1  0
 35 36  1  0
 35  3  1  0
 14  8  1  0
  1 37  1  0
  1 38  1  0
  1 39  1  0
  3 40  1  6
  4 41  1  0
  4 42  1  0
  5 43  1  1
  6 44  1  0
  6 45  1  0
  6 46  1  0
  7 47  1  0
  7 48  1  0
  9 49  1  0
 11 50  1  0
 12 51  1  0
 14 52  1  0
 15 53  1  0
 19 54  1  0
 19 55  1  0
 19 56  1  0
 20 57  1  0
 21 58  1  0
 21 59  1  0
 22 60  1  0
 22 61  1  0
 23 62  1  1
 24 63  1  0
 24 64  1  0
 24 65  1  0
 25 66  1  1
 28 67  1  0
 28 68  1  0
 31 69  1  0
 31 70  1  0
 31 71  1  0
 32 72  1  0
 33 73  1  1
 34 74  1  0
 34 75  1  0
 34 76  1  0
 35 77  1  6
 36 78  1  0
M  END
>  <meeko>  (2) 
{"is_sidechain": [false], "free_energy": -5.245, "intermolecular_energy": -10.17, "internal_energy": -3.474}

$$$$
2vw5_ligand
     RDKit          3D

 78 79  0  0  0  0  0  0  0  0999 V2000
   40.7600   -4.7530   38.1190 C   0  0  0  0  0  0  0  0  0  0  0  0
   42.1220   -5.1280   37.9570 O   0  0  0  0  0  0  0  0  0  0  0  0
   42.3650   -6.5050   38.2590 C   0  0  1  0  0  0  0  0  0  0  0  0
   41.0740   -7.1910   38.7840 C   0  0  0  0  0  0  0  0  0  0  0  0
   41.0780   -7.9650   40.1300 C   0  0  2  0  0  0  0  0  0  0  0  0
   42.3770   -7.7890   40.9180 C   0  0  0  0  0  0  0  0  0  0  0  0
   40.5670   -9.4270   39.9870 C   0  0  0  0  0  0  0  0  0  0  0  0
   39.2430   -9.6030   39.2810 C   0  0  0  0  0  0  0  0  0  0  0  0
   38.0290   -9.5180   39.9690 C   0  0  0  0  0  0  0  0  0  0  0  0
   36.8430   -9.8320   39.3070 C   0  0  0  0  0  0  0  0  0  0  0  0
   35.6400   -9.7820   39.9510 O   0  0  0  0  0  0  0  0  0  0  0  0
   36.8460  -10.2410   37.9760 C   0  0  0  0  0  0  0  0  0  0  0  0
   38.0470  -10.2970   37.2700 C   0  0  0  0  0  0  0  0  0  0  0  0
   39.2380   -9.9540   37.9220 C   0  0  0  0  0  0  0  0  0  0  0  0
   38.0410  -10.8320   35.9650 N   0  0  0  0  0  0  0  0  0  0  0  0
   38.1030  -10.0750   34.8180 C   0  0  0  0  0  0  0  0  0  0  0  0
   37.5840   -8.9760   34.6490 O   0  0  0  0  0  0  0  0  0  0  0  0
   38.8960  -10.6940   33.7090 C   0  0  0  0  0  0  0  0  0  0  0  0
   38.9950   -9.8780   32.4620 C   0  0  0  0  0  0  0  0  0  0  0  0
   39.6140  -11.7920   34.0240 C   0  0  0  0  0  0  0  0  0  0  0  0
   40.7900  -12.3460   33.2620 C   0  0  0  0  0  0  0  0  0  0  0  0
   41.9550  -11.3560   33.4330 C   0  0  0  0  0  0  0  0  0  0  0  0
   43.2620  -11.9750   33.9660 C   0  0  2  0  0  0  0  0  0  0  0  0
   42.9880  -12.8760   35.1770 C   0  0  0  0  0  0  0  0  0  0  0  0
   44.2970  -10.8650   34.3300 C   0  0  1  0  0  0  0  0  0  0  0  0
   45.1320  -10.6270   33.1800 O   0  0  0  0  0  0  0  0  0  0  0  0
   45.7750  -11.7060   32.6850 C   0  0  0  0  0  0  0  0  0  0  0  0
   46.4020  -12.3620   33.6870 N   0  0  0  0  0  0  0  0  0  0  0  0
   45.8100  -12.0730   31.5220 O   0  0  0  0  0  0  0  0  0  0  0  0
   43.6460   -9.5350   34.7230 C   0  0  0  0  0  0  0  0  0  0  0  0
   43.7900   -8.4070   33.7320 C   0  0  0  0  0  0  0  0  0  0  0  0
   42.9660   -9.4310   35.8870 C   0  0  0  0  0  0  0  0  0  0  0  0
   42.1230   -8.2510   36.3560 C   0  0  2  0  0  0  0  0  0  0  0  0
   41.2960   -7.7190   35.1830 C   0  0  0  0  0  0  0  0  0  0  0  0
   43.0300   -7.1510   37.0060 C   0  0  1  0  0  0  0  0  0  0  0  0
   43.3490   -6.1300   36.0550 O   0  0  0  0  0  0  0  0  0  0  0  0
   40.5227   -4.6877   39.1911 H   0  0  0  0  0  0  0  0  0  0  0  0
   40.5902   -3.7747   37.6456 H   0  0  0  0  0  0  0  0  0  0  0  0
   40.1134   -5.5065   37.6456 H   0  0  0  0  0  0  0  0  0  0  0  0
   43.0715   -6.6360   39.0918 H   0  0  0  0  0  0  0  0  0  0  0  0
   40.3146   -6.4008   38.8784 H   0  0  0  0  0  0  0  0  0  0  0  0
   40.9015   -7.9868   38.0445 H   0  0  0  0  0  0  0  0  0  0  0  0
   40.3243   -7.4902   40.7753 H   0  0  0  0  0  0  0  0  0  0  0  0
   42.1589   -7.8185   41.9958 H   0  0  0  0  0  0  0  0  0  0  0  0
   43.0737   -8.6010   40.6625 H   0  0  0  0  0  0  0  0  0  0  0  0
   42.8326   -6.8209   40.6625 H   0  0  0  0  0  0  0  0  0  0  0  0
   41.3246   -9.9944   39.4265 H   0  0  0  0  0  0  0  0  0  0  0  0
   40.4034   -9.7843   41.0144 H   0  0  0  0  0  0  0  0  0  0  0  0
   38.0098   -9.2060   41.0237 H   0  0  0  0  0  0  0  0  0  0  0  0
   35.7680   -9.3400   40.8060 H   0  0  0  0  0  0  0  0  0  0  0  0
   35.9030  -10.5193   37.4827 H   0  0  0  0  0  0  0  0  0  0  0  0
   40.1839   -9.9598   37.3606 H   0  0  0  0  0  0  0  0  0  0  0  0
   38.1820  -11.8290   35.8830 H   0  0  0  0  0  0  0  0  0  0  0  0
   39.1236   -8.8181   32.7266 H   0  0  0  0  0  0  0  0  0  0  0  0
   39.8588  -10.2156   31.8705 H   0  0  0  0  0  0  0  0  0  0  0  0
   38.0756   -9.9993   31.8705 H   0  0  0  0  0  0  0  0  0  0  0  0
   39.3100  -12.3383   34.9291 H   0  0  0  0  0  0  0  0  0  0  0  0
   41.0702  -13.3300   33.6659 H   0  0  0  0  0  0  0  0  0  0  0  0
   40.5397  -12.4720   32.1983 H   0  0  0  0  0  0  0  0  0  0  0  0
   42.1661  -10.9046   32.4523 H   0  0  0  0  0  0  0  0  0  0  0  0
   41.6298  -10.6257   34.1886 H   0  0  0  0  0  0  0  0  0  0  0  0
   43.6915  -12.5961   33.1661 H   0  0  0  0  0  0  0  0  0  0  0  0
   43.1607  -12.3081   36.1031 H   0  0  0  0  0  0  0  0  0  0  0  0
   41.9441  -13.2217   35.1481 H   0  0  0  0  0  0  0  0  0  0  0  0
   43.6627  -13.7443   35.1481 H   0  0  0  0  0  0  0  0  0  0  0  0
   44.8672  -11.2261   35.1986 H   0  0  0  0  0  0  0  0  0  0  0  0
   46.8330  -13.2490   33.4830 H   0  0  0  0  0  0  0  0  0  0  0  0
   46.2290  -12.0840   34.6410 H   0  0  0  0  0  0  0  0  0  0  0  0
   43.9113   -7.4569   34.2730 H   0  0  0  0  0  0  0  0  0  0  0  0
   44.6728   -8.5845   33.1002 H   0  0  0  0  0  0  0  0  0  0  0  0
   42.8909   -8.3570   33.1002 H   0  0  0  0  0  0  0  0  0  0  0  0
   43.0279  -10.2914   36.5696 H   0  0  0  0  0  0  0  0  0  0  0  0
   41.4214   -8.5776   37.1377 H   0  0  0  0  0  0  0  0  0  0  0  0
   40.4295   -7.1616   35.5683 H   0  0  0  0  0  0  0  0  0  0  0  0
   41.9180   -7.0512   34.5689 H   0  0  0  0  0  0  0  0  0  0  0  0
   40.9462   -8.5619   34.5689 H   0  0  0  0  0  0  0  0  0  0  0  0
   43.9532   -7.6532   37.3309 H   0  0  0  0  0  0  0  0  0  0  0  0
   43.4580   -6.5610   35.1900 H   0  0  0  0  0  0  0  0  0  0  0  0
  1  2  1  0
  2  3  1  0
  3  4  1  0
  4  5  1  0
  5  6  1  0
  5  7  1  0
  7  8  1  0
  8  9  2  0
  9 10  1  0
 10 11  1  0
 10 12  2  0
 12 13  1  0
 13 14  2  0
 13 15  1  0
 15 16  1  0
 16 17  2  0
 16 18  1  0
 18 19  1  0
 18 20  2  0
 20 21  1  0
 21 22  1  0
 22 23  1  0
 23 24  1  0
 23 25  1  0
 25 26  1  0
 26 27  1  0
 27 28  1  0
 27 29  2  0
 25 30  1  0
 30 31  1  0
 30 32  2  0
 32 33  1  0
 33 34  1  0
 33 35  1  0
 35 36  1  0
 35  3  1  0
 14  8  1  0
  1 37  1  0
  1 38  1  0
  1 39  1  0
  3 40  1  1
  4 41  1  0
  4 42  1  0
  5 43  1  1
  6 44  1  0
  6 45  1  0
  6 46  1  0
  7 47  1  0
  7 48  1  0
  9 49  1  0
 11 50  1  0
 12 51  1  0
 14 52  1  0
 15 53  1  0
 19 54  1  0
 19 55  1  0
 19 56  1  0
 20 57  1  0
 21 58  1  0
 21 59  1  0
 22 60  1  0
 22 61  1  0
 23 62  1  6
 24 63  1  0
 24 64  1  0
 24 65  1  0
 25 66  1  1
 28 67  1  0
 28 68  1  0
 31 69  1  0
 31 70  1  0
 31 71  1  0
 32 72  1  0
 33 73  1  1
 34 74  1  0
 34 75  1  0
 34 76  1  0
 35 77  1  1
 36 78  1  0
M  END
>  <meeko>  (3) 
{"is_sidechain": [false], "free_energy": -4.901, "intermolecular_energy": -11.158, "internal_energy": -1.8}

$$$$
2vw5_ligand
     RDKit          3D

 78 79  0  0  0  0  0  0  0  0999 V2000
   44.6580   -9.5650   31.4410 C   0  0  0  0  0  0  0  0  0  0  0  0
   44.7940   -8.5550   32.4330 O   0  0  0  0  0  0  0  0  0  0  0  0
   43.9140   -8.7400   33.5470 C   0  0  1  0  0  0  0  0  0  0  0  0
   44.1560  -10.1220   34.2160 C   0  0  0  0  0  0  0  0  0  0  0  0
   42.9920  -11.1350   34.3860 C   0  0  2  0  0  0  0  0  0  0  0  0
   43.4610  -12.5900   34.4040 C   0  0  0  0  0  0  0  0  0  0  0  0
   41.7840  -10.8260   33.4550 C   0  0  0  0  0  0  0  0  0  0  0  0
   40.4160  -11.1230   34.0200 C   0  0  0  0  0  0  0  0  0  0  0  0
   39.5370  -12.0070   33.3870 C   0  0  0  0  0  0  0  0  0  0  0  0
   38.2340  -12.1370   33.8640 C   0  0  0  0  0  0  0  0  0  0  0  0
   37.3400  -12.9730   33.2590 O   0  0  0  0  0  0  0  0  0  0  0  0
   37.7860  -11.3930   34.9530 C   0  0  0  0  0  0  0  0  0  0  0  0
   38.6630  -10.5340   35.6130 C   0  0  0  0  0  0  0  0  0  0  0  0
   39.9810  -10.4210   35.1560 C   0  0  0  0  0  0  0  0  0  0  0  0
   38.1560   -9.7000   36.6310 N   0  0  0  0  0  0  0  0  0  0  0  0
   37.3540  -10.1360   37.6610 C   0  0  0  0  0  0  0  0  0  0  0  0
   36.4930  -11.0070   37.5870 O   0  0  0  0  0  0  0  0  0  0  0  0
   37.6040   -9.4560   38.9710 C   0  0  0  0  0  0  0  0  0  0  0  0
   36.6820   -9.8470   40.0800 C   0  0  0  0  0  0  0  0  0  0  0  0
   38.7510   -8.7530   39.0750 C   0  0  0  0  0  0  0  0  0  0  0  0
   39.4440   -8.3450   40.3480 C   0  0  0  0  0  0  0  0  0  0  0  0
   40.7770   -9.1100   40.4100 C   0  0  0  0  0  0  0  0  0  0  0  0
   42.0280   -8.2640   40.0990 C   0  0  2  0  0  0  0  0  0  0  0  0
   42.2430   -7.1880   41.1710 C   0  0  0  0  0  0  0  0  0  0  0  0
   41.9230   -7.6140   38.6830 C   0  0  1  0  0  0  0  0  0  0  0  0
   42.2520   -6.2160   38.7990 O   0  0  0  0  0  0  0  0  0  0  0  0
   41.2980   -5.3510   38.3960 C   0  0  0  0  0  0  0  0  0  0  0  0
   41.8740   -4.2800   37.8070 N   0  0  0  0  0  0  0  0  0  0  0  0
   40.0900   -5.4750   38.5200 O   0  0  0  0  0  0  0  0  0  0  0  0
   42.8760   -8.2390   37.6590 C   0  0  0  0  0  0  0  0  0  0  0  0
   42.6970   -9.7140   37.4000 C   0  0  0  0  0  0  0  0  0  0  0  0
   43.7910   -7.4710   37.0260 C   0  0  0  0  0  0  0  0  0  0  0  0
   44.6960   -7.8830   35.8720 C   0  0  2  0  0  0  0  0  0  0  0  0
   46.0780   -7.2500   36.0580 C   0  0  0  0  0  0  0  0  0  0  0  0
   44.0400   -7.5140   34.4990 C   0  0  1  0  0  0  0  0  0  0  0  0
   44.7780   -6.4740   33.8480 O   0  0  0  0  0  0  0  0  0  0  0  0
   44.5264  -10.5423   31.9284 H   0  0  0  0  0  0  0  0  0  0  0  0
   43.7811   -9.3471   30.8137 H   0  0  0  0  0  0  0  0  0  0  0  0
   45.5613   -9.5868   30.8137 H   0  0  0  0  0  0  0  0  0  0  0  0
   42.8637   -8.7738   33.2218 H   0  0  0  0  0  0  0  0  0  0  0  0
   44.9289  -10.6288   33.6195 H   0  0  0  0  0  0  0  0  0  0  0  0
   44.4000   -9.8524   35.2542 H   0  0  0  0  0  0  0  0  0  0  0  0
   42.5847  -10.9888   35.3973 H   0  0  0  0  0  0  0  0  0  0  0  0
   43.5697  -12.9273   35.4453 H   0  0  0  0  0  0  0  0  0  0  0  0
   42.7205  -13.2203   33.8898 H   0  0  0  0  0  0  0  0  0  0  0  0
   44.4302  -12.6692   33.8898 H   0  0  0  0  0  0  0  0  0  0  0  0
   41.8186   -9.7556   33.2039 H   0  0  0  0  0  0  0  0  0  0  0  0
   41.8983  -11.4969   32.5908 H   0  0  0  0  0  0  0  0  0  0  0  0
   39.8712  -12.5951   32.5196 H   0  0  0  0  0  0  0  0  0  0  0  0
   36.6950  -13.2650   33.9250 H   0  0  0  0  0  0  0  0  0  0  0  0
   36.7431  -11.4831   35.2911 H   0  0  0  0  0  0  0  0  0  0  0  0
   40.6872   -9.7723   35.6949 H   0  0  0  0  0  0  0  0  0  0  0  0
   38.5550   -8.7740   36.7010 H   0  0  0  0  0  0  0  0  0  0  0  0
   37.1644   -9.6424   41.0472 H   0  0  0  0  0  0  0  0  0  0  0  0
   35.7508   -9.2663   40.0046 H   0  0  0  0  0  0  0  0  0  0  0  0
   36.4521  -10.9201   40.0046 H   0  0  0  0  0  0  0  0  0  0  0  0
   39.2290   -8.4464   38.1329 H   0  0  0  0  0  0  0  0  0  0  0  0
   39.6321   -7.2612   40.3432 H   0  0  0  0  0  0  0  0  0  0  0  0
   38.8199   -8.5795   41.2229 H   0  0  0  0  0  0  0  0  0  0  0  0
   40.8871   -9.5223   41.4238 H   0  0  0  0  0  0  0  0  0  0  0  0
   40.7254   -9.8821   39.6282 H   0  0  0  0  0  0  0  0  0  0  0  0
   42.8993   -8.9354   40.1064 H   0  0  0  0  0  0  0  0  0  0  0  0
   42.1524   -7.6415   42.1691 H   0  0  0  0  0  0  0  0  0  0  0  0
   43.2461   -6.7514   41.0563 H   0  0  0  0  0  0  0  0  0  0  0  0
   41.4847   -6.3995   41.0563 H   0  0  0  0  0  0  0  0  0  0  0  0
   40.8955   -7.7776   38.3259 H   0  0  0  0  0  0  0  0  0  0  0  0
   41.2790   -3.6010   37.3590 H   0  0  0  0  0  0  0  0  0  0  0  0
   42.8640   -4.2940   37.6190 H   0  0  0  0  0  0  0  0  0  0  0  0
   42.6320  -10.2494   38.3587 H   0  0  0  0  0  0  0  0  0  0  0  0
   41.7726   -9.8760   36.8262 H   0  0  0  0  0  0  0  0  0  0  0  0
   43.5558  -10.0924   36.8262 H   0  0  0  0  0  0  0  0  0  0  0  0
   43.8931   -6.4357   37.3833 H   0  0  0  0  0  0  0  0  0  0  0  0
   44.8274   -8.9751   35.8695 H   0  0  0  0  0  0  0  0  0  0  0  0
   46.2944   -7.1509   37.1319 H   0  0  0  0  0  0  0  0  0  0  0  0
   46.8402   -7.8888   35.5878 H   0  0  0  0  0  0  0  0  0  0  0  0
   46.0921   -6.2556   35.5878 H   0  0  0  0  0  0  0  0  0  0  0  0
   43.0230   -7.1606   34.7243 H   0  0  0  0  0  0  0  0  0  0  0  0
   44.3140   -6.2610   33.0200 H   0  0  0  0  0  0  0  0  0  0  0  0
  1  2  1  0
  2  3  1  0
  3  4  1  0
  4  5  1  0
  5  6  1  0
  5  7  1  0
  7  8  1  0
  8  9  2  0
  9 10  1  0
 10 11  1  0
 10 12  2  0
 12 13  1  0
 13 14  2  0
 13 15  1  0
 15 16  1  0
 16 17  2  0
 16 18  1  0
 18 19  1  0
 18 20  2  0
 20 21  1  0
 21 22  1  0
 22 23  1  0
 23 24  1  0
 23 25  1  0
 25 26  1  0
 26 27  1  0
 27 28  1  0
 27 29  2  0
 25 30  1  0
 30 31  1  0
 30 32  2  0
 32 33  1  0
 33 34  1  0
 33 35  1  0
 35 36  1  0
 35  3  1  0
 14  8  1  0
  1 37  1  0
  1 38  1  0
  1 39  1  0
  3 40  1  6
  4 41  1  0
  4 42  1  0
  5 43  1  1
  6 44  1  0
  6 45  1  0
  6 46  1  0
  7 47  1  0
  7 48  1  0
  9 49  1  0
 11 50  1  0
 12 51  1  0
 14 52  1  0
 15 53  1  0
 19 54  1  0
 19 55  1  0
 19 56  1  0
 20 57  1  0
 21 58  1  0
 21 59  1  0
 22 60  1  0
 22 61  1  0
 23 62  1  6
 24 63  1  0
 24 64  1  0
 24 65  1  0
 25 66  1  6
 28 67  1  0
 28 68  1  0
 31 69  1  0
 31 70  1  0
 31 71  1  0
 32 72  1  0
 33 73  1  6
 34 74  1  0
 34 75  1  0
 34 76  1  0
 35 77  1  1
 36 78  1  0
M  END
>  <meeko>  (4) 
{"is_sidechain": [false], "free_energy": -4.861, "intermolecular_energy": -10.408, "internal_energy": -2.47}

$$$$
2vw5_ligand
     RDKit          3D

 78 79  0  0  0  0  0  0  0  0999 V2000
   44.5840  -12.1890   33.7100 C   0  0  0  0  0  0  0  0  0  0  0  0
   43.3040  -12.2570   34.3260 O   0  0  0  0  0  0  0  0  0  0  0  0
   42.4150  -11.2240   33.8900 C   0  0  1  0  0  0  0  0  0  0  0  0
   42.8010  -10.7280   32.4690 C   0  0  0  0  0  0  0  0  0  0  0  0
   43.3760   -9.3010   32.2560 C   0  0  2  0  0  0  0  0  0  0  0  0
   43.9920   -9.1030   30.8710 C   0  0  0  0  0  0  0  0  0  0  0  0
   44.2400   -8.8150   33.4550 C   0  0  0  0  0  0  0  0  0  0  0  0
   43.6170   -7.7610   34.3390 C   0  0  0  0  0  0  0  0  0  0  0  0
   43.3830   -6.4620   33.8770 C   0  0  0  0  0  0  0  0  0  0  0  0
   42.9440   -5.4860   34.7700 C   0  0  0  0  0  0  0  0  0  0  0  0
   42.7240   -4.2020   34.3610 O   0  0  0  0  0  0  0  0  0  0  0  0
   42.7470   -5.7760   36.1180 C   0  0  0  0  0  0  0  0  0  0  0  0
   42.9460   -7.0750   36.5830 C   0  0  0  0  0  0  0  0  0  0  0  0
   43.3580   -8.0660   35.6850 C   0  0  0  0  0  0  0  0  0  0  0  0
   42.8620   -7.3180   37.9700 N   0  0  0  0  0  0  0  0  0  0  0  0
   41.7440   -7.0680   38.7330 C   0  0  0  0  0  0  0  0  0  0  0  0
   40.9640   -6.1330   38.5860 O   0  0  0  0  0  0  0  0  0  0  0  0
   41.5030   -8.0660   39.8230 C   0  0  0  0  0  0  0  0  0  0  0  0
   41.9000   -7.6220   41.1940 C   0  0  0  0  0  0  0  0  0  0  0  0
   40.7580   -9.1430   39.5000 C   0  0  0  0  0  0  0  0  0  0  0  0
   40.0230  -10.0470   40.4530 C   0  0  0  0  0  0  0  0  0  0  0  0
   38.9640  -10.8090   39.6390 C   0  0  0  0  0  0  0  0  0  0  0  0
   38.0000   -9.9190   38.8300 C   0  0  2  0  0  0  0  0  0  0  0  0
   36.7080   -9.6560   39.6140 C   0  0  0  0  0  0  0  0  0  0  0  0
   37.6800  -10.5600   37.4430 C   0  0  1  0  0  0  0  0  0  0  0  0
   36.3160  -10.2460   37.1010 O   0  0  0  0  0  0  0  0  0  0  0  0
   35.5250  -11.2980   36.8070 C   0  0  0  0  0  0  0  0  0  0  0  0
   34.4850  -11.3410   37.6680 N   0  0  0  0  0  0  0  0  0  0  0  0
   35.6830  -12.1110   35.9100 O   0  0  0  0  0  0  0  0  0  0  0  0
   38.5800  -10.0430   36.3160 C   0  0  0  0  0  0  0  0  0  0  0  0
   39.0780   -8.6270   36.4600 C   0  0  0  0  0  0  0  0  0  0  0  0
   38.9070  -10.8530   35.2830 C   0  0  0  0  0  0  0  0  0  0  0  0
   39.9120  -10.5660   34.1740 C   0  0  2  0  0  0  0  0  0  0  0  0
   39.1630  -10.3010   32.8660 C   0  0  0  0  0  0  0  0  0  0  0  0
   40.9470  -11.7360   34.0540 C   0  0  1  0  0  0  0  0  0  0  0  0
   40.6070  -12.6030   32.9670 O   0  0  0  0  0  0  0  0  0  0  0  0
   45.3626  -12.1476   34.4859 H   0  0  0  0  0  0  0  0  0  0  0  0
   44.7374  -13.0803   33.0838 H   0  0  0  0  0  0  0  0  0  0  0  0
   44.6421  -11.2865   33.0838 H   0  0  0  0  0  0  0  0  0  0  0  0
   42.5006  -10.3220   34.5137 H   0  0  0  0  0  0  0  0  0  0  0  0
   43.5548  -11.4310   32.0849 H   0  0  0  0  0  0  0  0  0  0  0  0
   41.8302  -10.6804   31.9539 H   0  0  0  0  0  0  0  0  0  0  0  0
   42.5216   -8.6082   32.2533 H   0  0  0  0  0  0  0  0  0  0  0  0
   45.0343   -8.7680   30.9778 H   0  0  0  0  0  0  0  0  0  0  0  0
   43.9673  -10.0543   30.3193 H   0  0  0  0  0  0  0  0  0  0  0  0
   43.4176   -8.3442   30.3193 H   0  0  0  0  0  0  0  0  0  0  0  0
   44.4658   -9.6896   34.0828 H   0  0  0  0  0  0  0  0  0  0  0  0
   45.1253   -8.3396   33.0076 H   0  0  0  0  0  0  0  0  0  0  0  0
   43.5440   -6.2126   32.8178 H   0  0  0  0  0  0  0  0  0  0  0  0
   43.2210   -4.0520   33.5400 H   0  0  0  0  0  0  0  0  0  0  0  0
   42.4354   -4.9826   36.8133 H   0  0  0  0  0  0  0  0  0  0  0  0
   43.4809   -9.1002   36.0391 H   0  0  0  0  0  0  0  0  0  0  0  0
   43.6010   -7.8720   38.3800 H   0  0  0  0  0  0  0  0  0  0  0  0
   41.3634   -8.2222   41.9435 H   0  0  0  0  0  0  0  0  0  0  0  0
   42.9839   -7.7572   41.3237 H   0  0  0  0  0  0  0  0  0  0  0  0
   41.6449   -6.5599   41.3237 H   0  0  0  0  0  0  0  0  0  0  0  0
   40.6795   -9.3857   38.4300 H   0  0  0  0  0  0  0  0  0  0  0  0
   40.7249  -10.7569   40.9149 H   0  0  0  0  0  0  0  0  0  0  0  0
   39.5497   -9.4628   41.2559 H   0  0  0  0  0  0  0  0  0  0  0  0
   39.4872  -11.4731   38.9353 H   0  0  0  0  0  0  0  0  0  0  0  0
   38.3440  -11.3488   40.3699 H   0  0  0  0  0  0  0  0  0  0  0  0
   38.4985   -8.9540   38.6557 H   0  0  0  0  0  0  0  0  0  0  0  0
   36.9186   -9.6989   40.6928 H   0  0  0  0  0  0  0  0  0  0  0  0
   36.3186   -8.6602   39.3557 H   0  0  0  0  0  0  0  0  0  0  0  0
   35.9603  -10.4204   39.3557 H   0  0  0  0  0  0  0  0  0  0  0  0
   37.8528  -11.6422   37.5376 H   0  0  0  0  0  0  0  0  0  0  0  0
   33.7510  -12.0130   37.5020 H   0  0  0  0  0  0  0  0  0  0  0  0
   34.3390  -10.5720   38.3030 H   0  0  0  0  0  0  0  0  0  0  0  0
   39.1662   -8.3761   37.5274 H   0  0  0  0  0  0  0  0  0  0  0  0
   40.0628   -8.5339   35.9788 H   0  0  0  0  0  0  0  0  0  0  0  0
   38.3682   -7.9380   35.9788 H   0  0  0  0  0  0  0  0  0  0  0  0
   38.3917  -11.8238   35.2388 H   0  0  0  0  0  0  0  0  0  0  0  0
   40.4910   -9.6624   34.4154 H   0  0  0  0  0  0  0  0  0  0  0  0
   38.1479   -9.9419   33.0910 H   0  0  0  0  0  0  0  0  0  0  0  0
   39.7009   -9.5386   32.2834 H   0  0  0  0  0  0  0  0  0  0  0  0
   39.1018  -11.2320   32.2834 H   0  0  0  0  0  0  0  0  0  0  0  0
   40.8980  -12.2978   34.9984 H   0  0  0  0  0  0  0  0  0  0  0  0
   41.2770  -12.4780   32.2730 H   0  0  0  0  0  0  0  0  0  0  0  0
  1  2  1  0
  2  3  1  0
  3  4  1  0
  4  5  1  0
  5  6  1  0
  5  7  1  0
  7  8  1  0
  8  9  2  0
  9 10  1  0
 10 11  1  0
 10 12  2  0
 12 13  1  0
 13 14  2  0
 13 15  1  0
 15 16  1  0
 16 17  2  0
 16 18  1  0
 18 19  1  0
 18 20  2  0
 20 21  1  0
 21 22  1  0
 22 23  1  0
 23 24  1  0
 23 25  1  0
 25 26  1  0
 26 27  1  0
 27 28  1  0
 27 29  2  0
 25 30  1  0
 30 31  1  0
 30 32  2  0
 32 33  1  0
 33 34  1  0
 33 35  1  0
 35 36  1  0
 35  3  1  0
 14  8  1  0
  1 37  1  0
  1 38  1  0
  1 39  1  0
  3 40  1  1
  4 41  1  0
  4 42  1  0
  5 43  1  6
  6 44  1  0
  6 45  1  0
  6 46  1  0
  7 47  1  0
  7 48  1  0
  9 49  1  0
 11 50  1  0
 12 51  1  0
 14 52  1  0
 15 53  1  0
 19 54  1  0
 19 55  1  0
 19 56  1  0
 20 57  1  0
 21 58  1  0
 21 59  1  0
 22 60  1  0
 22 61  1  0
 23 62  1  6
 24 63  1  0
 24 64  1  0
 24 65  1  0
 25 66  1  1
 28 67  1  0
 28 68  1  0
 31 69  1  0
 31 70  1  0
 31 71  1  0
 32 72  1  0
 33 73  1  1
 34 74  1  0
 34 75  1  0
 34 76  1  0
 35 77  1  1
 36 78  1  0
M  END
>  <meeko>  (5) 
{"is_sidechain": [false], "free_energy": -4.825, "intermolecular_energy": -10.538, "internal_energy": -2.269}

$$$$
2vw5_ligand
     RDKit          3D

 78 79  0  0  0  0  0  0  0  0999 V2000
   43.0690   -3.5570   34.6830 C   0  0  0  0  0  0  0  0  0  0  0  0
   43.6120   -4.8490   34.9230 O   0  0  0  0  0  0  0  0  0  0  0  0
   42.8470   -5.6160   35.8580 C   0  0  1  0  0  0  0  0  0  0  0  0
   41.3600   -5.7010   35.4150 C   0  0  0  0  0  0  0  0  0  0  0  0
   40.2160   -5.3590   36.4080 C   0  0  2  0  0  0  0  0  0  0  0  0
   39.2940   -4.2490   35.9010 C   0  0  0  0  0  0  0  0  0  0  0  0
   40.7160   -5.2050   37.8730 C   0  0  0  0  0  0  0  0  0  0  0  0
   40.7020   -6.4590   38.7150 C   0  0  0  0  0  0  0  0  0  0  0  0
   41.5160   -6.5930   39.8440 C   0  0  0  0  0  0  0  0  0  0  0  0
   41.5780   -7.8190   40.5030 C   0  0  0  0  0  0  0  0  0  0  0  0
   42.3770   -7.9950   41.5960 O   0  0  0  0  0  0  0  0  0  0  0  0
   40.8530   -8.9190   40.0510 C   0  0  0  0  0  0  0  0  0  0  0  0
   40.0120   -8.7880   38.9460 C   0  0  0  0  0  0  0  0  0  0  0  0
   39.9240   -7.5510   38.2980 C   0  0  0  0  0  0  0  0  0  0  0  0
   39.3870   -9.9430   38.4310 N   0  0  0  0  0  0  0  0  0  0  0  0
   38.0240  -10.1120   38.3470 C   0  0  0  0  0  0  0  0  0  0  0  0
   37.1950   -9.7080   39.1560 O   0  0  0  0  0  0  0  0  0  0  0  0
   37.5660  -10.8600   37.1330 C   0  0  0  0  0  0  0  0  0  0  0  0
   36.0990  -11.1340   37.0680 C   0  0  0  0  0  0  0  0  0  0  0  0
   38.4670  -11.0010   36.1390 C   0  0  0  0  0  0  0  0  0  0  0  0
   38.1710  -11.3100   34.6950 C   0  0  0  0  0  0  0  0  0  0  0  0
   39.0470  -10.3800   33.8380 C   0  0  0  0  0  0  0  0  0  0  0  0
   40.2530  -11.0620   33.1630 C   0  0  2  0  0  0  0  0  0  0  0  0
   39.8960  -12.4840   32.7100 C   0  0  0  0  0  0  0  0  0  0  0  0
   41.4880  -11.0850   34.1190 C   0  0  1  0  0  0  0  0  0  0  0  0
   42.1870  -12.3300   33.9290 O   0  0  0  0  0  0  0  0  0  0  0  0
   43.0590  -12.6710   34.9000 C   0  0  0  0  0  0  0  0  0  0  0  0
   44.2950  -12.8180   34.3730 N   0  0  0  0  0  0  0  0  0  0  0  0
   42.8160  -12.8310   36.0860 O   0  0  0  0  0  0  0  0  0  0  0  0
   42.4760   -9.9440   33.8580 C   0  0  0  0  0  0  0  0  0  0  0  0
   42.9930   -9.8240   32.4460 C   0  0  0  0  0  0  0  0  0  0  0  0
   42.8160   -9.0990   34.8570 C   0  0  0  0  0  0  0  0  0  0  0  0
   43.6440   -7.8250   34.7410 C   0  0  2  0  0  0  0  0  0  0  0  0
   45.0800   -8.1850   34.3530 C   0  0  0  0  0  0  0  0  0  0  0  0
   43.5640   -6.9940   36.0660 C   0  0  1  0  0  0  0  0  0  0  0  0
   44.8680   -6.8000   36.6220 O   0  0  0  0  0  0  0  0  0  0  0  0
   42.8612   -3.0624   35.6433 H   0  0  0  0  0  0  0  0  0  0  0  0
   43.7909   -2.9565   34.1100 H   0  0  0  0  0  0  0  0  0  0  0  0
   42.1349   -3.6525   34.1100 H   0  0  0  0  0  0  0  0  0  0  0  0
   42.8040   -5.1293   36.8435 H   0  0  0  0  0  0  0  0  0  0  0  0
   41.2476   -5.0190   34.5593 H   0  0  0  0  0  0  0  0  0  0  0  0
   41.2179   -6.7774   35.2387 H   0  0  0  0  0  0  0  0  0  0  0  0
   39.5548   -6.2371   36.4504 H   0  0  0  0  0  0  0  0  0  0  0  0
   38.8533   -3.7184   36.7579 H   0  0  0  0  0  0  0  0  0  0  0  0
   39.8737   -3.5412   35.2902 H   0  0  0  0  0  0  0  0  0  0  0  0
   38.4919   -4.6890   35.2902 H   0  0  0  0  0  0  0  0  0  0  0  0
   41.7514   -4.8354   37.8377 H   0  0  0  0  0  0  0  0  0  0  0  0
   40.0072   -4.5165   38.3564 H   0  0  0  0  0  0  0  0  0  0  0  0
   42.1028   -5.7372   40.2090 H   0  0  0  0  0  0  0  0  0  0  0  0
   42.7040   -7.1250   41.8800 H   0  0  0  0  0  0  0  0  0  0  0  0
   40.9434   -9.8879   40.5638 H   0  0  0  0  0  0  0  0  0  0  0  0
   39.2348   -7.4322   37.4489 H   0  0  0  0  0  0  0  0  0  0  0  0
   39.9770  -10.5960   37.9350 H   0  0  0  0  0  0  0  0  0  0  0  0
   35.6946  -11.2095   38.0882 H   0  0  0  0  0  0  0  0  0  0  0  0
   35.5962  -10.3142   36.5340 H   0  0  0  0  0  0  0  0  0  0  0  0
   35.9260  -12.0800   36.5340 H   0  0  0  0  0  0  0  0  0  0  0  0
   39.5257  -10.8777   36.4108 H   0  0  0  0  0  0  0  0  0  0  0  0
   38.4133  -12.3608   34.4778 H   0  0  0  0  0  0  0  0  0  0  0  0
   37.1049  -11.1527   34.4742 H   0  0  0  0  0  0  0  0  0  0  0  0
   38.4146   -9.9463   33.0494 H   0  0  0  0  0  0  0  0  0  0  0  0
   39.4632   -9.6291   34.5257 H   0  0  0  0  0  0  0  0  0  0  0  0
   40.5179  -10.4733   32.2723 H   0  0  0  0  0  0  0  0  0  0  0  0
   39.7361  -13.1207   33.5926 H   0  0  0  0  0  0  0  0  0  0  0  0
   38.9769  -12.4566   32.1063 H   0  0  0  0  0  0  0  0  0  0  0  0
   40.7191  -12.8940   32.1063 H   0  0  0  0  0  0  0  0  0  0  0  0
   41.1072  -10.9676   35.1443 H   0  0  0  0  0  0  0  0  0  0  0  0
   45.0690  -12.9650   35.0000 H   0  0  0  0  0  0  0  0  0  0  0  0
   44.4560  -12.5480   33.4150 H   0  0  0  0  0  0  0  0  0  0  0  0
   44.0643   -9.5753   32.4677 H   0  0  0  0  0  0  0  0  0  0  0  0
   42.8489  -10.7795   31.9203 H   0  0  0  0  0  0  0  0  0  0  0  0
   42.4428   -9.0297   31.9203 H   0  0  0  0  0  0  0  0  0  0  0  0
   42.4557   -9.3595   35.8632 H   0  0  0  0  0  0  0  0  0  0  0  0
   43.2356   -7.1828   33.9468 H   0  0  0  0  0  0  0  0  0  0  0  0
   45.6791   -8.3352   35.2633 H   0  0  0  0  0  0  0  0  0  0  0  0
   45.0781   -9.1105   33.7584 H   0  0  0  0  0  0  0  0  0  0  0  0
   45.5149   -7.3681   33.7584 H   0  0  0  0  0  0  0  0  0  0  0  0
   42.9571   -7.5759   36.7753 H   0  0  0  0  0  0  0  0  0  0  0  0
   45.1310   -5.8820   36.4390 H   0  0  0  0  0  0  0  0  0  0  0  0
  1  2  1  0
  2  3  1  0
  3  4  1  0
  4  5  1  0
  5  6  1  0
  5  7  1  0
  7  8  1  0
  8  9  2  0
  9 10  1  0
 10 11  1  0
 10 12  2  0
 12 13  1  0
 13 14  2  0
 13 15  1  0
 15 16  1  0
 16 17  2  0
 16 18  1  0
 18 19  1  0
 18 20  2  0
 20 21  1  0
 21 22  1  0
 22 23  1  0
 23 24  1  0
 23 25  1  0
 25 26  1  0
 26 27  1  0
 27 28  1  0
 27 29  2  0
 25 30  1  0
 30 31  1  0
 30 32  2  0
 32 33  1  0
 33 34  1  0
 33 35  1  0
 35 36  1  0
 35  3  1  0
 14  8  1  0
  1 37  1  0
  1 38  1  0
  1 39  1  0
  3 40  1  1
  4 41  1  0
  4 42  1  0
  5 43  1  1
  6 44  1  0
  6 45  1  0
  6 46  1  0
  7 47  1  0
  7 48  1  0
  9 49  1  0
 11 50  1  0
 12 51  1  0
 14 52  1  0
 15 53  1  0
 19 54  1  0
 19 55  1  0
 19 56  1  0
 20 57  1  0
 21 58  1  0
 21 59  1  0
 22 60  1  0
 22 61  1  0
 23 62  1  6
 24 63  1  0
 24 64  1  0
 24 65  1  0
 25 66  1  1
 28 67  1  0
 28 68  1  0
 31 69  1  0
 31 70  1  0
 31 71  1  0
 32 72  1  0
 33 73  1  6
 34 74  1  0
 34 75  1  0
 34 76  1  0
 35 77  1  1
 36 78  1  0
M  END
>  <meeko>  (6) 
{"is_sidechain": [false], "free_energy": -4.782, "intermolecular_energy": -10.032, "internal_energy": -2.69}

$$$$
2vw5_ligand
     RDKit          3D

 78 79  0  0  0  0  0  0  0  0999 V2000
   45.1000  -11.7320   32.5960 C   0  0  0  0  0  0  0  0  0  0  0  0
   44.4750  -12.0520   33.8330 O   0  0  0  0  0  0  0  0  0  0  0  0
   43.2850  -11.2950   34.0730 C   0  0  1  0  0  0  0  0  0  0  0  0
   42.0540  -12.2320   34.2110 C   0  0  0  0  0  0  0  0  0  0  0  0
   40.8170  -12.0560   33.2880 C   0  0  2  0  0  0  0  0  0  0  0  0
   41.1610  -12.1480   31.8010 C   0  0  0  0  0  0  0  0  0  0  0  0
   39.9230  -10.8520   33.7020 C   0  0  0  0  0  0  0  0  0  0  0  0
   38.9790  -11.0910   34.8560 C   0  0  0  0  0  0  0  0  0  0  0  0
   37.7720  -11.7750   34.6870 C   0  0  0  0  0  0  0  0  0  0  0  0
   36.8680  -11.8430   35.7460 C   0  0  0  0  0  0  0  0  0  0  0  0
   35.6700  -12.4840   35.6130 O   0  0  0  0  0  0  0  0  0  0  0  0
   37.1390  -11.2300   36.9670 C   0  0  0  0  0  0  0  0  0  0  0  0
   38.3540  -10.5730   37.1580 C   0  0  0  0  0  0  0  0  0  0  0  0
   39.2780  -10.5270   36.1080 C   0  0  0  0  0  0  0  0  0  0  0  0
   38.5540   -9.8550   38.3550 N   0  0  0  0  0  0  0  0  0  0  0  0
   39.4780  -10.1950   39.3170 C   0  0  0  0  0  0  0  0  0  0  0  0
   39.7940  -11.3350   39.6430 O   0  0  0  0  0  0  0  0  0  0  0  0
   40.1310   -9.0280   39.9890 C   0  0  0  0  0  0  0  0  0  0  0  0
   41.4910   -9.2910   40.5470 C   0  0  0  0  0  0  0  0  0  0  0  0
   39.5370   -7.8280   39.8220 C   0  0  0  0  0  0  0  0  0  0  0  0
   40.1740   -6.4760   40.0070 C   0  0  0  0  0  0  0  0  0  0  0  0
   41.5180   -6.4960   39.2590 C   0  0  0  0  0  0  0  0  0  0  0  0
   41.5900   -5.5740   38.0260 C   0  0  2  0  0  0  0  0  0  0  0  0
   40.8270   -4.2660   38.2730 C   0  0  0  0  0  0  0  0  0  0  0  0
   41.0410   -6.2980   36.7560 C   0  0  1  0  0  0  0  0  0  0  0  0
   40.2340   -5.3630   36.0130 O   0  0  0  0  0  0  0  0  0  0  0  0
   38.9150   -5.6440   35.9500 C   0  0  0  0  0  0  0  0  0  0  0  0
   38.7280   -6.9780   36.0650 N   0  0  0  0  0  0  0  0  0  0  0  0
   37.9990   -4.8500   35.8120 O   0  0  0  0  0  0  0  0  0  0  0  0
   42.1460   -6.8090   35.8260 C   0  0  0  0  0  0  0  0  0  0  0  0
   43.0110   -5.7560   35.1800 C   0  0  0  0  0  0  0  0  0  0  0  0
   42.3190   -8.1380   35.6450 C   0  0  0  0  0  0  0  0  0  0  0  0
   43.4570   -8.8230   34.8980 C   0  0  2  0  0  0  0  0  0  0  0  0
   43.2800   -8.6080   33.3930 C   0  0  0  0  0  0  0  0  0  0  0  0
   43.5400  -10.3370   35.2900 C   0  0  1  0  0  0  0  0  0  0  0  0
   42.6160  -10.6400   36.3410 O   0  0  0  0  0  0  0  0  0  0  0  0
   46.0639  -11.2385   32.7891 H   0  0  0  0  0  0  0  0  0  0  0  0
   45.2690  -12.6545   32.0211 H   0  0  0  0  0  0  0  0  0  0  0  0
   44.4504  -11.0556   32.0211 H   0  0  0  0  0  0  0  0  0  0  0  0
   43.0367  -10.6522   33.2156 H   0  0  0  0  0  0  0  0  0  0  0  0
   42.4202  -13.2573   34.0538 H   0  0  0  0  0  0  0  0  0  0  0  0
   41.6582  -11.9729   35.2041 H   0  0  0  0  0  0  0  0  0  0  0  0
   40.1677  -12.9288   33.4511 H   0  0  0  0  0  0  0  0  0  0  0  0
   42.2178  -12.4306   31.6859 H   0  0  0  0  0  0  0  0  0  0  0  0
   40.5243  -12.9074   31.3237 H   0  0  0  0  0  0  0  0  0  0  0  0
   40.9884  -11.1721   31.3237 H   0  0  0  0  0  0  0  0  0  0  0  0
   40.5871  -10.0196   33.9780 H   0  0  0  0  0  0  0  0  0  0  0  0
   39.2808  -10.6483   32.8325 H   0  0  0  0  0  0  0  0  0  0  0  0
   37.5372  -12.2559   33.7260 H   0  0  0  0  0  0  0  0  0  0  0  0
   34.9770  -11.8150   35.4860 H   0  0  0  0  0  0  0  0  0  0  0  0
   36.3968  -11.2641   37.7781 H   0  0  0  0  0  0  0  0  0  0  0  0
   40.2528  -10.0422   36.2650 H   0  0  0  0  0  0  0  0  0  0  0  0
   38.1200   -8.9450   38.4170 H   0  0  0  0  0  0  0  0  0  0  0  0
   41.4445   -9.2820   41.6460 H   0  0  0  0  0  0  0  0  0  0  0  0
   41.8446  -10.2742   40.2030 H   0  0  0  0  0  0  0  0  0  0  0  0
   42.1857   -8.5106   40.2030 H   0  0  0  0  0  0  0  0  0  0  0  0
   38.4794   -7.8384   39.5198 H   0  0  0  0  0  0  0  0  0  0  0  0
   39.5231   -5.6933   39.5903 H   0  0  0  0  0  0  0  0  0  0  0  0
   40.3264   -6.2607   41.0749 H   0  0  0  0  0  0  0  0  0  0  0  0
   42.3050   -6.1871   39.9627 H   0  0  0  0  0  0  0  0  0  0  0  0
   41.6463   -7.5221   38.8840 H   0  0  0  0  0  0  0  0  0  0  0  0
   42.6476   -5.3268   37.8516 H   0  0  0  0  0  0  0  0  0  0  0  0
   40.7288   -4.0976   39.3556 H   0  0  0  0  0  0  0  0  0  0  0  0
   41.3784   -3.4288   37.8202 H   0  0  0  0  0  0  0  0  0  0  0  0
   39.8268   -4.3339   37.8202 H   0  0  0  0  0  0  0  0  0  0  0  0
   40.4667   -7.1699   37.1022 H   0  0  0  0  0  0  0  0  0  0  0  0
   37.7850   -7.3240   36.1440 H   0  0  0  0  0  0  0  0  0  0  0  0
   39.5110   -7.5660   36.3050 H   0  0  0  0  0  0  0  0  0  0  0  0
   43.5033   -5.1567   35.9601 H   0  0  0  0  0  0  0  0  0  0  0  0
   43.7743   -6.2417   34.5544 H   0  0  0  0  0  0  0  0  0  0  0  0
   42.3863   -5.1015   34.5544 H   0  0  0  0  0  0  0  0  0  0  0  0
   41.5552   -8.7961   36.0848 H   0  0  0  0  0  0  0  0  0  0  0  0
   44.4193   -8.3751   35.1867 H   0  0  0  0  0  0  0  0  0  0  0  0
   42.5894   -7.7692   33.2212 H   0  0  0  0  0  0  0  0  0  0  0  0
   44.2551   -8.3793   32.9381 H   0  0  0  0  0  0  0  0  0  0  0  0
   42.8683   -9.5210   32.9381 H   0  0  0  0  0  0  0  0  0  0  0  0
   44.5689  -10.5101   35.6385 H   0  0  0  0  0  0  0  0  0  0  0  0
   41.7930  -10.1560   36.1540 H   0  0  0  0  0  0  0  0  0  0  0  0
  1  2  1  0
  2  3  1  0
  3  4  1  0
  4  5  1  0
  5  6  1  0
  5  7  1  0
  7  8  1  0
  8  9  2  0
  9 10  1  0
 10 11  1  0
 10 12  2  0
 12 13  1  0
 13 14  2  0
 13 15  1  0
 15 16  1  0
 16 17  2  0
 16 18  1  0
 18 19  1  0
 18 20  2  0
 20 21  1  0
 21 22  1  0
 22 23  1  0
 23 24  1  0
 23 25  1  0
 25 26  1  0
 26 27  1  0
 27 28  1  0
 27 29  2  0
 25 30  1  0
 30 31  1  0
 30 32  2  0
 32 33  1  0
 33 34  1  0
 33 35  1  0
 35 36  1  0
 35  3  1  0
 14  8  1  0
  1 37  1  0
  1 38  1  0
  1 39  1  0
  3 40  1  6
  4 41  1  0
  4 42  1  0
  5 43  1  1
  6 44  1  0
  6 45  1  0
  6 46  1  0
  7 47  1  0
  7 48  1  0
  9 49  1  0
 11 50  1  0
 12 51  1  0
 14 52  1  0
 15 53  1  0
 19 54  1  0
 19 55  1  0
 19 56  1  0
 20 57  1  0
 21 58  1  0
 21 59  1  0
 22 60  1  0
 22 61  1  0
 23 62  1  6
 24 63  1  0
 24 64  1  0
 24 65  1  0
 25 66  1  1
 28 67  1  0
 28 68  1  0
 31 69  1  0
 31 70  1  0
 31 71  1  0
 32 72  1  0
 33 73  1  1
 34 74  1  0
 34 75  1  0
 34 76  1  0
 35 77  1  1
 36 78  1  0
M  END
>  <meeko>  (7) 
{"is_sidechain": [false], "free_energy": -4.649, "intermolecular_energy": -10.79, "internal_energy": -1.666}

$$$$
2vw5_ligand
     RDKit          3D

 78 79  0  0  0  0  0  0  0  0999 V2000
   43.7720   -3.3210   34.3040 C   0  0  0  0  0  0  0  0  0  0  0  0
   43.1000   -4.1530   35.2410 O   0  0  0  0  0  0  0  0  0  0  0  0
   42.7050   -5.4130   34.6910 C   0  0  1  0  0  0  0  0  0  0  0  0
   43.7510   -6.5130   35.0240 C   0  0  0  0  0  0  0  0  0  0  0  0
   44.7570   -7.0020   33.9470 C   0  0  2  0  0  0  0  0  0  0  0  0
   44.3690   -6.5830   32.5290 C   0  0  0  0  0  0  0  0  0  0  0  0
   45.1510   -8.4970   34.1260 C   0  0  0  0  0  0  0  0  0  0  0  0
   44.0170   -9.4540   34.4060 C   0  0  0  0  0  0  0  0  0  0  0  0
   43.2410   -9.9930   33.3750 C   0  0  0  0  0  0  0  0  0  0  0  0
   42.1160  -10.7530   33.6910 C   0  0  0  0  0  0  0  0  0  0  0  0
   41.3220  -11.2790   32.7130 O   0  0  0  0  0  0  0  0  0  0  0  0
   41.7430  -10.9770   35.0140 C   0  0  0  0  0  0  0  0  0  0  0  0
   42.5280  -10.4720   36.0500 C   0  0  0  0  0  0  0  0  0  0  0  0
   43.6750   -9.7320   35.7390 C   0  0  0  0  0  0  0  0  0  0  0  0
   42.0640  -10.6020   37.3750 N   0  0  0  0  0  0  0  0  0  0  0  0
   42.3850   -9.7370   38.3960 C   0  0  0  0  0  0  0  0  0  0  0  0
   43.4640   -9.1750   38.5540 O   0  0  0  0  0  0  0  0  0  0  0  0
   41.2750   -9.4900   39.3710 C   0  0  0  0  0  0  0  0  0  0  0  0
   41.3970   -8.2360   40.1730 C   0  0  0  0  0  0  0  0  0  0  0  0
   40.1910  -10.2850   39.2610 C   0  0  0  0  0  0  0  0  0  0  0  0
   38.8100  -10.0010   39.7920 C   0  0  0  0  0  0  0  0  0  0  0  0
   38.1840   -8.9250   38.8890 C   0  0  0  0  0  0  0  0  0  0  0  0
   37.5150   -9.4600   37.6070 C   0  0  2  0  0  0  0  0  0  0  0  0
   37.1020  -10.9280   37.7760 C   0  0  0  0  0  0  0  0  0  0  0  0
   38.4590   -9.2940   36.3740 C   0  0  1  0  0  0  0  0  0  0  0  0
   37.6850   -9.5110   35.1780 O   0  0  0  0  0  0  0  0  0  0  0  0
   38.2100  -10.3770   34.2860 C   0  0  0  0  0  0  0  0  0  0  0  0
   38.6700   -9.7020   33.2100 N   0  0  0  0  0  0  0  0  0  0  0  0
   38.2810  -11.5910   34.3930 O   0  0  0  0  0  0  0  0  0  0  0  0
   39.0920   -7.9020   36.2810 C   0  0  0  0  0  0  0  0  0  0  0  0
   38.1440   -6.7560   36.0320 C   0  0  0  0  0  0  0  0  0  0  0  0
   40.4260   -7.7510   36.4460 C   0  0  0  0  0  0  0  0  0  0  0  0
   41.1960   -6.4410   36.5510 C   0  0  2  0  0  0  0  0  0  0  0  0
   40.5770   -5.5740   37.6500 C   0  0  0  0  0  0  0  0  0  0  0  0
   41.2430   -5.7180   35.1620 C   0  0  1  0  0  0  0  0  0  0  0  0
   40.4890   -4.5020   35.1990 O   0  0  0  0  0  0  0  0  0  0  0  0
   44.3747   -2.5748   34.8424 H   0  0  0  0  0  0  0  0  0  0  0  0
   44.4293   -3.9366   33.6723 H   0  0  0  0  0  0  0  0  0  0  0  0
   43.0319   -2.8079   33.6723 H   0  0  0  0  0  0  0  0  0  0  0  0
   42.6859   -5.3864   33.5915 H   0  0  0  0  0  0  0  0  0  0  0  0
   44.3504   -6.1326   35.8642 H   0  0  0  0  0  0  0  0  0  0  0  0
   43.1260   -7.4014   35.1972 H   0  0  0  0  0  0  0  0  0  0  0  0
   45.6996   -6.4620   34.1199 H   0  0  0  0  0  0  0  0  0  0  0  0
   43.6223   -5.7766   32.5763 H   0  0  0  0  0  0  0  0  0  0  0  0
   45.2617   -6.2252   31.9952 H   0  0  0  0  0  0  0  0  0  0  0  0
   43.9438   -7.4457   31.9952 H   0  0  0  0  0  0  0  0  0  0  0  0
   45.6483   -8.8264   33.2018 H   0  0  0  0  0  0  0  0  0  0  0  0
   45.7918   -8.5287   35.0195 H   0  0  0  0  0  0  0  0  0  0  0  0
   43.5159   -9.8188   32.3242 H   0  0  0  0  0  0  0  0  0  0  0  0
   41.8880  -11.5530   31.9720 H   0  0  0  0  0  0  0  0  0  0  0  0
   40.8321  -11.5504   35.2410 H   0  0  0  0  0  0  0  0  0  0  0  0
   44.3181   -9.3627   36.5514 H   0  0  0  0  0  0  0  0  0  0  0  0
   41.3150  -11.2620   37.5310 H   0  0  0  0  0  0  0  0  0  0  0  0
   41.3730   -8.4824   41.2448 H   0  0  0  0  0  0  0  0  0  0  0  0
   42.3478   -7.7380   39.9325 H   0  0  0  0  0  0  0  0  0  0  0  0
   40.5600   -7.5640   39.9325 H   0  0  0  0  0  0  0  0  0  0  0  0
   40.3294  -11.2380   38.7293 H   0  0  0  0  0  0  0  0  0  0  0  0
   38.2007  -10.9164   39.7644 H   0  0  0  0  0  0  0  0  0  0  0  0
   38.8579   -9.6540   40.8347 H   0  0  0  0  0  0  0  0  0  0  0  0
   37.4217   -8.3896   39.4740 H   0  0  0  0  0  0  0  0  0  0  0  0
   39.0121   -8.2809   38.5583 H   0  0  0  0  0  0  0  0  0  0  0  0
   36.6070   -8.8656   37.4274 H   0  0  0  0  0  0  0  0  0  0  0  0
   37.0342  -11.1688   38.8472 H   0  0  0  0  0  0  0  0  0  0  0  0
   36.1233  -11.0906   37.3010 H   0  0  0  0  0  0  0  0  0  0  0  0
   37.8524  -11.5770   37.3010 H   0  0  0  0  0  0  0  0  0  0  0  0
   39.2744  -10.0236   36.4872 H   0  0  0  0  0  0  0  0  0  0  0  0
   39.1870  -10.2100   32.5110 H   0  0  0  0  0  0  0  0  0  0  0  0
   38.6990   -8.6940   33.2370 H   0  0  0  0  0  0  0  0  0  0  0  0
   37.8043   -6.3454   36.9943 H   0  0  0  0  0  0  0  0  0  0  0  0
   38.6601   -5.9708   35.4600 H   0  0  0  0  0  0  0  0  0  0  0  0
   37.2760   -7.1158   35.4600 H   0  0  0  0  0  0  0  0  0  0  0  0
   41.0194   -8.6749   36.5115 H   0  0  0  0  0  0  0  0  0  0  0  0
   42.2404   -6.6403   36.8329 H   0  0  0  0  0  0  0  0  0  0  0  0
   40.8614   -5.9724   38.6351 H   0  0  0  0  0  0  0  0  0  0  0  0
   40.9433   -4.5414   37.5524 H   0  0  0  0  0  0  0  0  0  0  0  0
   39.4814   -5.5851   37.5524 H   0  0  0  0  0  0  0  0  0  0  0  0
   40.7950   -6.4110   34.4347 H   0  0  0  0  0  0  0  0  0  0  0  0
   41.0830   -3.7810   34.9280 H   0  0  0  0  0  0  0  0  0  0  0  0
  1  2  1  0
  2  3  1  0
  3  4  1  0
  4  5  1  0
  5  6  1  0
  5  7  1  0
  7  8  1  0
  8  9  2  0
  9 10  1  0
 10 11  1  0
 10 12  2  0
 12 13  1  0
 13 14  2  0
 13 15  1  0
 15 16  1  0
 16 17  2  0
 16 18  1  0
 18 19  1  0
 18 20  2  0
 20 21  1  0
 21 22  1  0
 22 23  1  0
 23 24  1  0
 23 25  1  0
 25 26  1  0
 26 27  1  0
 27 28  1  0
 27 29  2  0
 25 30  1  0
 30 31  1  0
 30 32  2  0
 32 33  1  0
 33 34  1  0
 33 35  1  0
 35 36  1  0
 35  3  1  0
 14  8  1  0
  1 37  1  0
  1 38  1  0
  1 39  1  0
  3 40  1  6
  4 41  1  0
  4 42  1  0
  5 43  1  1
  6 44  1  0
  6 45  1  0
  6 46  1  0
  7 47  1  0
  7 48  1  0
  9 49  1  0
 11 50  1  0
 12 51  1  0
 14 52  1  0
 15 53  1  0
 19 54  1  0
 19 55  1  0
 19 56  1  0
 20 57  1  0
 21 58  1  0
 21 59  1  0
 22 60  1  0
 22 61  1  0
 23 62  1  6
 24 63  1  0
 24 64  1  0
 24 65  1  0
 25 66  1  1
 28 67  1  0
 28 68  1  0
 31 69  1  0
 31 70  1  0
 31 71  1  0
 32 72  1  0
 33 73  1  1
 34 74  1  0
 34 75  1  0
 34 76  1  0
 35 77  1  6
 36 78  1  0
M  END
>  <meeko>  (8) 
{"is_sidechain": [false], "free_energy": -4.564, "intermolecular_energy": -9.507, "internal_energy": -2.78}

$$$$
2vw5_ligand
     RDKit          3D

 78 79  0  0  0  0  0  0  0  0999 V2000
   39.8700   -4.7370   39.8120 C   0  0  0  0  0  0  0  0  0  0  0  0
   40.1140   -5.2370   38.5040 O   0  0  0  0  0  0  0  0  0  0  0  0
   40.8480   -6.4650   38.5000 C   0  0  1  0  0  0  0  0  0  0  0  0
   39.8850   -7.6830   38.5680 C   0  0  0  0  0  0  0  0  0  0  0  0
   39.8710   -8.6140   39.8110 C   0  0  2  0  0  0  0  0  0  0  0  0
   41.1710   -8.5590   40.6150 C   0  0  0  0  0  0  0  0  0  0  0  0
   39.3350  -10.0390   39.4900 C   0  0  0  0  0  0  0  0  0  0  0  0
   38.4340  -10.1540   38.2840 C   0  0  0  0  0  0  0  0  0  0  0  0
   37.0500   -9.9800   38.3820 C   0  0  0  0  0  0  0  0  0  0  0  0
   36.2460  -10.2400   37.2740 C   0  0  0  0  0  0  0  0  0  0  0  0
   34.8900  -10.1020   37.3380 O   0  0  0  0  0  0  0  0  0  0  0  0
   36.7940  -10.6830   36.0720 C   0  0  0  0  0  0  0  0  0  0  0  0
   38.1750  -10.8280   35.9520 C   0  0  0  0  0  0  0  0  0  0  0  0
   38.9900  -10.5400   37.0530 C   0  0  0  0  0  0  0  0  0  0  0  0
   38.6960  -11.3950   34.7710 N   0  0  0  0  0  0  0  0  0  0  0  0
   39.1320  -10.6660   33.6880 C   0  0  0  0  0  0  0  0  0  0  0  0
   38.6390   -9.6200   33.2780 O   0  0  0  0  0  0  0  0  0  0  0  0
   40.3220  -11.2450   32.9890 C   0  0  0  0  0  0  0  0  0  0  0  0
   40.3270  -12.7340   32.8630 C   0  0  0  0  0  0  0  0  0  0  0  0
   41.1330  -10.3710   32.3570 C   0  0  0  0  0  0  0  0  0  0  0  0
   42.1140  -10.6870   31.2590 C   0  0  0  0  0  0  0  0  0  0  0  0
   43.5090  -10.7750   31.9020 C   0  0  0  0  0  0  0  0  0  0  0  0
   43.8480   -9.6310   32.8780 C   0  0  2  0  0  0  0  0  0  0  0  0
   45.3490   -9.6090   33.1960 C   0  0  0  0  0  0  0  0  0  0  0  0
   43.0110   -9.7500   34.1910 C   0  0  1  0  0  0  0  0  0  0  0  0
   43.7200  -10.6090   35.1050 O   0  0  0  0  0  0  0  0  0  0  0  0
   43.0320  -11.6750   35.5660 C   0  0  0  0  0  0  0  0  0  0  0  0
   43.4020  -12.7830   34.8880 N   0  0  0  0  0  0  0  0  0  0  0  0
   42.1970  -11.6840   36.4560 O   0  0  0  0  0  0  0  0  0  0  0  0
   42.7830   -8.4050   34.8870 C   0  0  0  0  0  0  0  0  0  0  0  0
   43.9800   -7.4920   34.9760 C   0  0  0  0  0  0  0  0  0  0  0  0
   41.5560   -8.0830   35.3550 C   0  0  0  0  0  0  0  0  0  0  0  0
   41.1110   -6.7390   35.9180 C   0  0  2  0  0  0  0  0  0  0  0  0
   41.3500   -5.6460   34.8730 C   0  0  0  0  0  0  0  0  0  0  0  0
   41.8320   -6.4460   37.2770 C   0  0  1  0  0  0  0  0  0  0  0  0
   42.5090   -5.1850   37.2300 O   0  0  0  0  0  0  0  0  0  0  0  0
   40.2256   -5.4657   40.5553 H   0  0  0  0  0  0  0  0  0  0  0  0
   40.4049   -3.7853   39.9464 H   0  0  0  0  0  0  0  0  0  0  0  0
   38.7906   -4.5731   39.9464 H   0  0  0  0  0  0  0  0  0  0  0  0
   41.4701   -6.5717   39.4009 H   0  0  0  0  0  0  0  0  0  0  0  0
   38.8654   -7.2837   38.4630 H   0  0  0  0  0  0  0  0  0  0  0  0
   40.2654   -8.3411   37.7729 H   0  0  0  0  0  0  0  0  0  0  0  0
   39.1245   -8.2071   40.5090 H   0  0  0  0  0  0  0  0  0  0  0  0
   40.9380   -8.5689   41.6900 H   0  0  0  0  0  0  0  0  0  0  0  0
   41.7929   -9.4316   40.3666 H   0  0  0  0  0  0  0  0  0  0  0  0
   41.7170   -7.6370   40.3666 H   0  0  0  0  0  0  0  0  0  0  0  0
   40.2024  -10.6950   39.3252 H   0  0  0  0  0  0  0  0  0  0  0  0
   38.7124  -10.3214   40.3518 H   0  0  0  0  0  0  0  0  0  0  0  0
   36.5995   -9.6405   39.3264 H   0  0  0  0  0  0  0  0  0  0  0  0
   34.5340  -10.8150   37.8940 H   0  0  0  0  0  0  0  0  0  0  0  0
   36.1386  -10.9176   35.2203 H   0  0  0  0  0  0  0  0  0  0  0  0
   40.0827  -10.6171   36.9528 H   0  0  0  0  0  0  0  0  0  0  0  0
   38.9260  -12.3790   34.8020 H   0  0  0  0  0  0  0  0  0  0  0  0
   40.3285  -13.1868   33.8655 H   0  0  0  0  0  0  0  0  0  0  0  0
   39.4299  -13.0587   32.3154 H   0  0  0  0  0  0  0  0  0  0  0  0
   41.2262  -13.0526   32.3154 H   0  0  0  0  0  0  0  0  0  0  0  0
   41.0712   -9.3203   32.6765 H   0  0  0  0  0  0  0  0  0  0  0  0
   41.8554  -11.6469   30.7882 H   0  0  0  0  0  0  0  0  0  0  0  0
   42.0922   -9.9088   30.4819 H   0  0  0  0  0  0  0  0  0  0  0  0
   43.5714  -11.7245   32.4538 H   0  0  0  0  0  0  0  0  0  0  0  0
   44.2335  -10.7015   31.0776 H   0  0  0  0  0  0  0  0  0  0  0  0
   43.5855   -8.6817   32.3881 H   0  0  0  0  0  0  0  0  0  0  0  0
   45.4928   -9.6069   34.2866 H   0  0  0  0  0  0  0  0  0  0  0  0
   45.8283  -10.5002   32.7647 H   0  0  0  0  0  0  0  0  0  0  0  0
   45.8020   -8.7041   32.7647 H   0  0  0  0  0  0  0  0  0  0  0  0
   42.0254  -10.1516   33.9129 H   0  0  0  0  0  0  0  0  0  0  0  0
   43.0500  -13.6750   35.1990 H   0  0  0  0  0  0  0  0  0  0  0  0
   44.1860  -12.7350   34.2560 H   0  0  0  0  0  0  0  0  0  0  0  0
   44.2224   -7.3071   36.0329 H   0  0  0  0  0  0  0  0  0  0  0  0
   44.8401   -7.9656   34.4800 H   0  0  0  0  0  0  0  0  0  0  0  0
   43.7507   -6.5373   34.4800 H   0  0  0  0  0  0  0  0  0  0  0  0
   40.7963   -8.8780   35.3261 H   0  0  0  0  0  0  0  0  0  0  0  0
   40.0332   -6.7614   36.1367 H   0  0  0  0  0  0  0  0  0  0  0  0
   41.5585   -4.6927   35.3806 H   0  0  0  0  0  0  0  0  0  0  0  0
   42.2090   -5.9219   34.2438 H   0  0  0  0  0  0  0  0  0  0  0  0
   40.4542   -5.5381   34.2438 H   0  0  0  0  0  0  0  0  0  0  0  0
   42.5623   -7.2558   37.4214 H   0  0  0  0  0  0  0  0  0  0  0  0
   42.0530   -4.5860   37.8460 H   0  0  0  0  0  0  0  0  0  0  0  0
  1  2  1  0
  2  3  1  0
  3  4  1  0
  4  5  1  0
  5  6  1  0
  5  7  1  0
  7  8  1  0
  8  9  2  0
  9 10  1  0
 10 11  1  0
 10 12  2  0
 12 13  1  0
 13 14  2  0
 13 15  1  0
 15 16  1  0
 16 17  2  0
 16 18  1  0
 18 19  1  0
 18 20  2  0
 20 21  1  0
 21 22  1  0
 22 23  1  0
 23 24  1  0
 23 25  1  0
 25 26  1  0
 26 27  1  0
 27 28  1  0
 27 29  2  0
 25 30  1  0
 30 31  1  0
 30 32  2  0
 32 33  1  0
 33 34  1  0
 33 35  1  0
 35 36  1  0
 35  3  1  0
 14  8  1  0
  1 37  1  0
  1 38  1  0
  1 39  1  0
  3 40  1  1
  4 41  1  0
  4 42  1  0
  5 43  1  1
  6 44  1  0
  6 45  1  0
  6 46  1  0
  7 47  1  0
  7 48  1  0
  9 49  1  0
 11 50  1  0
 12 51  1  0
 14 52  1  0
 15 53  1  0
 19 54  1  0
 19 55  1  0
 19 56  1  0
 20 57  1  0
 21 58  1  0
 21 59  1  0
 22 60  1  0
 22 61  1  0
 23 62  1  6
 24 63  1  0
 24 64  1  0
 24 65  1  0
 25 66  1  6
 28 67  1  0
 28 68  1  0
 31 69  1  0
 31 70  1  0
 31 71  1  0
 32 72  1  0
 33 73  1  1
 34 74  1  0
 34 75  1  0
 34 76  1  0
 35 77  1  1
 36 78  1  0
M  END
>  <meeko>  (9) 
{"is_sidechain": [false], "free_energy": -4.488, "intermolecular_energy": -10.91, "internal_energy": -1.226}

$$$$
