2xys_ligand
     RDKit          3D

 48 54  0  0  0  0  0  0  0  0999 V2000
  -41.2090    1.2020  -15.5790 O   0  0  0  0  0  0  0  0  0  0  0  0
  -41.7970    2.2620  -15.7780 C   0  0  0  0  0  0  0  0  0  0  0  0
  -43.3320    2.3070  -15.7200 C   0  0  0  0  0  0  0  0  0  0  0  0
  -44.0100    3.6860  -15.5060 C   0  0  2  0  0  0  0  0  0  0  0  0
  -44.7210    3.9930  -16.7120 O   0  0  0  0  0  0  0  0  0  0  0  0
  -45.6520    5.0610  -16.6020 C   0  0  0  0  0  0  0  0  0  0  0  0
  -44.9470    6.3440  -16.9430 C   0  0  0  0  0  0  0  0  0  0  0  0
  -43.9480    6.8840  -16.2190 C   0  0  0  0  0  0  0  0  0  0  0  0
  -43.2800    8.1710  -16.6260 C   0  0  0  0  0  0  0  0  0  0  0  0
  -41.7690    8.1370  -16.5320 N   0  0  2  0  0  0  0  0  0  0  0  0
  -41.0320    7.8840  -17.8150 C   0  0  0  0  0  0  0  0  0  0  0  0
  -40.8970    6.3790  -17.8940 C   0  0  0  0  0  0  0  0  0  0  0  0
  -40.9140    5.8600  -16.4330 C   0  0  2  0  0  0  0  0  0  0  0  0
  -39.6150    5.1560  -16.0990 C   0  0  0  0  0  0  0  0  0  0  0  0
  -38.3390    5.7010  -16.0060 C   0  0  0  0  0  0  0  0  0  0  0  0
  -37.2710    4.8520  -15.7070 C   0  0  0  0  0  0  0  0  0  0  0  0
  -37.4800    3.4810  -15.5120 C   0  0  0  0  0  0  0  0  0  0  0  0
  -38.7610    2.9340  -15.6140 C   0  0  0  0  0  0  0  0  0  0  0  0
  -39.8140    3.7800  -15.9120 C   0  0  0  0  0  0  0  0  0  0  0  0
  -41.1710    3.4680  -16.0380 N   0  0  0  0  0  0  0  0  0  0  0  0
  -41.9260    4.6810  -16.2950 C   0  0  1  0  0  0  0  0  0  0  0  0
  -42.9660    4.7620  -15.1770 C   0  0  1  0  0  0  0  0  0  0  0  0
  -43.4340    6.2060  -14.9590 C   0  0  1  0  0  0  0  0  0  0  0  0
  -42.2010    6.9450  -14.4230 C   0  0  0  0  0  0  0  0  0  0  0  0
  -41.2030    7.1080  -15.5580 C   0  0  2  0  0  0  0  0  0  0  0  0
  -43.7078    1.9012  -16.6708 H   0  0  0  0  0  0  0  0  0  0  0  0
  -43.5912    1.7295  -14.8204 H   0  0  0  0  0  0  0  0  0  0  0  0
  -44.7031    3.6565  -14.6523 H   0  0  0  0  0  0  0  0  0  0  0  0
  -46.4867    4.8992  -17.2999 H   0  0  0  0  0  0  0  0  0  0  0  0
  -46.0506    5.1101  -15.5779 H   0  0  0  0  0  0  0  0  0  0  0  0
  -45.2699    6.8797  -17.8479 H   0  0  0  0  0  0  0  0  0  0  0  0
  -43.5569    8.3901  -17.6678 H   0  0  0  0  0  0  0  0  0  0  0  0
  -43.6253    8.9446  -15.9244 H   0  0  0  0  0  0  0  0  0  0  0  0
  -41.4930    9.0740  -16.2090 H   0  0  0  0  0  0  0  0  0  0  0  0
  -41.6045    8.2671  -18.6726 H   0  0  0  0  0  0  0  0  0  0  0  0
  -40.0556    8.3899  -17.8392 H   0  0  0  0  0  0  0  0  0  0  0  0
  -41.7378    5.9509  -18.4595 H   0  0  0  0  0  0  0  0  0  0  0  0
  -39.9696    6.0886  -18.4093 H   0  0  0  0  0  0  0  0  0  0  0  0
  -38.1744    6.7770  -16.1644 H   0  0  0  0  0  0  0  0  0  0  0  0
  -36.2547    5.2647  -15.6238 H   0  0  0  0  0  0  0  0  0  0  0  0
  -36.6265    2.8283  -15.2761 H   0  0  0  0  0  0  0  0  0  0  0  0
  -38.9283    1.8576  -15.4612 H   0  0  0  0  0  0  0  0  0  0  0  0
  -42.4891    4.7118  -17.2395 H   0  0  0  0  0  0  0  0  0  0  0  0
  -42.5843    4.5274  -14.1724 H   0  0  0  0  0  0  0  0  0  0  0  0
  -44.2902    6.2215  -14.2686 H   0  0  0  0  0  0  0  0  0  0  0  0
  -42.4972    7.9346  -14.0448 H   0  0  0  0  0  0  0  0  0  0  0  0
  -41.7463    6.3716  -13.6017 H   0  0  0  0  0  0  0  0  0  0  0  0
  -40.2643    7.3728  -15.0494 H   0  0  0  0  0  0  0  0  0  0  0  0
  1  2  2  0
  2  3  1  0
  3  4  1  0
  4  5  1  0
  5  6  1  0
  6  7  1  0
  7  8  2  0
  8  9  1  0
  9 10  1  0
 10 11  1  0
 11 12  1  0
 13 12  1  6
 13 14  1  0
 14 15  2  0
 15 16  1  0
 16 17  2  0
 17 18  1  0
 18 19  2  0
 19 20  1  0
 20 21  1  0
 21 22  1  0
 22 23  1  0
 23 24  1  0
 24 25  1  0
 20  2  1  0
 22  4  1  0
 23  8  1  0
 25 10  1  0
 21 13  1  0
 25 13  1  0
 19 14  1  0
  3 26  1  0
  3 27  1  0
  4 28  1  1
  6 29  1  0
  6 30  1  0
  7 31  1  0
  9 32  1  0
  9 33  1  0
 10 34  1  1
 11 35  1  0
 11 36  1  0
 12 37  1  0
 12 38  1  0
 15 39  1  0
 16 40  1  0
 17 41  1  0
 18 42  1  0
 21 43  1  6
 22 44  1  1
 23 45  1  1
 24 46  1  0
 24 47  1  0
 25 48  1  1
M  CHG  1  10   1
M  END
>  <meeko>  (1) 
{"is_sidechain": [false], "free_energy": -9.443, "intermolecular_energy": -10.547, "internal_energy": 0.436}

$$$$
2xys_ligand
     RDKit          3D

 48 54  0  0  0  0  0  0  0  0999 V2000
  -43.4590    1.1250  -16.0760 O   0  0  0  0  0  0  0  0  0  0  0  0
  -42.6370    2.0370  -16.0260 C   0  0  0  0  0  0  0  0  0  0  0  0
  -41.1350    1.7140  -16.0430 C   0  0  0  0  0  0  0  0  0  0  0  0
  -40.1540    2.8460  -16.4470 C   0  0  2  0  0  0  0  0  0  0  0  0
  -39.3820    3.1640  -15.2810 O   0  0  0  0  0  0  0  0  0  0  0  0
  -38.2280    3.9560  -15.5270 C   0  0  0  0  0  0  0  0  0  0  0  0
  -38.6100    5.4050  -15.4080 C   0  0  0  0  0  0  0  0  0  0  0  0
  -39.4590    6.0420  -16.2370 C   0  0  0  0  0  0  0  0  0  0  0  0
  -39.8040    7.4970  -16.0540 C   0  0  0  0  0  0  0  0  0  0  0  0
  -41.2820    7.8010  -16.1870 N   0  0  2  0  0  0  0  0  0  0  0  0
  -42.0480    7.9300  -14.9030 C   0  0  0  0  0  0  0  0  0  0  0  0
  -42.5320    6.5300  -14.5970 C   0  0  0  0  0  0  0  0  0  0  0  0
  -42.6470    5.7990  -15.9600 C   0  0  2  0  0  0  0  0  0  0  0  0
  -44.0770    5.3730  -16.2210 C   0  0  0  0  0  0  0  0  0  0  0  0
  -45.1900    6.1780  -16.4350 C   0  0  0  0  0  0  0  0  0  0  0  0
  -46.4300    5.5650  -16.6320 C   0  0  0  0  0  0  0  0  0  0  0  0
  -46.5500    4.1700  -16.6060 C   0  0  0  0  0  0  0  0  0  0  0  0
  -45.4320    3.3630  -16.3830 C   0  0  0  0  0  0  0  0  0  0  0  0
  -44.2080    3.9770  -16.1870 C   0  0  0  0  0  0  0  0  0  0  0  0
  -42.9620    3.3810  -15.9740 N   0  0  0  0  0  0  0  0  0  0  0  0
  -41.9410    4.4100  -15.8840 C   0  0  1  0  0  0  0  0  0  0  0  0
  -40.9190    4.0700  -16.9690 C   0  0  1  0  0  0  0  0  0  0  0  0
  -40.1270    5.3130  -17.3920 C   0  0  1  0  0  0  0  0  0  0  0  0
  -41.1550    6.2260  -18.0730 C   0  0  0  0  0  0  0  0  0  0  0  0
  -42.0790    6.7920  -17.0080 C   0  0  2  0  0  0  0  0  0  0  0  0
  -40.8587    1.3871  -15.0297 H   0  0  0  0  0  0  0  0  0  0  0  0
  -41.0243    0.9575  -16.8338 H   0  0  0  0  0  0  0  0  0  0  0  0
  -39.4932    2.5230  -17.2650 H   0  0  0  0  0  0  0  0  0  0  0  0
  -37.4488    3.7158  -14.7887 H   0  0  0  0  0  0  0  0  0  0  0  0
  -37.8376    3.7506  -16.5347 H   0  0  0  0  0  0  0  0  0  0  0  0
  -38.1650    5.9856  -14.5865 H   0  0  0  0  0  0  0  0  0  0  0  0
  -39.4760    7.8068  -15.0508 H   0  0  0  0  0  0  0  0  0  0  0  0
  -39.2921    8.0489  -16.8561 H   0  0  0  0  0  0  0  0  0  0  0  0
  -41.3310    8.7140  -16.6590 H   0  0  0  0  0  0  0  0  0  0  0  0
  -41.3951    8.2985  -14.0981 H   0  0  0  0  0  0  0  0  0  0  0  0
  -42.8784    8.6466  -14.9861 H   0  0  0  0  0  0  0  0  0  0  0  0
  -41.8115    6.0119  -13.9470 H   0  0  0  0  0  0  0  0  0  0  0  0
  -43.4981    6.5480  -14.0713 H   0  0  0  0  0  0  0  0  0  0  0  0
  -45.0965    7.2739  -16.4489 H   0  0  0  0  0  0  0  0  0  0  0  0
  -47.3214    6.1847  -16.8094 H   0  0  0  0  0  0  0  0  0  0  0  0
  -47.5345    3.7051  -16.7628 H   0  0  0  0  0  0  0  0  0  0  0  0
  -45.5225    2.2669  -16.3637 H   0  0  0  0  0  0  0  0  0  0  0  0
  -41.3799    4.4566  -14.9390 H   0  0  0  0  0  0  0  0  0  0  0  0
  -41.3520    3.7755  -17.9364 H   0  0  0  0  0  0  0  0  0  0  0  0
  -39.2959    5.0195  -18.0501 H   0  0  0  0  0  0  0  0  0  0  0  0
  -40.6368    7.0476  -18.5892 H   0  0  0  0  0  0  0  0  0  0  0  0
  -41.7367    5.6535  -18.8105 H   0  0  0  0  0  0  0  0  0  0  0  0
  -42.9326    7.1841  -17.5804 H   0  0  0  0  0  0  0  0  0  0  0  0
  1  2  2  0
  2  3  1  0
  3  4  1  0
  4  5  1  0
  5  6  1  0
  6  7  1  0
  7  8  2  0
  8  9  1  0
  9 10  1  0
 10 11  1  0
 11 12  1  0
 13 12  1  1
 13 14  1  0
 14 15  2  0
 15 16  1  0
 16 17  2  0
 17 18  1  0
 18 19  2  0
 19 20  1  0
 20 21  1  0
 21 22  1  0
 22 23  1  0
 23 24  1  0
 24 25  1  0
 20  2  1  0
 22  4  1  0
 23  8  1  0
 25 10  1  0
 21 13  1  0
 25 13  1  0
 19 14  1  0
  3 26  1  0
  3 27  1  0
  4 28  1  6
  6 29  1  0
  6 30  1  0
  7 31  1  0
  9 32  1  0
  9 33  1  0
 10 34  1  6
 11 35  1  0
 11 36  1  0
 12 37  1  0
 12 38  1  0
 15 39  1  0
 16 40  1  0
 17 41  1  0
 18 42  1  0
 21 43  1  1
 22 44  1  6
 23 45  1  6
 24 46  1  0
 24 47  1  0
 25 48  1  6
M  CHG  1  10   1
M  END
>  <meeko>  (2) 
{"is_sidechain": [false], "free_energy": -9.271, "intermolecular_energy": -10.354, "internal_energy": 0.436}

$$$$
2xys_ligand
     RDKit          3D

 48 54  0  0  0  0  0  0  0  0999 V2000
  -46.5190    3.3120  -16.3760 O   0  0  0  0  0  0  0  0  0  0  0  0
  -45.8250    4.3180  -16.5030 C   0  0  0  0  0  0  0  0  0  0  0  0
  -46.4940    5.6890  -16.6880 C   0  0  0  0  0  0  0  0  0  0  0  0
  -45.6510    6.9550  -16.3780 C   0  0  2  0  0  0  0  0  0  0  0  0
  -45.4530    7.6390  -17.6230 O   0  0  0  0  0  0  0  0  0  0  0  0
  -44.9740    8.9710  -17.5020 C   0  0  0  0  0  0  0  0  0  0  0  0
  -43.4700    8.9380  -17.5270 C   0  0  0  0  0  0  0  0  0  0  0  0
  -42.7020    8.3700  -16.5780 C   0  0  0  0  0  0  0  0  0  0  0  0
  -41.1980    8.3680  -16.6710 C   0  0  0  0  0  0  0  0  0  0  0  0
  -40.5630    7.0320  -16.3410 N   0  0  2  0  0  0  0  0  0  0  0  0
  -40.1790    6.1750  -17.5120 C   0  0  0  0  0  0  0  0  0  0  0  0
  -41.4060    5.3350  -17.7960 C   0  0  0  0  0  0  0  0  0  0  0  0
  -42.1690    5.2070  -16.4530 C   0  0  2  0  0  0  0  0  0  0  0  0
  -42.2610    3.7580  -16.0250 C   0  0  0  0  0  0  0  0  0  0  0  0
  -41.2310    2.9040  -15.6460 C   0  0  0  0  0  0  0  0  0  0  0  0
  -41.5450    1.5850  -15.3110 C   0  0  0  0  0  0  0  0  0  0  0  0
  -42.8700    1.1300  -15.3640 C   0  0  0  0  0  0  0  0  0  0  0  0
  -43.9020    1.9870  -15.7530 C   0  0  0  0  0  0  0  0  0  0  0  0
  -43.5830    3.2910  -16.0840 C   0  0  0  0  0  0  0  0  0  0  0  0
  -44.4420    4.3230  -16.4720 N   0  0  0  0  0  0  0  0  0  0  0  0
  -43.6790    5.5440  -16.6600 C   0  0  1  0  0  0  0  0  0  0  0  0
  -44.3140    6.5730  -15.7260 C   0  0  1  0  0  0  0  0  0  0  0  0
  -43.3210    7.6860  -15.3690 C   0  0  1  0  0  0  0  0  0  0  0  0
  -42.2340    6.9950  -14.5360 C   0  0  0  0  0  0  0  0  0  0  0  0
  -41.4020    6.1170  -15.4570 C   0  0  2  0  0  0  0  0  0  0  0  0
  -46.8152    5.7580  -17.7378 H   0  0  0  0  0  0  0  0  0  0  0  0
  -47.3018    5.7053  -15.9416 H   0  0  0  0  0  0  0  0  0  0  0  0
  -46.1695    7.6092  -15.6616 H   0  0  0  0  0  0  0  0  0  0  0  0
  -45.3464    9.5775  -18.3407 H   0  0  0  0  0  0  0  0  0  0  0  0
  -45.3270    9.4159  -16.5600 H   0  0  0  0  0  0  0  0  0  0  0  0
  -42.9622    9.4111  -18.3804 H   0  0  0  0  0  0  0  0  0  0  0  0
  -40.9143    8.6418  -17.6979 H   0  0  0  0  0  0  0  0  0  0  0  0
  -40.8315    9.0882  -15.9247 H   0  0  0  0  0  0  0  0  0  0  0  0
  -39.6940    7.2600  -15.8390 H   0  0  0  0  0  0  0  0  0  0  0  0
  -39.9266    6.7987  -18.3822 H   0  0  0  0  0  0  0  0  0  0  0  0
  -39.2931    5.5578  -17.3017 H   0  0  0  0  0  0  0  0  0  0  0  0
  -42.0393    5.8286  -18.5478 H   0  0  0  0  0  0  0  0  0  0  0  0
  -41.1298    4.3472  -18.1935 H   0  0  0  0  0  0  0  0  0  0  0  0
  -40.1908    3.2599  -15.6108 H   0  0  0  0  0  0  0  0  0  0  0  0
  -40.7447    0.8963  -15.0025 H   0  0  0  0  0  0  0  0  0  0  0  0
  -43.0991    0.0879  -15.0966 H   0  0  0  0  0  0  0  0  0  0  0  0
  -44.9427    1.6333  -15.7950 H   0  0  0  0  0  0  0  0  0  0  0  0
  -43.7093    5.9859  -17.6669 H   0  0  0  0  0  0  0  0  0  0  0  0
  -44.5549    6.1964  -14.7210 H   0  0  0  0  0  0  0  0  0  0  0  0
  -43.8408    8.4924  -14.8309 H   0  0  0  0  0  0  0  0  0  0  0  0
  -41.5904    7.7526  -14.0650 H   0  0  0  0  0  0  0  0  0  0  0  0
  -42.6968    6.3816  -13.7489 H   0  0  0  0  0  0  0  0  0  0  0  0
  -40.8538    5.4565  -14.7691 H   0  0  0  0  0  0  0  0  0  0  0  0
  1  2  2  0
  2  3  1  0
  3  4  1  0
  4  5  1  0
  5  6  1  0
  6  7  1  0
  7  8  2  0
  8  9  1  0
  9 10  1  0
 10 11  1  0
 11 12  1  0
 13 12  1  6
 13 14  1  0
 14 15  2  0
 15 16  1  0
 16 17  2  0
 17 18  1  0
 18 19  2  0
 19 20  1  0
 20 21  1  0
 21 22  1  0
 22 23  1  0
 23 24  1  0
 24 25  1  0
 20  2  1  0
 22  4  1  0
 23  8  1  0
 25 10  1  0
 21 13  1  0
 25 13  1  0
 19 14  1  0
  3 26  1  0
  3 27  1  0
  4 28  1  1
  6 29  1  0
  6 30  1  0
  7 31  1  0
  9 32  1  0
  9 33  1  0
 10 34  1  1
 11 35  1  0
 11 36  1  0
 12 37  1  0
 12 38  1  0
 15 39  1  0
 16 40  1  0
 17 41  1  0
 18 42  1  0
 21 43  1  6
 22 44  1  1
 23 45  1  1
 24 46  1  0
 24 47  1  0
 25 48  1  1
M  CHG  1  10   1
M  END
>  <meeko>  (3) 
{"is_sidechain": [false], "free_energy": -8.152, "intermolecular_energy": -9.105, "internal_energy": 0.436}

$$$$
2xys_ligand
     RDKit          3D

 48 54  0  0  0  0  0  0  0  0999 V2000
  -38.9340    2.8230  -15.8170 O   0  0  0  0  0  0  0  0  0  0  0  0
  -39.4570    3.9200  -16.0040 C   0  0  0  0  0  0  0  0  0  0  0  0
  -38.5880    5.1220  -16.4050 C   0  0  0  0  0  0  0  0  0  0  0  0
  -39.2910    6.3320  -17.0760 C   0  0  2  0  0  0  0  0  0  0  0  0
  -39.1960    7.4300  -16.1590 O   0  0  0  0  0  0  0  0  0  0  0  0
  -39.5180    8.6990  -16.7120 C   0  0  0  0  0  0  0  0  0  0  0  0
  -40.9760    8.9540  -16.5350 C   0  0  0  0  0  0  0  0  0  0  0  0
  -41.9530    8.2420  -17.1280 C   0  0  0  0  0  0  0  0  0  0  0  0
  -43.4100    8.5470  -16.8940 C   0  0  0  0  0  0  0  0  0  0  0  0
  -44.2630    7.3210  -16.6440 N   0  0  2  0  0  0  0  0  0  0  0  0
  -44.5710    7.0100  -15.2080 C   0  0  0  0  0  0  0  0  0  0  0  0
  -43.4400    6.1130  -14.7550 C   0  0  0  0  0  0  0  0  0  0  0  0
  -42.9210    5.3880  -16.0230 C   0  0  2  0  0  0  0  0  0  0  0  0
  -43.0940    3.8890  -15.8930 C   0  0  0  0  0  0  0  0  0  0  0  0
  -44.2770    3.1610  -15.8270 C   0  0  0  0  0  0  0  0  0  0  0  0
  -44.2000    1.7740  -15.6810 C   0  0  0  0  0  0  0  0  0  0  0  0
  -42.9580    1.1320  -15.5930 C   0  0  0  0  0  0  0  0  0  0  0  0
  -41.7710    1.8660  -15.6500 C   0  0  0  0  0  0  0  0  0  0  0  0
  -41.8540    3.2390  -15.7940 C   0  0  0  0  0  0  0  0  0  0  0  0
  -40.8140    4.1660  -15.9000 N   0  0  0  0  0  0  0  0  0  0  0  0
  -41.3660    5.4940  -16.1030 C   0  0  1  0  0  0  0  0  0  0  0  0
  -40.7520    5.9990  -17.4080 C   0  0  1  0  0  0  0  0  0  0  0  0
  -41.6300    7.0790  -18.0520 C   0  0  1  0  0  0  0  0  0  0  0  0
  -42.9170    6.3520  -18.4610 C   0  0  0  0  0  0  0  0  0  0  0  0
  -43.7040    6.0170  -17.2050 C   0  0  2  0  0  0  0  0  0  0  0  0
  -38.0986    5.4920  -15.4920 H   0  0  0  0  0  0  0  0  0  0  0  0
  -37.9131    4.7294  -17.1799 H   0  0  0  0  0  0  0  0  0  0  0  0
  -38.8084    6.5894  -18.0304 H   0  0  0  0  0  0  0  0  0  0  0  0
  -38.9422    9.4819  -16.1967 H   0  0  0  0  0  0  0  0  0  0  0  0
  -39.2678    8.7101  -17.7831 H   0  0  0  0  0  0  0  0  0  0  0  0
  -41.2744    9.7812  -15.8741 H   0  0  0  0  0  0  0  0  0  0  0  0
  -43.4888    9.2078  -16.0181 H   0  0  0  0  0  0  0  0  0  0  0  0
  -43.7888    9.0164  -17.8139 H   0  0  0  0  0  0  0  0  0  0  0  0
  -45.1620    7.5140  -17.1080 H   0  0  0  0  0  0  0  0  0  0  0  0
  -44.5977    7.9322  -14.6090 H   0  0  0  0  0  0  0  0  0  0  0  0
  -45.5539    6.5308  -15.0888 H   0  0  0  0  0  0  0  0  0  0  0  0
  -42.6359    6.7131  -14.3040 H   0  0  0  0  0  0  0  0  0  0  0  0
  -43.7814    5.3936  -13.9961 H   0  0  0  0  0  0  0  0  0  0  0  0
  -45.2521    3.6664  -15.8884 H   0  0  0  0  0  0  0  0  0  0  0  0
  -45.1244    1.1795  -15.6346 H   0  0  0  0  0  0  0  0  0  0  0  0
  -42.9171    0.0388  -15.4779 H   0  0  0  0  0  0  0  0  0  0  0  0
  -40.7944    1.3644  -15.5820 H   0  0  0  0  0  0  0  0  0  0  0  0
  -41.1187    6.2454  -15.3387 H   0  0  0  0  0  0  0  0  0  0  0  0
  -40.7240    5.2597  -18.2220 H   0  0  0  0  0  0  0  0  0  0  0  0
  -41.0975    7.5382  -18.8979 H   0  0  0  0  0  0  0  0  0  0  0  0
  -43.5187    7.0021  -19.1131 H   0  0  0  0  0  0  0  0  0  0  0  0
  -42.6704    5.4297  -19.0074 H   0  0  0  0  0  0  0  0  0  0  0  0
  -44.4366    5.2695  -17.5435 H   0  0  0  0  0  0  0  0  0  0  0  0
  1  2  2  0
  2  3  1  0
  3  4  1  0
  4  5  1  0
  5  6  1  0
  6  7  1  0
  7  8  2  0
  8  9  1  0
  9 10  1  0
 10 11  1  0
 11 12  1  0
 13 12  1  1
 13 14  1  0
 14 15  2  0
 15 16  1  0
 16 17  2  0
 17 18  1  0
 18 19  2  0
 19 20  1  0
 20 21  1  0
 21 22  1  0
 22 23  1  0
 23 24  1  0
 24 25  1  0
 20  2  1  0
 22  4  1  0
 23  8  1  0
 25 10  1  0
 21 13  1  0
 25 13  1  0
 19 14  1  0
  3 26  1  0
  3 27  1  0
  4 28  1  6
  6 29  1  0
  6 30  1  0
  7 31  1  0
  9 32  1  0
  9 33  1  0
 10 34  1  6
 11 35  1  0
 11 36  1  0
 12 37  1  0
 12 38  1  0
 15 39  1  0
 16 40  1  0
 17 41  1  0
 18 42  1  0
 21 43  1  1
 22 44  1  6
 23 45  1  6
 24 46  1  0
 24 47  1  0
 25 48  1  6
M  CHG  1  10   1
M  END
>  <meeko>  (4) 
{"is_sidechain": [false], "free_energy": -8.024, "intermolecular_energy": -8.969, "internal_energy": 0.443}

$$$$
2xys_ligand
     RDKit          3D

 48 54  0  0  0  0  0  0  0  0999 V2000
  -40.0550    2.2760  -16.0170 O   0  0  0  0  0  0  0  0  0  0  0  0
  -41.1230    2.8810  -16.0850 C   0  0  0  0  0  0  0  0  0  0  0  0
  -42.4360    2.1550  -15.7520 C   0  0  0  0  0  0  0  0  0  0  0  0
  -43.6720    3.0210  -15.3910 C   0  0  2  0  0  0  0  0  0  0  0  0
  -44.6280    2.8400  -16.4440 O   0  0  0  0  0  0  0  0  0  0  0  0
  -45.9430    3.2850  -16.1390 C   0  0  0  0  0  0  0  0  0  0  0  0
  -46.0470    4.7370  -16.5840 C   0  0  0  0  0  0  0  0  0  0  0  0
  -45.3540    5.7570  -16.0400 C   0  0  0  0  0  0  0  0  0  0  0  0
  -45.5070    7.1720  -16.5350 C   0  0  0  0  0  0  0  0  0  0  0  0
  -44.1940    7.9060  -16.7160 N   0  0  2  0  0  0  0  0  0  0  0  0
  -43.6540    7.9610  -18.1150 C   0  0  0  0  0  0  0  0  0  0  0  0
  -42.7920    6.7250  -18.2470 C   0  0  0  0  0  0  0  0  0  0  0  0
  -42.3030    6.3780  -16.8180 C   0  0  2  0  0  0  0  0  0  0  0  0
  -40.7920    6.4450  -16.7370 C   0  0  0  0  0  0  0  0  0  0  0  0
  -39.9720    7.5610  -16.8640 C   0  0  0  0  0  0  0  0  0  0  0  0
  -38.5890    7.3860  -16.7790 C   0  0  0  0  0  0  0  0  0  0  0  0
  -38.0400    6.1130  -16.5780 C   0  0  0  0  0  0  0  0  0  0  0  0
  -38.8650    4.9930  -16.4580 C   0  0  0  0  0  0  0  0  0  0  0  0
  -40.2330    5.1730  -16.5450 C   0  0  0  0  0  0  0  0  0  0  0  0
  -41.2450    4.2150  -16.4300 N   0  0  0  0  0  0  0  0  0  0  0  0
  -42.5410    4.8640  -16.5230 C   0  0  1  0  0  0  0  0  0  0  0  0
  -43.2770    4.4960  -15.2350 C   0  0  1  0  0  0  0  0  0  0  0  0
  -44.3680    5.5230  -14.9080 C   0  0  1  0  0  0  0  0  0  0  0  0
  -43.6100    6.8180  -14.5880 C   0  0  0  0  0  0  0  0  0  0  0  0
  -43.0350    7.3740  -15.8800 C   0  0  2  0  0  0  0  0  0  0  0  0
  -42.7061    1.5476  -16.6284 H   0  0  0  0  0  0  0  0  0  0  0  0
  -42.2151    1.5921  -14.8331 H   0  0  0  0  0  0  0  0  0  0  0  0
  -44.1031    2.7129  -14.4270 H   0  0  0  0  0  0  0  0  0  0  0  0
  -46.6814    2.6729  -16.6776 H   0  0  0  0  0  0  0  0  0  0  0  0
  -46.1437    3.1938  -15.0613 H   0  0  0  0  0  0  0  0  0  0  0  0
  -46.7369    4.9704  -17.4083 H   0  0  0  0  0  0  0  0  0  0  0  0
  -46.0250    7.1452  -17.5050 H   0  0  0  0  0  0  0  0  0  0  0  0
  -46.0744    7.7185  -15.7673 H   0  0  0  0  0  0  0  0  0  0  0  0
  -44.3820    8.8760  -16.4290 H   0  0  0  0  0  0  0  0  0  0  0  0
  -44.4742    7.9411  -18.8477 H   0  0  0  0  0  0  0  0  0  0  0  0
  -43.0868    8.8842  -18.3045 H   0  0  0  0  0  0  0  0  0  0  0  0
  -43.3809    5.8928  -18.6601 H   0  0  0  0  0  0  0  0  0  0  0  0
  -41.9451    6.9002  -18.9267 H   0  0  0  0  0  0  0  0  0  0  0  0
  -40.4032    8.5596  -17.0278 H   0  0  0  0  0  0  0  0  0  0  0  0
  -37.9237    8.2571  -16.8709 H   0  0  0  0  0  0  0  0  0  0  0  0
  -36.9483    5.9946  -16.5141 H   0  0  0  0  0  0  0  0  0  0  0  0
  -38.4372    3.9923  -16.2982 H   0  0  0  0  0  0  0  0  0  0  0  0
  -43.1897    4.5387  -17.3496 H   0  0  0  0  0  0  0  0  0  0  0  0
  -42.6680    4.5592  -14.3211 H   0  0  0  0  0  0  0  0  0  0  0  0
  -44.9865    5.1580  -14.0748 H   0  0  0  0  0  0  0  0  0  0  0  0
  -44.2994    7.5509  -14.1434 H   0  0  0  0  0  0  0  0  0  0  0  0
  -42.7995    6.6126  -13.8732 H   0  0  0  0  0  0  0  0  0  0  0  0
  -42.2904    8.1098  -15.5422 H   0  0  0  0  0  0  0  0  0  0  0  0
  1  2  2  0
  2  3  1  0
  3  4  1  0
  4  5  1  0
  5  6  1  0
  6  7  1  0
  7  8  2  0
  8  9  1  0
  9 10  1  0
 10 11  1  0
 11 12  1  0
 13 12  1  6
 13 14  1  0
 14 15  2  0
 15 16  1  0
 16 17  2  0
 17 18  1  0
 18 19  2  0
 19 20  1  0
 20 21  1  0
 21 22  1  0
 22 23  1  0
 23 24  1  0
 24 25  1  0
 20  2  1  0
 22  4  1  0
 23  8  1  0
 25 10  1  0
 21 13  1  0
 25 13  1  0
 19 14  1  0
  3 26  1  0
  3 27  1  0
  4 28  1  1
  6 29  1  0
  6 30  1  0
  7 31  1  0
  9 32  1  0
  9 33  1  0
 10 34  1  1
 11 35  1  0
 11 36  1  0
 12 37  1  0
 12 38  1  0
 15 39  1  0
 16 40  1  0
 17 41  1  0
 18 42  1  0
 21 43  1  6
 22 44  1  1
 23 45  1  1
 24 46  1  0
 24 47  1  0
 25 48  1  1
M  CHG  1  10   1
M  END
>  <meeko>  (5) 
{"is_sidechain": [false], "free_energy": -6.599, "intermolecular_energy": -7.349, "internal_energy": 0.414}

$$$$
