3n76_ligand
     RDKit          3D

 39 40  0  0  0  0  0  0  0  0999 V2000
  -37.7060  -62.6970  -52.4320 O   0  0  0  0  0  0  0  0  0  0  0  0
  -37.4680  -61.6160  -51.8030 C   0  0  0  0  0  0  0  0  0  0  0  0
  -36.3800  -61.1600  -51.3540 O   0  0  0  0  0  0  0  0  0  0  0  0
  -38.7680  -60.7520  -51.5640 C   0  0  2  0  0  0  0  0  0  0  0  0
  -38.7350  -59.6020  -52.4440 O   0  0  0  0  0  0  0  0  0  0  0  0
  -38.7730  -60.2010  -50.1620 C   0  0  0  0  0  0  0  0  0  0  0  0
  -39.8640  -60.1620  -49.3740 C   0  0  0  0  0  0  0  0  0  0  0  0
  -39.8070  -59.6880  -47.9970 C   0  0  0  0  0  0  0  0  0  0  0  0
  -40.1140  -60.4280  -46.9180 C   0  0  0  0  0  0  0  0  0  0  0  0
  -40.0960  -59.9110  -45.5130 C   0  0  0  0  0  0  0  0  0  0  0  0
  -39.6040  -60.9510  -44.6690 O   0  0  0  0  0  0  0  0  0  0  0  0
  -38.2470  -61.0350  -44.5110 C   0  0  0  0  0  0  0  0  0  0  0  0
  -37.2830  -60.5010  -45.3650 C   0  0  0  0  0  0  0  0  0  0  0  0
  -35.9230  -60.6640  -45.0790 C   0  0  0  0  0  0  0  0  0  0  0  0
  -35.5230  -61.3620  -43.9400 C   0  0  0  0  0  0  0  0  0  0  0  0
  -36.4830  -61.8970  -43.0840 C   0  0  0  0  0  0  0  0  0  0  0  0
  -37.8390  -61.7340  -43.3710 C   0  0  0  0  0  0  0  0  0  0  0  0
  -41.2250  -60.5850  -49.8950 C   0  0  1  0  0  0  0  0  0  0  0  0
  -42.1880  -59.5560  -49.6020 O   0  0  0  0  0  0  0  0  0  0  0  0
  -41.2670  -60.8870  -51.4180 C   0  0  2  0  0  0  0  0  0  0  0  0
  -42.4070  -61.7090  -51.7330 O   0  0  0  0  0  0  0  0  0  0  0  0
  -40.0000  -61.5920  -51.8890 C   0  0  0  0  0  0  0  0  0  0  0  0
  -38.8910  -60.0270  -53.3260 H   0  0  0  0  0  0  0  0  0  0  0  0
  -37.8289  -59.8070  -49.7579 H   0  0  0  0  0  0  0  0  0  0  0  0
  -39.4894  -58.6484  -47.8285 H   0  0  0  0  0  0  0  0  0  0  0  0
  -40.3961  -61.4792  -47.0770 H   0  0  0  0  0  0  0  0  0  0  0  0
  -39.4372  -59.0326  -45.4464 H   0  0  0  0  0  0  0  0  0  0  0  0
  -41.1078  -59.6117  -45.2020 H   0  0  0  0  0  0  0  0  0  0  0  0
  -37.5922  -59.9503  -46.2656 H   0  0  0  0  0  0  0  0  0  0  0  0
  -35.1663  -60.2398  -45.7554 H   0  0  0  0  0  0  0  0  0  0  0  0
  -34.4532  -61.4897  -43.7182 H   0  0  0  0  0  0  0  0  0  0  0  0
  -36.1728  -62.4470  -42.1833 H   0  0  0  0  0  0  0  0  0  0  0  0
  -38.5941  -62.1596  -42.6937 H   0  0  0  0  0  0  0  0  0  0  0  0
  -41.4623  -61.5291  -49.3827 H   0  0  0  0  0  0  0  0  0  0  0  0
  -42.3880  -59.1450  -50.4620 H   0  0  0  0  0  0  0  0  0  0  0  0
  -41.3437  -59.9215  -51.9394 H   0  0  0  0  0  0  0  0  0  0  0  0
  -42.1900  -62.6110  -51.4430 H   0  0  0  0  0  0  0  0  0  0  0  0
  -39.9181  -62.5653  -51.3831 H   0  0  0  0  0  0  0  0  0  0  0  0
  -40.0562  -61.7340  -52.9783 H   0  0  0  0  0  0  0  0  0  0  0  0
  1  2  2  0
  2  3  1  0
  2  4  1  0
  4  5  1  6
  4  6  1  0
  6  7  2  0
  7  8  1  0
  8  9  2  0
  9 10  1  0
 10 11  1  0
 11 12  1  0
 12 13  2  0
 13 14  1  0
 14 15  2  0
 15 16  1  0
 16 17  2  0
  7 18  1  0
 18 19  1  0
 18 20  1  0
 20 21  1  0
 20 22  1  0
 22  4  1  0
 17 12  1  0
  5 23  1  0
  6 24  1  0
  8 25  1  0
  9 26  1  0
 10 27  1  0
 10 28  1  0
 13 29  1  0
 14 30  1  0
 15 31  1  0
 16 32  1  0
 17 33  1  0
 18 34  1  1
 19 35  1  0
 20 36  1  6
 21 37  1  0
 22 38  1  0
 22 39  1  0
M  CHG  1   3  -1
M  END
>  <meeko>  (1) 
{"is_sidechain": [false], "free_energy": -10.913, "intermolecular_energy": -15.06, "internal_energy": -0.408}

$$$$
3n76_ligand
     RDKit          3D

 39 40  0  0  0  0  0  0  0  0999 V2000
  -39.1660  -62.4630  -52.8500 O   0  0  0  0  0  0  0  0  0  0  0  0
  -38.3450  -61.8220  -52.1180 C   0  0  0  0  0  0  0  0  0  0  0  0
  -37.1110  -62.0070  -51.9270 O   0  0  0  0  0  0  0  0  0  0  0  0
  -39.0260  -60.6260  -51.3430 C   0  0  2  0  0  0  0  0  0  0  0  0
  -38.8510  -59.4110  -52.1110 O   0  0  0  0  0  0  0  0  0  0  0  0
  -38.3230  -60.3930  -50.0310 C   0  0  0  0  0  0  0  0  0  0  0  0
  -38.9600  -60.1340  -48.8740 C   0  0  0  0  0  0  0  0  0  0  0  0
  -38.2440  -59.9880  -47.6130 C   0  0  0  0  0  0  0  0  0  0  0  0
  -37.1250  -60.6560  -47.2850 C   0  0  0  0  0  0  0  0  0  0  0  0
  -36.4280  -60.5300  -45.9660 C   0  0  0  0  0  0  0  0  0  0  0  0
  -37.2800  -59.7970  -45.0880 O   0  0  0  0  0  0  0  0  0  0  0  0
  -37.9350  -60.5060  -44.1180 C   0  0  0  0  0  0  0  0  0  0  0  0
  -37.3870  -60.9680  -42.9220 C   0  0  0  0  0  0  0  0  0  0  0  0
  -38.1780  -61.6840  -42.0160 C   0  0  0  0  0  0  0  0  0  0  0  0
  -39.5170  -61.9420  -42.3040 C   0  0  0  0  0  0  0  0  0  0  0  0
  -40.0700  -61.4830  -43.4980 C   0  0  0  0  0  0  0  0  0  0  0  0
  -39.2790  -60.7690  -44.4000 C   0  0  0  0  0  0  0  0  0  0  0  0
  -40.4660  -59.9490  -48.8290 C   0  0  1  0  0  0  0  0  0  0  0  0
  -40.7760  -58.7300  -48.1320 O   0  0  0  0  0  0  0  0  0  0  0  0
  -41.1520  -59.9150  -50.2230 C   0  0  2  0  0  0  0  0  0  0  0  0
  -42.5550  -60.2130  -50.0960 O   0  0  0  0  0  0  0  0  0  0  0  0
  -40.5180  -60.9080  -51.1900 C   0  0  0  0  0  0  0  0  0  0  0  0
  -39.5930  -58.8520  -51.7650 H   0  0  0  0  0  0  0  0  0  0  0  0
  -37.2240  -60.4372  -50.0179 H   0  0  0  0  0  0  0  0  0  0  0  0
  -38.6492  -59.2792  -46.8758 H   0  0  0  0  0  0  0  0  0  0  0  0
  -36.6941  -61.3382  -48.0326 H   0  0  0  0  0  0  0  0  0  0  0  0
  -36.2329  -61.5292  -45.5495 H   0  0  0  0  0  0  0  0  0  0  0  0
  -35.4664  -60.0103  -46.0890 H   0  0  0  0  0  0  0  0  0  0  0  0
  -36.3303  -60.7693  -42.6899 H   0  0  0  0  0  0  0  0  0  0  0  0
  -37.7411  -62.0445  -41.0730 H   0  0  0  0  0  0  0  0  0  0  0  0
  -40.1357  -62.5064  -41.5908 H   0  0  0  0  0  0  0  0  0  0  0  0
  -41.1267  -61.6827  -43.7291 H   0  0  0  0  0  0  0  0  0  0  0  0
  -39.7177  -60.4095  -45.3425 H   0  0  0  0  0  0  0  0  0  0  0  0
  -40.8619  -60.8325  -48.3068 H   0  0  0  0  0  0  0  0  0  0  0  0
  -41.1170  -59.0140  -47.2650 H   0  0  0  0  0  0  0  0  0  0  0  0
  -41.0173  -58.9008  -50.6271 H   0  0  0  0  0  0  0  0  0  0  0  0
  -42.6500  -60.7850  -49.3150 H   0  0  0  0  0  0  0  0  0  0  0  0
  -40.6558  -61.9285  -50.8032 H   0  0  0  0  0  0  0  0  0  0  0  0
  -41.0020  -60.8066  -52.1726 H   0  0  0  0  0  0  0  0  0  0  0  0
  1  2  2  0
  2  3  1  0
  2  4  1  0
  4  5  1  6
  4  6  1  0
  6  7  2  0
  7  8  1  0
  8  9  2  0
  9 10  1  0
 10 11  1  0
 11 12  1  0
 12 13  2  0
 13 14  1  0
 14 15  2  0
 15 16  1  0
 16 17  2  0
  7 18  1  0
 18 19  1  0
 18 20  1  0
 20 21  1  0
 20 22  1  0
 22  4  1  0
 17 12  1  0
  5 23  1  0
  6 24  1  0
  8 25  1  0
  9 26  1  0
 10 27  1  0
 10 28  1  0
 13 29  1  0
 14 30  1  0
 15 31  1  0
 16 32  1  0
 17 33  1  0
 18 34  1  1
 19 35  1  0
 20 36  1  6
 21 37  1  0
 22 38  1  0
 22 39  1  0
M  CHG  1   3  -1
M  END
>  <meeko>  (2) 
{"is_sidechain": [false], "free_energy": -8.978, "intermolecular_energy": -12.288, "internal_energy": -0.509}

$$$$
3n76_ligand
     RDKit          3D

 39 40  0  0  0  0  0  0  0  0999 V2000
  -42.3340  -59.9580  -50.8480 O   0  0  0  0  0  0  0  0  0  0  0  0
  -41.9370  -60.9940  -51.4720 C   0  0  0  0  0  0  0  0  0  0  0  0
  -42.5520  -61.7340  -52.2890 O   0  0  0  0  0  0  0  0  0  0  0  0
  -40.4440  -61.3760  -51.1310 C   0  0  2  0  0  0  0  0  0  0  0  0
  -40.3320  -62.8190  -51.0680 O   0  0  0  0  0  0  0  0  0  0  0  0
  -40.0810  -60.8710  -49.7590 C   0  0  0  0  0  0  0  0  0  0  0  0
  -38.9020  -60.2930  -49.4590 C   0  0  0  0  0  0  0  0  0  0  0  0
  -38.6220  -59.7520  -48.1350 C   0  0  0  0  0  0  0  0  0  0  0  0
  -39.2420  -60.1310  -47.0050 C   0  0  0  0  0  0  0  0  0  0  0  0
  -38.9760  -59.5310  -45.6600 C   0  0  0  0  0  0  0  0  0  0  0  0
  -39.0690  -60.5710  -44.6890 O   0  0  0  0  0  0  0  0  0  0  0  0
  -37.8950  -61.0770  -44.2010 C   0  0  0  0  0  0  0  0  0  0  0  0
  -37.7490  -61.8720  -43.0650 C   0  0  0  0  0  0  0  0  0  0  0  0
  -36.4800  -62.3220  -42.6810 C   0  0  0  0  0  0  0  0  0  0  0  0
  -35.3560  -61.9780  -43.4290 C   0  0  0  0  0  0  0  0  0  0  0  0
  -35.4960  -61.1830  -44.5650 C   0  0  0  0  0  0  0  0  0  0  0  0
  -36.7620  -60.7350  -44.9460 C   0  0  0  0  0  0  0  0  0  0  0  0
  -37.7880  -60.2010  -50.4850 C   0  0  1  0  0  0  0  0  0  0  0  0
  -36.5680  -60.7000  -49.9090 O   0  0  0  0  0  0  0  0  0  0  0  0
  -38.0650  -60.9680  -51.8080 C   0  0  2  0  0  0  0  0  0  0  0  0
  -37.2270  -60.4610  -52.8640 O   0  0  0  0  0  0  0  0  0  0  0  0
  -39.5250  -60.8540  -52.2320 C   0  0  0  0  0  0  0  0  0  0  0  0
  -41.2850  -63.0870  -51.0160 H   0  0  0  0  0  0  0  0  0  0  0  0
  -40.8229  -60.9808  -48.9543 H   0  0  0  0  0  0  0  0  0  0  0  0
  -37.8461  -58.9764  -48.0550 H   0  0  0  0  0  0  0  0  0  0  0  0
  -39.9922  -60.9326  -47.0726 H   0  0  0  0  0  0  0  0  0  0  0  0
  -37.9683  -59.0904  -45.6402 H   0  0  0  0  0  0  0  0  0  0  0  0
  -39.7072  -58.7383  -45.4431 H   0  0  0  0  0  0  0  0  0  0  0  0
  -38.6323  -62.1461  -42.4694 H   0  0  0  0  0  0  0  0  0  0  0  0
  -36.3699  -62.9500  -41.7846 H   0  0  0  0  0  0  0  0  0  0  0  0
  -34.3606  -62.3330  -43.1237 H   0  0  0  0  0  0  0  0  0  0  0  0
  -34.6118  -60.9094  -45.1595 H   0  0  0  0  0  0  0  0  0  0  0  0
  -36.8696  -60.1061  -45.8420 H   0  0  0  0  0  0  0  0  0  0  0  0
  -37.7120  -59.1364  -50.7513 H   0  0  0  0  0  0  0  0  0  0  0  0
  -35.8560  -60.2340  -50.3820 H   0  0  0  0  0  0  0  0  0  0  0  0
  -37.8374  -62.0283  -51.6236 H   0  0  0  0  0  0  0  0  0  0  0  0
  -36.4870  -59.9980  -52.4350 H   0  0  0  0  0  0  0  0  0  0  0  0
  -39.7626  -59.7987  -52.4317 H   0  0  0  0  0  0  0  0  0  0  0  0
  -39.6798  -61.4560  -53.1396 H   0  0  0  0  0  0  0  0  0  0  0  0
  1  2  2  0
  2  3  1  0
  2  4  1  0
  4  5  1  1
  4  6  1  0
  6  7  2  0
  7  8  1  0
  8  9  2  0
  9 10  1  0
 10 11  1  0
 11 12  1  0
 12 13  2  0
 13 14  1  0
 14 15  2  0
 15 16  1  0
 16 17  2  0
  7 18  1  0
 18 19  1  0
 18 20  1  0
 20 21  1  0
 20 22  1  0
 22  4  1  0
 17 12  1  0
  5 23  1  0
  6 24  1  0
  8 25  1  0
  9 26  1  0
 10 27  1  0
 10 28  1  0
 13 29  1  0
 14 30  1  0
 15 31  1  0
 16 32  1  0
 17 33  1  0
 18 34  1  6
 19 35  1  0
 20 36  1  1
 21 37  1  0
 22 38  1  0
 22 39  1  0
M  CHG  1   3  -1
M  END
>  <meeko>  (3) 
{"is_sidechain": [false], "free_energy": -8.921, "intermolecular_energy": -12.313, "internal_energy": -0.405}

$$$$
3n76_ligand
     RDKit          3D

 39 40  0  0  0  0  0  0  0  0999 V2000
  -40.5840  -62.0500  -44.3140 O   0  0  0  0  0  0  0  0  0  0  0  0
  -40.0590  -61.7970  -43.1820 C   0  0  0  0  0  0  0  0  0  0  0  0
  -40.4840  -62.0350  -42.0180 O   0  0  0  0  0  0  0  0  0  0  0  0
  -38.6660  -61.0640  -43.3070 C   0  0  2  0  0  0  0  0  0  0  0  0
  -38.6620  -59.9110  -42.4300 O   0  0  0  0  0  0  0  0  0  0  0  0
  -38.4880  -60.5250  -44.7030 C   0  0  0  0  0  0  0  0  0  0  0  0
  -37.3350  -60.5960  -45.3950 C   0  0  0  0  0  0  0  0  0  0  0  0
  -37.2290  -60.1270  -46.7700 C   0  0  0  0  0  0  0  0  0  0  0  0
  -38.2740  -59.8610  -47.5730 C   0  0  0  0  0  0  0  0  0  0  0  0
  -38.1480  -59.4270  -49.0000 C   0  0  0  0  0  0  0  0  0  0  0  0
  -38.2840  -60.5820  -49.8240 O   0  0  0  0  0  0  0  0  0  0  0  0
  -39.4800  -60.7540  -50.4660 C   0  0  0  0  0  0  0  0  0  0  0  0
  -40.6940  -60.1640  -50.1160 C   0  0  0  0  0  0  0  0  0  0  0  0
  -41.8460  -60.4280  -50.8660 C   0  0  0  0  0  0  0  0  0  0  0  0
  -41.7880  -61.2840  -51.9650 C   0  0  0  0  0  0  0  0  0  0  0  0
  -40.5770  -61.8760  -52.3190 C   0  0  0  0  0  0  0  0  0  0  0  0
  -39.4290  -61.6100  -51.5690 C   0  0  0  0  0  0  0  0  0  0  0  0
  -36.0710  -61.1450  -44.7610 C   0  0  1  0  0  0  0  0  0  0  0  0
  -34.9920  -60.2170  -44.9680 O   0  0  0  0  0  0  0  0  0  0  0  0
  -36.1890  -61.4410  -43.2400 C   0  0  2  0  0  0  0  0  0  0  0  0
  -35.1640  -62.3670  -42.8310 O   0  0  0  0  0  0  0  0  0  0  0  0
  -37.5530  -62.0180  -42.8800 C   0  0  0  0  0  0  0  0  0  0  0  0
  -38.7320  -59.1690  -43.0830 H   0  0  0  0  0  0  0  0  0  0  0  0
  -39.3519  -60.0447  -45.1857 H   0  0  0  0  0  0  0  0  0  0  0  0
  -36.2196  -59.9796  -47.1817 H   0  0  0  0  0  0  0  0  0  0  0  0
  -39.2857  -59.9692  -47.1548 H   0  0  0  0  0  0  0  0  0  0  0  0
  -38.9386  -58.7011  -49.2409 H   0  0  0  0  0  0  0  0  0  0  0  0
  -37.1721  -58.9486  -49.1697 H   0  0  0  0  0  0  0  0  0  0  0  0
  -40.7465  -59.4896  -49.2486 H   0  0  0  0  0  0  0  0  0  0  0  0
  -42.8008  -59.9583  -50.5872 H   0  0  0  0  0  0  0  0  0  0  0  0
  -42.6955  -61.4915  -52.5510 H   0  0  0  0  0  0  0  0  0  0  0  0
  -40.5254  -62.5506  -53.1863 H   0  0  0  0  0  0  0  0  0  0  0  0
  -38.4747  -62.0795  -51.8498 H   0  0  0  0  0  0  0  0  0  0  0  0
  -35.8831  -62.1104  -45.2537 H   0  0  0  0  0  0  0  0  0  0  0  0
  -35.3970  -59.4540  -45.4170 H   0  0  0  0  0  0  0  0  0  0  0  0
  -36.0652  -60.4841  -42.7118 H   0  0  0  0  0  0  0  0  0  0  0  0
  -35.5740  -62.9700  -42.1870 H   0  0  0  0  0  0  0  0  0  0  0  0
  -37.6854  -62.9818  -43.3934 H   0  0  0  0  0  0  0  0  0  0  0  0
  -37.6036  -62.1591  -41.7903 H   0  0  0  0  0  0  0  0  0  0  0  0
  1  2  2  0
  2  3  1  0
  2  4  1  0
  4  5  1  1
  4  6  1  0
  6  7  2  0
  7  8  1  0
  8  9  2  0
  9 10  1  0
 10 11  1  0
 11 12  1  0
 12 13  2  0
 13 14  1  0
 14 15  2  0
 15 16  1  0
 16 17  2  0
  7 18  1  0
 18 19  1  0
 18 20  1  0
 20 21  1  0
 20 22  1  0
 22  4  1  0
 17 12  1  0
  5 23  1  0
  6 24  1  0
  8 25  1  0
  9 26  1  0
 10 27  1  0
 10 28  1  0
 13 29  1  0
 14 30  1  0
 15 31  1  0
 16 32  1  0
 17 33  1  0
 18 34  1  6
 19 35  1  0
 20 36  1  1
 21 37  1  0
 22 38  1  0
 22 39  1  0
M  CHG  1   3  -1
M  END
>  <meeko>  (4) 
{"is_sidechain": [false], "free_energy": -8.016, "intermolecular_energy": -11.008, "internal_energy": -0.461}

$$$$
