2xb8_ligand
     RDKit          3D

 39 40  0  0  0  0  0  0  0  0999 V2000
   19.7410    1.6270   35.9610 C   0  0  0  0  0  0  0  0  0  0  0  0
   19.5770    2.0780   37.2980 O   0  0  0  0  0  0  0  0  0  0  0  0
   18.3060    2.4210   37.6750 C   0  0  0  0  0  0  0  0  0  0  0  0
   17.2530    2.7330   36.8160 C   0  0  0  0  0  0  0  0  0  0  0  0
   15.9990    3.0700   37.3340 C   0  0  0  0  0  0  0  0  0  0  0  0
   15.7820    3.1050   38.7170 C   0  0  0  0  0  0  0  0  0  0  0  0
   14.4180    3.4500   39.2680 C   0  0  0  0  0  0  0  0  0  0  0  0
   13.3920    2.3140   39.0600 C   0  0  1  0  0  0  0  0  0  0  0  0
   12.9430    1.8370   40.4410 C   0  0  0  0  0  0  0  0  0  0  0  0
   13.6930    1.1770   41.1730 O   0  0  0  0  0  0  0  0  0  0  0  0
   11.5970    2.3200   40.9740 C   0  0  1  0  0  0  0  0  0  0  0  0
   11.6710    2.4710   42.4050 O   0  0  0  0  0  0  0  0  0  0  0  0
   11.2790    3.6850   40.3740 C   0  0  2  0  0  0  0  0  0  0  0  0
   10.0720    4.2110   40.9440 O   0  0  0  0  0  0  0  0  0  0  0  0
   11.1640    3.6460   38.8550 C   0  0  0  0  0  0  0  0  0  0  0  0
   12.1990    2.7330   38.1800 C   0  0  1  0  0  0  0  0  0  0  0  0
   12.6800    3.4180   36.9880 O   0  0  0  0  0  0  0  0  0  0  0  0
   11.4720    1.4210   37.7030 C   0  0  0  0  0  0  0  0  0  0  0  0
   10.5500    0.9970   38.4460 O   0  0  0  0  0  0  0  0  0  0  0  0
   11.9360    0.9670   36.6130 O   0  0  0  0  0  0  0  0  0  0  0  0
   16.8380    2.7800   39.5750 C   0  0  0  0  0  0  0  0  0  0  0  0
   18.0910    2.4480   39.0550 C   0  0  0  0  0  0  0  0  0  0  0  0
   20.1169    0.5932   35.9663 H   0  0  0  0  0  0  0  0  0  0  0  0
   18.7725    1.6623   35.4407 H   0  0  0  0  0  0  0  0  0  0  0  0
   20.4606    2.2762   35.4407 H   0  0  0  0  0  0  0  0  0  0  0  0
   17.4094    2.7139   35.7273 H   0  0  0  0  0  0  0  0  0  0  0  0
   15.1737    3.3103   36.6477 H   0  0  0  0  0  0  0  0  0  0  0  0
   14.5125    3.6472   40.3461 H   0  0  0  0  0  0  0  0  0  0  0  0
   14.0522    4.3345   38.7259 H   0  0  0  0  0  0  0  0  0  0  0  0
   13.8699    1.4915   38.5077 H   0  0  0  0  0  0  0  0  0  0  0  0
   10.8210    1.5880   40.7059 H   0  0  0  0  0  0  0  0  0  0  0  0
   12.2560    1.7380   42.6880 H   0  0  0  0  0  0  0  0  0  0  0  0
   12.1233    4.3459   40.6196 H   0  0  0  0  0  0  0  0  0  0  0  0
    9.8470    4.9760   40.3780 H   0  0  0  0  0  0  0  0  0  0  0  0
   10.1587    3.2850   38.5921 H   0  0  0  0  0  0  0  0  0  0  0  0
   11.3516    4.6674   38.4923 H   0  0  0  0  0  0  0  0  0  0  0  0
   13.5730    3.0040   36.8570 H   0  0  0  0  0  0  0  0  0  0  0  0
   16.6809    2.7859   40.6637 H   0  0  0  0  0  0  0  0  0  0  0  0
   18.9173    2.2052   39.7393 H   0  0  0  0  0  0  0  0  0  0  0  0
  1  2  1  0
  2  3  1  0
  3  4  2  0
  4  5  1  0
  5  6  2  0
  6  7  1  0
  7  8  1  0
  8  9  1  0
  9 10  2  0
  9 11  1  0
 11 12  1  0
 11 13  1  0
 13 14  1  0
 13 15  1  0
 15 16  1  0
 16 17  1  6
 16 18  1  0
 18 19  2  0
 18 20  1  0
  6 21  1  0
 21 22  2  0
 22  3  1  0
 16  8  1  0
  1 23  1  0
  1 24  1  0
  1 25  1  0
  4 26  1  0
  5 27  1  0
  7 28  1  0
  7 29  1  0
  8 30  1  6
 11 31  1  1
 12 32  1  0
 13 33  1  6
 14 34  1  0
 15 35  1  0
 15 36  1  0
 17 37  1  0
 21 38  1  0
 22 39  1  0
M  CHG  1  20  -1
M  END
>  <meeko>  (1) 
{"is_sidechain": [false], "free_energy": -10.268, "intermolecular_energy": -13.57, "internal_energy": -0.241}

$$$$
