4ivc_ligand
     RDKit          3D

 45 48  0  0  0  0  0  0  0  0999 V2000
   10.6120   57.1830   -1.5500 C   0  0  0  0  0  0  0  0  0  0  0  0
    9.6460   56.6410   -0.5150 C   0  0  1  0  0  0  0  0  0  0  0  0
   10.2730   56.4780    0.7430 O   0  0  0  0  0  0  0  0  0  0  0  0
    8.3720   57.4260   -0.3670 C   0  0  0  0  0  0  0  0  0  0  0  0
    8.3100   58.6540   -0.8710 N   0  0  0  0  0  0  0  0  0  0  0  0
    7.1170   59.1800   -0.4830 C   0  0  0  0  0  0  0  0  0  0  0  0
    6.5440   60.4450   -0.7050 C   0  0  0  0  0  0  0  0  0  0  0  0
    5.3340   60.8100   -0.1860 N   0  0  0  0  0  0  0  0  0  0  0  0
    4.7430   59.8700    0.5690 C   0  0  0  0  0  0  0  0  0  0  0  0
    3.5520   59.9820    1.2290 N   0  0  0  0  0  0  0  0  0  0  0  0
    3.3000   58.8190    1.9240 C   0  0  0  0  0  0  0  0  0  0  0  0
    4.3430   57.9360    1.7010 C   0  0  0  0  0  0  0  0  0  0  0  0
    5.2350   58.6090    0.8260 C   0  0  0  0  0  0  0  0  0  0  0  0
    6.4330   58.2500    0.2710 C   0  0  0  0  0  0  0  0  0  0  0  0
    7.1690   57.1000    0.2770 N   0  0  0  0  0  0  0  0  0  0  0  0
    6.7170   55.8240    0.8280 C   0  0  2  0  0  0  0  0  0  0  0  0
    7.0070   55.6810    2.3290 C   0  0  0  0  0  0  0  0  0  0  0  0
    6.5410   54.3180    2.8300 C   0  0  0  0  0  0  0  0  0  0  0  0
    7.3050   53.1530    2.1690 C   0  0  1  0  0  0  0  0  0  0  0  0
    6.4180   51.8920    2.1500 C   0  0  0  0  0  0  0  0  0  0  0  0
    5.1110   52.1440    1.5220 C   0  0  0  0  0  0  0  0  0  0  0  0
    4.0820   52.3420    1.0240 N   0  0  0  0  0  0  0  0  0  0  0  0
    7.8450   53.5210    0.7700 C   0  0  0  0  0  0  0  0  0  0  0  0
    6.9740   54.5310    0.0250 C   0  0  0  0  0  0  0  0  0  0  0  0
   11.4631   57.6606   -1.0426 H   0  0  0  0  0  0  0  0  0  0  0  0
   10.9764   56.3576   -2.1792 H   0  0  0  0  0  0  0  0  0  0  0  0
   10.0974   57.9241   -2.1792 H   0  0  0  0  0  0  0  0  0  0  0  0
    9.3462   55.6579   -0.9069 H   0  0  0  0  0  0  0  0  0  0  0  0
   11.2310   56.4780    0.5800 H   0  0  0  0  0  0  0  0  0  0  0  0
    7.0931   61.1711   -1.3225 H   0  0  0  0  0  0  0  0  0  0  0  0
    2.9740   60.8100    1.2080 H   0  0  0  0  0  0  0  0  0  0  0  0
    2.4175   58.6246    2.5512 H   0  0  0  0  0  0  0  0  0  0  0  0
    4.4566   56.9235    2.1157 H   0  0  0  0  0  0  0  0  0  0  0  0
    5.6290   55.9185    0.6964 H   0  0  0  0  0  0  0  0  0  0  0  0
    8.0890   55.7804    2.5007 H   0  0  0  0  0  0  0  0  0  0  0  0
    6.4653   56.4675    2.8749 H   0  0  0  0  0  0  0  0  0  0  0  0
    6.6968   54.2699    3.9178 H   0  0  0  0  0  0  0  0  0  0  0  0
    5.4778   54.2115    2.5686 H   0  0  0  0  0  0  0  0  0  0  0  0
    8.1970   52.9353    2.7748 H   0  0  0  0  0  0  0  0  0  0  0  0
    6.9361   51.1023    1.5861 H   0  0  0  0  0  0  0  0  0  0  0  0
    6.2401   51.5872    3.1919 H   0  0  0  0  0  0  0  0  0  0  0  0
    8.8514   53.9492    0.8872 H   0  0  0  0  0  0  0  0  0  0  0  0
    7.8506   52.5972    0.1729 H   0  0  0  0  0  0  0  0  0  0  0  0
    7.4766   54.7984   -0.9162 H   0  0  0  0  0  0  0  0  0  0  0  0
    5.9976   54.0548   -0.1477 H   0  0  0  0  0  0  0  0  0  0  0  0
  1  2  1  0
  2  3  1  0
  2  4  1  0
  4  5  2  0
  5  6  1  0
  6  7  2  0
  7  8  1  0
  8  9  2  0
  9 10  1  0
 10 11  1  0
 11 12  2  0
 12 13  1  0
 13 14  2  0
 14 15  1  0
 15 16  1  0
 16 17  1  0
 17 18  1  0
 18 19  1  0
 19 20  1  0
 20 21  1  0
 21 22  3  0
 19 23  1  0
 23 24  1  0
 15  4  1  0
 24 16  1  0
 14  6  1  0
 13  9  1  0
  1 25  1  0
  1 26  1  0
  1 27  1  0
  2 28  1  6
  3 29  1  0
  7 30  1  0
 10 31  1  0
 11 32  1  0
 12 33  1  0
 16 34  1  6
 17 35  1  0
 17 36  1  0
 18 37  1  0
 18 38  1  0
 19 39  1  6
 20 40  1  0
 20 41  1  0
 23 42  1  0
 23 43  1  0
 24 44  1  0
 24 45  1  0
M  END
>  <meeko>  (1) 
{"is_sidechain": [false], "free_energy": -9.279, "intermolecular_energy": -11.177, "internal_energy": -0.843}

$$$$
4ivc_ligand
     RDKit          3D

 45 48  0  0  0  0  0  0  0  0999 V2000
   10.4230   52.6460   -0.1850 C   0  0  0  0  0  0  0  0  0  0  0  0
   10.2010   53.7250    0.8570 C   0  0  1  0  0  0  0  0  0  0  0  0
   11.4250   54.1740    1.4060 O   0  0  0  0  0  0  0  0  0  0  0  0
    9.3760   54.8930    0.3910 C   0  0  0  0  0  0  0  0  0  0  0  0
    9.9780   55.8950   -0.2410 N   0  0  0  0  0  0  0  0  0  0  0  0
    9.0410   56.8630   -0.4260 C   0  0  0  0  0  0  0  0  0  0  0  0
    9.1290   58.1410   -1.0080 C   0  0  0  0  0  0  0  0  0  0  0  0
    8.0710   59.0030   -1.0610 N   0  0  0  0  0  0  0  0  0  0  0  0
    6.9440   58.5420   -0.4950 C   0  0  0  0  0  0  0  0  0  0  0  0
    5.7560   59.2060   -0.3810 N   0  0  0  0  0  0  0  0  0  0  0  0
    4.8490   58.4160    0.2920 C   0  0  0  0  0  0  0  0  0  0  0  0
    5.4610   57.2150    0.6100 C   0  0  0  0  0  0  0  0  0  0  0  0
    6.7770   57.3040    0.0870 C   0  0  0  0  0  0  0  0  0  0  0  0
    7.8390   56.4410    0.1010 C   0  0  0  0  0  0  0  0  0  0  0  0
    8.0060   55.1590    0.5380 N   0  0  0  0  0  0  0  0  0  0  0  0
    6.9300   54.2920    1.0140 C   0  0  2  0  0  0  0  0  0  0  0  0
    6.5710   54.5340    2.4870 C   0  0  0  0  0  0  0  0  0  0  0  0
    5.4670   53.5780    2.9270 C   0  0  0  0  0  0  0  0  0  0  0  0
    5.9060   52.1010    2.8660 C   0  0  1  0  0  0  0  0  0  0  0  0
    4.6750   51.2010    2.6420 C   0  0  0  0  0  0  0  0  0  0  0  0
    3.9690   51.5270    1.3930 C   0  0  0  0  0  0  0  0  0  0  0  0
    3.4140   51.7840    0.4060 N   0  0  0  0  0  0  0  0  0  0  0  0
    7.0170   51.8590    1.8210 C   0  0  0  0  0  0  0  0  0  0  0  0
    6.9410   52.8010    0.6200 C   0  0  0  0  0  0  0  0  0  0  0  0
   10.6203   51.6870    0.3165 H   0  0  0  0  0  0  0  0  0  0  0  0
    9.5252   52.5531   -0.8137 H   0  0  0  0  0  0  0  0  0  0  0  0
   11.2846   52.9151   -0.8137 H   0  0  0  0  0  0  0  0  0  0  0  0
    9.6054   53.2332    1.6402 H   0  0  0  0  0  0  0  0  0  0  0  0
   11.8720   54.6850    0.7110 H   0  0  0  0  0  0  0  0  0  0  0  0
   10.0901   58.4591   -1.4383 H   0  0  0  0  0  0  0  0  0  0  0  0
    5.5990   60.1400   -0.7300 H   0  0  0  0  0  0  0  0  0  0  0  0
    3.8127   58.6930    0.5357 H   0  0  0  0  0  0  0  0  0  0  0  0
    5.0187   56.3680    1.1549 H   0  0  0  0  0  0  0  0  0  0  0  0
    6.0939   54.6464    0.3933 H   0  0  0  0  0  0  0  0  0  0  0  0
    7.4628   54.3695    3.1096 H   0  0  0  0  0  0  0  0  0  0  0  0
    6.2157   55.5685    2.6033 H   0  0  0  0  0  0  0  0  0  0  0  0
    5.1832   53.8192    3.9620 H   0  0  0  0  0  0  0  0  0  0  0  0
    4.6206   53.7040    2.2358 H   0  0  0  0  0  0  0  0  0  0  0  0
    6.3559   51.8325    3.8332 H   0  0  0  0  0  0  0  0  0  0  0  0
    5.0055   50.1527    2.5990 H   0  0  0  0  0  0  0  0  0  0  0  0
    3.9786   51.3668    3.4771 H   0  0  0  0  0  0  0  0  0  0  0  0
    7.9920   51.9979    2.3111 H   0  0  0  0  0  0  0  0  0  0  0  0
    6.8837   50.8363    1.4385 H   0  0  0  0  0  0  0  0  0  0  0  0
    7.8133   52.6165   -0.0242 H   0  0  0  0  0  0  0  0  0  0  0  0
    5.9926   52.5937    0.1028 H   0  0  0  0  0  0  0  0  0  0  0  0
  1  2  1  0
  2  3  1  0
  2  4  1  0
  4  5  2  0
  5  6  1  0
  6  7  2  0
  7  8  1  0
  8  9  2  0
  9 10  1  0
 10 11  1  0
 11 12  2  0
 12 13  1  0
 13 14  2  0
 14 15  1  0
 15 16  1  0
 16 17  1  0
 17 18  1  0
 18 19  1  0
 19 20  1  0
 20 21  1  0
 21 22  3  0
 19 23  1  0
 23 24  1  0
 15  4  1  0
 24 16  1  0
 14  6  1  0
 13  9  1  0
  1 25  1  0
  1 26  1  0
  1 27  1  0
  2 28  1  1
  3 29  1  0
  7 30  1  0
 10 31  1  0
 11 32  1  0
 12 33  1  0
 16 34  1  1
 17 35  1  0
 17 36  1  0
 18 37  1  0
 18 38  1  0
 19 39  1  6
 20 40  1  0
 20 41  1  0
 23 42  1  0
 23 43  1  0
 24 44  1  0
 24 45  1  0
M  END
>  <meeko>  (2) 
{"is_sidechain": [false], "free_energy": -8.164, "intermolecular_energy": -9.994, "internal_energy": -0.683}

$$$$
4ivc_ligand
     RDKit          3D

 45 48  0  0  0  0  0  0  0  0999 V2000
    2.2730   55.9200    2.2380 C   0  0  0  0  0  0  0  0  0  0  0  0
    3.7580   55.6200    2.1670 C   0  0  1  0  0  0  0  0  0  0  0  0
    4.0070   54.4010    1.4910 O   0  0  0  0  0  0  0  0  0  0  0  0
    4.5980   56.7220    1.5840 C   0  0  0  0  0  0  0  0  0  0  0  0
    4.0720   57.9360    1.4610 N   0  0  0  0  0  0  0  0  0  0  0  0
    4.9820   58.6930    0.7910 C   0  0  0  0  0  0  0  0  0  0  0  0
    4.9400   60.0330    0.3640 C   0  0  0  0  0  0  0  0  0  0  0  0
    5.9510   60.6140   -0.3480 N   0  0  0  0  0  0  0  0  0  0  0  0
    6.9810   59.7980   -0.6250 C   0  0  0  0  0  0  0  0  0  0  0  0
    8.0990   60.1090   -1.3450 N   0  0  0  0  0  0  0  0  0  0  0  0
    8.9080   58.9970   -1.4430 C   0  0  0  0  0  0  0  0  0  0  0  0
    8.3050   57.9510   -0.7650 C   0  0  0  0  0  0  0  0  0  0  0  0
    7.0980   58.4800   -0.2380 C   0  0  0  0  0  0  0  0  0  0  0  0
    6.0910   57.9260    0.5030 C   0  0  0  0  0  0  0  0  0  0  0  0
    5.9070   56.7020    1.0790 N   0  0  0  0  0  0  0  0  0  0  0  0
    6.9220   55.6520    1.1480 C   0  0  2  0  0  0  0  0  0  0  0  0
    6.8170   54.6400   -0.0020 C   0  0  0  0  0  0  0  0  0  0  0  0
    7.8800   53.5560    0.1480 C   0  0  0  0  0  0  0  0  0  0  0  0
    7.6920   52.7180    1.4280 C   0  0  1  0  0  0  0  0  0  0  0  0
    9.0530   52.1590    1.8890 C   0  0  0  0  0  0  0  0  0  0  0  0
   10.1620   53.0760    1.5830 C   0  0  0  0  0  0  0  0  0  0  0  0
   11.0360   53.8010    1.3430 N   0  0  0  0  0  0  0  0  0  0  0  0
    6.9630   53.5000    2.5430 C   0  0  0  0  0  0  0  0  0  0  0  0
    7.2340   55.0030    2.5130 C   0  0  0  0  0  0  0  0  0  0  0  0
    1.9616   55.9829    3.2911 H   0  0  0  0  0  0  0  0  0  0  0  0
    2.0680   56.8777    1.7372 H   0  0  0  0  0  0  0  0  0  0  0  0
    1.7123   55.1170    1.7372 H   0  0  0  0  0  0  0  0  0  0  0  0
    4.0718   55.5302    3.2175 H   0  0  0  0  0  0  0  0  0  0  0  0
    3.3890   54.3650    0.7430 H   0  0  0  0  0  0  0  0  0  0  0  0
    4.0561   60.6382    0.6139 H   0  0  0  0  0  0  0  0  0  0  0  0
    8.2730   61.0180   -1.7490 H   0  0  0  0  0  0  0  0  0  0  0  0
    9.8715   58.9487   -1.9715 H   0  0  0  0  0  0  0  0  0  0  0  0
    8.6829   56.9236   -0.6572 H   0  0  0  0  0  0  0  0  0  0  0  0
    7.8385   56.2430    1.0036 H   0  0  0  0  0  0  0  0  0  0  0  0
    5.8201   54.1753    0.0134 H   0  0  0  0  0  0  0  0  0  0  0  0
    6.9733   55.1649   -0.9560 H   0  0  0  0  0  0  0  0  0  0  0  0
    7.8264   52.8864   -0.7231 H   0  0  0  0  0  0  0  0  0  0  0  0
    8.8583   54.0543    0.2154 H   0  0  0  0  0  0  0  0  0  0  0  0
    7.0337   51.8687    1.1927 H   0  0  0  0  0  0  0  0  0  0  0  0
    9.0187   51.9946    2.9761 H   0  0  0  0  0  0  0  0  0  0  0  0
    9.2330   51.2184    1.3478 H   0  0  0  0  0  0  0  0  0  0  0  0
    5.8807   53.3394    2.4298 H   0  0  0  0  0  0  0  0  0  0  0  0
    7.3436   53.1226    3.5036 H   0  0  0  0  0  0  0  0  0  0  0  0
    6.6104   55.4857    3.2799 H   0  0  0  0  0  0  0  0  0  0  0  0
    8.3081   55.1444    2.7033 H   0  0  0  0  0  0  0  0  0  0  0  0
  1  2  1  0
  2  3  1  0
  2  4  1  0
  4  5  2  0
  5  6  1  0
  6  7  2  0
  7  8  1  0
  8  9  2  0
  9 10  1  0
 10 11  1  0
 11 12  2  0
 12 13  1  0
 13 14  2  0
 14 15  1  0
 15 16  1  0
 16 17  1  0
 17 18  1  0
 18 19  1  0
 19 20  1  0
 20 21  1  0
 21 22  3  0
 19 23  1  0
 23 24  1  0
 15  4  1  0
 24 16  1  0
 14  6  1  0
 13  9  1  0
  1 25  1  0
  1 26  1  0
  1 27  1  0
  2 28  1  1
  3 29  1  0
  7 30  1  0
 10 31  1  0
 11 32  1  0
 12 33  1  0
 16 34  1  1
 17 35  1  0
 17 36  1  0
 18 37  1  0
 18 38  1  0
 19 39  1  1
 20 40  1  0
 20 41  1  0
 23 42  1  0
 23 43  1  0
 24 44  1  0
 24 45  1  0
M  END
>  <meeko>  (3) 
{"is_sidechain": [false], "free_energy": -7.747, "intermolecular_energy": -9.641, "internal_energy": -0.534}

$$$$
4ivc_ligand
     RDKit          3D

 45 48  0  0  0  0  0  0  0  0999 V2000
    3.1600   59.1260    1.8930 C   0  0  0  0  0  0  0  0  0  0  0  0
    4.0230   57.9070    1.6270 C   0  0  1  0  0  0  0  0  0  0  0  0
    3.3070   56.9130    0.9170 O   0  0  0  0  0  0  0  0  0  0  0  0
    5.3320   58.1960    0.9460 C   0  0  0  0  0  0  0  0  0  0  0  0
    5.5750   59.4290    0.5140 N   0  0  0  0  0  0  0  0  0  0  0  0
    6.7480   59.3820   -0.1720 C   0  0  0  0  0  0  0  0  0  0  0  0
    7.4610   60.3790   -0.8620 C   0  0  0  0  0  0  0  0  0  0  0  0
    8.6190   60.1240   -1.5410 N   0  0  0  0  0  0  0  0  0  0  0  0
    9.0130   58.8410   -1.5140 C   0  0  0  0  0  0  0  0  0  0  0  0
   10.1090   58.3090   -2.1320 N   0  0  0  0  0  0  0  0  0  0  0  0
   10.1560   56.9520   -1.8990 C   0  0  0  0  0  0  0  0  0  0  0  0
    9.0750   56.6020   -1.1070 C   0  0  0  0  0  0  0  0  0  0  0  0
    8.3750   57.8110   -0.8570 C   0  0  0  0  0  0  0  0  0  0  0  0
    7.2350   58.0920   -0.1540 C   0  0  0  0  0  0  0  0  0  0  0  0
    6.4020   57.3460    0.6280 N   0  0  0  0  0  0  0  0  0  0  0  0
    6.6550   55.9660    1.0370 C   0  0  2  0  0  0  0  0  0  0  0  0
    6.0290   54.9340    0.0870 C   0  0  0  0  0  0  0  0  0  0  0  0
    6.3020   53.5200    0.5880 C   0  0  0  0  0  0  0  0  0  0  0  0
    5.6490   53.2410    1.9560 C   0  0  1  0  0  0  0  0  0  0  0  0
    6.4530   52.1630    2.7090 C   0  0  0  0  0  0  0  0  0  0  0  0
    7.8760   52.1710    2.3330 C   0  0  0  0  0  0  0  0  0  0  0  0
    8.9990   52.1790    2.0390 N   0  0  0  0  0  0  0  0  0  0  0  0
    5.4540   54.5270    2.7890 C   0  0  0  0  0  0  0  0  0  0  0  0
    6.5200   55.5910    2.5280 C   0  0  0  0  0  0  0  0  0  0  0  0
    3.0565   59.2722    2.9783 H   0  0  0  0  0  0  0  0  0  0  0  0
    3.6319   60.0138    1.4468 H   0  0  0  0  0  0  0  0  0  0  0  0
    2.1658   58.9759    1.4468 H   0  0  0  0  0  0  0  0  0  0  0  0
    4.2847   57.5301    2.6267 H   0  0  0  0  0  0  0  0  0  0  0  0
    3.8410   56.6880    0.1370 H   0  0  0  0  0  0  0  0  0  0  0  0
    7.0699   61.4071   -0.8547 H   0  0  0  0  0  0  0  0  0  0  0  0
   10.7590   58.8490   -2.6850 H   0  0  0  0  0  0  0  0  0  0  0  0
   10.9238   56.2618   -2.2786 H   0  0  0  0  0  0  0  0  0  0  0  0
    8.8134   55.5961   -0.7467 H   0  0  0  0  0  0  0  0  0  0  0  0
    7.7483   55.9178    0.9262 H   0  0  0  0  0  0  0  0  0  0  0  0
    4.9424   55.0982    0.0379 H   0  0  0  0  0  0  0  0  0  0  0  0
    6.4733   55.0517   -0.9124 H   0  0  0  0  0  0  0  0  0  0  0  0
    5.9041   52.8032   -0.1454 H   0  0  0  0  0  0  0  0  0  0  0  0
    7.3900   53.4132    0.7095 H   0  0  0  0  0  0  0  0  0  0  0  0
    4.6349   52.8520    1.7823 H   0  0  0  0  0  0  0  0  0  0  0  0
    6.3706   52.3493    3.7900 H   0  0  0  0  0  0  0  0  0  0  0  0
    6.0370   51.1807    2.4408 H   0  0  0  0  0  0  0  0  0  0  0  0
    4.4697   54.9535    2.5455 H   0  0  0  0  0  0  0  0  0  0  0  0
    5.5350   54.2414    3.8482 H   0  0  0  0  0  0  0  0  0  0  0  0
    6.2553   56.4967    3.0934 H   0  0  0  0  0  0  0  0  0  0  0  0
    7.4852   55.1708    2.8473 H   0  0  0  0  0  0  0  0  0  0  0  0
  1  2  1  0
  2  3  1  0
  2  4  1  0
  4  5  2  0
  5  6  1  0
  6  7  2  0
  7  8  1  0
  8  9  2  0
  9 10  1  0
 10 11  1  0
 11 12  2  0
 12 13  1  0
 13 14  2  0
 14 15  1  0
 15 16  1  0
 16 17  1  0
 17 18  1  0
 18 19  1  0
 19 20  1  0
 20 21  1  0
 21 22  3  0
 19 23  1  0
 23 24  1  0
 15  4  1  0
 24 16  1  0
 14  6  1  0
 13  9  1  0
  1 25  1  0
  1 26  1  0
  1 27  1  0
  2 28  1  1
  3 29  1  0
  7 30  1  0
 10 31  1  0
 11 32  1  0
 12 33  1  0
 16 34  1  1
 17 35  1  0
 17 36  1  0
 18 37  1  0
 18 38  1  0
 19 39  1  1
 20 40  1  0
 20 41  1  0
 23 42  1  0
 23 43  1  0
 24 44  1  0
 24 45  1  0
M  END
>  <meeko>  (4) 
{"is_sidechain": [false], "free_energy": -7.685, "intermolecular_energy": -9.207, "internal_energy": -0.893}

$$$$
4ivc_ligand
     RDKit          3D

 45 48  0  0  0  0  0  0  0  0999 V2000
    2.8340   56.2660    1.9270 C   0  0  0  0  0  0  0  0  0  0  0  0
    4.2910   56.4540    1.5510 C   0  0  1  0  0  0  0  0  0  0  0  0
    4.8960   57.4740    2.3240 O   0  0  0  0  0  0  0  0  0  0  0  0
    5.1220   55.2020    1.5950 C   0  0  0  0  0  0  0  0  0  0  0  0
    4.6110   54.1090    2.1510 N   0  0  0  0  0  0  0  0  0  0  0  0
    5.6040   53.1800    2.1800 C   0  0  0  0  0  0  0  0  0  0  0  0
    5.6320   51.8660    2.6810 C   0  0  0  0  0  0  0  0  0  0  0  0
    6.7570   51.0910    2.6610 N   0  0  0  0  0  0  0  0  0  0  0  0
    7.8400   51.6900    2.1400 C   0  0  0  0  0  0  0  0  0  0  0  0
    9.0940   51.1590    2.0280 N   0  0  0  0  0  0  0  0  0  0  0  0
    9.9430   52.0940    1.4760 C   0  0  0  0  0  0  0  0  0  0  0  0
    9.2210   53.2470    1.2180 C   0  0  0  0  0  0  0  0  0  0  0  0
    7.8910   52.9670    1.6250 C   0  0  0  0  0  0  0  0  0  0  0  0
    6.7460   53.7160    1.6240 C   0  0  0  0  0  0  0  0  0  0  0  0
    6.4350   54.9630    1.1610 N   0  0  0  0  0  0  0  0  0  0  0  0
    7.3230   55.8010    0.3580 C   0  0  2  0  0  0  0  0  0  0  0  0
    8.3820   56.5300    1.1980 C   0  0  0  0  0  0  0  0  0  0  0  0
    9.2520   57.4090    0.3050 C   0  0  0  0  0  0  0  0  0  0  0  0
    8.4490   58.5330   -0.3790 C   0  0  1  0  0  0  0  0  0  0  0  0
    9.1290   58.9270   -1.7050 C   0  0  0  0  0  0  0  0  0  0  0  0
   10.0100   57.8630   -2.2130 C   0  0  0  0  0  0  0  0  0  0  0  0
   10.7020   57.0230   -2.6150 N   0  0  0  0  0  0  0  0  0  0  0  0
    6.9600   58.1670   -0.5610 C   0  0  0  0  0  0  0  0  0  0  0  0
    6.7190   56.6720   -0.7620 C   0  0  0  0  0  0  0  0  0  0  0  0
    2.7367   56.2534    3.0226 H   0  0  0  0  0  0  0  0  0  0  0  0
    2.2392   57.0948    1.5156 H   0  0  0  0  0  0  0  0  0  0  0  0
    2.4691   55.3133    1.5156 H   0  0  0  0  0  0  0  0  0  0  0  0
    4.2662   56.7573    0.4939 H   0  0  0  0  0  0  0  0  0  0  0  0
    5.4500   57.0300    2.9880 H   0  0  0  0  0  0  0  0  0  0  0  0
    4.7094   51.4447    3.1068 H   0  0  0  0  0  0  0  0  0  0  0  0
    9.3380   50.2270    2.3300 H   0  0  0  0  0  0  0  0  0  0  0  0
   11.0145   51.9486    1.2742 H   0  0  0  0  0  0  0  0  0  0  0  0
    9.6000   54.1854    0.7869 H   0  0  0  0  0  0  0  0  0  0  0  0
    7.8308   55.0369   -0.2488 H   0  0  0  0  0  0  0  0  0  0  0  0
    7.8804   57.1588    1.9483 H   0  0  0  0  0  0  0  0  0  0  0  0
    9.0190   55.7846    1.6966 H   0  0  0  0  0  0  0  0  0  0  0  0
   10.0422   57.8641    0.9202 H   0  0  0  0  0  0  0  0  0  0  0  0
    9.6725   56.7699   -0.4854 H   0  0  0  0  0  0  0  0  0  0  0  0
    8.4518   59.4121    0.2821 H   0  0  0  0  0  0  0  0  0  0  0  0
    8.3512   59.1318   -2.4553 H   0  0  0  0  0  0  0  0  0  0  0  0
    9.7469   59.8175   -1.5173 H   0  0  0  0  0  0  0  0  0  0  0  0
    6.4101   58.4907    0.3350 H   0  0  0  0  0  0  0  0  0  0  0  0
    6.6113   58.6758   -1.4718 H   0  0  0  0  0  0  0  0  0  0  0  0
    5.6339   56.4946   -0.7955 H   0  0  0  0  0  0  0  0  0  0  0  0
    7.2149   56.3853   -1.7011 H   0  0  0  0  0  0  0  0  0  0  0  0
  1  2  1  0
  2  3  1  0
  2  4  1  0
  4  5  2  0
  5  6  1  0
  6  7  2  0
  7  8  1  0
  8  9  2  0
  9 10  1  0
 10 11  1  0
 11 12  2  0
 12 13  1  0
 13 14  2  0
 14 15  1  0
 15 16  1  0
 16 17  1  0
 17 18  1  0
 18 19  1  0
 19 20  1  0
 20 21  1  0
 21 22  3  0
 19 23  1  0
 23 24  1  0
 15  4  1  0
 24 16  1  0
 14  6  1  0
 13  9  1  0
  1 25  1  0
  1 26  1  0
  1 27  1  0
  2 28  1  6
  3 29  1  0
  7 30  1  0
 10 31  1  0
 11 32  1  0
 12 33  1  0
 16 34  1  1
 17 35  1  0
 17 36  1  0
 18 37  1  0
 18 38  1  0
 19 39  1  6
 20 40  1  0
 20 41  1  0
 23 42  1  0
 23 43  1  0
 24 44  1  0
 24 45  1  0
M  END
>  <meeko>  (5) 
{"is_sidechain": [false], "free_energy": -7.469, "intermolecular_energy": -9.234, "internal_energy": -0.605}

$$$$
4ivc_ligand
     RDKit          3D

 45 48  0  0  0  0  0  0  0  0999 V2000
    9.2330   52.4430    0.5020 C   0  0  0  0  0  0  0  0  0  0  0  0
    9.6040   53.7470    1.1810 C   0  0  1  0  0  0  0  0  0  0  0  0
   10.8550   53.6510    1.8360 O   0  0  0  0  0  0  0  0  0  0  0  0
    9.5730   54.9550    0.2870 C   0  0  0  0  0  0  0  0  0  0  0  0
   10.5940   55.1760   -0.5350 N   0  0  0  0  0  0  0  0  0  0  0  0
   10.3770   56.3860   -1.1170 C   0  0  0  0  0  0  0  0  0  0  0  0
   11.1420   57.1230   -2.0380 C   0  0  0  0  0  0  0  0  0  0  0  0
   10.7750   58.3630   -2.4800 N   0  0  0  0  0  0  0  0  0  0  0  0
    9.6340   58.8310   -1.9490 C   0  0  0  0  0  0  0  0  0  0  0  0
    9.0590   60.0460   -2.1890 N   0  0  0  0  0  0  0  0  0  0  0  0
    7.9150   60.1730   -1.4300 C   0  0  0  0  0  0  0  0  0  0  0  0
    7.7430   59.0120   -0.6940 C   0  0  0  0  0  0  0  0  0  0  0  0
    8.8270   58.1680   -1.0490 C   0  0  0  0  0  0  0  0  0  0  0  0
    9.1940   56.9140   -0.6440 C   0  0  0  0  0  0  0  0  0  0  0  0
    8.6230   55.9820    0.1740 N   0  0  0  0  0  0  0  0  0  0  0  0
    7.2820   56.0850    0.7470 C   0  0  2  0  0  0  0  0  0  0  0  0
    7.2450   55.7640    2.2480 C   0  0  0  0  0  0  0  0  0  0  0  0
    5.8160   55.8580    2.7730 C   0  0  0  0  0  0  0  0  0  0  0  0
    4.8790   54.8190    2.1260 C   0  0  1  0  0  0  0  0  0  0  0  0
    3.4310   55.3470    2.1320 C   0  0  0  0  0  0  0  0  0  0  0  0
    3.3480   56.7420    1.6700 C   0  0  0  0  0  0  0  0  0  0  0  0
    3.2830   57.8410    1.3030 N   0  0  0  0  0  0  0  0  0  0  0  0
    5.3520   54.3960    0.7180 C   0  0  0  0  0  0  0  0  0  0  0  0
    6.0880   55.5020   -0.0370 C   0  0  0  0  0  0  0  0  0  0  0  0
    9.0162   51.6810    1.2651 H   0  0  0  0  0  0  0  0  0  0  0  0
    8.3430   52.5968   -0.1258 H   0  0  0  0  0  0  0  0  0  0  0  0
   10.0707   52.1052   -0.1258 H   0  0  0  0  0  0  0  0  0  0  0  0
    8.8099   53.9064    1.9253 H   0  0  0  0  0  0  0  0  0  0  0  0
   11.3920   53.0240    1.3230 H   0  0  0  0  0  0  0  0  0  0  0  0
   12.0754   56.6829   -2.4189 H   0  0  0  0  0  0  0  0  0  0  0  0
    9.4440   60.7350   -2.8180 H   0  0  0  0  0  0  0  0  0  0  0  0
    7.2503   61.0493   -1.4119 H   0  0  0  0  0  0  0  0  0  0  0  0
    6.9341   58.7904    0.0178 H   0  0  0  0  0  0  0  0  0  0  0  0
    7.0870   57.1601    0.6203 H   0  0  0  0  0  0  0  0  0  0  0  0
    7.6254   54.7448    2.4108 H   0  0  0  0  0  0  0  0  0  0  0  0
    7.8727   56.4901    2.7853 H   0  0  0  0  0  0  0  0  0  0  0  0
    5.8283   55.6929    3.8605 H   0  0  0  0  0  0  0  0  0  0  0  0
    5.4322   56.8572    2.5195 H   0  0  0  0  0  0  0  0  0  0  0  0
    4.9104   53.9001    2.7298 H   0  0  0  0  0  0  0  0  0  0  0  0
    2.8210   54.7167    1.4682 H   0  0  0  0  0  0  0  0  0  0  0  0
    3.0617   55.3108    3.1675 H   0  0  0  0  0  0  0  0  0  0  0  0
    6.0295   53.5357    0.8224 H   0  0  0  0  0  0  0  0  0  0  0  0
    4.4520   54.1508    0.1351 H   0  0  0  0  0  0  0  0  0  0  0  0
    6.4614   55.0885   -0.9855 H   0  0  0  0  0  0  0  0  0  0  0  0
    5.3711   56.3211   -0.1959 H   0  0  0  0  0  0  0  0  0  0  0  0
  1  2  1  0
  2  3  1  0
  2  4  1  0
  4  5  2  0
  5  6  1  0
  6  7  2  0
  7  8  1  0
  8  9  2  0
  9 10  1  0
 10 11  1  0
 11 12  2  0
 12 13  1  0
 13 14  2  0
 14 15  1  0
 15 16  1  0
 16 17  1  0
 17 18  1  0
 18 19  1  0
 19 20  1  0
 20 21  1  0
 21 22  3  0
 19 23  1  0
 23 24  1  0
 15  4  1  0
 24 16  1  0
 14  6  1  0
 13  9  1  0
  1 25  1  0
  1 26  1  0
  1 27  1  0
  2 28  1  1
  3 29  1  0
  7 30  1  0
 10 31  1  0
 11 32  1  0
 12 33  1  0
 16 34  1  6
 17 35  1  0
 17 36  1  0
 18 37  1  0
 18 38  1  0
 19 39  1  6
 20 40  1  0
 20 41  1  0
 23 42  1  0
 23 43  1  0
 24 44  1  0
 24 45  1  0
M  END
>  <meeko>  (6) 
{"is_sidechain": [false], "free_energy": -7.41, "intermolecular_energy": -9.022, "internal_energy": -0.746}

$$$$
4ivc_ligand
     RDKit          3D

 45 48  0  0  0  0  0  0  0  0999 V2000
    3.4530   51.4580    1.3300 C   0  0  0  0  0  0  0  0  0  0  0  0
    4.3890   51.9680    2.4080 C   0  0  1  0  0  0  0  0  0  0  0  0
    4.4260   51.0910    3.5180 O   0  0  0  0  0  0  0  0  0  0  0  0
    5.7840   52.2780    1.9400 C   0  0  0  0  0  0  0  0  0  0  0  0
    6.7090   51.3250    1.9960 N   0  0  0  0  0  0  0  0  0  0  0  0
    7.8900   51.9020    1.6480 C   0  0  0  0  0  0  0  0  0  0  0  0
    9.1920   51.3760    1.5670 C   0  0  0  0  0  0  0  0  0  0  0  0
   10.2780   52.1370    1.2370 N   0  0  0  0  0  0  0  0  0  0  0  0
   10.0070   53.4330    1.0150 C   0  0  0  0  0  0  0  0  0  0  0  0
   10.9040   54.4140    0.7030 N   0  0  0  0  0  0  0  0  0  0  0  0
   10.2470   55.6200    0.5880 C   0  0  0  0  0  0  0  0  0  0  0  0
    8.8980   55.4110    0.8210 C   0  0  0  0  0  0  0  0  0  0  0  0
    8.7620   54.0210    1.0690 C   0  0  0  0  0  0  0  0  0  0  0  0
    7.6820   53.2360    1.3680 C   0  0  0  0  0  0  0  0  0  0  0  0
    6.3400   53.4710    1.4540 N   0  0  0  0  0  0  0  0  0  0  0  0
    5.6850   54.7210    1.0710 C   0  0  2  0  0  0  0  0  0  0  0  0
    6.2770   55.3430   -0.2030 C   0  0  0  0  0  0  0  0  0  0  0  0
    5.5730   56.6560   -0.5260 C   0  0  0  0  0  0  0  0  0  0  0  0
    5.7820   57.7240    0.5660 C   0  0  1  0  0  0  0  0  0  0  0  0
    4.5910   58.7020    0.5730 C   0  0  0  0  0  0  0  0  0  0  0  0
    5.0230   60.1010    0.4240 C   0  0  0  0  0  0  0  0  0  0  0  0
    5.3640   61.2040    0.3020 N   0  0  0  0  0  0  0  0  0  0  0  0
    6.0490   57.1020    1.9540 C   0  0  0  0  0  0  0  0  0  0  0  0
    5.3540   55.7580    2.1650 C   0  0  0  0  0  0  0  0  0  0  0  0
    2.5791   50.9818    1.7985 H   0  0  0  0  0  0  0  0  0  0  0  0
    3.1207   52.2997    0.7047 H   0  0  0  0  0  0  0  0  0  0  0  0
    3.9801   50.7224    0.7047 H   0  0  0  0  0  0  0  0  0  0  0  0
    3.9565   52.9321    2.7138 H   0  0  0  0  0  0  0  0  0  0  0  0
    3.8240   50.3560    3.3130 H   0  0  0  0  0  0  0  0  0  0  0  0
    9.3424   50.3070    1.7782 H   0  0  0  0  0  0  0  0  0  0  0  0
   11.8960   54.2550    0.5980 H   0  0  0  0  0  0  0  0  0  0  0  0
   10.7156   56.5865    0.3509 H   0  0  0  0  0  0  0  0  0  0  0  0
    8.0981   56.1661    0.8150 H   0  0  0  0  0  0  0  0  0  0  0  0
    4.6728   54.3579    0.8394 H   0  0  0  0  0  0  0  0  0  0  0  0
    7.3493   55.5343   -0.0492 H   0  0  0  0  0  0  0  0  0  0  0  0
    6.1357   54.6451   -1.0414 H   0  0  0  0  0  0  0  0  0  0  0  0
    5.9674   57.0427   -1.4773 H   0  0  0  0  0  0  0  0  0  0  0  0
    4.4944   56.4495   -0.5885 H   0  0  0  0  0  0  0  0  0  0  0  0
    6.6914   58.2939    0.3248 H   0  0  0  0  0  0  0  0  0  0  0  0
    3.9184   58.4478   -0.2594 H   0  0  0  0  0  0  0  0  0  0  0  0
    4.0798   58.6066    1.5423 H   0  0  0  0  0  0  0  0  0  0  0  0
    7.1332   56.9544    2.0664 H   0  0  0  0  0  0  0  0  0  0  0  0
    5.6420   57.7971    2.7031 H   0  0  0  0  0  0  0  0  0  0  0  0
    5.6679   55.3515    3.1377 H   0  0  0  0  0  0  0  0  0  0  0  0
    4.2702   55.9415    2.1226 H   0  0  0  0  0  0  0  0  0  0  0  0
  1  2  1  0
  2  3  1  0
  2  4  1  0
  4  5  2  0
  5  6  1  0
  6  7  2  0
  7  8  1  0
  8  9  2  0
  9 10  1  0
 10 11  1  0
 11 12  2  0
 12 13  1  0
 13 14  2  0
 14 15  1  0
 15 16  1  0
 16 17  1  0
 17 18  1  0
 18 19  1  0
 19 20  1  0
 20 21  1  0
 21 22  3  0
 19 23  1  0
 23 24  1  0
 15  4  1  0
 24 16  1  0
 14  6  1  0
 13  9  1  0
  1 25  1  0
  1 26  1  0
  1 27  1  0
  2 28  1  1
  3 29  1  0
  7 30  1  0
 10 31  1  0
 11 32  1  0
 12 33  1  0
 16 34  1  1
 17 35  1  0
 17 36  1  0
 18 37  1  0
 18 38  1  0
 19 39  1  1
 20 40  1  0
 20 41  1  0
 23 42  1  0
 23 43  1  0
 24 44  1  0
 24 45  1  0
M  END
>  <meeko>  (7) 
{"is_sidechain": [false], "free_energy": -7.368, "intermolecular_energy": -9.92, "internal_energy": 0.202}

$$$$
4ivc_ligand
     RDKit          3D

 45 48  0  0  0  0  0  0  0  0999 V2000
    5.4130   60.4640    0.2630 C   0  0  0  0  0  0  0  0  0  0  0  0
    5.9480   59.0520    0.1280 C   0  0  1  0  0  0  0  0  0  0  0  0
    5.0120   58.2030   -0.5110 O   0  0  0  0  0  0  0  0  0  0  0  0
    7.2910   58.9460   -0.5400 C   0  0  0  0  0  0  0  0  0  0  0  0
    7.7980   60.0180   -1.1400 N   0  0  0  0  0  0  0  0  0  0  0  0
    8.9360   59.6150   -1.7690 C   0  0  0  0  0  0  0  0  0  0  0  0
    9.8510   60.3200   -2.5720 C   0  0  0  0  0  0  0  0  0  0  0  0
   10.9280   59.7220   -3.1640 N   0  0  0  0  0  0  0  0  0  0  0  0
   11.0330   58.4040   -2.9320 C   0  0  0  0  0  0  0  0  0  0  0  0
   11.9890   57.5620   -3.4250 N   0  0  0  0  0  0  0  0  0  0  0  0
   11.7390   56.2770   -2.9920 C   0  0  0  0  0  0  0  0  0  0  0  0
   10.6050   56.2920   -2.1970 C   0  0  0  0  0  0  0  0  0  0  0  0
   10.1840   57.6470   -2.1540 C   0  0  0  0  0  0  0  0  0  0  0  0
    9.1300   58.2700   -1.5430 C   0  0  0  0  0  0  0  0  0  0  0  0
    8.1520   57.8480   -0.6890 N   0  0  0  0  0  0  0  0  0  0  0  0
    8.0970   56.5240   -0.0720 C   0  0  2  0  0  0  0  0  0  0  0  0
    6.8800   55.7010   -0.5220 C   0  0  0  0  0  0  0  0  0  0  0  0
    6.8660   54.3490    0.1820 C   0  0  0  0  0  0  0  0  0  0  0  0
    6.7100   54.4800    1.7100 C   0  0  1  0  0  0  0  0  0  0  0  0
    7.3580   53.2680    2.4070 C   0  0  0  0  0  0  0  0  0  0  0  0
    7.7390   52.2170    1.4500 C   0  0  0  0  0  0  0  0  0  0  0  0
    8.0420   51.3900    0.6940 N   0  0  0  0  0  0  0  0  0  0  0  0
    7.2420   55.8280    2.2440 C   0  0  0  0  0  0  0  0  0  0  0  0
    8.4100   56.3870    1.4320 C   0  0  0  0  0  0  0  0  0  0  0  0
    5.3163   60.7192    1.3286 H   0  0  0  0  0  0  0  0  0  0  0  0
    6.1071   61.1669   -0.2208 H   0  0  0  0  0  0  0  0  0  0  0  0
    4.4274   60.5305   -0.2208 H   0  0  0  0  0  0  0  0  0  0  0  0
    6.1031   58.7162    1.1640 H   0  0  0  0  0  0  0  0  0  0  0  0
    5.4400   57.3360   -0.6060 H   0  0  0  0  0  0  0  0  0  0  0  0
    9.6931   61.3971   -2.7300 H   0  0  0  0  0  0  0  0  0  0  0  0
   12.7430   57.8590   -4.0270 H   0  0  0  0  0  0  0  0  0  0  0  0
   12.3397   55.3886   -3.2370 H   0  0  0  0  0  0  0  0  0  0  0  0
   10.1294   55.4326   -1.7018 H   0  0  0  0  0  0  0  0  0  0  0  0
    9.0003   56.0632   -0.4982 H   0  0  0  0  0  0  0  0  0  0  0  0
    5.9593   56.2491   -0.2734 H   0  0  0  0  0  0  0  0  0  0  0  0
    6.9400   55.5382   -1.6082 H   0  0  0  0  0  0  0  0  0  0  0  0
    6.0256   53.7566   -0.2088 H   0  0  0  0  0  0  0  0  0  0  0  0
    7.8316   53.8602   -0.0144 H   0  0  0  0  0  0  0  0  0  0  0  0
    5.6364   54.4784    1.9494 H   0  0  0  0  0  0  0  0  0  0  0  0
    8.2589   53.6055    2.9403 H   0  0  0  0  0  0  0  0  0  0  0  0
    6.6190   52.8418    3.1014 H   0  0  0  0  0  0  0  0  0  0  0  0
    6.4209   56.5597    2.2221 H   0  0  0  0  0  0  0  0  0  0  0  0
    7.6134   55.6483    3.2637 H   0  0  0  0  0  0  0  0  0  0  0  0
    8.6660   57.3811    1.8273 H   0  0  0  0  0  0  0  0  0  0  0  0
    9.2435   55.6756    1.5279 H   0  0  0  0  0  0  0  0  0  0  0  0
  1  2  1  0
  2  3  1  0
  2  4  1  0
  4  5  2  0
  5  6  1  0
  6  7  2  0
  7  8  1  0
  8  9  2  0
  9 10  1  0
 10 11  1  0
 11 12  2  0
 12 13  1  0
 13 14  2  0
 14 15  1  0
 15 16  1  0
 16 17  1  0
 17 18  1  0
 18 19  1  0
 19 20  1  0
 20 21  1  0
 21 22  3  0
 19 23  1  0
 23 24  1  0
 15  4  1  0
 24 16  1  0
 14  6  1  0
 13  9  1  0
  1 25  1  0
  1 26  1  0
  1 27  1  0
  2 28  1  1
  3 29  1  0
  7 30  1  0
 10 31  1  0
 11 32  1  0
 12 33  1  0
 16 34  1  1
 17 35  1  0
 17 36  1  0
 18 37  1  0
 18 38  1  0
 19 39  1  1
 20 40  1  0
 20 41  1  0
 23 42  1  0
 23 43  1  0
 24 44  1  0
 24 45  1  0
M  END
>  <meeko>  (8) 
{"is_sidechain": [false], "free_energy": -7.319, "intermolecular_energy": -9.167, "internal_energy": -0.492}

$$$$
4ivc_ligand
     RDKit          3D

 45 48  0  0  0  0  0  0  0  0999 V2000
   11.3710   58.2870   -1.6550 C   0  0  0  0  0  0  0  0  0  0  0  0
   10.1840   57.4000   -1.9740 C   0  0  1  0  0  0  0  0  0  0  0  0
   10.3270   56.7790   -3.2380 O   0  0  0  0  0  0  0  0  0  0  0  0
    9.8590   56.3770   -0.9210 C   0  0  0  0  0  0  0  0  0  0  0  0
   10.6670   55.3330   -0.7670 N   0  0  0  0  0  0  0  0  0  0  0  0
   10.0770   54.5100    0.1400 C   0  0  0  0  0  0  0  0  0  0  0  0
   10.4700   53.2600    0.6530 C   0  0  0  0  0  0  0  0  0  0  0  0
    9.7080   52.5510    1.5380 N   0  0  0  0  0  0  0  0  0  0  0  0
    8.5430   53.1340    1.8660 C   0  0  0  0  0  0  0  0  0  0  0  0
    7.5840   52.6320    2.6990 N   0  0  0  0  0  0  0  0  0  0  0  0
    6.5190   53.5050    2.7540 C   0  0  0  0  0  0  0  0  0  0  0  0
    6.8010   54.5960    1.9500 C   0  0  0  0  0  0  0  0  0  0  0  0
    8.0920   54.3540    1.4130 C   0  0  0  0  0  0  0  0  0  0  0  0
    8.8840   55.0650    0.5530 C   0  0  0  0  0  0  0  0  0  0  0  0
    8.7740   56.2910   -0.0360 N   0  0  0  0  0  0  0  0  0  0  0  0
    7.7340   57.2720    0.2680 C   0  0  2  0  0  0  0  0  0  0  0  0
    6.4210   57.0090   -0.4840 C   0  0  0  0  0  0  0  0  0  0  0  0
    5.3930   58.0840   -0.1470 C   0  0  0  0  0  0  0  0  0  0  0  0
    5.8340   59.4880   -0.6070 C   0  0  1  0  0  0  0  0  0  0  0  0
    5.1850   60.5580    0.2920 C   0  0  0  0  0  0  0  0  0  0  0  0
    4.0990   60.0060    1.1160 C   0  0  0  0  0  0  0  0  0  0  0  0
    3.2440   59.5680    1.7680 N   0  0  0  0  0  0  0  0  0  0  0  0
    7.3710   59.6270   -0.6820 C   0  0  0  0  0  0  0  0  0  0  0  0
    8.1130   58.7660    0.3390 C   0  0  0  0  0  0  0  0  0  0  0  0
   11.4833   58.3709   -0.5640 H   0  0  0  0  0  0  0  0  0  0  0  0
   12.2832   57.8474   -2.0848 H   0  0  0  0  0  0  0  0  0  0  0  0
   11.2079   59.2864   -2.0848 H   0  0  0  0  0  0  0  0  0  0  0  0
    9.3249   58.0866   -1.9969 H   0  0  0  0  0  0  0  0  0  0  0  0
   10.3340   55.8200   -3.0790 H   0  0  0  0  0  0  0  0  0  0  0  0
   11.4314   52.8358    0.3277 H   0  0  0  0  0  0  0  0  0  0  0  0
    7.6610   51.7440    3.1730 H   0  0  0  0  0  0  0  0  0  0  0  0
    5.5989   53.3592    3.3389 H   0  0  0  0  0  0  0  0  0  0  0  0
    6.1579   55.4692    1.7657 H   0  0  0  0  0  0  0  0  0  0  0  0
    7.5665   57.0658    1.3354 H   0  0  0  0  0  0  0  0  0  0  0  0
    6.6148   57.0190   -1.5668 H   0  0  0  0  0  0  0  0  0  0  0  0
    6.0255   56.0284   -0.1808 H   0  0  0  0  0  0  0  0  0  0  0  0
    4.4439   57.8323   -0.6429 H   0  0  0  0  0  0  0  0  0  0  0  0
    5.2833   58.1101    0.9472 H   0  0  0  0  0  0  0  0  0  0  0  0
    5.4788   59.6439   -1.6363 H   0  0  0  0  0  0  0  0  0  0  0  0
    5.9552   60.9778    0.9558 H   0  0  0  0  0  0  0  0  0  0  0  0
    4.7544   61.3318   -0.3605 H   0  0  0  0  0  0  0  0  0  0  0  0
    7.6983   59.3313   -1.6897 H   0  0  0  0  0  0  0  0  0  0  0  0
    7.6117   60.6761   -0.4553 H   0  0  0  0  0  0  0  0  0  0  0  0
    9.1936   58.8611    0.1564 H   0  0  0  0  0  0  0  0  0  0  0  0
    7.8281   59.1272    1.3382 H   0  0  0  0  0  0  0  0  0  0  0  0
  1  2  1  0
  2  3  1  0
  2  4  1  0
  4  5  2  0
  5  6  1  0
  6  7  2  0
  7  8  1  0
  8  9  2  0
  9 10  1  0
 10 11  1  0
 11 12  2  0
 12 13  1  0
 13 14  2  0
 14 15  1  0
 15 16  1  0
 16 17  1  0
 17 18  1  0
 18 19  1  0
 19 20  1  0
 20 21  1  0
 21 22  3  0
 19 23  1  0
 23 24  1  0
 15  4  1  0
 24 16  1  0
 14  6  1  0
 13  9  1  0
  1 25  1  0
  1 26  1  0
  1 27  1  0
  2 28  1  6
  3 29  1  0
  7 30  1  0
 10 31  1  0
 11 32  1  0
 12 33  1  0
 16 34  1  6
 17 35  1  0
 17 36  1  0
 18 37  1  0
 18 38  1  0
 19 39  1  1
 20 40  1  0
 20 41  1  0
 23 42  1  0
 23 43  1  0
 24 44  1  0
 24 45  1  0
M  END
>  <meeko>  (9) 
{"is_sidechain": [false], "free_energy": -7.242, "intermolecular_energy": -9.02, "internal_energy": -0.546}

$$$$
