4agp_ligand
     RDKit          3D

 62 64  0  0  0  0  0  0  0  0999 V2000
  104.5470   77.9460  -41.9700 C   0  0  0  0  0  0  0  0  0  0  0  0
  104.9810   77.9450  -40.5140 C   0  0  0  0  0  0  0  0  0  0  0  0
  106.3910   78.4940  -40.3580 N   0  0  0  0  0  0  0  0  0  0  0  0
  107.4970   77.4480  -40.3300 C   0  0  0  0  0  0  0  0  0  0  0  0
  107.6790   76.7440  -38.9990 C   0  0  0  0  0  0  0  0  0  0  0  0
  106.4580   79.6490  -39.3340 C   0  0  0  0  0  0  0  0  0  0  0  0
  105.1750   80.4870  -39.3200 C   0  0  0  0  0  0  0  0  0  0  0  0
  105.1850   81.7190  -40.2290 C   0  0  0  0  0  0  0  0  0  0  0  0
  106.5160   82.0260  -40.7700 N   0  0  0  0  0  0  0  0  0  0  0  0
  106.5270   83.3760  -41.3940 C   0  0  0  0  0  0  0  0  0  0  0  0
  107.6050   83.5080  -42.4500 C   0  0  0  0  0  0  0  0  0  0  0  0
  108.6790   84.3830  -42.2250 C   0  0  0  0  0  0  0  0  0  0  0  0
  109.7340   84.4850  -43.1330 C   0  0  0  0  0  0  0  0  0  0  0  0
  110.8600   85.2910  -42.7860 C   0  0  0  0  0  0  0  0  0  0  0  0
  111.7980   85.9250  -42.3840 C   0  0  0  0  0  0  0  0  0  0  0  0
  112.8860   86.7210  -41.8040 C   0  0  0  0  0  0  0  0  0  0  0  0
  112.3710   87.6480  -40.8400 O   0  0  0  0  0  0  0  0  0  0  0  0
  112.1040   88.9250  -41.2490 C   0  0  0  0  0  0  0  0  0  0  0  0
  111.9980   89.8580  -40.2120 C   0  0  0  0  0  0  0  0  0  0  0  0
  111.7250   91.2000  -40.4860 C   0  0  0  0  0  0  0  0  0  0  0  0
  111.5730   91.6220  -41.8040 C   0  0  0  0  0  0  0  0  0  0  0  0
  111.6940   90.7010  -42.8440 C   0  0  0  0  0  0  0  0  0  0  0  0
  111.9600   89.3550  -42.5690 C   0  0  0  0  0  0  0  0  0  0  0  0
  109.7040   83.7560  -44.3190 C   0  0  0  0  0  0  0  0  0  0  0  0
  108.6210   82.9130  -44.5800 C   0  0  0  0  0  0  0  0  0  0  0  0
  108.6110   81.8300  -46.3690 I   0  0  0  0  0  0  0  0  0  0  0  0
  107.5810   82.7830  -43.6470 C   0  0  0  0  0  0  0  0  0  0  0  0
  106.5240   81.9400  -43.8670 O   0  0  0  0  0  0  0  0  0  0  0  0
  107.5310   81.9320  -39.7240 C   0  0  0  0  0  0  0  0  0  0  0  0
  107.7560   80.4570  -39.3930 C   0  0  0  0  0  0  0  0  0  0  0  0
  103.4484   77.9485  -42.0251 H   0  0  0  0  0  0  0  0  0  0  0  0
  104.9413   78.8432  -42.4695 H   0  0  0  0  0  0  0  0  0  0  0  0
  104.9371   77.0470  -42.4695 H   0  0  0  0  0  0  0  0  0  0  0  0
  104.2868   78.5695  -39.9326 H   0  0  0  0  0  0  0  0  0  0  0  0
  104.9696   76.9075  -40.1487 H   0  0  0  0  0  0  0  0  0  0  0  0
  106.5650   78.9750  -41.2500 H   0  0  0  0  0  0  0  0  0  0  0  0
  107.2664   76.6869  -41.0900 H   0  0  0  0  0  0  0  0  0  0  0  0
  108.4358   77.9876  -40.5236 H   0  0  0  0  0  0  0  0  0  0  0  0
  107.4952   77.4550  -38.1800 H   0  0  0  0  0  0  0  0  0  0  0  0
  106.9673   75.9084  -38.9258 H   0  0  0  0  0  0  0  0  0  0  0  0
  108.7065   76.3580  -38.9258 H   0  0  0  0  0  0  0  0  0  0  0  0
  106.5043   79.1792  -38.3405 H   0  0  0  0  0  0  0  0  0  0  0  0
  104.3434   79.8396  -39.6351 H   0  0  0  0  0  0  0  0  0  0  0  0
  105.0737   80.8688  -38.2934 H   0  0  0  0  0  0  0  0  0  0  0  0
  104.4985   81.5394  -41.0695 H   0  0  0  0  0  0  0  0  0  0  0  0
  104.8730   82.5792  -39.6186 H   0  0  0  0  0  0  0  0  0  0  0  0
  105.5483   83.5583  -41.8618 H   0  0  0  0  0  0  0  0  0  0  0  0
  106.7356   84.1122  -40.6038 H   0  0  0  0  0  0  0  0  0  0  0  0
  108.6895   85.0007  -41.3149 H   0  0  0  0  0  0  0  0  0  0  0  0
  113.6040   86.0484  -41.3118 H   0  0  0  0  0  0  0  0  0  0  0  0
  113.3830   87.2834  -42.6081 H   0  0  0  0  0  0  0  0  0  0  0  0
  112.1310   89.5313  -39.1701 H   0  0  0  0  0  0  0  0  0  0  0  0
  111.6302   91.9223  -39.6618 H   0  0  0  0  0  0  0  0  0  0  0  0
  111.3582   92.6781  -42.0242 H   0  0  0  0  0  0  0  0  0  0  0  0
  111.5798   91.0343  -43.8860 H   0  0  0  0  0  0  0  0  0  0  0  0
  112.0558   88.6345  -43.3946 H   0  0  0  0  0  0  0  0  0  0  0  0
  110.5263   83.8432  -45.0444 H   0  0  0  0  0  0  0  0  0  0  0  0
  106.1940   81.6480  -42.9960 H   0  0  0  0  0  0  0  0  0  0  0  0
  108.4711   82.3796  -40.0787 H   0  0  0  0  0  0  0  0  0  0  0  0
  107.1957   82.4715  -38.8259 H   0  0  0  0  0  0  0  0  0  0  0  0
  108.4052   80.0201  -40.1660 H   0  0  0  0  0  0  0  0  0  0  0  0
  108.2155   80.4119  -38.3946 H   0  0  0  0  0  0  0  0  0  0  0  0
  1  2  1  0
  2  3  1  0
  3  4  1  0
  4  5  1  0
  3  6  1  0
  6  7  1  0
  7  8  1  0
  8  9  1  0
  9 10  1  0
 10 11  1  0
 11 12  2  0
 12 13  1  0
 13 14  1  0
 14 15  3  0
 15 16  1  0
 16 17  1  0
 17 18  1  0
 18 19  2  0
 19 20  1  0
 20 21  2  0
 21 22  1  0
 22 23  2  0
 13 24  2  0
 24 25  1  0
 25 26  1  0
 25 27  2  0
 27 28  1  0
  9 29  1  0
 29 30  1  0
 30  6  1  0
 27 11  1  0
 23 18  1  0
  1 31  1  0
  1 32  1  0
  1 33  1  0
  2 34  1  0
  2 35  1  0
  3 36  1  0
  4 37  1  0
  4 38  1  0
  5 39  1  0
  5 40  1  0
  5 41  1  0
  6 42  1  0
  7 43  1  0
  7 44  1  0
  8 45  1  0
  8 46  1  0
 10 47  1  0
 10 48  1  0
 12 49  1  0
 16 50  1  0
 16 51  1  0
 19 52  1  0
 20 53  1  0
 21 54  1  0
 22 55  1  0
 23 56  1  0
 24 57  1  0
 28 58  1  0
 29 59  1  0
 29 60  1  0
 30 61  1  0
 30 62  1  0
M  CHG  1   3   1
M  END
>  <meeko>  (1) 
{"is_sidechain": [false], "free_energy": -6.588, "intermolecular_energy": -9.862, "internal_energy": -1.331}

$$$$
4agp_ligand
     RDKit          3D

 62 64  0  0  0  0  0  0  0  0999 V2000
  105.0190   77.6370  -40.5920 C   0  0  0  0  0  0  0  0  0  0  0  0
  106.3880   77.5050  -41.2380 C   0  0  0  0  0  0  0  0  0  0  0  0
  107.4870   78.0000  -40.3090 N   0  0  0  0  0  0  0  0  0  0  0  0
  108.0330   79.3860  -40.6280 C   0  0  0  0  0  0  0  0  0  0  0  0
  107.8480   79.8320  -42.0660 C   0  0  0  0  0  0  0  0  0  0  0  0
  108.4960   76.8870  -39.9530 C   0  0  0  0  0  0  0  0  0  0  0  0
  108.9510   76.9620  -38.4920 C   0  0  0  0  0  0  0  0  0  0  0  0
  110.2320   77.7620  -38.2420 C   0  0  0  0  0  0  0  0  0  0  0  0
  110.9450   78.1100  -39.4780 N   0  0  0  0  0  0  0  0  0  0  0  0
  112.3080   78.6190  -39.1700 C   0  0  0  0  0  0  0  0  0  0  0  0
  112.4050   80.1230  -39.3240 C   0  0  0  0  0  0  0  0  0  0  0  0
  111.4150   80.7990  -40.0540 C   0  0  0  0  0  0  0  0  0  0  0  0
  111.4180   82.1910  -40.1630 C   0  0  0  0  0  0  0  0  0  0  0  0
  110.3150   82.8310  -40.8040 C   0  0  0  0  0  0  0  0  0  0  0  0
  109.3160   83.2910  -41.2860 C   0  0  0  0  0  0  0  0  0  0  0  0
  108.0760   83.8990  -41.7810 C   0  0  0  0  0  0  0  0  0  0  0  0
  107.1930   84.1950  -40.6910 O   0  0  0  0  0  0  0  0  0  0  0  0
  106.5910   83.1520  -40.0430 C   0  0  0  0  0  0  0  0  0  0  0  0
  105.5980   82.5020  -40.7820 C   0  0  0  0  0  0  0  0  0  0  0  0
  104.8990   81.4210  -40.2420 C   0  0  0  0  0  0  0  0  0  0  0  0
  105.2020   80.9710  -38.9590 C   0  0  0  0  0  0  0  0  0  0  0  0
  106.2020   81.6030  -38.2220 C   0  0  0  0  0  0  0  0  0  0  0  0
  106.8980   82.6910  -38.7620 C   0  0  0  0  0  0  0  0  0  0  0  0
  112.4510   82.9310  -39.5920 C   0  0  0  0  0  0  0  0  0  0  0  0
  113.4690   82.2700  -38.9000 C   0  0  0  0  0  0  0  0  0  0  0  0
  115.0030   83.4120  -38.0550 I   0  0  0  0  0  0  0  0  0  0  0  0
  113.4420   80.8740  -38.7590 C   0  0  0  0  0  0  0  0  0  0  0  0
  114.4110   80.2070  -38.0600 O   0  0  0  0  0  0  0  0  0  0  0  0
  111.0130   76.9610  -40.3750 C   0  0  0  0  0  0  0  0  0  0  0  0
  109.6260   76.7230  -40.9720 C   0  0  0  0  0  0  0  0  0  0  0  0
  105.1275   77.6265  -39.4974 H   0  0  0  0  0  0  0  0  0  0  0  0
  104.5554   78.5840  -40.9055 H   0  0  0  0  0  0  0  0  0  0  0  0
  104.3830   76.7960  -40.9055 H   0  0  0  0  0  0  0  0  0  0  0  0
  106.5708   76.4471  -41.4777 H   0  0  0  0  0  0  0  0  0  0  0  0
  106.4021   78.1186  -42.1509 H   0  0  0  0  0  0  0  0  0  0  0  0
  107.0000   78.1550  -39.4180 H   0  0  0  0  0  0  0  0  0  0  0  0
  107.5233   80.1118  -39.9773 H   0  0  0  0  0  0  0  0  0  0  0  0
  109.1187   79.3354  -40.4589 H   0  0  0  0  0  0  0  0  0  0  0  0
  107.4266   80.8479  -42.0835 H   0  0  0  0  0  0  0  0  0  0  0  0
  108.8212   79.8299  -42.5787 H   0  0  0  0  0  0  0  0  0  0  0  0
  107.1620   79.1416  -42.5787 H   0  0  0  0  0  0  0  0  0  0  0  0
  107.9484   75.9365  -40.0350 H   0  0  0  0  0  0  0  0  0  0  0  0
  108.1422   77.4259  -37.9083 H   0  0  0  0  0  0  0  0  0  0  0  0
  109.1767   75.9280  -38.1921 H   0  0  0  0  0  0  0  0  0  0  0  0
  109.9672   78.6917  -37.7171 H   0  0  0  0  0  0  0  0  0  0  0  0
  110.9030   77.1279  -37.6440 H   0  0  0  0  0  0  0  0  0  0  0  0
  112.5600   78.3520  -38.1331 H   0  0  0  0  0  0  0  0  0  0  0  0
  113.0091   78.1604  -39.8829 H   0  0  0  0  0  0  0  0  0  0  0  0
  110.6213   80.2209  -40.5499 H   0  0  0  0  0  0  0  0  0  0  0  0
  108.3171   84.8301  -42.3148 H   0  0  0  0  0  0  0  0  0  0  0  0
  107.5786   83.1910  -42.4601 H   0  0  0  0  0  0  0  0  0  0  0  0
  105.3649   82.8463  -41.8004 H   0  0  0  0  0  0  0  0  0  0  0  0
  104.1109   80.9258  -40.8282 H   0  0  0  0  0  0  0  0  0  0  0  0
  104.6539   80.1197  -38.5290 H   0  0  0  0  0  0  0  0  0  0  0  0
  106.4456   81.2450  -37.2108 H   0  0  0  0  0  0  0  0  0  0  0  0
  107.6880   83.1833  -38.1758 H   0  0  0  0  0  0  0  0  0  0  0  0
  112.4651   84.0270  -39.6852 H   0  0  0  0  0  0  0  0  0  0  0  0
  114.8120   79.5510  -38.6620 H   0  0  0  0  0  0  0  0  0  0  0  0
  111.7334   77.1629  -41.1813 H   0  0  0  0  0  0  0  0  0  0  0  0
  111.3398   76.0700  -39.8188 H   0  0  0  0  0  0  0  0  0  0  0  0
  109.4682   77.4433  -41.7883 H   0  0  0  0  0  0  0  0  0  0  0  0
  109.5971   75.6827  -41.3283 H   0  0  0  0  0  0  0  0  0  0  0  0
  1  2  1  0
  2  3  1  0
  3  4  1  0
  4  5  1  0
  3  6  1  0
  6  7  1  0
  7  8  1  0
  8  9  1  0
  9 10  1  0
 10 11  1  0
 11 12  2  0
 12 13  1  0
 13 14  1  0
 14 15  3  0
 15 16  1  0
 16 17  1  0
 17 18  1  0
 18 19  2  0
 19 20  1  0
 20 21  2  0
 21 22  1  0
 22 23  2  0
 13 24  2  0
 24 25  1  0
 25 26  1  0
 25 27  2  0
 27 28  1  0
  9 29  1  0
 29 30  1  0
 30  6  1  0
 27 11  1  0
 23 18  1  0
  1 31  1  0
  1 32  1  0
  1 33  1  0
  2 34  1  0
  2 35  1  0
  3 36  1  0
  4 37  1  0
  4 38  1  0
  5 39  1  0
  5 40  1  0
  5 41  1  0
  6 42  1  0
  7 43  1  0
  7 44  1  0
  8 45  1  0
  8 46  1  0
 10 47  1  0
 10 48  1  0
 12 49  1  0
 16 50  1  0
 16 51  1  0
 19 52  1  0
 20 53  1  0
 21 54  1  0
 22 55  1  0
 23 56  1  0
 24 57  1  0
 28 58  1  0
 29 59  1  0
 29 60  1  0
 30 61  1  0
 30 62  1  0
M  CHG  1   3   1
M  END
>  <meeko>  (2) 
{"is_sidechain": [false], "free_energy": -6.407, "intermolecular_energy": -8.328, "internal_energy": -2.595}

$$$$
4agp_ligand
     RDKit          3D

 62 64  0  0  0  0  0  0  0  0999 V2000
  106.0430   82.2030  -37.0420 C   0  0  0  0  0  0  0  0  0  0  0  0
  105.5450   81.8250  -38.4260 C   0  0  0  0  0  0  0  0  0  0  0  0
  106.5150   82.2820  -39.5050 N   0  0  0  0  0  0  0  0  0  0  0  0
  107.4080   83.4560  -39.1240 C   0  0  0  0  0  0  0  0  0  0  0  0
  108.8950   83.2080  -39.2830 C   0  0  0  0  0  0  0  0  0  0  0  0
  105.8690   82.2880  -40.9070 C   0  0  0  0  0  0  0  0  0  0  0  0
  106.0550   80.9540  -41.6380 C   0  0  0  0  0  0  0  0  0  0  0  0
  107.2790   80.8700  -42.5540 C   0  0  0  0  0  0  0  0  0  0  0  0
  107.9270   82.1710  -42.7690 N   0  0  0  0  0  0  0  0  0  0  0  0
  108.9130   82.0860  -43.8800 C   0  0  0  0  0  0  0  0  0  0  0  0
  109.5280   83.4310  -44.2020 C   0  0  0  0  0  0  0  0  0  0  0  0
  110.1940   84.1380  -43.1880 C   0  0  0  0  0  0  0  0  0  0  0  0
  110.8410   85.3460  -43.4510 C   0  0  0  0  0  0  0  0  0  0  0  0
  111.6120   85.9510  -42.4120 C   0  0  0  0  0  0  0  0  0  0  0  0
  112.3000   86.3490  -41.5120 C   0  0  0  0  0  0  0  0  0  0  0  0
  113.0490   86.8710  -40.3630 C   0  0  0  0  0  0  0  0  0  0  0  0
  112.3020   87.9010  -39.7030 O   0  0  0  0  0  0  0  0  0  0  0  0
  112.3490   89.1670  -40.2190 C   0  0  0  0  0  0  0  0  0  0  0  0
  113.6210   89.7480  -40.2220 C   0  0  0  0  0  0  0  0  0  0  0  0
  113.8130   91.0390  -40.7180 C   0  0  0  0  0  0  0  0  0  0  0  0
  112.7340   91.7520  -41.2320 C   0  0  0  0  0  0  0  0  0  0  0  0
  111.4660   91.1730  -41.2480 C   0  0  0  0  0  0  0  0  0  0  0  0
  111.2720   89.8820  -40.7440 C   0  0  0  0  0  0  0  0  0  0  0  0
  110.7820   85.9040  -44.7250 C   0  0  0  0  0  0  0  0  0  0  0  0
  110.0850   85.2370  -45.7360 C   0  0  0  0  0  0  0  0  0  0  0  0
  110.0190   86.1020  -47.6380 I   0  0  0  0  0  0  0  0  0  0  0  0
  109.4690   84.0030  -45.4790 C   0  0  0  0  0  0  0  0  0  0  0  0
  108.8070   83.3150  -46.4600 O   0  0  0  0  0  0  0  0  0  0  0  0
  106.9320   83.2040  -43.0400 C   0  0  0  0  0  0  0  0  0  0  0  0
  106.1990   83.5300  -41.7390 C   0  0  0  0  0  0  0  0  0  0  0  0
  105.4104   81.7228  -36.2809 H   0  0  0  0  0  0  0  0  0  0  0  0
  107.0827   81.8646  -36.9213 H   0  0  0  0  0  0  0  0  0  0  0  0
  105.9966   83.2954  -36.9213 H   0  0  0  0  0  0  0  0  0  0  0  0
  105.4359   80.7318  -38.4816 H   0  0  0  0  0  0  0  0  0  0  0  0
  104.5779   82.3211  -38.5951 H   0  0  0  0  0  0  0  0  0  0  0  0
  107.1870   81.5070  -39.5710 H   0  0  0  0  0  0  0  0  0  0  0  0
  107.1351   84.3122  -39.7584 H   0  0  0  0  0  0  0  0  0  0  0  0
  107.2392   83.6353  -38.0519 H   0  0  0  0  0  0  0  0  0  0  0  0
  109.3620   83.1301  -38.2901 H   0  0  0  0  0  0  0  0  0  0  0  0
  109.0533   82.2711  -39.8371 H   0  0  0  0  0  0  0  0  0  0  0  0
  109.3488   84.0429  -39.8371 H   0  0  0  0  0  0  0  0  0  0  0  0
  104.7846   82.3786  -40.7459 H   0  0  0  0  0  0  0  0  0  0  0  0
  106.1437   80.1617  -40.8802 H   0  0  0  0  0  0  0  0  0  0  0  0
  105.1787   80.8439  -42.2937 H   0  0  0  0  0  0  0  0  0  0  0  0
  108.0102   80.1853  -42.0996 H   0  0  0  0  0  0  0  0  0  0  0  0
  106.9320   80.5100  -43.5338 H   0  0  0  0  0  0  0  0  0  0  0  0
  109.7142   81.3902  -43.5902 H   0  0  0  0  0  0  0  0  0  0  0  0
  108.3822   81.7337  -44.7767 H   0  0  0  0  0  0  0  0  0  0  0  0
  110.2059   83.7315  -42.1659 H   0  0  0  0  0  0  0  0  0  0  0  0
  113.2412   86.0523  -39.6540 H   0  0  0  0  0  0  0  0  0  0  0  0
  113.9994   87.2941  -40.7203 H   0  0  0  0  0  0  0  0  0  0  0  0
  114.4789   89.1823  -39.8297 H   0  0  0  0  0  0  0  0  0  0  0  0
  114.8154   91.4917  -40.7025 H   0  0  0  0  0  0  0  0  0  0  0  0
  112.8812   92.7691  -41.6243 H   0  0  0  0  0  0  0  0  0  0  0  0
  110.6136   91.7338  -41.6589 H   0  0  0  0  0  0  0  0  0  0  0  0
  110.2692   89.4303  -40.7617 H   0  0  0  0  0  0  0  0  0  0  0  0
  111.2800   86.8622  -44.9342 H   0  0  0  0  0  0  0  0  0  0  0  0
  109.3750   83.3130  -47.2540 H   0  0  0  0  0  0  0  0  0  0  0  0
  107.4305   84.1076  -43.4207 H   0  0  0  0  0  0  0  0  0  0  0  0
  106.2160   82.8466  -43.7948 H   0  0  0  0  0  0  0  0  0  0  0  0
  106.8345   84.1959  -41.1367 H   0  0  0  0  0  0  0  0  0  0  0  0
  105.2449   84.0052  -42.0108 H   0  0  0  0  0  0  0  0  0  0  0  0
  1  2  1  0
  2  3  1  0
  3  4  1  0
  4  5  1  0
  3  6  1  0
  6  7  1  0
  7  8  1  0
  8  9  1  0
  9 10  1  0
 10 11  1  0
 11 12  2  0
 12 13  1  0
 13 14  1  0
 14 15  3  0
 15 16  1  0
 16 17  1  0
 17 18  1  0
 18 19  2  0
 19 20  1  0
 20 21  2  0
 21 22  1  0
 22 23  2  0
 13 24  2  0
 24 25  1  0
 25 26  1  0
 25 27  2  0
 27 28  1  0
  9 29  1  0
 29 30  1  0
 30  6  1  0
 27 11  1  0
 23 18  1  0
  1 31  1  0
  1 32  1  0
  1 33  1  0
  2 34  1  0
  2 35  1  0
  3 36  1  0
  4 37  1  0
  4 38  1  0
  5 39  1  0
  5 40  1  0
  5 41  1  0
  6 42  1  0
  7 43  1  0
  7 44  1  0
  8 45  1  0
  8 46  1  0
 10 47  1  0
 10 48  1  0
 12 49  1  0
 16 50  1  0
 16 51  1  0
 19 52  1  0
 20 53  1  0
 21 54  1  0
 22 55  1  0
 23 56  1  0
 24 57  1  0
 28 58  1  0
 29 59  1  0
 29 60  1  0
 30 61  1  0
 30 62  1  0
M  CHG  1   3   1
M  END
>  <meeko>  (3) 
{"is_sidechain": [false], "free_energy": -6.359, "intermolecular_energy": -9.468, "internal_energy": -1.383}

$$$$
4agp_ligand
     RDKit          3D

 62 64  0  0  0  0  0  0  0  0999 V2000
  105.7320   80.5400  -40.2820 C   0  0  0  0  0  0  0  0  0  0  0  0
  105.5070   81.9860  -39.8710 C   0  0  0  0  0  0  0  0  0  0  0  0
  106.8270   82.7110  -39.6580 N   0  0  0  0  0  0  0  0  0  0  0  0
  107.1520   83.0600  -38.2120 C   0  0  0  0  0  0  0  0  0  0  0  0
  106.2810   82.3750  -37.1770 C   0  0  0  0  0  0  0  0  0  0  0  0
  107.0850   83.7830  -40.7390 C   0  0  0  0  0  0  0  0  0  0  0  0
  105.9610   83.8410  -41.7790 C   0  0  0  0  0  0  0  0  0  0  0  0
  106.1790   82.9860  -43.0310 C   0  0  0  0  0  0  0  0  0  0  0  0
  107.5430   82.4520  -43.1340 N   0  0  0  0  0  0  0  0  0  0  0  0
  107.7820   81.8870  -44.4890 C   0  0  0  0  0  0  0  0  0  0  0  0
  107.6950   80.3750  -44.5010 C   0  0  0  0  0  0  0  0  0  0  0  0
  107.9800   79.6660  -43.3240 C   0  0  0  0  0  0  0  0  0  0  0  0
  107.8420   78.2780  -43.2620 C   0  0  0  0  0  0  0  0  0  0  0  0
  108.0170   77.6270  -42.0030 C   0  0  0  0  0  0  0  0  0  0  0  0
  108.1050   77.1720  -40.8960 C   0  0  0  0  0  0  0  0  0  0  0  0
  108.1780   76.7100  -39.5050 C   0  0  0  0  0  0  0  0  0  0  0  0
  108.3290   77.8230  -38.6140 O   0  0  0  0  0  0  0  0  0  0  0  0
  109.3490   78.7040  -38.8450 C   0  0  0  0  0  0  0  0  0  0  0  0
  110.6260   78.2000  -38.5750 C   0  0  0  0  0  0  0  0  0  0  0  0
  111.7590   78.9930  -38.7640 C   0  0  0  0  0  0  0  0  0  0  0  0
  111.6240   80.2940  -39.2410 C   0  0  0  0  0  0  0  0  0  0  0  0
  110.3560   80.7980  -39.5280 C   0  0  0  0  0  0  0  0  0  0  0  0
  109.2200   80.0050  -39.3320 C   0  0  0  0  0  0  0  0  0  0  0  0
  107.4750   77.5640  -44.4000 C   0  0  0  0  0  0  0  0  0  0  0  0
  107.2300   78.2500  -45.5920 C   0  0  0  0  0  0  0  0  0  0  0  0
  106.6780   77.1470  -47.2800 I   0  0  0  0  0  0  0  0  0  0  0  0
  107.3310   79.6490  -45.6410 C   0  0  0  0  0  0  0  0  0  0  0  0
  107.0670   80.3460  -46.7890 O   0  0  0  0  0  0  0  0  0  0  0  0
  108.5270   83.4870  -42.8260 C   0  0  0  0  0  0  0  0  0  0  0  0
  108.5000   83.7520  -41.3200 C   0  0  0  0  0  0  0  0  0  0  0  0
  105.8294   79.9141  -39.3827 H   0  0  0  0  0  0  0  0  0  0  0  0
  104.8773   80.1916  -40.8804 H   0  0  0  0  0  0  0  0  0  0  0  0
  106.6522   80.4678  -40.8804 H   0  0  0  0  0  0  0  0  0  0  0  0
  104.9396   82.4992  -40.6614 H   0  0  0  0  0  0  0  0  0  0  0  0
  104.9487   81.9950  -38.9233 H   0  0  0  0  0  0  0  0  0  0  0  0
  107.5340   81.9970  -39.8770 H   0  0  0  0  0  0  0  0  0  0  0  0
  108.1975   82.7774  -38.0193 H   0  0  0  0  0  0  0  0  0  0  0  0
  106.9650   84.1388  -38.1063 H   0  0  0  0  0  0  0  0  0  0  0  0
  106.6268   82.6470  -36.1688 H   0  0  0  0  0  0  0  0  0  0  0  0
  105.2369   82.6965  -37.3057 H   0  0  0  0  0  0  0  0  0  0  0  0
  106.3474   81.2846  -37.3057 H   0  0  0  0  0  0  0  0  0  0  0  0
  107.0501   84.7546  -40.2245 H   0  0  0  0  0  0  0  0  0  0  0  0
  105.0329   83.5031  -41.2947 H   0  0  0  0  0  0  0  0  0  0  0  0
  105.9239   84.8838  -42.1271 H   0  0  0  0  0  0  0  0  0  0  0  0
  105.4738   82.1422  -43.0058 H   0  0  0  0  0  0  0  0  0  0  0  0
  106.0142   83.6348  -43.9038 H   0  0  0  0  0  0  0  0  0  0  0  0
  107.0271   82.2909  -45.1796 H   0  0  0  0  0  0  0  0  0  0  0  0
  108.7990   82.1696  -44.7985 H   0  0  0  0  0  0  0  0  0  0  0  0
  108.3188   80.2145  -42.4327 H   0  0  0  0  0  0  0  0  0  0  0  0
  107.2540   76.1683  -39.2544 H   0  0  0  0  0  0  0  0  0  0  0  0
  109.0481   76.0459  -39.3957 H   0  0  0  0  0  0  0  0  0  0  0  0
  110.7382   77.1684  -38.2101 H   0  0  0  0  0  0  0  0  0  0  0  0
  112.7571   78.5906  -38.5364 H   0  0  0  0  0  0  0  0  0  0  0  0
  112.5145   80.9221  -39.3909 H   0  0  0  0  0  0  0  0  0  0  0  0
  110.2483   81.8238  -39.9103 H   0  0  0  0  0  0  0  0  0  0  0  0
  108.2229   80.4083  -39.5624 H   0  0  0  0  0  0  0  0  0  0  0  0
  107.3788   76.4689  -44.3606 H   0  0  0  0  0  0  0  0  0  0  0  0
  107.4610   79.8500  -47.5330 H   0  0  0  0  0  0  0  0  0  0  0  0
  109.5294   83.1462  -43.1245 H   0  0  0  0  0  0  0  0  0  0  0  0
  108.2868   84.4096  -43.3747 H   0  0  0  0  0  0  0  0  0  0  0  0
  109.0681   82.9569  -40.8148 H   0  0  0  0  0  0  0  0  0  0  0  0
  108.9432   84.7451  -41.1547 H   0  0  0  0  0  0  0  0  0  0  0  0
  1  2  1  0
  2  3  1  0
  3  4  1  0
  4  5  1  0
  3  6  1  0
  6  7  1  0
  7  8  1  0
  8  9  1  0
  9 10  1  0
 10 11  1  0
 11 12  2  0
 12 13  1  0
 13 14  1  0
 14 15  3  0
 15 16  1  0
 16 17  1  0
 17 18  1  0
 18 19  2  0
 19 20  1  0
 20 21  2  0
 21 22  1  0
 22 23  2  0
 13 24  2  0
 24 25  1  0
 25 26  1  0
 25 27  2  0
 27 28  1  0
  9 29  1  0
 29 30  1  0
 30  6  1  0
 27 11  1  0
 23 18  1  0
  1 31  1  0
  1 32  1  0
  1 33  1  0
  2 34  1  0
  2 35  1  0
  3 36  1  0
  4 37  1  0
  4 38  1  0
  5 39  1  0
  5 40  1  0
  5 41  1  0
  6 42  1  0
  7 43  1  0
  7 44  1  0
  8 45  1  0
  8 46  1  0
 10 47  1  0
 10 48  1  0
 12 49  1  0
 16 50  1  0
 16 51  1  0
 19 52  1  0
 20 53  1  0
 21 54  1  0
 22 55  1  0
 23 56  1  0
 24 57  1  0
 28 58  1  0
 29 59  1  0
 29 60  1  0
 30 61  1  0
 30 62  1  0
M  CHG  1   3   1
M  END
>  <meeko>  (4) 
{"is_sidechain": [false], "free_energy": -6.275, "intermolecular_energy": -8.481, "internal_energy": -2.244}

$$$$
4agp_ligand
     RDKit          3D

 62 64  0  0  0  0  0  0  0  0999 V2000
  110.2870   84.2860  -44.3090 C   0  0  0  0  0  0  0  0  0  0  0  0
  110.2540   84.3280  -42.7910 C   0  0  0  0  0  0  0  0  0  0  0  0
  109.1960   83.3860  -42.2360 N   0  0  0  0  0  0  0  0  0  0  0  0
  109.1030   82.0310  -42.9260 C   0  0  0  0  0  0  0  0  0  0  0  0
  109.1260   80.8350  -41.9950 C   0  0  0  0  0  0  0  0  0  0  0  0
  107.8800   84.1200  -41.8980 C   0  0  0  0  0  0  0  0  0  0  0  0
  107.6380   84.2120  -40.3880 C   0  0  0  0  0  0  0  0  0  0  0  0
  106.7910   83.0870  -39.7870 C   0  0  0  0  0  0  0  0  0  0  0  0
  106.1450   82.2460  -40.8040 N   0  0  0  0  0  0  0  0  0  0  0  0
  105.1170   81.3700  -40.1810 C   0  0  0  0  0  0  0  0  0  0  0  0
  105.4020   79.9010  -40.4140 C   0  0  0  0  0  0  0  0  0  0  0  0
  104.6390   79.2000  -41.3610 C   0  0  0  0  0  0  0  0  0  0  0  0
  104.9100   77.8650  -41.6670 C   0  0  0  0  0  0  0  0  0  0  0  0
  104.1880   77.2450  -42.7320 C   0  0  0  0  0  0  0  0  0  0  0  0
  103.5940   76.8270  -43.6870 C   0  0  0  0  0  0  0  0  0  0  0  0
  102.7830   76.3750  -44.8230 C   0  0  0  0  0  0  0  0  0  0  0  0
  101.3860   76.5020  -44.5250 O   0  0  0  0  0  0  0  0  0  0  0  0
  100.5930   75.3950  -44.6510 C   0  0  0  0  0  0  0  0  0  0  0  0
  101.1600   74.3540  -45.3930 C   0  0  0  0  0  0  0  0  0  0  0  0
  100.4590   73.1650  -45.6030 C   0  0  0  0  0  0  0  0  0  0  0  0
   99.1880   73.0030  -45.0570 C   0  0  0  0  0  0  0  0  0  0  0  0
   98.6230   74.0300  -44.3030 C   0  0  0  0  0  0  0  0  0  0  0  0
   99.3240   75.2240  -44.0980 C   0  0  0  0  0  0  0  0  0  0  0  0
  105.9150   77.1850  -40.9830 C   0  0  0  0  0  0  0  0  0  0  0  0
  106.6550   77.8550  -40.0050 C   0  0  0  0  0  0  0  0  0  0  0  0
  108.1570   76.8050  -38.9990 I   0  0  0  0  0  0  0  0  0  0  0  0
  106.4060   79.2080  -39.7280 C   0  0  0  0  0  0  0  0  0  0  0  0
  107.1380   79.8940  -38.7960 O   0  0  0  0  0  0  0  0  0  0  0  0
  105.5530   83.0700  -41.8540 C   0  0  0  0  0  0  0  0  0  0  0  0
  106.6770   83.6450  -42.7160 C   0  0  0  0  0  0  0  0  0  0  0  0
  110.9354   83.4609  -44.6390 H   0  0  0  0  0  0  0  0  0  0  0  0
  109.2686   84.1284  -44.6937 H   0  0  0  0  0  0  0  0  0  0  0  0
  110.6810   85.2383  -44.6937 H   0  0  0  0  0  0  0  0  0  0  0  0
  111.2390   84.0297  -42.4026 H   0  0  0  0  0  0  0  0  0  0  0  0
  110.0065   85.3527  -42.4768 H   0  0  0  0  0  0  0  0  0  0  0  0
  109.5580   83.1350  -41.3070 H   0  0  0  0  0  0  0  0  0  0  0  0
  108.1624   82.0020  -43.4956 H   0  0  0  0  0  0  0  0  0  0  0  0
  109.9992   81.9458  -43.5581 H   0  0  0  0  0  0  0  0  0  0  0  0
  109.1193   81.1826  -40.9514 H   0  0  0  0  0  0  0  0  0  0  0  0
  108.2397   80.2100  -42.1790 H   0  0  0  0  0  0  0  0  0  0  0  0
  110.0357   80.2445  -42.1790 H   0  0  0  0  0  0  0  0  0  0  0  0
  108.0117   85.1601  -42.2309 H   0  0  0  0  0  0  0  0  0  0  0  0
  108.6171   84.2041  -39.8867 H   0  0  0  0  0  0  0  0  0  0  0  0
  107.0665   85.1384  -40.2294 H   0  0  0  0  0  0  0  0  0  0  0  0
  107.4415   82.4511  -39.1685 H   0  0  0  0  0  0  0  0  0  0  0  0
  105.9923   83.5579  -39.1951 H   0  0  0  0  0  0  0  0  0  0  0  0
  105.0986   81.5601  -39.0977 H   0  0  0  0  0  0  0  0  0  0  0  0
  104.1472   81.6041  -40.6443 H   0  0  0  0  0  0  0  0  0  0  0  0
  103.8109   79.7128  -41.8723 H   0  0  0  0  0  0  0  0  0  0  0  0
  103.0221   76.9874  -45.7049 H   0  0  0  0  0  0  0  0  0  0  0  0
  103.0093   75.3173  -45.0231 H   0  0  0  0  0  0  0  0  0  0  0  0
  102.1686   74.4732  -45.8155 H   0  0  0  0  0  0  0  0  0  0  0  0
  100.9097   72.3575  -46.1987 H   0  0  0  0  0  0  0  0  0  0  0  0
   98.6321   72.0679  -45.2203 H   0  0  0  0  0  0  0  0  0  0  0  0
   97.6213   73.9016  -43.8669 H   0  0  0  0  0  0  0  0  0  0  0  0
   98.8731   76.0293  -43.4995 H   0  0  0  0  0  0  0  0  0  0  0  0
  106.1244   76.1294  -41.2108 H   0  0  0  0  0  0  0  0  0  0  0  0
  108.0780   79.6740  -38.9390 H   0  0  0  0  0  0  0  0  0  0  0  0
  104.8867   82.4546  -42.4764 H   0  0  0  0  0  0  0  0  0  0  0  0
  104.9685   83.8868  -41.4055 H   0  0  0  0  0  0  0  0  0  0  0  0
  107.0151   82.8660  -43.4152 H   0  0  0  0  0  0  0  0  0  0  0  0
  106.2709   84.5224  -43.2406 H   0  0  0  0  0  0  0  0  0  0  0  0
  1  2  1  0
  2  3  1  0
  3  4  1  0
  4  5  1  0
  3  6  1  0
  6  7  1  0
  7  8  1  0
  8  9  1  0
  9 10  1  0
 10 11  1  0
 11 12  2  0
 12 13  1  0
 13 14  1  0
 14 15  3  0
 15 16  1  0
 16 17  1  0
 17 18  1  0
 18 19  2  0
 19 20  1  0
 20 21  2  0
 21 22  1  0
 22 23  2  0
 13 24  2  0
 24 25  1  0
 25 26  1  0
 25 27  2  0
 27 28  1  0
  9 29  1  0
 29 30  1  0
 30  6  1  0
 27 11  1  0
 23 18  1  0
  1 31  1  0
  1 32  1  0
  1 33  1  0
  2 34  1  0
  2 35  1  0
  3 36  1  0
  4 37  1  0
  4 38  1  0
  5 39  1  0
  5 40  1  0
  5 41  1  0
  6 42  1  0
  7 43  1  0
  7 44  1  0
  8 45  1  0
  8 46  1  0
 10 47  1  0
 10 48  1  0
 12 49  1  0
 16 50  1  0
 16 51  1  0
 19 52  1  0
 20 53  1  0
 21 54  1  0
 22 55  1  0
 23 56  1  0
 24 57  1  0
 28 58  1  0
 29 59  1  0
 29 60  1  0
 30 61  1  0
 30 62  1  0
M  CHG  1   3   1
M  END
>  <meeko>  (5) 
{"is_sidechain": [false], "free_energy": -6.201, "intermolecular_energy": -9.051, "internal_energy": -1.563}

$$$$
4agp_ligand
     RDKit          3D

 62 64  0  0  0  0  0  0  0  0999 V2000
  104.2860   81.6970  -37.4050 C   0  0  0  0  0  0  0  0  0  0  0  0
  104.5220   81.3320  -38.8610 C   0  0  0  0  0  0  0  0  0  0  0  0
  105.7470   82.0430  -39.4170 N   0  0  0  0  0  0  0  0  0  0  0  0
  105.8800   82.0210  -40.9340 C   0  0  0  0  0  0  0  0  0  0  0  0
  105.9850   83.3850  -41.5880 C   0  0  0  0  0  0  0  0  0  0  0  0
  107.0120   81.7740  -38.5730 C   0  0  0  0  0  0  0  0  0  0  0  0
  107.7340   83.0670  -38.1810 C   0  0  0  0  0  0  0  0  0  0  0  0
  108.8500   83.5110  -39.1300 C   0  0  0  0  0  0  0  0  0  0  0  0
  109.2060   82.4870  -40.1210 N   0  0  0  0  0  0  0  0  0  0  0  0
  110.4720   82.8470  -40.8140 C   0  0  0  0  0  0  0  0  0  0  0  0
  110.2320   83.3200  -42.2330 C   0  0  0  0  0  0  0  0  0  0  0  0
  110.6970   84.5870  -42.6180 C   0  0  0  0  0  0  0  0  0  0  0  0
  110.5660   85.0380  -43.9320 C   0  0  0  0  0  0  0  0  0  0  0  0
  111.1760   86.2770  -44.2950 C   0  0  0  0  0  0  0  0  0  0  0  0
  111.7820   87.2860  -44.5330 C   0  0  0  0  0  0  0  0  0  0  0  0
  112.4780   88.5620  -44.7350 C   0  0  0  0  0  0  0  0  0  0  0  0
  111.7840   89.6240  -44.0680 O   0  0  0  0  0  0  0  0  0  0  0  0
  111.9700   89.7730  -42.7220 C   0  0  0  0  0  0  0  0  0  0  0  0
  111.1690   90.7540  -42.1280 C   0  0  0  0  0  0  0  0  0  0  0  0
  111.2570   91.0140  -40.7600 C   0  0  0  0  0  0  0  0  0  0  0  0
  112.1380   90.2810  -39.9690 C   0  0  0  0  0  0  0  0  0  0  0  0
  112.9290   89.2900  -40.5510 C   0  0  0  0  0  0  0  0  0  0  0  0
  112.8450   89.0350  -41.9240 C   0  0  0  0  0  0  0  0  0  0  0  0
  109.9100   84.2520  -44.8760 C   0  0  0  0  0  0  0  0  0  0  0  0
  109.4010   83.0060  -44.4980 C   0  0  0  0  0  0  0  0  0  0  0  0
  108.4240   81.8510  -45.9410 I   0  0  0  0  0  0  0  0  0  0  0  0
  109.5680   82.5390  -43.1860 C   0  0  0  0  0  0  0  0  0  0  0  0
  109.1060   81.3090  -42.8000 O   0  0  0  0  0  0  0  0  0  0  0  0
  109.3190   81.1750  -39.4890 C   0  0  0  0  0  0  0  0  0  0  0  0
  107.9160   80.6780  -39.1420 C   0  0  0  0  0  0  0  0  0  0  0  0
  104.7686   80.9506  -36.7570 H   0  0  0  0  0  0  0  0  0  0  0  0
  104.7135   82.6900  -37.2020 H   0  0  0  0  0  0  0  0  0  0  0  0
  103.2050   81.7147  -37.2020 H   0  0  0  0  0  0  0  0  0  0  0  0
  104.6726   80.2451  -38.9382 H   0  0  0  0  0  0  0  0  0  0  0  0
  103.6437   81.6453  -39.4445 H   0  0  0  0  0  0  0  0  0  0  0  0
  105.5580   83.0360  -39.2270 H   0  0  0  0  0  0  0  0  0  0  0  0
  106.7848   81.4498  -41.1890 H   0  0  0  0  0  0  0  0  0  0  0  0
  104.9543   81.5668  -41.3172 H   0  0  0  0  0  0  0  0  0  0  0  0
  106.0447   84.1608  -40.8105 H   0  0  0  0  0  0  0  0  0  0  0  0
  106.8887   83.4229  -42.2140 H   0  0  0  0  0  0  0  0  0  0  0  0
  105.0977   83.5608  -42.2140 H   0  0  0  0  0  0  0  0  0  0  0  0
  106.6639   81.3410  -37.6236 H   0  0  0  0  0  0  0  0  0  0  0  0
  106.9864   83.8727  -38.1362 H   0  0  0  0  0  0  0  0  0  0  0  0
  108.2212   82.8609  -37.2165 H   0  0  0  0  0  0  0  0  0  0  0  0
  108.5172   84.4136  -39.6635 H   0  0  0  0  0  0  0  0  0  0  0  0
  109.7445   83.6999  -38.5183 H   0  0  0  0  0  0  0  0  0  0  0  0
  110.9677   83.6517  -40.2512 H   0  0  0  0  0  0  0  0  0  0  0  0
  111.1005   81.9454  -40.8599 H   0  0  0  0  0  0  0  0  0  0  0  0
  111.1739   85.2370  -41.8696 H   0  0  0  0  0  0  0  0  0  0  0  0
  113.4980   88.4859  -44.3302 H   0  0  0  0  0  0  0  0  0  0  0  0
  112.5126   88.7814  -45.8123 H   0  0  0  0  0  0  0  0  0  0  0  0
  110.4620   91.3267  -42.7462 H   0  0  0  0  0  0  0  0  0  0  0  0
  110.6312   91.7970  -40.3069 H   0  0  0  0  0  0  0  0  0  0  0  0
  112.2100   90.4824  -38.8900 H   0  0  0  0  0  0  0  0  0  0  0  0
  113.6221   88.7063  -39.9273 H   0  0  0  0  0  0  0  0  0  0  0  0
  113.4703   88.2508  -42.3756 H   0  0  0  0  0  0  0  0  0  0  0  0
  109.7933   84.6084  -45.9101 H   0  0  0  0  0  0  0  0  0  0  0  0
  109.4410   81.1370  -41.8990 H   0  0  0  0  0  0  0  0  0  0  0  0
  109.8008   80.4700  -40.1824 H   0  0  0  0  0  0  0  0  0  0  0  0
  109.9278   81.2491  -38.5758 H   0  0  0  0  0  0  0  0  0  0  0  0
  107.4502   80.2798  -40.0555 H   0  0  0  0  0  0  0  0  0  0  0  0
  108.0250   79.9076  -38.3644 H   0  0  0  0  0  0  0  0  0  0  0  0
  1  2  1  0
  2  3  1  0
  3  4  1  0
  4  5  1  0
  3  6  1  0
  6  7  1  0
  7  8  1  0
  8  9  1  0
  9 10  1  0
 10 11  1  0
 11 12  2  0
 12 13  1  0
 13 14  1  0
 14 15  3  0
 15 16  1  0
 16 17  1  0
 17 18  1  0
 18 19  2  0
 19 20  1  0
 20 21  2  0
 21 22  1  0
 22 23  2  0
 13 24  2  0
 24 25  1  0
 25 26  1  0
 25 27  2  0
 27 28  1  0
  9 29  1  0
 29 30  1  0
 30  6  1  0
 27 11  1  0
 23 18  1  0
  1 31  1  0
  1 32  1  0
  1 33  1  0
  2 34  1  0
  2 35  1  0
  3 36  1  0
  4 37  1  0
  4 38  1  0
  5 39  1  0
  5 40  1  0
  5 41  1  0
  6 42  1  0
  7 43  1  0
  7 44  1  0
  8 45  1  0
  8 46  1  0
 10 47  1  0
 10 48  1  0
 12 49  1  0
 16 50  1  0
 16 51  1  0
 19 52  1  0
 20 53  1  0
 21 54  1  0
 22 55  1  0
 23 56  1  0
 24 57  1  0
 28 58  1  0
 29 59  1  0
 29 60  1  0
 30 61  1  0
 30 62  1  0
M  CHG  1   3   1
M  END
>  <meeko>  (6) 
{"is_sidechain": [false], "free_energy": -6.187, "intermolecular_energy": -9.028, "internal_energy": -1.565}

$$$$
4agp_ligand
     RDKit          3D

 62 64  0  0  0  0  0  0  0  0999 V2000
  109.3860   83.1960  -39.6060 C   0  0  0  0  0  0  0  0  0  0  0  0
  107.9430   83.5160  -39.2560 C   0  0  0  0  0  0  0  0  0  0  0  0
  106.9760   82.7270  -40.1260 N   0  0  0  0  0  0  0  0  0  0  0  0
  106.3210   83.5160  -41.2520 C   0  0  0  0  0  0  0  0  0  0  0  0
  106.7930   83.1540  -42.6470 C   0  0  0  0  0  0  0  0  0  0  0  0
  106.0890   81.7740  -39.2960 C   0  0  0  0  0  0  0  0  0  0  0  0
  106.9070   80.6910  -38.5850 C   0  0  0  0  0  0  0  0  0  0  0  0
  107.0560   79.3720  -39.3480 C   0  0  0  0  0  0  0  0  0  0  0  0
  106.1780   79.2820  -40.5220 N   0  0  0  0  0  0  0  0  0  0  0  0
  106.1460   77.8900  -41.0460 C   0  0  0  0  0  0  0  0  0  0  0  0
  105.9540   77.8500  -42.5480 C   0  0  0  0  0  0  0  0  0  0  0  0
  104.8200   77.2100  -43.0740 C   0  0  0  0  0  0  0  0  0  0  0  0
  104.5590   77.2090  -44.4450 C   0  0  0  0  0  0  0  0  0  0  0  0
  103.3250   76.6590  -44.9070 C   0  0  0  0  0  0  0  0  0  0  0  0
  102.2360   76.2490  -45.2020 C   0  0  0  0  0  0  0  0  0  0  0  0
  100.8630   75.8170  -45.4880 C   0  0  0  0  0  0  0  0  0  0  0  0
  100.0080   76.0850  -44.3690 O   0  0  0  0  0  0  0  0  0  0  0  0
   99.1130   75.1220  -43.9940 C   0  0  0  0  0  0  0  0  0  0  0  0
   99.2370   73.9100  -44.6810 C   0  0  0  0  0  0  0  0  0  0  0  0
   98.3850   72.8410  -44.4000 C   0  0  0  0  0  0  0  0  0  0  0  0
   97.4100   72.9710  -43.4150 C   0  0  0  0  0  0  0  0  0  0  0  0
   97.2900   74.1710  -42.7140 C   0  0  0  0  0  0  0  0  0  0  0  0
   98.1400   75.2450  -43.0010 C   0  0  0  0  0  0  0  0  0  0  0  0
  105.4630   77.7980  -45.3260 C   0  0  0  0  0  0  0  0  0  0  0  0
  106.6190   78.4010  -44.8230 C   0  0  0  0  0  0  0  0  0  0  0  0
  107.9530   79.2770  -46.1740 I   0  0  0  0  0  0  0  0  0  0  0  0
  106.8590   78.4340  -43.4410 C   0  0  0  0  0  0  0  0  0  0  0  0
  107.9690   79.0450  -42.9230 O   0  0  0  0  0  0  0  0  0  0  0  0
  104.8310   79.7410  -40.1950 C   0  0  0  0  0  0  0  0  0  0  0  0
  104.8560   81.2620  -40.0460 C   0  0  0  0  0  0  0  0  0  0  0  0
  109.9676   83.0670  -38.6813 H   0  0  0  0  0  0  0  0  0  0  0  0
  109.4232   82.2678  -40.1951 H   0  0  0  0  0  0  0  0  0  0  0  0
  109.8121   84.0215  -40.1951 H   0  0  0  0  0  0  0  0  0  0  0  0
  107.7652   83.2615  -38.2007 H   0  0  0  0  0  0  0  0  0  0  0  0
  107.7725   84.5885  -39.4313 H   0  0  0  0  0  0  0  0  0  0  0  0
  107.5860   82.0770  -40.6390 H   0  0  0  0  0  0  0  0  0  0  0  0
  105.2358   83.3432  -41.2034 H   0  0  0  0  0  0  0  0  0  0  0  0
  106.6032   84.5675  -41.0952 H   0  0  0  0  0  0  0  0  0  0  0  0
  107.6641   82.4859  -42.5775 H   0  0  0  0  0  0  0  0  0  0  0  0
  105.9820   82.6441  -43.1877 H   0  0  0  0  0  0  0  0  0  0  0  0
  107.0752   84.0694  -43.1877 H   0  0  0  0  0  0  0  0  0  0  0  0
  105.6544   82.3817  -38.4886 H   0  0  0  0  0  0  0  0  0  0  0  0
  107.9146   81.0925  -38.4018 H   0  0  0  0  0  0  0  0  0  0  0  0
  106.3534   80.4481  -37.6660 H   0  0  0  0  0  0  0  0  0  0  0  0
  108.0994   79.2777  -39.6834 H   0  0  0  0  0  0  0  0  0  0  0  0
  106.7687   78.5621  -38.6613 H   0  0  0  0  0  0  0  0  0  0  0  0
  107.0964   77.3954  -40.7968 H   0  0  0  0  0  0  0  0  0  0  0  0
  105.2930   77.3733  -40.5819 H   0  0  0  0  0  0  0  0  0  0  0  0
  104.1239   76.6996  -42.3921 H   0  0  0  0  0  0  0  0  0  0  0  0
  100.4885   76.3607  -46.3679 H   0  0  0  0  0  0  0  0  0  0  0  0
  100.8644   74.7344  -45.6829 H   0  0  0  0  0  0  0  0  0  0  0  0
  100.0145   73.7982  -45.4511 H   0  0  0  0  0  0  0  0  0  0  0  0
   98.4838   71.8971  -44.9561 H   0  0  0  0  0  0  0  0  0  0  0  0
   96.7367   72.1306  -43.1903 H   0  0  0  0  0  0  0  0  0  0  0  0
   96.5235   74.2736  -41.9318 H   0  0  0  0  0  0  0  0  0  0  0  0
   98.0411   76.1878  -42.4430 H   0  0  0  0  0  0  0  0  0  0  0  0
  105.2686   77.7886  -46.4086 H   0  0  0  0  0  0  0  0  0  0  0  0
  108.5620   78.3460  -42.5860 H   0  0  0  0  0  0  0  0  0  0  0  0
  104.1377   79.4591  -41.0011 H   0  0  0  0  0  0  0  0  0  0  0  0
  104.4939   79.2773  -39.2562 H   0  0  0  0  0  0  0  0  0  0  0  0
  104.8454   81.7119  -41.0497 H   0  0  0  0  0  0  0  0  0  0  0  0
  103.9725   81.5474  -39.4562 H   0  0  0  0  0  0  0  0  0  0  0  0
  1  2  1  0
  2  3  1  0
  3  4  1  0
  4  5  1  0
  3  6  1  0
  6  7  1  0
  7  8  1  0
  8  9  1  0
  9 10  1  0
 10 11  1  0
 11 12  2  0
 12 13  1  0
 13 14  1  0
 14 15  3  0
 15 16  1  0
 16 17  1  0
 17 18  1  0
 18 19  2  0
 19 20  1  0
 20 21  2  0
 21 22  1  0
 22 23  2  0
 13 24  2  0
 24 25  1  0
 25 26  1  0
 25 27  2  0
 27 28  1  0
  9 29  1  0
 29 30  1  0
 30  6  1  0
 27 11  1  0
 23 18  1  0
  1 31  1  0
  1 32  1  0
  1 33  1  0
  2 34  1  0
  2 35  1  0
  3 36  1  0
  4 37  1  0
  4 38  1  0
  5 39  1  0
  5 40  1  0
  5 41  1  0
  6 42  1  0
  7 43  1  0
  7 44  1  0
  8 45  1  0
  8 46  1  0
 10 47  1  0
 10 48  1  0
 12 49  1  0
 16 50  1  0
 16 51  1  0
 19 52  1  0
 20 53  1  0
 21 54  1  0
 22 55  1  0
 23 56  1  0
 24 57  1  0
 28 58  1  0
 29 59  1  0
 29 60  1  0
 30 61  1  0
 30 62  1  0
M  CHG  1   3   1
M  END
>  <meeko>  (7) 
{"is_sidechain": [false], "free_energy": -6.175, "intermolecular_energy": -9.206, "internal_energy": -1.369}

$$$$
4agp_ligand
     RDKit          3D

 62 64  0  0  0  0  0  0  0  0999 V2000
  109.4880   84.2210  -42.7310 C   0  0  0  0  0  0  0  0  0  0  0  0
  108.6060   83.0680  -42.2810 C   0  0  0  0  0  0  0  0  0  0  0  0
  108.5690   82.9610  -40.7640 N   0  0  0  0  0  0  0  0  0  0  0  0
  109.4270   81.8540  -40.1680 C   0  0  0  0  0  0  0  0  0  0  0  0
  110.8010   82.2910  -39.6980 C   0  0  0  0  0  0  0  0  0  0  0  0
  107.1440   83.1580  -40.2000 C   0  0  0  0  0  0  0  0  0  0  0  0
  106.9540   82.4600  -38.8490 C   0  0  0  0  0  0  0  0  0  0  0  0
  106.3850   81.0400  -38.9170 C   0  0  0  0  0  0  0  0  0  0  0  0
  105.8840   80.6830  -40.2510 N   0  0  0  0  0  0  0  0  0  0  0  0
  105.0890   79.4270  -40.1910 C   0  0  0  0  0  0  0  0  0  0  0  0
  105.4470   78.4700  -41.3090 C   0  0  0  0  0  0  0  0  0  0  0  0
  104.4220   77.9320  -42.1020 C   0  0  0  0  0  0  0  0  0  0  0  0
  104.7040   77.1050  -43.1900 C   0  0  0  0  0  0  0  0  0  0  0  0
  103.6310   76.6960  -44.0380 C   0  0  0  0  0  0  0  0  0  0  0  0
  102.6850   76.4640  -44.7410 C   0  0  0  0  0  0  0  0  0  0  0  0
  101.4690   76.2360  -45.5290 C   0  0  0  0  0  0  0  0  0  0  0  0
  100.3050   76.3480  -44.7000 O   0  0  0  0  0  0  0  0  0  0  0  0
   99.5650   75.2210  -44.4670 C   0  0  0  0  0  0  0  0  0  0  0  0
   98.5570   75.3740  -43.5100 C   0  0  0  0  0  0  0  0  0  0  0  0
   97.7270   74.3030  -43.1720 C   0  0  0  0  0  0  0  0  0  0  0  0
   97.8910   73.0730  -43.8030 C   0  0  0  0  0  0  0  0  0  0  0  0
   98.8830   72.9170  -44.7690 C   0  0  0  0  0  0  0  0  0  0  0  0
   99.7190   73.9890  -45.1030 C   0  0  0  0  0  0  0  0  0  0  0  0
  106.0220   76.7490  -43.4690 C   0  0  0  0  0  0  0  0  0  0  0  0
  107.0520   77.2400  -42.6630 C   0  0  0  0  0  0  0  0  0  0  0  0
  109.0170   76.6870  -43.1120 I   0  0  0  0  0  0  0  0  0  0  0  0
  106.7670   78.1030  -41.5940 C   0  0  0  0  0  0  0  0  0  0  0  0
  107.7620   78.6210  -40.8090 O   0  0  0  0  0  0  0  0  0  0  0  0
  105.0900   81.7710  -40.8120 C   0  0  0  0  0  0  0  0  0  0  0  0
  106.0320   82.9040  -41.2200 C   0  0  0  0  0  0  0  0  0  0  0  0
  109.8874   84.7431  -41.8490 H   0  0  0  0  0  0  0  0  0  0  0  0
  110.3209   83.8315  -43.3349 H   0  0  0  0  0  0  0  0  0  0  0  0
  108.8941   84.9229  -43.3349 H   0  0  0  0  0  0  0  0  0  0  0  0
  107.5841   83.2316  -42.6539 H   0  0  0  0  0  0  0  0  0  0  0  0
  109.0224   82.1336  -42.6853 H   0  0  0  0  0  0  0  0  0  0  0  0
  109.0540   83.8100  -40.4490 H   0  0  0  0  0  0  0  0  0  0  0  0
  108.8895   81.4324  -39.3058 H   0  0  0  0  0  0  0  0  0  0  0  0
  109.5953   81.1267  -40.9759 H   0  0  0  0  0  0  0  0  0  0  0  0
  110.8269   82.2992  -38.5983 H   0  0  0  0  0  0  0  0  0  0  0  0
  111.5586   81.5895  -40.0774 H   0  0  0  0  0  0  0  0  0  0  0  0
  111.0141   83.3013  -40.0774 H   0  0  0  0  0  0  0  0  0  0  0  0
  107.0414   84.2319  -39.9849 H   0  0  0  0  0  0  0  0  0  0  0  0
  107.9343   82.4093  -38.3525 H   0  0  0  0  0  0  0  0  0  0  0  0
  106.2110   83.0580  -38.3010 H   0  0  0  0  0  0  0  0  0  0  0  0
  107.1792   80.3310  -38.6401 H   0  0  0  0  0  0  0  0  0  0  0  0
  105.5323   80.9949  -38.2236 H   0  0  0  0  0  0  0  0  0  0  0  0
  105.2795   78.9328  -39.2269 H   0  0  0  0  0  0  0  0  0  0  0  0
  104.0274   79.6934  -40.3012 H   0  0  0  0  0  0  0  0  0  0  0  0
  103.3747   78.1670  -41.8611 H   0  0  0  0  0  0  0  0  0  0  0  0
  101.4136   76.9839  -46.3337 H   0  0  0  0  0  0  0  0  0  0  0  0
  101.5061   75.2225  -45.9550 H   0  0  0  0  0  0  0  0  0  0  0  0
   98.4164   76.3479  -43.0184 H   0  0  0  0  0  0  0  0  0  0  0  0
   96.9453   74.4310  -42.4088 H   0  0  0  0  0  0  0  0  0  0  0  0
   97.2394   72.2268  -43.5398 H   0  0  0  0  0  0  0  0  0  0  0  0
   99.0098   71.9468  -45.2716 H   0  0  0  0  0  0  0  0  0  0  0  0
  100.4986   73.8597  -45.8682 H   0  0  0  0  0  0  0  0  0  0  0  0
  106.2496   76.0866  -44.3172 H   0  0  0  0  0  0  0  0  0  0  0  0
  107.3640   78.8650  -39.9510 H   0  0  0  0  0  0  0  0  0  0  0  0
  104.5396   81.4113  -41.6939 H   0  0  0  0  0  0  0  0  0  0  0  0
  104.3689   82.1334  -40.0646 H   0  0  0  0  0  0  0  0  0  0  0  0
  106.4940   82.6449  -42.1841 H   0  0  0  0  0  0  0  0  0  0  0  0
  105.4306   83.8228  -41.2846 H   0  0  0  0  0  0  0  0  0  0  0  0
  1  2  1  0
  2  3  1  0
  3  4  1  0
  4  5  1  0
  3  6  1  0
  6  7  1  0
  7  8  1  0
  8  9  1  0
  9 10  1  0
 10 11  1  0
 11 12  2  0
 12 13  1  0
 13 14  1  0
 14 15  3  0
 15 16  1  0
 16 17  1  0
 17 18  1  0
 18 19  2  0
 19 20  1  0
 20 21  2  0
 21 22  1  0
 22 23  2  0
 13 24  2  0
 24 25  1  0
 25 26  1  0
 25 27  2  0
 27 28  1  0
  9 29  1  0
 29 30  1  0
 30  6  1  0
 27 11  1  0
 23 18  1  0
  1 31  1  0
  1 32  1  0
  1 33  1  0
  2 34  1  0
  2 35  1  0
  3 36  1  0
  4 37  1  0
  4 38  1  0
  5 39  1  0
  5 40  1  0
  5 41  1  0
  6 42  1  0
  7 43  1  0
  7 44  1  0
  8 45  1  0
  8 46  1  0
 10 47  1  0
 10 48  1  0
 12 49  1  0
 16 50  1  0
 16 51  1  0
 19 52  1  0
 20 53  1  0
 21 54  1  0
 22 55  1  0
 23 56  1  0
 24 57  1  0
 28 58  1  0
 29 59  1  0
 29 60  1  0
 30 61  1  0
 30 62  1  0
M  CHG  1   3   1
M  END
>  <meeko>  (8) 
{"is_sidechain": [false], "free_energy": -6.113, "intermolecular_energy": -9.24, "internal_energy": -1.242}

$$$$
4agp_ligand
     RDKit          3D

 62 64  0  0  0  0  0  0  0  0999 V2000
  104.3800   77.1420  -40.4370 C   0  0  0  0  0  0  0  0  0  0  0  0
  105.8990   77.1550  -40.4400 C   0  0  0  0  0  0  0  0  0  0  0  0
  106.4390   78.5770  -40.4050 N   0  0  0  0  0  0  0  0  0  0  0  0
  107.4170   78.8730  -39.2750 C   0  0  0  0  0  0  0  0  0  0  0  0
  108.0290   77.6500  -38.6210 C   0  0  0  0  0  0  0  0  0  0  0  0
  105.3470   79.6240  -40.7120 C   0  0  0  0  0  0  0  0  0  0  0  0
  105.4970   80.2240  -42.1140 C   0  0  0  0  0  0  0  0  0  0  0  0
  106.3110   81.5190  -42.1920 C   0  0  0  0  0  0  0  0  0  0  0  0
  106.5970   82.1000  -40.8740 N   0  0  0  0  0  0  0  0  0  0  0  0
  107.1220   83.4850  -41.0150 C   0  0  0  0  0  0  0  0  0  0  0  0
  108.6180   83.5060  -41.2520 C   0  0  0  0  0  0  0  0  0  0  0  0
  109.1350   84.3060  -42.2830 C   0  0  0  0  0  0  0  0  0  0  0  0
  110.5100   84.4180  -42.4940 C   0  0  0  0  0  0  0  0  0  0  0  0
  110.9800   85.3480  -43.4700 C   0  0  0  0  0  0  0  0  0  0  0  0
  111.2920   86.2060  -44.2500 C   0  0  0  0  0  0  0  0  0  0  0  0
  111.7620   87.2690  -45.1460 C   0  0  0  0  0  0  0  0  0  0  0  0
  112.6860   88.1270  -44.4640 O   0  0  0  0  0  0  0  0  0  0  0  0
  112.1940   89.0000  -43.5340 C   0  0  0  0  0  0  0  0  0  0  0  0
  112.4150   88.6210  -42.2060 C   0  0  0  0  0  0  0  0  0  0  0  0
  111.9640   89.4180  -41.1530 C   0  0  0  0  0  0  0  0  0  0  0  0
  111.2990   90.6120  -41.4220 C   0  0  0  0  0  0  0  0  0  0  0  0
  111.0890   91.0040  -42.7430 C   0  0  0  0  0  0  0  0  0  0  0  0
  111.5360   90.2020  -43.7980 C   0  0  0  0  0  0  0  0  0  0  0  0
  111.3960   83.6800  -41.7130 C   0  0  0  0  0  0  0  0  0  0  0  0
  110.8970   82.8440  -40.7110 C   0  0  0  0  0  0  0  0  0  0  0  0
  112.2550   81.7530  -39.5560 I   0  0  0  0  0  0  0  0  0  0  0  0
  109.5160   82.7640  -40.4750 C   0  0  0  0  0  0  0  0  0  0  0  0
  109.0040   81.9750  -39.4800 O   0  0  0  0  0  0  0  0  0  0  0  0
  105.4030   82.0850  -40.0330 C   0  0  0  0  0  0  0  0  0  0  0  0
  105.1330   80.6460  -39.5930 C   0  0  0  0  0  0  0  0  0  0  0  0
  104.0154   77.1389  -39.3992 H   0  0  0  0  0  0  0  0  0  0  0  0
  104.0046   78.0370  -40.9548 H   0  0  0  0  0  0  0  0  0  0  0  0
  104.0200   76.2407  -40.9548 H   0  0  0  0  0  0  0  0  0  0  0  0
  106.2639   76.6112  -39.5562 H   0  0  0  0  0  0  0  0  0  0  0  0
  106.2488   76.6731  -41.3649 H   0  0  0  0  0  0  0  0  0  0  0  0
  107.0410   78.6290  -41.2360 H   0  0  0  0  0  0  0  0  0  0  0  0
  108.2338   79.4868  -39.6826 H   0  0  0  0  0  0  0  0  0  0  0  0
  106.8368   79.3827  -38.4917 H   0  0  0  0  0  0  0  0  0  0  0  0
  107.9768   77.7543  -37.5272 H   0  0  0  0  0  0  0  0  0  0  0  0
  107.4739   76.7522  -38.9306 H   0  0  0  0  0  0  0  0  0  0  0  0
  109.0803   77.5560  -38.9306 H   0  0  0  0  0  0  0  0  0  0  0  0
  104.3926   79.0775  -40.7336 H   0  0  0  0  0  0  0  0  0  0  0  0
  105.9888   79.4753  -42.7524 H   0  0  0  0  0  0  0  0  0  0  0  0
  104.4800   80.4857  -42.4415 H   0  0  0  0  0  0  0  0  0  0  0  0
  107.2657   81.3027  -42.6939 H   0  0  0  0  0  0  0  0  0  0  0  0
  105.7091   82.2516  -42.7497 H   0  0  0  0  0  0  0  0  0  0  0  0
  106.6212   83.9692  -41.8663 H   0  0  0  0  0  0  0  0  0  0  0  0
  106.9203   84.0209  -40.0758 H   0  0  0  0  0  0  0  0  0  0  0  0
  108.4426   84.8556  -42.9377 H   0  0  0  0  0  0  0  0  0  0  0  0
  112.2621   86.8158  -46.0146 H   0  0  0  0  0  0  0  0  0  0  0  0
  110.8983   87.8654  -45.4749 H   0  0  0  0  0  0  0  0  0  0  0  0
  112.9501   87.6847  -41.9892 H   0  0  0  0  0  0  0  0  0  0  0  0
  112.1333   89.1039  -40.1125 H   0  0  0  0  0  0  0  0  0  0  0  0
  110.9410   91.2431  -40.5952 H   0  0  0  0  0  0  0  0  0  0  0  0
  110.5688   91.9493  -42.9569 H   0  0  0  0  0  0  0  0  0  0  0  0
  111.3686   90.5193  -44.8379 H   0  0  0  0  0  0  0  0  0  0  0  0
  112.4801   83.7547  -41.8837 H   0  0  0  0  0  0  0  0  0  0  0  0
  109.6330   81.2430  -39.3310 H   0  0  0  0  0  0  0  0  0  0  0  0
  105.5650   82.7186  -39.1485 H   0  0  0  0  0  0  0  0  0  0  0  0
  104.5419   82.4729  -40.5969 H   0  0  0  0  0  0  0  0  0  0  0  0
  105.8106   80.4015  -38.7617 H   0  0  0  0  0  0  0  0  0  0  0  0
  104.0759   80.5880  -39.2946 H   0  0  0  0  0  0  0  0  0  0  0  0
  1  2  1  0
  2  3  1  0
  3  4  1  0
  4  5  1  0
  3  6  1  0
  6  7  1  0
  7  8  1  0
  8  9  1  0
  9 10  1  0
 10 11  1  0
 11 12  2  0
 12 13  1  0
 13 14  1  0
 14 15  3  0
 15 16  1  0
 16 17  1  0
 17 18  1  0
 18 19  2  0
 19 20  1  0
 20 21  2  0
 21 22  1  0
 22 23  2  0
 13 24  2  0
 24 25  1  0
 25 26  1  0
 25 27  2  0
 27 28  1  0
  9 29  1  0
 29 30  1  0
 30  6  1  0
 27 11  1  0
 23 18  1  0
  1 31  1  0
  1 32  1  0
  1 33  1  0
  2 34  1  0
  2 35  1  0
  3 36  1  0
  4 37  1  0
  4 38  1  0
  5 39  1  0
  5 40  1  0
  5 41  1  0
  6 42  1  0
  7 43  1  0
  7 44  1  0
  8 45  1  0
  8 46  1  0
 10 47  1  0
 10 48  1  0
 12 49  1  0
 16 50  1  0
 16 51  1  0
 19 52  1  0
 20 53  1  0
 21 54  1  0
 22 55  1  0
 23 56  1  0
 24 57  1  0
 28 58  1  0
 29 59  1  0
 29 60  1  0
 30 61  1  0
 30 62  1  0
M  CHG  1   3   1
M  END
>  <meeko>  (9) 
{"is_sidechain": [false], "free_energy": -5.993, "intermolecular_energy": -8.812, "internal_energy": -1.489}

$$$$
