2yki_ligand
     RDKit          3D

 52 58  0  0  0  0  0  0  0  0999 V2000
    2.7780   10.2830   23.3960 O   0  0  0  0  0  0  0  0  0  0  0  0
    3.0060   10.4460   24.5880 C   0  0  0  0  0  0  0  0  0  0  0  0
    4.0570   11.1910   25.0640 N   0  0  0  0  0  0  0  0  0  0  0  0
    4.9310   11.9170   24.1740 C   0  0  2  0  0  0  0  0  0  0  0  0
    6.2310   11.1650   23.9610 C   0  0  0  0  0  0  0  0  0  0  0  0
    6.3930    9.9210   23.3660 C   0  0  0  0  0  0  0  0  0  0  0  0
    7.6890    9.4350   23.2010 C   0  0  0  0  0  0  0  0  0  0  0  0
    8.7910   10.2010   23.6080 C   0  0  0  0  0  0  0  0  0  0  0  0
    8.6170   11.4550   24.2040 C   0  0  0  0  0  0  0  0  0  0  0  0
    7.3310   11.9310   24.4130 C   0  0  0  0  0  0  0  0  0  0  0  0
    6.8350   13.1770   24.9890 C   0  0  0  0  0  0  0  0  0  0  0  0
    7.4670   14.2510   25.6180 C   0  0  0  0  0  0  0  0  0  0  0  0
    8.8780   14.2720   25.9830 C   0  0  0  0  0  0  0  0  0  0  0  0
    9.9060   14.1320   25.1680 N   0  0  0  0  0  0  0  0  0  0  0  0
   11.0290   14.2740   25.9480 C   0  0  0  0  0  0  0  0  0  0  0  0
   12.3760   14.1950   25.5980 C   0  0  0  0  0  0  0  0  0  0  0  0
   13.2750   14.3900   26.6350 C   0  0  0  0  0  0  0  0  0  0  0  0
   12.9360   14.6460   27.9220 N   0  0  0  0  0  0  0  0  0  0  0  0
   11.6260   14.7250   28.2570 C   0  0  0  0  0  0  0  0  0  0  0  0
   10.6810   14.5370   27.2650 C   0  0  0  0  0  0  0  0  0  0  0  0
    9.3130   14.5510   27.2600 N   0  0  0  0  0  0  0  0  0  0  0  0
    6.6810   15.3650   25.9740 C   0  0  0  0  0  0  0  0  0  0  0  0
    5.2950   15.3910   25.7580 C   0  0  0  0  0  0  0  0  0  0  0  0
    4.6530   14.2970   25.1870 C   0  0  0  0  0  0  0  0  0  0  0  0
    5.4250   13.2040   24.8160 C   0  0  0  0  0  0  0  0  0  0  0  0
    2.1420    9.8210   25.6160 C   0  0  0  0  0  0  0  0  0  0  0  0
    2.6190    8.8070   26.4560 C   0  0  0  0  0  0  0  0  0  0  0  0
    1.7590    8.2680   27.4010 C   0  0  0  0  0  0  0  0  0  0  0  0
    0.4730    8.6310   27.5950 N   0  0  0  0  0  0  0  0  0  0  0  0
    0.0720    9.6200   26.7760 C   0  0  0  0  0  0  0  0  0  0  0  0
   -1.1810   10.1700   26.7910 N   0  0  0  0  0  0  0  0  0  0  0  0
   -1.2690   11.1510   25.8370 C   0  0  0  0  0  0  0  0  0  0  0  0
   -0.0460   11.2290   25.2020 C   0  0  0  0  0  0  0  0  0  0  0  0
    0.8160   10.2600   25.7910 C   0  0  0  0  0  0  0  0  0  0  0  0
    4.2310   11.2750   26.0550 H   0  0  0  0  0  0  0  0  0  0  0  0
    4.3430   12.0726   23.2574 H   0  0  0  0  0  0  0  0  0  0  0  0
    5.5230    9.3354   23.0341 H   0  0  0  0  0  0  0  0  0  0  0  0
    7.8483    8.4449   22.7489 H   0  0  0  0  0  0  0  0  0  0  0  0
    9.8079    9.8100   23.4564 H   0  0  0  0  0  0  0  0  0  0  0  0
    9.4888   12.0555   24.5029 H   0  0  0  0  0  0  0  0  0  0  0  0
   12.7036   13.9915   24.5678 H   0  0  0  0  0  0  0  0  0  0  0  0
   14.3469   14.3325   26.3946 H   0  0  0  0  0  0  0  0  0  0  0  0
   11.3211   14.9337   29.2931 H   0  0  0  0  0  0  0  0  0  0  0  0
    8.7110   14.7230   28.0510 H   0  0  0  0  0  0  0  0  0  0  0  0
    7.1673   16.2380   26.4338 H   0  0  0  0  0  0  0  0  0  0  0  0
    4.7133   16.2805   26.0415 H   0  0  0  0  0  0  0  0  0  0  0  0
    3.5638   14.2977   25.0336 H   0  0  0  0  0  0  0  0  0  0  0  0
    3.6542    8.4456   26.3680 H   0  0  0  0  0  0  0  0  0  0  0  0
    2.1597    7.4750   28.0496 H   0  0  0  0  0  0  0  0  0  0  0  0
   -1.9120    9.8800   27.4240 H   0  0  0  0  0  0  0  0  0  0  0  0
   -2.1547   11.7652   25.6173 H   0  0  0  0  0  0  0  0  0  0  0  0
    0.2166   11.9177   24.3855 H   0  0  0  0  0  0  0  0  0  0  0  0
  1  2  2  0
  2  3  1  0
  3  4  1  0
  4  5  1  0
  5  6  2  0
  6  7  1  0
  7  8  2  0
  8  9  1  0
  9 10  2  0
 10 11  1  0
 11 12  2  0
 12 13  1  0
 13 14  2  0
 14 15  1  0
 15 16  2  0
 16 17  1  0
 17 18  2  0
 18 19  1  0
 19 20  2  0
 20 21  1  0
 12 22  1  0
 22 23  2  0
 23 24  1  0
 24 25  2  0
  2 26  1  0
 26 27  2  0
 27 28  1  0
 28 29  2  0
 29 30  1  0
 30 31  1  0
 31 32  1  0
 32 33  2  0
 33 34  1  0
 25  4  1  0
 34 26  1  0
 10  5  1  0
 25 11  1  0
 34 30  2  0
 21 13  1  0
 20 15  1  0
  3 35  1  0
  4 36  1  6
  6 37  1  0
  7 38  1  0
  8 39  1  0
  9 40  1  0
 16 41  1  0
 17 42  1  0
 19 43  1  0
 21 44  1  0
 22 45  1  0
 23 46  1  0
 24 47  1  0
 27 48  1  0
 28 49  1  0
 31 50  1  0
 32 51  1  0
 33 52  1  0
M  END
>  <meeko>  (1) 
{"is_sidechain": [false], "free_energy": -15.05, "intermolecular_energy": -17.69, "internal_energy": -0.803}

$$$$
2yki_ligand
     RDKit          3D

 52 58  0  0  0  0  0  0  0  0999 V2000
    2.3890   10.5320   23.3970 O   0  0  0  0  0  0  0  0  0  0  0  0
    2.6980   10.5720   24.5810 C   0  0  0  0  0  0  0  0  0  0  0  0
    3.8340   11.1900   25.0480 N   0  0  0  0  0  0  0  0  0  0  0  0
    4.7110   11.9220   24.1660 C   0  0  2  0  0  0  0  0  0  0  0  0
    6.0150   11.1750   23.9600 C   0  0  0  0  0  0  0  0  0  0  0  0
    6.1860    9.9330   23.3630 C   0  0  0  0  0  0  0  0  0  0  0  0
    7.4840    9.4520   23.2060 C   0  0  0  0  0  0  0  0  0  0  0  0
    8.5810   10.2210   23.6220 C   0  0  0  0  0  0  0  0  0  0  0  0
    8.3990   11.4730   24.2200 C   0  0  0  0  0  0  0  0  0  0  0  0
    7.1090   11.9430   24.4220 C   0  0  0  0  0  0  0  0  0  0  0  0
    6.6040   13.1870   24.9980 C   0  0  0  0  0  0  0  0  0  0  0  0
    7.2280   14.2610   25.6340 C   0  0  0  0  0  0  0  0  0  0  0  0
    8.6360   14.2860   26.0090 C   0  0  0  0  0  0  0  0  0  0  0  0
    9.6700   14.1350   25.2040 N   0  0  0  0  0  0  0  0  0  0  0  0
   10.7880   14.2870   25.9890 C   0  0  0  0  0  0  0  0  0  0  0  0
   12.1370   14.2030   25.6510 C   0  0  0  0  0  0  0  0  0  0  0  0
   13.0290   14.4110   26.6920 C   0  0  0  0  0  0  0  0  0  0  0  0
   12.6800   14.6830   27.9730 N   0  0  0  0  0  0  0  0  0  0  0  0
   11.3680   14.7670   28.2970 C   0  0  0  0  0  0  0  0  0  0  0  0
   10.4300   14.5660   27.3010 C   0  0  0  0  0  0  0  0  0  0  0  0
    9.0630   14.5810   27.2850 N   0  0  0  0  0  0  0  0  0  0  0  0
    6.4360   15.3710   25.9880 C   0  0  0  0  0  0  0  0  0  0  0  0
    5.0510   15.3920   25.7620 C   0  0  0  0  0  0  0  0  0  0  0  0
    4.4170   14.2980   25.1840 C   0  0  0  0  0  0  0  0  0  0  0  0
    5.1960   13.2090   24.8150 C   0  0  0  0  0  0  0  0  0  0  0  0
    1.8480    9.9290   25.6080 C   0  0  0  0  0  0  0  0  0  0  0  0
    0.6080   10.4670   25.9760 C   0  0  0  0  0  0  0  0  0  0  0  0
   -0.1400    9.8120   26.9420 C   0  0  0  0  0  0  0  0  0  0  0  0
    0.2170    8.6780   27.5820 N   0  0  0  0  0  0  0  0  0  0  0  0
    1.4050    8.1930   27.1770 C   0  0  0  0  0  0  0  0  0  0  0  0
    1.9740    7.0480   27.6650 N   0  0  0  0  0  0  0  0  0  0  0  0
    3.1810    6.8310   27.0500 C   0  0  0  0  0  0  0  0  0  0  0  0
    3.3840    7.8570   26.1510 C   0  0  0  0  0  0  0  0  0  0  0  0
    2.2600    8.7310   26.2220 C   0  0  0  0  0  0  0  0  0  0  0  0
    4.0700   11.1730   26.0290 H   0  0  0  0  0  0  0  0  0  0  0  0
    4.1287   12.0784   23.2460 H   0  0  0  0  0  0  0  0  0  0  0  0
    5.3205    9.3452   23.0234 H   0  0  0  0  0  0  0  0  0  0  0  0
    7.6497    8.4633   22.7531 H   0  0  0  0  0  0  0  0  0  0  0  0
    9.6002    9.8338   23.4759 H   0  0  0  0  0  0  0  0  0  0  0  0
    9.2665   12.0763   24.5257 H   0  0  0  0  0  0  0  0  0  0  0  0
   12.4723   13.9860   24.6261 H   0  0  0  0  0  0  0  0  0  0  0  0
   14.1026   14.3506   26.4603 H   0  0  0  0  0  0  0  0  0  0  0  0
   11.0557   14.9898   29.3279 H   0  0  0  0  0  0  0  0  0  0  0  0
    8.4540   14.7630   28.0700 H   0  0  0  0  0  0  0  0  0  0  0  0
    6.9158   16.2444   26.4539 H   0  0  0  0  0  0  0  0  0  0  0  0
    4.4641   16.2787   26.0437 H   0  0  0  0  0  0  0  0  0  0  0  0
    3.3288   14.2950   25.0234 H   0  0  0  0  0  0  0  0  0  0  0  0
    0.2355   11.3902   25.5081 H   0  0  0  0  0  0  0  0  0  0  0  0
   -1.1101   10.2553   27.2109 H   0  0  0  0  0  0  0  0  0  0  0  0
    1.5460    6.4660   28.3700 H   0  0  0  0  0  0  0  0  0  0  0  0
    3.8640    5.9899   27.2398 H   0  0  0  0  0  0  0  0  0  0  0  0
    4.2586    7.9793   25.4951 H   0  0  0  0  0  0  0  0  0  0  0  0
  1  2  2  0
  2  3  1  0
  3  4  1  0
  4  5  1  0
  5  6  2  0
  6  7  1  0
  7  8  2  0
  8  9  1  0
  9 10  2  0
 10 11  1  0
 11 12  2  0
 12 13  1  0
 13 14  2  0
 14 15  1  0
 15 16  2  0
 16 17  1  0
 17 18  2  0
 18 19  1  0
 19 20  2  0
 20 21  1  0
 12 22  1  0
 22 23  2  0
 23 24  1  0
 24 25  2  0
  2 26  1  0
 26 27  2  0
 27 28  1  0
 28 29  2  0
 29 30  1  0
 30 31  1  0
 31 32  1  0
 32 33  2  0
 33 34  1  0
 25  4  1  0
 34 26  1  0
 10  5  1  0
 25 11  1  0
 34 30  2  0
 21 13  1  0
 20 15  1  0
  3 35  1  0
  4 36  1  6
  6 37  1  0
  7 38  1  0
  8 39  1  0
  9 40  1  0
 16 41  1  0
 17 42  1  0
 19 43  1  0
 21 44  1  0
 22 45  1  0
 23 46  1  0
 24 47  1  0
 27 48  1  0
 28 49  1  0
 31 50  1  0
 32 51  1  0
 33 52  1  0
M  END
>  <meeko>  (2) 
{"is_sidechain": [false], "free_energy": -14.748, "intermolecular_energy": -17.25, "internal_energy": -0.887}

$$$$
