3b68_ligand
     RDKit          3D

 49 50  0  0  0  0  0  0  0  0999 V2000
   29.6720   -0.3970   13.9330 C   0  0  0  0  0  0  0  0  0  0  0  0
   30.2320   -0.0910   12.5670 C   0  0  0  0  0  0  0  0  0  0  0  0
   31.4420   -0.1130   12.3660 O   0  0  0  0  0  0  0  0  0  0  0  0
   29.2420    0.2290   11.6540 N   0  0  0  0  0  0  0  0  0  0  0  0
   29.4050    0.5560   10.2920 C   0  0  0  0  0  0  0  0  0  0  0  0
   30.1750   -0.1840    9.3970 C   0  0  0  0  0  0  0  0  0  0  0  0
   30.2780    0.2100    8.0570 C   0  0  0  0  0  0  0  0  0  0  0  0
   29.6220    1.3500    7.5950 C   0  0  0  0  0  0  0  0  0  0  0  0
   29.8030    1.6220    6.2690 O   0  0  0  0  0  0  0  0  0  0  0  0
   30.2150    0.5330    5.4360 C   0  0  0  0  0  0  0  0  0  0  0  0
   29.5730    0.6880    4.0470 C   0  0  2  0  0  0  0  0  0  0  0  0
   29.2750   -0.6790    3.4320 C   0  0  0  0  0  0  0  0  0  0  0  0
   30.5230    1.3190    3.1730 O   0  0  0  0  0  0  0  0  0  0  0  0
   28.2820    1.5540    4.1230 C   0  0  0  0  0  0  0  0  0  0  0  0
   27.2240    1.0350    4.4780 O   0  0  0  0  0  0  0  0  0  0  0  0
   28.4410    2.8800    3.7560 N   0  0  0  0  0  0  0  0  0  0  0  0
   27.4520    3.8870    3.7230 C   0  0  0  0  0  0  0  0  0  0  0  0
   27.9000    5.2110    3.6340 C   0  0  0  0  0  0  0  0  0  0  0  0
   26.9910    6.2700    3.5890 C   0  0  0  0  0  0  0  0  0  0  0  0
   25.6170    6.0000    3.6380 C   0  0  0  0  0  0  0  0  0  0  0  0
   24.7090    7.1370    3.5580 N   0  0  0  0  0  0  0  0  0  0  0  0
   24.5520    7.6540    2.4470 O   0  0  0  0  0  0  0  0  0  0  0  0
   24.1910    7.5170    4.6150 O   0  0  0  0  0  0  0  0  0  0  0  0
   25.1330    4.6900    3.7490 C   0  0  0  0  0  0  0  0  0  0  0  0
   23.6610    4.3790    3.8390 C   0  0  0  0  0  0  0  0  0  0  0  0
   23.3770    3.0750    3.5600 F   0  0  0  0  0  0  0  0  0  0  0  0
   22.9130    5.1100    2.9750 F   0  0  0  0  0  0  0  0  0  0  0  0
   23.1530    4.5930    5.0830 F   0  0  0  0  0  0  0  0  0  0  0  0
   26.0750    3.6390    3.7790 C   0  0  0  0  0  0  0  0  0  0  0  0
   28.8420    2.0900    8.4820 C   0  0  0  0  0  0  0  0  0  0  0  0
   28.7360    1.6930    9.8220 C   0  0  0  0  0  0  0  0  0  0  0  0
   30.3604   -0.0209   14.7042 H   0  0  0  0  0  0  0  0  0  0  0  0
   28.6929    0.0915   14.0457 H   0  0  0  0  0  0  0  0  0  0  0  0
   29.5542   -1.4849   14.0457 H   0  0  0  0  0  0  0  0  0  0  0  0
   28.2930    0.2400   12.0020 H   0  0  0  0  0  0  0  0  0  0  0  0
   30.7051   -1.0829    9.7449 H   0  0  0  0  0  0  0  0  0  0  0  0
   30.8842   -0.3876    7.3603 H   0  0  0  0  0  0  0  0  0  0  0  0
   31.3106    0.5390    5.3377 H   0  0  0  0  0  0  0  0  0  0  0  0
   29.8959   -0.4184    5.8866 H   0  0  0  0  0  0  0  0  0  0  0  0
   29.1146   -1.4147    4.2339 H   0  0  0  0  0  0  0  0  0  0  0  0
   28.3704   -0.6118    2.8097 H   0  0  0  0  0  0  0  0  0  0  0  0
   30.1255   -0.9944    2.8097 H   0  0  0  0  0  0  0  0  0  0  0  0
   30.3480    0.9460    2.2830 H   0  0  0  0  0  0  0  0  0  0  0  0
   29.3610    3.1660    3.4460 H   0  0  0  0  0  0  0  0  0  0  0  0
   28.9796    5.4189    3.5992 H   0  0  0  0  0  0  0  0  0  0  0  0
   27.3504    7.3070    3.5157 H   0  0  0  0  0  0  0  0  0  0  0  0
   25.7188    2.6005    3.8480 H   0  0  0  0  0  0  0  0  0  0  0  0
   28.3094    2.9859    8.1302 H   0  0  0  0  0  0  0  0  0  0  0  0
   28.1182    2.2832   10.5148 H   0  0  0  0  0  0  0  0  0  0  0  0
  1  2  1  0
  2  3  2  0
  2  4  1  0
  4  5  1  0
  5  6  2  0
  6  7  1  0
  7  8  2  0
  8  9  1  0
  9 10  1  0
 10 11  1  0
 11 12  1  0
 11 13  1  6
 11 14  1  0
 14 15  2  0
 14 16  1  0
 16 17  1  0
 17 18  2  0
 18 19  1  0
 19 20  2  0
 20 21  1  0
 21 22  2  0
 21 23  1  0
 20 24  1  0
 24 25  1  0
 25 26  1  0
 25 27  1  0
 25 28  1  0
 24 29  2  0
  8 30  1  0
 30 31  2  0
 31  5  1  0
 29 17  1  0
  1 32  1  0
  1 33  1  0
  1 34  1  0
  4 35  1  0
  6 36  1  0
  7 37  1  0
 10 38  1  0
 10 39  1  0
 12 40  1  0
 12 41  1  0
 12 42  1  0
 13 43  1  0
 16 44  1  0
 18 45  1  0
 19 46  1  0
 29 47  1  0
 30 48  1  0
 31 49  1  0
M  CHG  2  21   1  23  -1
M  END
>  <meeko>  (1) 
{"is_sidechain": [false], "free_energy": -11.682, "intermolecular_energy": -17.487, "internal_energy": -0.574}

$$$$
3b68_ligand
     RDKit          3D

 49 50  0  0  0  0  0  0  0  0999 V2000
   29.9070   -0.2170   13.7620 C   0  0  0  0  0  0  0  0  0  0  0  0
   30.4380   -0.0240   12.3630 C   0  0  0  0  0  0  0  0  0  0  0  0
   31.6360   -0.1390   12.1260 O   0  0  0  0  0  0  0  0  0  0  0  0
   29.4400    0.3110   11.4650 N   0  0  0  0  0  0  0  0  0  0  0  0
   29.5750    0.5510   10.0830 C   0  0  0  0  0  0  0  0  0  0  0  0
   30.3080   -0.2590    9.2170 C   0  0  0  0  0  0  0  0  0  0  0  0
   30.3850    0.0510    7.8540 C   0  0  0  0  0  0  0  0  0  0  0  0
   29.7410    1.1740    7.3380 C   0  0  0  0  0  0  0  0  0  0  0  0
   29.8940    1.3600    5.9940 O   0  0  0  0  0  0  0  0  0  0  0  0
   30.5350    0.3090    5.2640 C   0  0  0  0  0  0  0  0  0  0  0  0
   29.8220    0.1240    3.9130 C   0  0  2  0  0  0  0  0  0  0  0  0
   29.9100   -1.3300    3.4490 C   0  0  0  0  0  0  0  0  0  0  0  0
   30.5140    0.9000    2.9210 O   0  0  0  0  0  0  0  0  0  0  0  0
   28.3400    0.5900    3.9970 C   0  0  0  0  0  0  0  0  0  0  0  0
   27.4570   -0.2340    4.2370 O   0  0  0  0  0  0  0  0  0  0  0  0
   28.1350    1.9410    3.7710 N   0  0  0  0  0  0  0  0  0  0  0  0
   26.9070    2.6360    3.7780 C   0  0  0  0  0  0  0  0  0  0  0  0
   25.7400    1.8610    3.8040 C   0  0  0  0  0  0  0  0  0  0  0  0
   24.4820    2.4650    3.8190 C   0  0  0  0  0  0  0  0  0  0  0  0
   24.3890    3.8620    3.8040 C   0  0  0  0  0  0  0  0  0  0  0  0
   23.0540    4.4440    3.8510 N   0  0  0  0  0  0  0  0  0  0  0  0
   22.5030    4.6760    2.7700 O   0  0  0  0  0  0  0  0  0  0  0  0
   22.5880    4.6890    4.9700 O   0  0  0  0  0  0  0  0  0  0  0  0
   25.5320    4.6700    3.7560 C   0  0  0  0  0  0  0  0  0  0  0  0
   25.4560    6.1740    3.7020 C   0  0  0  0  0  0  0  0  0  0  0  0
   24.9250    6.6370    2.5350 F   0  0  0  0  0  0  0  0  0  0  0  0
   26.6710    6.7690    3.8130 F   0  0  0  0  0  0  0  0  0  0  0  0
   24.6680    6.6970    4.6810 F   0  0  0  0  0  0  0  0  0  0  0  0
   26.7920    4.0320    3.7550 C   0  0  0  0  0  0  0  0  0  0  0  0
   28.9980    1.9830    8.1950 C   0  0  0  0  0  0  0  0  0  0  0  0
   28.9170    1.6710    9.5600 C   0  0  0  0  0  0  0  0  0  0  0  0
   30.6817    0.0646   14.4903 H   0  0  0  0  0  0  0  0  0  0  0  0
   29.0193    0.4160   13.9078 H   0  0  0  0  0  0  0  0  0  0  0  0
   29.6329   -1.2723   13.9078 H   0  0  0  0  0  0  0  0  0  0  0  0
   28.5060    0.4050   11.8420 H   0  0  0  0  0  0  0  0  0  0  0  0
   30.8285   -1.1463    9.6066 H   0  0  0  0  0  0  0  0  0  0  0  0
   30.9617   -0.6007    7.1811 H   0  0  0  0  0  0  0  0  0  0  0  0
   31.5892    0.5711    5.0909 H   0  0  0  0  0  0  0  0  0  0  0  0
   30.4833   -0.6264    5.8405 H   0  0  0  0  0  0  0  0  0  0  0  0
   29.9501   -1.9929    4.3259 H   0  0  0  0  0  0  0  0  0  0  0  0
   29.0251   -1.5759    2.8436 H   0  0  0  0  0  0  0  0  0  0  0  0
   30.8181   -1.4674    2.8436 H   0  0  0  0  0  0  0  0  0  0  0  0
   30.1420    0.6160    2.0600 H   0  0  0  0  0  0  0  0  0  0  0  0
   28.9470    2.5000    3.5450 H   0  0  0  0  0  0  0  0  0  0  0  0
   25.8163    0.7637    3.8127 H   0  0  0  0  0  0  0  0  0  0  0  0
   23.5711    1.8487    3.8424 H   0  0  0  0  0  0  0  0  0  0  0  0
   27.7047    4.6457    3.7357 H   0  0  0  0  0  0  0  0  0  0  0  0
   28.4747    2.8667    7.8010 H   0  0  0  0  0  0  0  0  0  0  0  0
   28.3281    2.3154   10.2293 H   0  0  0  0  0  0  0  0  0  0  0  0
  1  2  1  0
  2  3  2  0
  2  4  1  0
  4  5  1  0
  5  6  2  0
  6  7  1  0
  7  8  2  0
  8  9  1  0
  9 10  1  0
 10 11  1  0
 11 12  1  0
 11 13  1  6
 11 14  1  0
 14 15  2  0
 14 16  1  0
 16 17  1  0
 17 18  2  0
 18 19  1  0
 19 20  2  0
 20 21  1  0
 21 22  2  0
 21 23  1  0
 20 24  1  0
 24 25  1  0
 25 26  1  0
 25 27  1  0
 25 28  1  0
 24 29  2  0
  8 30  1  0
 30 31  2  0
 31  5  1  0
 29 17  1  0
  1 32  1  0
  1 33  1  0
  1 34  1  0
  4 35  1  0
  6 36  1  0
  7 37  1  0
 10 38  1  0
 10 39  1  0
 12 40  1  0
 12 41  1  0
 12 42  1  0
 13 43  1  0
 16 44  1  0
 18 45  1  0
 19 46  1  0
 29 47  1  0
 30 48  1  0
 31 49  1  0
M  CHG  2  21   1  23  -1
M  END
>  <meeko>  (2) 
{"is_sidechain": [false], "free_energy": -9.61, "intermolecular_energy": -14.485, "internal_energy": -0.475}

$$$$
