1nc1_ligand
     RDKit          3D

 36 38  0  0  0  0  0  0  0  0999 V2000
   46.9470   77.6940   22.6520 C   0  0  0  0  0  0  0  0  0  0  0  0
   45.6880   77.5840   23.9440 S   0  0  0  0  0  0  0  0  0  0  0  0
   46.4570   78.6200   25.2430 C   0  0  0  0  0  0  0  0  0  0  0  0
   46.7480   77.9040   26.5700 C   0  0  1  0  0  0  0  0  0  0  0  0
   46.6790   78.8220   27.6820 O   0  0  0  0  0  0  0  0  0  0  0  0
   45.5410   78.4690   28.4980 C   0  0  1  0  0  0  0  0  0  0  0  0
   44.8870   79.6810   28.9630 N   0  0  0  0  0  0  0  0  0  0  0  0
   45.1390   80.9400   28.4590 C   0  0  0  0  0  0  0  0  0  0  0  0
   44.3240   81.8370   29.1150 C   0  0  0  0  0  0  0  0  0  0  0  0
   43.5490   81.1030   30.0550 C   0  0  0  0  0  0  0  0  0  0  0  0
   42.5600   81.4050   31.0020 C   0  0  0  0  0  0  0  0  0  0  0  0
   42.0990   82.6900   31.2500 N   0  0  0  0  0  0  0  0  0  0  0  0
   42.0320   80.4070   31.7340 N   0  0  0  0  0  0  0  0  0  0  0  0
   42.4770   79.1550   31.5150 C   0  0  0  0  0  0  0  0  0  0  0  0
   43.4280   78.7470   30.6580 N   0  0  0  0  0  0  0  0  0  0  0  0
   43.9220   79.7700   29.9390 C   0  0  0  0  0  0  0  0  0  0  0  0
   44.6670   77.5110   27.6850 C   0  0  2  0  0  0  0  0  0  0  0  0
   43.9440   76.5770   28.4900 O   0  0  0  0  0  0  0  0  0  0  0  0
   45.7220   76.8020   26.8510 C   0  0  2  0  0  0  0  0  0  0  0  0
   46.2960   75.7650   27.6720 O   0  0  0  0  0  0  0  0  0  0  0  0
   47.9410   77.7808   23.1151 H   0  0  0  0  0  0  0  0  0  0  0  0
   46.9113   76.7893   22.0273 H   0  0  0  0  0  0  0  0  0  0  0  0
   46.7550   78.5788   22.0273 H   0  0  0  0  0  0  0  0  0  0  0  0
   47.4090   79.0061   24.8498 H   0  0  0  0  0  0  0  0  0  0  0  0
   45.7241   79.4062   25.4771 H   0  0  0  0  0  0  0  0  0  0  0  0
   47.7573   77.4782   26.4703 H   0  0  0  0  0  0  0  0  0  0  0  0
   45.8171   77.9330   29.4180 H   0  0  0  0  0  0  0  0  0  0  0  0
   45.8650   81.1856   27.6699 H   0  0  0  0  0  0  0  0  0  0  0  0
   44.2807   82.9226   28.9430 H   0  0  0  0  0  0  0  0  0  0  0  0
   42.4150   83.3250   30.5250 H   0  0  0  0  0  0  0  0  0  0  0  0
   41.1220   82.7450   31.5030 H   0  0  0  0  0  0  0  0  0  0  0  0
   42.0009   78.3651   32.1145 H   0  0  0  0  0  0  0  0  0  0  0  0
   43.8773   78.0248   27.1172 H   0  0  0  0  0  0  0  0  0  0  0  0
   43.0780   77.0010   28.6640 H   0  0  0  0  0  0  0  0  0  0  0  0
   45.3512   76.3394   25.9245 H   0  0  0  0  0  0  0  0  0  0  0  0
   46.6290   75.0680   27.0780 H   0  0  0  0  0  0  0  0  0  0  0  0
  1  2  1  0
  2  3  1  0
  3  4  1  0
  4  5  1  0
  5  6  1  0
  6  7  1  0
  7  8  1  0
  8  9  2  0
  9 10  1  0
 10 11  2  0
 11 12  1  0
 11 13  1  0
 13 14  2  0
 14 15  1  0
 15 16  2  0
  6 17  1  0
 17 18  1  0
 17 19  1  0
 19 20  1  0
 19  4  1  0
 16  7  1  0
 16 10  1  0
  1 21  1  0
  1 22  1  0
  1 23  1  0
  3 24  1  0
  3 25  1  0
  4 26  1  6
  6 27  1  1
  8 28  1  0
  9 29  1  0
 12 30  1  0
 12 31  1  0
 14 32  1  0
 17 33  1  6
 18 34  1  0
 19 35  1  6
 20 36  1  0
M  END
>  <meeko>  (1) 
{"is_sidechain": [false], "free_energy": -6.485, "intermolecular_energy": -8.191, "internal_energy": -0.618}

$$$$
1nc1_ligand
     RDKit          3D

 36 38  0  0  0  0  0  0  0  0999 V2000
   44.7870   76.9430   28.3320 C   0  0  0  0  0  0  0  0  0  0  0  0
   44.7870   78.7410   28.5210 S   0  0  0  0  0  0  0  0  0  0  0  0
   44.4810   79.2540   26.7910 C   0  0  0  0  0  0  0  0  0  0  0  0
   45.7110   79.7700   26.0290 C   0  0  1  0  0  0  0  0  0  0  0  0
   46.4430   78.6830   25.4250 O   0  0  0  0  0  0  0  0  0  0  0  0
   46.3250   78.7920   23.9900 C   0  0  1  0  0  0  0  0  0  0  0  0
   46.1700   77.4640   23.4170 N   0  0  0  0  0  0  0  0  0  0  0  0
   46.9910   76.9400   22.4410 C   0  0  0  0  0  0  0  0  0  0  0  0
   46.5640   75.6600   22.1620 C   0  0  0  0  0  0  0  0  0  0  0  0
   45.4420   75.3920   22.9940 C   0  0  0  0  0  0  0  0  0  0  0  0
   44.5740   74.3100   23.2000 C   0  0  0  0  0  0  0  0  0  0  0  0
   44.6540   73.1150   22.4990 N   0  0  0  0  0  0  0  0  0  0  0  0
   43.5920   74.4270   24.1130 N   0  0  0  0  0  0  0  0  0  0  0  0
   43.4930   75.5840   24.7940 C   0  0  0  0  0  0  0  0  0  0  0  0
   44.2450   76.6900   24.6700 N   0  0  0  0  0  0  0  0  0  0  0  0
   45.2200   76.5300   23.7580 C   0  0  0  0  0  0  0  0  0  0  0  0
   45.1960   79.7810   23.6910 C   0  0  2  0  0  0  0  0  0  0  0  0
   45.3790   80.5010   22.4700 O   0  0  0  0  0  0  0  0  0  0  0  0
   45.3090   80.7110   24.8880 C   0  0  2  0  0  0  0  0  0  0  0  0
   46.3650   81.6520   24.6060 O   0  0  0  0  0  0  0  0  0  0  0  0
   45.8241   76.5783   28.2937 H   0  0  0  0  0  0  0  0  0  0  0  0
   44.2685   76.4844   29.1869 H   0  0  0  0  0  0  0  0  0  0  0  0
   44.2685   76.6722   27.4004 H   0  0  0  0  0  0  0  0  0  0  0  0
   44.0832   78.3859   26.2450 H   0  0  0  0  0  0  0  0  0  0  0  0
   43.7811   80.1009   26.8455 H   0  0  0  0  0  0  0  0  0  0  0  0
   46.3286   80.2982   26.7703 H   0  0  0  0  0  0  0  0  0  0  0  0
   47.2283   79.1974   23.5108 H   0  0  0  0  0  0  0  0  0  0  0  0
   47.8399   77.4547   21.9672 H   0  0  0  0  0  0  0  0  0  0  0  0
   47.0096   74.9710   21.4294 H   0  0  0  0  0  0  0  0  0  0  0  0
   44.3090   73.2360   21.5530 H   0  0  0  0  0  0  0  0  0  0  0  0
   45.5330   72.6260   22.5990 H   0  0  0  0  0  0  0  0  0  0  0  0
   42.6940   75.6295   25.5486 H   0  0  0  0  0  0  0  0  0  0  0  0
   44.2191   79.2933   23.5574 H   0  0  0  0  0  0  0  0  0  0  0  0
   46.1850   80.1200   22.0630 H   0  0  0  0  0  0  0  0  0  0  0  0
   44.3972   81.2792   25.1244 H   0  0  0  0  0  0  0  0  0  0  0  0
   46.1700   82.0650   23.7440 H   0  0  0  0  0  0  0  0  0  0  0  0
  1  2  1  0
  2  3  1  0
  3  4  1  0
  4  5  1  0
  5  6  1  0
  6  7  1  0
  7  8  1  0
  8  9  2  0
  9 10  1  0
 10 11  2  0
 11 12  1  0
 11 13  1  0
 13 14  2  0
 14 15  1  0
 15 16  2  0
  6 17  1  0
 17 18  1  0
 17 19  1  0
 19 20  1  0
 19  4  1  0
 16  7  1  0
 16 10  1  0
  1 21  1  0
  1 22  1  0
  1 23  1  0
  3 24  1  0
  3 25  1  0
  4 26  1  1
  6 27  1  6
  8 28  1  0
  9 29  1  0
 12 30  1  0
 12 31  1  0
 14 32  1  0
 17 33  1  6
 18 34  1  0
 19 35  1  1
 20 36  1  0
M  END
>  <meeko>  (2) 
{"is_sidechain": [false], "free_energy": -6.469, "intermolecular_energy": -8.512, "internal_energy": -0.277}

$$$$
1nc1_ligand
     RDKit          3D

 36 38  0  0  0  0  0  0  0  0999 V2000
   45.9520   70.2170   22.2700 C   0  0  0  0  0  0  0  0  0  0  0  0
   44.6030   70.6510   21.1470 S   0  0  0  0  0  0  0  0  0  0  0  0
   43.7970   71.9880   22.1030 C   0  0  0  0  0  0  0  0  0  0  0  0
   43.8590   73.3840   21.4660 C   0  0  1  0  0  0  0  0  0  0  0  0
   43.4710   74.4040   22.4090 O   0  0  0  0  0  0  0  0  0  0  0  0
   44.6290   75.2120   22.7130 C   0  0  1  0  0  0  0  0  0  0  0  0
   44.6260   75.5430   24.1290 N   0  0  0  0  0  0  0  0  0  0  0  0
   43.9430   74.8290   25.0910 C   0  0  0  0  0  0  0  0  0  0  0  0
   44.1890   75.4130   26.3150 C   0  0  0  0  0  0  0  0  0  0  0  0
   45.0490   76.5230   26.0950 C   0  0  0  0  0  0  0  0  0  0  0  0
   45.6580   77.5030   26.8930 C   0  0  0  0  0  0  0  0  0  0  0  0
   45.4860   77.5910   28.2670 N   0  0  0  0  0  0  0  0  0  0  0  0
   46.4410   78.4270   26.3070 N   0  0  0  0  0  0  0  0  0  0  0  0
   46.6090   78.3630   24.9730 C   0  0  0  0  0  0  0  0  0  0  0  0
   46.0650   77.4930   24.1060 N   0  0  0  0  0  0  0  0  0  0  0  0
   45.3000   76.5810   24.7300 C   0  0  0  0  0  0  0  0  0  0  0  0
   45.8630   74.4610   22.2080 C   0  0  2  0  0  0  0  0  0  0  0  0
   46.9290   75.3250   21.8060 O   0  0  0  0  0  0  0  0  0  0  0  0
   45.2800   73.7300   21.0090 C   0  0  2  0  0  0  0  0  0  0  0  0
   45.2510   74.6600   19.9080 O   0  0  0  0  0  0  0  0  0  0  0  0
   45.6124   70.3263   23.3105 H   0  0  0  0  0  0  0  0  0  0  0  0
   46.2571   69.1754   22.0913 H   0  0  0  0  0  0  0  0  0  0  0  0
   46.8072   70.8853   22.0913 H   0  0  0  0  0  0  0  0  0  0  0  0
   42.7378   71.7211   22.2327 H   0  0  0  0  0  0  0  0  0  0  0  0
   44.3539   72.0619   23.0488 H   0  0  0  0  0  0  0  0  0  0  0  0
   43.1709   73.3573   20.6082 H   0  0  0  0  0  0  0  0  0  0  0  0
   44.6259   76.1852   22.2003 H   0  0  0  0  0  0  0  0  0  0  0  0
   43.3113   73.9463   24.9124 H   0  0  0  0  0  0  0  0  0  0  0  0
   43.7920   75.0805   27.2855 H   0  0  0  0  0  0  0  0  0  0  0  0
   44.5080   77.7300   28.4930 H   0  0  0  0  0  0  0  0  0  0  0  0
   45.9760   76.8850   28.7990 H   0  0  0  0  0  0  0  0  0  0  0  0
   47.2774   79.1201   24.5370 H   0  0  0  0  0  0  0  0  0  0  0  0
   46.3244   73.8231   22.9762 H   0  0  0  0  0  0  0  0  0  0  0  0
   47.7250   74.7540   21.7700 H   0  0  0  0  0  0  0  0  0  0  0  0
   45.8388   72.8382   20.6890 H   0  0  0  0  0  0  0  0  0  0  0  0
   44.5560   74.3660   19.2910 H   0  0  0  0  0  0  0  0  0  0  0  0
  1  2  1  0
  2  3  1  0
  3  4  1  0
  4  5  1  0
  5  6  1  0
  6  7  1  0
  7  8  1  0
  8  9  2  0
  9 10  1  0
 10 11  2  0
 11 12  1  0
 11 13  1  0
 13 14  2  0
 14 15  1  0
 15 16  2  0
  6 17  1  0
 17 18  1  0
 17 19  1  0
 19 20  1  0
 19  4  1  0
 16  7  1  0
 16 10  1  0
  1 21  1  0
  1 22  1  0
  1 23  1  0
  3 24  1  0
  3 25  1  0
  4 26  1  6
  6 27  1  6
  8 28  1  0
  9 29  1  0
 12 30  1  0
 12 31  1  0
 14 32  1  0
 17 33  1  1
 18 34  1  0
 19 35  1  6
 20 36  1  0
M  END
>  <meeko>  (3) 
{"is_sidechain": [false], "free_energy": -6.425, "intermolecular_energy": -8.061, "internal_energy": -0.673}

$$$$
1nc1_ligand
     RDKit          3D

 36 38  0  0  0  0  0  0  0  0999 V2000
   36.7160   87.6130   32.1020 C   0  0  0  0  0  0  0  0  0  0  0  0
   38.1520   88.5250   31.4890 S   0  0  0  0  0  0  0  0  0  0  0  0
   39.4190   87.2040   31.5240 C   0  0  0  0  0  0  0  0  0  0  0  0
   38.8980   85.7990   31.8630 C   0  0  1  0  0  0  0  0  0  0  0  0
   39.4090   84.8180   30.9360 O   0  0  0  0  0  0  0  0  0  0  0  0
   40.3090   83.9410   31.6480 C   0  0  1  0  0  0  0  0  0  0  0  0
   41.4470   83.6280   30.7990 N   0  0  0  0  0  0  0  0  0  0  0  0
   41.8390   84.3870   29.7150 C   0  0  0  0  0  0  0  0  0  0  0  0
   42.9630   83.8070   29.1690 C   0  0  0  0  0  0  0  0  0  0  0  0
   43.2690   82.6530   29.9410 C   0  0  0  0  0  0  0  0  0  0  0  0
   44.2540   81.6560   29.9180 C   0  0  0  0  0  0  0  0  0  0  0  0
   45.2640   81.5940   28.9690 N   0  0  0  0  0  0  0  0  0  0  0  0
   44.2230   80.6870   30.8520 N   0  0  0  0  0  0  0  0  0  0  0  0
   43.2430   80.7260   31.7740 C   0  0  0  0  0  0  0  0  0  0  0  0
   42.2380   81.6100   31.8840 N   0  0  0  0  0  0  0  0  0  0  0  0
   42.3100   82.5670   30.9420 C   0  0  0  0  0  0  0  0  0  0  0  0
   40.6400   84.6030   32.9870 C   0  0  2  0  0  0  0  0  0  0  0  0
   40.9120   83.6670   34.0330 O   0  0  0  0  0  0  0  0  0  0  0  0
   39.3470   85.3560   33.2590 C   0  0  2  0  0  0  0  0  0  0  0  0
   38.4110   84.4160   33.8230 O   0  0  0  0  0  0  0  0  0  0  0  0
   36.7216   87.6166   33.2020 H   0  0  0  0  0  0  0  0  0  0  0  0
   35.7949   88.0920   31.7385 H   0  0  0  0  0  0  0  0  0  0  0  0
   36.7579   86.5757   31.7385 H   0  0  0  0  0  0  0  0  0  0  0  0
   39.8911   87.1604   30.5314 H   0  0  0  0  0  0  0  0  0  0  0  0
   40.1141   87.4725   32.3332 H   0  0  0  0  0  0  0  0  0  0  0  0
   37.8010   85.8595   31.8093 H   0  0  0  0  0  0  0  0  0  0  0  0
   39.8636   82.9640   31.8870 H   0  0  0  0  0  0  0  0  0  0  0  0
   41.3404   85.2972   29.3503 H   0  0  0  0  0  0  0  0  0  0  0  0
   43.5223   84.1707   28.2944 H   0  0  0  0  0  0  0  0  0  0  0  0
   44.8860   81.3250   28.0670 H   0  0  0  0  0  0  0  0  0  0  0  0
   45.8980   82.3800   28.9750 H   0  0  0  0  0  0  0  0  0  0  0  0
   43.2686   79.9320   32.5349 H   0  0  0  0  0  0  0  0  0  0  0  0
   41.5509   85.2186   32.9504 H   0  0  0  0  0  0  0  0  0  0  0  0
   40.3100   82.9110   33.8660 H   0  0  0  0  0  0  0  0  0  0  0  0
   39.4384   86.2060   33.9513 H   0  0  0  0  0  0  0  0  0  0  0  0
   38.0870   83.8500   33.0980 H   0  0  0  0  0  0  0  0  0  0  0  0
  1  2  1  0
  2  3  1  0
  3  4  1  0
  4  5  1  0
  5  6  1  0
  6  7  1  0
  7  8  1  0
  8  9  2  0
  9 10  1  0
 10 11  2  0
 11 12  1  0
 11 13  1  0
 13 14  2  0
 14 15  1  0
 15 16  2  0
  6 17  1  0
 17 18  1  0
 17 19  1  0
 19 20  1  0
 19  4  1  0
 16  7  1  0
 16 10  1  0
  1 21  1  0
  1 22  1  0
  1 23  1  0
  3 24  1  0
  3 25  1  0
  4 26  1  1
  6 27  1  1
  8 28  1  0
  9 29  1  0
 12 30  1  0
 12 31  1  0
 14 32  1  0
 17 33  1  6
 18 34  1  0
 19 35  1  1
 20 36  1  0
M  END
>  <meeko>  (4) 
{"is_sidechain": [false], "free_energy": -6.316, "intermolecular_energy": -7.971, "internal_energy": -0.625}

$$$$
1nc1_ligand
     RDKit          3D

 36 38  0  0  0  0  0  0  0  0999 V2000
   45.2010   71.5070   21.3680 C   0  0  0  0  0  0  0  0  0  0  0  0
   44.3340   72.7100   20.3340 S   0  0  0  0  0  0  0  0  0  0  0  0
   44.5570   74.2260   21.3360 C   0  0  0  0  0  0  0  0  0  0  0  0
   44.4790   74.0280   22.8570 C   0  0  1  0  0  0  0  0  0  0  0  0
   45.3630   74.9370   23.5460 O   0  0  0  0  0  0  0  0  0  0  0  0
   44.5610   75.8820   24.2880 C   0  0  1  0  0  0  0  0  0  0  0  0
   45.1680   77.2010   24.2010 N   0  0  0  0  0  0  0  0  0  0  0  0
   46.0600   77.5810   23.2200 C   0  0  0  0  0  0  0  0  0  0  0  0
   46.4030   78.8970   23.4370 C   0  0  0  0  0  0  0  0  0  0  0  0
   45.6990   79.3390   24.5910 C   0  0  0  0  0  0  0  0  0  0  0  0
   45.6030   80.5330   25.3200 C   0  0  0  0  0  0  0  0  0  0  0  0
   46.3110   81.6840   25.0060 N   0  0  0  0  0  0  0  0  0  0  0  0
   44.7980   80.5760   26.3980 N   0  0  0  0  0  0  0  0  0  0  0  0
   44.1130   79.4640   26.7230 C   0  0  0  0  0  0  0  0  0  0  0  0
   44.1390   78.2640   26.1200 N   0  0  0  0  0  0  0  0  0  0  0  0
   44.9440   78.2640   25.0440 C   0  0  0  0  0  0  0  0  0  0  0  0
   43.1240   75.7760   23.7740 C   0  0  2  0  0  0  0  0  0  0  0  0
   42.1410   76.0770   24.7660 O   0  0  0  0  0  0  0  0  0  0  0  0
   43.0680   74.3060   23.3870 C   0  0  2  0  0  0  0  0  0  0  0  0
   42.8170   73.5530   24.5910 O   0  0  0  0  0  0  0  0  0  0  0  0
   45.0300   71.7442   22.4284 H   0  0  0  0  0  0  0  0  0  0  0  0
   44.8216   70.4973   21.1524 H   0  0  0  0  0  0  0  0  0  0  0  0
   46.2789   71.5475   21.1524 H   0  0  0  0  0  0  0  0  0  0  0  0
   45.5451   74.6472   21.0989 H   0  0  0  0  0  0  0  0  0  0  0  0
   43.7192   74.8887   21.0734 H   0  0  0  0  0  0  0  0  0  0  0  0
   44.7651   72.9822   23.0429 H   0  0  0  0  0  0  0  0  0  0  0  0
   44.5217   75.6648   25.3656 H   0  0  0  0  0  0  0  0  0  0  0  0
   46.4330   76.9431   22.4051 H   0  0  0  0  0  0  0  0  0  0  0  0
   47.0955   79.4971   22.8285 H   0  0  0  0  0  0  0  0  0  0  0  0
   47.3090   81.5110   25.0580 H   0  0  0  0  0  0  0  0  0  0  0  0
   45.9800   82.1720   24.1860 H   0  0  0  0  0  0  0  0  0  0  0  0
   43.4465   79.5487   27.5940 H   0  0  0  0  0  0  0  0  0  0  0  0
   42.9011   76.4897   22.9672 H   0  0  0  0  0  0  0  0  0  0  0  0
   42.5030   75.7220   25.6050 H   0  0  0  0  0  0  0  0  0  0  0  0
   42.2928   74.0459   22.6512 H   0  0  0  0  0  0  0  0  0  0  0  0
   42.3080   74.1230   25.1950 H   0  0  0  0  0  0  0  0  0  0  0  0
  1  2  1  0
  2  3  1  0
  3  4  1  0
  4  5  1  0
  5  6  1  0
  6  7  1  0
  7  8  1  0
  8  9  2  0
  9 10  1  0
 10 11  2  0
 11 12  1  0
 11 13  1  0
 13 14  2  0
 14 15  1  0
 15 16  2  0
  6 17  1  0
 17 18  1  0
 17 19  1  0
 19 20  1  0
 19  4  1  0
 16  7  1  0
 16 10  1  0
  1 21  1  0
  1 22  1  0
  1 23  1  0
  3 24  1  0
  3 25  1  0
  4 26  1  6
  6 27  1  1
  8 28  1  0
  9 29  1  0
 12 30  1  0
 12 31  1  0
 14 32  1  0
 17 33  1  6
 18 34  1  0
 19 35  1  6
 20 36  1  0
M  END
>  <meeko>  (5) 
{"is_sidechain": [false], "free_energy": -6.28, "intermolecular_energy": -7.926, "internal_energy": -0.624}

$$$$
1nc1_ligand
     RDKit          3D

 36 38  0  0  0  0  0  0  0  0999 V2000
   44.8320   75.4630   25.6840 C   0  0  0  0  0  0  0  0  0  0  0  0
   45.4770   75.8320   27.3320 S   0  0  0  0  0  0  0  0  0  0  0  0
   45.9910   77.5730   27.1020 C   0  0  0  0  0  0  0  0  0  0  0  0
   44.9370   78.4940   26.4700 C   0  0  1  0  0  0  0  0  0  0  0  0
   43.7980   78.6550   27.3400 O   0  0  0  0  0  0  0  0  0  0  0  0
   43.7630   80.0230   27.8020 C   0  0  1  0  0  0  0  0  0  0  0  0
   43.3660   80.0490   29.2010 N   0  0  0  0  0  0  0  0  0  0  0  0
   43.5580   79.0050   30.0810 C   0  0  0  0  0  0  0  0  0  0  0  0
   43.0840   79.3910   31.3160 C   0  0  0  0  0  0  0  0  0  0  0  0
   42.5830   80.7160   31.1880 C   0  0  0  0  0  0  0  0  0  0  0  0
   41.9870   81.6570   32.0400 C   0  0  0  0  0  0  0  0  0  0  0  0
   41.7160   81.4180   33.3790 N   0  0  0  0  0  0  0  0  0  0  0  0
   41.6360   82.8570   31.5420 N   0  0  0  0  0  0  0  0  0  0  0  0
   41.8810   83.1010   30.2410 C   0  0  0  0  0  0  0  0  0  0  0  0
   42.4210   82.2780   29.3270 N   0  0  0  0  0  0  0  0  0  0  0  0
   42.7680   81.0950   29.8640 C   0  0  0  0  0  0  0  0  0  0  0  0
   45.1210   80.6540   27.4850 C   0  0  2  0  0  0  0  0  0  0  0  0
   45.0500   82.0600   27.2350 O   0  0  0  0  0  0  0  0  0  0  0  0
   45.4960   79.8990   26.2200 C   0  0  2  0  0  0  0  0  0  0  0  0
   44.8140   80.5330   25.1200 O   0  0  0  0  0  0  0  0  0  0  0  0
   43.8806   74.9187   25.7760 H   0  0  0  0  0  0  0  0  0  0  0  0
   44.6655   76.4025   25.1366 H   0  0  0  0  0  0  0  0  0  0  0  0
   45.5575   74.8433   25.1366 H   0  0  0  0  0  0  0  0  0  0  0  0
   46.2516   77.9829   28.0889 H   0  0  0  0  0  0  0  0  0  0  0  0
   46.8342   77.5489   26.3960 H   0  0  0  0  0  0  0  0  0  0  0  0
   44.6462   78.0170   25.5224 H   0  0  0  0  0  0  0  0  0  0  0  0
   43.0074   80.6348   27.2874 H   0  0  0  0  0  0  0  0  0  0  0  0
   44.0111   78.0323   29.8391 H   0  0  0  0  0  0  0  0  0  0  0  0
   43.0917   78.7847   32.2338 H   0  0  0  0  0  0  0  0  0  0  0  0
   40.7160   81.3390   33.5300 H   0  0  0  0  0  0  0  0  0  0  0  0
   42.2930   80.7070   33.8060 H   0  0  0  0  0  0  0  0  0  0  0  0
   41.6035   84.1024   29.8802 H   0  0  0  0  0  0  0  0  0  0  0  0
   45.8378   80.5767   28.3158 H   0  0  0  0  0  0  0  0  0  0  0  0
   45.8940   82.4260   27.5730 H   0  0  0  0  0  0  0  0  0  0  0  0
   46.5715   79.8793   25.9899 H   0  0  0  0  0  0  0  0  0  0  0  0
   44.2490   81.2370   25.4890 H   0  0  0  0  0  0  0  0  0  0  0  0
  1  2  1  0
  2  3  1  0
  3  4  1  0
  4  5  1  0
  5  6  1  0
  6  7  1  0
  7  8  1  0
  8  9  2  0
  9 10  1  0
 10 11  2  0
 11 12  1  0
 11 13  1  0
 13 14  2  0
 14 15  1  0
 15 16  2  0
  6 17  1  0
 17 18  1  0
 17 19  1  0
 19 20  1  0
 19  4  1  0
 16  7  1  0
 16 10  1  0
  1 21  1  0
  1 22  1  0
  1 23  1  0
  3 24  1  0
  3 25  1  0
  4 26  1  6
  6 27  1  6
  8 28  1  0
  9 29  1  0
 12 30  1  0
 12 31  1  0
 14 32  1  0
 17 33  1  1
 18 34  1  0
 19 35  1  6
 20 36  1  0
M  END
>  <meeko>  (6) 
{"is_sidechain": [false], "free_energy": -6.27, "intermolecular_energy": -7.939, "internal_energy": -0.598}

$$$$
1nc1_ligand
     RDKit          3D

 36 38  0  0  0  0  0  0  0  0999 V2000
   44.6210   82.5700   28.8070 C   0  0  0  0  0  0  0  0  0  0  0  0
   44.6000   80.8550   29.3780 S   0  0  0  0  0  0  0  0  0  0  0  0
   44.4300   79.9780   27.7800 C   0  0  0  0  0  0  0  0  0  0  0  0
   45.6400   80.0830   26.8390 C   0  0  1  0  0  0  0  0  0  0  0  0
   46.1100   78.7760   26.4490 O   0  0  0  0  0  0  0  0  0  0  0  0
   45.8580   78.6000   25.0380 C   0  0  1  0  0  0  0  0  0  0  0  0
   45.4220   77.2340   24.7940 N   0  0  0  0  0  0  0  0  0  0  0  0
   44.5890   76.5240   25.6330 C   0  0  0  0  0  0  0  0  0  0  0  0
   44.3710   75.2840   25.0740 C   0  0  0  0  0  0  0  0  0  0  0  0
   45.0970   75.2310   23.8530 C   0  0  0  0  0  0  0  0  0  0  0  0
   45.2930   74.2870   22.8340 C   0  0  0  0  0  0  0  0  0  0  0  0
   44.7350   73.0160   22.8470 N   0  0  0  0  0  0  0  0  0  0  0  0
   46.0750   74.6090   21.7880 N   0  0  0  0  0  0  0  0  0  0  0  0
   46.6330   75.8340   21.7660 C   0  0  0  0  0  0  0  0  0  0  0  0
   46.5390   76.8080   22.6850 N   0  0  0  0  0  0  0  0  0  0  0  0
   45.7410   76.4530   23.7080 C   0  0  0  0  0  0  0  0  0  0  0  0
   44.8860   79.6970   24.6000 C   0  0  2  0  0  0  0  0  0  0  0  0
   45.0550   80.0960   23.2380 O   0  0  0  0  0  0  0  0  0  0  0  0
   45.2820   80.8210   25.5450 C   0  0  2  0  0  0  0  0  0  0  0  0
   46.4440   81.4660   24.9850 O   0  0  0  0  0  0  0  0  0  0  0  0
   44.6293   83.2454   29.6752 H   0  0  0  0  0  0  0  0  0  0  0  0
   45.5213   82.7431   28.1992 H   0  0  0  0  0  0  0  0  0  0  0  0
   43.7252   82.7651   28.1992 H   0  0  0  0  0  0  0  0  0  0  0  0
   44.2579   78.9128   27.9940 H   0  0  0  0  0  0  0  0  0  0  0  0
   43.5944   80.4639   27.2549 H   0  0  0  0  0  0  0  0  0  0  0  0
   46.4132   80.6307   27.3977 H   0  0  0  0  0  0  0  0  0  0  0  0
   46.7591   78.7186   24.4184 H   0  0  0  0  0  0  0  0  0  0  0  0
   44.1709   76.8854   26.5841 H   0  0  0  0  0  0  0  0  0  0  0  0
   43.7485   74.4811   25.4957 H   0  0  0  0  0  0  0  0  0  0  0  0
   44.9030   72.5650   23.7390 H   0  0  0  0  0  0  0  0  0  0  0  0
   43.7930   72.9660   22.4860 H   0  0  0  0  0  0  0  0  0  0  0  0
   47.2443   76.0666   20.8816 H   0  0  0  0  0  0  0  0  0  0  0  0
   43.8325   79.3842   24.6470 H   0  0  0  0  0  0  0  0  0  0  0  0
   45.2380   79.2680   22.7470 H   0  0  0  0  0  0  0  0  0  0  0  0
   44.5101   81.5874   25.7085 H   0  0  0  0  0  0  0  0  0  0  0  0
   47.1160   81.5250   25.6890 H   0  0  0  0  0  0  0  0  0  0  0  0
  1  2  1  0
  2  3  1  0
  3  4  1  0
  4  5  1  0
  5  6  1  0
  6  7  1  0
  7  8  1  0
  8  9  2  0
  9 10  1  0
 10 11  2  0
 11 12  1  0
 11 13  1  0
 13 14  2  0
 14 15  1  0
 15 16  2  0
  6 17  1  0
 17 18  1  0
 17 19  1  0
 19 20  1  0
 19  4  1  0
 16  7  1  0
 16 10  1  0
  1 21  1  0
  1 22  1  0
  1 23  1  0
  3 24  1  0
  3 25  1  0
  4 26  1  1
  6 27  1  6
  8 28  1  0
  9 29  1  0
 12 30  1  0
 12 31  1  0
 14 32  1  0
 17 33  1  6
 18 34  1  0
 19 35  1  1
 20 36  1  0
M  END
>  <meeko>  (7) 
{"is_sidechain": [false], "free_energy": -6.202, "intermolecular_energy": -7.972, "internal_energy": -0.48}

$$$$
1nc1_ligand
     RDKit          3D

 36 38  0  0  0  0  0  0  0  0999 V2000
   40.1260   85.1300   27.8150 C   0  0  0  0  0  0  0  0  0  0  0  0
   38.7670   84.3630   28.7260 S   0  0  0  0  0  0  0  0  0  0  0  0
   38.5510   85.5760   30.0800 C   0  0  0  0  0  0  0  0  0  0  0  0
   38.8970   85.0640   31.4860 C   0  0  1  0  0  0  0  0  0  0  0  0
   39.6290   83.8230   31.4220 O   0  0  0  0  0  0  0  0  0  0  0  0
   40.9750   84.0590   31.8920 C   0  0  1  0  0  0  0  0  0  0  0  0
   41.9100   83.3040   31.0740 N   0  0  0  0  0  0  0  0  0  0  0  0
   42.6960   83.8570   30.0840 C   0  0  0  0  0  0  0  0  0  0  0  0
   43.4710   82.8550   29.5420 C   0  0  0  0  0  0  0  0  0  0  0  0
   43.1470   81.6480   30.2200 C   0  0  0  0  0  0  0  0  0  0  0  0
   43.5640   80.3110   30.1540 C   0  0  0  0  0  0  0  0  0  0  0  0
   44.5090   79.8430   29.2530 N   0  0  0  0  0  0  0  0  0  0  0  0
   43.0130   79.4140   30.9930 N   0  0  0  0  0  0  0  0  0  0  0  0
   42.0850   79.8490   31.8670 C   0  0  0  0  0  0  0  0  0  0  0  0
   41.5920   81.0910   32.0080 N   0  0  0  0  0  0  0  0  0  0  0  0
   42.1750   81.9570   31.1620 C   0  0  0  0  0  0  0  0  0  0  0  0
   41.1940   85.5730   31.9280 C   0  0  2  0  0  0  0  0  0  0  0  0
   42.1110   85.9910   32.9410 O   0  0  0  0  0  0  0  0  0  0  0  0
   39.7860   86.0560   32.2420 C   0  0  2  0  0  0  0  0  0  0  0  0
   39.5950   85.9330   33.6660 O   0  0  0  0  0  0  0  0  0  0  0  0
   40.8571   85.5426   28.5258 H   0  0  0  0  0  0  0  0  0  0  0  0
   40.6155   84.3750   27.1823 H   0  0  0  0  0  0  0  0  0  0  0  0
   39.7327   85.9393   27.1823 H   0  0  0  0  0  0  0  0  0  0  0  0
   39.1955   86.4414   29.8661 H   0  0  0  0  0  0  0  0  0  0  0  0
   37.4781   85.8176   30.1015 H   0  0  0  0  0  0  0  0  0  0  0  0
   37.9365   84.9298   32.0051 H   0  0  0  0  0  0  0  0  0  0  0  0
   41.1469   83.6956   32.9159 H   0  0  0  0  0  0  0  0  0  0  0  0
   42.7027   84.9142   29.7802 H   0  0  0  0  0  0  0  0  0  0  0  0
   44.2066   82.9683   28.7320 H   0  0  0  0  0  0  0  0  0  0  0  0
   44.9310   80.6150   28.7490 H   0  0  0  0  0  0  0  0  0  0  0  0
   45.1420   79.1500   29.6270 H   0  0  0  0  0  0  0  0  0  0  0  0
   41.6790   79.0908   32.5528 H   0  0  0  0  0  0  0  0  0  0  0  0
   41.6374   85.9671   31.0017 H   0  0  0  0  0  0  0  0  0  0  0  0
   41.9840   86.9600   33.0220 H   0  0  0  0  0  0  0  0  0  0  0  0
   39.5752   87.0973   31.9570 H   0  0  0  0  0  0  0  0  0  0  0  0
   40.0320   85.1110   33.9520 H   0  0  0  0  0  0  0  0  0  0  0  0
  1  2  1  0
  2  3  1  0
  3  4  1  0
  4  5  1  0
  5  6  1  0
  6  7  1  0
  7  8  1  0
  8  9  2  0
  9 10  1  0
 10 11  2  0
 11 12  1  0
 11 13  1  0
 13 14  2  0
 14 15  1  0
 15 16  2  0
  6 17  1  0
 17 18  1  0
 17 19  1  0
 19 20  1  0
 19  4  1  0
 16  7  1  0
 16 10  1  0
  1 21  1  0
  1 22  1  0
  1 23  1  0
  3 24  1  0
  3 25  1  0
  4 26  1  1
  6 27  1  1
  8 28  1  0
  9 29  1  0
 12 30  1  0
 12 31  1  0
 14 32  1  0
 17 33  1  6
 18 34  1  0
 19 35  1  6
 20 36  1  0
M  END
>  <meeko>  (8) 
{"is_sidechain": [false], "free_energy": -6.183, "intermolecular_energy": -7.801, "internal_energy": -0.627}

$$$$
1nc1_ligand
     RDKit          3D

 36 38  0  0  0  0  0  0  0  0999 V2000
   41.7550   81.4710   33.3420 C   0  0  0  0  0  0  0  0  0  0  0  0
   41.7290   81.3270   31.5400 S   0  0  0  0  0  0  0  0  0  0  0  0
   43.2300   80.3150   31.2690 C   0  0  0  0  0  0  0  0  0  0  0  0
   44.4970   81.1000   30.8980 C   0  0  1  0  0  0  0  0  0  0  0  0
   45.3750   80.3110   30.0690 O   0  0  0  0  0  0  0  0  0  0  0  0
   45.4160   80.9020   28.7520 C   0  0  1  0  0  0  0  0  0  0  0  0
   45.4290   79.8480   27.7500 N   0  0  0  0  0  0  0  0  0  0  0  0
   45.3360   78.5020   28.0400 C   0  0  0  0  0  0  0  0  0  0  0  0
   45.3550   77.8050   26.8520 C   0  0  0  0  0  0  0  0  0  0  0  0
   45.4660   78.7540   25.7990 C   0  0  0  0  0  0  0  0  0  0  0  0
   45.5310   78.7070   24.3990 C   0  0  0  0  0  0  0  0  0  0  0  0
   45.5190   77.5270   23.6690 N   0  0  0  0  0  0  0  0  0  0  0  0
   45.6310   79.8590   23.7110 N   0  0  0  0  0  0  0  0  0  0  0  0
   45.6560   81.0120   24.4060 C   0  0  0  0  0  0  0  0  0  0  0  0
   45.6230   81.1830   25.7370 N   0  0  0  0  0  0  0  0  0  0  0  0
   45.5120   80.0120   26.3880 C   0  0  0  0  0  0  0  0  0  0  0  0
   44.2580   81.8980   28.6540 C   0  0  2  0  0  0  0  0  0  0  0  0
   44.5260   82.9990   27.7830 O   0  0  0  0  0  0  0  0  0  0  0  0
   44.1610   82.3630   30.0990 C   0  0  2  0  0  0  0  0  0  0  0  0
   45.1680   83.3760   30.2940 O   0  0  0  0  0  0  0  0  0  0  0  0
   41.5766   80.4830   33.7914 H   0  0  0  0  0  0  0  0  0  0  0  0
   42.7360   81.8492   33.6655 H   0  0  0  0  0  0  0  0  0  0  0  0
   40.9683   82.1684   33.6655 H   0  0  0  0  0  0  0  0  0  0  0  0
   43.4352   79.7579   32.1950 H   0  0  0  0  0  0  0  0  0  0  0  0
   43.0090   79.6713   30.4049 H   0  0  0  0  0  0  0  0  0  0  0  0
   44.9822   81.3602   31.8503 H   0  0  0  0  0  0  0  0  0  0  0  0
   46.3360   81.4749   28.5635 H   0  0  0  0  0  0  0  0  0  0  0  0
   45.2599   78.0621   29.0453 H   0  0  0  0  0  0  0  0  0  0  0  0
   45.2952   76.7125   26.7385 H   0  0  0  0  0  0  0  0  0  0  0  0
   44.5980   77.1030   23.6970 H   0  0  0  0  0  0  0  0  0  0  0  0
   45.9590   77.5880   22.7620 H   0  0  0  0  0  0  0  0  0  0  0  0
   45.7105   81.9322   23.8058 H   0  0  0  0  0  0  0  0  0  0  0  0
   43.3428   81.4559   28.2334 H   0  0  0  0  0  0  0  0  0  0  0  0
   44.4590   83.7980   28.3480 H   0  0  0  0  0  0  0  0  0  0  0  0
   43.1883   82.7866   30.3895 H   0  0  0  0  0  0  0  0  0  0  0  0
   44.7140   84.2360   30.3610 H   0  0  0  0  0  0  0  0  0  0  0  0
  1  2  1  0
  2  3  1  0
  3  4  1  0
  4  5  1  0
  5  6  1  0
  6  7  1  0
  7  8  1  0
  8  9  2  0
  9 10  1  0
 10 11  2  0
 11 12  1  0
 11 13  1  0
 13 14  2  0
 14 15  1  0
 15 16  2  0
  6 17  1  0
 17 18  1  0
 17 19  1  0
 19 20  1  0
 19  4  1  0
 16  7  1  0
 16 10  1  0
  1 21  1  0
  1 22  1  0
  1 23  1  0
  3 24  1  0
  3 25  1  0
  4 26  1  1
  6 27  1  1
  8 28  1  0
  9 29  1  0
 12 30  1  0
 12 31  1  0
 14 32  1  0
 17 33  1  6
 18 34  1  0
 19 35  1  1
 20 36  1  0
M  END
>  <meeko>  (9) 
{"is_sidechain": [false], "free_energy": -6.15, "intermolecular_energy": -7.855, "internal_energy": -0.531}

$$$$
