3pww_ligand
     RDKit          3D

100104  0  0  0  0  0  0  0  0999 V2000
    4.9390    7.8340   15.0380 C   0  0  0  0  0  0  0  0  0  0  0  0
    3.6740    8.4330   14.3950 C   0  0  0  0  0  0  0  0  0  0  0  0
    3.7130    9.9570   14.5850 C   0  0  0  0  0  0  0  0  0  0  0  0
    2.4440    7.8390   15.0970 C   0  0  0  0  0  0  0  0  0  0  0  0
    3.6820    8.0800   12.9590 N   0  0  0  0  0  0  0  0  0  0  0  0
    2.7240    8.4720   12.0500 C   0  0  0  0  0  0  0  0  0  0  0  0
    1.7350    9.1380   12.3470 O   0  0  0  0  0  0  0  0  0  0  0  0
    2.9420    7.9760   10.5960 C   0  0  2  0  0  0  0  0  0  0  0  0
    3.7460    8.9430    9.7160 C   0  0  0  0  0  0  0  0  0  0  0  0
    2.9550   10.1420    9.1660 C   0  0  2  0  0  0  0  0  0  0  0  0
    2.7360   11.2380   10.2220 C   0  0  0  0  0  0  0  0  0  0  0  0
    1.9500   12.4170    9.6530 C   0  0  0  0  0  0  0  0  0  0  0  0
    0.6190   11.9660    9.0630 C   0  0  0  0  0  0  0  0  0  0  0  0
    0.8160   10.8780    8.0100 C   0  0  0  0  0  0  0  0  0  0  0  0
    1.6360    9.6820    8.5170 C   0  0  2  0  0  0  0  0  0  0  0  0
    0.8180    8.7960    9.4590 C   0  0  0  0  0  0  0  0  0  0  0  0
    1.6490    7.6080    9.8620 N   0  0  2  0  0  0  0  0  0  0  0  0
    0.8280    6.5320   10.5830 C   0  0  0  0  0  0  0  0  0  0  0  0
    0.6840    5.3400    9.6170 C   0  0  1  0  0  0  0  0  0  0  0  0
    1.9610    4.6670    9.6300 O   0  0  0  0  0  0  0  0  0  0  0  0
   -0.5100    4.4180    9.9850 C   0  0  2  0  0  0  0  0  0  0  0  0
   -0.0620    3.0140   10.4610 C   0  0  0  0  0  0  0  0  0  0  0  0
   -1.2060    2.0880   10.8060 C   0  0  0  0  0  0  0  0  0  0  0  0
   -1.1900    0.7400   10.4220 C   0  0  0  0  0  0  0  0  0  0  0  0
   -2.2520   -0.1020   10.7540 C   0  0  0  0  0  0  0  0  0  0  0  0
   -3.3430    0.3940   11.4640 C   0  0  0  0  0  0  0  0  0  0  0  0
   -3.3760    1.7350   11.8410 C   0  0  0  0  0  0  0  0  0  0  0  0
   -2.3150    2.5780   11.5120 C   0  0  0  0  0  0  0  0  0  0  0  0
   -1.4850    4.3430    8.8920 N   0  0  0  0  0  0  0  0  0  0  0  0
   -2.2780    5.3880    8.4770 C   0  0  0  0  0  0  0  0  0  0  0  0
   -2.3350    6.4400    9.1180 O   0  0  0  0  0  0  0  0  0  0  0  0
   -3.0950    5.1370    7.1880 C   0  0  2  0  0  0  0  0  0  0  0  0
   -4.1710    6.2060    6.9820 C   0  0  0  0  0  0  0  0  0  0  0  0
   -4.0960    6.8090    5.6000 C   0  0  0  0  0  0  0  0  0  0  0  0
   -4.7440    6.1050    4.6310 N   0  0  0  0  0  0  0  0  0  0  0  0
   -3.5510    7.8810    5.3510 O   0  0  0  0  0  0  0  0  0  0  0  0
   -3.6960    3.8150    7.3200 N   0  0  0  0  0  0  0  0  0  0  0  0
   -3.9390    2.9920    6.2430 C   0  0  0  0  0  0  0  0  0  0  0  0
   -3.7050    3.3180    5.0850 O   0  0  0  0  0  0  0  0  0  0  0  0
   -4.5180    1.6570    6.5970 C   0  0  0  0  0  0  0  0  0  0  0  0
   -3.8790    0.8520    7.5260 C   0  0  0  0  0  0  0  0  0  0  0  0
   -4.4520   -0.3790    7.8190 C   0  0  0  0  0  0  0  0  0  0  0  0
   -5.6370   -0.7650    7.1780 C   0  0  0  0  0  0  0  0  0  0  0  0
   -6.2460   -2.0030    7.4460 C   0  0  0  0  0  0  0  0  0  0  0  0
   -7.4230   -2.3630    6.7940 C   0  0  0  0  0  0  0  0  0  0  0  0
   -7.9950   -1.4920    5.8740 C   0  0  0  0  0  0  0  0  0  0  0  0
   -7.3880   -0.2600    5.6100 C   0  0  0  0  0  0  0  0  0  0  0  0
   -6.2150    0.1260    6.2440 C   0  0  0  0  0  0  0  0  0  0  0  0
   -5.6720    1.3210    5.9540 N   0  0  0  0  0  0  0  0  0  0  0  0
    4.8488    7.8767   16.1335 H   0  0  0  0  0  0  0  0  0  0  0  0
    5.0514    6.7870   14.7199 H   0  0  0  0  0  0  0  0  0  0  0  0
    5.8202    8.4105   14.7199 H   0  0  0  0  0  0  0  0  0  0  0  0
    3.7190   10.1925   15.6595 H   0  0  0  0  0  0  0  0  0  0  0  0
    4.6218   10.3619   14.1158 H   0  0  0  0  0  0  0  0  0  0  0  0
    2.8261   10.4078   14.1158 H   0  0  0  0  0  0  0  0  0  0  0  0
    2.5772    7.9033   16.1870 H   0  0  0  0  0  0  0  0  0  0  0  0
    1.5463    8.4029   14.8034 H   0  0  0  0  0  0  0  0  0  0  0  0
    2.3275    6.7853   14.8034 H   0  0  0  0  0  0  0  0  0  0  0  0
    4.4100    7.4360   12.6690 H   0  0  0  0  0  0  0  0  0  0  0  0
    3.5357    7.0620   10.7448 H   0  0  0  0  0  0  0  0  0  0  0  0
    4.5818    9.3331   10.3153 H   0  0  0  0  0  0  0  0  0  0  0  0
    4.0668    8.3616    8.8390 H   0  0  0  0  0  0  0  0  0  0  0  0
    3.5678   10.6041    8.3780 H   0  0  0  0  0  0  0  0  0  0  0  0
    2.1776   10.8118   11.0685 H   0  0  0  0  0  0  0  0  0  0  0  0
    3.7208   11.6052   10.5464 H   0  0  0  0  0  0  0  0  0  0  0  0
    1.7573   13.1407   10.4587 H   0  0  0  0  0  0  0  0  0  0  0  0
    2.5465   12.8754    8.8505 H   0  0  0  0  0  0  0  0  0  0  0  0
   -0.0151   11.5716    9.8707 H   0  0  0  0  0  0  0  0  0  0  0  0
    0.1431   12.8324    8.5805 H   0  0  0  0  0  0  0  0  0  0  0  0
   -0.1731   10.5144    7.6946 H   0  0  0  0  0  0  0  0  0  0  0  0
    1.3773   11.3282    7.1779 H   0  0  0  0  0  0  0  0  0  0  0  0
    1.8979    9.0666    7.6437 H   0  0  0  0  0  0  0  0  0  0  0  0
    0.5377    9.3703   10.3543 H   0  0  0  0  0  0  0  0  0  0  0  0
   -0.0942    8.4543    8.9479 H   0  0  0  0  0  0  0  0  0  0  0  0
    1.9290    7.1110    8.9920 H   0  0  0  0  0  0  0  0  0  0  0  0
    1.3472    6.2134   11.4990 H   0  0  0  0  0  0  0  0  0  0  0  0
   -0.1598    6.9227   10.8687 H   0  0  0  0  0  0  0  0  0  0  0  0
    0.4398    5.6745    8.5979 H   0  0  0  0  0  0  0  0  0  0  0  0
    1.7550    3.6980    9.6860 H   0  0  0  0  0  0  0  0  0  0  0  0
   -1.0121    4.8825   10.8464 H   0  0  0  0  0  0  0  0  0  0  0  0
    0.5295    2.5491    9.6585 H   0  0  0  0  0  0  0  0  0  0  0  0
    0.5182    3.1608   11.3840 H   0  0  0  0  0  0  0  0  0  0  0  0
   -0.3347    0.3434    9.8553 H   0  0  0  0  0  0  0  0  0  0  0  0
   -2.2276   -1.1601   10.4543 H   0  0  0  0  0  0  0  0  0  0  0  0
   -4.1778   -0.2724   11.7268 H   0  0  0  0  0  0  0  0  0  0  0  0
   -4.2389    2.1287   12.3981 H   0  0  0  0  0  0  0  0  0  0  0  0
   -2.3479    3.6367   11.8087 H   0  0  0  0  0  0  0  0  0  0  0  0
   -1.3580    3.5790    8.2180 H   0  0  0  0  0  0  0  0  0  0  0  0
   -2.4394    5.1883    6.3062 H   0  0  0  0  0  0  0  0  0  0  0  0
   -5.1613    5.7469    7.1182 H   0  0  0  0  0  0  0  0  0  0  0  0
   -4.0058    7.0074    7.7171 H   0  0  0  0  0  0  0  0  0  0  0  0
   -4.6700    6.4430    3.6790 H   0  0  0  0  0  0  0  0  0  0  0  0
   -5.0190    5.1390    4.7600 H   0  0  0  0  0  0  0  0  0  0  0  0
   -3.9090    3.4420    8.2470 H   0  0  0  0  0  0  0  0  0  0  0  0
   -2.9489    1.1768    8.0153 H   0  0  0  0  0  0  0  0  0  0  0  0
   -3.9774   -1.0484    8.5515 H   0  0  0  0  0  0  0  0  0  0  0  0
   -5.7910   -2.6908    8.1740 H   0  0  0  0  0  0  0  0  0  0  0  0
   -7.8978   -3.3323    7.0062 H   0  0  0  0  0  0  0  0  0  0  0  0
   -8.9235   -1.7713    5.3545 H   0  0  0  0  0  0  0  0  0  0  0  0
   -7.8521    0.4207    4.8811 H   0  0  0  0  0  0  0  0  0  0  0  0
  1  2  1  0
  2  3  1  0
  2  4  1  0
  2  5  1  0
  5  6  1  0
  6  7  2  0
  6  8  1  0
  8  9  1  0
  9 10  1  0
 10 11  1  0
 11 12  1  0
 12 13  1  0
 13 14  1  0
 14 15  1  0
 15 16  1  0
 16 17  1  0
 17 18  1  0
 18 19  1  0
 19 20  1  0
 19 21  1  0
 21 22  1  0
 22 23  1  0
 23 24  2  0
 24 25  1  0
 25 26  2  0
 26 27  1  0
 27 28  2  0
 21 29  1  0
 29 30  1  0
 30 31  2  0
 30 32  1  0
 32 33  1  0
 33 34  1  0
 34 35  1  0
 34 36  2  0
 32 37  1  0
 37 38  1  0
 38 39  2  0
 38 40  1  0
 40 41  2  0
 41 42  1  0
 42 43  2  0
 43 44  1  0
 44 45  2  0
 45 46  1  0
 46 47  2  0
 47 48  1  0
 48 49  2  0
 17  8  1  0
 28 23  1  0
 49 40  1  0
 15 10  1  0
 48 43  1  0
  1 50  1  0
  1 51  1  0
  1 52  1  0
  3 53  1  0
  3 54  1  0
  3 55  1  0
  4 56  1  0
  4 57  1  0
  4 58  1  0
  5 59  1  0
  8 60  1  1
  9 61  1  0
  9 62  1  0
 10 63  1  6
 11 64  1  0
 11 65  1  0
 12 66  1  0
 12 67  1  0
 13 68  1  0
 13 69  1  0
 14 70  1  0
 14 71  1  0
 15 72  1  6
 16 73  1  0
 16 74  1  0
 17 75  1  6
 18 76  1  0
 18 77  1  0
 19 78  1  6
 20 79  1  0
 21 80  1  1
 22 81  1  0
 22 82  1  0
 24 83  1  0
 25 84  1  0
 26 85  1  0
 27 86  1  0
 28 87  1  0
 29 88  1  0
 32 89  1  6
 33 90  1  0
 33 91  1  0
 35 92  1  0
 35 93  1  0
 37 94  1  0
 41 95  1  0
 42 96  1  0
 44 97  1  0
 45 98  1  0
 46 99  1  0
 47100  1  0
M  CHG  1  17   1
M  END
>  <meeko>  (1) 
{"is_sidechain": [false], "free_energy": -11.589, "intermolecular_energy": -20.735, "internal_energy": -2.051}

$$$$
3pww_ligand
     RDKit          3D

100104  0  0  0  0  0  0  0  0999 V2000
    4.8690    7.7690   14.9630 C   0  0  0  0  0  0  0  0  0  0  0  0
    3.5930    8.3660   14.3390 C   0  0  0  0  0  0  0  0  0  0  0  0
    3.6370    9.8910   14.5210 C   0  0  0  0  0  0  0  0  0  0  0  0
    2.3750    7.7760   15.0660 C   0  0  0  0  0  0  0  0  0  0  0  0
    3.5750    8.0070   12.9050 N   0  0  0  0  0  0  0  0  0  0  0  0
    2.5880    8.3720   12.0170 C   0  0  0  0  0  0  0  0  0  0  0  0
    1.5900    9.0170   12.3350 O   0  0  0  0  0  0  0  0  0  0  0  0
    2.7830    7.8750   10.5610 C   0  0  2  0  0  0  0  0  0  0  0  0
    3.6770    8.7800    9.7010 C   0  0  0  0  0  0  0  0  0  0  0  0
    2.9970   10.0470    9.1550 C   0  0  2  0  0  0  0  0  0  0  0  0
    2.8560   11.1470   10.2220 C   0  0  0  0  0  0  0  0  0  0  0  0
    2.1800   12.3930    9.6560 C   0  0  0  0  0  0  0  0  0  0  0  0
    0.8240   12.0610    9.0440 C   0  0  0  0  0  0  0  0  0  0  0  0
    0.9420   10.9720    7.9820 C   0  0  0  0  0  0  0  0  0  0  0  0
    1.6530    9.7060    8.4850 C   0  0  2  0  0  0  0  0  0  0  0  0
    0.7500    8.8820    9.4060 C   0  0  0  0  0  0  0  0  0  0  0  0
    1.4740    7.6240    9.8060 N   0  0  2  0  0  0  0  0  0  0  0  0
    0.5560    6.6130   10.5050 C   0  0  0  0  0  0  0  0  0  0  0  0
    0.4430    5.3840    9.5830 C   0  0  1  0  0  0  0  0  0  0  0  0
    1.7450    4.7600    9.5980 O   0  0  0  0  0  0  0  0  0  0  0  0
   -0.7090    4.4310   10.0030 C   0  0  2  0  0  0  0  0  0  0  0  0
   -0.2060    3.0290   10.4270 C   0  0  0  0  0  0  0  0  0  0  0  0
   -1.3120    2.0610   10.7810 C   0  0  0  0  0  0  0  0  0  0  0  0
   -1.2540    0.7170   10.3880 C   0  0  0  0  0  0  0  0  0  0  0  0
   -2.2810   -0.1650   10.7280 C   0  0  0  0  0  0  0  0  0  0  0  0
   -3.3790    0.2870   11.4560 C   0  0  0  0  0  0  0  0  0  0  0  0
   -3.4540    1.6230   11.8430 C   0  0  0  0  0  0  0  0  0  0  0  0
   -2.4280    2.5060   11.5060 C   0  0  0  0  0  0  0  0  0  0  0  0
   -1.7450    4.3530    8.9670 N   0  0  0  0  0  0  0  0  0  0  0  0
   -2.8910    5.1140    8.9470 C   0  0  0  0  0  0  0  0  0  0  0  0
   -3.2070    5.8190    9.9090 O   0  0  0  0  0  0  0  0  0  0  0  0
   -3.7470    5.0010    7.6640 C   0  0  2  0  0  0  0  0  0  0  0  0
   -3.0340    4.1940    6.5760 C   0  0  0  0  0  0  0  0  0  0  0  0
   -3.8070    2.9490    6.2140 C   0  0  0  0  0  0  0  0  0  0  0  0
   -3.3840    1.8100    6.8290 N   0  0  0  0  0  0  0  0  0  0  0  0
   -4.7850    2.9440    5.4700 O   0  0  0  0  0  0  0  0  0  0  0  0
   -4.0100    6.3630    7.2110 N   0  0  0  0  0  0  0  0  0  0  0  0
   -5.1530    6.7170    6.5300 C   0  0  0  0  0  0  0  0  0  0  0  0
   -6.0220    5.9120    6.2160 O   0  0  0  0  0  0  0  0  0  0  0  0
   -5.2520    8.1740    6.1950 C   0  0  0  0  0  0  0  0  0  0  0  0
   -4.4930    9.0950    6.8970 C   0  0  0  0  0  0  0  0  0  0  0  0
   -4.6220   10.4350    6.5540 C   0  0  0  0  0  0  0  0  0  0  0  0
   -5.5000   10.8090    5.5280 C   0  0  0  0  0  0  0  0  0  0  0  0
   -5.6600   12.1540    5.1530 C   0  0  0  0  0  0  0  0  0  0  0  0
   -6.5420   12.5000    4.1310 C   0  0  0  0  0  0  0  0  0  0  0  0
   -7.2660   11.5070    3.4820 C   0  0  0  0  0  0  0  0  0  0  0  0
   -7.1040   10.1690    3.8560 C   0  0  0  0  0  0  0  0  0  0  0  0
   -6.2330    9.7950    4.8700 C   0  0  0  0  0  0  0  0  0  0  0  0
   -6.1150    8.4950    5.1900 N   0  0  0  0  0  0  0  0  0  0  0  0
    4.7922    7.8049   16.0597 H   0  0  0  0  0  0  0  0  0  0  0  0
    4.9823    6.7244   14.6374 H   0  0  0  0  0  0  0  0  0  0  0  0
    5.7435    8.3514   14.6374 H   0  0  0  0  0  0  0  0  0  0  0  0
    3.6440   10.1321   15.5942 H   0  0  0  0  0  0  0  0  0  0  0  0
    4.5470   10.2904   14.0495 H   0  0  0  0  0  0  0  0  0  0  0  0
    2.7515   10.3422   14.0495 H   0  0  0  0  0  0  0  0  0  0  0  0
    2.5260    7.8491   16.1531 H   0  0  0  0  0  0  0  0  0  0  0  0
    1.4719    8.3365   14.7827 H   0  0  0  0  0  0  0  0  0  0  0  0
    2.2550    6.7199   14.7827 H   0  0  0  0  0  0  0  0  0  0  0  0
    4.3110    7.3790   12.6000 H   0  0  0  0  0  0  0  0  0  0  0  0
    3.2962    6.9132   10.7081 H   0  0  0  0  0  0  0  0  0  0  0  0
    4.5350    9.0922   10.3145 H   0  0  0  0  0  0  0  0  0  0  0  0
    3.9587    8.1825    8.8214 H   0  0  0  0  0  0  0  0  0  0  0  0
    3.6569   10.4644    8.3802 H   0  0  0  0  0  0  0  0  0  0  0  0
    2.2519   10.7604   11.0560 H   0  0  0  0  0  0  0  0  0  0  0  0
    3.8633   11.4266   10.5642 H   0  0  0  0  0  0  0  0  0  0  0  0
    2.0377   13.1225   10.4669 H   0  0  0  0  0  0  0  0  0  0  0  0
    2.8239   12.8076    8.8664 H   0  0  0  0  0  0  0  0  0  0  0  0
    0.1483   11.7131    9.8393 H   0  0  0  0  0  0  0  0  0  0  0  0
    0.4296   12.9693    8.5650 H   0  0  0  0  0  0  0  0  0  0  0  0
   -0.0701   10.6958    7.6513 H   0  0  0  0  0  0  0  0  0  0  0  0
    1.5491   11.3820    7.1614 H   0  0  0  0  0  0  0  0  0  0  0  0
    1.8753    9.0797    7.6085 H   0  0  0  0  0  0  0  0  0  0  0  0
    0.5060    9.4684   10.3041 H   0  0  0  0  0  0  0  0  0  0  0  0
   -0.1806    8.6235    8.8795 H   0  0  0  0  0  0  0  0  0  0  0  0
    1.7230    7.1150    8.9340 H   0  0  0  0  0  0  0  0  0  0  0  0
    0.9877    6.3190   11.4731 H   0  0  0  0  0  0  0  0  0  0  0  0
   -0.4351    7.0516   10.6930 H   0  0  0  0  0  0  0  0  0  0  0  0
    0.1709    5.6734    8.5572 H   0  0  0  0  0  0  0  0  0  0  0  0
    2.0900    4.8330    8.6710 H   0  0  0  0  0  0  0  0  0  0  0  0
   -1.1691    4.8711   10.9000 H   0  0  0  0  0  0  0  0  0  0  0  0
    0.3735    2.6030    9.5948 H   0  0  0  0  0  0  0  0  0  0  0  0
    0.3982    3.1686   11.3355 H   0  0  0  0  0  0  0  0  0  0  0  0
   -0.3929    0.3546    9.8074 H   0  0  0  0  0  0  0  0  0  0  0  0
   -2.2231   -1.2195   10.4203 H   0  0  0  0  0  0  0  0  0  0  0  0
   -4.1861   -0.4103   11.7251 H   0  0  0  0  0  0  0  0  0  0  0  0
   -4.3226    1.9819   12.4146 H   0  0  0  0  0  0  0  0  0  0  0  0
   -2.4944    3.5607   11.8113 H   0  0  0  0  0  0  0  0  0  0  0  0
   -1.4640    3.9380    8.0710 H   0  0  0  0  0  0  0  0  0  0  0  0
   -4.6839    4.4658    7.8779 H   0  0  0  0  0  0  0  0  0  0  0  0
   -2.9260    4.8211    5.6788 H   0  0  0  0  0  0  0  0  0  0  0  0
   -2.0500    3.8891    6.9616 H   0  0  0  0  0  0  0  0  0  0  0  0
   -3.8370    0.9430    6.5700 H   0  0  0  0  0  0  0  0  0  0  0  0
   -2.4770    1.7450    7.2750 H   0  0  0  0  0  0  0  0  0  0  0  0
   -3.3550    7.1120    7.4410 H   0  0  0  0  0  0  0  0  0  0  0  0
   -3.8110    8.7764    7.6991 H   0  0  0  0  0  0  0  0  0  0  0  0
   -4.0370   11.1997    7.0859 H   0  0  0  0  0  0  0  0  0  0  0  0
   -5.0860   12.9378    5.6689 H   0  0  0  0  0  0  0  0  0  0  0  0
   -6.6645   13.5536    3.8395 H   0  0  0  0  0  0  0  0  0  0  0  0
   -7.9653   11.7728    2.6756 H   0  0  0  0  0  0  0  0  0  0  0  0
   -7.6819    9.3929    3.3329 H   0  0  0  0  0  0  0  0  0  0  0  0
  1  2  1  0
  2  3  1  0
  2  4  1  0
  2  5  1  0
  5  6  1  0
  6  7  2  0
  6  8  1  0
  8  9  1  0
  9 10  1  0
 10 11  1  0
 11 12  1  0
 12 13  1  0
 13 14  1  0
 14 15  1  0
 15 16  1  0
 16 17  1  0
 17 18  1  0
 18 19  1  0
 19 20  1  0
 19 21  1  0
 21 22  1  0
 22 23  1  0
 23 24  2  0
 24 25  1  0
 25 26  2  0
 26 27  1  0
 27 28  2  0
 21 29  1  0
 29 30  1  0
 30 31  2  0
 30 32  1  0
 32 33  1  0
 33 34  1  0
 34 35  1  0
 34 36  2  0
 32 37  1  0
 37 38  1  0
 38 39  2  0
 38 40  1  0
 40 41  2  0
 41 42  1  0
 42 43  2  0
 43 44  1  0
 44 45  2  0
 45 46  1  0
 46 47  2  0
 47 48  1  0
 48 49  2  0
 17  8  1  0
 28 23  1  0
 49 40  1  0
 15 10  1  0
 48 43  1  0
  1 50  1  0
  1 51  1  0
  1 52  1  0
  3 53  1  0
  3 54  1  0
  3 55  1  0
  4 56  1  0
  4 57  1  0
  4 58  1  0
  5 59  1  0
  8 60  1  1
  9 61  1  0
  9 62  1  0
 10 63  1  6
 11 64  1  0
 11 65  1  0
 12 66  1  0
 12 67  1  0
 13 68  1  0
 13 69  1  0
 14 70  1  0
 14 71  1  0
 15 72  1  6
 16 73  1  0
 16 74  1  0
 17 75  1  6
 18 76  1  0
 18 77  1  0
 19 78  1  6
 20 79  1  0
 21 80  1  1
 22 81  1  0
 22 82  1  0
 24 83  1  0
 25 84  1  0
 26 85  1  0
 27 86  1  0
 28 87  1  0
 29 88  1  0
 32 89  1  1
 33 90  1  0
 33 91  1  0
 35 92  1  0
 35 93  1  0
 37 94  1  0
 41 95  1  0
 42 96  1  0
 44 97  1  0
 45 98  1  0
 46 99  1  0
 47100  1  0
M  CHG  1  17   1
M  END
>  <meeko>  (2) 
{"is_sidechain": [false], "free_energy": -10.957, "intermolecular_energy": -20.28, "internal_energy": -1.375}

$$$$
3pww_ligand
     RDKit          3D

100104  0  0  0  0  0  0  0  0999 V2000
    1.0580   12.4860    8.6760 C   0  0  0  0  0  0  0  0  0  0  0  0
    1.9830   11.3230    9.0820 C   0  0  0  0  0  0  0  0  0  0  0  0
    3.2440   11.9150    9.7310 C   0  0  0  0  0  0  0  0  0  0  0  0
    2.3550   10.5340    7.8170 C   0  0  0  0  0  0  0  0  0  0  0  0
    1.2490   10.4690   10.0390 N   0  0  0  0  0  0  0  0  0  0  0  0
    1.8050    9.4220   10.7420 C   0  0  0  0  0  0  0  0  0  0  0  0
    2.9740    9.0650   10.6210 O   0  0  0  0  0  0  0  0  0  0  0  0
    0.8360    8.6650   11.6880 C   0  0  2  0  0  0  0  0  0  0  0  0
    0.7420    9.2610   13.1000 C   0  0  0  0  0  0  0  0  0  0  0  0
    1.9050    8.9050   14.0410 C   0  0  2  0  0  0  0  0  0  0  0  0
    3.1740    9.7230   13.7460 C   0  0  0  0  0  0  0  0  0  0  0  0
    4.3130    9.3540   14.6930 C   0  0  0  0  0  0  0  0  0  0  0  0
    4.6140    7.8600   14.6430 C   0  0  0  0  0  0  0  0  0  0  0  0
    3.3670    7.0300   14.9350 C   0  0  0  0  0  0  0  0  0  0  0  0
    2.1730    7.3890   14.0370 C   0  0  2  0  0  0  0  0  0  0  0  0
    2.3540    6.8460   12.6170 C   0  0  0  0  0  0  0  0  0  0  0  0
    1.1250    7.1670   11.8090 N   0  0  2  0  0  0  0  0  0  0  0  0
    1.0980    6.4330   10.4620 C   0  0  0  0  0  0  0  0  0  0  0  0
   -0.0730    7.0150    9.6470 C   0  0  1  0  0  0  0  0  0  0  0  0
    0.5240    7.6220    8.4800 O   0  0  0  0  0  0  0  0  0  0  0  0
   -1.1510    5.9490    9.3110 C   0  0  2  0  0  0  0  0  0  0  0  0
   -0.6650    4.5010    9.5650 C   0  0  0  0  0  0  0  0  0  0  0  0
   -1.6200    3.6690   10.3920 C   0  0  0  0  0  0  0  0  0  0  0  0
   -2.9920    3.9530   10.4210 C   0  0  0  0  0  0  0  0  0  0  0  0
   -3.8600    3.1720   11.1850 C   0  0  0  0  0  0  0  0  0  0  0  0
   -3.3660    2.1060   11.9330 C   0  0  0  0  0  0  0  0  0  0  0  0
   -2.0030    1.8210   11.9230 C   0  0  0  0  0  0  0  0  0  0  0  0
   -1.1340    2.5990   11.1580 C   0  0  0  0  0  0  0  0  0  0  0  0
   -1.6700    6.1240    7.9490 N   0  0  0  0  0  0  0  0  0  0  0  0
   -2.9440    6.5450    7.6460 C   0  0  0  0  0  0  0  0  0  0  0  0
   -3.8060    6.6550    8.5220 O   0  0  0  0  0  0  0  0  0  0  0  0
   -3.2140    6.8380    6.1520 C   0  0  2  0  0  0  0  0  0  0  0  0
   -3.5040    8.3210    5.9090 C   0  0  0  0  0  0  0  0  0  0  0  0
   -4.9780    8.6240    6.0320 C   0  0  0  0  0  0  0  0  0  0  0  0
   -5.3710    9.0810    7.2530 N   0  0  0  0  0  0  0  0  0  0  0  0
   -5.7750    8.5310    5.1010 O   0  0  0  0  0  0  0  0  0  0  0  0
   -4.3530    6.0150    5.7590 N   0  0  0  0  0  0  0  0  0  0  0  0
   -4.3670    5.2550    4.6110 C   0  0  0  0  0  0  0  0  0  0  0  0
   -3.4420    5.2380    3.8090 O   0  0  0  0  0  0  0  0  0  0  0  0
   -5.6130    4.4460    4.4150 C   0  0  0  0  0  0  0  0  0  0  0  0
   -6.4200    4.1500    5.5000 C   0  0  0  0  0  0  0  0  0  0  0  0
   -7.5630    3.3940    5.2700 C   0  0  0  0  0  0  0  0  0  0  0  0
   -7.8590    2.9600    3.9710 C   0  0  0  0  0  0  0  0  0  0  0  0
   -9.0040    2.1910    3.6970 C   0  0  0  0  0  0  0  0  0  0  0  0
   -9.2740    1.7700    2.3970 C   0  0  0  0  0  0  0  0  0  0  0  0
   -8.4050    2.1130    1.3680 C   0  0  0  0  0  0  0  0  0  0  0  0
   -7.2680    2.8790    1.6420 C   0  0  0  0  0  0  0  0  0  0  0  0
   -6.9720    3.3130    2.9270 C   0  0  0  0  0  0  0  0  0  0  0  0
   -5.8660    4.0470    3.1370 N   0  0  0  0  0  0  0  0  0  0  0  0
    0.6677   12.9767    9.5798 H   0  0  0  0  0  0  0  0  0  0  0  0
    1.6258   13.2149    8.0791 H   0  0  0  0  0  0  0  0  0  0  0  0
    0.2200   12.0968    8.0791 H   0  0  0  0  0  0  0  0  0  0  0  0
    3.1484   11.8701   10.8259 H   0  0  0  0  0  0  0  0  0  0  0  0
    4.1248   11.3363    9.4158 H   0  0  0  0  0  0  0  0  0  0  0  0
    3.3614   12.9623    9.4158 H   0  0  0  0  0  0  0  0  0  0  0  0
    2.8079    9.5735    8.1039 H   0  0  0  0  0  0  0  0  0  0  0  0
    1.4493   10.3488    7.2208 H   0  0  0  0  0  0  0  0  0  0  0  0
    3.0741   11.1149    7.2208 H   0  0  0  0  0  0  0  0  0  0  0  0
    0.2510   10.6360   10.1010 H   0  0  0  0  0  0  0  0  0  0  0  0
   -0.1340    8.7975   11.1865 H   0  0  0  0  0  0  0  0  0  0  0  0
    0.7045   10.3562   13.0050 H   0  0  0  0  0  0  0  0  0  0  0  0
   -0.1612    8.8275   13.5542 H   0  0  0  0  0  0  0  0  0  0  0  0
    1.5984    9.1848   15.0597 H   0  0  0  0  0  0  0  0  0  0  0  0
    3.4924    9.5274   12.7114 H   0  0  0  0  0  0  0  0  0  0  0  0
    2.9382   10.7878   13.8897 H   0  0  0  0  0  0  0  0  0  0  0  0
    5.2156    9.9112   14.4019 H   0  0  0  0  0  0  0  0  0  0  0  0
    4.0094    9.6126   15.7182 H   0  0  0  0  0  0  0  0  0  0  0  0
    4.9878    7.6037   13.6407 H   0  0  0  0  0  0  0  0  0  0  0  0
    5.3682    7.6332   15.4110 H   0  0  0  0  0  0  0  0  0  0  0  0
    3.6110    5.9682   14.7832 H   0  0  0  0  0  0  0  0  0  0  0  0
    3.0697    7.2432   15.9724 H   0  0  0  0  0  0  0  0  0  0  0  0
    1.2822    6.8994   14.4575 H   0  0  0  0  0  0  0  0  0  0  0  0
    3.2338    7.3150   12.1522 H   0  0  0  0  0  0  0  0  0  0  0  0
    2.5017    5.7565   12.6518 H   0  0  0  0  0  0  0  0  0  0  0  0
    0.3100    6.7420   12.2960 H   0  0  0  0  0  0  0  0  0  0  0  0
    2.0456    6.5933    9.9268 H   0  0  0  0  0  0  0  0  0  0  0  0
    0.9694    5.3507   10.6105 H   0  0  0  0  0  0  0  0  0  0  0  0
   -0.6317    7.7661   10.2247 H   0  0  0  0  0  0  0  0  0  0  0  0
   -0.0840    8.3600    8.2180 H   0  0  0  0  0  0  0  0  0  0  0  0
   -1.9853    6.1140   10.0087 H   0  0  0  0  0  0  0  0  0  0  0  0
   -0.5281    4.0062    8.5922 H   0  0  0  0  0  0  0  0  0  0  0  0
    0.2714    4.5748   10.1374 H   0  0  0  0  0  0  0  0  0  0  0  0
   -3.3874    4.7975    9.8374 H   0  0  0  0  0  0  0  0  0  0  0  0
   -4.9363    3.3986   11.1965 H   0  0  0  0  0  0  0  0  0  0  0  0
   -4.0525    1.4893   12.5316 H   0  0  0  0  0  0  0  0  0  0  0  0
   -1.6118    0.9827   12.5181 H   0  0  0  0  0  0  0  0  0  0  0  0
   -0.0578    2.3714   11.1553 H   0  0  0  0  0  0  0  0  0  0  0  0
   -0.9720    6.2270    7.2040 H   0  0  0  0  0  0  0  0  0  0  0  0
   -2.3250    6.5972    5.5506 H   0  0  0  0  0  0  0  0  0  0  0  0
   -2.9531    8.9190    6.6499 H   0  0  0  0  0  0  0  0  0  0  0  0
   -3.1841    8.5723    4.8870 H   0  0  0  0  0  0  0  0  0  0  0  0
   -6.3600    9.2410    7.3960 H   0  0  0  0  0  0  0  0  0  0  0  0
   -4.7940    8.9750    8.0780 H   0  0  0  0  0  0  0  0  0  0  0  0
   -5.1670    5.9460    6.3730 H   0  0  0  0  0  0  0  0  0  0  0  0
   -6.1650    4.5015    6.5106 H   0  0  0  0  0  0  0  0  0  0  0  0
   -8.2326    3.1373    6.1041 H   0  0  0  0  0  0  0  0  0  0  0  0
   -9.6899    1.9206    4.5134 H   0  0  0  0  0  0  0  0  0  0  0  0
  -10.1707    1.1689    2.1858 H   0  0  0  0  0  0  0  0  0  0  0  0
   -8.6115    1.7822    0.3394 H   0  0  0  0  0  0  0  0  0  0  0  0
   -6.5900    3.1448    0.8176 H   0  0  0  0  0  0  0  0  0  0  0  0
  1  2  1  0
  2  3  1  0
  2  4  1  0
  2  5  1  0
  5  6  1  0
  6  7  2  0
  6  8  1  0
  8  9  1  0
  9 10  1  0
 10 11  1  0
 11 12  1  0
 12 13  1  0
 13 14  1  0
 14 15  1  0
 15 16  1  0
 16 17  1  0
 17 18  1  0
 18 19  1  0
 19 20  1  0
 19 21  1  0
 21 22  1  0
 22 23  1  0
 23 24  2  0
 24 25  1  0
 25 26  2  0
 26 27  1  0
 27 28  2  0
 21 29  1  0
 29 30  1  0
 30 31  2  0
 30 32  1  0
 32 33  1  0
 33 34  1  0
 34 35  1  0
 34 36  2  0
 32 37  1  0
 37 38  1  0
 38 39  2  0
 38 40  1  0
 40 41  2  0
 41 42  1  0
 42 43  2  0
 43 44  1  0
 44 45  2  0
 45 46  1  0
 46 47  2  0
 47 48  1  0
 48 49  2  0
 17  8  1  0
 28 23  1  0
 49 40  1  0
 15 10  1  0
 48 43  1  0
  1 50  1  0
  1 51  1  0
  1 52  1  0
  3 53  1  0
  3 54  1  0
  3 55  1  0
  4 56  1  0
  4 57  1  0
  4 58  1  0
  5 59  1  0
  8 60  1  6
  9 61  1  0
  9 62  1  0
 10 63  1  1
 11 64  1  0
 11 65  1  0
 12 66  1  0
 12 67  1  0
 13 68  1  0
 13 69  1  0
 14 70  1  0
 14 71  1  0
 15 72  1  1
 16 73  1  0
 16 74  1  0
 17 75  1  1
 18 76  1  0
 18 77  1  0
 19 78  1  1
 20 79  1  0
 21 80  1  1
 22 81  1  0
 22 82  1  0
 24 83  1  0
 25 84  1  0
 26 85  1  0
 27 86  1  0
 28 87  1  0
 29 88  1  0
 32 89  1  6
 33 90  1  0
 33 91  1  0
 35 92  1  0
 35 93  1  0
 37 94  1  0
 41 95  1  0
 42 96  1  0
 44 97  1  0
 45 98  1  0
 46 99  1  0
 47100  1  0
M  CHG  1  17   1
M  END
>  <meeko>  (3) 
{"is_sidechain": [false], "free_energy": -10.462, "intermolecular_energy": -18.992, "internal_energy": -1.778}

$$$$
3pww_ligand
     RDKit          3D

100104  0  0  0  0  0  0  0  0999 V2000
   -5.5880   -0.3030    9.8840 C   0  0  0  0  0  0  0  0  0  0  0  0
   -4.9630    0.0730    8.5280 C   0  0  0  0  0  0  0  0  0  0  0  0
   -5.5690   -0.8380    7.4490 C   0  0  0  0  0  0  0  0  0  0  0  0
   -3.4440   -0.1420    8.6160 C   0  0  0  0  0  0  0  0  0  0  0  0
   -5.2780    1.4920    8.2580 N   0  0  0  0  0  0  0  0  0  0  0  0
   -5.0430    2.1340    7.0610 C   0  0  0  0  0  0  0  0  0  0  0  0
   -4.5120    1.5960    6.0930 O   0  0  0  0  0  0  0  0  0  0  0  0
   -5.4560    3.6280    7.0140 C   0  0  2  0  0  0  0  0  0  0  0  0
   -6.9380    3.8620    6.6920 C   0  0  0  0  0  0  0  0  0  0  0  0
   -7.3150    3.7330    5.2070 C   0  0  2  0  0  0  0  0  0  0  0  0
   -7.4150    2.2680    4.7480 C   0  0  0  0  0  0  0  0  0  0  0  0
   -7.7910    2.1660    3.2720 C   0  0  0  0  0  0  0  0  0  0  0  0
   -6.8120    2.9380    2.3950 C   0  0  0  0  0  0  0  0  0  0  0  0
   -6.7010    4.3950    2.8320 C   0  0  0  0  0  0  0  0  0  0  0  0
   -6.3630    4.5590    4.3220 C   0  0  2  0  0  0  0  0  0  0  0  0
   -4.8950    4.2320    4.6070 C   0  0  0  0  0  0  0  0  0  0  0  0
   -4.6100    4.4800    6.0640 N   0  0  2  0  0  0  0  0  0  0  0  0
   -3.1110    4.4400    6.3860 C   0  0  0  0  0  0  0  0  0  0  0  0
   -2.7560    5.7660    7.0830 C   0  0  1  0  0  0  0  0  0  0  0  0
   -3.9550    6.5690    7.0340 O   0  0  0  0  0  0  0  0  0  0  0  0
   -2.2080    5.5530    8.5210 C   0  0  2  0  0  0  0  0  0  0  0  0
   -3.2970    5.0870    9.5170 C   0  0  0  0  0  0  0  0  0  0  0  0
   -2.9000    3.8840   10.3430 C   0  0  0  0  0  0  0  0  0  0  0  0
   -3.8370    3.2070   11.1360 C   0  0  0  0  0  0  0  0  0  0  0  0
   -3.4550    2.0950   11.8870 C   0  0  0  0  0  0  0  0  0  0  0  0
   -2.1340    1.6530   11.8610 C   0  0  0  0  0  0  0  0  0  0  0  0
   -1.1920    2.3240   11.0860 C   0  0  0  0  0  0  0  0  0  0  0  0
   -1.5720    3.4350   10.3320 C   0  0  0  0  0  0  0  0  0  0  0  0
   -1.4940    6.7410    9.0030 N   0  0  0  0  0  0  0  0  0  0  0  0
   -0.1350    6.8080    9.2090 C   0  0  0  0  0  0  0  0  0  0  0  0
    0.5700    5.7970    9.1500 O   0  0  0  0  0  0  0  0  0  0  0  0
    0.4240    8.2120    9.5380 C   0  0  2  0  0  0  0  0  0  0  0  0
    1.3100    8.7470    8.4100 C   0  0  0  0  0  0  0  0  0  0  0  0
    1.2190   10.2500    8.3010 C   0  0  0  0  0  0  0  0  0  0  0  0
    0.0690   10.7930    8.7880 N   0  0  0  0  0  0  0  0  0  0  0  0
    2.1240   10.9590    7.8670 O   0  0  0  0  0  0  0  0  0  0  0  0
    1.1820    8.0840   10.7770 N   0  0  0  0  0  0  0  0  0  0  0  0
    1.0010    8.9220   11.8550 C   0  0  0  0  0  0  0  0  0  0  0  0
    0.2180    9.8630   11.8470 O   0  0  0  0  0  0  0  0  0  0  0  0
    1.8450    8.5920   13.0480 C   0  0  0  0  0  0  0  0  0  0  0  0
    1.6860    7.3760   13.6910 C   0  0  0  0  0  0  0  0  0  0  0  0
    2.4880    7.1180   14.7950 C   0  0  0  0  0  0  0  0  0  0  0  0
    3.4180    8.0770   15.2200 C   0  0  0  0  0  0  0  0  0  0  0  0
    4.2460    7.8530   16.3330 C   0  0  0  0  0  0  0  0  0  0  0  0
    5.1600    8.8240   16.7360 C   0  0  0  0  0  0  0  0  0  0  0  0
    5.2510   10.0190   16.0310 C   0  0  0  0  0  0  0  0  0  0  0  0
    4.4270   10.2380   14.9220 C   0  0  0  0  0  0  0  0  0  0  0  0
    3.5070    9.2890   14.4970 C   0  0  0  0  0  0  0  0  0  0  0  0
    2.7390    9.5500   13.4260 N   0  0  0  0  0  0  0  0  0  0  0  0
   -4.9542    0.0783   10.6982 H   0  0  0  0  0  0  0  0  0  0  0  0
   -6.5912    0.1417    9.9613 H   0  0  0  0  0  0  0  0  0  0  0  0
   -5.6652   -1.3976    9.9613 H   0  0  0  0  0  0  0  0  0  0  0  0
   -6.1169   -1.6617    7.9300 H   0  0  0  0  0  0  0  0  0  0  0  0
   -6.2597   -0.2548    6.8223 H   0  0  0  0  0  0  0  0  0  0  0  0
   -4.7641   -1.2497    6.8223 H   0  0  0  0  0  0  0  0  0  0  0  0
   -3.1404   -0.1850    9.6724 H   0  0  0  0  0  0  0  0  0  0  0  0
   -3.1780   -1.0867    8.1193 H   0  0  0  0  0  0  0  0  0  0  0  0
   -2.9263    0.6918    8.1193 H   0  0  0  0  0  0  0  0  0  0  0  0
   -5.6150    2.0260    9.0520 H   0  0  0  0  0  0  0  0  0  0  0  0
   -5.2664    3.9564    8.0466 H   0  0  0  0  0  0  0  0  0  0  0  0
   -7.5291    3.1270    7.2580 H   0  0  0  0  0  0  0  0  0  0  0  0
   -7.1492    4.9050    6.9704 H   0  0  0  0  0  0  0  0  0  0  0  0
   -8.3249    4.1530    5.0896 H   0  0  0  0  0  0  0  0  0  0  0  0
   -6.4425    1.7781    4.9033 H   0  0  0  0  0  0  0  0  0  0  0  0
   -8.2017    1.7754    5.3383 H   0  0  0  0  0  0  0  0  0  0  0  0
   -7.7821    1.1076    2.9726 H   0  0  0  0  0  0  0  0  0  0  0  0
   -8.7927    2.6005    3.1387 H   0  0  0  0  0  0  0  0  0  0  0  0
   -5.8205    2.4669    2.4655 H   0  0  0  0  0  0  0  0  0  0  0  0
   -7.1831    2.9150    1.3597 H   0  0  0  0  0  0  0  0  0  0  0  0
   -5.9100    4.8779    2.2394 H   0  0  0  0  0  0  0  0  0  0  0  0
   -7.6843    4.8600    2.6681 H   0  0  0  0  0  0  0  0  0  0  0  0
   -6.5124    5.6178    4.5801 H   0  0  0  0  0  0  0  0  0  0  0  0
   -4.6994    3.1763    4.3677 H   0  0  0  0  0  0  0  0  0  0  0  0
   -4.2461    4.8693    3.9883 H   0  0  0  0  0  0  0  0  0  0  0  0
   -4.8410    5.4740    6.2640 H   0  0  0  0  0  0  0  0  0  0  0  0
   -2.8920    3.5936    7.0536 H   0  0  0  0  0  0  0  0  0  0  0  0
   -2.5191    4.3125    5.4677 H   0  0  0  0  0  0  0  0  0  0  0  0
   -1.9301    6.2817    6.5712 H   0  0  0  0  0  0  0  0  0  0  0  0
   -3.7280    7.4210    7.4900 H   0  0  0  0  0  0  0  0  0  0  0  0
   -1.4811    4.7295    8.4618 H   0  0  0  0  0  0  0  0  0  0  0  0
   -3.5186    5.9190   10.2017 H   0  0  0  0  0  0  0  0  0  0  0  0
   -4.1697    4.7880    8.9179 H   0  0  0  0  0  0  0  0  0  0  0  0
   -4.8801    3.5548   11.1663 H   0  0  0  0  0  0  0  0  0  0  0  0
   -4.1986    1.5659   12.5011 H   0  0  0  0  0  0  0  0  0  0  0  0
   -1.8356    0.7747   12.4522 H   0  0  0  0  0  0  0  0  0  0  0  0
   -0.1479    1.9783   11.0680 H   0  0  0  0  0  0  0  0  0  0  0  0
   -0.8230    3.9631    9.7237 H   0  0  0  0  0  0  0  0  0  0  0  0
   -1.9780    7.6400    8.8940 H   0  0  0  0  0  0  0  0  0  0  0  0
   -0.3990    8.9333    9.6494 H   0  0  0  0  0  0  0  0  0  0  0  0
    2.3542    8.4657    8.6116 H   0  0  0  0  0  0  0  0  0  0  0  0
    0.9631    8.3104    7.4618 H   0  0  0  0  0  0  0  0  0  0  0  0
   -0.0570   11.7920    8.6810 H   0  0  0  0  0  0  0  0  0  0  0  0
   -0.7590   10.2360    8.9580 H   0  0  0  0  0  0  0  0  0  0  0  0
    1.8460    7.3160   10.8910 H   0  0  0  0  0  0  0  0  0  0  0  0
    0.9491    6.6390   13.3391 H   0  0  0  0  0  0  0  0  0  0  0  0
    2.3938    6.1640   15.3344 H   0  0  0  0  0  0  0  0  0  0  0  0
    4.1721    6.9065   16.8886 H   0  0  0  0  0  0  0  0  0  0  0  0
    5.8067    8.6462   17.6079 H   0  0  0  0  0  0  0  0  0  0  0  0
    5.9695   10.7906   16.3447 H   0  0  0  0  0  0  0  0  0  0  0  0
    4.5101   11.1871   14.3722 H   0  0  0  0  0  0  0  0  0  0  0  0
  1  2  1  0
  2  3  1  0
  2  4  1  0
  2  5  1  0
  5  6  1  0
  6  7  2  0
  6  8  1  0
  8  9  1  0
  9 10  1  0
 10 11  1  0
 11 12  1  0
 12 13  1  0
 13 14  1  0
 14 15  1  0
 15 16  1  0
 16 17  1  0
 17 18  1  0
 18 19  1  0
 19 20  1  0
 19 21  1  0
 21 22  1  0
 22 23  1  0
 23 24  2  0
 24 25  1  0
 25 26  2  0
 26 27  1  0
 27 28  2  0
 21 29  1  0
 29 30  1  0
 30 31  2  0
 30 32  1  0
 32 33  1  0
 33 34  1  0
 34 35  1  0
 34 36  2  0
 32 37  1  0
 37 38  1  0
 38 39  2  0
 38 40  1  0
 40 41  2  0
 41 42  1  0
 42 43  2  0
 43 44  1  0
 44 45  2  0
 45 46  1  0
 46 47  2  0
 47 48  1  0
 48 49  2  0
 17  8  1  0
 28 23  1  0
 49 40  1  0
 15 10  1  0
 48 43  1  0
  1 50  1  0
  1 51  1  0
  1 52  1  0
  3 53  1  0
  3 54  1  0
  3 55  1  0
  4 56  1  0
  4 57  1  0
  4 58  1  0
  5 59  1  0
  8 60  1  1
  9 61  1  0
  9 62  1  0
 10 63  1  1
 11 64  1  0
 11 65  1  0
 12 66  1  0
 12 67  1  0
 13 68  1  0
 13 69  1  0
 14 70  1  0
 14 71  1  0
 15 72  1  1
 16 73  1  0
 16 74  1  0
 17 75  1  1
 18 76  1  0
 18 77  1  0
 19 78  1  6
 20 79  1  0
 21 80  1  6
 22 81  1  0
 22 82  1  0
 24 83  1  0
 25 84  1  0
 26 85  1  0
 27 86  1  0
 28 87  1  0
 29 88  1  0
 32 89  1  1
 33 90  1  0
 33 91  1  0
 35 92  1  0
 35 93  1  0
 37 94  1  0
 41 95  1  0
 42 96  1  0
 44 97  1  0
 45 98  1  0
 46 99  1  0
 47100  1  0
M  CHG  1  17   1
M  END
>  <meeko>  (4) 
{"is_sidechain": [false], "free_energy": -10.28, "intermolecular_energy": -18.115, "internal_energy": -2.33}

$$$$
3pww_ligand
     RDKit          3D

100104  0  0  0  0  0  0  0  0999 V2000
   -9.0150   -2.8130    5.4910 C   0  0  0  0  0  0  0  0  0  0  0  0
   -8.8500   -1.3450    5.9270 C   0  0  0  0  0  0  0  0  0  0  0  0
   -9.8080   -1.0810    7.0990 C   0  0  0  0  0  0  0  0  0  0  0  0
   -9.2020   -0.4410    4.7370 C   0  0  0  0  0  0  0  0  0  0  0  0
   -7.4440   -1.1480    6.3400 N   0  0  0  0  0  0  0  0  0  0  0  0
   -6.9340    0.0260    6.8520 C   0  0  0  0  0  0  0  0  0  0  0  0
   -7.5960    1.0520    6.9910 O   0  0  0  0  0  0  0  0  0  0  0  0
   -5.4260   -0.0040    7.2120 C   0  0  2  0  0  0  0  0  0  0  0  0
   -5.0220   -1.1600    8.1370 C   0  0  0  0  0  0  0  0  0  0  0  0
   -5.3520   -0.9560    9.6260 C   0  0  2  0  0  0  0  0  0  0  0  0
   -6.8410   -1.1860    9.9370 C   0  0  0  0  0  0  0  0  0  0  0  0
   -7.1430   -0.9790   11.4190 C   0  0  0  0  0  0  0  0  0  0  0  0
   -6.7040    0.4030   11.8880 C   0  0  0  0  0  0  0  0  0  0  0  0
   -5.2280    0.6510   11.5900 C   0  0  0  0  0  0  0  0  0  0  0  0
   -4.8570    0.4170   10.1170 C   0  0  2  0  0  0  0  0  0  0  0  0
   -5.3560    1.5550    9.2230 C   0  0  0  0  0  0  0  0  0  0  0  0
   -4.9010    1.3050    7.8100 N   0  0  2  0  0  0  0  0  0  0  0  0
   -5.1200    2.5190    6.8980 C   0  0  0  0  0  0  0  0  0  0  0  0
   -3.7930    3.3000    6.8490 C   0  0  1  0  0  0  0  0  0  0  0  0
   -3.3280    3.2000    5.4850 O   0  0  0  0  0  0  0  0  0  0  0  0
   -3.9470    4.7630    7.3480 C   0  0  2  0  0  0  0  0  0  0  0  0
   -3.8160    4.8910    8.8850 C   0  0  0  0  0  0  0  0  0  0  0  0
   -2.4810    4.4310    9.4280 C   0  0  0  0  0  0  0  0  0  0  0  0
   -2.3850    3.3100   10.2640 C   0  0  0  0  0  0  0  0  0  0  0  0
   -1.1450    2.8960   10.7510 C   0  0  0  0  0  0  0  0  0  0  0  0
    0.0090    3.6010   10.4170 C   0  0  0  0  0  0  0  0  0  0  0  0
   -0.0750    4.7240    9.5980 C   0  0  0  0  0  0  0  0  0  0  0  0
   -1.3140    5.1380    9.1070 C   0  0  0  0  0  0  0  0  0  0  0  0
   -5.1850    5.3720    6.8490 N   0  0  0  0  0  0  0  0  0  0  0  0
   -5.3670    5.8370    5.5670 C   0  0  0  0  0  0  0  0  0  0  0  0
   -4.4230    5.9180    4.7770 O   0  0  0  0  0  0  0  0  0  0  0  0
   -6.8090    6.2650    5.2090 C   0  0  2  0  0  0  0  0  0  0  0  0
   -7.7010    6.3440    6.4500 C   0  0  0  0  0  0  0  0  0  0  0  0
   -8.6350    5.1610    6.5370 C   0  0  0  0  0  0  0  0  0  0  0  0
   -8.2860    4.2190    7.4560 N   0  0  0  0  0  0  0  0  0  0  0  0
   -9.6700    5.0580    5.8830 O   0  0  0  0  0  0  0  0  0  0  0  0
   -7.3200    5.2770    4.2650 N   0  0  0  0  0  0  0  0  0  0  0  0
   -7.7250    5.6020    2.9890 C   0  0  0  0  0  0  0  0  0  0  0  0
   -7.7250    6.7480    2.5580 O   0  0  0  0  0  0  0  0  0  0  0  0
   -8.1730    4.4350    2.1630 C   0  0  0  0  0  0  0  0  0  0  0  0
   -7.2770    3.4260    1.8520 C   0  0  0  0  0  0  0  0  0  0  0  0
   -7.7370    2.3670    1.0790 C   0  0  0  0  0  0  0  0  0  0  0  0
   -9.0700    2.3500    0.6450 C   0  0  0  0  0  0  0  0  0  0  0  0
   -9.5720    1.2980   -0.1390 C   0  0  0  0  0  0  0  0  0  0  0  0
  -10.9010    1.3060   -0.5600 C   0  0  0  0  0  0  0  0  0  0  0  0
  -11.7300    2.3620   -0.2010 C   0  0  0  0  0  0  0  0  0  0  0  0
  -11.2270    3.4080    0.5810 C   0  0  0  0  0  0  0  0  0  0  0  0
   -9.9090    3.4270    1.0150 C   0  0  0  0  0  0  0  0  0  0  0  0
   -9.4760    4.4560    1.7640 N   0  0  0  0  0  0  0  0  0  0  0  0
   -9.0871   -3.4542    6.3819 H   0  0  0  0  0  0  0  0  0  0  0  0
   -9.9304   -2.9163    4.8899 H   0  0  0  0  0  0  0  0  0  0  0  0
   -8.1454   -3.1169    4.8899 H   0  0  0  0  0  0  0  0  0  0  0  0
   -9.2740   -1.2282    8.0494 H   0  0  0  0  0  0  0  0  0  0  0  0
  -10.1793   -0.0471    7.0433 H   0  0  0  0  0  0  0  0  0  0  0  0
  -10.6565   -1.7788    7.0433 H   0  0  0  0  0  0  0  0  0  0  0  0
   -9.5777    0.5239    5.1081 H   0  0  0  0  0  0  0  0  0  0  0  0
   -8.3033   -0.2737    4.1252 H   0  0  0  0  0  0  0  0  0  0  0  0
   -9.9772   -0.9255    4.1252 H   0  0  0  0  0  0  0  0  0  0  0  0
   -6.8160   -1.9200    6.1460 H   0  0  0  0  0  0  0  0  0  0  0  0
   -4.9534   -0.1595    6.2309 H   0  0  0  0  0  0  0  0  0  0  0  0
   -5.5420   -2.0669    7.7947 H   0  0  0  0  0  0  0  0  0  0  0  0
   -3.9260   -1.2308    8.0750 H   0  0  0  0  0  0  0  0  0  0  0  0
   -4.8061   -1.7263   10.1905 H   0  0  0  0  0  0  0  0  0  0  0  0
   -7.4424   -0.4782    9.3477 H   0  0  0  0  0  0  0  0  0  0  0  0
   -7.0909   -2.2251    9.6764 H   0  0  0  0  0  0  0  0  0  0  0  0
   -8.2257   -1.0851   11.5819 H   0  0  0  0  0  0  0  0  0  0  0  0
   -6.5861   -1.7331   11.9945 H   0  0  0  0  0  0  0  0  0  0  0  0
   -7.3061    1.1643   11.3704 H   0  0  0  0  0  0  0  0  0  0  0  0
   -6.8513    0.4614   12.9765 H   0  0  0  0  0  0  0  0  0  0  0  0
   -4.9901    1.6934   11.8485 H   0  0  0  0  0  0  0  0  0  0  0  0
   -4.6496   -0.0674   12.1895 H   0  0  0  0  0  0  0  0  0  0  0  0
   -3.7592    0.4120   10.0484 H   0  0  0  0  0  0  0  0  0  0  0  0
   -6.4548    1.5941    9.2550 H   0  0  0  0  0  0  0  0  0  0  0  0
   -4.9497    2.5129    9.5799 H   0  0  0  0  0  0  0  0  0  0  0  0
   -3.8640    1.2350    7.8220 H   0  0  0  0  0  0  0  0  0  0  0  0
   -5.3981    2.1854    5.8874 H   0  0  0  0  0  0  0  0  0  0  0  0
   -5.9317    3.1539    7.2827 H   0  0  0  0  0  0  0  0  0  0  0  0
   -3.0488    2.8739    7.5379 H   0  0  0  0  0  0  0  0  0  0  0  0
   -2.6260    2.5000    5.4900 H   0  0  0  0  0  0  0  0  0  0  0  0
   -3.1046    5.3297    6.9247 H   0  0  0  0  0  0  0  0  0  0  0  0
   -3.9550    5.9476    9.1574 H   0  0  0  0  0  0  0  0  0  0  0  0
   -4.5822    4.2363    9.3259 H   0  0  0  0  0  0  0  0  0  0  0  0
   -3.2933    2.7531   10.5378 H   0  0  0  0  0  0  0  0  0  0  0  0
   -1.0784    2.0106   11.4004 H   0  0  0  0  0  0  0  0  0  0  0  0
    0.9859    3.2709   10.7999 H   0  0  0  0  0  0  0  0  0  0  0  0
    0.8350    5.2847    9.3381 H   0  0  0  0  0  0  0  0  0  0  0  0
   -1.3753    6.0271    8.4623 H   0  0  0  0  0  0  0  0  0  0  0  0
   -6.0390    5.1700    7.3800 H   0  0  0  0  0  0  0  0  0  0  0  0
   -6.8084    7.2725    4.7675 H   0  0  0  0  0  0  0  0  0  0  0  0
   -7.0645    6.3634    7.3469 H   0  0  0  0  0  0  0  0  0  0  0  0
   -8.3083    7.2585    6.3805 H   0  0  0  0  0  0  0  0  0  0  0  0
   -8.8530    3.3810    7.5060 H   0  0  0  0  0  0  0  0  0  0  0  0
   -7.3560    4.1740    7.8530 H   0  0  0  0  0  0  0  0  0  0  0  0
   -7.3410    4.2900    4.5220 H   0  0  0  0  0  0  0  0  0  0  0  0
   -6.2358    3.4617    2.2051 H   0  0  0  0  0  0  0  0  0  0  0  0
   -7.0578    1.5450    0.8086 H   0  0  0  0  0  0  0  0  0  0  0  0
   -8.9132    0.4638   -0.4221 H   0  0  0  0  0  0  0  0  0  0  0  0
  -11.2915    0.4805   -1.1733 H   0  0  0  0  0  0  0  0  0  0  0  0
  -12.7793    2.3757   -0.5308 H   0  0  0  0  0  0  0  0  0  0  0  0
  -11.8942    4.2372    0.8590 H   0  0  0  0  0  0  0  0  0  0  0  0
  1  2  1  0
  2  3  1  0
  2  4  1  0
  2  5  1  0
  5  6  1  0
  6  7  2  0
  6  8  1  0
  8  9  1  0
  9 10  1  0
 10 11  1  0
 11 12  1  0
 12 13  1  0
 13 14  1  0
 14 15  1  0
 15 16  1  0
 16 17  1  0
 17 18  1  0
 18 19  1  0
 19 20  1  0
 19 21  1  0
 21 22  1  0
 22 23  1  0
 23 24  2  0
 24 25  1  0
 25 26  2  0
 26 27  1  0
 27 28  2  0
 21 29  1  0
 29 30  1  0
 30 31  2  0
 30 32  1  0
 32 33  1  0
 33 34  1  0
 34 35  1  0
 34 36  2  0
 32 37  1  0
 37 38  1  0
 38 39  2  0
 38 40  1  0
 40 41  2  0
 41 42  1  0
 42 43  2  0
 43 44  1  0
 44 45  2  0
 45 46  1  0
 46 47  2  0
 47 48  1  0
 48 49  2  0
 17  8  1  0
 28 23  1  0
 49 40  1  0
 15 10  1  0
 48 43  1  0
  1 50  1  0
  1 51  1  0
  1 52  1  0
  3 53  1  0
  3 54  1  0
  3 55  1  0
  4 56  1  0
  4 57  1  0
  4 58  1  0
  5 59  1  0
  8 60  1  6
  9 61  1  0
  9 62  1  0
 10 63  1  1
 11 64  1  0
 11 65  1  0
 12 66  1  0
 12 67  1  0
 13 68  1  0
 13 69  1  0
 14 70  1  0
 14 71  1  0
 15 72  1  1
 16 73  1  0
 16 74  1  0
 17 75  1  1
 18 76  1  0
 18 77  1  0
 19 78  1  1
 20 79  1  0
 21 80  1  6
 22 81  1  0
 22 82  1  0
 24 83  1  0
 25 84  1  0
 26 85  1  0
 27 86  1  0
 28 87  1  0
 29 88  1  0
 32 89  1  6
 33 90  1  0
 33 91  1  0
 35 92  1  0
 35 93  1  0
 37 94  1  0
 41 95  1  0
 42 96  1  0
 44 97  1  0
 45 98  1  0
 46 99  1  0
 47100  1  0
M  CHG  1  17   1
M  END
>  <meeko>  (5) 
{"is_sidechain": [false], "free_energy": -10.253, "intermolecular_energy": -17.453, "internal_energy": -2.944}

$$$$
3pww_ligand
     RDKit          3D

100104  0  0  0  0  0  0  0  0999 V2000
   -7.4130   -1.4280    5.8890 C   0  0  0  0  0  0  0  0  0  0  0  0
   -7.2200   -0.6510    7.2050 C   0  0  0  0  0  0  0  0  0  0  0  0
   -5.7460   -0.7710    7.6230 C   0  0  0  0  0  0  0  0  0  0  0  0
   -8.1290   -1.2740    8.2750 C   0  0  0  0  0  0  0  0  0  0  0  0
   -7.5850    0.7600    6.9600 N   0  0  0  0  0  0  0  0  0  0  0  0
   -7.1880    1.4950    5.8650 C   0  0  0  0  0  0  0  0  0  0  0  0
   -6.4520    1.0590    4.9820 O   0  0  0  0  0  0  0  0  0  0  0  0
   -7.6940    2.9610    5.8260 C   0  0  2  0  0  0  0  0  0  0  0  0
   -9.0970    3.1260    5.2230 C   0  0  0  0  0  0  0  0  0  0  0  0
   -9.1600    3.0850    3.6870 C   0  0  2  0  0  0  0  0  0  0  0  0
   -9.0550    1.6550    3.1310 C   0  0  0  0  0  0  0  0  0  0  0  0
   -9.1220    1.6390    1.6050 C   0  0  0  0  0  0  0  0  0  0  0  0
   -8.0500    2.5340    0.9940 C   0  0  0  0  0  0  0  0  0  0  0  0
   -8.1380    3.9590    1.5320 C   0  0  0  0  0  0  0  0  0  0  0  0
   -8.1170    4.0320    3.0670 C   0  0  2  0  0  0  0  0  0  0  0  0
   -6.7140    3.7760    3.6230 C   0  0  0  0  0  0  0  0  0  0  0  0
   -6.7430    3.9310    5.1200 N   0  0  2  0  0  0  0  0  0  0  0  0
   -5.3390    3.9600    5.7370 C   0  0  0  0  0  0  0  0  0  0  0  0
   -5.4360    4.7390    7.0630 C   0  0  1  0  0  0  0  0  0  0  0  0
   -5.5750    3.7400    8.0960 O   0  0  0  0  0  0  0  0  0  0  0  0
   -4.2320    5.6960    7.2790 C   0  0  2  0  0  0  0  0  0  0  0  0
   -3.6480    6.2370    5.9520 C   0  0  0  0  0  0  0  0  0  0  0  0
   -3.9270    7.7040    5.7110 C   0  0  0  0  0  0  0  0  0  0  0  0
   -5.2390    8.1920    5.6490 C   0  0  0  0  0  0  0  0  0  0  0  0
   -5.4790    9.5490    5.4320 C   0  0  0  0  0  0  0  0  0  0  0  0
   -4.4130   10.4300    5.2660 C   0  0  0  0  0  0  0  0  0  0  0  0
   -3.1050    9.9550    5.3140 C   0  0  0  0  0  0  0  0  0  0  0  0
   -2.8620    8.5990    5.5330 C   0  0  0  0  0  0  0  0  0  0  0  0
   -3.2030    5.0770    8.1230 N   0  0  0  0  0  0  0  0  0  0  0  0
   -2.3090    5.7730    8.9040 C   0  0  0  0  0  0  0  0  0  0  0  0
   -2.2100    7.0000    8.8220 O   0  0  0  0  0  0  0  0  0  0  0  0
   -1.4390    4.9150    9.8520 C   0  0  2  0  0  0  0  0  0  0  0  0
   -0.0470    4.6600    9.2680 C   0  0  0  0  0  0  0  0  0  0  0  0
    0.9920    5.5480    9.9080 C   0  0  0  0  0  0  0  0  0  0  0  0
    2.2580    5.0450    9.9060 N   0  0  0  0  0  0  0  0  0  0  0  0
    0.7540    6.6690   10.3520 O   0  0  0  0  0  0  0  0  0  0  0  0
   -2.1530    3.6590   10.0570 N   0  0  0  0  0  0  0  0  0  0  0  0
   -1.6680    2.6440   10.8510 C   0  0  0  0  0  0  0  0  0  0  0  0
   -0.5830    2.6980   11.4180 O   0  0  0  0  0  0  0  0  0  0  0  0
   -2.5750    1.4570   10.9680 C   0  0  0  0  0  0  0  0  0  0  0  0
   -2.0640    0.1810   10.8040 C   0  0  0  0  0  0  0  0  0  0  0  0
   -2.9440   -0.8880   10.9170 C   0  0  0  0  0  0  0  0  0  0  0  0
   -4.2980   -0.6490   11.1890 C   0  0  0  0  0  0  0  0  0  0  0  0
   -5.2190   -1.7030   11.3100 C   0  0  0  0  0  0  0  0  0  0  0  0
   -6.5610   -1.4370   11.5780 C   0  0  0  0  0  0  0  0  0  0  0  0
   -6.9860   -0.1220   11.7270 C   0  0  0  0  0  0  0  0  0  0  0  0
   -6.0660    0.9250   11.6080 C   0  0  0  0  0  0  0  0  0  0  0  0
   -4.7240    0.6910   11.3410 C   0  0  0  0  0  0  0  0  0  0  0  0
   -3.8820    1.7340   11.2360 N   0  0  0  0  0  0  0  0  0  0  0  0
   -7.6725   -2.4728    6.1148 H   0  0  0  0  0  0  0  0  0  0  0  0
   -8.2238   -0.9665    5.3062 H   0  0  0  0  0  0  0  0  0  0  0  0
   -6.4805   -1.3995    5.3062 H   0  0  0  0  0  0  0  0  0  0  0  0
   -5.6755   -0.7767    8.7207 H   0  0  0  0  0  0  0  0  0  0  0  0
   -5.3266   -1.7063    7.2237 H   0  0  0  0  0  0  0  0  0  0  0  0
   -5.1809    0.0841    7.2237 H   0  0  0  0  0  0  0  0  0  0  0  0
   -7.7501   -1.0143    9.2745 H   0  0  0  0  0  0  0  0  0  0  0  0
   -9.1517   -0.8861    8.1584 H   0  0  0  0  0  0  0  0  0  0  0  0
   -8.1362   -2.3678    8.1584 H   0  0  0  0  0  0  0  0  0  0  0  0
   -8.0980    1.2170    7.7070 H   0  0  0  0  0  0  0  0  0  0  0  0
   -7.7377    3.2237    6.8933 H   0  0  0  0  0  0  0  0  0  0  0  0
   -9.7314    2.3155    5.6111 H   0  0  0  0  0  0  0  0  0  0  0  0
   -9.4380    4.1302    5.5152 H   0  0  0  0  0  0  0  0  0  0  0  0
  -10.1548    3.4490    3.3906 H   0  0  0  0  0  0  0  0  0  0  0  0
   -8.0981    1.2169    3.4510 H   0  0  0  0  0  0  0  0  0  0  0  0
   -9.9032    1.0718    3.5189 H   0  0  0  0  0  0  0  0  0  0  0  0
   -8.9730    0.6084    1.2506 H   0  0  0  0  0  0  0  0  0  0  0  0
  -10.1076    2.0179    1.2968 H   0  0  0  0  0  0  0  0  0  0  0  0
   -7.0594    2.1212    1.2356 H   0  0  0  0  0  0  0  0  0  0  0  0
   -8.2061    2.5658   -0.0944 H   0  0  0  0  0  0  0  0  0  0  0  0
   -7.2833    4.5322    1.1435 H   0  0  0  0  0  0  0  0  0  0  0  0
   -9.1010    4.3738    1.1994 H   0  0  0  0  0  0  0  0  0  0  0  0
   -8.3951    5.0567    3.3543 H   0  0  0  0  0  0  0  0  0  0  0  0
   -6.3955    2.7554    3.3642 H   0  0  0  0  0  0  0  0  0  0  0  0
   -6.0055    4.4968    3.1889 H   0  0  0  0  0  0  0  0  0  0  0  0
   -7.0840    4.8910    5.3290 H   0  0  0  0  0  0  0  0  0  0  0  0
   -4.9907    2.9342    5.9279 H   0  0  0  0  0  0  0  0  0  0  0  0
   -4.6239    4.4420    5.0541 H   0  0  0  0  0  0  0  0  0  0  0  0
   -6.3019    5.4174    7.0699 H   0  0  0  0  0  0  0  0  0  0  0  0
   -6.3710    3.2020    7.8480 H   0  0  0  0  0  0  0  0  0  0  0  0
   -4.6188    6.5741    7.8168 H   0  0  0  0  0  0  0  0  0  0  0  0
   -2.5580    6.0901    5.9682 H   0  0  0  0  0  0  0  0  0  0  0  0
   -4.1376    5.6816    5.1385 H   0  0  0  0  0  0  0  0  0  0  0  0
   -6.0855    7.5004    5.7723 H   0  0  0  0  0  0  0  0  0  0  0  0
   -6.5123    9.9240    5.3919 H   0  0  0  0  0  0  0  0  0  0  0  0
   -4.6043   11.5000    5.0971 H   0  0  0  0  0  0  0  0  0  0  0  0
   -2.2627   10.6495    5.1791 H   0  0  0  0  0  0  0  0  0  0  0  0
   -1.8267    8.2287    5.5664 H   0  0  0  0  0  0  0  0  0  0  0  0
   -3.3480    4.0930    8.3730 H   0  0  0  0  0  0  0  0  0  0  0  0
   -1.2800    5.4420   10.8044 H   0  0  0  0  0  0  0  0  0  0  0  0
    0.2260    3.6085    9.4407 H   0  0  0  0  0  0  0  0  0  0  0  0
   -0.0776    4.8847    8.1916 H   0  0  0  0  0  0  0  0  0  0  0  0
    2.9750    5.5830   10.3770 H   0  0  0  0  0  0  0  0  0  0  0  0
    2.4460    4.0650    9.7400 H   0  0  0  0  0  0  0  0  0  0  0  0
   -3.0770    3.5250    9.6440 H   0  0  0  0  0  0  0  0  0  0  0  0
   -0.9970    0.0189   10.5913 H   0  0  0  0  0  0  0  0  0  0  0  0
   -2.5794   -1.9184   10.7934 H   0  0  0  0  0  0  0  0  0  0  0  0
   -4.8797   -2.7428   11.1928 H   0  0  0  0  0  0  0  0  0  0  0  0
   -7.2803   -2.2640   11.6711 H   0  0  0  0  0  0  0  0  0  0  0  0
   -8.0436    0.0949   11.9380 H   0  0  0  0  0  0  0  0  0  0  0  0
   -6.4152    1.9610   11.7292 H   0  0  0  0  0  0  0  0  0  0  0  0
  1  2  1  0
  2  3  1  0
  2  4  1  0
  2  5  1  0
  5  6  1  0
  6  7  2  0
  6  8  1  0
  8  9  1  0
  9 10  1  0
 10 11  1  0
 11 12  1  0
 12 13  1  0
 13 14  1  0
 14 15  1  0
 15 16  1  0
 16 17  1  0
 17 18  1  0
 18 19  1  0
 19 20  1  0
 19 21  1  0
 21 22  1  0
 22 23  1  0
 23 24  2  0
 24 25  1  0
 25 26  2  0
 26 27  1  0
 27 28  2  0
 21 29  1  0
 29 30  1  0
 30 31  2  0
 30 32  1  0
 32 33  1  0
 33 34  1  0
 34 35  1  0
 34 36  2  0
 32 37  1  0
 37 38  1  0
 38 39  2  0
 38 40  1  0
 40 41  2  0
 41 42  1  0
 42 43  2  0
 43 44  1  0
 44 45  2  0
 45 46  1  0
 46 47  2  0
 47 48  1  0
 48 49  2  0
 17  8  1  0
 28 23  1  0
 49 40  1  0
 15 10  1  0
 48 43  1  0
  1 50  1  0
  1 51  1  0
  1 52  1  0
  3 53  1  0
  3 54  1  0
  3 55  1  0
  4 56  1  0
  4 57  1  0
  4 58  1  0
  5 59  1  0
  8 60  1  1
  9 61  1  0
  9 62  1  0
 10 63  1  1
 11 64  1  0
 11 65  1  0
 12 66  1  0
 12 67  1  0
 13 68  1  0
 13 69  1  0
 14 70  1  0
 14 71  1  0
 15 72  1  6
 16 73  1  0
 16 74  1  0
 17 75  1  6
 18 76  1  0
 18 77  1  0
 19 78  1  6
 20 79  1  0
 21 80  1  1
 22 81  1  0
 22 82  1  0
 24 83  1  0
 25 84  1  0
 26 85  1  0
 27 86  1  0
 28 87  1  0
 29 88  1  0
 32 89  1  1
 33 90  1  0
 33 91  1  0
 35 92  1  0
 35 93  1  0
 37 94  1  0
 41 95  1  0
 42 96  1  0
 44 97  1  0
 45 98  1  0
 46 99  1  0
 47100  1  0
M  CHG  1  17   1
M  END
>  <meeko>  (6) 
{"is_sidechain": [false], "free_energy": -10.112, "intermolecular_energy": -18.267, "internal_energy": -1.877}

$$$$
3pww_ligand
     RDKit          3D

100104  0  0  0  0  0  0  0  0999 V2000
   -9.6750   -0.1810    7.6670 C   0  0  0  0  0  0  0  0  0  0  0  0
   -8.4820   -0.8470    6.9540 C   0  0  0  0  0  0  0  0  0  0  0  0
   -8.6860   -0.7030    5.4380 C   0  0  0  0  0  0  0  0  0  0  0  0
   -8.4480   -2.3310    7.3490 C   0  0  0  0  0  0  0  0  0  0  0  0
   -7.2480   -0.1580    7.3890 N   0  0  0  0  0  0  0  0  0  0  0  0
   -5.9770   -0.4920    6.9760 C   0  0  0  0  0  0  0  0  0  0  0  0
   -5.7300   -1.4290    6.2200 O   0  0  0  0  0  0  0  0  0  0  0  0
   -4.8350    0.3730    7.5700 C   0  0  2  0  0  0  0  0  0  0  0  0
   -4.0390   -0.3150    8.6880 C   0  0  0  0  0  0  0  0  0  0  0  0
   -4.7200   -0.3240   10.0670 C   0  0  2  0  0  0  0  0  0  0  0  0
   -5.8350   -1.3790   10.1680 C   0  0  0  0  0  0  0  0  0  0  0  0
   -6.4940   -1.3700   11.5450 C   0  0  0  0  0  0  0  0  0  0  0  0
   -7.0310    0.0130   11.8940 C   0  0  0  0  0  0  0  0  0  0  0  0
   -5.9390    1.0760   11.8020 C   0  0  0  0  0  0  0  0  0  0  0  0
   -5.2120    1.0850   10.4490 C   0  0  2  0  0  0  0  0  0  0  0  0
   -6.0780    1.7020    9.3480 C   0  0  0  0  0  0  0  0  0  0  0  0
   -5.2880    1.7480    8.0680 N   0  0  2  0  0  0  0  0  0  0  0  0
   -5.9710    2.5910    6.9840 C   0  0  0  0  0  0  0  0  0  0  0  0
   -4.8730    3.0670    6.0130 C   0  0  1  0  0  0  0  0  0  0  0  0
   -5.4970    3.1270    4.7120 O   0  0  0  0  0  0  0  0  0  0  0  0
   -4.2280    4.4090    6.4560 C   0  0  2  0  0  0  0  0  0  0  0  0
   -3.7950    5.2920    5.2610 C   0  0  0  0  0  0  0  0  0  0  0  0
   -3.9680    6.7750    5.4990 C   0  0  0  0  0  0  0  0  0  0  0  0
   -2.8720    7.6480    5.4630 C   0  0  0  0  0  0  0  0  0  0  0  0
   -3.0500    9.0150    5.6800 C   0  0  0  0  0  0  0  0  0  0  0  0
   -4.3210    9.5230    5.9410 C   0  0  0  0  0  0  0  0  0  0  0  0
   -5.4160    8.6630    5.9910 C   0  0  0  0  0  0  0  0  0  0  0  0
   -5.2410    7.2970    5.7730 C   0  0  0  0  0  0  0  0  0  0  0  0
   -3.1300    4.1870    7.4040 N   0  0  0  0  0  0  0  0  0  0  0  0
   -3.0400    4.7680    8.6480 C   0  0  0  0  0  0  0  0  0  0  0  0
   -3.8190    5.6590    8.9950 O   0  0  0  0  0  0  0  0  0  0  0  0
   -1.8960    4.2460    9.5480 C   0  0  2  0  0  0  0  0  0  0  0  0
   -2.4290    3.6570   10.8570 C   0  0  0  0  0  0  0  0  0  0  0  0
   -1.7920    2.3230   11.1630 C   0  0  0  0  0  0  0  0  0  0  0  0
   -0.9020    1.8830   10.2300 N   0  0  0  0  0  0  0  0  0  0  0  0
   -1.9970    1.6890   12.1960 O   0  0  0  0  0  0  0  0  0  0  0  0
   -1.0150    5.3800    9.8100 N   0  0  0  0  0  0  0  0  0  0  0  0
    0.3560    5.2950    9.7300 C   0  0  0  0  0  0  0  0  0  0  0  0
    0.9490    4.2550    9.4700 O   0  0  0  0  0  0  0  0  0  0  0  0
    1.0760    6.5840    9.9900 C   0  0  0  0  0  0  0  0  0  0  0  0
    1.7020    6.7900   11.2080 C   0  0  0  0  0  0  0  0  0  0  0  0
    2.3520    8.0020   11.4040 C   0  0  0  0  0  0  0  0  0  0  0  0
    2.3560    8.9630   10.3840 C   0  0  0  0  0  0  0  0  0  0  0  0
    3.0010   10.2010   10.5450 C   0  0  0  0  0  0  0  0  0  0  0  0
    2.9870   11.1400    9.5160 C   0  0  0  0  0  0  0  0  0  0  0  0
    2.3310   10.8480    8.3260 C   0  0  0  0  0  0  0  0  0  0  0  0
    1.6910    9.6140    8.1680 C   0  0  0  0  0  0  0  0  0  0  0  0
    1.6880    8.6590    9.1750 C   0  0  0  0  0  0  0  0  0  0  0  0
    1.0580    7.4900    8.9720 N   0  0  0  0  0  0  0  0  0  0  0  0
   -9.5399   -0.2564    8.7561 H   0  0  0  0  0  0  0  0  0  0  0  0
   -9.7305    0.8786    7.3769 H   0  0  0  0  0  0  0  0  0  0  0  0
  -10.6061   -0.6898    7.3769 H   0  0  0  0  0  0  0  0  0  0  0  0
   -9.5707   -0.0785    5.2448 H   0  0  0  0  0  0  0  0  0  0  0  0
   -7.7987   -0.2299    4.9919 H   0  0  0  0  0  0  0  0  0  0  0  0
   -8.8346   -1.6975    4.9919 H   0  0  0  0  0  0  0  0  0  0  0  0
   -8.4460   -2.4186    8.4455 H   0  0  0  0  0  0  0  0  0  0  0  0
   -9.3347   -2.8391    6.9422 H   0  0  0  0  0  0  0  0  0  0  0  0
   -7.5389   -2.7980    6.9422 H   0  0  0  0  0  0  0  0  0  0  0  0
   -7.3700    0.5530    8.1010 H   0  0  0  0  0  0  0  0  0  0  0  0
   -4.1714    0.5122    6.7039 H   0  0  0  0  0  0  0  0  0  0  0  0
   -3.8639   -1.3588    8.3882 H   0  0  0  0  0  0  0  0  0  0  0  0
   -3.1145    0.2689    8.8081 H   0  0  0  0  0  0  0  0  0  0  0  0
   -3.9595   -0.6207   10.8042 H   0  0  0  0  0  0  0  0  0  0  0  0
   -6.5985   -1.1656    9.4054 H   0  0  0  0  0  0  0  0  0  0  0  0
   -5.3862   -2.3704   10.0078 H   0  0  0  0  0  0  0  0  0  0  0  0
   -7.3267   -2.0888   11.5483 H   0  0  0  0  0  0  0  0  0  0  0  0
   -5.7371   -1.6471   12.2935 H   0  0  0  0  0  0  0  0  0  0  0  0
   -7.8398    0.2697   11.1940 H   0  0  0  0  0  0  0  0  0  0  0  0
   -7.4026   -0.0118   12.9290 H   0  0  0  0  0  0  0  0  0  0  0  0
   -6.3987    2.0631   11.9579 H   0  0  0  0  0  0  0  0  0  0  0  0
   -5.1900    0.8411   12.5726 H   0  0  0  0  0  0  0  0  0  0  0  0
   -4.3230    1.7240   10.5557 H   0  0  0  0  0  0  0  0  0  0  0  0
   -6.9801    1.0897    9.2023 H   0  0  0  0  0  0  0  0  0  0  0  0
   -6.3748    2.7210    9.6372 H   0  0  0  0  0  0  0  0  0  0  0  0
   -4.4260    2.3000    8.2510 H   0  0  0  0  0  0  0  0  0  0  0  0
   -6.7119    1.9823    6.4450 H   0  0  0  0  0  0  0  0  0  0  0  0
   -6.4943    3.4493    7.4306 H   0  0  0  0  0  0  0  0  0  0  0  0
   -4.0216    2.3707    5.9962 H   0  0  0  0  0  0  0  0  0  0  0  0
   -5.7840    4.0690    4.5940 H   0  0  0  0  0  0  0  0  0  0  0  0
   -5.0103    4.9766    6.9811 H   0  0  0  0  0  0  0  0  0  0  0  0
   -2.7327    5.0964    5.0532 H   0  0  0  0  0  0  0  0  0  0  0  0
   -4.4472    5.0266    4.4159 H   0  0  0  0  0  0  0  0  0  0  0  0
   -1.8651    7.2531    5.2624 H   0  0  0  0  0  0  0  0  0  0  0  0
   -2.1847    9.6933    5.6449 H   0  0  0  0  0  0  0  0  0  0  0  0
   -4.4596   10.6015    6.1073 H   0  0  0  0  0  0  0  0  0  0  0  0
   -6.4191    9.0619    6.2026 H   0  0  0  0  0  0  0  0  0  0  0  0
   -6.1089    6.6226    5.8162 H   0  0  0  0  0  0  0  0  0  0  0  0
   -2.5660    3.3420    7.2590 H   0  0  0  0  0  0  0  0  0  0  0  0
   -1.3555    3.4317    9.0432 H   0  0  0  0  0  0  0  0  0  0  0  0
   -2.2095    4.3548   11.6785 H   0  0  0  0  0  0  0  0  0  0  0  0
   -3.5134    3.5056   10.7512 H   0  0  0  0  0  0  0  0  0  0  0  0
   -0.4960    0.9660   10.3680 H   0  0  0  0  0  0  0  0  0  0  0  0
   -0.8670    2.2710    9.2960 H   0  0  0  0  0  0  0  0  0  0  0  0
   -1.4140    6.2970   10.0150 H   0  0  0  0  0  0  0  0  0  0  0  0
    1.6851    6.0201   11.9935 H   0  0  0  0  0  0  0  0  0  0  0  0
    2.8620    8.2067   12.3569 H   0  0  0  0  0  0  0  0  0  0  0  0
    3.5193   10.4297   11.4879 H   0  0  0  0  0  0  0  0  0  0  0  0
    3.4929   12.1082    9.6448 H   0  0  0  0  0  0  0  0  0  0  0  0
    2.3150   11.5856    7.5101 H   0  0  0  0  0  0  0  0  0  0  0  0
    1.1766    9.3949    7.2207 H   0  0  0  0  0  0  0  0  0  0  0  0
  1  2  1  0
  2  3  1  0
  2  4  1  0
  2  5  1  0
  5  6  1  0
  6  7  2  0
  6  8  1  0
  8  9  1  0
  9 10  1  0
 10 11  1  0
 11 12  1  0
 12 13  1  0
 13 14  1  0
 14 15  1  0
 15 16  1  0
 16 17  1  0
 17 18  1  0
 18 19  1  0
 19 20  1  0
 19 21  1  0
 21 22  1  0
 22 23  1  0
 23 24  2  0
 24 25  1  0
 25 26  2  0
 26 27  1  0
 27 28  2  0
 21 29  1  0
 29 30  1  0
 30 31  2  0
 30 32  1  0
 32 33  1  0
 33 34  1  0
 34 35  1  0
 34 36  2  0
 32 37  1  0
 37 38  1  0
 38 39  2  0
 38 40  1  0
 40 41  2  0
 41 42  1  0
 42 43  2  0
 43 44  1  0
 44 45  2  0
 45 46  1  0
 46 47  2  0
 47 48  1  0
 48 49  2  0
 17  8  1  0
 28 23  1  0
 49 40  1  0
 15 10  1  0
 48 43  1  0
  1 50  1  0
  1 51  1  0
  1 52  1  0
  3 53  1  0
  3 54  1  0
  3 55  1  0
  4 56  1  0
  4 57  1  0
  4 58  1  0
  5 59  1  0
  8 60  1  6
  9 61  1  0
  9 62  1  0
 10 63  1  1
 11 64  1  0
 11 65  1  0
 12 66  1  0
 12 67  1  0
 13 68  1  0
 13 69  1  0
 14 70  1  0
 14 71  1  0
 15 72  1  1
 16 73  1  0
 16 74  1  0
 17 75  1  1
 18 76  1  0
 18 77  1  0
 19 78  1  6
 20 79  1  0
 21 80  1  1
 22 81  1  0
 22 82  1  0
 24 83  1  0
 25 84  1  0
 26 85  1  0
 27 86  1  0
 28 87  1  0
 29 88  1  0
 32 89  1  6
 33 90  1  0
 33 91  1  0
 35 92  1  0
 35 93  1  0
 37 94  1  0
 41 95  1  0
 42 96  1  0
 44 97  1  0
 45 98  1  0
 46 99  1  0
 47100  1  0
M  CHG  1  17   1
M  END
>  <meeko>  (7) 
{"is_sidechain": [false], "free_energy": -10.024, "intermolecular_energy": -17.854, "internal_energy": -2.132}

$$$$
3pww_ligand
     RDKit          3D

100104  0  0  0  0  0  0  0  0999 V2000
   -1.6760    3.8080    9.0590 C   0  0  0  0  0  0  0  0  0  0  0  0
   -2.0450    5.3030    9.0980 C   0  0  0  0  0  0  0  0  0  0  0  0
   -0.8920    6.0660    9.7680 C   0  0  0  0  0  0  0  0  0  0  0  0
   -3.3360    5.4640    9.9150 C   0  0  0  0  0  0  0  0  0  0  0  0
   -2.2420    5.7610    7.7070 N   0  0  0  0  0  0  0  0  0  0  0  0
   -3.1940    6.6750    7.3090 C   0  0  0  0  0  0  0  0  0  0  0  0
   -4.0090    7.1860    8.0730 O   0  0  0  0  0  0  0  0  0  0  0  0
   -3.2140    7.0000    5.7920 C   0  0  2  0  0  0  0  0  0  0  0  0
   -2.4420    8.2710    5.4110 C   0  0  0  0  0  0  0  0  0  0  0  0
   -3.1790    9.5930    5.6820 C   0  0  2  0  0  0  0  0  0  0  0  0
   -3.1550    9.9870    7.1690 C   0  0  0  0  0  0  0  0  0  0  0  0
   -3.8910   11.3020    7.4130 C   0  0  0  0  0  0  0  0  0  0  0  0
   -5.3240   11.2410    6.8960 C   0  0  0  0  0  0  0  0  0  0  0  0
   -5.3700   10.8520    5.4210 C   0  0  0  0  0  0  0  0  0  0  0  0
   -4.6080    9.5550    5.1100 C   0  0  2  0  0  0  0  0  0  0  0  0
   -5.3790    8.3210    5.5860 C   0  0  0  0  0  0  0  0  0  0  0  0
   -4.6190    7.0840    5.1900 N   0  0  2  0  0  0  0  0  0  0  0  0
   -5.4390    5.8020    5.3830 C   0  0  0  0  0  0  0  0  0  0  0  0
   -5.0620    4.8400    4.2410 C   0  0  1  0  0  0  0  0  0  0  0  0
   -4.0770    3.9400    4.7940 O   0  0  0  0  0  0  0  0  0  0  0  0
   -6.2980    4.1160    3.6410 C   0  0  2  0  0  0  0  0  0  0  0  0
   -7.2340    5.0700    2.8590 C   0  0  0  0  0  0  0  0  0  0  0  0
   -8.2830    4.3610    2.0340 C   0  0  0  0  0  0  0  0  0  0  0  0
   -7.9360    3.3350    1.1430 C   0  0  0  0  0  0  0  0  0  0  0  0
   -8.9180    2.6870    0.3930 C   0  0  0  0  0  0  0  0  0  0  0  0
  -10.2540    3.0620    0.5180 C   0  0  0  0  0  0  0  0  0  0  0  0
  -10.6110    4.0870    1.3900 C   0  0  0  0  0  0  0  0  0  0  0  0
   -9.6310    4.7350    2.1430 C   0  0  0  0  0  0  0  0  0  0  0  0
   -7.0220    3.3540    4.6660 N   0  0  0  0  0  0  0  0  0  0  0  0
   -7.1790    1.9870    4.6600 C   0  0  0  0  0  0  0  0  0  0  0  0
   -6.8490    1.3110    3.6830 O   0  0  0  0  0  0  0  0  0  0  0  0
   -7.8130    1.3810    5.9340 C   0  0  2  0  0  0  0  0  0  0  0  0
   -8.9640    2.2430    6.4590 C   0  0  0  0  0  0  0  0  0  0  0  0
   -8.7140    2.6970    7.8770 C   0  0  0  0  0  0  0  0  0  0  0  0
   -8.5760    4.0430    8.0340 N   0  0  0  0  0  0  0  0  0  0  0  0
   -8.6910    1.9380    8.8430 O   0  0  0  0  0  0  0  0  0  0  0  0
   -6.7490    1.2780    6.9260 N   0  0  0  0  0  0  0  0  0  0  0  0
   -6.2210    0.0730    7.3330 C   0  0  0  0  0  0  0  0  0  0  0  0
   -6.6270   -1.0080    6.9250 O   0  0  0  0  0  0  0  0  0  0  0  0
   -5.1030    0.1870    8.3250 C   0  0  0  0  0  0  0  0  0  0  0  0
   -4.0210   -0.6740    8.2460 C   0  0  0  0  0  0  0  0  0  0  0  0
   -3.0120   -0.5330    9.1900 C   0  0  0  0  0  0  0  0  0  0  0  0
   -3.1160    0.4560   10.1770 C   0  0  0  0  0  0  0  0  0  0  0  0
   -2.1170    0.6290   11.1500 C   0  0  0  0  0  0  0  0  0  0  0  0
   -2.2450    1.6190   12.1230 C   0  0  0  0  0  0  0  0  0  0  0  0
   -3.3680    2.4370   12.1270 C   0  0  0  0  0  0  0  0  0  0  0  0
   -4.3610    2.2650   11.1560 C   0  0  0  0  0  0  0  0  0  0  0  0
   -4.2600    1.2870   10.1760 C   0  0  0  0  0  0  0  0  0  0  0  0
   -5.2420    1.1630    9.2660 N   0  0  0  0  0  0  0  0  0  0  0  0
   -1.5819    3.4266   10.0865 H   0  0  0  0  0  0  0  0  0  0  0  0
   -2.4633    3.2497    8.5313 H   0  0  0  0  0  0  0  0  0  0  0  0
   -0.7193    3.6801    8.5313 H   0  0  0  0  0  0  0  0  0  0  0  0
   -0.9940    5.9985   10.8612 H   0  0  0  0  0  0  0  0  0  0  0  0
    0.0674    5.6239    9.4613 H   0  0  0  0  0  0  0  0  0  0  0  0
   -0.9239    7.1219    9.4613 H   0  0  0  0  0  0  0  0  0  0  0  0
   -3.0968    5.4342   10.9883 H   0  0  0  0  0  0  0  0  0  0  0  0
   -3.8066    6.4278    9.6709 H   0  0  0  0  0  0  0  0  0  0  0  0
   -4.0289    4.6453    9.6709 H   0  0  0  0  0  0  0  0  0  0  0  0
   -1.6780    5.2940    7.0060 H   0  0  0  0  0  0  0  0  0  0  0  0
   -2.6958    6.1320    5.3585 H   0  0  0  0  0  0  0  0  0  0  0  0
   -1.5024    8.2822    5.9828 H   0  0  0  0  0  0  0  0  0  0  0  0
   -2.2944    8.2225    4.3220 H   0  0  0  0  0  0  0  0  0  0  0  0
   -2.6316   10.3870    5.1528 H   0  0  0  0  0  0  0  0  0  0  0  0
   -3.6385    9.1928    7.7567 H   0  0  0  0  0  0  0  0  0  0  0  0
   -2.1062   10.1176    7.4738 H   0  0  0  0  0  0  0  0  0  0  0  0
   -3.9087   11.5072    8.4935 H   0  0  0  0  0  0  0  0  0  0  0  0
   -3.3615   12.1007    6.8729 H   0  0  0  0  0  0  0  0  0  0  0  0
   -5.8833   10.4953    7.4800 H   0  0  0  0  0  0  0  0  0  0  0  0
   -5.7728   12.2395    7.0039 H   0  0  0  0  0  0  0  0  0  0  0  0
   -6.4217   10.7177    5.1281 H   0  0  0  0  0  0  0  0  0  0  0  0
   -4.8819   11.6598    4.8559 H   0  0  0  0  0  0  0  0  0  0  0  0
   -4.5195    9.4771    4.0163 H   0  0  0  0  0  0  0  0  0  0  0  0
   -5.4865    8.3530    6.6803 H   0  0  0  0  0  0  0  0  0  0  0  0
   -6.3775    8.3066    5.1248 H   0  0  0  0  0  0  0  0  0  0  0  0
   -4.5020    7.1040    4.1570 H   0  0  0  0  0  0  0  0  0  0  0  0
   -5.1997    5.3449    6.3545 H   0  0  0  0  0  0  0  0  0  0  0  0
   -6.5164    6.0230    5.3659 H   0  0  0  0  0  0  0  0  0  0  0  0
   -4.6436    5.3820    3.3801 H   0  0  0  0  0  0  0  0  0  0  0  0
   -3.3480    3.8920    4.1220 H   0  0  0  0  0  0  0  0  0  0  0  0
   -5.9132    3.3977    2.9020 H   0  0  0  0  0  0  0  0  0  0  0  0
   -7.7452    5.7227    3.5819 H   0  0  0  0  0  0  0  0  0  0  0  0
   -6.6013    5.6313    2.1557 H   0  0  0  0  0  0  0  0  0  0  0  0
   -6.8821    3.0390    1.0347 H   0  0  0  0  0  0  0  0  0  0  0  0
   -8.6369    1.8787   -0.2981 H   0  0  0  0  0  0  0  0  0  0  0  0
  -11.0269    2.5481   -0.0724 H   0  0  0  0  0  0  0  0  0  0  0  0
  -11.6653    4.3859    1.4853 H   0  0  0  0  0  0  0  0  0  0  0  0
   -9.9178    5.5463    2.8282 H   0  0  0  0  0  0  0  0  0  0  0  0
   -7.1540    3.8190    5.5720 H   0  0  0  0  0  0  0  0  0  0  0  0
   -8.2455    0.3944    5.7114 H   0  0  0  0  0  0  0  0  0  0  0  0
   -9.0708    3.1277    5.8141 H   0  0  0  0  0  0  0  0  0  0  0  0
   -9.8818    1.6367    6.4478 H   0  0  0  0  0  0  0  0  0  0  0  0
   -8.3500    4.3840    8.9600 H   0  0  0  0  0  0  0  0  0  0  0  0
   -8.3890    4.6590    7.2530 H   0  0  0  0  0  0  0  0  0  0  0  0
   -6.3270    2.1240    7.3120 H   0  0  0  0  0  0  0  0  0  0  0  0
   -3.9627   -1.4435    7.4621 H   0  0  0  0  0  0  0  0  0  0  0  0
   -2.1343   -1.1955    9.1628 H   0  0  0  0  0  0  0  0  0  0  0  0
   -1.2291   -0.0203   11.1438 H   0  0  0  0  0  0  0  0  0  0  0  0
   -1.4613    1.7518   12.8834 H   0  0  0  0  0  0  0  0  0  0  0  0
   -3.4765    3.2192   12.8928 H   0  0  0  0  0  0  0  0  0  0  0  0
   -5.2437    2.9212   11.1697 H   0  0  0  0  0  0  0  0  0  0  0  0
  1  2  1  0
  2  3  1  0
  2  4  1  0
  2  5  1  0
  5  6  1  0
  6  7  2  0
  6  8  1  0
  8  9  1  0
  9 10  1  0
 10 11  1  0
 11 12  1  0
 12 13  1  0
 13 14  1  0
 14 15  1  0
 15 16  1  0
 16 17  1  0
 17 18  1  0
 18 19  1  0
 19 20  1  0
 19 21  1  0
 21 22  1  0
 22 23  1  0
 23 24  2  0
 24 25  1  0
 25 26  2  0
 26 27  1  0
 27 28  2  0
 21 29  1  0
 29 30  1  0
 30 31  2  0
 30 32  1  0
 32 33  1  0
 33 34  1  0
 34 35  1  0
 34 36  2  0
 32 37  1  0
 37 38  1  0
 38 39  2  0
 38 40  1  0
 40 41  2  0
 41 42  1  0
 42 43  2  0
 43 44  1  0
 44 45  2  0
 45 46  1  0
 46 47  2  0
 47 48  1  0
 48 49  2  0
 17  8  1  0
 28 23  1  0
 49 40  1  0
 15 10  1  0
 48 43  1  0
  1 50  1  0
  1 51  1  0
  1 52  1  0
  3 53  1  0
  3 54  1  0
  3 55  1  0
  4 56  1  0
  4 57  1  0
  4 58  1  0
  5 59  1  0
  8 60  1  6
  9 61  1  0
  9 62  1  0
 10 63  1  6
 11 64  1  0
 11 65  1  0
 12 66  1  0
 12 67  1  0
 13 68  1  0
 13 69  1  0
 14 70  1  0
 14 71  1  0
 15 72  1  6
 16 73  1  0
 16 74  1  0
 17 75  1  6
 18 76  1  0
 18 77  1  0
 19 78  1  6
 20 79  1  0
 21 80  1  6
 22 81  1  0
 22 82  1  0
 24 83  1  0
 25 84  1  0
 26 85  1  0
 27 86  1  0
 28 87  1  0
 29 88  1  0
 32 89  1  6
 33 90  1  0
 33 91  1  0
 35 92  1  0
 35 93  1  0
 37 94  1  0
 41 95  1  0
 42 96  1  0
 44 97  1  0
 45 98  1  0
 46 99  1  0
 47100  1  0
M  CHG  1  17   1
M  END
>  <meeko>  (8) 
{"is_sidechain": [false], "free_energy": -9.967, "intermolecular_energy": -17.331, "internal_energy": -2.552}

$$$$
3pww_ligand
     RDKit          3D

100104  0  0  0  0  0  0  0  0999 V2000
  -12.1620    0.2220    9.0640 C   0  0  0  0  0  0  0  0  0  0  0  0
  -11.2860   -0.9120    8.5000 C   0  0  0  0  0  0  0  0  0  0  0  0
  -12.1170   -1.6940    7.4700 C   0  0  0  0  0  0  0  0  0  0  0  0
  -10.8730   -1.8310    9.6590 C   0  0  0  0  0  0  0  0  0  0  0  0
  -10.1000   -0.3000    7.8640 N   0  0  0  0  0  0  0  0  0  0  0  0
   -9.2630    0.6070    8.4760 C   0  0  0  0  0  0  0  0  0  0  0  0
   -9.4350    1.0320    9.6160 O   0  0  0  0  0  0  0  0  0  0  0  0
   -8.0810    1.1150    7.6080 C   0  0  2  0  0  0  0  0  0  0  0  0
   -8.4080    2.3540    6.7640 C   0  0  0  0  0  0  0  0  0  0  0  0
   -9.2060    2.0800    5.4780 C   0  0  2  0  0  0  0  0  0  0  0  0
  -10.7000    1.8350    5.7520 C   0  0  0  0  0  0  0  0  0  0  0  0
  -11.4710    1.5670    4.4620 C   0  0  0  0  0  0  0  0  0  0  0  0
  -10.8690    0.4000    3.6880 C   0  0  0  0  0  0  0  0  0  0  0  0
   -9.3870    0.6250    3.4030 C   0  0  0  0  0  0  0  0  0  0  0  0
   -8.5670    0.9400    4.6640 C   0  0  2  0  0  0  0  0  0  0  0  0
   -8.3410   -0.3110    5.5160 C   0  0  0  0  0  0  0  0  0  0  0  0
   -7.4750    0.0470    6.6940 N   0  0  2  0  0  0  0  0  0  0  0  0
   -6.9740   -1.1880    7.4530 C   0  0  0  0  0  0  0  0  0  0  0  0
   -6.2050   -0.6850    8.6900 C   0  0  1  0  0  0  0  0  0  0  0  0
   -6.4310   -1.6710    9.7210 O   0  0  0  0  0  0  0  0  0  0  0  0
   -4.7020   -0.4300    8.3930 C   0  0  2  0  0  0  0  0  0  0  0  0
   -3.7760   -0.8690    9.5530 C   0  0  0  0  0  0  0  0  0  0  0  0
   -3.1160    0.2810   10.2810 C   0  0  0  0  0  0  0  0  0  0  0  0
   -3.8340    1.0740   11.1870 C   0  0  0  0  0  0  0  0  0  0  0  0
   -3.2080    2.1270   11.8550 C   0  0  0  0  0  0  0  0  0  0  0  0
   -1.8640    2.4050   11.6180 C   0  0  0  0  0  0  0  0  0  0  0  0
   -1.1430    1.6330   10.7100 C   0  0  0  0  0  0  0  0  0  0  0  0
   -1.7660    0.5770   10.0440 C   0  0  0  0  0  0  0  0  0  0  0  0
   -4.4650    0.9630    7.9950 N   0  0  0  0  0  0  0  0  0  0  0  0
   -3.7930    1.3480    6.8580 C   0  0  0  0  0  0  0  0  0  0  0  0
   -3.1940    0.5260    6.1600 O   0  0  0  0  0  0  0  0  0  0  0  0
   -3.8250    2.8620    6.5440 C   0  0  2  0  0  0  0  0  0  0  0  0
   -3.9430    3.7030    7.8180 C   0  0  0  0  0  0  0  0  0  0  0  0
   -2.7770    4.6510    7.9650 C   0  0  0  0  0  0  0  0  0  0  0  0
   -2.5810    5.4890    6.9100 N   0  0  0  0  0  0  0  0  0  0  0  0
   -2.0790    4.7230    8.9740 O   0  0  0  0  0  0  0  0  0  0  0  0
   -4.9690    3.0870    5.6670 N   0  0  0  0  0  0  0  0  0  0  0  0
   -4.9250    3.9340    4.5820 C   0  0  0  0  0  0  0  0  0  0  0  0
   -3.9360    4.5940    4.2880 O   0  0  0  0  0  0  0  0  0  0  0  0
   -6.1910    3.9880    3.7830 C   0  0  0  0  0  0  0  0  0  0  0  0
   -7.2190    4.8280    4.1760 C   0  0  0  0  0  0  0  0  0  0  0  0
   -8.3750    4.8410    3.4060 C   0  0  0  0  0  0  0  0  0  0  0  0
   -8.4660    4.0190    2.2740 C   0  0  0  0  0  0  0  0  0  0  0  0
   -9.6190    4.0020    1.4710 C   0  0  0  0  0  0  0  0  0  0  0  0
   -9.6850    3.1740    0.3520 C   0  0  0  0  0  0  0  0  0  0  0  0
   -8.6040    2.3610    0.0330 C   0  0  0  0  0  0  0  0  0  0  0  0
   -7.4570    2.3810    0.8330 C   0  0  0  0  0  0  0  0  0  0  0  0
   -7.3620    3.1960    1.9530 C   0  0  0  0  0  0  0  0  0  0  0  0
   -6.2380    3.1760    2.6890 N   0  0  0  0  0  0  0  0  0  0  0  0
  -12.1384    0.1914   10.1633 H   0  0  0  0  0  0  0  0  0  0  0  0
  -11.7759    1.1914    8.7158 H   0  0  0  0  0  0  0  0  0  0  0  0
  -13.1975    0.0932    8.7158 H   0  0  0  0  0  0  0  0  0  0  0  0
  -12.8213   -2.3568    7.9942 H   0  0  0  0  0  0  0  0  0  0  0  0
  -12.6777   -0.9883    6.8394 H   0  0  0  0  0  0  0  0  0  0  0  0
  -11.4467   -2.2965    6.8394 H   0  0  0  0  0  0  0  0  0  0  0  0
  -11.0952   -1.3365   10.6161 H   0  0  0  0  0  0  0  0  0  0  0  0
  -11.4332   -2.7755    9.5955 H   0  0  0  0  0  0  0  0  0  0  0  0
   -9.7948   -2.0392    9.5955 H   0  0  0  0  0  0  0  0  0  0  0  0
   -9.9640   -0.5210    6.8840 H   0  0  0  0  0  0  0  0  0  0  0  0
   -7.3347    1.3955    8.3659 H   0  0  0  0  0  0  0  0  0  0  0  0
   -8.9945    3.0450    7.3874 H   0  0  0  0  0  0  0  0  0  0  0  0
   -7.4408    2.7661    6.4404 H   0  0  0  0  0  0  0  0  0  0  0  0
   -9.1590    2.9918    4.8645 H   0  0  0  0  0  0  0  0  0  0  0  0
  -10.8030    0.9648    6.4169 H   0  0  0  0  0  0  0  0  0  0  0  0
  -11.1167    2.7387    6.2206 H   0  0  0  0  0  0  0  0  0  0  0  0
  -12.5157    1.3301    4.7118 H   0  0  0  0  0  0  0  0  0  0  0  0
  -11.4154    2.4667    3.8316 H   0  0  0  0  0  0  0  0  0  0  0  0
  -10.9837   -0.5195    4.2808 H   0  0  0  0  0  0  0  0  0  0  0  0
  -11.3967    0.3137    2.7267 H   0  0  0  0  0  0  0  0  0  0  0  0
   -8.9785   -0.2849    2.9390 H   0  0  0  0  0  0  0  0  0  0  0  0
   -9.3117    1.4984    2.7385 H   0  0  0  0  0  0  0  0  0  0  0  0
   -7.5765    1.2887    4.3364 H   0  0  0  0  0  0  0  0  0  0  0  0
   -9.3086   -0.6938    5.8726 H   0  0  0  0  0  0  0  0  0  0  0  0
   -7.8456   -1.0862    4.9130 H   0  0  0  0  0  0  0  0  0  0  0  0
   -6.5860    0.4390    6.3220 H   0  0  0  0  0  0  0  0  0  0  0  0
   -7.8264   -1.8087    7.7664 H   0  0  0  0  0  0  0  0  0  0  0  0
   -6.3230   -1.8011    6.8125 H   0  0  0  0  0  0  0  0  0  0  0  0
   -6.5691    0.3002    9.0167 H   0  0  0  0  0  0  0  0  0  0  0  0
   -6.5750   -2.5300    9.2460 H   0  0  0  0  0  0  0  0  0  0  0  0
   -4.4365   -1.0696    7.5384 H   0  0  0  0  0  0  0  0  0  0  0  0
   -4.3758   -1.4389   10.2779 H   0  0  0  0  0  0  0  0  0  0  0  0
   -2.9691   -1.4690    9.1070 H   0  0  0  0  0  0  0  0  0  0  0  0
   -4.8979    0.8647   11.3725 H   0  0  0  0  0  0  0  0  0  0  0  0
   -3.7772    2.7389   12.5703 H   0  0  0  0  0  0  0  0  0  0  0  0
   -1.3720    3.2340   12.1477 H   0  0  0  0  0  0  0  0  0  0  0  0
   -0.0830    1.8558   10.5181 H   0  0  0  0  0  0  0  0  0  0  0  0
   -1.1930   -0.0288    9.3266 H   0  0  0  0  0  0  0  0  0  0  0  0
   -5.0780    1.6690    8.4190 H   0  0  0  0  0  0  0  0  0  0  0  0
   -2.8866    3.1695    6.0595 H   0  0  0  0  0  0  0  0  0  0  0  0
   -4.8748    4.2861    7.7764 H   0  0  0  0  0  0  0  0  0  0  0  0
   -3.9455    3.0222    8.6820 H   0  0  0  0  0  0  0  0  0  0  0  0
   -1.7750    6.1010    6.9440 H   0  0  0  0  0  0  0  0  0  0  0  0
   -2.9980    5.3190    6.0040 H   0  0  0  0  0  0  0  0  0  0  0  0
   -5.8350    2.5660    5.8150 H   0  0  0  0  0  0  0  0  0  0  0  0
   -7.1235    5.4640    5.0684 H   0  0  0  0  0  0  0  0  0  0  0  0
   -9.2158    5.4938    3.6834 H   0  0  0  0  0  0  0  0  0  0  0  0
  -10.4737    4.6454    1.7269 H   0  0  0  0  0  0  0  0  0  0  0  0
  -10.5883    3.1640   -0.2757 H   0  0  0  0  0  0  0  0  0  0  0  0
   -8.6504    1.7029   -0.8472 H   0  0  0  0  0  0  0  0  0  0  0  0
   -6.6078    1.7340    0.5679 H   0  0  0  0  0  0  0  0  0  0  0  0
  1  2  1  0
  2  3  1  0
  2  4  1  0
  2  5  1  0
  5  6  1  0
  6  7  2  0
  6  8  1  0
  8  9  1  0
  9 10  1  0
 10 11  1  0
 11 12  1  0
 12 13  1  0
 13 14  1  0
 14 15  1  0
 15 16  1  0
 16 17  1  0
 17 18  1  0
 18 19  1  0
 19 20  1  0
 19 21  1  0
 21 22  1  0
 22 23  1  0
 23 24  2  0
 24 25  1  0
 25 26  2  0
 26 27  1  0
 27 28  2  0
 21 29  1  0
 29 30  1  0
 30 31  2  0
 30 32  1  0
 32 33  1  0
 33 34  1  0
 34 35  1  0
 34 36  2  0
 32 37  1  0
 37 38  1  0
 38 39  2  0
 38 40  1  0
 40 41  2  0
 41 42  1  0
 42 43  2  0
 43 44  1  0
 44 45  2  0
 45 46  1  0
 46 47  2  0
 47 48  1  0
 48 49  2  0
 17  8  1  0
 28 23  1  0
 49 40  1  0
 15 10  1  0
 48 43  1  0
  1 50  1  0
  1 51  1  0
  1 52  1  0
  3 53  1  0
  3 54  1  0
  3 55  1  0
  4 56  1  0
  4 57  1  0
  4 58  1  0
  5 59  1  0
  8 60  1  1
  9 61  1  0
  9 62  1  0
 10 63  1  6
 11 64  1  0
 11 65  1  0
 12 66  1  0
 12 67  1  0
 13 68  1  0
 13 69  1  0
 14 70  1  0
 14 71  1  0
 15 72  1  6
 16 73  1  0
 16 74  1  0
 17 75  1  6
 18 76  1  0
 18 77  1  0
 19 78  1  1
 20 79  1  0
 21 80  1  6
 22 81  1  0
 22 82  1  0
 24 83  1  0
 25 84  1  0
 26 85  1  0
 27 86  1  0
 28 87  1  0
 29 88  1  0
 32 89  1  6
 33 90  1  0
 33 91  1  0
 35 92  1  0
 35 93  1  0
 37 94  1  0
 41 95  1  0
 42 96  1  0
 44 97  1  0
 45 98  1  0
 46 99  1  0
 47100  1  0
M  CHG  1  17   1
M  END
>  <meeko>  (9) 
{"is_sidechain": [false], "free_energy": -9.721, "intermolecular_energy": -15.794, "internal_energy": -3.649}

$$$$
