4ih7_ligand
     RDKit          3D

 34 35  0  0  0  0  0  0  0  0999 V2000
   -5.0810    9.6080   11.5570 C   0  0  0  0  0  0  0  0  0  0  0  0
   -6.1910   10.6710   11.4170 C   0  0  0  0  0  0  0  0  0  0  0  0
   -6.5930   11.1010   12.8470 C   0  0  0  0  0  0  0  0  0  0  0  0
   -5.6140   11.9190   10.7130 C   0  0  0  0  0  0  0  0  0  0  0  0
   -7.3540   10.0990   10.5860 C   0  0  0  0  0  0  0  0  0  0  0  0
   -7.3250   10.1810    9.1810 C   0  0  0  0  0  0  0  0  0  0  0  0
   -8.3690    9.6840    8.4010 C   0  0  0  0  0  0  0  0  0  0  0  0
   -9.4700    9.0860    9.0070 C   0  0  0  0  0  0  0  0  0  0  0  0
   -9.5360    8.9770   10.4020 C   0  0  0  0  0  0  0  0  0  0  0  0
  -10.6940    8.3350   11.0540 C   0  0  0  0  0  0  0  0  0  0  0  0
  -11.4440    9.0170   11.9440 C   0  0  0  0  0  0  0  0  0  0  0  0
  -12.5910    8.4220   12.5890 C   0  0  0  0  0  0  0  0  0  0  0  0
  -12.9400    7.1640   12.3000 C   0  0  0  0  0  0  0  0  0  0  0  0
  -12.2130    6.4420   11.3940 N   0  0  0  0  0  0  0  0  0  0  0  0
  -11.1040    6.9200   10.7290 C   0  0  0  0  0  0  0  0  0  0  0  0
  -10.5020    6.2150    9.9240 O   0  0  0  0  0  0  0  0  0  0  0  0
   -8.4780    9.4880   11.1740 C   0  0  0  0  0  0  0  0  0  0  0  0
   -4.8852    9.4205   12.6231 H   0  0  0  0  0  0  0  0  0  0  0  0
   -5.4045    8.6742   11.0739 H   0  0  0  0  0  0  0  0  0  0  0  0
   -4.1621    9.9716   11.0739 H   0  0  0  0  0  0  0  0  0  0  0  0
   -6.0334   10.5024   13.5808 H   0  0  0  0  0  0  0  0  0  0  0  0
   -6.3597   12.1666   12.9887 H   0  0  0  0  0  0  0  0  0  0  0  0
   -7.6719   10.9399   12.9887 H   0  0  0  0  0  0  0  0  0  0  0  0
   -5.2787   12.6443   11.4690 H   0  0  0  0  0  0  0  0  0  0  0  0
   -4.7610   11.6238   10.0843 H   0  0  0  0  0  0  0  0  0  0  0  0
   -6.3914   12.3776   10.0843 H   0  0  0  0  0  0  0  0  0  0  0  0
   -6.4597   10.6474    8.6873 H   0  0  0  0  0  0  0  0  0  0  0  0
   -8.3221    9.7648    7.3050 H   0  0  0  0  0  0  0  0  0  0  0  0
  -10.2919    8.6973    8.3878 H   0  0  0  0  0  0  0  0  0  0  0  0
  -11.1743   10.0558   12.1853 H   0  0  0  0  0  0  0  0  0  0  0  0
  -13.1766    9.0028   13.3169 H   0  0  0  0  0  0  0  0  0  0  0  0
  -13.8128    6.7093   12.7914 H   0  0  0  0  0  0  0  0  0  0  0  0
  -12.4740    5.4900   11.1690 H   0  0  0  0  0  0  0  0  0  0  0  0
   -8.5298    9.4081   12.2699 H   0  0  0  0  0  0  0  0  0  0  0  0
  1  2  1  0
  2  3  1  0
  2  4  1  0
  2  5  1  0
  5  6  2  0
  6  7  1  0
  7  8  2  0
  8  9  1  0
  9 10  1  0
 10 11  2  0
 11 12  1  0
 12 13  2  0
 13 14  1  0
 14 15  1  0
 15 16  2  0
  9 17  2  0
 17  5  1  0
 15 10  1  0
  1 18  1  0
  1 19  1  0
  1 20  1  0
  3 21  1  0
  3 22  1  0
  3 23  1  0
  4 24  1  0
  4 25  1  0
  4 26  1  0
  6 27  1  0
  7 28  1  0
  8 29  1  0
 11 30  1  0
 12 31  1  0
 13 32  1  0
 14 33  1  0
 17 34  1  0
M  END
>  <meeko>  (1) 
{"is_sidechain": [false], "free_energy": -7.973, "intermolecular_energy": -8.905, "internal_energy": -0.407}

$$$$
4ih7_ligand
     RDKit          3D

 34 35  0  0  0  0  0  0  0  0999 V2000
   -5.3820    9.2560   11.7970 C   0  0  0  0  0  0  0  0  0  0  0  0
   -6.4720   10.3490   11.8190 C   0  0  0  0  0  0  0  0  0  0  0  0
   -6.8800   10.5560   13.2960 C   0  0  0  0  0  0  0  0  0  0  0  0
   -5.8670   11.6800   11.3230 C   0  0  0  0  0  0  0  0  0  0  0  0
   -7.6370    9.9360   10.9000 C   0  0  0  0  0  0  0  0  0  0  0  0
   -7.4510    9.8820    9.5060 C   0  0  0  0  0  0  0  0  0  0  0  0
   -8.4900    9.5240    8.6470 C   0  0  0  0  0  0  0  0  0  0  0  0
   -9.7440    9.2050    9.1610 C   0  0  0  0  0  0  0  0  0  0  0  0
   -9.9690    9.2390   10.5420 C   0  0  0  0  0  0  0  0  0  0  0  0
  -11.2920    8.8940   11.0980 C   0  0  0  0  0  0  0  0  0  0  0  0
  -11.5820    7.6210   11.4390 C   0  0  0  0  0  0  0  0  0  0  0  0
  -12.8620    7.2530   11.9970 C   0  0  0  0  0  0  0  0  0  0  0  0
  -13.7940    8.1890   12.1980 C   0  0  0  0  0  0  0  0  0  0  0  0
  -13.5370    9.4930   11.8770 N   0  0  0  0  0  0  0  0  0  0  0  0
  -12.3510    9.9420   11.3390 C   0  0  0  0  0  0  0  0  0  0  0  0
  -12.1880   11.1310   11.0790 O   0  0  0  0  0  0  0  0  0  0  0  0
   -8.9140    9.6080   11.3940 C   0  0  0  0  0  0  0  0  0  0  0  0
   -5.1127    8.9859   12.8288 H   0  0  0  0  0  0  0  0  0  0  0  0
   -5.7643    8.3674   11.2733 H   0  0  0  0  0  0  0  0  0  0  0  0
   -4.4924    9.6358   11.2733 H   0  0  0  0  0  0  0  0  0  0  0  0
   -6.0933   10.1569   13.9531 H   0  0  0  0  0  0  0  0  0  0  0  0
   -7.0121   11.6302   13.4928 H   0  0  0  0  0  0  0  0  0  0  0  0
   -7.8248   10.0282   13.4928 H   0  0  0  0  0  0  0  0  0  0  0  0
   -5.5854   12.2994   12.1873 H   0  0  0  0  0  0  0  0  0  0  0  0
   -4.9746   11.4728   10.7141 H   0  0  0  0  0  0  0  0  0  0  0  0
   -6.6099   12.2161   10.7141 H   0  0  0  0  0  0  0  0  0  0  0  0
   -6.4649   10.1274    9.0848 H   0  0  0  0  0  0  0  0  0  0  0  0
   -8.3182    9.4936    7.5609 H   0  0  0  0  0  0  0  0  0  0  0  0
  -10.5608    8.9253    8.4793 H   0  0  0  0  0  0  0  0  0  0  0  0
  -10.8213    6.8410   11.2875 H   0  0  0  0  0  0  0  0  0  0  0  0
  -13.0693    6.2042   12.2560 H   0  0  0  0  0  0  0  0  0  0  0  0
  -14.7697    7.9101   12.6224 H   0  0  0  0  0  0  0  0  0  0  0  0
  -14.2400   10.2070   12.0290 H   0  0  0  0  0  0  0  0  0  0  0  0
   -9.0912    9.6416   12.4791 H   0  0  0  0  0  0  0  0  0  0  0  0
  1  2  1  0
  2  3  1  0
  2  4  1  0
  2  5  1  0
  5  6  2  0
  6  7  1  0
  7  8  2  0
  8  9  1  0
  9 10  1  0
 10 11  2  0
 11 12  1  0
 12 13  2  0
 13 14  1  0
 14 15  1  0
 15 16  2  0
  9 17  2  0
 17  5  1  0
 15 10  1  0
  1 18  1  0
  1 19  1  0
  1 20  1  0
  3 21  1  0
  3 22  1  0
  3 23  1  0
  4 24  1  0
  4 25  1  0
  4 26  1  0
  6 27  1  0
  7 28  1  0
  8 29  1  0
 11 30  1  0
 12 31  1  0
 13 32  1  0
 14 33  1  0
 17 34  1  0
M  END
>  <meeko>  (2) 
{"is_sidechain": [false], "free_energy": -7.512, "intermolecular_energy": -8.215, "internal_energy": -0.581}

$$$$
4ih7_ligand
     RDKit          3D

 34 35  0  0  0  0  0  0  0  0999 V2000
   -5.4300    9.3510   11.7740 C   0  0  0  0  0  0  0  0  0  0  0  0
   -6.4280   10.5280   11.7370 C   0  0  0  0  0  0  0  0  0  0  0  0
   -6.6160   11.0120   13.1930 C   0  0  0  0  0  0  0  0  0  0  0  0
   -5.8040   11.6980   10.9450 C   0  0  0  0  0  0  0  0  0  0  0  0
   -7.7330   10.0790   11.0550 C   0  0  0  0  0  0  0  0  0  0  0  0
   -8.7760    9.5250   11.8210 C   0  0  0  0  0  0  0  0  0  0  0  0
   -9.9650    9.0970   11.2310 C   0  0  0  0  0  0  0  0  0  0  0  0
  -10.1440    9.2160    9.8550 C   0  0  0  0  0  0  0  0  0  0  0  0
   -9.1350    9.7670    9.0570 C   0  0  0  0  0  0  0  0  0  0  0  0
   -9.3190    9.9070    7.5990 C   0  0  0  0  0  0  0  0  0  0  0  0
   -8.6270    9.1280    6.7430 C   0  0  0  0  0  0  0  0  0  0  0  0
   -8.7940    9.2310    5.3120 C   0  0  0  0  0  0  0  0  0  0  0  0
   -9.6620   10.1110    4.8050 C   0  0  0  0  0  0  0  0  0  0  0  0
  -10.3930   10.9120    5.6390 N   0  0  0  0  0  0  0  0  0  0  0  0
  -10.3040   10.8900    7.0140 C   0  0  0  0  0  0  0  0  0  0  0  0
  -10.9950   11.6360    7.7020 O   0  0  0  0  0  0  0  0  0  0  0  0
   -7.9400   10.1890    9.6660 C   0  0  0  0  0  0  0  0  0  0  0  0
   -5.2090    9.0904   12.8196 H   0  0  0  0  0  0  0  0  0  0  0  0
   -5.8699    8.4811   11.2644 H   0  0  0  0  0  0  0  0  0  0  0  0
   -4.4999    9.6428   11.2644 H   0  0  0  0  0  0  0  0  0  0  0  0
   -6.3069   10.2162   13.8867 H   0  0  0  0  0  0  0  0  0  0  0  0
   -6.0002   11.9073   13.3642 H   0  0  0  0  0  0  0  0  0  0  0  0
   -7.6746   11.2569   13.3642 H   0  0  0  0  0  0  0  0  0  0  0  0
   -5.4056   12.4450   11.6473 H   0  0  0  0  0  0  0  0  0  0  0  0
   -4.9885   11.3185   10.3118 H   0  0  0  0  0  0  0  0  0  0  0  0
   -6.5735   12.1638   10.3118 H   0  0  0  0  0  0  0  0  0  0  0  0
   -8.6504    9.4275   12.9094 H   0  0  0  0  0  0  0  0  0  0  0  0
  -10.7625    8.6649   11.8533 H   0  0  0  0  0  0  0  0  0  0  0  0
  -11.0826    8.8754    9.3934 H   0  0  0  0  0  0  0  0  0  0  0  0
   -7.9148    8.3930    7.1461 H   0  0  0  0  0  0  0  0  0  0  0  0
   -8.2076    8.5861    4.6409 H   0  0  0  0  0  0  0  0  0  0  0  0
   -9.7891   10.1916    3.7153 H   0  0  0  0  0  0  0  0  0  0  0  0
  -11.0540   11.5790    5.2600 H   0  0  0  0  0  0  0  0  0  0  0  0
   -7.1437   10.6175    9.0396 H   0  0  0  0  0  0  0  0  0  0  0  0
  1  2  1  0
  2  3  1  0
  2  4  1  0
  2  5  1  0
  5  6  2  0
  6  7  1  0
  7  8  2  0
  8  9  1  0
  9 10  1  0
 10 11  2  0
 11 12  1  0
 12 13  2  0
 13 14  1  0
 14 15  1  0
 15 16  2  0
  9 17  2  0
 17  5  1  0
 15 10  1  0
  1 18  1  0
  1 19  1  0
  1 20  1  0
  3 21  1  0
  3 22  1  0
  3 23  1  0
  4 24  1  0
  4 25  1  0
  4 26  1  0
  6 27  1  0
  7 28  1  0
  8 29  1  0
 11 30  1  0
 12 31  1  0
 13 32  1  0
 14 33  1  0
 17 34  1  0
M  END
>  <meeko>  (3) 
{"is_sidechain": [false], "free_energy": -7.163, "intermolecular_energy": -7.897, "internal_energy": -0.51}

$$$$
4ih7_ligand
     RDKit          3D

 34 35  0  0  0  0  0  0  0  0999 V2000
   -5.7780   11.1980   10.4050 C   0  0  0  0  0  0  0  0  0  0  0  0
   -6.4470   10.3330   11.4930 C   0  0  0  0  0  0  0  0  0  0  0  0
   -5.4660    9.1860   11.8300 C   0  0  0  0  0  0  0  0  0  0  0  0
   -6.6210   11.1740   12.7760 C   0  0  0  0  0  0  0  0  0  0  0  0
   -7.8240    9.8530   10.9990 C   0  0  0  0  0  0  0  0  0  0  0  0
   -8.8860    9.6970   11.9090 C   0  0  0  0  0  0  0  0  0  0  0  0
  -10.1410    9.2520   11.4940 C   0  0  0  0  0  0  0  0  0  0  0  0
  -10.3690    8.9550   10.1530 C   0  0  0  0  0  0  0  0  0  0  0  0
   -9.3420    9.1030    9.2130 C   0  0  0  0  0  0  0  0  0  0  0  0
   -9.5760    8.7990    7.7880 C   0  0  0  0  0  0  0  0  0  0  0  0
   -9.0460    9.5810    6.8250 C   0  0  0  0  0  0  0  0  0  0  0  0
   -9.2460    9.3040    5.4210 C   0  0  0  0  0  0  0  0  0  0  0  0
   -9.9650    8.2410    5.0490 C   0  0  0  0  0  0  0  0  0  0  0  0
  -10.5100    7.4160    5.9940 N   0  0  0  0  0  0  0  0  0  0  0  0
  -10.3780    7.5970    7.3540 C   0  0  0  0  0  0  0  0  0  0  0  0
  -10.8920    6.8130    8.1450 O   0  0  0  0  0  0  0  0  0  0  0  0
   -8.0810    9.5470    9.6490 C   0  0  0  0  0  0  0  0  0  0  0  0
   -5.1715   11.9822   10.8816 H   0  0  0  0  0  0  0  0  0  0  0  0
   -5.1323   10.5648    9.7788 H   0  0  0  0  0  0  0  0  0  0  0  0
   -6.5532   11.6638    9.7788 H   0  0  0  0  0  0  0  0  0  0  0  0
   -5.3803    9.0858   12.9221 H   0  0  0  0  0  0  0  0  0  0  0  0
   -5.8425    8.2444   11.4038 H   0  0  0  0  0  0  0  0  0  0  0  0
   -4.4774    9.4119   11.4038 H   0  0  0  0  0  0  0  0  0  0  0  0
   -6.4877   10.5298   13.6576 H   0  0  0  0  0  0  0  0  0  0  0  0
   -5.8701   11.9777   12.7923 H   0  0  0  0  0  0  0  0  0  0  0  0
   -7.6291   11.6137   12.7923 H   0  0  0  0  0  0  0  0  0  0  0  0
   -8.7227    9.9312   12.9713 H   0  0  0  0  0  0  0  0  0  0  0  0
  -10.9523    9.1355   12.2276 H   0  0  0  0  0  0  0  0  0  0  0  0
  -11.3600    8.6027    9.8308 H   0  0  0  0  0  0  0  0  0  0  0  0
   -8.4444   10.4544    7.1169 H   0  0  0  0  0  0  0  0  0  0  0  0
   -8.8074    9.9666    4.6603 H   0  0  0  0  0  0  0  0  0  0  0  0
  -10.1189    8.0290    3.9807 H   0  0  0  0  0  0  0  0  0  0  0  0
  -11.0540    6.6080    5.7170 H   0  0  0  0  0  0  0  0  0  0  0  0
   -7.2710    9.6586    8.9132 H   0  0  0  0  0  0  0  0  0  0  0  0
  1  2  1  0
  2  3  1  0
  2  4  1  0
  2  5  1  0
  5  6  2  0
  6  7  1  0
  7  8  2  0
  8  9  1  0
  9 10  1  0
 10 11  2  0
 11 12  1  0
 12 13  2  0
 13 14  1  0
 14 15  1  0
 15 16  2  0
  9 17  2  0
 17  5  1  0
 15 10  1  0
  1 18  1  0
  1 19  1  0
  1 20  1  0
  3 21  1  0
  3 22  1  0
  3 23  1  0
  4 24  1  0
  4 25  1  0
  4 26  1  0
  6 27  1  0
  7 28  1  0
  8 29  1  0
 11 30  1  0
 12 31  1  0
 13 32  1  0
 14 33  1  0
 17 34  1  0
M  END
>  <meeko>  (4) 
{"is_sidechain": [false], "free_energy": -6.981, "intermolecular_energy": -7.968, "internal_energy": -0.236}

$$$$
4ih7_ligand
     RDKit          3D

 34 35  0  0  0  0  0  0  0  0999 V2000
   -6.6490   11.3130   12.6860 C   0  0  0  0  0  0  0  0  0  0  0  0
   -6.5100   10.6280   11.3100 C   0  0  0  0  0  0  0  0  0  0  0  0
   -5.9390   11.6800   10.3320 C   0  0  0  0  0  0  0  0  0  0  0  0
   -5.4710    9.4900   11.4110 C   0  0  0  0  0  0  0  0  0  0  0  0
   -7.8710   10.0500   10.8810 C   0  0  0  0  0  0  0  0  0  0  0  0
   -8.8430    9.7370   11.8500 C   0  0  0  0  0  0  0  0  0  0  0  0
  -10.0800    9.2000   11.4950 C   0  0  0  0  0  0  0  0  0  0  0  0
  -10.3810    8.9660   10.1560 C   0  0  0  0  0  0  0  0  0  0  0  0
   -9.4460    9.2700    9.1590 C   0  0  0  0  0  0  0  0  0  0  0  0
   -9.7590    9.0350    7.7350 C   0  0  0  0  0  0  0  0  0  0  0  0
   -9.7100    7.7890    7.2190 C   0  0  0  0  0  0  0  0  0  0  0  0
  -10.0230    7.5240    5.8350 C   0  0  0  0  0  0  0  0  0  0  0  0
  -10.3830    8.5290    5.0300 C   0  0  0  0  0  0  0  0  0  0  0  0
  -10.4550    9.8060    5.5160 N   0  0  0  0  0  0  0  0  0  0  0  0
  -10.1750   10.1580    6.8180 C   0  0  0  0  0  0  0  0  0  0  0  0
  -10.2660   11.3260    7.1870 O   0  0  0  0  0  0  0  0  0  0  0  0
   -8.2010    9.8050    9.5340 C   0  0  0  0  0  0  0  0  0  0  0  0
   -6.4981   10.5696   13.4826 H   0  0  0  0  0  0  0  0  0  0  0  0
   -5.8938   12.1074   12.7781 H   0  0  0  0  0  0  0  0  0  0  0  0
   -7.6542   11.7502   12.7781 H   0  0  0  0  0  0  0  0  0  0  0  0
   -5.4905   12.5063   10.9031 H   0  0  0  0  0  0  0  0  0  0  0  0
   -5.1707   11.2127    9.6984 H   0  0  0  0  0  0  0  0  0  0  0  0
   -6.7494   12.0696    9.6984 H   0  0  0  0  0  0  0  0  0  0  0  0
   -5.2700    9.2699   12.4699 H   0  0  0  0  0  0  0  0  0  0  0  0
   -5.8647    8.5892   10.9175 H   0  0  0  0  0  0  0  0  0  0  0  0
   -4.5382    9.8003   10.9175 H   0  0  0  0  0  0  0  0  0  0  0  0
   -8.6216    9.9203   12.9118 H   0  0  0  0  0  0  0  0  0  0  0  0
  -10.8190    8.9610   12.2740 H   0  0  0  0  0  0  0  0  0  0  0  0
  -11.3572    8.5406    9.8802 H   0  0  0  0  0  0  0  0  0  0  0  0
   -9.4233    6.9513    7.8718 H   0  0  0  0  0  0  0  0  0  0  0  0
   -9.9655    6.4976    5.4435 H   0  0  0  0  0  0  0  0  0  0  0  0
  -10.6217    8.3288    3.9750 H   0  0  0  0  0  0  0  0  0  0  0  0
  -10.7290   10.5700    4.9110 H   0  0  0  0  0  0  0  0  0  0  0  0
   -7.4632   10.0390    8.7524 H   0  0  0  0  0  0  0  0  0  0  0  0
  1  2  1  0
  2  3  1  0
  2  4  1  0
  2  5  1  0
  5  6  2  0
  6  7  1  0
  7  8  2  0
  8  9  1  0
  9 10  1  0
 10 11  2  0
 11 12  1  0
 12 13  2  0
 13 14  1  0
 14 15  1  0
 15 16  2  0
  9 17  2  0
 17  5  1  0
 15 10  1  0
  1 18  1  0
  1 19  1  0
  1 20  1  0
  3 21  1  0
  3 22  1  0
  3 23  1  0
  4 24  1  0
  4 25  1  0
  4 26  1  0
  6 27  1  0
  7 28  1  0
  8 29  1  0
 11 30  1  0
 12 31  1  0
 13 32  1  0
 14 33  1  0
 17 34  1  0
M  END
>  <meeko>  (5) 
{"is_sidechain": [false], "free_energy": -6.938, "intermolecular_energy": -7.601, "internal_energy": -0.556}

$$$$
4ih7_ligand
     RDKit          3D

 34 35  0  0  0  0  0  0  0  0999 V2000
  -11.4380    9.9190    4.0770 C   0  0  0  0  0  0  0  0  0  0  0  0
  -10.2150    9.0060    4.3030 C   0  0  0  0  0  0  0  0  0  0  0  0
  -10.4300    7.7370    3.4460 C   0  0  0  0  0  0  0  0  0  0  0  0
   -8.9490    9.7080    3.7650 C   0  0  0  0  0  0  0  0  0  0  0  0
  -10.0510    8.7240    5.8070 C   0  0  0  0  0  0  0  0  0  0  0  0
  -10.7980    7.6990    6.4190 C   0  0  0  0  0  0  0  0  0  0  0  0
  -10.6820    7.4280    7.7820 C   0  0  0  0  0  0  0  0  0  0  0  0
   -9.8090    8.1730    8.5710 C   0  0  0  0  0  0  0  0  0  0  0  0
   -9.0420    9.1960    8.0010 C   0  0  0  0  0  0  0  0  0  0  0  0
   -8.1060    9.9850    8.8260 C   0  0  0  0  0  0  0  0  0  0  0  0
   -6.7740    9.8780    8.6450 C   0  0  0  0  0  0  0  0  0  0  0  0
   -5.8330   10.6450    9.4270 C   0  0  0  0  0  0  0  0  0  0  0  0
   -6.2790   11.4980   10.3550 C   0  0  0  0  0  0  0  0  0  0  0  0
   -7.6230   11.6450   10.5630 N   0  0  0  0  0  0  0  0  0  0  0  0
   -8.5960   10.9580    9.8710 C   0  0  0  0  0  0  0  0  0  0  0  0
   -9.7860   11.1440   10.1070 O   0  0  0  0  0  0  0  0  0  0  0  0
   -9.1750    9.4610    6.6270 C   0  0  0  0  0  0  0  0  0  0  0  0
  -11.8504   10.2269    5.0492 H   0  0  0  0  0  0  0  0  0  0  0  0
  -11.1305   10.8103    3.5103 H   0  0  0  0  0  0  0  0  0  0  0  0
  -12.2051    9.3708    3.5103 H   0  0  0  0  0  0  0  0  0  0  0  0
  -10.5770    6.8694    4.1060 H   0  0  0  0  0  0  0  0  0  0  0  0
  -11.3185    7.8695    2.8112 H   0  0  0  0  0  0  0  0  0  0  0  0
   -9.5474    7.5694    2.8112 H   0  0  0  0  0  0  0  0  0  0  0  0
   -8.3325   10.0499    4.6094 H   0  0  0  0  0  0  0  0  0  0  0  0
   -8.3709    9.0016    3.1512 H   0  0  0  0  0  0  0  0  0  0  0  0
   -9.2419   10.5725    3.1512 H   0  0  0  0  0  0  0  0  0  0  0  0
  -11.4884    7.0987    5.8083 H   0  0  0  0  0  0  0  0  0  0  0  0
  -11.2812    6.6243    8.2348 H   0  0  0  0  0  0  0  0  0  0  0  0
   -9.7219    7.9568    9.6460 H   0  0  0  0  0  0  0  0  0  0  0  0
   -6.3931    9.1862    7.8793 H   0  0  0  0  0  0  0  0  0  0  0  0
   -4.7521   10.5278    9.2597 H   0  0  0  0  0  0  0  0  0  0  0  0
   -5.5639   12.0826   10.9523 H   0  0  0  0  0  0  0  0  0  0  0  0
   -7.9660   12.2920   11.2630 H   0  0  0  0  0  0  0  0  0  0  0  0
   -8.5769   10.2682    6.1789 H   0  0  0  0  0  0  0  0  0  0  0  0
  1  2  1  0
  2  3  1  0
  2  4  1  0
  2  5  1  0
  5  6  2  0
  6  7  1  0
  7  8  2  0
  8  9  1  0
  9 10  1  0
 10 11  2  0
 11 12  1  0
 12 13  2  0
 13 14  1  0
 14 15  1  0
 15 16  2  0
  9 17  2  0
 17  5  1  0
 15 10  1  0
  1 18  1  0
  1 19  1  0
  1 20  1  0
  3 21  1  0
  3 22  1  0
  3 23  1  0
  4 24  1  0
  4 25  1  0
  4 26  1  0
  6 27  1  0
  7 28  1  0
  8 29  1  0
 11 30  1  0
 12 31  1  0
 13 32  1  0
 14 33  1  0
 17 34  1  0
M  END
>  <meeko>  (6) 
{"is_sidechain": [false], "free_energy": -6.919, "intermolecular_energy": -7.62, "internal_energy": -0.515}

$$$$
4ih7_ligand
     RDKit          3D

 34 35  0  0  0  0  0  0  0  0999 V2000
  -13.2930    7.8010   12.7750 C   0  0  0  0  0  0  0  0  0  0  0  0
  -13.3080    8.3220   11.3230 C   0  0  0  0  0  0  0  0  0  0  0  0
  -14.2790    7.4210   10.5260 C   0  0  0  0  0  0  0  0  0  0  0  0
  -13.8930    9.7510   11.3020 C   0  0  0  0  0  0  0  0  0  0  0  0
  -11.8740    8.3410   10.7650 C   0  0  0  0  0  0  0  0  0  0  0  0
  -11.5470    7.5760    9.6300 C   0  0  0  0  0  0  0  0  0  0  0  0
  -10.2530    7.5620    9.1090 C   0  0  0  0  0  0  0  0  0  0  0  0
   -9.2510    8.3200    9.7080 C   0  0  0  0  0  0  0  0  0  0  0  0
   -9.5340    9.1020   10.8340 C   0  0  0  0  0  0  0  0  0  0  0  0
   -8.4810    9.9160   11.4710 C   0  0  0  0  0  0  0  0  0  0  0  0
   -8.0970    9.6700   12.7410 C   0  0  0  0  0  0  0  0  0  0  0  0
   -7.0610   10.4410   13.3880 C   0  0  0  0  0  0  0  0  0  0  0  0
   -6.4470   11.4230   12.7200 C   0  0  0  0  0  0  0  0  0  0  0  0
   -6.7980   11.6970   11.4270 N   0  0  0  0  0  0  0  0  0  0  0  0
   -7.7730   11.0210   10.7260 C   0  0  0  0  0  0  0  0  0  0  0  0
   -8.0330   11.3190    9.5640 O   0  0  0  0  0  0  0  0  0  0  0  0
  -10.8420    9.1000   11.3510 C   0  0  0  0  0  0  0  0  0  0  0  0
  -13.3175    8.6529   13.4705 H   0  0  0  0  0  0  0  0  0  0  0  0
  -14.1732    7.1635   12.9449 H   0  0  0  0  0  0  0  0  0  0  0  0
  -12.3776    7.2152   12.9449 H   0  0  0  0  0  0  0  0  0  0  0  0
  -14.9012    6.8436   11.2256 H   0  0  0  0  0  0  0  0  0  0  0  0
  -14.9242    8.0475    9.8926 H   0  0  0  0  0  0  0  0  0  0  0  0
  -13.7024    6.7308    9.8926 H   0  0  0  0  0  0  0  0  0  0  0  0
  -14.0372   10.1034   12.3340 H   0  0  0  0  0  0  0  0  0  0  0  0
  -13.1980   10.4240   10.7785 H   0  0  0  0  0  0  0  0  0  0  0  0
  -14.8604    9.7435   10.7785 H   0  0  0  0  0  0  0  0  0  0  0  0
  -12.3293    6.9756    9.1427 H   0  0  0  0  0  0  0  0  0  0  0  0
  -10.0242    6.9510    8.2234 H   0  0  0  0  0  0  0  0  0  0  0  0
   -8.2318    8.3045    9.2945 H   0  0  0  0  0  0  0  0  0  0  0  0
   -8.5870    8.8590   13.2996 H   0  0  0  0  0  0  0  0  0  0  0  0
   -6.7779   10.2207   14.4279 H   0  0  0  0  0  0  0  0  0  0  0  0
   -5.6582   12.0115   13.2113 H   0  0  0  0  0  0  0  0  0  0  0  0
   -6.3340   12.4380   10.9160 H   0  0  0  0  0  0  0  0  0  0  0  0
  -11.0658    9.7091   12.2392 H   0  0  0  0  0  0  0  0  0  0  0  0
  1  2  1  0
  2  3  1  0
  2  4  1  0
  2  5  1  0
  5  6  2  0
  6  7  1  0
  7  8  2  0
  8  9  1  0
  9 10  1  0
 10 11  2  0
 11 12  1  0
 12 13  2  0
 13 14  1  0
 14 15  1  0
 15 16  2  0
  9 17  2  0
 17  5  1  0
 15 10  1  0
  1 18  1  0
  1 19  1  0
  1 20  1  0
  3 21  1  0
  3 22  1  0
  3 23  1  0
  4 24  1  0
  4 25  1  0
  4 26  1  0
  6 27  1  0
  7 28  1  0
  8 29  1  0
 11 30  1  0
 12 31  1  0
 13 32  1  0
 14 33  1  0
 17 34  1  0
M  END
>  <meeko>  (7) 
{"is_sidechain": [false], "free_energy": -6.723, "intermolecular_energy": -7.469, "internal_energy": -0.447}

$$$$
4ih7_ligand
     RDKit          3D

 34 35  0  0  0  0  0  0  0  0999 V2000
  -11.6130   10.2550    2.6800 C   0  0  0  0  0  0  0  0  0  0  0  0
  -10.1300    9.9460    2.9730 C   0  0  0  0  0  0  0  0  0  0  0  0
   -9.5860    9.1400    1.7710 C   0  0  0  0  0  0  0  0  0  0  0  0
   -9.3370   11.2700    3.0300 C   0  0  0  0  0  0  0  0  0  0  0  0
  -10.0100    9.2140    4.3220 C   0  0  0  0  0  0  0  0  0  0  0  0
  -10.4090    7.8680    4.4320 C   0  0  0  0  0  0  0  0  0  0  0  0
  -10.3250    7.1810    5.6430 C   0  0  0  0  0  0  0  0  0  0  0  0
   -9.8340    7.8210    6.7780 C   0  0  0  0  0  0  0  0  0  0  0  0
   -9.4190    9.1570    6.7100 C   0  0  0  0  0  0  0  0  0  0  0  0
   -8.8880    9.8420    7.9050 C   0  0  0  0  0  0  0  0  0  0  0  0
   -7.5930    9.7030    8.2550 C   0  0  0  0  0  0  0  0  0  0  0  0
   -7.0390   10.3700    9.4110 C   0  0  0  0  0  0  0  0  0  0  0  0
   -7.8160   11.1590   10.1590 C   0  0  0  0  0  0  0  0  0  0  0  0
   -9.1330   11.3360    9.8310 N   0  0  0  0  0  0  0  0  0  0  0  0
   -9.7520   10.7430    8.7530 C   0  0  0  0  0  0  0  0  0  0  0  0
  -10.9380   10.9510    8.5160 O   0  0  0  0  0  0  0  0  0  0  0  0
   -9.5160    9.8370    5.4840 C   0  0  0  0  0  0  0  0  0  0  0  0
  -12.1582   10.3686    3.6286 H   0  0  0  0  0  0  0  0  0  0  0  0
  -11.6858   11.1876    2.1013 H   0  0  0  0  0  0  0  0  0  0  0  0
  -12.0522    9.4291    2.1013 H   0  0  0  0  0  0  0  0  0  0  0  0
   -9.0059    8.2805    2.1382 H   0  0  0  0  0  0  0  0  0  0  0  0
  -10.4270    8.7805    1.1598 H   0  0  0  0  0  0  0  0  0  0  0  0
   -8.9381    9.7855    1.1598 H   0  0  0  0  0  0  0  0  0  0  0  0
   -9.1684   11.5515    4.0799 H   0  0  0  0  0  0  0  0  0  0  0  0
   -8.3684   11.1393    2.5253 H   0  0  0  0  0  0  0  0  0  0  0  0
   -9.9094   12.0623    2.5253 H   0  0  0  0  0  0  0  0  0  0  0  0
  -10.7953    7.3470    3.5436 H   0  0  0  0  0  0  0  0  0  0  0  0
  -10.6475    6.1310    5.7016 H   0  0  0  0  0  0  0  0  0  0  0  0
   -9.7718    7.2755    7.7312 H   0  0  0  0  0  0  0  0  0  0  0  0
   -6.9398    9.0636    7.6430 H   0  0  0  0  0  0  0  0  0  0  0  0
   -5.9804   10.2286    9.6746 H   0  0  0  0  0  0  0  0  0  0  0  0
   -7.3964   11.6671   11.0398 H   0  0  0  0  0  0  0  0  0  0  0  0
   -9.7250   11.9350   10.3940 H   0  0  0  0  0  0  0  0  0  0  0  0
   -9.1962   10.8881    5.4305 H   0  0  0  0  0  0  0  0  0  0  0  0
  1  2  1  0
  2  3  1  0
  2  4  1  0
  2  5  1  0
  5  6  2  0
  6  7  1  0
  7  8  2  0
  8  9  1  0
  9 10  1  0
 10 11  2  0
 11 12  1  0
 12 13  2  0
 13 14  1  0
 14 15  1  0
 15 16  2  0
  9 17  2  0
 17  5  1  0
 15 10  1  0
  1 18  1  0
  1 19  1  0
  1 20  1  0
  3 21  1  0
  3 22  1  0
  3 23  1  0
  4 24  1  0
  4 25  1  0
  4 26  1  0
  6 27  1  0
  7 28  1  0
  8 29  1  0
 11 30  1  0
 12 31  1  0
 13 32  1  0
 14 33  1  0
 17 34  1  0
M  END
>  <meeko>  (8) 
{"is_sidechain": [false], "free_energy": -6.577, "intermolecular_energy": -7.181, "internal_energy": -0.572}

$$$$
4ih7_ligand
     RDKit          3D

 34 35  0  0  0  0  0  0  0  0999 V2000
  -11.5900    9.3680    5.1890 C   0  0  0  0  0  0  0  0  0  0  0  0
  -10.2060    8.7140    5.3840 C   0  0  0  0  0  0  0  0  0  0  0  0
  -10.3360    7.2350    4.9510 C   0  0  0  0  0  0  0  0  0  0  0  0
   -9.1910    9.3800    4.4290 C   0  0  0  0  0  0  0  0  0  0  0  0
   -9.7450    8.9010    6.8410 C   0  0  0  0  0  0  0  0  0  0  0  0
   -8.4620    9.4100    7.1150 C   0  0  0  0  0  0  0  0  0  0  0  0
   -8.0100    9.5790    8.4240 C   0  0  0  0  0  0  0  0  0  0  0  0
   -8.8350    9.2470    9.4960 C   0  0  0  0  0  0  0  0  0  0  0  0
  -10.1220    8.7460    9.2670 C   0  0  0  0  0  0  0  0  0  0  0  0
  -11.0080    8.4010   10.3960 C   0  0  0  0  0  0  0  0  0  0  0  0
  -11.5860    9.3710   11.1350 C   0  0  0  0  0  0  0  0  0  0  0  0
  -12.4680    9.0670   12.2380 C   0  0  0  0  0  0  0  0  0  0  0  0
  -12.7370    7.7940   12.5430 C   0  0  0  0  0  0  0  0  0  0  0  0
  -12.1810    6.7800   11.8110 N   0  0  0  0  0  0  0  0  0  0  0  0
  -11.3280    6.9680   10.7450 C   0  0  0  0  0  0  0  0  0  0  0  0
  -10.8690    6.0100   10.1310 O   0  0  0  0  0  0  0  0  0  0  0  0
  -10.5600    8.5760    7.9420 C   0  0  0  0  0  0  0  0  0  0  0  0
  -12.0373    9.5794    6.1714 H   0  0  0  0  0  0  0  0  0  0  0  0
  -11.4759   10.3075    4.6283 H   0  0  0  0  0  0  0  0  0  0  0  0
  -12.2433    8.6834    4.6283 H   0  0  0  0  0  0  0  0  0  0  0  0
  -10.3922    6.5951    5.8440 H   0  0  0  0  0  0  0  0  0  0  0  0
  -11.2488    7.1076    4.3505 H   0  0  0  0  0  0  0  0  0  0  0  0
   -9.4594    6.9503    4.3505 H   0  0  0  0  0  0  0  0  0  0  0  0
   -8.4139    9.8899    5.0174 H   0  0  0  0  0  0  0  0  0  0  0  0
   -8.7254    8.6113    3.7947 H   0  0  0  0  0  0  0  0  0  0  0  0
   -9.7108   10.1131    3.7947 H   0  0  0  0  0  0  0  0  0  0  0  0
   -7.8008    9.6806    6.2786 H   0  0  0  0  0  0  0  0  0  0  0  0
   -7.0007    9.9750    8.6097 H   0  0  0  0  0  0  0  0  0  0  0  0
   -8.4739    9.3790   10.5266 H   0  0  0  0  0  0  0  0  0  0  0  0
  -11.3796   10.4234   10.8905 H   0  0  0  0  0  0  0  0  0  0  0  0
  -12.9171    9.8814   12.8254 H   0  0  0  0  0  0  0  0  0  0  0  0
  -13.4066    7.5607   13.3840 H   0  0  0  0  0  0  0  0  0  0  0  0
  -12.3830    5.8140   12.0370 H   0  0  0  0  0  0  0  0  0  0  0  0
  -11.5690    8.1774    7.7602 H   0  0  0  0  0  0  0  0  0  0  0  0
  1  2  1  0
  2  3  1  0
  2  4  1  0
  2  5  1  0
  5  6  2  0
  6  7  1  0
  7  8  2  0
  8  9  1  0
  9 10  1  0
 10 11  2  0
 11 12  1  0
 12 13  2  0
 13 14  1  0
 14 15  1  0
 15 16  2  0
  9 17  2  0
 17  5  1  0
 15 10  1  0
  1 18  1  0
  1 19  1  0
  1 20  1  0
  3 21  1  0
  3 22  1  0
  3 23  1  0
  4 24  1  0
  4 25  1  0
  4 26  1  0
  6 27  1  0
  7 28  1  0
  8 29  1  0
 11 30  1  0
 12 31  1  0
 13 32  1  0
 14 33  1  0
 17 34  1  0
M  END
>  <meeko>  (9) 
{"is_sidechain": [false], "free_energy": -6.491, "intermolecular_energy": -7.129, "internal_energy": -0.528}

$$$$
