1ps3_ligand
     RDKit          3D

 28 29  0  0  0  0  0  0  0  0999 V2000
   32.2340   66.7500    8.3070 O   0  0  0  0  0  0  0  0  0  0  0  0
   31.2400   66.4300    8.9190 C   0  0  0  0  0  0  0  0  0  0  0  0
   31.0060   66.5470   10.2730 N   0  0  0  0  0  0  0  0  0  0  0  0
   29.6110   66.3670   10.5460 C   0  0  2  0  0  0  0  0  0  0  0  0
   29.3000   65.6540   11.8710 C   0  0  1  0  0  0  0  0  0  0  0  0
   29.6190   66.5080   12.9810 O   0  0  0  0  0  0  0  0  0  0  0  0
   27.8020   65.2770   11.9340 C   0  0  1  0  0  0  0  0  0  0  0  0
   27.0450   66.4760   12.1550 O   0  0  0  0  0  0  0  0  0  0  0  0
   27.3160   64.5390   10.6640 C   0  0  2  0  0  0  0  0  0  0  0  0
   27.8720   63.2170   10.6770 O   0  0  0  0  0  0  0  0  0  0  0  0
   27.7080   65.2510    9.3460 C   0  0  1  0  0  0  0  0  0  0  0  0
   26.8020   66.4480    9.0050 C   0  0  0  0  0  0  0  0  0  0  0  0
   26.7320   66.6870    7.6000 O   0  0  0  0  0  0  0  0  0  0  0  0
   29.1160   65.6290    9.4170 N   0  0  0  0  0  0  0  0  0  0  0  0
   29.9430   65.8050    8.3290 C   0  0  0  0  0  0  0  0  0  0  0  0
   29.7130   65.5400    7.1700 O   0  0  0  0  0  0  0  0  0  0  0  0
   31.6080   67.1380   10.8310 H   0  0  0  0  0  0  0  0  0  0  0  0
   29.1220   67.3436   10.6766 H   0  0  0  0  0  0  0  0  0  0  0  0
   29.9104   64.7405   11.9258 H   0  0  0  0  0  0  0  0  0  0  0  0
   29.6980   67.4100   12.6090 H   0  0  0  0  0  0  0  0  0  0  0  0
   27.6527   64.5706   12.7639 H   0  0  0  0  0  0  0  0  0  0  0  0
   26.9420   66.5760   13.1210 H   0  0  0  0  0  0  0  0  0  0  0  0
   26.2164   64.5217   10.6885 H   0  0  0  0  0  0  0  0  0  0  0  0
   28.8450   63.2840   10.6910 H   0  0  0  0  0  0  0  0  0  0  0  0
   27.5575   64.5452    8.5158 H   0  0  0  0  0  0  0  0  0  0  0  0
   25.7885   66.2437    9.3807 H   0  0  0  0  0  0  0  0  0  0  0  0
   27.2314   67.3429    9.4791 H   0  0  0  0  0  0  0  0  0  0  0  0
   26.3450   65.9070    7.1540 H   0  0  0  0  0  0  0  0  0  0  0  0
  1  2  2  0
  2  3  1  0
  3  4  1  0
  4  5  1  0
  5  6  1  0
  5  7  1  0
  7  8  1  0
  7  9  1  0
  9 10  1  0
  9 11  1  0
 11 12  1  0
 12 13  1  0
 11 14  1  0
 14 15  1  0
 15 16  2  0
 15  2  1  0
 14  4  1  0
  3 17  1  0
  4 18  1  1
  5 19  1  1
  6 20  1  0
  7 21  1  1
  8 22  1  0
  9 23  1  1
 10 24  1  0
 11 25  1  6
 12 26  1  0
 12 27  1  0
 13 28  1  0
M  END
>  <meeko>  (1) 
{"is_sidechain": [false], "free_energy": -5.453, "intermolecular_energy": -6.409, "internal_energy": -0.191}

$$$$
1ps3_ligand
     RDKit          3D

 28 29  0  0  0  0  0  0  0  0999 V2000
   31.8680   66.5500    6.1680 O   0  0  0  0  0  0  0  0  0  0  0  0
   30.9550   66.4910    6.9600 C   0  0  0  0  0  0  0  0  0  0  0  0
   29.6170   66.2920    6.6940 N   0  0  0  0  0  0  0  0  0  0  0  0
   28.9210   65.9590    7.9010 C   0  0  2  0  0  0  0  0  0  0  0  0
   27.4890   66.5080    7.9930 C   0  0  1  0  0  0  0  0  0  0  0  0
   26.6340   65.8190    7.0670 O   0  0  0  0  0  0  0  0  0  0  0  0
   26.9380   66.3230    9.4260 C   0  0  1  0  0  0  0  0  0  0  0  0
   26.6460   64.9310    9.6200 O   0  0  0  0  0  0  0  0  0  0  0  0
   27.9090   66.8440   10.5120 C   0  0  2  0  0  0  0  0  0  0  0  0
   27.9050   68.2770   10.4620 O   0  0  0  0  0  0  0  0  0  0  0  0
   29.3580   66.3260   10.3470 C   0  0  1  0  0  0  0  0  0  0  0  0
   29.5540   64.8850   10.8540 C   0  0  0  0  0  0  0  0  0  0  0  0
   29.7270   64.8310   12.2700 O   0  0  0  0  0  0  0  0  0  0  0  0
   29.7550   66.4760    8.9500 N   0  0  0  0  0  0  0  0  0  0  0  0
   31.0530   66.6130    8.5070 C   0  0  0  0  0  0  0  0  0  0  0  0
   32.0510   66.7840    9.1730 O   0  0  0  0  0  0  0  0  0  0  0  0
   29.3370   65.9530    5.7820 H   0  0  0  0  0  0  0  0  0  0  0  0
   28.7671   64.8715    7.9610 H   0  0  0  0  0  0  0  0  0  0  0  0
   27.5108   67.5793    7.7443 H   0  0  0  0  0  0  0  0  0  0  0  0
   25.7230   66.1060    7.2800 H   0  0  0  0  0  0  0  0  0  0  0  0
   26.0232   66.9247    9.5310 H   0  0  0  0  0  0  0  0  0  0  0  0
   27.5000   64.4570    9.6260 H   0  0  0  0  0  0  0  0  0  0  0  0
   27.5568   66.4664   11.4832 H   0  0  0  0  0  0  0  0  0  0  0  0
   27.8110   68.6240   11.3700 H   0  0  0  0  0  0  0  0  0  0  0  0
   30.0152   66.9356   10.9845 H   0  0  0  0  0  0  0  0  0  0  0  0
   28.6694   64.2903   10.5821 H   0  0  0  0  0  0  0  0  0  0  0  0
   30.4652   64.4833   10.3867 H   0  0  0  0  0  0  0  0  0  0  0  0
   29.5080   63.9340   12.5920 H   0  0  0  0  0  0  0  0  0  0  0  0
  1  2  2  0
  2  3  1  0
  3  4  1  0
  4  5  1  0
  5  6  1  0
  5  7  1  0
  7  8  1  0
  7  9  1  0
  9 10  1  0
  9 11  1  0
 11 12  1  0
 12 13  1  0
 11 14  1  0
 14 15  1  0
 15 16  2  0
 15  2  1  0
 14  4  1  0
  3 17  1  0
  4 18  1  1
  5 19  1  6
  6 20  1  0
  7 21  1  6
  8 22  1  0
  9 23  1  1
 10 24  1  0
 11 25  1  1
 12 26  1  0
 12 27  1  0
 13 28  1  0
M  END
>  <meeko>  (2) 
{"is_sidechain": [false], "free_energy": -5.263, "intermolecular_energy": -6.327, "internal_energy": -0.05}

$$$$
1ps3_ligand
     RDKit          3D

 28 29  0  0  0  0  0  0  0  0999 V2000
   28.8370   66.7560    5.8550 O   0  0  0  0  0  0  0  0  0  0  0  0
   28.7850   66.4150    7.0150 C   0  0  0  0  0  0  0  0  0  0  0  0
   29.8360   66.1260    7.8600 N   0  0  0  0  0  0  0  0  0  0  0  0
   29.3780   66.0870    9.2160 C   0  0  2  0  0  0  0  0  0  0  0  0
   30.0750   65.0440   10.1030 C   0  0  1  0  0  0  0  0  0  0  0  0
   31.4330   65.4370   10.3560 O   0  0  0  0  0  0  0  0  0  0  0  0
   29.3280   64.9040   11.4490 C   0  0  1  0  0  0  0  0  0  0  0  0
   29.6000   66.0710   12.2390 O   0  0  0  0  0  0  0  0  0  0  0  0
   27.8050   64.6980   11.2700 C   0  0  2  0  0  0  0  0  0  0  0  0
   27.5920   63.3710   10.7660 O   0  0  0  0  0  0  0  0  0  0  0  0
   27.1490   65.7240   10.3150 C   0  0  1  0  0  0  0  0  0  0  0  0
   26.8910   67.0920   10.9720 C   0  0  0  0  0  0  0  0  0  0  0  0
   26.7440   66.9910   12.3880 O   0  0  0  0  0  0  0  0  0  0  0  0
   27.9670   65.8360    9.1110 N   0  0  0  0  0  0  0  0  0  0  0  0
   27.5020   66.2210    7.8730 C   0  0  0  0  0  0  0  0  0  0  0  0
   26.3520   66.3800    7.5270 O   0  0  0  0  0  0  0  0  0  0  0  0
   30.7730   66.4060    7.6000 H   0  0  0  0  0  0  0  0  0  0  0  0
   29.6167   67.0335    9.7232 H   0  0  0  0  0  0  0  0  0  0  0  0
   30.0653   64.0781    9.5768 H   0  0  0  0  0  0  0  0  0  0  0  0
   31.6070   65.2100   11.2930 H   0  0  0  0  0  0  0  0  0  0  0  0
   29.6931   64.0009   11.9600 H   0  0  0  0  0  0  0  0  0  0  0  0
   29.9380   66.7570   11.6310 H   0  0  0  0  0  0  0  0  0  0  0  0
   27.3307   64.8458   12.2514 H   0  0  0  0  0  0  0  0  0  0  0  0
   28.2360   63.1980   10.0540 H   0  0  0  0  0  0  0  0  0  0  0  0
   26.1487   65.3535   10.0465 H   0  0  0  0  0  0  0  0  0  0  0  0
   27.7388   67.7569   10.7504 H   0  0  0  0  0  0  0  0  0  0  0  0
   25.9513   67.4913   10.5626 H   0  0  0  0  0  0  0  0  0  0  0  0
   27.0910   66.1290   12.6920 H   0  0  0  0  0  0  0  0  0  0  0  0
  1  2  2  0
  2  3  1  0
  3  4  1  0
  4  5  1  0
  5  6  1  0
  5  7  1  0
  7  8  1  0
  7  9  1  0
  9 10  1  0
  9 11  1  0
 11 12  1  0
 12 13  1  0
 11 14  1  0
 14 15  1  0
 15 16  2  0
 15  2  1  0
 14  4  1  0
  3 17  1  0
  4 18  1  1
  5 19  1  6
  6 20  1  0
  7 21  1  1
  8 22  1  0
  9 23  1  1
 10 24  1  0
 11 25  1  6
 12 26  1  0
 12 27  1  0
 13 28  1  0
M  END
>  <meeko>  (3) 
{"is_sidechain": [false], "free_energy": -4.855, "intermolecular_energy": -5.62, "internal_energy": -0.277}

$$$$
1ps3_ligand
     RDKit          3D

 28 29  0  0  0  0  0  0  0  0999 V2000
   30.5470   66.2870    7.0750 O   0  0  0  0  0  0  0  0  0  0  0  0
   30.0070   66.3650    8.1550 C   0  0  0  0  0  0  0  0  0  0  0  0
   28.8900   67.1000    8.4920 N   0  0  0  0  0  0  0  0  0  0  0  0
   28.3840   66.6700    9.7610 C   0  0  2  0  0  0  0  0  0  0  0  0
   27.7850   67.7870   10.6290 C   0  0  1  0  0  0  0  0  0  0  0  0
   26.5480   68.2460   10.0600 O   0  0  0  0  0  0  0  0  0  0  0  0
   27.5220   67.2660   12.0610 C   0  0  1  0  0  0  0  0  0  0  0  0
   26.3840   66.3930   12.0210 O   0  0  0  0  0  0  0  0  0  0  0  0
   28.7500   66.5500   12.6720 C   0  0  2  0  0  0  0  0  0  0  0  0
   29.7360   67.5450   12.9810 O   0  0  0  0  0  0  0  0  0  0  0  0
   29.3700   65.4810   11.7410 C   0  0  1  0  0  0  0  0  0  0  0  0
   28.5920   64.1520   11.7340 C   0  0  0  0  0  0  0  0  0  0  0  0
   27.9430   63.9010   12.9790 O   0  0  0  0  0  0  0  0  0  0  0  0
   29.5080   66.0450   10.4020 N   0  0  0  0  0  0  0  0  0  0  0  0
   30.4300   65.6370    9.4630 C   0  0  0  0  0  0  0  0  0  0  0  0
   31.3600   64.8760    9.6170 O   0  0  0  0  0  0  0  0  0  0  0  0
   28.3000   67.4710    7.7580 H   0  0  0  0  0  0  0  0  0  0  0  0
   27.5301   65.9915    9.6177 H   0  0  0  0  0  0  0  0  0  0  0  0
   28.5022   68.6201   10.6681 H   0  0  0  0  0  0  0  0  0  0  0  0
   26.0600   68.6750   10.7930 H   0  0  0  0  0  0  0  0  0  0  0  0
   27.3220   68.1266   12.7162 H   0  0  0  0  0  0  0  0  0  0  0  0
   25.7970   66.7190   11.3110 H   0  0  0  0  0  0  0  0  0  0  0  0
   28.4112   66.0143   13.5710 H   0  0  0  0  0  0  0  0  0  0  0  0
   30.4620   67.4830   12.3310 H   0  0  0  0  0  0  0  0  0  0  0  0
   30.3636   65.2185   12.1332 H   0  0  0  0  0  0  0  0  0  0  0  0
   27.8319   64.1907   10.9398 H   0  0  0  0  0  0  0  0  0  0  0  0
   29.3128   63.3397   11.5592 H   0  0  0  0  0  0  0  0  0  0  0  0
   28.5610   64.0900   13.7140 H   0  0  0  0  0  0  0  0  0  0  0  0
  1  2  2  0
  2  3  1  0
  3  4  1  0
  4  5  1  0
  5  6  1  0
  5  7  1  0
  7  8  1  0
  7  9  1  0
  9 10  1  0
  9 11  1  0
 11 12  1  0
 12 13  1  0
 11 14  1  0
 14 15  1  0
 15 16  2  0
 15  2  1  0
 14  4  1  0
  3 17  1  0
  4 18  1  6
  5 19  1  1
  6 20  1  0
  7 21  1  1
  8 22  1  0
  9 23  1  1
 10 24  1  0
 11 25  1  1
 12 26  1  0
 12 27  1  0
 13 28  1  0
M  END
>  <meeko>  (4) 
{"is_sidechain": [false], "free_energy": -4.807, "intermolecular_energy": -5.568, "internal_energy": -0.274}

$$$$
1ps3_ligand
     RDKit          3D

 28 29  0  0  0  0  0  0  0  0999 V2000
   28.5190   68.9340   12.9800 O   0  0  0  0  0  0  0  0  0  0  0  0
   28.7370   68.2630   11.9970 C   0  0  0  0  0  0  0  0  0  0  0  0
   29.8780   67.5490   11.6960 N   0  0  0  0  0  0  0  0  0  0  0  0
   29.6170   66.6390   10.6210 C   0  0  2  0  0  0  0  0  0  0  0  0
   30.7930   66.4280    9.6550 C   0  0  1  0  0  0  0  0  0  0  0  0
   31.8400   65.6870   10.3030 O   0  0  0  0  0  0  0  0  0  0  0  0
   30.3220   65.6520    8.4040 C   0  0  1  0  0  0  0  0  0  0  0  0
   30.1050   64.2830    8.7770 O   0  0  0  0  0  0  0  0  0  0  0  0
   29.0510   66.2610    7.7650 C   0  0  2  0  0  0  0  0  0  0  0  0
   29.4200   67.4930    7.1290 O   0  0  0  0  0  0  0  0  0  0  0  0
   27.9140   66.5250    8.7800 C   0  0  1  0  0  0  0  0  0  0  0  0
   27.1230   65.2580    9.1560 C   0  0  0  0  0  0  0  0  0  0  0  0
   27.6370   64.6300   10.3290 O   0  0  0  0  0  0  0  0  0  0  0  0
   28.4730   67.1930    9.9510 N   0  0  0  0  0  0  0  0  0  0  0  0
   27.7700   68.0150   10.8040 C   0  0  0  0  0  0  0  0  0  0  0  0
   26.6470   68.4470   10.6620 O   0  0  0  0  0  0  0  0  0  0  0  0
   30.5550   67.3660   12.4250 H   0  0  0  0  0  0  0  0  0  0  0  0
   29.4436   65.6270   11.0157 H   0  0  0  0  0  0  0  0  0  0  0  0
   31.1755   67.4139    9.3523 H   0  0  0  0  0  0  0  0  0  0  0  0
   32.4600   65.4240    9.5920 H   0  0  0  0  0  0  0  0  0  0  0  0
   31.1050   65.7202    7.6344 H   0  0  0  0  0  0  0  0  0  0  0  0
   30.4120   63.7310    8.0330 H   0  0  0  0  0  0  0  0  0  0  0  0
   28.6558   65.5294    7.0449 H   0  0  0  0  0  0  0  0  0  0  0  0
   30.1230   67.3130    6.4760 H   0  0  0  0  0  0  0  0  0  0  0  0
   27.1727   67.1818    8.3014 H   0  0  0  0  0  0  0  0  0  0  0  0
   26.0735   65.5354    9.3337 H   0  0  0  0  0  0  0  0  0  0  0  0
   27.2132   64.5443    8.3238 H   0  0  0  0  0  0  0  0  0  0  0  0
   26.9190   64.5250   10.9850 H   0  0  0  0  0  0  0  0  0  0  0  0
  1  2  2  0
  2  3  1  0
  3  4  1  0
  4  5  1  0
  5  6  1  0
  5  7  1  0
  7  8  1  0
  7  9  1  0
  9 10  1  0
  9 11  1  0
 11 12  1  0
 12 13  1  0
 11 14  1  0
 14 15  1  0
 15 16  2  0
 15  2  1  0
 14  4  1  0
  3 17  1  0
  4 18  1  1
  5 19  1  6
  6 20  1  0
  7 21  1  6
  8 22  1  0
  9 23  1  6
 10 24  1  0
 11 25  1  6
 12 26  1  0
 12 27  1  0
 13 28  1  0
M  END
>  <meeko>  (5) 
{"is_sidechain": [false], "free_energy": -4.586, "intermolecular_energy": -5.738, "internal_energy": 0.156}

$$$$
1ps3_ligand
     RDKit          3D

 28 29  0  0  0  0  0  0  0  0999 V2000
   27.4420   62.5550   12.9810 O   0  0  0  0  0  0  0  0  0  0  0  0
   27.5160   63.6040   12.3810 C   0  0  0  0  0  0  0  0  0  0  0  0
   27.0030   64.8290   12.7520 N   0  0  0  0  0  0  0  0  0  0  0  0
   27.5800   65.8650   11.9510 C   0  0  2  0  0  0  0  0  0  0  0  0
   26.6310   67.0250   11.6130 C   0  0  1  0  0  0  0  0  0  0  0  0
   26.3590   67.8020   12.7900 O   0  0  0  0  0  0  0  0  0  0  0  0
   27.2650   67.9370   10.5370 C   0  0  1  0  0  0  0  0  0  0  0  0
   28.3160   68.6950   11.1530 O   0  0  0  0  0  0  0  0  0  0  0  0
   27.7910   67.1460    9.3160 C   0  0  2  0  0  0  0  0  0  0  0  0
   26.6610   66.6810    8.5660 O   0  0  0  0  0  0  0  0  0  0  0  0
   28.6870   65.9430    9.6980 C   0  0  1  0  0  0  0  0  0  0  0  0
   30.1280   66.3460   10.0650 C   0  0  0  0  0  0  0  0  0  0  0  0
   31.0260   65.2380   10.0160 O   0  0  0  0  0  0  0  0  0  0  0  0
   28.0360   65.1910   10.7660 N   0  0  0  0  0  0  0  0  0  0  0  0
   28.2300   63.8510   11.0230 C   0  0  0  0  0  0  0  0  0  0  0  0
   28.8280   63.0440   10.3440 O   0  0  0  0  0  0  0  0  0  0  0  0
   26.6990   64.9710   13.7070 H   0  0  0  0  0  0  0  0  0  0  0  0
   28.3863   66.3666   12.5063 H   0  0  0  0  0  0  0  0  0  0  0  0
   25.6908   66.6037   11.2276 H   0  0  0  0  0  0  0  0  0  0  0  0
   25.9920   67.1750   13.4460 H   0  0  0  0  0  0  0  0  0  0  0  0
   26.4880   68.6087   10.1431 H   0  0  0  0  0  0  0  0  0  0  0  0
   28.3350   68.4450   12.0970 H   0  0  0  0  0  0  0  0  0  0  0  0
   28.4233   67.8254    8.7255 H   0  0  0  0  0  0  0  0  0  0  0  0
   26.2390   67.4430    8.1260 H   0  0  0  0  0  0  0  0  0  0  0  0
   28.7968   65.3012    8.8114 H   0  0  0  0  0  0  0  0  0  0  0  0
   30.4728   67.1132    9.3562 H   0  0  0  0  0  0  0  0  0  0  0  0
   30.1196   66.7289   11.0962 H   0  0  0  0  0  0  0  0  0  0  0  0
   31.0650   64.8110   10.8950 H   0  0  0  0  0  0  0  0  0  0  0  0
  1  2  2  0
  2  3  1  0
  3  4  1  0
  4  5  1  0
  5  6  1  0
  5  7  1  0
  7  8  1  0
  7  9  1  0
  9 10  1  0
  9 11  1  0
 11 12  1  0
 12 13  1  0
 11 14  1  0
 14 15  1  0
 15 16  2  0
 15  2  1  0
 14  4  1  0
  3 17  1  0
  4 18  1  1
  5 19  1  6
  6 20  1  0
  7 21  1  6
  8 22  1  0
  9 23  1  6
 10 24  1  0
 11 25  1  6
 12 26  1  0
 12 27  1  0
 13 28  1  0
M  END
>  <meeko>  (6) 
{"is_sidechain": [false], "free_energy": -4.303, "intermolecular_energy": -5.072, "internal_energy": -0.177}

$$$$
1ps3_ligand
     RDKit          3D

 28 29  0  0  0  0  0  0  0  0999 V2000
   28.0990   70.1600   12.6390 O   0  0  0  0  0  0  0  0  0  0  0  0
   28.2110   69.1380   12.0010 C   0  0  0  0  0  0  0  0  0  0  0  0
   27.4200   68.6990   10.9600 N   0  0  0  0  0  0  0  0  0  0  0  0
   28.0700   67.6270   10.2680 C   0  0  2  0  0  0  0  0  0  0  0  0
   27.1270   66.5400    9.7300 C   0  0  1  0  0  0  0  0  0  0  0  0
   26.3540   67.0530    8.6330 O   0  0  0  0  0  0  0  0  0  0  0  0
   27.9420   65.3170    9.2490 C   0  0  1  0  0  0  0  0  0  0  0  0
   28.5910   65.6650    8.0170 O   0  0  0  0  0  0  0  0  0  0  0  0
   28.9690   64.8310   10.3000 C   0  0  2  0  0  0  0  0  0  0  0  0
   28.2480   64.2030   11.3690 O   0  0  0  0  0  0  0  0  0  0  0  0
   29.8540   65.9650   10.8710 C   0  0  1  0  0  0  0  0  0  0  0  0
   31.0030   66.3760    9.9310 C   0  0  0  0  0  0  0  0  0  0  0  0
   31.9170   65.3060    9.6970 O   0  0  0  0  0  0  0  0  0  0  0  0
   29.0010   67.0950   11.2250 N   0  0  0  0  0  0  0  0  0  0  0  0
   29.2990   68.0420   12.1810 C   0  0  0  0  0  0  0  0  0  0  0  0
   30.2090   68.0290   12.9810 O   0  0  0  0  0  0  0  0  0  0  0  0
   26.7910   69.3500   10.5060 H   0  0  0  0  0  0  0  0  0  0  0  0
   28.5508   68.0038    9.3532 H   0  0  0  0  0  0  0  0  0  0  0  0
   26.4513   66.2332   10.5420 H   0  0  0  0  0  0  0  0  0  0  0  0
   26.2770   66.3160    7.9940 H   0  0  0  0  0  0  0  0  0  0  0  0
   27.2522   64.4742    9.0946 H   0  0  0  0  0  0  0  0  0  0  0  0
   29.3210   65.0290    7.8880 H   0  0  0  0  0  0  0  0  0  0  0  0
   29.6531   64.1303    9.7991 H   0  0  0  0  0  0  0  0  0  0  0  0
   28.6140   64.5110   12.2200 H   0  0  0  0  0  0  0  0  0  0  0  0
   30.3568   65.5872   11.7735 H   0  0  0  0  0  0  0  0  0  0  0  0
   30.5764   66.6944    8.9684 H   0  0  0  0  0  0  0  0  0  0  0  0
   31.5576   67.1943   10.4135 H   0  0  0  0  0  0  0  0  0  0  0  0
   32.6220   65.3250   10.3740 H   0  0  0  0  0  0  0  0  0  0  0  0
  1  2  2  0
  2  3  1  0
  3  4  1  0
  4  5  1  0
  5  6  1  0
  5  7  1  0
  7  8  1  0
  7  9  1  0
  9 10  1  0
  9 11  1  0
 11 12  1  0
 12 13  1  0
 11 14  1  0
 14 15  1  0
 15 16  2  0
 15  2  1  0
 14  4  1  0
  3 17  1  0
  4 18  1  6
  5 19  1  1
  6 20  1  0
  7 21  1  6
  8 22  1  0
  9 23  1  6
 10 24  1  0
 11 25  1  1
 12 26  1  0
 12 27  1  0
 13 28  1  0
M  END
>  <meeko>  (7) 
{"is_sidechain": [false], "free_energy": -4.097, "intermolecular_energy": -4.93, "internal_energy": -0.077}

$$$$
1ps3_ligand
     RDKit          3D

 28 29  0  0  0  0  0  0  0  0999 V2000
   28.1790   66.9820    5.7440 O   0  0  0  0  0  0  0  0  0  0  0  0
   28.4140   66.7340    6.9050 C   0  0  0  0  0  0  0  0  0  0  0  0
   27.5850   66.1250    7.8240 N   0  0  0  0  0  0  0  0  0  0  0  0
   28.3400   65.7230    8.9730 C   0  0  2  0  0  0  0  0  0  0  0  0
   27.5890   65.8330   10.3090 C   0  0  1  0  0  0  0  0  0  0  0  0
   26.5580   64.8360   10.3820 O   0  0  0  0  0  0  0  0  0  0  0  0
   28.5690   65.6360   11.4890 C   0  0  1  0  0  0  0  0  0  0  0  0
   28.9200   64.2460   11.5550 O   0  0  0  0  0  0  0  0  0  0  0  0
   29.8320   66.5220   11.3730 C   0  0  2  0  0  0  0  0  0  0  0  0
   29.4480   67.8800   11.6350 O   0  0  0  0  0  0  0  0  0  0  0  0
   30.5220   66.4400    9.9900 C   0  0  1  0  0  0  0  0  0  0  0  0
   31.3850   65.1770    9.8120 C   0  0  0  0  0  0  0  0  0  0  0  0
   32.7680   65.4890    9.6510 O   0  0  0  0  0  0  0  0  0  0  0  0
   29.5060   66.5630    8.9490 N   0  0  0  0  0  0  0  0  0  0  0  0
   29.7330   67.0300    7.6730 C   0  0  0  0  0  0  0  0  0  0  0  0
   30.7380   67.5510    7.2410 O   0  0  0  0  0  0  0  0  0  0  0  0
   26.7630   65.6320    7.5010 H   0  0  0  0  0  0  0  0  0  0  0  0
   28.5744   64.6498    8.9150 H   0  0  0  0  0  0  0  0  0  0  0  0
   27.1359   66.8334   10.3713 H   0  0  0  0  0  0  0  0  0  0  0  0
   26.9180   64.1190   10.9430 H   0  0  0  0  0  0  0  0  0  0  0  0
   28.0686   65.9505   12.4167 H   0  0  0  0  0  0  0  0  0  0  0  0
   28.6460   63.8400   10.7100 H   0  0  0  0  0  0  0  0  0  0  0  0
   30.5660   66.1534   12.1047 H   0  0  0  0  0  0  0  0  0  0  0  0
   30.2170   68.4600   11.4800 H   0  0  0  0  0  0  0  0  0  0  0  0
   31.2332   67.2754    9.9106 H   0  0  0  0  0  0  0  0  0  0  0  0
   31.2666   64.5387   10.7000 H   0  0  0  0  0  0  0  0  0  0  0  0
   31.0463   64.6615    8.9012 H   0  0  0  0  0  0  0  0  0  0  0  0
   33.1150   65.0350    8.8570 H   0  0  0  0  0  0  0  0  0  0  0  0
  1  2  2  0
  2  3  1  0
  3  4  1  0
  4  5  1  0
  5  6  1  0
  5  7  1  0
  7  8  1  0
  7  9  1  0
  9 10  1  0
  9 11  1  0
 11 12  1  0
 12 13  1  0
 11 14  1  0
 14 15  1  0
 15 16  2  0
 15  2  1  0
 14  4  1  0
  3 17  1  0
  4 18  1  6
  5 19  1  1
  6 20  1  0
  7 21  1  1
  8 22  1  0
  9 23  1  1
 10 24  1  0
 11 25  1  1
 12 26  1  0
 12 27  1  0
 13 28  1  0
M  END
>  <meeko>  (8) 
{"is_sidechain": [false], "free_energy": -4.095, "intermolecular_energy": -4.928, "internal_energy": -0.077}

$$$$
1ps3_ligand
     RDKit          3D

 28 29  0  0  0  0  0  0  0  0999 V2000
   26.3520   69.2630   12.9820 O   0  0  0  0  0  0  0  0  0  0  0  0
   26.8100   68.2680   12.4680 C   0  0  0  0  0  0  0  0  0  0  0  0
   26.6640   66.9600   12.8810 N   0  0  0  0  0  0  0  0  0  0  0  0
   27.0730   66.0680   11.8370 C   0  0  2  0  0  0  0  0  0  0  0  0
   27.7590   64.7810   12.3200 C   0  0  1  0  0  0  0  0  0  0  0  0
   26.8040   63.9210   12.9620 O   0  0  0  0  0  0  0  0  0  0  0  0
   28.3900   64.0330   11.1230 C   0  0  1  0  0  0  0  0  0  0  0  0
   27.3340   63.4370   10.3560 O   0  0  0  0  0  0  0  0  0  0  0  0
   29.2690   64.9510   10.2390 C   0  0  2  0  0  0  0  0  0  0  0  0
   30.4690   65.2500   10.9650 O   0  0  0  0  0  0  0  0  0  0  0  0
   28.5700   66.2700    9.8310 C   0  0  1  0  0  0  0  0  0  0  0  0
   27.5720   66.0990    8.6710 C   0  0  0  0  0  0  0  0  0  0  0  0
   28.2200   66.0920    7.3990 O   0  0  0  0  0  0  0  0  0  0  0  0
   27.9460   66.8570   11.0120 N   0  0  0  0  0  0  0  0  0  0  0  0
   27.6840   68.1990   11.1840 C   0  0  0  0  0  0  0  0  0  0  0  0
   28.0470   69.1220   10.4880 O   0  0  0  0  0  0  0  0  0  0  0  0
   25.9470   66.7300   13.5570 H   0  0  0  0  0  0  0  0  0  0  0  0
   26.1926   65.6855   11.2998 H   0  0  0  0  0  0  0  0  0  0  0  0
   28.5459   65.0549   13.0381 H   0  0  0  0  0  0  0  0  0  0  0  0
   26.5580   64.3710   13.7960 H   0  0  0  0  0  0  0  0  0  0  0  0
   29.0661   63.2572   11.5117 H   0  0  0  0  0  0  0  0  0  0  0  0
   26.5020   63.8710   10.6270 H   0  0  0  0  0  0  0  0  0  0  0  0
   29.4791   64.4127    9.3030 H   0  0  0  0  0  0  0  0  0  0  0  0
   30.3490   66.0950   11.4390 H   0  0  0  0  0  0  0  0  0  0  0  0
   29.3345   66.9572    9.4394 H   0  0  0  0  0  0  0  0  0  0  0  0
   27.0371   65.1467    8.8013 H   0  0  0  0  0  0  0  0  0  0  0  0
   26.8794   66.9533    8.6926 H   0  0  0  0  0  0  0  0  0  0  0  0
   27.6090   65.7370    6.7230 H   0  0  0  0  0  0  0  0  0  0  0  0
  1  2  2  0
  2  3  1  0
  3  4  1  0
  4  5  1  0
  5  6  1  0
  5  7  1  0
  7  8  1  0
  7  9  1  0
  9 10  1  0
  9 11  1  0
 11 12  1  0
 12 13  1  0
 11 14  1  0
 14 15  1  0
 15 16  2  0
 15  2  1  0
 14  4  1  0
  3 17  1  0
  4 18  1  6
  5 19  1  1
  6 20  1  0
  7 21  1  1
  8 22  1  0
  9 23  1  6
 10 24  1  0
 11 25  1  6
 12 26  1  0
 12 27  1  0
 13 28  1  0
M  END
>  <meeko>  (9) 
{"is_sidechain": [false], "free_energy": -2.741, "intermolecular_energy": -3.363, "internal_energy": -0.05}

$$$$
