4ih7_ligand
     RDKit          3D

 34 35  0  0  0  0  0  0  0  0999 V2000
   -5.1170    9.5620   11.5530 C   0  0  0  0  0  0  0  0  0  0  0  0
   -6.2190   10.6350   11.4200 C   0  0  0  0  0  0  0  0  0  0  0  0
   -6.6110   11.0650   12.8520 C   0  0  0  0  0  0  0  0  0  0  0  0
   -5.6350   11.8780   10.7150 C   0  0  0  0  0  0  0  0  0  0  0  0
   -7.3900   10.0730   10.5930 C   0  0  0  0  0  0  0  0  0  0  0  0
   -7.3690   10.1620    9.1880 C   0  0  0  0  0  0  0  0  0  0  0  0
   -8.4200    9.6750    8.4120 C   0  0  0  0  0  0  0  0  0  0  0  0
   -9.5210    9.0790    9.0220 C   0  0  0  0  0  0  0  0  0  0  0  0
   -9.5790    8.9630   10.4160 C   0  0  0  0  0  0  0  0  0  0  0  0
  -10.7370    8.3250   11.0720 C   0  0  0  0  0  0  0  0  0  0  0  0
  -11.4990    9.0170   11.9440 C   0  0  0  0  0  0  0  0  0  0  0  0
  -12.6450    8.4250   12.5920 C   0  0  0  0  0  0  0  0  0  0  0  0
  -12.9820    7.1600   12.3250 C   0  0  0  0  0  0  0  0  0  0  0  0
  -12.2420    6.4260   11.4380 N   0  0  0  0  0  0  0  0  0  0  0  0
  -11.1330    6.9000   10.7720 C   0  0  0  0  0  0  0  0  0  0  0  0
  -10.5190    6.1860    9.9850 O   0  0  0  0  0  0  0  0  0  0  0  0
   -8.5140    9.4650   11.1840 C   0  0  0  0  0  0  0  0  0  0  0  0
   -4.9193    9.3695   12.6178 H   0  0  0  0  0  0  0  0  0  0  0  0
   -5.4498    8.6325   11.0680 H   0  0  0  0  0  0  0  0  0  0  0  0
   -4.1967    9.9195   11.0680 H   0  0  0  0  0  0  0  0  0  0  0  0
   -6.0567   10.4570   13.5821 H   0  0  0  0  0  0  0  0  0  0  0  0
   -6.3639   12.1271   12.9965 H   0  0  0  0  0  0  0  0  0  0  0  0
   -7.6914   10.9169   12.9965 H   0  0  0  0  0  0  0  0  0  0  0  0
   -5.2949   12.6019   11.4702 H   0  0  0  0  0  0  0  0  0  0  0  0
   -4.7841   11.5770   10.0862 H   0  0  0  0  0  0  0  0  0  0  0  0
   -6.4099   12.3408   10.0862 H   0  0  0  0  0  0  0  0  0  0  0  0
   -6.5041   10.6261    8.6915 H   0  0  0  0  0  0  0  0  0  0  0  0
   -8.3795    9.7617    7.3162 H   0  0  0  0  0  0  0  0  0  0  0  0
  -10.3487    8.6977    8.4059 H   0  0  0  0  0  0  0  0  0  0  0  0
  -11.2396   10.0623   12.1676 H   0  0  0  0  0  0  0  0  0  0  0  0
  -13.2402    9.0147   13.3048 H   0  0  0  0  0  0  0  0  0  0  0  0
  -13.8550    6.7080   12.8185 H   0  0  0  0  0  0  0  0  0  0  0  0
  -12.4940    5.4670   11.2300 H   0  0  0  0  0  0  0  0  0  0  0  0
   -8.5602    9.3802   12.2798 H   0  0  0  0  0  0  0  0  0  0  0  0
  1  2  1  0
  2  3  1  0
  2  4  1  0
  2  5  1  0
  5  6  2  0
  6  7  1  0
  7  8  2  0
  8  9  1  0
  9 10  1  0
 10 11  2  0
 11 12  1  0
 12 13  2  0
 13 14  1  0
 14 15  1  0
 15 16  2  0
  9 17  2  0
 17  5  1  0
 15 10  1  0
  1 18  1  0
  1 19  1  0
  1 20  1  0
  3 21  1  0
  3 22  1  0
  3 23  1  0
  4 24  1  0
  4 25  1  0
  4 26  1  0
  6 27  1  0
  7 28  1  0
  8 29  1  0
 11 30  1  0
 12 31  1  0
 13 32  1  0
 14 33  1  0
 17 34  1  0
M  END
>  <meeko>  (1) 
{"is_sidechain": [false], "free_energy": -7.952, "intermolecular_energy": -8.881, "internal_energy": -0.425}

$$$$
4ih7_ligand
     RDKit          3D

 34 35  0  0  0  0  0  0  0  0999 V2000
   -5.8930   11.7690   11.4230 C   0  0  0  0  0  0  0  0  0  0  0  0
   -6.4740   10.4030   11.8470 C   0  0  0  0  0  0  0  0  0  0  0  0
   -5.3100    9.3860   11.8260 C   0  0  0  0  0  0  0  0  0  0  0  0
   -6.9720   10.4940   13.3060 C   0  0  0  0  0  0  0  0  0  0  0  0
   -7.6470   10.0310   10.9220 C   0  0  0  0  0  0  0  0  0  0  0  0
   -7.4770   10.0490    9.5250 C   0  0  0  0  0  0  0  0  0  0  0  0
   -8.5240    9.7300    8.6600 C   0  0  0  0  0  0  0  0  0  0  0  0
   -9.7700    9.3760    9.1720 C   0  0  0  0  0  0  0  0  0  0  0  0
   -9.9800    9.3380   10.5550 C   0  0  0  0  0  0  0  0  0  0  0  0
  -11.2940    8.9550   11.1080 C   0  0  0  0  0  0  0  0  0  0  0  0
  -11.5460    7.6750   11.4520 C   0  0  0  0  0  0  0  0  0  0  0  0
  -12.8170    7.2710   12.0070 C   0  0  0  0  0  0  0  0  0  0  0  0
  -13.7770    8.1800   12.2010 C   0  0  0  0  0  0  0  0  0  0  0  0
  -13.5580    9.4910   11.8760 N   0  0  0  0  0  0  0  0  0  0  0  0
  -12.3840    9.9720   11.3400 C   0  0  0  0  0  0  0  0  0  0  0  0
  -12.2550   11.1640   11.0770 O   0  0  0  0  0  0  0  0  0  0  0  0
   -8.9160    9.6690   11.4130 C   0  0  0  0  0  0  0  0  0  0  0  0
   -5.6435   12.3555   12.3195 H   0  0  0  0  0  0  0  0  0  0  0  0
   -4.9843   11.6109   10.8237 H   0  0  0  0  0  0  0  0  0  0  0  0
   -6.6372   12.3139   10.8237 H   0  0  0  0  0  0  0  0  0  0  0  0
   -5.0233    9.1355   12.8580 H   0  0  0  0  0  0  0  0  0  0  0  0
   -5.6301    8.4731   11.3025 H   0  0  0  0  0  0  0  0  0  0  0  0
   -4.4483    9.8258   11.3025 H   0  0  0  0  0  0  0  0  0  0  0  0
   -6.1264   10.3395   13.9924 H   0  0  0  0  0  0  0  0  0  0  0  0
   -7.4107   11.4872   13.4824 H   0  0  0  0  0  0  0  0  0  0  0  0
   -7.7336    9.7202   13.4824 H   0  0  0  0  0  0  0  0  0  0  0  0
   -6.4969   10.3206    9.1059 H   0  0  0  0  0  0  0  0  0  0  0  0
   -8.3653    9.7581    7.5719 H   0  0  0  0  0  0  0  0  0  0  0  0
  -10.5926    9.1252    8.4862 H   0  0  0  0  0  0  0  0  0  0  0  0
  -10.7616    6.9178   11.3057 H   0  0  0  0  0  0  0  0  0  0  0  0
  -12.9942    6.2175   12.2693 H   0  0  0  0  0  0  0  0  0  0  0  0
  -14.7456    7.8737   12.6229 H   0  0  0  0  0  0  0  0  0  0  0  0
  -14.2820   10.1830   12.0230 H   0  0  0  0  0  0  0  0  0  0  0  0
   -9.0801    9.6443   12.5004 H   0  0  0  0  0  0  0  0  0  0  0  0
  1  2  1  0
  2  3  1  0
  2  4  1  0
  2  5  1  0
  5  6  2  0
  6  7  1  0
  7  8  2  0
  8  9  1  0
  9 10  1  0
 10 11  2  0
 11 12  1  0
 12 13  2  0
 13 14  1  0
 14 15  1  0
 15 16  2  0
  9 17  2  0
 17  5  1  0
 15 10  1  0
  1 18  1  0
  1 19  1  0
  1 20  1  0
  3 21  1  0
  3 22  1  0
  3 23  1  0
  4 24  1  0
  4 25  1  0
  4 26  1  0
  6 27  1  0
  7 28  1  0
  8 29  1  0
 11 30  1  0
 12 31  1  0
 13 32  1  0
 14 33  1  0
 17 34  1  0
M  END
>  <meeko>  (2) 
{"is_sidechain": [false], "free_energy": -7.485, "intermolecular_energy": -8.203, "internal_energy": -0.582}

$$$$
4ih7_ligand
     RDKit          3D

 34 35  0  0  0  0  0  0  0  0999 V2000
   -5.8770   11.4180   10.9210 C   0  0  0  0  0  0  0  0  0  0  0  0
   -6.3910   10.2700   11.8140 C   0  0  0  0  0  0  0  0  0  0  0  0
   -5.3270    9.1490   11.7720 C   0  0  0  0  0  0  0  0  0  0  0  0
   -6.4760   10.7610   13.2760 C   0  0  0  0  0  0  0  0  0  0  0  0
   -7.7850    9.8260   11.3360 C   0  0  0  0  0  0  0  0  0  0  0  0
   -8.8580    9.7640   12.2450 C   0  0  0  0  0  0  0  0  0  0  0  0
  -10.1290    9.3530   11.8450 C   0  0  0  0  0  0  0  0  0  0  0  0
  -10.3640    8.9970   10.5200 C   0  0  0  0  0  0  0  0  0  0  0  0
   -9.3270    9.0520    9.5810 C   0  0  0  0  0  0  0  0  0  0  0  0
   -9.5670    8.6860    8.1710 C   0  0  0  0  0  0  0  0  0  0  0  0
   -8.9980    9.3930    7.1730 C   0  0  0  0  0  0  0  0  0  0  0  0
   -9.2040    9.0540    5.7840 C   0  0  0  0  0  0  0  0  0  0  0  0
   -9.9680    8.0060    5.4610 C   0  0  0  0  0  0  0  0  0  0  0  0
  -10.5550    7.2560    6.4440 N   0  0  0  0  0  0  0  0  0  0  0  0
  -10.4210    7.5010    7.7930 C   0  0  0  0  0  0  0  0  0  0  0  0
  -10.9730    6.7820    8.6200 O   0  0  0  0  0  0  0  0  0  0  0  0
   -8.0500    9.4620   10.0010 C   0  0  0  0  0  0  0  0  0  0  0  0
   -5.5095   12.2388   11.5544 H   0  0  0  0  0  0  0  0  0  0  0  0
   -5.0578   11.0499   10.2859 H   0  0  0  0  0  0  0  0  0  0  0  0
   -6.6972   11.7839   10.2859 H   0  0  0  0  0  0  0  0  0  0  0  0
   -5.0553    8.8627   12.7987 H   0  0  0  0  0  0  0  0  0  0  0  0
   -5.7358    8.2751   11.2437 H   0  0  0  0  0  0  0  0  0  0  0  0
   -4.4329    9.5117   11.2437 H   0  0  0  0  0  0  0  0  0  0  0  0
   -6.3287    9.9103   13.9576 H   0  0  0  0  0  0  0  0  0  0  0  0
   -5.6949   11.5144   13.4558 H   0  0  0  0  0  0  0  0  0  0  0  0
   -7.4649   11.2080   13.4558 H   0  0  0  0  0  0  0  0  0  0  0  0
   -8.6900   10.0462   13.2948 H   0  0  0  0  0  0  0  0  0  0  0  0
  -10.9478    9.3100   12.5782 H   0  0  0  0  0  0  0  0  0  0  0  0
  -11.3678    8.6714   10.2097 H   0  0  0  0  0  0  0  0  0  0  0  0
   -8.3588   10.2523    7.4241 H   0  0  0  0  0  0  0  0  0  0  0  0
   -8.7331    9.6571    4.9938 H   0  0  0  0  0  0  0  0  0  0  0  0
  -10.1252    7.7459    4.4038 H   0  0  0  0  0  0  0  0  0  0  0  0
  -11.1330    6.4600    6.2040 H   0  0  0  0  0  0  0  0  0  0  0  0
   -7.2330    9.4998    9.2654 H   0  0  0  0  0  0  0  0  0  0  0  0
  1  2  1  0
  2  3  1  0
  2  4  1  0
  2  5  1  0
  5  6  2  0
  6  7  1  0
  7  8  2  0
  8  9  1  0
  9 10  1  0
 10 11  2  0
 11 12  1  0
 12 13  2  0
 13 14  1  0
 14 15  1  0
 15 16  2  0
  9 17  2  0
 17  5  1  0
 15 10  1  0
  1 18  1  0
  1 19  1  0
  1 20  1  0
  3 21  1  0
  3 22  1  0
  3 23  1  0
  4 24  1  0
  4 25  1  0
  4 26  1  0
  6 27  1  0
  7 28  1  0
  8 29  1  0
 11 30  1  0
 12 31  1  0
 13 32  1  0
 14 33  1  0
 17 34  1  0
M  END
>  <meeko>  (3) 
{"is_sidechain": [false], "free_energy": -6.924, "intermolecular_energy": -7.93, "internal_energy": -0.228}

$$$$
4ih7_ligand
     RDKit          3D

 34 35  0  0  0  0  0  0  0  0999 V2000
  -13.8870    7.3510   10.4890 C   0  0  0  0  0  0  0  0  0  0  0  0
  -13.0850    8.3680   11.3290 C   0  0  0  0  0  0  0  0  0  0  0  0
  -13.8690    9.7000   11.3020 C   0  0  0  0  0  0  0  0  0  0  0  0
  -13.0440    7.8940   12.7980 C   0  0  0  0  0  0  0  0  0  0  0  0
  -11.6510    8.4750   10.7790 C   0  0  0  0  0  0  0  0  0  0  0  0
  -11.3130    7.8520    9.5630 C   0  0  0  0  0  0  0  0  0  0  0  0
  -10.0190    7.9200    9.0450 C   0  0  0  0  0  0  0  0  0  0  0  0
   -9.0290    8.6200    9.7290 C   0  0  0  0  0  0  0  0  0  0  0  0
   -9.3250    9.2610   10.9380 C   0  0  0  0  0  0  0  0  0  0  0  0
   -8.2850   10.0140   11.6660 C   0  0  0  0  0  0  0  0  0  0  0  0
   -7.9100    9.6410   12.9070 C   0  0  0  0  0  0  0  0  0  0  0  0
   -6.8860   10.3490   13.6400 C   0  0  0  0  0  0  0  0  0  0  0  0
   -6.2760   11.4000   13.0840 C   0  0  0  0  0  0  0  0  0  0  0  0
   -6.6190   11.8040   11.8230 N   0  0  0  0  0  0  0  0  0  0  0  0
   -7.5810   11.1970   11.0470 C   0  0  0  0  0  0  0  0  0  0  0  0
   -7.8340   11.6120    9.9190 O   0  0  0  0  0  0  0  0  0  0  0  0
  -10.6320    9.1780   11.4500 C   0  0  0  0  0  0  0  0  0  0  0  0
  -14.4269    6.6663   11.1596 H   0  0  0  0  0  0  0  0  0  0  0  0
  -14.6080    7.8871    9.8544 H   0  0  0  0  0  0  0  0  0  0  0  0
  -13.1975    6.7748    9.8544 H   0  0  0  0  0  0  0  0  0  0  0  0
  -14.0641   10.0316   12.3325 H   0  0  0  0  0  0  0  0  0  0  0  0
  -13.2763   10.4637   10.7771 H   0  0  0  0  0  0  0  0  0  0  0  0
  -14.8244    9.5526   10.7771 H   0  0  0  0  0  0  0  0  0  0  0  0
  -13.1193    8.7644   13.4664 H   0  0  0  0  0  0  0  0  0  0  0  0
  -13.8866    7.2126   12.9871 H   0  0  0  0  0  0  0  0  0  0  0  0
  -12.0969    7.3674   12.9871 H   0  0  0  0  0  0  0  0  0  0  0  0
  -12.0859    7.2993    9.0088 H   0  0  0  0  0  0  0  0  0  0  0  0
   -9.7809    7.4197    8.0947 H   0  0  0  0  0  0  0  0  0  0  0  0
   -8.0099    8.6697    9.3179 H   0  0  0  0  0  0  0  0  0  0  0  0
   -8.3979    8.7729   13.3742 H   0  0  0  0  0  0  0  0  0  0  0  0
   -6.6090   10.0237   14.6536 H   0  0  0  0  0  0  0  0  0  0  0  0
   -5.4970   11.9410   13.6412 H   0  0  0  0  0  0  0  0  0  0  0  0
   -6.1580   12.5990   11.3970 H   0  0  0  0  0  0  0  0  0  0  0  0
  -10.8652    9.6767   12.4023 H   0  0  0  0  0  0  0  0  0  0  0  0
  1  2  1  0
  2  3  1  0
  2  4  1  0
  2  5  1  0
  5  6  2  0
  6  7  1  0
  7  8  2  0
  8  9  1  0
  9 10  1  0
 10 11  2  0
 11 12  1  0
 12 13  2  0
 13 14  1  0
 14 15  1  0
 15 16  2  0
  9 17  2  0
 17  5  1  0
 15 10  1  0
  1 18  1  0
  1 19  1  0
  1 20  1  0
  3 21  1  0
  3 22  1  0
  3 23  1  0
  4 24  1  0
  4 25  1  0
  4 26  1  0
  6 27  1  0
  7 28  1  0
  8 29  1  0
 11 30  1  0
 12 31  1  0
 13 32  1  0
 14 33  1  0
 17 34  1  0
M  END
>  <meeko>  (4) 
{"is_sidechain": [false], "free_energy": -6.761, "intermolecular_energy": -7.536, "internal_energy": -0.441}

$$$$
4ih7_ligand
     RDKit          3D

 34 35  0  0  0  0  0  0  0  0999 V2000
   -7.9410    8.9690    6.4380 C   0  0  0  0  0  0  0  0  0  0  0  0
   -9.4470    8.7830    6.7230 C   0  0  0  0  0  0  0  0  0  0  0  0
  -10.1920    9.9300    6.0020 C   0  0  0  0  0  0  0  0  0  0  0  0
   -9.9250    7.4600    6.0870 C   0  0  0  0  0  0  0  0  0  0  0  0
   -9.6840    8.7420    8.2440 C   0  0  0  0  0  0  0  0  0  0  0  0
  -10.7970    8.0560    8.7660 C   0  0  0  0  0  0  0  0  0  0  0  0
  -11.0470    8.0120   10.1370 C   0  0  0  0  0  0  0  0  0  0  0  0
  -10.1840    8.6490   11.0260 C   0  0  0  0  0  0  0  0  0  0  0  0
   -9.0610    9.3350   10.5490 C   0  0  0  0  0  0  0  0  0  0  0  0
   -8.1350   10.0050   11.4830 C   0  0  0  0  0  0  0  0  0  0  0  0
   -7.9050    9.4900   12.7080 C   0  0  0  0  0  0  0  0  0  0  0  0
   -6.9960   10.1150   13.6400 C   0  0  0  0  0  0  0  0  0  0  0  0
   -6.3470   11.2300   13.2910 C   0  0  0  0  0  0  0  0  0  0  0  0
   -6.5430   11.7780   12.0530 N   0  0  0  0  0  0  0  0  0  0  0  0
   -7.3900   11.2600   11.0980 C   0  0  0  0  0  0  0  0  0  0  0  0
   -7.5130   11.8040   10.0040 O   0  0  0  0  0  0  0  0  0  0  0  0
   -8.8270    9.3760    9.1630 C   0  0  0  0  0  0  0  0  0  0  0  0
   -7.3934    9.0366    7.3896 H   0  0  0  0  0  0  0  0  0  0  0  0
   -7.5683    8.1101    5.8607 H   0  0  0  0  0  0  0  0  0  0  0  0
   -7.7884    9.8928    5.8607 H   0  0  0  0  0  0  0  0  0  0  0  0
  -10.6321   10.6076    6.7484 H   0  0  0  0  0  0  0  0  0  0  0  0
   -9.4838   10.4885    5.3723 H   0  0  0  0  0  0  0  0  0  0  0  0
  -10.9902    9.5100    5.3723 H   0  0  0  0  0  0  0  0  0  0  0  0
  -10.1837    6.7439    6.8809 H   0  0  0  0  0  0  0  0  0  0  0  0
  -10.8106    7.6519    5.4634 H   0  0  0  0  0  0  0  0  0  0  0  0
   -9.1212    7.0415    5.4634 H   0  0  0  0  0  0  0  0  0  0  0  0
  -11.4845    7.5434    8.0771 H   0  0  0  0  0  0  0  0  0  0  0  0
  -11.9274    7.4733   10.5174 H   0  0  0  0  0  0  0  0  0  0  0  0
  -10.3859    8.6127   12.1067 H   0  0  0  0  0  0  0  0  0  0  0  0
   -8.4247    8.5674   13.0058 H   0  0  0  0  0  0  0  0  0  0  0  0
   -6.8381    9.6742   14.6353 H   0  0  0  0  0  0  0  0  0  0  0  0
   -5.6546   11.7075   13.9999 H   0  0  0  0  0  0  0  0  0  0  0  0
   -6.0520   12.6220   11.7830 H   0  0  0  0  0  0  0  0  0  0  0  0
   -7.9482    9.9196    8.7859 H   0  0  0  0  0  0  0  0  0  0  0  0
  1  2  1  0
  2  3  1  0
  2  4  1  0
  2  5  1  0
  5  6  2  0
  6  7  1  0
  7  8  2  0
  8  9  1  0
  9 10  1  0
 10 11  2  0
 11 12  1  0
 12 13  2  0
 13 14  1  0
 14 15  1  0
 15 16  2  0
  9 17  2  0
 17  5  1  0
 15 10  1  0
  1 18  1  0
  1 19  1  0
  1 20  1  0
  3 21  1  0
  3 22  1  0
  3 23  1  0
  4 24  1  0
  4 25  1  0
  4 26  1  0
  6 27  1  0
  7 28  1  0
  8 29  1  0
 11 30  1  0
 12 31  1  0
 13 32  1  0
 14 33  1  0
 17 34  1  0
M  END
>  <meeko>  (5) 
{"is_sidechain": [false], "free_energy": -6.686, "intermolecular_energy": -7.777, "internal_energy": -0.115}

$$$$
4ih7_ligand
     RDKit          3D

 34 35  0  0  0  0  0  0  0  0999 V2000
   -5.3220    9.4180   11.5990 C   0  0  0  0  0  0  0  0  0  0  0  0
   -6.0250   10.2350   10.4930 C   0  0  0  0  0  0  0  0  0  0  0  0
   -5.7680   11.7290   10.7970 C   0  0  0  0  0  0  0  0  0  0  0  0
   -5.3620    9.9260    9.1340 C   0  0  0  0  0  0  0  0  0  0  0  0
   -7.5160    9.8560   10.4390 C   0  0  0  0  0  0  0  0  0  0  0  0
   -8.2730    9.7980   11.6250 C   0  0  0  0  0  0  0  0  0  0  0  0
   -9.6230    9.4450   11.6110 C   0  0  0  0  0  0  0  0  0  0  0  0
  -10.2540    9.1450   10.4060 C   0  0  0  0  0  0  0  0  0  0  0  0
   -9.5400    9.1980    9.2030 C   0  0  0  0  0  0  0  0  0  0  0  0
  -10.2020    8.8920    7.9200 C   0  0  0  0  0  0  0  0  0  0  0  0
  -10.5210    7.6210    7.5990 C   0  0  0  0  0  0  0  0  0  0  0  0
  -11.1800    7.2900    6.3580 C   0  0  0  0  0  0  0  0  0  0  0  0
  -11.5000    8.2590    5.4950 C   0  0  0  0  0  0  0  0  0  0  0  0
  -11.2040    9.5630    5.7870 N   0  0  0  0  0  0  0  0  0  0  0  0
  -10.5760    9.9780    6.9410 C   0  0  0  0  0  0  0  0  0  0  0  0
  -10.3470   11.1670    7.1390 O   0  0  0  0  0  0  0  0  0  0  0  0
   -8.1790    9.5490    9.2350 C   0  0  0  0  0  0  0  0  0  0  0  0
   -5.6395    9.7870   12.5854 H   0  0  0  0  0  0  0  0  0  0  0  0
   -5.5937    8.3567   11.4997 H   0  0  0  0  0  0  0  0  0  0  0  0
   -4.2321    9.5283   11.4997 H   0  0  0  0  0  0  0  0  0  0  0  0
   -5.7416   11.8823   11.8859 H   0  0  0  0  0  0  0  0  0  0  0  0
   -4.8046   12.0315   10.3607 H   0  0  0  0  0  0  0  0  0  0  0  0
   -6.5749   12.3361   10.3607 H   0  0  0  0  0  0  0  0  0  0  0  0
   -4.3768    9.4668    9.3027 H   0  0  0  0  0  0  0  0  0  0  0  0
   -5.9978    9.2314    8.5654 H   0  0  0  0  0  0  0  0  0  0  0  0
   -5.2389   10.8595    8.5654 H   0  0  0  0  0  0  0  0  0  0  0  0
   -7.7894   10.0363   12.5838 H   0  0  0  0  0  0  0  0  0  0  0  0
  -10.1897    9.4036   12.5529 H   0  0  0  0  0  0  0  0  0  0  0  0
  -11.3178    8.8653   10.3996 H   0  0  0  0  0  0  0  0  0  0  0  0
  -10.2717    6.8136    8.3033 H   0  0  0  0  0  0  0  0  0  0  0  0
  -11.4183    6.2421    6.1231 H   0  0  0  0  0  0  0  0  0  0  0  0
  -12.0019    8.0082    4.5488 H   0  0  0  0  0  0  0  0  0  0  0  0
  -11.4460   10.3010    5.1370 H   0  0  0  0  0  0  0  0  0  0  0  0
   -7.6150    9.5849    8.2913 H   0  0  0  0  0  0  0  0  0  0  0  0
  1  2  1  0
  2  3  1  0
  2  4  1  0
  2  5  1  0
  5  6  2  0
  6  7  1  0
  7  8  2  0
  8  9  1  0
  9 10  1  0
 10 11  2  0
 11 12  1  0
 12 13  2  0
 13 14  1  0
 14 15  1  0
 15 16  2  0
  9 17  2  0
 17  5  1  0
 15 10  1  0
  1 18  1  0
  1 19  1  0
  1 20  1  0
  3 21  1  0
  3 22  1  0
  3 23  1  0
  4 24  1  0
  4 25  1  0
  4 26  1  0
  6 27  1  0
  7 28  1  0
  8 29  1  0
 11 30  1  0
 12 31  1  0
 13 32  1  0
 14 33  1  0
 17 34  1  0
M  END
>  <meeko>  (6) 
{"is_sidechain": [false], "free_energy": -6.651, "intermolecular_energy": -7.309, "internal_energy": -0.544}

$$$$
4ih7_ligand
     RDKit          3D

 34 35  0  0  0  0  0  0  0  0999 V2000
   -5.8900   11.6260   10.7370 C   0  0  0  0  0  0  0  0  0  0  0  0
   -6.5690   10.6120   11.6830 C   0  0  0  0  0  0  0  0  0  0  0  0
   -5.6360    9.3830   11.7780 C   0  0  0  0  0  0  0  0  0  0  0  0
   -6.6650   11.2220   13.0980 C   0  0  0  0  0  0  0  0  0  0  0  0
   -7.9810   10.2860   11.1630 C   0  0  0  0  0  0  0  0  0  0  0  0
   -8.8990    9.6110   11.9900 C   0  0  0  0  0  0  0  0  0  0  0  0
  -10.1810    9.2900   11.5440 C   0  0  0  0  0  0  0  0  0  0  0  0
  -10.5820    9.6410   10.2580 C   0  0  0  0  0  0  0  0  0  0  0  0
   -9.7030   10.3200    9.4050 C   0  0  0  0  0  0  0  0  0  0  0  0
  -10.1210   10.7050    8.0430 C   0  0  0  0  0  0  0  0  0  0  0  0
  -11.1060   11.6080    7.8590 C   0  0  0  0  0  0  0  0  0  0  0  0
  -11.5300   12.0160    6.5390 C   0  0  0  0  0  0  0  0  0  0  0  0
  -10.9330   11.5010    5.4600 C   0  0  0  0  0  0  0  0  0  0  0  0
   -9.9220   10.5910    5.6040 N   0  0  0  0  0  0  0  0  0  0  0  0
   -9.4500   10.1390    6.8170 C   0  0  0  0  0  0  0  0  0  0  0  0
   -8.5340    9.3230    6.8710 O   0  0  0  0  0  0  0  0  0  0  0  0
   -8.4120   10.6310    9.8680 C   0  0  0  0  0  0  0  0  0  0  0  0
   -5.3752   12.3947   11.3320 H   0  0  0  0  0  0  0  0  0  0  0  0
   -5.1592   11.1031   10.1025 H   0  0  0  0  0  0  0  0  0  0  0  0
   -6.6518   12.1025   10.1025 H   0  0  0  0  0  0  0  0  0  0  0  0
   -5.4532    9.1423   12.8357 H   0  0  0  0  0  0  0  0  0  0  0  0
   -6.1108    8.5231   11.2830 H   0  0  0  0  0  0  0  0  0  0  0  0
   -4.6801    9.6092   11.2830 H   0  0  0  0  0  0  0  0  0  0  0  0
   -6.5400   10.4279   13.8489 H   0  0  0  0  0  0  0  0  0  0  0  0
   -5.8745   11.9760   13.2267 H   0  0  0  0  0  0  0  0  0  0  0  0
   -7.6489   11.6967   13.2267 H   0  0  0  0  0  0  0  0  0  0  0  0
   -8.5986    9.3306   13.0104 H   0  0  0  0  0  0  0  0  0  0  0  0
  -10.8767    8.7583   12.2099 H   0  0  0  0  0  0  0  0  0  0  0  0
  -11.5935    9.3840    9.9104 H   0  0  0  0  0  0  0  0  0  0  0  0
  -11.6005   12.0462    8.7385 H   0  0  0  0  0  0  0  0  0  0  0  0
  -12.3422   12.7487    6.4227 H   0  0  0  0  0  0  0  0  0  0  0  0
  -11.2551   11.8094    4.4545 H   0  0  0  0  0  0  0  0  0  0  0  0
   -9.4650   10.1990    4.7890 H   0  0  0  0  0  0  0  0  0  0  0  0
   -7.7181   11.1598    9.1981 H   0  0  0  0  0  0  0  0  0  0  0  0
  1  2  1  0
  2  3  1  0
  2  4  1  0
  2  5  1  0
  5  6  2  0
  6  7  1  0
  7  8  2  0
  8  9  1  0
  9 10  1  0
 10 11  2  0
 11 12  1  0
 12 13  2  0
 13 14  1  0
 14 15  1  0
 15 16  2  0
  9 17  2  0
 17  5  1  0
 15 10  1  0
  1 18  1  0
  1 19  1  0
  1 20  1  0
  3 21  1  0
  3 22  1  0
  3 23  1  0
  4 24  1  0
  4 25  1  0
  4 26  1  0
  6 27  1  0
  7 28  1  0
  8 29  1  0
 11 30  1  0
 12 31  1  0
 13 32  1  0
 14 33  1  0
 17 34  1  0
M  END
>  <meeko>  (7) 
{"is_sidechain": [false], "free_energy": -6.565, "intermolecular_energy": -7.289, "internal_energy": -0.468}

$$$$
4ih7_ligand
     RDKit          3D

 34 35  0  0  0  0  0  0  0  0999 V2000
   -9.8070   10.2840    5.9060 C   0  0  0  0  0  0  0  0  0  0  0  0
   -9.0910    9.0280    6.4460 C   0  0  0  0  0  0  0  0  0  0  0  0
   -9.8750    7.7990    5.9310 C   0  0  0  0  0  0  0  0  0  0  0  0
   -7.6730    8.9510    5.8390 C   0  0  0  0  0  0  0  0  0  0  0  0
   -8.9930    9.1090    7.9810 C   0  0  0  0  0  0  0  0  0  0  0  0
   -7.8460    9.6550    8.5870 C   0  0  0  0  0  0  0  0  0  0  0  0
   -7.7210    9.7290    9.9740 C   0  0  0  0  0  0  0  0  0  0  0  0
   -8.7460    9.2630   10.7940 C   0  0  0  0  0  0  0  0  0  0  0  0
   -9.9070    8.7200   10.2320 C   0  0  0  0  0  0  0  0  0  0  0  0
  -11.0040    8.2320   11.0920 C   0  0  0  0  0  0  0  0  0  0  0  0
  -11.6660    9.0800   11.9050 C   0  0  0  0  0  0  0  0  0  0  0  0
  -12.7510    8.6370   12.7490 C   0  0  0  0  0  0  0  0  0  0  0  0
  -13.1290    7.3550   12.7280 C   0  0  0  0  0  0  0  0  0  0  0  0
  -12.4910    6.4650   11.9080 N   0  0  0  0  0  0  0  0  0  0  0  0
  -11.4470    6.7900   11.0710 C   0  0  0  0  0  0  0  0  0  0  0  0
  -10.9240    5.9380   10.3580 O   0  0  0  0  0  0  0  0  0  0  0  0
  -10.0140    8.6460    8.8320 C   0  0  0  0  0  0  0  0  0  0  0  0
  -10.1568   10.8977    6.7492 H   0  0  0  0  0  0  0  0  0  0  0  0
   -9.1070   10.8696    5.2919 H   0  0  0  0  0  0  0  0  0  0  0  0
  -10.6675    9.9800    5.2919 H   0  0  0  0  0  0  0  0  0  0  0  0
  -10.2467    7.2163    6.7867 H   0  0  0  0  0  0  0  0  0  0  0  0
  -10.7252    8.1362    5.3199 H   0  0  0  0  0  0  0  0  0  0  0  0
   -9.2108    7.1701    5.3199 H   0  0  0  0  0  0  0  0  0  0  0  0
   -6.9293    8.9106    6.6485 H   0  0  0  0  0  0  0  0  0  0  0  0
   -7.5885    8.0469    5.2181 H   0  0  0  0  0  0  0  0  0  0  0  0
   -7.4911    9.8406    5.2181 H   0  0  0  0  0  0  0  0  0  0  0  0
   -7.0301   10.0317    7.9526 H   0  0  0  0  0  0  0  0  0  0  0  0
   -6.8113   10.1561   10.4212 H   0  0  0  0  0  0  0  0  0  0  0  0
   -8.6425    9.3220   11.8875 H   0  0  0  0  0  0  0  0  0  0  0  0
  -11.3712   10.1395   11.9260 H   0  0  0  0  0  0  0  0  0  0  0  0
  -13.2650    9.3527   13.4074 H   0  0  0  0  0  0  0  0  0  0  0  0
  -13.9543    7.0152   13.3710 H   0  0  0  0  0  0  0  0  0  0  0  0
  -12.7760    5.4930   11.8870 H   0  0  0  0  0  0  0  0  0  0  0  0
  -10.9229    8.2133    8.3885 H   0  0  0  0  0  0  0  0  0  0  0  0
  1  2  1  0
  2  3  1  0
  2  4  1  0
  2  5  1  0
  5  6  2  0
  6  7  1  0
  7  8  2  0
  8  9  1  0
  9 10  1  0
 10 11  2  0
 11 12  1  0
 12 13  2  0
 13 14  1  0
 14 15  1  0
 15 16  2  0
  9 17  2  0
 17  5  1  0
 15 10  1  0
  1 18  1  0
  1 19  1  0
  1 20  1  0
  3 21  1  0
  3 22  1  0
  3 23  1  0
  4 24  1  0
  4 25  1  0
  4 26  1  0
  6 27  1  0
  7 28  1  0
  8 29  1  0
 11 30  1  0
 12 31  1  0
 13 32  1  0
 14 33  1  0
 17 34  1  0
M  END
>  <meeko>  (8) 
{"is_sidechain": [false], "free_energy": -6.553, "intermolecular_energy": -7.303, "internal_energy": -0.44}

$$$$
4ih7_ligand
     RDKit          3D

 34 35  0  0  0  0  0  0  0  0999 V2000
  -11.5270    6.7830    9.7350 C   0  0  0  0  0  0  0  0  0  0  0  0
  -11.4900    7.8030    8.5780 C   0  0  0  0  0  0  0  0  0  0  0  0
  -11.7870    7.0240    7.2750 C   0  0  0  0  0  0  0  0  0  0  0  0
  -12.6310    8.8270    8.7650 C   0  0  0  0  0  0  0  0  0  0  0  0
  -10.1350    8.5330    8.5740 C   0  0  0  0  0  0  0  0  0  0  0  0
   -9.4250    8.6990    7.3700 C   0  0  0  0  0  0  0  0  0  0  0  0
   -8.1890    9.3440    7.3360 C   0  0  0  0  0  0  0  0  0  0  0  0
   -7.6300    9.8450    8.5090 C   0  0  0  0  0  0  0  0  0  0  0  0
   -8.3060    9.7090    9.7270 C   0  0  0  0  0  0  0  0  0  0  0  0
   -7.7270   10.2460   10.9740 C   0  0  0  0  0  0  0  0  0  0  0  0
   -7.8880    9.5910   12.1430 C   0  0  0  0  0  0  0  0  0  0  0  0
   -7.3240   10.0830   13.3770 C   0  0  0  0  0  0  0  0  0  0  0  0
   -6.6100   11.2130   13.3790 C   0  0  0  0  0  0  0  0  0  0  0  0
   -6.4140   11.9020   12.2130 N   0  0  0  0  0  0  0  0  0  0  0  0
   -6.9120   11.5150   10.9880 C   0  0  0  0  0  0  0  0  0  0  0  0
   -6.6910   12.1810    9.9810 O   0  0  0  0  0  0  0  0  0  0  0  0
   -9.5480    9.0510    9.7450 C   0  0  0  0  0  0  0  0  0  0  0  0
  -11.5076    7.3178   10.6960 H   0  0  0  0  0  0  0  0  0  0  0  0
  -12.4474    6.1845    9.6669 H   0  0  0  0  0  0  0  0  0  0  0  0
  -10.6523    6.1194    9.6669 H   0  0  0  0  0  0  0  0  0  0  0  0
  -12.1686    6.0231    7.5251 H   0  0  0  0  0  0  0  0  0  0  0  0
  -12.5410    7.5674    6.6867 H   0  0  0  0  0  0  0  0  0  0  0  0
  -10.8626    6.9275    6.6867 H   0  0  0  0  0  0  0  0  0  0  0  0
  -12.8084    8.9862    9.8389 H   0  0  0  0  0  0  0  0  0  0  0  0
  -12.3487    9.7805    8.2947 H   0  0  0  0  0  0  0  0  0  0  0  0
  -13.5485    8.4436    8.2947 H   0  0  0  0  0  0  0  0  0  0  0  0
   -9.8548    8.3112    6.4347 H   0  0  0  0  0  0  0  0  0  0  0  0
   -7.6548    9.4572    6.3811 H   0  0  0  0  0  0  0  0  0  0  0  0
   -6.6531   10.3497    8.4781 H   0  0  0  0  0  0  0  0  0  0  0  0
   -8.4658    8.6551   12.1556 H   0  0  0  0  0  0  0  0  0  0  0  0
   -7.4814    9.5291   14.3142 H   0  0  0  0  0  0  0  0  0  0  0  0
   -6.1796   11.5894   14.3187 H   0  0  0  0  0  0  0  0  0  0  0  0
   -5.8720   12.7580   12.2090 H   0  0  0  0  0  0  0  0  0  0  0  0
  -10.0775    8.9372   10.7024 H   0  0  0  0  0  0  0  0  0  0  0  0
  1  2  1  0
  2  3  1  0
  2  4  1  0
  2  5  1  0
  5  6  2  0
  6  7  1  0
  7  8  2  0
  8  9  1  0
  9 10  1  0
 10 11  2  0
 11 12  1  0
 12 13  2  0
 13 14  1  0
 14 15  1  0
 15 16  2  0
  9 17  2  0
 17  5  1  0
 15 10  1  0
  1 18  1  0
  1 19  1  0
  1 20  1  0
  3 21  1  0
  3 22  1  0
  3 23  1  0
  4 24  1  0
  4 25  1  0
  4 26  1  0
  6 27  1  0
  7 28  1  0
  8 29  1  0
 11 30  1  0
 12 31  1  0
 13 32  1  0
 14 33  1  0
 17 34  1  0
M  END
>  <meeko>  (9) 
{"is_sidechain": [false], "free_energy": -6.507, "intermolecular_energy": -7.529, "internal_energy": -0.163}

$$$$
