3ary_ligand
     RDKit          3D

 27 29  0  0  0  0  0  0  0  0999 V2000
   21.0310  -13.9570   17.5450 S   0  0  0  0  0  0  0  0  0  0  0  0
   20.8430  -12.4940   18.5760 C   0  0  0  0  0  0  0  0  0  0  0  0
   20.7150  -11.5440   19.2560 N   0  0  0  0  0  0  0  0  0  0  0  0
   19.3650  -11.2480   19.5050 C   0  0  0  0  0  0  0  0  0  0  0  0
   18.3700  -11.6730   18.6080 C   0  0  0  0  0  0  0  0  0  0  0  0
   17.0170  -11.3690   18.8080 C   0  0  0  0  0  0  0  0  0  0  0  0
   16.7160  -10.6090   19.9330 C   0  0  0  0  0  0  0  0  0  0  0  0
   15.4710  -10.2070   20.3050 O   0  0  0  0  0  0  0  0  0  0  0  0
   15.6000   -9.4750   21.4560 C   0  0  0  0  0  0  0  0  0  0  0  0
   14.4780   -8.8870   22.1320 C   0  0  0  0  0  0  0  0  0  0  0  0
   14.6100   -8.3530   23.3260 N   0  0  0  0  0  0  0  0  0  0  0  0
   13.3250   -7.8260   23.7910 C   0  0  0  0  0  0  0  0  0  0  0  0
   12.3760   -8.1520   22.6230 C   0  0  0  0  0  0  0  0  0  0  0  0
   13.2540   -8.8210   21.6530 N   0  0  0  0  0  0  0  0  0  0  0  0
   16.9330   -9.4140   21.8180 C   0  0  0  0  0  0  0  0  0  0  0  0
   17.6600  -10.1470   20.8390 C   0  0  0  0  0  0  0  0  0  0  0  0
   19.0130  -10.4630   20.6200 C   0  0  0  0  0  0  0  0  0  0  0  0
   18.6615  -12.2604   17.7248 H   0  0  0  0  0  0  0  0  0  0  0  0
   16.2361  -11.7125   18.1136 H   0  0  0  0  0  0  0  0  0  0  0  0
   15.5240   -8.3610   23.7720 H   0  0  0  0  0  0  0  0  0  0  0  0
   13.0024   -8.3283   24.7149 H   0  0  0  0  0  0  0  0  0  0  0  0
   13.3586   -6.7544   24.0370 H   0  0  0  0  0  0  0  0  0  0  0  0
   11.5656   -8.8209   22.9482 H   0  0  0  0  0  0  0  0  0  0  0  0
   11.8775   -7.2621   22.2112 H   0  0  0  0  0  0  0  0  0  0  0  0
   13.0220   -9.1970   20.7430 H   0  0  0  0  0  0  0  0  0  0  0  0
   17.3512   -8.8978   22.6947 H   0  0  0  0  0  0  0  0  0  0  0  0
   19.7876  -10.1010   21.3120 H   0  0  0  0  0  0  0  0  0  0  0  0
  1  2  2  0
  2  3  2  0
  3  4  1  0
  4  5  2  0
  5  6  1  0
  6  7  2  0
  7  8  1  0
  8  9  1  0
  9 10  1  0
 10 11  2  0
 11 12  1  0
 12 13  1  0
 13 14  1  0
  9 15  2  0
 15 16  1  0
 16 17  2  0
 17  4  1  0
 16  7  1  0
 14 10  1  0
  5 18  1  0
  6 19  1  0
 11 20  1  0
 12 21  1  0
 12 22  1  0
 13 23  1  0
 13 24  1  0
 14 25  1  0
 15 26  1  0
 17 27  1  0
M  CHG  1  11   1
M  END
>  <meeko>  (1) 
{"is_sidechain": [false], "free_energy": -7.269, "intermolecular_energy": -8.119, "internal_energy": -0.176}

$$$$
3ary_ligand
     RDKit          3D

 27 29  0  0  0  0  0  0  0  0999 V2000
   21.9650  -11.3810   22.3000 S   0  0  0  0  0  0  0  0  0  0  0  0
   21.0810  -11.3120   20.7350 C   0  0  0  0  0  0  0  0  0  0  0  0
   20.5010  -11.2580   19.7140 N   0  0  0  0  0  0  0  0  0  0  0  0
   19.1270  -11.0300   19.8970 C   0  0  0  0  0  0  0  0  0  0  0  0
   18.1930  -11.5860   19.0080 C   0  0  0  0  0  0  0  0  0  0  0  0
   16.8170  -11.3550   19.1420 C   0  0  0  0  0  0  0  0  0  0  0  0
   16.4310  -10.5290   20.1920 C   0  0  0  0  0  0  0  0  0  0  0  0
   15.1510  -10.1780   20.4930 O   0  0  0  0  0  0  0  0  0  0  0  0
   15.1950   -9.3520   21.5840 C   0  0  0  0  0  0  0  0  0  0  0  0
   14.0160   -8.7850   22.1760 C   0  0  0  0  0  0  0  0  0  0  0  0
   14.0440   -8.2770   23.3890 N   0  0  0  0  0  0  0  0  0  0  0  0
   12.7210   -7.7670   23.7550 C   0  0  0  0  0  0  0  0  0  0  0  0
   11.8750   -8.0730   22.5050 C   0  0  0  0  0  0  0  0  0  0  0  0
   12.8360   -8.7160   21.5980 N   0  0  0  0  0  0  0  0  0  0  0  0
   16.5090   -9.1770   21.9800 C   0  0  0  0  0  0  0  0  0  0  0  0
   17.3120   -9.9370   21.0860 C   0  0  0  0  0  0  0  0  0  0  0  0
   18.6900  -10.1830   20.9340 C   0  0  0  0  0  0  0  0  0  0  0  0
   18.5511  -12.2203   18.1837 H   0  0  0  0  0  0  0  0  0  0  0  0
   16.0835  -11.8021   18.4550 H   0  0  0  0  0  0  0  0  0  0  0  0
   14.9170   -8.2890   23.9090 H   0  0  0  0  0  0  0  0  0  0  0  0
   12.3257   -8.2905   24.6380 H   0  0  0  0  0  0  0  0  0  0  0  0
   12.7265   -6.7006   24.0249 H   0  0  0  0  0  0  0  0  0  0  0  0
   11.0452   -8.7533   22.7472 H   0  0  0  0  0  0  0  0  0  0  0  0
   11.4060   -7.1773   22.0718 H   0  0  0  0  0  0  0  0  0  0  0  0
   12.6840   -9.0730   20.6640 H   0  0  0  0  0  0  0  0  0  0  0  0
   16.8641   -8.5673   22.8239 H   0  0  0  0  0  0  0  0  0  0  0  0
   19.4167   -9.7191   21.6171 H   0  0  0  0  0  0  0  0  0  0  0  0
  1  2  2  0
  2  3  2  0
  3  4  1  0
  4  5  2  0
  5  6  1  0
  6  7  2  0
  7  8  1  0
  8  9  1  0
  9 10  1  0
 10 11  2  0
 11 12  1  0
 12 13  1  0
 13 14  1  0
  9 15  2  0
 15 16  1  0
 16 17  2  0
 17  4  1  0
 16  7  1  0
 14 10  1  0
  5 18  1  0
  6 19  1  0
 11 20  1  0
 12 21  1  0
 12 22  1  0
 13 23  1  0
 13 24  1  0
 14 25  1  0
 15 26  1  0
 17 27  1  0
M  CHG  1  11   1
M  END
>  <meeko>  (2) 
{"is_sidechain": [false], "free_energy": -7.229, "intermolecular_energy": -8.039, "internal_energy": -0.211}

$$$$
3ary_ligand
     RDKit          3D

 27 29  0  0  0  0  0  0  0  0999 V2000
   21.1480  -14.5520   19.4260 S   0  0  0  0  0  0  0  0  0  0  0  0
   20.3520  -13.0980   18.7260 C   0  0  0  0  0  0  0  0  0  0  0  0
   19.8380  -12.1430   18.2750 N   0  0  0  0  0  0  0  0  0  0  0  0
   19.1360  -11.4100   19.2460 C   0  0  0  0  0  0  0  0  0  0  0  0
   19.8070  -10.8980   20.3680 C   0  0  0  0  0  0  0  0  0  0  0  0
   19.1330  -10.1890   21.3720 C   0  0  0  0  0  0  0  0  0  0  0  0
   17.7600  -10.0380   21.2040 C   0  0  0  0  0  0  0  0  0  0  0  0
   16.9260   -9.3900   22.0600 O   0  0  0  0  0  0  0  0  0  0  0  0
   15.6600   -9.4720   21.5450 C   0  0  0  0  0  0  0  0  0  0  0  0
   14.5180   -8.8930   22.1950 C   0  0  0  0  0  0  0  0  0  0  0  0
   13.3370   -8.8920   21.6170 N   0  0  0  0  0  0  0  0  0  0  0  0
   12.3490   -8.2470   22.4840 C   0  0  0  0  0  0  0  0  0  0  0  0
   13.1780   -7.8530   23.7190 C   0  0  0  0  0  0  0  0  0  0  0  0
   14.5280   -8.3290   23.3840 N   0  0  0  0  0  0  0  0  0  0  0  0
   15.6900  -10.1740   20.3540 C   0  0  0  0  0  0  0  0  0  0  0  0
   17.0450  -10.5420   20.1270 C   0  0  0  0  0  0  0  0  0  0  0  0
   17.7410  -11.2500   19.1300 C   0  0  0  0  0  0  0  0  0  0  0  0
   20.8913  -11.0576   20.4618 H   0  0  0  0  0  0  0  0  0  0  0  0
   19.6602   -9.7750   22.2442 H   0  0  0  0  0  0  0  0  0  0  0  0
   13.2390   -9.3080   20.6940 H   0  0  0  0  0  0  0  0  0  0  0  0
   11.9163   -7.3597   21.9987 H   0  0  0  0  0  0  0  0  0  0  0  0
   11.4938   -8.8957   22.7246 H   0  0  0  0  0  0  0  0  0  0  0  0
   13.1698   -6.7632   23.8681 H   0  0  0  0  0  0  0  0  0  0  0  0
   12.7892   -8.2824   24.6541 H   0  0  0  0  0  0  0  0  0  0  0  0
   15.3760   -8.2660   23.9320 H   0  0  0  0  0  0  0  0  0  0  0  0
   14.8309  -10.4037   19.7065 H   0  0  0  0  0  0  0  0  0  0  0  0
   17.2021  -11.6738   18.2698 H   0  0  0  0  0  0  0  0  0  0  0  0
  1  2  2  0
  2  3  2  0
  3  4  1  0
  4  5  2  0
  5  6  1  0
  6  7  2  0
  7  8  1  0
  8  9  1  0
  9 10  1  0
 10 11  2  0
 11 12  1  0
 12 13  1  0
 13 14  1  0
  9 15  2  0
 15 16  1  0
 16 17  2  0
 17  4  1  0
 16  7  1  0
 14 10  1  0
  5 18  1  0
  6 19  1  0
 11 20  1  0
 12 21  1  0
 12 22  1  0
 13 23  1  0
 13 24  1  0
 14 25  1  0
 15 26  1  0
 17 27  1  0
M  CHG  1  11   1
M  END
>  <meeko>  (3) 
{"is_sidechain": [false], "free_energy": -7.055, "intermolecular_energy": -7.82, "internal_energy": -0.237}

$$$$
3ary_ligand
     RDKit          3D

 27 29  0  0  0  0  0  0  0  0999 V2000
   16.7120  -13.9650   17.4720 S   0  0  0  0  0  0  0  0  0  0  0  0
   17.9420  -12.7000   17.8240 C   0  0  0  0  0  0  0  0  0  0  0  0
   18.7460  -11.8780   18.0630 N   0  0  0  0  0  0  0  0  0  0  0  0
   18.4210  -11.1360   19.2100 C   0  0  0  0  0  0  0  0  0  0  0  0
   19.3950  -10.8860   20.1910 C   0  0  0  0  0  0  0  0  0  0  0  0
   19.0990  -10.1760   21.3620 C   0  0  0  0  0  0  0  0  0  0  0  0
   17.7830   -9.7490   21.5080 C   0  0  0  0  0  0  0  0  0  0  0  0
   17.2900   -9.0500   22.5660 O   0  0  0  0  0  0  0  0  0  0  0  0
   15.9590   -8.8330   22.3330 C   0  0  0  0  0  0  0  0  0  0  0  0
   15.1160   -8.1220   23.2540 C   0  0  0  0  0  0  0  0  0  0  0  0
   13.8270   -8.3730   23.3250 N   0  0  0  0  0  0  0  0  0  0  0  0
   13.1990   -7.5190   24.3350 C   0  0  0  0  0  0  0  0  0  0  0  0
   14.3820   -6.6890   24.8680 C   0  0  0  0  0  0  0  0  0  0  0  0
   15.5220   -7.1860   24.0850 N   0  0  0  0  0  0  0  0  0  0  0  0
   15.6030   -9.3940   21.1210 C   0  0  0  0  0  0  0  0  0  0  0  0
   16.7780   -9.9860   20.5810 C   0  0  0  0  0  0  0  0  0  0  0  0
   17.0970  -10.7010   19.4110 C   0  0  0  0  0  0  0  0  0  0  0  0
   20.4184  -11.2580   20.0354 H   0  0  0  0  0  0  0  0  0  0  0  0
   19.8647   -9.9677   22.1238 H   0  0  0  0  0  0  0  0  0  0  0  0
   13.4280   -9.0830   22.7170 H   0  0  0  0  0  0  0  0  0  0  0  0
   12.4324   -6.8714   23.8844 H   0  0  0  0  0  0  0  0  0  0  0  0
   12.6778   -8.0863   25.1202 H   0  0  0  0  0  0  0  0  0  0  0  0
   14.2211   -5.6151   24.6922 H   0  0  0  0  0  0  0  0  0  0  0  0
   14.5268   -6.7927   25.9535 H   0  0  0  0  0  0  0  0  0  0  0  0
   16.4920   -6.9010   24.1270 H   0  0  0  0  0  0  0  0  0  0  0  0
   14.6032   -9.3844   20.6623 H   0  0  0  0  0  0  0  0  0  0  0  0
   16.3207  -10.9174   18.6623 H   0  0  0  0  0  0  0  0  0  0  0  0
  1  2  2  0
  2  3  2  0
  3  4  1  0
  4  5  2  0
  5  6  1  0
  6  7  2  0
  7  8  1  0
  8  9  1  0
  9 10  1  0
 10 11  2  0
 11 12  1  0
 12 13  1  0
 13 14  1  0
  9 15  2  0
 15 16  1  0
 16 17  2  0
 17  4  1  0
 16  7  1  0
 14 10  1  0
  5 18  1  0
  6 19  1  0
 11 20  1  0
 12 21  1  0
 12 22  1  0
 13 23  1  0
 13 24  1  0
 14 25  1  0
 15 26  1  0
 17 27  1  0
M  CHG  1  11   1
M  END
>  <meeko>  (4) 
{"is_sidechain": [false], "free_energy": -7.011, "intermolecular_energy": -7.779, "internal_energy": -0.227}

$$$$
3ary_ligand
     RDKit          3D

 27 29  0  0  0  0  0  0  0  0999 V2000
   12.6570   -7.4810   26.5740 S   0  0  0  0  0  0  0  0  0  0  0  0
   12.6600   -7.6740   24.7850 C   0  0  0  0  0  0  0  0  0  0  0  0
   12.6650   -7.8100   23.6180 N   0  0  0  0  0  0  0  0  0  0  0  0
   13.9090   -8.2540   23.1410 C   0  0  0  0  0  0  0  0  0  0  0  0
   15.0920   -7.8870   23.8020 C   0  0  0  0  0  0  0  0  0  0  0  0
   16.3520   -8.2860   23.3370 C   0  0  0  0  0  0  0  0  0  0  0  0
   16.3670   -9.0500   22.1750 C   0  0  0  0  0  0  0  0  0  0  0  0
   17.4790   -9.5330   21.5600 O   0  0  0  0  0  0  0  0  0  0  0  0
   17.0710  -10.2210   20.4490 C   0  0  0  0  0  0  0  0  0  0  0  0
   17.9910  -10.8680   19.5540 C   0  0  0  0  0  0  0  0  0  0  0  0
   19.2390  -11.0840   19.9060 N   0  0  0  0  0  0  0  0  0  0  0  0
   19.9620  -11.7520   18.8220 C   0  0  0  0  0  0  0  0  0  0  0  0
   18.8870  -11.9000   17.7300 C   0  0  0  0  0  0  0  0  0  0  0  0
   17.6980  -11.2930   18.3440 N   0  0  0  0  0  0  0  0  0  0  0  0
   15.6920  -10.1760   20.3570 C   0  0  0  0  0  0  0  0  0  0  0  0
   15.2300   -9.4220   21.4710 C   0  0  0  0  0  0  0  0  0  0  0  0
   13.9740   -9.0110   21.9550 C   0  0  0  0  0  0  0  0  0  0  0  0
   15.0279   -7.2692   24.7099 H   0  0  0  0  0  0  0  0  0  0  0  0
   17.2784   -8.0102   23.8621 H   0  0  0  0  0  0  0  0  0  0  0  0
   19.5520  -10.7860   20.8260 H   0  0  0  0  0  0  0  0  0  0  0  0
   20.8024  -11.1364   18.4689 H   0  0  0  0  0  0  0  0  0  0  0  0
   20.4083  -12.7109   19.1244 H   0  0  0  0  0  0  0  0  0  0  0  0
   19.1770  -11.3616   16.8156 H   0  0  0  0  0  0  0  0  0  0  0  0
   18.7274  -12.9435   17.4208 H   0  0  0  0  0  0  0  0  0  0  0  0
   16.7700  -11.1850   17.9560 H   0  0  0  0  0  0  0  0  0  0  0  0
   15.0717  -10.6350   19.5731 H   0  0  0  0  0  0  0  0  0  0  0  0
   13.0543   -9.2777   21.4137 H   0  0  0  0  0  0  0  0  0  0  0  0
  1  2  2  0
  2  3  2  0
  3  4  1  0
  4  5  2  0
  5  6  1  0
  6  7  2  0
  7  8  1  0
  8  9  1  0
  9 10  1  0
 10 11  2  0
 11 12  1  0
 12 13  1  0
 13 14  1  0
  9 15  2  0
 15 16  1  0
 16 17  2  0
 17  4  1  0
 16  7  1  0
 14 10  1  0
  5 18  1  0
  6 19  1  0
 11 20  1  0
 12 21  1  0
 12 22  1  0
 13 23  1  0
 13 24  1  0
 14 25  1  0
 15 26  1  0
 17 27  1  0
M  CHG  1  11   1
M  END
>  <meeko>  (5) 
{"is_sidechain": [false], "free_energy": -6.997, "intermolecular_energy": -7.794, "internal_energy": -0.198}

$$$$
3ary_ligand
     RDKit          3D

 27 29  0  0  0  0  0  0  0  0999 V2000
   11.7130   -7.8700   26.2630 S   0  0  0  0  0  0  0  0  0  0  0  0
   13.2830   -7.4050   25.5160 C   0  0  0  0  0  0  0  0  0  0  0  0
   14.3030   -7.0990   25.0190 N   0  0  0  0  0  0  0  0  0  0  0  0
   14.5680   -7.8370   23.8540 C   0  0  0  0  0  0  0  0  0  0  0  0
   13.5100   -8.3430   23.0810 C   0  0  0  0  0  0  0  0  0  0  0  0
   13.7370   -9.1100   21.9300 C   0  0  0  0  0  0  0  0  0  0  0  0
   15.0680   -9.3570   21.6080 C   0  0  0  0  0  0  0  0  0  0  0  0
   15.5010  -10.0780   20.5390 O   0  0  0  0  0  0  0  0  0  0  0  0
   16.8700  -10.0960   20.5800 C   0  0  0  0  0  0  0  0  0  0  0  0
   17.6680  -10.7760   19.5980 C   0  0  0  0  0  0  0  0  0  0  0  0
   18.9580  -10.9540   19.7790 N   0  0  0  0  0  0  0  0  0  0  0  0
   19.5340  -11.6690   18.6380 C   0  0  0  0  0  0  0  0  0  0  0  0
   18.3190  -11.8900   17.7190 C   0  0  0  0  0  0  0  0  0  0  0  0
   17.2160  -11.2690   18.4640 N   0  0  0  0  0  0  0  0  0  0  0  0
   17.3090   -9.3820   21.6800 C   0  0  0  0  0  0  0  0  0  0  0  0
   16.1490   -8.9000   22.3470 C   0  0  0  0  0  0  0  0  0  0  0  0
   15.8990   -8.1310   23.4990 C   0  0  0  0  0  0  0  0  0  0  0  0
   12.4749   -8.1315   23.3873 H   0  0  0  0  0  0  0  0  0  0  0  0
   12.9096   -9.4950   21.3159 H   0  0  0  0  0  0  0  0  0  0  0  0
   19.3900  -10.6040   20.6290 H   0  0  0  0  0  0  0  0  0  0  0  0
   20.3027  -11.0616   18.1379 H   0  0  0  0  0  0  0  0  0  0  0  0
   20.0385  -12.6043   18.9222 H   0  0  0  0  0  0  0  0  0  0  0  0
   18.4651  -11.3966   16.7468 H   0  0  0  0  0  0  0  0  0  0  0  0
   18.1401  -12.9506   17.4887 H   0  0  0  0  0  0  0  0  0  0  0  0
   16.2400  -11.1950   18.2080 H   0  0  0  0  0  0  0  0  0  0  0  0
   18.3542   -9.2184   21.9811 H   0  0  0  0  0  0  0  0  0  0  0  0
   16.7332   -7.7639   24.1149 H   0  0  0  0  0  0  0  0  0  0  0  0
  1  2  2  0
  2  3  2  0
  3  4  1  0
  4  5  2  0
  5  6  1  0
  6  7  2  0
  7  8  1  0
  8  9  1  0
  9 10  1  0
 10 11  2  0
 11 12  1  0
 12 13  1  0
 13 14  1  0
  9 15  2  0
 15 16  1  0
 16 17  2  0
 17  4  1  0
 16  7  1  0
 14 10  1  0
  5 18  1  0
  6 19  1  0
 11 20  1  0
 12 21  1  0
 12 22  1  0
 13 23  1  0
 13 24  1  0
 14 25  1  0
 15 26  1  0
 17 27  1  0
M  CHG  1  11   1
M  END
>  <meeko>  (6) 
{"is_sidechain": [false], "free_energy": -6.867, "intermolecular_energy": -7.655, "internal_energy": -0.191}

$$$$
3ary_ligand
     RDKit          3D

 27 29  0  0  0  0  0  0  0  0999 V2000
   20.0200   -5.2670   23.4170 S   0  0  0  0  0  0  0  0  0  0  0  0
   18.7290   -6.1730   24.2820 C   0  0  0  0  0  0  0  0  0  0  0  0
   17.8890   -6.7730   24.8430 N   0  0  0  0  0  0  0  0  0  0  0  0
   17.0730   -7.4970   23.9580 C   0  0  0  0  0  0  0  0  0  0  0  0
   15.6840   -7.5520   24.1610 C   0  0  0  0  0  0  0  0  0  0  0  0
   14.8430   -8.2890   23.3160 C   0  0  0  0  0  0  0  0  0  0  0  0
   15.4630   -8.9780   22.2780 C   0  0  0  0  0  0  0  0  0  0  0  0
   14.8310   -9.7500   21.3540 O   0  0  0  0  0  0  0  0  0  0  0  0
   15.7880  -10.2570   20.5160 C   0  0  0  0  0  0  0  0  0  0  0  0
   15.4750  -11.1250   19.4150 C   0  0  0  0  0  0  0  0  0  0  0  0
   16.4260  -11.7310   18.7380 N   0  0  0  0  0  0  0  0  0  0  0  0
   15.8460  -12.5520   17.6740 C   0  0  0  0  0  0  0  0  0  0  0  0
   14.3330  -12.3200   17.8440 C   0  0  0  0  0  0  0  0  0  0  0  0
   14.2610  -11.3960   18.9850 N   0  0  0  0  0  0  0  0  0  0  0  0
   17.0340   -9.8040   20.9090 C   0  0  0  0  0  0  0  0  0  0  0  0
   16.8310   -8.9750   22.0460 C   0  0  0  0  0  0  0  0  0  0  0  0
   17.6570   -8.2280   22.9060 C   0  0  0  0  0  0  0  0  0  0  0  0
   15.2445   -7.0017   25.0060 H   0  0  0  0  0  0  0  0  0  0  0  0
   13.7536   -8.3210   23.4650 H   0  0  0  0  0  0  0  0  0  0  0  0
   17.3950  -11.5770   19.0030 H   0  0  0  0  0  0  0  0  0  0  0  0
   16.1888  -12.2164   16.6841 H   0  0  0  0  0  0  0  0  0  0  0  0
   16.1323  -13.6121   17.7393 H   0  0  0  0  0  0  0  0  0  0  0  0
   13.8996  -11.8659   16.9407 H   0  0  0  0  0  0  0  0  0  0  0  0
   13.7694  -13.2506   18.0063 H   0  0  0  0  0  0  0  0  0  0  0  0
   13.4430  -10.9910   19.4220 H   0  0  0  0  0  0  0  0  0  0  0  0
   17.9973  -10.0398   20.4332 H   0  0  0  0  0  0  0  0  0  0  0  0
   18.7469   -8.2153   22.7580 H   0  0  0  0  0  0  0  0  0  0  0  0
  1  2  2  0
  2  3  2  0
  3  4  1  0
  4  5  2  0
  5  6  1  0
  6  7  2  0
  7  8  1  0
  8  9  1  0
  9 10  1  0
 10 11  2  0
 11 12  1  0
 12 13  1  0
 13 14  1  0
  9 15  2  0
 15 16  1  0
 16 17  2  0
 17  4  1  0
 16  7  1  0
 14 10  1  0
  5 18  1  0
  6 19  1  0
 11 20  1  0
 12 21  1  0
 12 22  1  0
 13 23  1  0
 13 24  1  0
 14 25  1  0
 15 26  1  0
 17 27  1  0
M  CHG  1  11   1
M  END
>  <meeko>  (7) 
{"is_sidechain": [false], "free_energy": -6.847, "intermolecular_energy": -7.594, "internal_energy": -0.23}

$$$$
3ary_ligand
     RDKit          3D

 27 29  0  0  0  0  0  0  0  0999 V2000
   16.0000  -12.4910   17.8040 S   0  0  0  0  0  0  0  0  0  0  0  0
   17.1900  -11.5240   18.7450 C   0  0  0  0  0  0  0  0  0  0  0  0
   17.9650  -10.8980   19.3680 N   0  0  0  0  0  0  0  0  0  0  0  0
   17.3550  -10.1950   20.4200 C   0  0  0  0  0  0  0  0  0  0  0  0
   18.1350   -9.6570   21.4570 C   0  0  0  0  0  0  0  0  0  0  0  0
   17.5580   -8.9770   22.5380 C   0  0  0  0  0  0  0  0  0  0  0  0
   16.1700   -8.8830   22.5370 C   0  0  0  0  0  0  0  0  0  0  0  0
   15.4180   -8.2690   23.4900 O   0  0  0  0  0  0  0  0  0  0  0  0
   14.1040   -8.4030   23.1290 C   0  0  0  0  0  0  0  0  0  0  0  0
   13.0250   -7.8720   23.9150 C   0  0  0  0  0  0  0  0  0  0  0  0
   11.8740   -7.5580   23.3610 N   0  0  0  0  0  0  0  0  0  0  0  0
   10.9500   -7.0420   24.3730 C   0  0  0  0  0  0  0  0  0  0  0  0
   11.7810   -7.1090   25.6670 C   0  0  0  0  0  0  0  0  0  0  0  0
   13.0680   -7.6550   25.2120 N   0  0  0  0  0  0  0  0  0  0  0  0
   14.0200   -9.1030   21.9390 C   0  0  0  0  0  0  0  0  0  0  0  0
   15.3520   -9.4140   21.5500 C   0  0  0  0  0  0  0  0  0  0  0  0
   15.9510  -10.0920   20.4720 C   0  0  0  0  0  0  0  0  0  0  0  0
   19.2283   -9.7726   21.4195 H   0  0  0  0  0  0  0  0  0  0  0  0
   18.1687   -8.5417   23.3427 H   0  0  0  0  0  0  0  0  0  0  0  0
   11.7540   -7.6940   22.3610 H   0  0  0  0  0  0  0  0  0  0  0  0
   10.6535   -6.0072   24.1467 H   0  0  0  0  0  0  0  0  0  0  0  0
   10.0100   -7.6102   24.4316 H   0  0  0  0  0  0  0  0  0  0  0  0
   11.9099   -6.1083   26.1052 H   0  0  0  0  0  0  0  0  0  0  0  0
   11.3080   -7.7169   26.4524 H   0  0  0  0  0  0  0  0  0  0  0  0
   13.8980   -7.8560   25.7540 H   0  0  0  0  0  0  0  0  0  0  0  0
   13.0999   -9.3681   21.3977 H   0  0  0  0  0  0  0  0  0  0  0  0
   15.3305  -10.5361   19.6797 H   0  0  0  0  0  0  0  0  0  0  0  0
  1  2  2  0
  2  3  2  0
  3  4  1  0
  4  5  2  0
  5  6  1  0
  6  7  2  0
  7  8  1  0
  8  9  1  0
  9 10  1  0
 10 11  2  0
 11 12  1  0
 12 13  1  0
 13 14  1  0
  9 15  2  0
 15 16  1  0
 16 17  2  0
 17  4  1  0
 16  7  1  0
 14 10  1  0
  5 18  1  0
  6 19  1  0
 11 20  1  0
 12 21  1  0
 12 22  1  0
 13 23  1  0
 13 24  1  0
 14 25  1  0
 15 26  1  0
 17 27  1  0
M  CHG  1  11   1
M  END
>  <meeko>  (8) 
{"is_sidechain": [false], "free_energy": -6.832, "intermolecular_energy": -7.663, "internal_energy": -0.143}

$$$$
3ary_ligand
     RDKit          3D

 27 29  0  0  0  0  0  0  0  0999 V2000
   20.6520  -12.0150   18.0840 S   0  0  0  0  0  0  0  0  0  0  0  0
   18.8990  -12.2810   17.7780 C   0  0  0  0  0  0  0  0  0  0  0  0
   17.7520  -12.4450   17.5780 N   0  0  0  0  0  0  0  0  0  0  0  0
   16.9510  -11.8280   18.5530 C   0  0  0  0  0  0  0  0  0  0  0  0
   15.5710  -12.0880   18.6020 C   0  0  0  0  0  0  0  0  0  0  0  0
   14.7360  -11.4680   19.5400 C   0  0  0  0  0  0  0  0  0  0  0  0
   15.3460  -10.5670   20.4080 C   0  0  0  0  0  0  0  0  0  0  0  0
   14.7170   -9.8610   21.3850 O   0  0  0  0  0  0  0  0  0  0  0  0
   15.6590   -9.0850   22.0060 C   0  0  0  0  0  0  0  0  0  0  0  0
   15.3430   -8.2010   23.0930 C   0  0  0  0  0  0  0  0  0  0  0  0
   16.2110   -7.3070   23.5130 N   0  0  0  0  0  0  0  0  0  0  0  0
   15.6480   -6.5380   24.6250 C   0  0  0  0  0  0  0  0  0  0  0  0
   14.2470   -7.1540   24.7960 C   0  0  0  0  0  0  0  0  0  0  0  0
   14.2060   -8.1910   23.7560 N   0  0  0  0  0  0  0  0  0  0  0  0
   16.8940   -9.3000   21.4210 C   0  0  0  0  0  0  0  0  0  0  0  0
   16.6990  -10.2580   20.3890 C   0  0  0  0  0  0  0  0  0  0  0  0
   17.5200  -10.8930   19.4380 C   0  0  0  0  0  0  0  0  0  0  0  0
   15.1346  -12.7979   17.8840 H   0  0  0  0  0  0  0  0  0  0  0  0
   13.6579  -11.6813   19.5881 H   0  0  0  0  0  0  0  0  0  0  0  0
   17.1170   -7.2460   23.0570 H   0  0  0  0  0  0  0  0  0  0  0  0
   16.2494   -6.6636   25.5374 H   0  0  0  0  0  0  0  0  0  0  0  0
   15.6257   -5.4546   24.4361 H   0  0  0  0  0  0  0  0  0  0  0  0
   14.1295   -7.5946   25.7970 H   0  0  0  0  0  0  0  0  0  0  0  0
   13.4370   -6.4158   24.7008 H   0  0  0  0  0  0  0  0  0  0  0  0
   13.4570   -8.8320   23.5290 H   0  0  0  0  0  0  0  0  0  0  0  0
   17.8442   -8.8216   21.7006 H   0  0  0  0  0  0  0  0  0  0  0  0
   18.5941  -10.6611   19.3871 H   0  0  0  0  0  0  0  0  0  0  0  0
  1  2  2  0
  2  3  2  0
  3  4  1  0
  4  5  2  0
  5  6  1  0
  6  7  2  0
  7  8  1  0
  8  9  1  0
  9 10  1  0
 10 11  2  0
 11 12  1  0
 12 13  1  0
 13 14  1  0
  9 15  2  0
 15 16  1  0
 16 17  2  0
 17  4  1  0
 16  7  1  0
 14 10  1  0
  5 18  1  0
  6 19  1  0
 11 20  1  0
 12 21  1  0
 12 22  1  0
 13 23  1  0
 13 24  1  0
 14 25  1  0
 15 26  1  0
 17 27  1  0
M  CHG  1  11   1
M  END
>  <meeko>  (9) 
{"is_sidechain": [false], "free_energy": -6.657, "intermolecular_energy": -7.466, "internal_energy": -0.145}

$$$$
