4ivc_ligand
     RDKit          3D

 45 48  0  0  0  0  0  0  0  0999 V2000
   10.3840   56.6080   -1.0870 C   0  0  0  0  0  0  0  0  0  0  0  0
    9.2210   56.1390   -0.2330 C   0  0  1  0  0  0  0  0  0  0  0  0
    9.6510   55.7590    1.0610 O   0  0  0  0  0  0  0  0  0  0  0  0
    8.0750   57.1080   -0.1400 C   0  0  0  0  0  0  0  0  0  0  0  0
    8.2370   58.3440   -0.6020 N   0  0  0  0  0  0  0  0  0  0  0  0
    7.1140   59.0370   -0.2740 C   0  0  0  0  0  0  0  0  0  0  0  0
    6.7570   60.3810   -0.4860 C   0  0  0  0  0  0  0  0  0  0  0  0
    5.5830   60.9150   -0.0350 N   0  0  0  0  0  0  0  0  0  0  0  0
    4.8040   60.0580    0.6450 C   0  0  0  0  0  0  0  0  0  0  0  0
    3.6010   60.3350    1.2290 N   0  0  0  0  0  0  0  0  0  0  0  0
    3.1260   59.2070    1.8630 C   0  0  0  0  0  0  0  0  0  0  0  0
    4.0350   58.1800    1.6770 C   0  0  0  0  0  0  0  0  0  0  0  0
    5.0790   58.7300    0.8880 C   0  0  0  0  0  0  0  0  0  0  0  0
    6.2440   58.2050    0.3990 C   0  0  0  0  0  0  0  0  0  0  0  0
    6.7940   56.9550    0.4110 N   0  0  0  0  0  0  0  0  0  0  0  0
    6.1150   55.7500    0.8840 C   0  0  2  0  0  0  0  0  0  0  0  0
    6.3880   55.4480    2.3640 C   0  0  0  0  0  0  0  0  0  0  0  0
    5.6790   54.1640    2.7820 C   0  0  0  0  0  0  0  0  0  0  0  0
    6.2030   52.9270    2.0250 C   0  0  1  0  0  0  0  0  0  0  0  0
    5.0940   51.8600    1.9400 C   0  0  0  0  0  0  0  0  0  0  0  0
    5.0220   51.0370    3.1590 C   0  0  0  0  0  0  0  0  0  0  0  0
    4.9640   50.3910    4.1210 N   0  0  0  0  0  0  0  0  0  0  0  0
    6.7890   53.2870    0.6420 C   0  0  0  0  0  0  0  0  0  0  0  0
    6.1150   54.4930   -0.0110 C   0  0  0  0  0  0  0  0  0  0  0  0
   11.2065   56.9397   -0.4362 H   0  0  0  0  0  0  0  0  0  0  0  0
   10.7303   55.7792   -1.7220 H   0  0  0  0  0  0  0  0  0  0  0  0
   10.0585   57.4451   -1.7220 H   0  0  0  0  0  0  0  0  0  0  0  0
    8.8256   55.2600   -0.7630 H   0  0  0  0  0  0  0  0  0  0  0  0
    9.3210   54.8570    1.2110 H   0  0  0  0  0  0  0  0  0  0  0  0
    7.4527   61.0297   -1.0384 H   0  0  0  0  0  0  0  0  0  0  0  0
    3.1580   61.2420    1.2010 H   0  0  0  0  0  0  0  0  0  0  0  0
    2.1821   59.1351    2.4232 H   0  0  0  0  0  0  0  0  0  0  0  0
    3.9633   57.1516    2.0607 H   0  0  0  0  0  0  0  0  0  0  0  0
    5.0632   56.0562    0.7848 H   0  0  0  0  0  0  0  0  0  0  0  0
    7.4710   55.3306    2.5166 H   0  0  0  0  0  0  0  0  0  0  0  0
    6.0094   56.2808    2.9748 H   0  0  0  0  0  0  0  0  0  0  0  0
    5.8346   54.0100    3.8600 H   0  0  0  0  0  0  0  0  0  0  0  0
    4.6120   54.2771    2.5395 H   0  0  0  0  0  0  0  0  0  0  0  0
    7.0438   52.5028    2.5934 H   0  0  0  0  0  0  0  0  0  0  0  0
    4.1272   52.3642    1.7949 H   0  0  0  0  0  0  0  0  0  0  0  0
    5.3281   51.1948    1.0958 H   0  0  0  0  0  0  0  0  0  0  0  0
    7.8590   53.5105    0.7648 H   0  0  0  0  0  0  0  0  0  0  0  0
    6.6158   52.4236   -0.0172 H   0  0  0  0  0  0  0  0  0  0  0  0
    6.6482   54.7284   -0.9439 H   0  0  0  0  0  0  0  0  0  0  0  0
    5.0645   54.2213   -0.1917 H   0  0  0  0  0  0  0  0  0  0  0  0
  1  2  1  0
  2  3  1  0
  2  4  1  0
  4  5  2  0
  5  6  1  0
  6  7  2  0
  7  8  1  0
  8  9  2  0
  9 10  1  0
 10 11  1  0
 11 12  2  0
 12 13  1  0
 13 14  2  0
 14 15  1  0
 15 16  1  0
 16 17  1  0
 17 18  1  0
 18 19  1  0
 19 20  1  0
 20 21  1  0
 21 22  3  0
 19 23  1  0
 23 24  1  0
 15  4  1  0
 24 16  1  0
 14  6  1  0
 13  9  1  0
  1 25  1  0
  1 26  1  0
  1 27  1  0
  2 28  1  6
  3 29  1  0
  7 30  1  0
 10 31  1  0
 11 32  1  0
 12 33  1  0
 16 34  1  6
 17 35  1  0
 17 36  1  0
 18 37  1  0
 18 38  1  0
 19 39  1  6
 20 40  1  0
 20 41  1  0
 23 42  1  0
 23 43  1  0
 24 44  1  0
 24 45  1  0
M  END
>  <meeko>  (1) 
{"is_sidechain": [false], "free_energy": -9.376, "intermolecular_energy": -11.294, "internal_energy": -0.871}

$$$$
4ivc_ligand
     RDKit          3D

 45 48  0  0  0  0  0  0  0  0999 V2000
   10.1730   52.8380   -0.2090 C   0  0  0  0  0  0  0  0  0  0  0  0
   10.0900   53.9720    0.7950 C   0  0  1  0  0  0  0  0  0  0  0  0
   11.3750   54.3540    1.2500 O   0  0  0  0  0  0  0  0  0  0  0  0
    9.3220   55.1760    0.3250 C   0  0  0  0  0  0  0  0  0  0  0  0
    9.9730   56.1520   -0.3000 N   0  0  0  0  0  0  0  0  0  0  0  0
    9.0820   57.1620   -0.4890 C   0  0  0  0  0  0  0  0  0  0  0  0
    9.2310   58.4350   -1.0670 C   0  0  0  0  0  0  0  0  0  0  0  0
    8.2120   59.3440   -1.1260 N   0  0  0  0  0  0  0  0  0  0  0  0
    7.0610   58.9320   -0.5700 C   0  0  0  0  0  0  0  0  0  0  0  0
    5.9030   59.6480   -0.4640 N   0  0  0  0  0  0  0  0  0  0  0  0
    4.9570   58.8970    0.2000 C   0  0  0  0  0  0  0  0  0  0  0  0
    5.5120   57.6690    0.5190 C   0  0  0  0  0  0  0  0  0  0  0  0
    6.8350   57.7020    0.0070 C   0  0  0  0  0  0  0  0  0  0  0  0
    7.8580   56.7930    0.0270 C   0  0  0  0  0  0  0  0  0  0  0  0
    7.9650   55.5030    0.4620 N   0  0  0  0  0  0  0  0  0  0  0  0
    6.8470   54.6830    0.9270 C   0  0  2  0  0  0  0  0  0  0  0  0
    6.7260   54.6450    2.4570 C   0  0  0  0  0  0  0  0  0  0  0  0
    5.5640   53.7490    2.8740 C   0  0  0  0  0  0  0  0  0  0  0  0
    5.7720   52.2800    2.4580 C   0  0  1  0  0  0  0  0  0  0  0  0
    4.4050   51.5940    2.2640 C   0  0  0  0  0  0  0  0  0  0  0  0
    4.2200   50.4580    3.1800 C   0  0  0  0  0  0  0  0  0  0  0  0
    4.0730   49.5640    3.9050 N   0  0  0  0  0  0  0  0  0  0  0  0
    6.6880   52.1410    1.2220 C   0  0  0  0  0  0  0  0  0  0  0  0
    6.5890   53.3190    0.2540 C   0  0  0  0  0  0  0  0  0  0  0  0
   10.2432   51.8793    0.3257 H   0  0  0  0  0  0  0  0  0  0  0  0
    9.2723   52.8406   -0.8404 H   0  0  0  0  0  0  0  0  0  0  0  0
   11.0638   52.9717   -0.8404 H   0  0  0  0  0  0  0  0  0  0  0  0
    9.5105   53.5574    1.6331 H   0  0  0  0  0  0  0  0  0  0  0  0
   11.5660   55.2200    0.8540 H   0  0  0  0  0  0  0  0  0  0  0  0
   10.2085   58.7109   -1.4894 H   0  0  0  0  0  0  0  0  0  0  0  0
    5.7900   60.5890   -0.8110 H   0  0  0  0  0  0  0  0  0  0  0  0
    3.9323   59.2193    0.4370 H   0  0  0  0  0  0  0  0  0  0  0  0
    5.0281   56.8406    1.0572 H   0  0  0  0  0  0  0  0  0  0  0  0
    5.9957   55.2547    0.5290 H   0  0  0  0  0  0  0  0  0  0  0  0
    7.6596   54.2513    2.8852 H   0  0  0  0  0  0  0  0  0  0  0  0
    6.5424   55.6645    2.8269 H   0  0  0  0  0  0  0  0  0  0  0  0
    5.4588   53.7942    3.9680 H   0  0  0  0  0  0  0  0  0  0  0  0
    4.6603   54.1155    2.3650 H   0  0  0  0  0  0  0  0  0  0  0  0
    6.3028   51.7619    3.2703 H   0  0  0  0  0  0  0  0  0  0  0  0
    3.6093   52.3309    2.4479 H   0  0  0  0  0  0  0  0  0  0  0  0
    4.3628   51.2088    1.2345 H   0  0  0  0  0  0  0  0  0  0  0  0
    7.7292   52.0610    1.5676 H   0  0  0  0  0  0  0  0  0  0  0  0
    6.3596   51.2447    0.6753 H   0  0  0  0  0  0  0  0  0  0  0  0
    7.3313   53.1778   -0.5454 H   0  0  0  0  0  0  0  0  0  0  0  0
    5.5603   53.3363   -0.1352 H   0  0  0  0  0  0  0  0  0  0  0  0
  1  2  1  0
  2  3  1  0
  2  4  1  0
  4  5  2  0
  5  6  1  0
  6  7  2  0
  7  8  1  0
  8  9  2  0
  9 10  1  0
 10 11  1  0
 11 12  2  0
 12 13  1  0
 13 14  2  0
 14 15  1  0
 15 16  1  0
 16 17  1  0
 17 18  1  0
 18 19  1  0
 19 20  1  0
 20 21  1  0
 21 22  3  0
 19 23  1  0
 23 24  1  0
 15  4  1  0
 24 16  1  0
 14  6  1  0
 13  9  1  0
  1 25  1  0
  1 26  1  0
  1 27  1  0
  2 28  1  1
  3 29  1  0
  7 30  1  0
 10 31  1  0
 11 32  1  0
 12 33  1  0
 16 34  1  1
 17 35  1  0
 17 36  1  0
 18 37  1  0
 18 38  1  0
 19 39  1  6
 20 40  1  0
 20 41  1  0
 23 42  1  0
 23 43  1  0
 24 44  1  0
 24 45  1  0
M  END
>  <meeko>  (2) 
{"is_sidechain": [false], "free_energy": -8.661, "intermolecular_energy": -10.368, "internal_energy": -0.936}

$$$$
4ivc_ligand
     RDKit          3D

 45 48  0  0  0  0  0  0  0  0999 V2000
    4.0440   50.3320    3.0340 C   0  0  0  0  0  0  0  0  0  0  0  0
    5.1960   50.9040    3.8370 C   0  0  1  0  0  0  0  0  0  0  0  0
    5.5060   50.0870    4.9500 O   0  0  0  0  0  0  0  0  0  0  0  0
    6.4370   51.1960    3.0400 C   0  0  0  0  0  0  0  0  0  0  0  0
    7.3730   50.2580    2.9380 N   0  0  0  0  0  0  0  0  0  0  0  0
    8.4280   50.8230    2.2920 C   0  0  0  0  0  0  0  0  0  0  0  0
    9.6880   50.3050    1.9430 C   0  0  0  0  0  0  0  0  0  0  0  0
   10.6500   51.0540    1.3260 N   0  0  0  0  0  0  0  0  0  0  0  0
   10.3040   52.3310    1.0960 C   0  0  0  0  0  0  0  0  0  0  0  0
   11.0820   53.2980    0.5270 N   0  0  0  0  0  0  0  0  0  0  0  0
   10.3870   54.4890    0.4960 C   0  0  0  0  0  0  0  0  0  0  0  0
    9.1330   54.2820    1.0460 C   0  0  0  0  0  0  0  0  0  0  0  0
    9.0910   52.9090    1.4010 C   0  0  0  0  0  0  0  0  0  0  0  0
    8.1280   52.1340    1.9880 C   0  0  0  0  0  0  0  0  0  0  0  0
    6.8370   52.3620    2.3700 N   0  0  0  0  0  0  0  0  0  0  0  0
    6.0820   53.5790    2.0740 C   0  0  2  0  0  0  0  0  0  0  0  0
    6.1580   53.9880    0.5960 C   0  0  0  0  0  0  0  0  0  0  0  0
    5.3790   55.2790    0.3650 C   0  0  0  0  0  0  0  0  0  0  0  0
    5.9730   56.4740    1.1360 C   0  0  1  0  0  0  0  0  0  0  0  0
    4.8650   57.5030    1.4360 C   0  0  0  0  0  0  0  0  0  0  0  0
    5.0580   58.7580    0.6920 C   0  0  0  0  0  0  0  0  0  0  0  0
    5.2090   59.7460    0.1020 N   0  0  0  0  0  0  0  0  0  0  0  0
    6.7370   56.0360    2.4040 C   0  0  0  0  0  0  0  0  0  0  0  0
    6.1750   54.7710    3.0490 C   0  0  0  0  0  0  0  0  0  0  0  0
    3.2735   49.9494    3.7195 H   0  0  0  0  0  0  0  0  0  0  0  0
    3.6120   51.1202    2.4000 H   0  0  0  0  0  0  0  0  0  0  0  0
    4.4108   49.5114    2.4000 H   0  0  0  0  0  0  0  0  0  0  0  0
    4.8304   51.8804    4.1877 H   0  0  0  0  0  0  0  0  0  0  0  0
    5.5280   49.1700    4.6270 H   0  0  0  0  0  0  0  0  0  0  0  0
    9.9083   49.2529    2.1765 H   0  0  0  0  0  0  0  0  0  0  0  0
   12.0260   53.1430    0.2040 H   0  0  0  0  0  0  0  0  0  0  0  0
   10.7653   55.4432    0.1007 H   0  0  0  0  0  0  0  0  0  0  0  0
    8.3352   55.0273    1.1798 H   0  0  0  0  0  0  0  0  0  0  0  0
    5.0567   53.2403    2.2840 H   0  0  0  0  0  0  0  0  0  0  0  0
    7.2103   54.1437    0.3159 H   0  0  0  0  0  0  0  0  0  0  0  0
    5.7192   53.1893   -0.0201 H   0  0  0  0  0  0  0  0  0  0  0  0
    5.3924   55.5113   -0.7101 H   0  0  0  0  0  0  0  0  0  0  0  0
    4.3543   55.1208    0.7324 H   0  0  0  0  0  0  0  0  0  0  0  0
    6.7268   56.9585    0.4980 H   0  0  0  0  0  0  0  0  0  0  0  0
    3.8936   57.0701    1.1551 H   0  0  0  0  0  0  0  0  0  0  0  0
    4.9024   57.7371    2.5101 H   0  0  0  0  0  0  0  0  0  0  0  0
    7.7864   55.8507    2.1313 H   0  0  0  0  0  0  0  0  0  0  0  0
    6.6333   56.8471    3.1398 H   0  0  0  0  0  0  0  0  0  0  0  0
    6.8282   54.4865    3.8871 H   0  0  0  0  0  0  0  0  0  0  0  0
    5.1519   55.0013    3.3809 H   0  0  0  0  0  0  0  0  0  0  0  0
  1  2  1  0
  2  3  1  0
  2  4  1  0
  4  5  2  0
  5  6  1  0
  6  7  2  0
  7  8  1  0
  8  9  2  0
  9 10  1  0
 10 11  1  0
 11 12  2  0
 12 13  1  0
 13 14  2  0
 14 15  1  0
 15 16  1  0
 16 17  1  0
 17 18  1  0
 18 19  1  0
 19 20  1  0
 20 21  1  0
 21 22  3  0
 19 23  1  0
 23 24  1  0
 15  4  1  0
 24 16  1  0
 14  6  1  0
 13  9  1  0
  1 25  1  0
  1 26  1  0
  1 27  1  0
  2 28  1  1
  3 29  1  0
  7 30  1  0
 10 31  1  0
 11 32  1  0
 12 33  1  0
 16 34  1  1
 17 35  1  0
 17 36  1  0
 18 37  1  0
 18 38  1  0
 19 39  1  1
 20 40  1  0
 20 41  1  0
 23 42  1  0
 23 43  1  0
 24 44  1  0
 24 45  1  0
M  END
>  <meeko>  (3) 
{"is_sidechain": [false], "free_energy": -7.882, "intermolecular_energy": -10.321, "internal_energy": -0.045}

$$$$
4ivc_ligand
     RDKit          3D

 45 48  0  0  0  0  0  0  0  0999 V2000
    2.2930   55.8710    2.2650 C   0  0  0  0  0  0  0  0  0  0  0  0
    3.7810   55.5870    2.1920 C   0  0  1  0  0  0  0  0  0  0  0  0
    4.0430   54.3770    1.5070 O   0  0  0  0  0  0  0  0  0  0  0  0
    4.6090   56.7030    1.6200 C   0  0  0  0  0  0  0  0  0  0  0  0
    4.0720   57.9140    1.5120 N   0  0  0  0  0  0  0  0  0  0  0  0
    4.9740   58.6870    0.8490 C   0  0  0  0  0  0  0  0  0  0  0  0
    4.9200   60.0310    0.4370 C   0  0  0  0  0  0  0  0  0  0  0  0
    5.9240   60.6280   -0.2710 N   0  0  0  0  0  0  0  0  0  0  0  0
    6.9600   59.8240   -0.5600 C   0  0  0  0  0  0  0  0  0  0  0  0
    8.0740   60.1530   -1.2780 N   0  0  0  0  0  0  0  0  0  0  0  0
    8.8920   59.0500   -1.3910 C   0  0  0  0  0  0  0  0  0  0  0  0
    8.3000   57.9910   -0.7230 C   0  0  0  0  0  0  0  0  0  0  0  0
    7.0900   58.5040   -0.1870 C   0  0  0  0  0  0  0  0  0  0  0  0
    6.0890   57.9330    0.5500 C   0  0  0  0  0  0  0  0  0  0  0  0
    5.9180   56.7000    1.1130 N   0  0  0  0  0  0  0  0  0  0  0  0
    6.9410   55.6580    1.1670 C   0  0  2  0  0  0  0  0  0  0  0  0
    6.8590   54.6730   -0.0080 C   0  0  0  0  0  0  0  0  0  0  0  0
    7.9300   53.5970    0.1280 C   0  0  0  0  0  0  0  0  0  0  0  0
    7.7380   52.7260    1.3860 C   0  0  1  0  0  0  0  0  0  0  0  0
    9.0990   52.1690    1.8480 C   0  0  0  0  0  0  0  0  0  0  0  0
   10.2000   53.1080    1.5850 C   0  0  0  0  0  0  0  0  0  0  0  0
   11.0680   53.8510    1.3800 N   0  0  0  0  0  0  0  0  0  0  0  0
    6.9890   53.4740    2.5110 C   0  0  0  0  0  0  0  0  0  0  0  0
    7.2460   54.9800    2.5190 C   0  0  0  0  0  0  0  0  0  0  0  0
    1.9823   55.9303    3.3185 H   0  0  0  0  0  0  0  0  0  0  0  0
    2.0771   56.8266    1.7647 H   0  0  0  0  0  0  0  0  0  0  0  0
    1.7404   55.0621    1.7647 H   0  0  0  0  0  0  0  0  0  0  0  0
    4.0958   55.4910    3.2416 H   0  0  0  0  0  0  0  0  0  0  0  0
    4.9100   54.0640    1.8150 H   0  0  0  0  0  0  0  0  0  0  0  0
    4.0319   60.6262    0.6959 H   0  0  0  0  0  0  0  0  0  0  0  0
    8.2380   61.0680   -1.6720 H   0  0  0  0  0  0  0  0  0  0  0  0
    9.8543   59.0162   -1.9228 H   0  0  0  0  0  0  0  0  0  0  0  0
    8.6870   56.9657   -0.6277 H   0  0  0  0  0  0  0  0  0  0  0  0
    7.8527   56.2614    1.0455 H   0  0  0  0  0  0  0  0  0  0  0  0
    5.8667   54.1984   -0.0151 H   0  0  0  0  0  0  0  0  0  0  0  0
    7.0208   55.2222   -0.9473 H   0  0  0  0  0  0  0  0  0  0  0  0
    7.8921   52.9479   -0.7593 H   0  0  0  0  0  0  0  0  0  0  0  0
    8.9022   54.1036    0.2183 H   0  0  0  0  0  0  0  0  0  0  0  0
    7.0917   51.8755    1.1235 H   0  0  0  0  0  0  0  0  0  0  0  0
    9.0525   51.9709    2.9290 H   0  0  0  0  0  0  0  0  0  0  0  0
    9.2975   51.2474    1.2812 H   0  0  0  0  0  0  0  0  0  0  0  0
    5.9096   53.3059    2.3819 H   0  0  0  0  0  0  0  0  0  0  0  0
    7.3622   53.0775    3.4668 H   0  0  0  0  0  0  0  0  0  0  0  0
    6.6105   55.4386    3.2909 H   0  0  0  0  0  0  0  0  0  0  0  0
    8.3169   55.1268    2.7230 H   0  0  0  0  0  0  0  0  0  0  0  0
  1  2  1  0
  2  3  1  0
  2  4  1  0
  4  5  2  0
  5  6  1  0
  6  7  2  0
  7  8  1  0
  8  9  2  0
  9 10  1  0
 10 11  1  0
 11 12  2  0
 12 13  1  0
 13 14  2  0
 14 15  1  0
 15 16  1  0
 16 17  1  0
 17 18  1  0
 18 19  1  0
 19 20  1  0
 20 21  1  0
 21 22  3  0
 19 23  1  0
 23 24  1  0
 15  4  1  0
 24 16  1  0
 14  6  1  0
 13  9  1  0
  1 25  1  0
  1 26  1  0
  1 27  1  0
  2 28  1  1
  3 29  1  0
  7 30  1  0
 10 31  1  0
 11 32  1  0
 12 33  1  0
 16 34  1  1
 17 35  1  0
 17 36  1  0
 18 37  1  0
 18 38  1  0
 19 39  1  1
 20 40  1  0
 20 41  1  0
 23 42  1  0
 23 43  1  0
 24 44  1  0
 24 45  1  0
M  END
>  <meeko>  (4) 
{"is_sidechain": [false], "free_energy": -7.706, "intermolecular_energy": -9.64, "internal_energy": -0.515}

$$$$
4ivc_ligand
     RDKit          3D

 45 48  0  0  0  0  0  0  0  0999 V2000
   -3.4660   48.2210    3.8570 C   0  0  0  0  0  0  0  0  0  0  0  0
   -2.4160   47.3640    3.1790 C   0  0  1  0  0  0  0  0  0  0  0  0
   -2.5190   47.4380    1.7690 O   0  0  0  0  0  0  0  0  0  0  0  0
   -1.0020   47.6350    3.6140 C   0  0  0  0  0  0  0  0  0  0  0  0
   -0.3790   48.7110    3.1470 N   0  0  0  0  0  0  0  0  0  0  0  0
    0.9070   48.6420    3.5840 C   0  0  0  0  0  0  0  0  0  0  0  0
    2.0080   49.4910    3.3670 C   0  0  0  0  0  0  0  0  0  0  0  0
    3.2550   49.2250    3.8590 N   0  0  0  0  0  0  0  0  0  0  0  0
    3.3500   48.0780    4.5510 C   0  0  0  0  0  0  0  0  0  0  0  0
    4.4780   47.5590    5.1210 N   0  0  0  0  0  0  0  0  0  0  0  0
    4.1810   46.3500    5.7120 C   0  0  0  0  0  0  0  0  0  0  0  0
    2.8330   46.0880    5.5290 C   0  0  0  0  0  0  0  0  0  0  0  0
    2.3210   47.2000    4.8110 C   0  0  0  0  0  0  0  0  0  0  0  0
    1.0720   47.5000    4.3380 C   0  0  0  0  0  0  0  0  0  0  0  0
   -0.1480   46.8980    4.4490 N   0  0  0  0  0  0  0  0  0  0  0  0
   -0.4370   45.7490    5.3050 C   0  0  2  0  0  0  0  0  0  0  0  0
    0.0340   44.4170    4.7020 C   0  0  0  0  0  0  0  0  0  0  0  0
   -0.3260   43.2600    5.6280 C   0  0  0  0  0  0  0  0  0  0  0  0
   -1.8490   43.0960    5.8030 C   0  0  1  0  0  0  0  0  0  0  0  0
   -2.1500   42.4500    7.1700 C   0  0  0  0  0  0  0  0  0  0  0  0
   -0.9700   42.4350    8.0480 C   0  0  0  0  0  0  0  0  0  0  0  0
   -0.0390   42.4260    8.7410 N   0  0  0  0  0  0  0  0  0  0  0  0
   -2.6130   44.4210    5.5900 C   0  0  0  0  0  0  0  0  0  0  0  0
   -1.8130   45.6590    5.9960 C   0  0  0  0  0  0  0  0  0  0  0  0
   -3.3606   48.1350    4.9486 H   0  0  0  0  0  0  0  0  0  0  0  0
   -3.3319   49.2708    3.5573 H   0  0  0  0  0  0  0  0  0  0  0  0
   -4.4677   47.8792    3.5573 H   0  0  0  0  0  0  0  0  0  0  0  0
   -2.6400   46.3398    3.5119 H   0  0  0  0  0  0  0  0  0  0  0  0
   -3.4510   47.6250    1.5670 H   0  0  0  0  0  0  0  0  0  0  0  0
    1.8588   50.4071    2.7767 H   0  0  0  0  0  0  0  0  0  0  0  0
    5.3830   48.0060    5.0830 H   0  0  0  0  0  0  0  0  0  0  0  0
    4.8950   45.7014    6.2407 H   0  0  0  0  0  0  0  0  0  0  0  0
    2.2757   45.2027    5.8692 H   0  0  0  0  0  0  0  0  0  0  0  0
    0.1983   45.9773    6.1735 H   0  0  0  0  0  0  0  0  0  0  0  0
   -0.4538   44.2672    3.7275 H   0  0  0  0  0  0  0  0  0  0  0  0
    1.1263   44.4477    4.5759 H   0  0  0  0  0  0  0  0  0  0  0  0
    0.0828   42.3300    5.2060 H   0  0  0  0  0  0  0  0  0  0  0  0
    0.1027   43.4778    6.6173 H   0  0  0  0  0  0  0  0  0  0  0  0
   -2.2177   42.4209    5.0166 H   0  0  0  0  0  0  0  0  0  0  0  0
   -2.9513   43.0202    7.6628 H   0  0  0  0  0  0  0  0  0  0  0  0
   -2.4525   41.4075    6.9922 H   0  0  0  0  0  0  0  0  0  0  0  0
   -2.8702   44.5070    4.5240 H   0  0  0  0  0  0  0  0  0  0  0  0
   -3.5047   44.3870    6.2332 H   0  0  0  0  0  0  0  0  0  0  0  0
   -2.3958   46.5537    5.7316 H   0  0  0  0  0  0  0  0  0  0  0  0
   -1.6304   45.5887    7.0785 H   0  0  0  0  0  0  0  0  0  0  0  0
  1  2  1  0
  2  3  1  0
  2  4  1  0
  4  5  2  0
  5  6  1  0
  6  7  2  0
  7  8  1  0
  8  9  2  0
  9 10  1  0
 10 11  1  0
 11 12  2  0
 12 13  1  0
 13 14  2  0
 14 15  1  0
 15 16  1  0
 16 17  1  0
 17 18  1  0
 18 19  1  0
 19 20  1  0
 20 21  1  0
 21 22  3  0
 19 23  1  0
 23 24  1  0
 15  4  1  0
 24 16  1  0
 14  6  1  0
 13  9  1  0
  1 25  1  0
  1 26  1  0
  1 27  1  0
  2 28  1  1
  3 29  1  0
  7 30  1  0
 10 31  1  0
 11 32  1  0
 12 33  1  0
 16 34  1  6
 17 35  1  0
 17 36  1  0
 18 37  1  0
 18 38  1  0
 19 39  1  1
 20 40  1  0
 20 41  1  0
 23 42  1  0
 23 43  1  0
 24 44  1  0
 24 45  1  0
M  END
>  <meeko>  (5) 
{"is_sidechain": [false], "free_energy": -7.653, "intermolecular_energy": -9.607, "internal_energy": -0.484}

$$$$
4ivc_ligand
     RDKit          3D

 45 48  0  0  0  0  0  0  0  0999 V2000
    2.9320   56.1270    1.9650 C   0  0  0  0  0  0  0  0  0  0  0  0
    4.4080   56.2830    1.6520 C   0  0  1  0  0  0  0  0  0  0  0  0
    5.0090   57.2700    2.4690 O   0  0  0  0  0  0  0  0  0  0  0  0
    5.2020   55.0070    1.7010 C   0  0  0  0  0  0  0  0  0  0  0  0
    4.6630   53.9340    2.2700 N   0  0  0  0  0  0  0  0  0  0  0  0
    5.6290   52.9780    2.3010 C   0  0  0  0  0  0  0  0  0  0  0  0
    5.6220   51.6680    2.8140 C   0  0  0  0  0  0  0  0  0  0  0  0
    6.7240   50.8600    2.7930 N   0  0  0  0  0  0  0  0  0  0  0  0
    7.8210   51.4230    2.2600 C   0  0  0  0  0  0  0  0  0  0  0  0
    9.0570   50.8540    2.1450 N   0  0  0  0  0  0  0  0  0  0  0  0
    9.9300   51.7590    1.5790 C   0  0  0  0  0  0  0  0  0  0  0  0
    9.2400   52.9310    1.3140 C   0  0  0  0  0  0  0  0  0  0  0  0
    7.9050   52.6930    1.7330 C   0  0  0  0  0  0  0  0  0  0  0  0
    6.7820   53.4750    1.7320 C   0  0  0  0  0  0  0  0  0  0  0  0
    6.5040   54.7260    1.2610 N   0  0  0  0  0  0  0  0  0  0  0  0
    7.4120   55.5310    0.4440 C   0  0  2  0  0  0  0  0  0  0  0  0
    8.4540   56.2910    1.2770 C   0  0  0  0  0  0  0  0  0  0  0  0
    9.3440   57.1330    0.3690 C   0  0  0  0  0  0  0  0  0  0  0  0
    8.5590   58.2310   -0.3760 C   0  0  1  0  0  0  0  0  0  0  0  0
    9.2670   58.5710   -1.7010 C   0  0  0  0  0  0  0  0  0  0  0  0
   10.3010   57.5830   -2.0470 C   0  0  0  0  0  0  0  0  0  0  0  0
   11.1140   56.8010   -2.3200 N   0  0  0  0  0  0  0  0  0  0  0  0
    7.0720   57.8600   -0.5740 C   0  0  0  0  0  0  0  0  0  0  0  0
    6.8330   56.3580   -0.7220 C   0  0  0  0  0  0  0  0  0  0  0  0
    2.7880   56.1118    3.0554 H   0  0  0  0  0  0  0  0  0  0  0  0
    2.3744   56.9712    1.5333 H   0  0  0  0  0  0  0  0  0  0  0  0
    2.5632   55.1849    1.5333 H   0  0  0  0  0  0  0  0  0  0  0  0
    4.4342   56.6098    0.6020 H   0  0  0  0  0  0  0  0  0  0  0  0
    5.1930   56.8480    3.3250 H   0  0  0  0  0  0  0  0  0  0  0  0
    4.6906   51.2778    3.2502 H   0  0  0  0  0  0  0  0  0  0  0  0
    9.2760   49.9180    2.4530 H   0  0  0  0  0  0  0  0  0  0  0  0
   10.9956   51.5804    1.3725 H   0  0  0  0  0  0  0  0  0  0  0  0
    9.6430   53.8537    0.8711 H   0  0  0  0  0  0  0  0  0  0  0  0
    7.9319   54.7433   -0.1211 H   0  0  0  0  0  0  0  0  0  0  0  0
    7.9378   56.9493    1.9913 H   0  0  0  0  0  0  0  0  0  0  0  0
    9.0788   55.5651    1.8180 H   0  0  0  0  0  0  0  0  0  0  0  0
   10.1221   57.6106    0.9825 H   0  0  0  0  0  0  0  0  0  0  0  0
    9.7789   56.4625   -0.3869 H   0  0  0  0  0  0  0  0  0  0  0  0
    8.5509   59.1362    0.2490 H   0  0  0  0  0  0  0  0  0  0  0  0
    8.5182   58.5973   -2.5064 H   0  0  0  0  0  0  0  0  0  0  0  0
    9.7591   59.5474   -1.5806 H   0  0  0  0  0  0  0  0  0  0  0  0
    6.5047   58.2186    0.2975 H   0  0  0  0  0  0  0  0  0  0  0  0
    6.7422   58.3339   -1.5103 H   0  0  0  0  0  0  0  0  0  0  0  0
    5.7486   56.1801   -0.7717 H   0  0  0  0  0  0  0  0  0  0  0  0
    7.3482   56.0346   -1.6385 H   0  0  0  0  0  0  0  0  0  0  0  0
  1  2  1  0
  2  3  1  0
  2  4  1  0
  4  5  2  0
  5  6  1  0
  6  7  2  0
  7  8  1  0
  8  9  2  0
  9 10  1  0
 10 11  1  0
 11 12  2  0
 12 13  1  0
 13 14  2  0
 14 15  1  0
 15 16  1  0
 16 17  1  0
 17 18  1  0
 18 19  1  0
 19 20  1  0
 20 21  1  0
 21 22  3  0
 19 23  1  0
 23 24  1  0
 15  4  1  0
 24 16  1  0
 14  6  1  0
 13  9  1  0
  1 25  1  0
  1 26  1  0
  1 27  1  0
  2 28  1  6
  3 29  1  0
  7 30  1  0
 10 31  1  0
 11 32  1  0
 12 33  1  0
 16 34  1  1
 17 35  1  0
 17 36  1  0
 18 37  1  0
 18 38  1  0
 19 39  1  6
 20 40  1  0
 20 41  1  0
 23 42  1  0
 23 43  1  0
 24 44  1  0
 24 45  1  0
M  END
>  <meeko>  (6) 
{"is_sidechain": [false], "free_energy": -7.539, "intermolecular_energy": -9.32, "internal_energy": -0.633}

$$$$
4ivc_ligand
     RDKit          3D

 45 48  0  0  0  0  0  0  0  0999 V2000
   10.3590   56.2550    0.1410 C   0  0  0  0  0  0  0  0  0  0  0  0
    9.9940   54.9210   -0.4800 C   0  0  1  0  0  0  0  0  0  0  0  0
   11.1110   54.3180   -1.1050 O   0  0  0  0  0  0  0  0  0  0  0  0
    9.3310   53.9500    0.4570 C   0  0  0  0  0  0  0  0  0  0  0  0
   10.0010   52.8700    0.8460 N   0  0  0  0  0  0  0  0  0  0  0  0
    9.1350   52.1080    1.5660 C   0  0  0  0  0  0  0  0  0  0  0  0
    9.2970   50.8560    2.1880 C   0  0  0  0  0  0  0  0  0  0  0  0
    8.2790   50.2160    2.8370 N   0  0  0  0  0  0  0  0  0  0  0  0
    7.1060   50.8690    2.8190 C   0  0  0  0  0  0  0  0  0  0  0  0
    5.9260   50.4440    3.3610 N   0  0  0  0  0  0  0  0  0  0  0  0
    4.9410   51.3740    3.1050 C   0  0  0  0  0  0  0  0  0  0  0  0
    5.4980   52.4230    2.3930 C   0  0  0  0  0  0  0  0  0  0  0  0
    6.8700   52.0970    2.2400 C   0  0  0  0  0  0  0  0  0  0  0  0
    7.9100   52.7370    1.6230 C   0  0  0  0  0  0  0  0  0  0  0  0
    8.0400   53.9490    1.0070 N   0  0  0  0  0  0  0  0  0  0  0  0
    7.0160   54.9930    0.9960 C   0  0  2  0  0  0  0  0  0  0  0  0
    6.2090   55.0270   -0.3110 C   0  0  0  0  0  0  0  0  0  0  0  0
    5.1840   56.1560   -0.2690 C   0  0  0  0  0  0  0  0  0  0  0  0
    5.8410   57.5470   -0.1750 C   0  0  1  0  0  0  0  0  0  0  0  0
    4.8820   58.5310    0.5240 C   0  0  0  0  0  0  0  0  0  0  0  0
    5.3000   59.9310    0.3500 C   0  0  0  0  0  0  0  0  0  0  0  0
    5.6290   61.0350    0.2090 N   0  0  0  0  0  0  0  0  0  0  0  0
    7.2330   57.4980    0.4920 C   0  0  0  0  0  0  0  0  0  0  0  0
    7.3700   56.3930    1.5380 C   0  0  0  0  0  0  0  0  0  0  0  0
   10.3352   56.1679    1.2373 H   0  0  0  0  0  0  0  0  0  0  0  0
   11.3696   56.5455   -0.1819 H   0  0  0  0  0  0  0  0  0  0  0  0
    9.6370   57.0195   -0.1819 H   0  0  0  0  0  0  0  0  0  0  0  0
    9.2372   55.1677   -1.2392 H   0  0  0  0  0  0  0  0  0  0  0  0
   11.8170   54.9850   -1.1180 H   0  0  0  0  0  0  0  0  0  0  0  0
   10.2843   50.3725    2.1501 H   0  0  0  0  0  0  0  0  0  0  0  0
    5.8160   49.5690    3.8520 H   0  0  0  0  0  0  0  0  0  0  0  0
    3.8884   51.2958    3.4146 H   0  0  0  0  0  0  0  0  0  0  0  0
    4.9835   53.3221    2.0230 H   0  0  0  0  0  0  0  0  0  0  0  0
    6.3542   54.6398    1.8005 H   0  0  0  0  0  0  0  0  0  0  0  0
    6.8937   55.1893   -1.1565 H   0  0  0  0  0  0  0  0  0  0  0  0
    5.6824   54.0689   -0.4323 H   0  0  0  0  0  0  0  0  0  0  0  0
    4.5758   56.1144   -1.1846 H   0  0  0  0  0  0  0  0  0  0  0  0
    4.5690   56.0155    0.6321 H   0  0  0  0  0  0  0  0  0  0  0  0
    6.0231   57.9136   -1.1960 H   0  0  0  0  0  0  0  0  0  0  0  0
    3.8749   58.4064    0.0995 H   0  0  0  0  0  0  0  0  0  0  0  0
    4.8925   58.3062    1.6007 H   0  0  0  0  0  0  0  0  0  0  0  0
    7.9882   57.3321   -0.2904 H   0  0  0  0  0  0  0  0  0  0  0  0
    7.3754   58.4560    1.0135 H   0  0  0  0  0  0  0  0  0  0  0  0
    8.4105   56.3766    1.8944 H   0  0  0  0  0  0  0  0  0  0  0  0
    6.6587   56.6191    2.3461 H   0  0  0  0  0  0  0  0  0  0  0  0
  1  2  1  0
  2  3  1  0
  2  4  1  0
  4  5  2  0
  5  6  1  0
  6  7  2  0
  7  8  1  0
  8  9  2  0
  9 10  1  0
 10 11  1  0
 11 12  2  0
 12 13  1  0
 13 14  2  0
 14 15  1  0
 15 16  1  0
 16 17  1  0
 17 18  1  0
 18 19  1  0
 19 20  1  0
 20 21  1  0
 21 22  3  0
 19 23  1  0
 23 24  1  0
 15  4  1  0
 24 16  1  0
 14  6  1  0
 13  9  1  0
  1 25  1  0
  1 26  1  0
  1 27  1  0
  2 28  1  6
  3 29  1  0
  7 30  1  0
 10 31  1  0
 11 32  1  0
 12 33  1  0
 16 34  1  6
 17 35  1  0
 17 36  1  0
 18 37  1  0
 18 38  1  0
 19 39  1  1
 20 40  1  0
 20 41  1  0
 23 42  1  0
 23 43  1  0
 24 44  1  0
 24 45  1  0
M  END
>  <meeko>  (7) 
{"is_sidechain": [false], "free_energy": -7.493, "intermolecular_energy": -9.238, "internal_energy": -0.66}

$$$$
4ivc_ligand
     RDKit          3D

 45 48  0  0  0  0  0  0  0  0999 V2000
    9.1010   52.5430    0.6140 C   0  0  0  0  0  0  0  0  0  0  0  0
    9.6030   53.8260    1.2470 C   0  0  1  0  0  0  0  0  0  0  0  0
   10.8940   53.6590    1.8000 O   0  0  0  0  0  0  0  0  0  0  0  0
    9.5710   55.0290    0.3450 C   0  0  0  0  0  0  0  0  0  0  0  0
   10.5950   55.2490   -0.4730 N   0  0  0  0  0  0  0  0  0  0  0  0
   10.3750   56.4540   -1.0630 C   0  0  0  0  0  0  0  0  0  0  0  0
   11.1420   57.1890   -1.9860 C   0  0  0  0  0  0  0  0  0  0  0  0
   10.7720   58.4240   -2.4370 N   0  0  0  0  0  0  0  0  0  0  0  0
    9.6260   58.8910   -1.9140 C   0  0  0  0  0  0  0  0  0  0  0  0
    9.0470   60.1020   -2.1650 N   0  0  0  0  0  0  0  0  0  0  0  0
    7.9000   60.2280   -1.4130 C   0  0  0  0  0  0  0  0  0  0  0  0
    7.7290   59.0720   -0.6690 C   0  0  0  0  0  0  0  0  0  0  0  0
    8.8180   58.2300   -1.0140 C   0  0  0  0  0  0  0  0  0  0  0  0
    9.1880   56.9800   -0.6000 C   0  0  0  0  0  0  0  0  0  0  0  0
    8.6170   56.0510    0.2210 N   0  0  0  0  0  0  0  0  0  0  0  0
    7.2730   56.1520    0.7870 C   0  0  2  0  0  0  0  0  0  0  0  0
    7.2260   55.8200    2.2860 C   0  0  0  0  0  0  0  0  0  0  0  0
    5.7940   55.9120    2.8030 C   0  0  0  0  0  0  0  0  0  0  0  0
    4.8600   54.8800    2.1420 C   0  0  1  0  0  0  0  0  0  0  0  0
    3.4120   55.4110    2.1440 C   0  0  0  0  0  0  0  0  0  0  0  0
    3.3190   56.7670    1.5820 C   0  0  0  0  0  0  0  0  0  0  0  0
    3.2460   57.8360    1.1360 N   0  0  0  0  0  0  0  0  0  0  0  0
    5.3400   54.4670    0.7340 C   0  0  0  0  0  0  0  0  0  0  0  0
    6.0820   55.5770   -0.0080 C   0  0  0  0  0  0  0  0  0  0  0  0
    8.8218   51.8295    1.4033 H   0  0  0  0  0  0  0  0  0  0  0  0
    8.2221   52.7616   -0.0103 H   0  0  0  0  0  0  0  0  0  0  0  0
    9.8949   52.1071   -0.0103 H   0  0  0  0  0  0  0  0  0  0  0  0
    8.8831   54.0372    2.0515 H   0  0  0  0  0  0  0  0  0  0  0  0
   10.8480   53.9750    2.7180 H   0  0  0  0  0  0  0  0  0  0  0  0
   12.0789   56.7504   -2.3600 H   0  0  0  0  0  0  0  0  0  0  0  0
    9.4330   60.7890   -2.7960 H   0  0  0  0  0  0  0  0  0  0  0  0
    7.2311   61.1012   -1.4046 H   0  0  0  0  0  0  0  0  0  0  0  0
    6.9181   58.8525    0.0412 H   0  0  0  0  0  0  0  0  0  0  0  0
    7.0816   57.2285    0.6667 H   0  0  0  0  0  0  0  0  0  0  0  0
    7.6040   54.7991    2.4438 H   0  0  0  0  0  0  0  0  0  0  0  0
    7.8512   56.5415    2.8324 H   0  0  0  0  0  0  0  0  0  0  0  0
    5.7993   55.7381    3.8891 H   0  0  0  0  0  0  0  0  0  0  0  0
    5.4132   56.9139    2.5554 H   0  0  0  0  0  0  0  0  0  0  0  0
    4.8870   53.9560    2.7383 H   0  0  0  0  0  0  0  0  0  0  0  0
    2.7854   54.7347    1.5440 H   0  0  0  0  0  0  0  0  0  0  0  0
    3.0681   55.4528    3.1880 H   0  0  0  0  0  0  0  0  0  0  0  0
    6.0153   53.6047    0.8356 H   0  0  0  0  0  0  0  0  0  0  0  0
    4.4429   54.2278    0.1441 H   0  0  0  0  0  0  0  0  0  0  0  0
    6.4599   55.1701   -0.9576 H   0  0  0  0  0  0  0  0  0  0  0  0
    5.3675   56.3986   -0.1643 H   0  0  0  0  0  0  0  0  0  0  0  0
  1  2  1  0
  2  3  1  0
  2  4  1  0
  4  5  2  0
  5  6  1  0
  6  7  2  0
  7  8  1  0
  8  9  2  0
  9 10  1  0
 10 11  1  0
 11 12  2  0
 12 13  1  0
 13 14  2  0
 14 15  1  0
 15 16  1  0
 16 17  1  0
 17 18  1  0
 18 19  1  0
 19 20  1  0
 20 21  1  0
 21 22  3  0
 19 23  1  0
 23 24  1  0
 15  4  1  0
 24 16  1  0
 14  6  1  0
 13  9  1  0
  1 25  1  0
  1 26  1  0
  1 27  1  0
  2 28  1  1
  3 29  1  0
  7 30  1  0
 10 31  1  0
 11 32  1  0
 12 33  1  0
 16 34  1  6
 17 35  1  0
 17 36  1  0
 18 37  1  0
 18 38  1  0
 19 39  1  6
 20 40  1  0
 20 41  1  0
 23 42  1  0
 23 43  1  0
 24 44  1  0
 24 45  1  0
M  END
>  <meeko>  (8) 
{"is_sidechain": [false], "free_energy": -7.438, "intermolecular_energy": -9.073, "internal_energy": -0.758}

$$$$
4ivc_ligand
     RDKit          3D

 45 48  0  0  0  0  0  0  0  0999 V2000
    6.2220   55.1410    3.5100 C   0  0  0  0  0  0  0  0  0  0  0  0
    5.7760   53.8420    2.8670 C   0  0  1  0  0  0  0  0  0  0  0  0
    4.6870   54.0470    1.9870 O   0  0  0  0  0  0  0  0  0  0  0  0
    6.8680   53.0720    2.1780 C   0  0  0  0  0  0  0  0  0  0  0  0
    7.0150   51.7790    2.4490 N   0  0  0  0  0  0  0  0  0  0  0  0
    8.1410   51.3670    1.8060 C   0  0  0  0  0  0  0  0  0  0  0  0
    8.7820   50.1160    1.7680 C   0  0  0  0  0  0  0  0  0  0  0  0
    9.9510   49.9050    1.0920 N   0  0  0  0  0  0  0  0  0  0  0  0
   10.4490   50.9930    0.4820 C   0  0  0  0  0  0  0  0  0  0  0  0
   11.6120   51.0690   -0.2310 N   0  0  0  0  0  0  0  0  0  0  0  0
   11.7990   52.3630   -0.6690 C   0  0  0  0  0  0  0  0  0  0  0  0
   10.7310   53.1330   -0.2400 C   0  0  0  0  0  0  0  0  0  0  0  0
    9.8780   52.2470    0.4680 C   0  0  0  0  0  0  0  0  0  0  0  0
    8.6910   52.4310    1.1230 C   0  0  0  0  0  0  0  0  0  0  0  0
    7.8490   53.4950    1.2680 N   0  0  0  0  0  0  0  0  0  0  0  0
    7.9850   54.7690    0.5630 C   0  0  2  0  0  0  0  0  0  0  0  0
    8.7910   55.8100    1.3540 C   0  0  0  0  0  0  0  0  0  0  0  0
    8.8660   57.1210    0.5780 C   0  0  0  0  0  0  0  0  0  0  0  0
    7.4820   57.7670    0.3740 C   0  0  1  0  0  0  0  0  0  0  0  0
    7.4910   58.6280   -0.9040 C   0  0  0  0  0  0  0  0  0  0  0  0
    6.8260   59.9250   -0.7030 C   0  0  0  0  0  0  0  0  0  0  0  0
    6.3040   60.9500   -0.5430 N   0  0  0  0  0  0  0  0  0  0  0  0
    6.3390   56.7280    0.3820 C   0  0  0  0  0  0  0  0  0  0  0  0
    6.7550   55.3600   -0.1570 C   0  0  0  0  0  0  0  0  0  0  0  0
    6.1870   55.0392    4.6047 H   0  0  0  0  0  0  0  0  0  0  0  0
    7.2507   55.3714    3.1958 H   0  0  0  0  0  0  0  0  0  0  0  0
    5.5518   55.9547    3.1958 H   0  0  0  0  0  0  0  0  0  0  0  0
    5.4536   53.2133    3.7101 H   0  0  0  0  0  0  0  0  0  0  0  0
    4.4770   53.1830    1.5960 H   0  0  0  0  0  0  0  0  0  0  0  0
    8.3236   49.2722    2.3046 H   0  0  0  0  0  0  0  0  0  0  0  0
   12.2310   50.2860   -0.3810 H   0  0  0  0  0  0  0  0  0  0  0  0
   12.6537   52.7234   -1.2603 H   0  0  0  0  0  0  0  0  0  0  0  0
   10.5760   54.2083   -0.4123 H   0  0  0  0  0  0  0  0  0  0  0  0
    8.5836   54.4583   -0.3060 H   0  0  0  0  0  0  0  0  0  0  0  0
    8.3012   55.9889    2.3226 H   0  0  0  0  0  0  0  0  0  0  0  0
    9.8105   55.4287    1.5126 H   0  0  0  0  0  0  0  0  0  0  0  0
    9.5046   57.8235    1.1335 H   0  0  0  0  0  0  0  0  0  0  0  0
    9.2798   56.8972   -0.4163 H   0  0  0  0  0  0  0  0  0  0  0  0
    7.2789   58.4269    1.2303 H   0  0  0  0  0  0  0  0  0  0  0  0
    8.5342   58.8070   -1.2036 H   0  0  0  0  0  0  0  0  0  0  0  0
    6.9396   58.0822   -1.6837 H   0  0  0  0  0  0  0  0  0  0  0  0
    5.9896   56.6027    1.4175 H   0  0  0  0  0  0  0  0  0  0  0  0
    5.5493   57.1106   -0.2813 H   0  0  0  0  0  0  0  0  0  0  0  0
    5.9112   54.6650   -0.0343 H   0  0  0  0  0  0  0  0  0  0  0  0
    7.0298   55.4957   -1.2134 H   0  0  0  0  0  0  0  0  0  0  0  0
  1  2  1  0
  2  3  1  0
  2  4  1  0
  4  5  2  0
  5  6  1  0
  6  7  2  0
  7  8  1  0
  8  9  2  0
  9 10  1  0
 10 11  1  0
 11 12  2  0
 12 13  1  0
 13 14  2  0
 14 15  1  0
 15 16  1  0
 16 17  1  0
 17 18  1  0
 18 19  1  0
 19 20  1  0
 20 21  1  0
 21 22  3  0
 19 23  1  0
 23 24  1  0
 15  4  1  0
 24 16  1  0
 14  6  1  0
 13  9  1  0
  1 25  1  0
  1 26  1  0
  1 27  1  0
  2 28  1  1
  3 29  1  0
  7 30  1  0
 10 31  1  0
 11 32  1  0
 12 33  1  0
 16 34  1  1
 17 35  1  0
 17 36  1  0
 18 37  1  0
 18 38  1  0
 19 39  1  6
 20 40  1  0
 20 41  1  0
 23 42  1  0
 23 43  1  0
 24 44  1  0
 24 45  1  0
M  END
>  <meeko>  (9) 
{"is_sidechain": [false], "free_energy": -7.378, "intermolecular_energy": -9.06, "internal_energy": -0.699}

$$$$
