4e5w_ligand
     RDKit          3D

 57 61  0  0  0  0  0  0  0  0999 V2000
    8.2560   59.0260   -0.6650 C   0  0  0  0  0  0  0  0  0  0  0  0
    7.2290   60.1220   -0.4010 C   0  0  0  0  0  0  0  0  0  0  0  0
    7.6940   61.0750    0.6970 C   0  0  0  0  0  0  0  0  0  0  0  0
    5.8810   59.5580   -0.0350 N   0  0  2  0  0  0  0  0  0  0  0  0
    4.7460   60.5000    0.2630 C   0  0  0  0  0  0  0  0  0  0  0  0
    3.7890   59.6470    1.0690 C   0  0  0  0  0  0  0  0  0  0  0  0
    4.7120   58.8280    1.9560 C   0  0  0  0  0  0  0  0  0  0  0  0
    5.8790   58.4450    1.0490 C   0  0  1  0  0  0  0  0  0  0  0  0
    5.6690   57.0830    0.3530 C   0  0  0  0  0  0  0  0  0  0  0  0
    5.2860   57.1210   -0.8230 O   0  0  0  0  0  0  0  0  0  0  0  0
    5.8880   55.9040    1.0520 N   0  0  0  0  0  0  0  0  0  0  0  0
    5.7860   54.6580    0.2900 C   0  0  0  0  0  0  0  0  0  0  0  0
    5.3290   53.5010    1.1660 C   0  0  0  0  0  0  0  0  0  0  0  0
    6.2410   53.2950    2.3840 C   0  0  0  0  0  0  0  0  0  0  0  0
    7.4630   52.5750    2.0430 N   0  0  0  0  0  0  0  0  0  0  0  0
    8.5760   53.1020    1.4260 C   0  0  0  0  0  0  0  0  0  0  0  0
    9.4960   52.1980    1.1700 N   0  0  0  0  0  0  0  0  0  0  0  0
    9.0020   51.0330    1.6950 C   0  0  0  0  0  0  0  0  0  0  0  0
    9.5320   49.7310    1.7570 C   0  0  0  0  0  0  0  0  0  0  0  0
    8.8670   48.6900    2.3480 N   0  0  0  0  0  0  0  0  0  0  0  0
    7.6730   49.0050    2.8760 C   0  0  0  0  0  0  0  0  0  0  0  0
    6.8120   48.1720    3.5340 N   0  0  0  0  0  0  0  0  0  0  0  0
    5.6970   48.8840    3.9280 C   0  0  0  0  0  0  0  0  0  0  0  0
    5.8380   50.2000    3.5200 C   0  0  0  0  0  0  0  0  0  0  0  0
    7.0870   50.2500    2.8550 C   0  0  0  0  0  0  0  0  0  0  0  0
    7.7570   51.2720    2.2500 C   0  0  0  0  0  0  0  0  0  0  0  0
    6.4120   54.6300    3.1390 C   0  0  0  0  0  0  0  0  0  0  0  0
    6.7180   55.8390    2.2530 C   0  0  0  0  0  0  0  0  0  0  0  0
    8.6257   58.6315    0.2930 H   0  0  0  0  0  0  0  0  0  0  0  0
    7.7862   58.2139   -1.2392 H   0  0  0  0  0  0  0  0  0  0  0  0
    9.0969   59.4421   -1.2392 H   0  0  0  0  0  0  0  0  0  0  0  0
    7.1297   60.6815   -1.3429 H   0  0  0  0  0  0  0  0  0  0  0  0
    7.4786   60.6335    1.6812 H   0  0  0  0  0  0  0  0  0  0  0  0
    8.7764   61.2453    0.6005 H   0  0  0  0  0  0  0  0  0  0  0  0
    7.1621   62.0330    0.6005 H   0  0  0  0  0  0  0  0  0  0  0  0
    5.5820   59.0200   -0.8770 H   0  0  0  0  0  0  0  0  0  0  0  0
    5.0938   61.3634    0.8491 H   0  0  0  0  0  0  0  0  0  0  0  0
    4.2877   60.9227   -0.6433 H   0  0  0  0  0  0  0  0  0  0  0  0
    3.1159   60.2734    1.6728 H   0  0  0  0  0  0  0  0  0  0  0  0
    3.1329   59.0261    0.4413 H   0  0  0  0  0  0  0  0  0  0  0  0
    5.0635   59.4274    2.8087 H   0  0  0  0  0  0  0  0  0  0  0  0
    4.2083   57.9475    2.3815 H   0  0  0  0  0  0  0  0  0  0  0  0
    6.8122   58.3567    1.6246 H   0  0  0  0  0  0  0  0  0  0  0  0
    5.0606   54.7966   -0.5252 H   0  0  0  0  0  0  0  0  0  0  0  0
    6.7826   54.4155   -0.1076 H   0  0  0  0  0  0  0  0  0  0  0  0
    4.3080   53.7072    1.5197 H   0  0  0  0  0  0  0  0  0  0  0  0
    5.3671   52.5845    0.5589 H   0  0  0  0  0  0  0  0  0  0  0  0
    5.7647   52.6157    3.1064 H   0  0  0  0  0  0  0  0  0  0  0  0
    8.6839   54.1673    1.1739 H   0  0  0  0  0  0  0  0  0  0  0  0
   10.5204   49.5418    1.3128 H   0  0  0  0  0  0  0  0  0  0  0  0
    6.9910   47.1910    3.6980 H   0  0  0  0  0  0  0  0  0  0  0  0
    4.8367   48.4731    4.4766 H   0  0  0  0  0  0  0  0  0  0  0  0
    5.1316   51.0282    3.6785 H   0  0  0  0  0  0  0  0  0  0  0  0
    5.4797   54.8348    3.6857 H   0  0  0  0  0  0  0  0  0  0  0  0
    7.2845   54.5019    3.7965 H   0  0  0  0  0  0  0  0  0  0  0  0
    6.5518   56.7534    2.8415 H   0  0  0  0  0  0  0  0  0  0  0  0
    7.7622   55.7419    1.9209 H   0  0  0  0  0  0  0  0  0  0  0  0
  1  2  1  0
  2  3  1  0
  2  4  1  0
  4  5  1  0
  5  6  1  0
  6  7  1  0
  7  8  1  0
  8  9  1  0
  9 10  2  0
  9 11  1  0
 11 12  1  0
 12 13  1  0
 13 14  1  0
 14 15  1  0
 15 16  1  0
 16 17  2  0
 17 18  1  0
 18 19  2  0
 19 20  1  0
 20 21  2  0
 21 22  1  0
 22 23  1  0
 23 24  2  0
 24 25  1  0
 25 26  2  0
 14 27  1  0
 27 28  1  0
  8  4  1  0
 28 11  1  0
 26 15  1  0
 26 18  1  0
 25 21  1  0
  1 29  1  0
  1 30  1  0
  1 31  1  0
  2 32  1  0
  3 33  1  0
  3 34  1  0
  3 35  1  0
  4 36  1  6
  5 37  1  0
  5 38  1  0
  6 39  1  0
  6 40  1  0
  7 41  1  0
  7 42  1  0
  8 43  1  1
 12 44  1  0
 12 45  1  0
 13 46  1  0
 13 47  1  0
 14 48  1  0
 16 49  1  0
 19 50  1  0
 22 51  1  0
 23 52  1  0
 24 53  1  0
 27 54  1  0
 27 55  1  0
 28 56  1  0
 28 57  1  0
M  CHG  1   4   1
M  END
>  <meeko>  (1) 
{"is_sidechain": [false], "free_energy": -8.31, "intermolecular_energy": -9.767, "internal_energy": -0.686}

$$$$
4e5w_ligand
     RDKit          3D

 57 61  0  0  0  0  0  0  0  0999 V2000
    9.5460   48.8160   -0.4640 C   0  0  0  0  0  0  0  0  0  0  0  0
    9.1710   50.2270   -0.0220 C   0  0  0  0  0  0  0  0  0  0  0  0
   10.3570   51.1810   -0.1230 C   0  0  0  0  0  0  0  0  0  0  0  0
    8.6280   50.2530    1.3830 N   0  0  2  0  0  0  0  0  0  0  0  0
    8.4290   48.9560    2.1200 C   0  0  0  0  0  0  0  0  0  0  0  0
    7.4280   49.3170    3.1960 C   0  0  0  0  0  0  0  0  0  0  0  0
    6.4710   50.2580    2.4840 C   0  0  0  0  0  0  0  0  0  0  0  0
    7.3670   51.1330    1.6120 C   0  0  1  0  0  0  0  0  0  0  0  0
    7.8000   52.4330    2.3210 C   0  0  0  0  0  0  0  0  0  0  0  0
    8.7520   52.3410    3.1060 O   0  0  0  0  0  0  0  0  0  0  0  0
    7.1160   53.6180    2.0800 N   0  0  0  0  0  0  0  0  0  0  0  0
    7.6600   54.8300    2.6950 C   0  0  0  0  0  0  0  0  0  0  0  0
    6.5680   55.8460    2.9950 C   0  0  0  0  0  0  0  0  0  0  0  0
    5.7540   56.2130    1.7460 C   0  0  0  0  0  0  0  0  0  0  0  0
    6.4460   57.1830    0.9030 N   0  0  0  0  0  0  0  0  0  0  0  0
    7.6040   56.9650    0.1900 C   0  0  0  0  0  0  0  0  0  0  0  0
    8.0420   58.0460   -0.4170 N   0  0  0  0  0  0  0  0  0  0  0  0
    7.1030   59.0070   -0.1490 C   0  0  0  0  0  0  0  0  0  0  0  0
    7.0010   60.3550   -0.5390 C   0  0  0  0  0  0  0  0  0  0  0  0
    5.9550   61.1540   -0.1640 N   0  0  0  0  0  0  0  0  0  0  0  0
    5.0250   60.5540    0.5960 C   0  0  0  0  0  0  0  0  0  0  0  0
    3.8780   61.1070    1.0940 N   0  0  0  0  0  0  0  0  0  0  0  0
    3.1880   60.1570    1.8190 C   0  0  0  0  0  0  0  0  0  0  0  0
    3.8990   58.9680    1.7900 C   0  0  0  0  0  0  0  0  0  0  0  0
    5.0540   59.2450    1.0200 C   0  0  0  0  0  0  0  0  0  0  0  0
    6.1100   58.4670    0.6480 C   0  0  0  0  0  0  0  0  0  0  0  0
    5.2500   54.9290    1.0550 C   0  0  0  0  0  0  0  0  0  0  0  0
    6.3020   53.8310    0.8850 C   0  0  0  0  0  0  0  0  0  0  0  0
    9.7133   48.1864    0.4224 H   0  0  0  0  0  0  0  0  0  0  0  0
    8.7295   48.3914   -1.0665 H   0  0  0  0  0  0  0  0  0  0  0  0
   10.4656   48.8527   -1.0665 H   0  0  0  0  0  0  0  0  0  0  0  0
    8.3809   50.5635   -0.7093 H   0  0  0  0  0  0  0  0  0  0  0  0
   10.6956   51.4533    0.8875 H   0  0  0  0  0  0  0  0  0  0  0  0
   11.1783   50.6890   -0.6647 H   0  0  0  0  0  0  0  0  0  0  0  0
   10.0524   52.0886   -0.6647 H   0  0  0  0  0  0  0  0  0  0  0  0
    9.3420   50.7770    1.9340 H   0  0  0  0  0  0  0  0  0  0  0  0
    8.0265   48.1807    1.4515 H   0  0  0  0  0  0  0  0  0  0  0  0
    9.3649   48.5425    2.5240 H   0  0  0  0  0  0  0  0  0  0  0  0
    6.9021   48.4223    3.5607 H   0  0  0  0  0  0  0  0  0  0  0  0
    7.8951   49.7694    4.0832 H   0  0  0  0  0  0  0  0  0  0  0  0
    5.7595   49.6923    1.8645 H   0  0  0  0  0  0  0  0  0  0  0  0
    5.8681   50.8503    3.1881 H   0  0  0  0  0  0  0  0  0  0  0  0
    6.8433   51.4410    0.6950 H   0  0  0  0  0  0  0  0  0  0  0  0
    8.1625   54.5583    3.6350 H   0  0  0  0  0  0  0  0  0  0  0  0
    8.3684   55.2859    1.9876 H   0  0  0  0  0  0  0  0  0  0  0  0
    5.8879   55.4221    3.7485 H   0  0  0  0  0  0  0  0  0  0  0  0
    7.0530   56.7627    3.3617 H   0  0  0  0  0  0  0  0  0  0  0  0
    4.8431   56.7598    2.0309 H   0  0  0  0  0  0  0  0  0  0  0  0
    8.1092   55.9894    0.1342 H   0  0  0  0  0  0  0  0  0  0  0  0
    7.7933   60.7837   -1.1703 H   0  0  0  0  0  0  0  0  0  0  0  0
    3.5990   62.0650    0.9350 H   0  0  0  0  0  0  0  0  0  0  0  0
    2.2301   60.3174    2.3355 H   0  0  0  0  0  0  0  0  0  0  0  0
    3.6248   58.0138    2.2636 H   0  0  0  0  0  0  0  0  0  0  0  0
    4.4239   54.5201    1.6553 H   0  0  0  0  0  0  0  0  0  0  0  0
    4.9472   55.2247    0.0397 H   0  0  0  0  0  0  0  0  0  0  0  0
    5.7876   52.8898    0.6410 H   0  0  0  0  0  0  0  0  0  0  0  0
    6.9814   54.1533    0.0821 H   0  0  0  0  0  0  0  0  0  0  0  0
  1  2  1  0
  2  3  1  0
  2  4  1  0
  4  5  1  0
  5  6  1  0
  6  7  1  0
  7  8  1  0
  8  9  1  0
  9 10  2  0
  9 11  1  0
 11 12  1  0
 12 13  1  0
 13 14  1  0
 14 15  1  0
 15 16  1  0
 16 17  2  0
 17 18  1  0
 18 19  2  0
 19 20  1  0
 20 21  2  0
 21 22  1  0
 22 23  1  0
 23 24  2  0
 24 25  1  0
 25 26  2  0
 14 27  1  0
 27 28  1  0
  8  4  1  0
 28 11  1  0
 26 15  1  0
 26 18  1  0
 25 21  1  0
  1 29  1  0
  1 30  1  0
  1 31  1  0
  2 32  1  0
  3 33  1  0
  3 34  1  0
  3 35  1  0
  4 36  1  1
  5 37  1  0
  5 38  1  0
  6 39  1  0
  6 40  1  0
  7 41  1  0
  7 42  1  0
  8 43  1  6
 12 44  1  0
 12 45  1  0
 13 46  1  0
 13 47  1  0
 14 48  1  0
 16 49  1  0
 19 50  1  0
 22 51  1  0
 23 52  1  0
 24 53  1  0
 27 54  1  0
 27 55  1  0
 28 56  1  0
 28 57  1  0
M  CHG  1   4   1
M  END
>  <meeko>  (2) 
{"is_sidechain": [false], "free_energy": -8.183, "intermolecular_energy": -9.639, "internal_energy": -0.664}

$$$$
4e5w_ligand
     RDKit          3D

 57 61  0  0  0  0  0  0  0  0999 V2000
    6.5650   47.9790    4.2340 C   0  0  0  0  0  0  0  0  0  0  0  0
    6.4300   49.4920    4.0980 C   0  0  0  0  0  0  0  0  0  0  0  0
    4.9670   49.9260    4.0780 C   0  0  0  0  0  0  0  0  0  0  0  0
    7.1220   50.0130    2.8660 N   0  0  2  0  0  0  0  0  0  0  0  0
    8.4240   49.3930    2.4360 C   0  0  0  0  0  0  0  0  0  0  0  0
    9.0450   50.4610    1.5600 C   0  0  0  0  0  0  0  0  0  0  0  0
    8.7050   51.7520    2.2860 C   0  0  0  0  0  0  0  0  0  0  0  0
    7.2700   51.5570    2.7680 C   0  0  1  0  0  0  0  0  0  0  0  0
    6.2280   52.0860    1.7600 C   0  0  0  0  0  0  0  0  0  0  0  0
    5.3800   51.2740    1.3680 O   0  0  0  0  0  0  0  0  0  0  0  0
    6.2860   53.4040    1.3270 N   0  0  0  0  0  0  0  0  0  0  0  0
    5.1940   53.8640    0.4670 C   0  0  0  0  0  0  0  0  0  0  0  0
    5.6540   54.9530   -0.4910 C   0  0  0  0  0  0  0  0  0  0  0  0
    6.2820   56.1470    0.2410 C   0  0  0  0  0  0  0  0  0  0  0  0
    5.2740   57.0430    0.7990 N   0  0  0  0  0  0  0  0  0  0  0  0
    4.1400   56.6690    1.4870 C   0  0  0  0  0  0  0  0  0  0  0  0
    3.3720   57.6890    1.8020 N   0  0  0  0  0  0  0  0  0  0  0  0
    4.0540   58.7930    1.3620 C   0  0  0  0  0  0  0  0  0  0  0  0
    3.7600   60.1680    1.4300 C   0  0  0  0  0  0  0  0  0  0  0  0
    4.5980   61.1270    0.9290 N   0  0  0  0  0  0  0  0  0  0  0  0
    5.7300   60.6610    0.3770 C   0  0  0  0  0  0  0  0  0  0  0  0
    6.7420   61.3920   -0.1800 N   0  0  0  0  0  0  0  0  0  0  0  0
    7.7310   60.5390   -0.6280 C   0  0  0  0  0  0  0  0  0  0  0  0
    7.3530   59.2340   -0.3560 C   0  0  0  0  0  0  0  0  0  0  0  0
    6.0880   59.3370    0.2710 C   0  0  0  0  0  0  0  0  0  0  0  0
    5.2350   58.3940    0.7620 C   0  0  0  0  0  0  0  0  0  0  0  0
    7.3770   55.6510    1.2070 C   0  0  0  0  0  0  0  0  0  0  0  0
    6.9830   54.4510    2.0710 C   0  0  0  0  0  0  0  0  0  0  0  0
    6.5892   47.7074    5.2997 H   0  0  0  0  0  0  0  0  0  0  0  0
    5.7070   47.4894    3.7502 H   0  0  0  0  0  0  0  0  0  0  0  0
    7.4962   47.6490    3.7502 H   0  0  0  0  0  0  0  0  0  0  0  0
    6.9199   49.9236    4.9833 H   0  0  0  0  0  0  0  0  0  0  0  0
    4.6025   50.0341    5.1102 H   0  0  0  0  0  0  0  0  0  0  0  0
    4.8774   50.8894    3.5547 H   0  0  0  0  0  0  0  0  0  0  0  0
    4.3666   49.1673    3.5547 H   0  0  0  0  0  0  0  0  0  0  0  0
    6.4550   49.8250    2.0880 H   0  0  0  0  0  0  0  0  0  0  0  0
    9.0627   49.1751    3.3047 H   0  0  0  0  0  0  0  0  0  0  0  0
    8.2928   48.4323    1.9165 H   0  0  0  0  0  0  0  0  0  0  0  0
   10.1342   50.3257    1.4863 H   0  0  0  0  0  0  0  0  0  0  0  0
    8.6722   50.4387    0.5253 H   0  0  0  0  0  0  0  0  0  0  0  0
    9.3829   51.9083    3.1381 H   0  0  0  0  0  0  0  0  0  0  0  0
    8.8109   52.6348    1.6384 H   0  0  0  0  0  0  0  0  0  0  0  0
    7.0938   52.0998    3.7084 H   0  0  0  0  0  0  0  0  0  0  0  0
    4.8165   53.0116   -0.1168 H   0  0  0  0  0  0  0  0  0  0  0  0
    4.4045   54.2822    1.1087 H   0  0  0  0  0  0  0  0  0  0  0  0
    6.4001   54.5274   -1.1781 H   0  0  0  0  0  0  0  0  0  0  0  0
    4.7698   55.3187   -1.0336 H   0  0  0  0  0  0  0  0  0  0  0  0
    6.8055   56.7994   -0.4734 H   0  0  0  0  0  0  0  0  0  0  0  0
    3.9022   55.6266    1.7456 H   0  0  0  0  0  0  0  0  0  0  0  0
    2.8194   60.4842    1.9047 H   0  0  0  0  0  0  0  0  0  0  0  0
    6.7450   62.4010   -0.2360 H   0  0  0  0  0  0  0  0  0  0  0  0
    8.6658   60.8453   -1.1202 H   0  0  0  0  0  0  0  0  0  0  0  0
    7.9152   58.3152   -0.5793 H   0  0  0  0  0  0  0  0  0  0  0  0
    8.2559   55.3672    0.6095 H   0  0  0  0  0  0  0  0  0  0  0  0
    7.5709   56.4802    1.9032 H   0  0  0  0  0  0  0  0  0  0  0  0
    7.8965   54.0200    2.5065 H   0  0  0  0  0  0  0  0  0  0  0  0
    6.2889   54.8191    2.8409 H   0  0  0  0  0  0  0  0  0  0  0  0
  1  2  1  0
  2  3  1  0
  2  4  1  0
  4  5  1  0
  5  6  1  0
  6  7  1  0
  7  8  1  0
  8  9  1  0
  9 10  2  0
  9 11  1  0
 11 12  1  0
 12 13  1  0
 13 14  1  0
 14 15  1  0
 15 16  1  0
 16 17  2  0
 17 18  1  0
 18 19  2  0
 19 20  1  0
 20 21  2  0
 21 22  1  0
 22 23  1  0
 23 24  2  0
 24 25  1  0
 25 26  2  0
 14 27  1  0
 27 28  1  0
  8  4  1  0
 28 11  1  0
 26 15  1  0
 26 18  1  0
 25 21  1  0
  1 29  1  0
  1 30  1  0
  1 31  1  0
  2 32  1  0
  3 33  1  0
  3 34  1  0
  3 35  1  0
  4 36  1  6
  5 37  1  0
  5 38  1  0
  6 39  1  0
  6 40  1  0
  7 41  1  0
  7 42  1  0
  8 43  1  1
 12 44  1  0
 12 45  1  0
 13 46  1  0
 13 47  1  0
 14 48  1  0
 16 49  1  0
 19 50  1  0
 22 51  1  0
 23 52  1  0
 24 53  1  0
 27 54  1  0
 27 55  1  0
 28 56  1  0
 28 57  1  0
M  CHG  1   4   1
M  END
>  <meeko>  (3) 
{"is_sidechain": [false], "free_energy": -8.068, "intermolecular_energy": -10.177, "internal_energy": 0.009}

$$$$
4e5w_ligand
     RDKit          3D

 57 61  0  0  0  0  0  0  0  0999 V2000
    9.9400   52.7570   -4.9940 C   0  0  0  0  0  0  0  0  0  0  0  0
   10.3070   51.3020   -5.2640 C   0  0  0  0  0  0  0  0  0  0  0  0
    9.3190   50.3420   -4.6080 C   0  0  0  0  0  0  0  0  0  0  0  0
   11.7030   50.9750   -4.8010 N   0  0  2  0  0  0  0  0  0  0  0  0
   12.6260   50.2230   -5.7200 C   0  0  0  0  0  0  0  0  0  0  0  0
   13.6560   49.6380   -4.7770 C   0  0  0  0  0  0  0  0  0  0  0  0
   12.8310   49.2200   -3.5720 C   0  0  0  0  0  0  0  0  0  0  0  0
   11.8220   50.3500   -3.3830 C   0  0  1  0  0  0  0  0  0  0  0  0
   12.3240   51.4380   -2.4090 C   0  0  0  0  0  0  0  0  0  0  0  0
   13.3880   51.9950   -2.7080 O   0  0  0  0  0  0  0  0  0  0  0  0
   11.6010   51.7290   -1.2600 N   0  0  0  0  0  0  0  0  0  0  0  0
   12.0750   52.8530   -0.4500 C   0  0  0  0  0  0  0  0  0  0  0  0
   11.7430   52.6640    1.0220 C   0  0  0  0  0  0  0  0  0  0  0  0
   10.2420   52.4450    1.2590 C   0  0  0  0  0  0  0  0  0  0  0  0
    9.4920   53.6970    1.2350 N   0  0  0  0  0  0  0  0  0  0  0  0
   10.0040   54.9500    0.9800 C   0  0  0  0  0  0  0  0  0  0  0  0
    9.1080   55.9050    1.1050 N   0  0  0  0  0  0  0  0  0  0  0  0
    7.9370   55.2540    1.3930 C   0  0  0  0  0  0  0  0  0  0  0  0
    6.6300   55.7260    1.6130 C   0  0  0  0  0  0  0  0  0  0  0  0
    5.5790   54.8900    1.8800 N   0  0  0  0  0  0  0  0  0  0  0  0
    5.8840   53.5820    1.9060 C   0  0  0  0  0  0  0  0  0  0  0  0
    5.0340   52.5370    2.1310 N   0  0  0  0  0  0  0  0  0  0  0  0
    5.7370   51.3510    2.0660 C   0  0  0  0  0  0  0  0  0  0  0  0
    7.0660   51.6330    1.7940 C   0  0  0  0  0  0  0  0  0  0  0  0
    7.1340   53.0440    1.7030 C   0  0  0  0  0  0  0  0  0  0  0  0
    8.1720   53.8920    1.4520 C   0  0  0  0  0  0  0  0  0  0  0  0
    9.7280   51.3140    0.3450 C   0  0  0  0  0  0  0  0  0  0  0  0
   10.1840   51.4030   -1.1130 C   0  0  0  0  0  0  0  0  0  0  0  0
    9.8967   52.9288   -3.9084 H   0  0  0  0  0  0  0  0  0  0  0  0
   10.7001   53.4156   -5.4394 H   0  0  0  0  0  0  0  0  0  0  0  0
    8.9584   52.9763   -5.4394 H   0  0  0  0  0  0  0  0  0  0  0  0
   10.2613   51.1730   -6.3554 H   0  0  0  0  0  0  0  0  0  0  0  0
    9.4014   50.4220   -3.5140 H   0  0  0  0  0  0  0  0  0  0  0  0
    8.2958   50.6001   -4.9185 H   0  0  0  0  0  0  0  0  0  0  0  0
    9.5476   49.3118   -4.9185 H   0  0  0  0  0  0  0  0  0  0  0  0
   12.1560   51.9020   -4.6510 H   0  0  0  0  0  0  0  0  0  0  0  0
   12.0866   49.4284   -6.2564 H   0  0  0  0  0  0  0  0  0  0  0  0
   13.0690   50.8594   -6.5002 H   0  0  0  0  0  0  0  0  0  0  0  0
   14.1578   48.7706   -5.2308 H   0  0  0  0  0  0  0  0  0  0  0  0
   14.4585   50.3464   -4.5238 H   0  0  0  0  0  0  0  0  0  0  0  0
   12.3154   48.2679   -3.7661 H   0  0  0  0  0  0  0  0  0  0  0  0
   13.4512   49.0616   -2.6774 H   0  0  0  0  0  0  0  0  0  0  0  0
   10.8792   49.9700   -2.9627 H   0  0  0  0  0  0  0  0  0  0  0  0
   13.1660   52.9378   -0.5615 H   0  0  0  0  0  0  0  0  0  0  0  0
   11.5711   53.7656   -0.8011 H   0  0  0  0  0  0  0  0  0  0  0  0
   12.2917   51.7881    1.3985 H   0  0  0  0  0  0  0  0  0  0  0  0
   12.0364   53.5816    1.5529 H   0  0  0  0  0  0  0  0  0  0  0  0
   10.0667   52.0864    2.2840 H   0  0  0  0  0  0  0  0  0  0  0  0
   11.0522   55.1329    0.7011 H   0  0  0  0  0  0  0  0  0  0  0  0
    6.4452   56.8095    1.5688 H   0  0  0  0  0  0  0  0  0  0  0  0
    4.0440   52.6420    2.3080 H   0  0  0  0  0  0  0  0  0  0  0  0
    5.3118   50.3464    2.2071 H   0  0  0  0  0  0  0  0  0  0  0  0
    7.8907   50.9150    1.6745 H   0  0  0  0  0  0  0  0  0  0  0  0
   10.0815   50.3565    0.7552 H   0  0  0  0  0  0  0  0  0  0  0  0
    8.6319   51.4049    0.3303 H   0  0  0  0  0  0  0  0  0  0  0  0
    9.9977   50.4326   -1.5963 H   0  0  0  0  0  0  0  0  0  0  0  0
    9.6133   52.2180   -1.5821 H   0  0  0  0  0  0  0  0  0  0  0  0
  1  2  1  0
  2  3  1  0
  2  4  1  0
  4  5  1  0
  5  6  1  0
  6  7  1  0
  7  8  1  0
  8  9  1  0
  9 10  2  0
  9 11  1  0
 11 12  1  0
 12 13  1  0
 13 14  1  0
 14 15  1  0
 15 16  1  0
 16 17  2  0
 17 18  1  0
 18 19  2  0
 19 20  1  0
 20 21  2  0
 21 22  1  0
 22 23  1  0
 23 24  2  0
 24 25  1  0
 25 26  2  0
 14 27  1  0
 27 28  1  0
  8  4  1  0
 28 11  1  0
 26 15  1  0
 26 18  1  0
 25 21  1  0
  1 29  1  0
  1 30  1  0
  1 31  1  0
  2 32  1  0
  3 33  1  0
  3 34  1  0
  3 35  1  0
  4 36  1  1
  5 37  1  0
  5 38  1  0
  6 39  1  0
  6 40  1  0
  7 41  1  0
  7 42  1  0
  8 43  1  1
 12 44  1  0
 12 45  1  0
 13 46  1  0
 13 47  1  0
 14 48  1  0
 16 49  1  0
 19 50  1  0
 22 51  1  0
 23 52  1  0
 24 53  1  0
 27 54  1  0
 27 55  1  0
 28 56  1  0
 28 57  1  0
M  CHG  1   4   1
M  END
>  <meeko>  (4) 
{"is_sidechain": [false], "free_energy": -6.04, "intermolecular_energy": -7.56, "internal_energy": -0.226}

$$$$
4e5w_ligand
     RDKit          3D

 57 61  0  0  0  0  0  0  0  0999 V2000
    8.7440   58.3770    0.2780 C   0  0  0  0  0  0  0  0  0  0  0  0
    7.5730   58.6980   -0.6450 C   0  0  0  0  0  0  0  0  0  0  0  0
    7.4580   60.1980   -0.9050 C   0  0  0  0  0  0  0  0  0  0  0  0
    6.2660   58.1850   -0.1000 N   0  0  2  0  0  0  0  0  0  0  0  0
    5.0790   59.1070   -0.0430 C   0  0  0  0  0  0  0  0  0  0  0  0
    4.1850   58.4610    0.9940 C   0  0  0  0  0  0  0  0  0  0  0  0
    5.1660   57.9730    2.0470 C   0  0  0  0  0  0  0  0  0  0  0  0
    6.3430   57.4190    1.2500 C   0  0  1  0  0  0  0  0  0  0  0  0
    6.2090   55.9080    0.9640 C   0  0  0  0  0  0  0  0  0  0  0  0
    5.0880   55.5100    0.6230 O   0  0  0  0  0  0  0  0  0  0  0  0
    7.3060   55.0710    1.1150 N   0  0  0  0  0  0  0  0  0  0  0  0
    7.1320   53.6750    0.7090 C   0  0  0  0  0  0  0  0  0  0  0  0
    8.0180   52.7400    1.5190 C   0  0  0  0  0  0  0  0  0  0  0  0
    9.5020   53.1260    1.4380 C   0  0  0  0  0  0  0  0  0  0  0  0
   10.1230   52.6680    0.1990 N   0  0  0  0  0  0  0  0  0  0  0  0
   10.6540   53.4650   -0.7910 C   0  0  0  0  0  0  0  0  0  0  0  0
   11.0750   52.7780   -1.8300 N   0  0  0  0  0  0  0  0  0  0  0  0
   10.8740   51.4660   -1.4910 C   0  0  0  0  0  0  0  0  0  0  0  0
   11.1450   50.2670   -2.1760 C   0  0  0  0  0  0  0  0  0  0  0  0
   10.8730   49.0360   -1.6430 N   0  0  0  0  0  0  0  0  0  0  0  0
   10.3370   49.0550   -0.4120 C   0  0  0  0  0  0  0  0  0  0  0  0
    9.9840   47.9800    0.3550 N   0  0  0  0  0  0  0  0  0  0  0  0
    9.4760   48.4220    1.5600 C   0  0  0  0  0  0  0  0  0  0  0  0
    9.5010   49.8070    1.5740 C   0  0  0  0  0  0  0  0  0  0  0  0
   10.0410   50.1820    0.3200 C   0  0  0  0  0  0  0  0  0  0  0  0
   10.3060   51.4000   -0.2310 C   0  0  0  0  0  0  0  0  0  0  0  0
    9.6730   54.6190    1.7870 C   0  0  0  0  0  0  0  0  0  0  0  0
    8.6830   55.5610    1.0990 C   0  0  0  0  0  0  0  0  0  0  0  0
    8.4202   58.4658    1.3255 H   0  0  0  0  0  0  0  0  0  0  0  0
    9.0907   57.3507    0.0871 H   0  0  0  0  0  0  0  0  0  0  0  0
    9.5656   59.0831    0.0871 H   0  0  0  0  0  0  0  0  0  0  0  0
    7.7820   58.1837   -1.5947 H   0  0  0  0  0  0  0  0  0  0  0  0
    7.4169   60.7344    0.0545 H   0  0  0  0  0  0  0  0  0  0  0  0
    8.3326   60.5389   -1.4784 H   0  0  0  0  0  0  0  0  0  0  0  0
    6.5416   60.4016   -1.4784 H   0  0  0  0  0  0  0  0  0  0  0  0
    5.9900   57.4180   -0.7510 H   0  0  0  0  0  0  0  0  0  0  0  0
    5.3798   60.1175    0.2707 H   0  0  0  0  0  0  0  0  0  0  0  0
    4.5853   59.2336   -1.0178 H   0  0  0  0  0  0  0  0  0  0  0  0
    3.4823   59.1928    1.4192 H   0  0  0  0  0  0  0  0  0  0  0  0
    3.5604   57.6550    0.5815 H   0  0  0  0  0  0  0  0  0  0  0  0
    5.4899   58.8041    2.6907 H   0  0  0  0  0  0  0  0  0  0  0  0
    4.7216   57.2188    2.7131 H   0  0  0  0  0  0  0  0  0  0  0  0
    7.2859   57.5465    1.8020 H   0  0  0  0  0  0  0  0  0  0  0  0
    6.0805   53.3885    0.8583 H   0  0  0  0  0  0  0  0  0  0  0  0
    7.4173   53.5871   -0.3497 H   0  0  0  0  0  0  0  0  0  0  0  0
    7.7004   52.7755    2.5716 H   0  0  0  0  0  0  0  0  0  0  0  0
    7.9105   51.7285    1.1003 H   0  0  0  0  0  0  0  0  0  0  0  0
   10.0793   52.5857    2.2028 H   0  0  0  0  0  0  0  0  0  0  0  0
   10.7190   54.5608   -0.7199 H   0  0  0  0  0  0  0  0  0  0  0  0
   11.5930   50.3212   -3.1792 H   0  0  0  0  0  0  0  0  0  0  0  0
   10.0950   47.0180    0.0640 H   0  0  0  0  0  0  0  0  0  0  0  0
    9.1112   47.7799    2.3753 H   0  0  0  0  0  0  0  0  0  0  0  0
    9.1719   50.4728    2.3854 H   0  0  0  0  0  0  0  0  0  0  0  0
    9.5516   54.7314    2.8745 H   0  0  0  0  0  0  0  0  0  0  0  0
   10.6719   54.9065    1.4272 H   0  0  0  0  0  0  0  0  0  0  0  0
    8.7128   56.5332    1.6127 H   0  0  0  0  0  0  0  0  0  0  0  0
    8.9875   55.6372    0.0447 H   0  0  0  0  0  0  0  0  0  0  0  0
  1  2  1  0
  2  3  1  0
  2  4  1  0
  4  5  1  0
  5  6  1  0
  6  7  1  0
  7  8  1  0
  8  9  1  0
  9 10  2  0
  9 11  1  0
 11 12  1  0
 12 13  1  0
 13 14  1  0
 14 15  1  0
 15 16  1  0
 16 17  2  0
 17 18  1  0
 18 19  2  0
 19 20  1  0
 20 21  2  0
 21 22  1  0
 22 23  1  0
 23 24  2  0
 24 25  1  0
 25 26  2  0
 14 27  1  0
 27 28  1  0
  8  4  1  0
 28 11  1  0
 26 15  1  0
 26 18  1  0
 25 21  1  0
  1 29  1  0
  1 30  1  0
  1 31  1  0
  2 32  1  0
  3 33  1  0
  3 34  1  0
  3 35  1  0
  4 36  1  6
  5 37  1  0
  5 38  1  0
  6 39  1  0
  6 40  1  0
  7 41  1  0
  7 42  1  0
  8 43  1  1
 12 44  1  0
 12 45  1  0
 13 46  1  0
 13 47  1  0
 14 48  1  0
 16 49  1  0
 19 50  1  0
 22 51  1  0
 23 52  1  0
 24 53  1  0
 27 54  1  0
 27 55  1  0
 28 56  1  0
 28 57  1  0
M  CHG  1   4   1
M  END
>  <meeko>  (5) 
{"is_sidechain": [false], "free_energy": -5.446, "intermolecular_energy": -7.15, "internal_energy": 0.064}

$$$$
