2al5_ligand
     RDKit          3D

 23 23  0  0  0  0  0  0  0  0999 V2000
   18.8410   64.4190   29.4430 N   0  0  0  0  0  0  0  0  0  0  0  0
   18.5640   63.3650   28.3840 C   0  0  1  0  0  0  0  0  0  0  0  0
   19.1020   61.9850   28.7820 C   0  0  0  0  0  0  0  0  0  0  0  0
   20.5670   61.8220   28.7200 N   0  0  0  0  0  0  0  0  0  0  0  0
   21.2890   61.8150   29.9040 C   0  0  0  0  0  0  0  0  0  0  0  0
   22.6120   61.6490   29.9150 C   0  0  0  0  0  0  0  0  0  0  0  0
   23.3320   61.6330   31.0510 F   0  0  0  0  0  0  0  0  0  0  0  0
   23.3360   61.4610   28.6440 C   0  0  0  0  0  0  0  0  0  0  0  0
   24.5480   61.2930   28.5810 O   0  0  0  0  0  0  0  0  0  0  0  0
   22.5480   61.4870   27.5200 N   0  0  0  0  0  0  0  0  0  0  0  0
   21.1980   61.7050   27.4900 C   0  0  0  0  0  0  0  0  0  0  0  0
   20.5900   61.8290   26.4250 O   0  0  0  0  0  0  0  0  0  0  0  0
   17.0430   63.2560   28.1360 C   0  0  0  0  0  0  0  0  0  0  0  0
   16.8150   62.3440   27.2760 O   0  0  0  0  0  0  0  0  0  0  0  0
   16.2990   64.0400   28.7630 O   0  0  0  0  0  0  0  0  0  0  0  0
   19.4370   65.0900   28.8980 H   0  0  0  0  0  0  0  0  0  0  0  0
   19.4180   64.0880   30.2150 H   0  0  0  0  0  0  0  0  0  0  0  0
   18.0060   64.9370   29.7590 H   0  0  0  0  0  0  0  0  0  0  0  0
   19.0835   63.6834   27.4682 H   0  0  0  0  0  0  0  0  0  0  0  0
   18.7841   61.7847   29.8158 H   0  0  0  0  0  0  0  0  0  0  0  0
   18.6927   61.2813   28.0422 H   0  0  0  0  0  0  0  0  0  0  0  0
   20.7572   61.9497   30.8575 H   0  0  0  0  0  0  0  0  0  0  0  0
   23.0300   61.4000   26.6390 H   0  0  0  0  0  0  0  0  0  0  0  0
  1  2  1  0
  2  3  1  0
  3  4  1  0
  4  5  1  0
  5  6  2  0
  6  7  1  0
  6  8  1  0
  8  9  2  0
  8 10  1  0
 10 11  1  0
 11 12  2  0
  2 13  1  0
 13 14  2  0
 13 15  1  0
 11  4  1  0
  1 16  1  0
  1 17  1  0
  1 18  1  0
  2 19  1  6
  3 20  1  0
  3 21  1  0
  5 22  1  0
 10 23  1  0
M  CHG  2   1   1  15  -1
M  END
>  <meeko>  (1) 
{"is_sidechain": [false], "free_energy": -8.844, "intermolecular_energy": -10.653, "internal_energy": -0.107}

$$$$
2al5_ligand
     RDKit          3D

 23 23  0  0  0  0  0  0  0  0999 V2000
   18.9820   64.2320   29.4480 N   0  0  0  0  0  0  0  0  0  0  0  0
   18.7630   63.2280   28.3290 C   0  0  1  0  0  0  0  0  0  0  0  0
   19.3070   61.8380   28.6780 C   0  0  0  0  0  0  0  0  0  0  0  0
   20.7700   61.7410   28.8420 N   0  0  0  0  0  0  0  0  0  0  0  0
   21.5250   61.2040   27.8100 C   0  0  0  0  0  0  0  0  0  0  0  0
   22.8520   61.1110   27.8900 C   0  0  0  0  0  0  0  0  0  0  0  0
   23.6040   60.5990   26.8990 F   0  0  0  0  0  0  0  0  0  0  0  0
   23.5480   61.5920   29.0980 C   0  0  0  0  0  0  0  0  0  0  0  0
   24.7640   61.5470   29.2340 O   0  0  0  0  0  0  0  0  0  0  0  0
   22.7280   62.1020   30.0730 N   0  0  0  0  0  0  0  0  0  0  0  0
   21.3620   62.1600   30.0250 C   0  0  0  0  0  0  0  0  0  0  0  0
   20.6990   62.5260   30.9980 O   0  0  0  0  0  0  0  0  0  0  0  0
   17.2540   63.1100   28.0160 C   0  0  0  0  0  0  0  0  0  0  0  0
   16.6290   64.0800   28.5560 O   0  0  0  0  0  0  0  0  0  0  0  0
   16.8820   62.1320   27.3330 O   0  0  0  0  0  0  0  0  0  0  0  0
   19.8730   63.8640   29.8660 H   0  0  0  0  0  0  0  0  0  0  0  0
   18.2810   64.1870   30.1870 H   0  0  0  0  0  0  0  0  0  0  0  0
   19.1670   65.1950   29.1280 H   0  0  0  0  0  0  0  0  0  0  0  0
   19.3128   63.5992   27.4516 H   0  0  0  0  0  0  0  0  0  0  0  0
   18.8403   61.5208   29.6222 H   0  0  0  0  0  0  0  0  0  0  0  0
   19.0608   61.1976   27.8182 H   0  0  0  0  0  0  0  0  0  0  0  0
   21.0159   60.8460   26.9030 H   0  0  0  0  0  0  0  0  0  0  0  0
   23.1810   62.4000   30.9230 H   0  0  0  0  0  0  0  0  0  0  0  0
  1  2  1  0
  2  3  1  0
  3  4  1  0
  4  5  1  0
  5  6  2  0
  6  7  1  0
  6  8  1  0
  8  9  2  0
  8 10  1  0
 10 11  1  0
 11 12  2  0
  2 13  1  0
 13 14  2  0
 13 15  1  0
 11  4  1  0
  1 16  1  0
  1 17  1  0
  1 18  1  0
  2 19  1  6
  3 20  1  0
  3 21  1  0
  5 22  1  0
 10 23  1  0
M  CHG  2   1   1  15  -1
M  END
>  <meeko>  (2) 
{"is_sidechain": [false], "free_energy": -7.495, "intermolecular_energy": -8.985, "internal_energy": -0.15}

$$$$
2al5_ligand
     RDKit          3D

 23 23  0  0  0  0  0  0  0  0999 V2000
   24.4600   60.7910   26.9890 N   0  0  0  0  0  0  0  0  0  0  0  0
   23.6850   61.3530   28.1680 C   0  0  1  0  0  0  0  0  0  0  0  0
   22.3300   60.6610   28.3580 C   0  0  0  0  0  0  0  0  0  0  0  0
   21.1620   61.5520   28.4800 N   0  0  0  0  0  0  0  0  0  0  0  0
   20.8950   62.1400   29.7080 C   0  0  0  0  0  0  0  0  0  0  0  0
   19.8670   62.9730   29.8750 C   0  0  0  0  0  0  0  0  0  0  0  0
   19.5930   63.5590   31.0550 F   0  0  0  0  0  0  0  0  0  0  0  0
   18.9880   63.2890   28.7340 C   0  0  0  0  0  0  0  0  0  0  0  0
   18.0340   64.0540   28.8140 O   0  0  0  0  0  0  0  0  0  0  0  0
   19.3180   62.6620   27.5590 N   0  0  0  0  0  0  0  0  0  0  0  0
   20.3390   61.7680   27.3840 C   0  0  0  0  0  0  0  0  0  0  0  0
   20.4890   61.1620   26.3210 O   0  0  0  0  0  0  0  0  0  0  0  0
   24.5120   61.1980   29.4630 C   0  0  0  0  0  0  0  0  0  0  0  0
   24.8060   62.3490   29.9230 O   0  0  0  0  0  0  0  0  0  0  0  0
   24.7730   60.0360   29.8450 O   0  0  0  0  0  0  0  0  0  0  0  0
   25.1440   60.1680   27.4860 H   0  0  0  0  0  0  0  0  0  0  0  0
   25.0170   61.4840   26.4910 H   0  0  0  0  0  0  0  0  0  0  0  0
   23.9040   60.1940   26.3570 H   0  0  0  0  0  0  0  0  0  0  0  0
   23.4982   62.4156   27.9534 H   0  0  0  0  0  0  0  0  0  0  0  0
   22.1632   60.0037   27.4919 H   0  0  0  0  0  0  0  0  0  0  0  0
   22.3999   60.1297   29.3186 H   0  0  0  0  0  0  0  0  0  0  0  0
   21.5470   61.9136   30.5645 H   0  0  0  0  0  0  0  0  0  0  0  0
   18.7050   62.8350   26.7770 H   0  0  0  0  0  0  0  0  0  0  0  0
  1  2  1  0
  2  3  1  0
  3  4  1  0
  4  5  1  0
  5  6  2  0
  6  7  1  0
  6  8  1  0
  8  9  2  0
  8 10  1  0
 10 11  1  0
 11 12  2  0
  2 13  1  0
 13 14  2  0
 13 15  1  0
 11  4  1  0
  1 16  1  0
  1 17  1  0
  1 18  1  0
  2 19  1  6
  3 20  1  0
  3 21  1  0
  5 22  1  0
 10 23  1  0
M  CHG  2   1   1  15  -1
M  END
>  <meeko>  (3) 
{"is_sidechain": [false], "free_energy": -6.334, "intermolecular_energy": -7.463, "internal_energy": -0.275}

$$$$
