3u8k_ligand
     RDKit          3D

 36 37  0  0  0  0  0  0  0  0999 V2000
   78.6030   96.9590   34.4600 C   0  0  0  0  0  0  0  0  0  0  0  0
   78.8970   95.7740   33.5550 C   0  0  0  0  0  0  0  0  0  0  0  0
   78.8720   96.1640   32.1800 O   0  0  0  0  0  0  0  0  0  0  0  0
   80.0490   96.2100   31.4940 C   0  0  0  0  0  0  0  0  0  0  0  0
   80.2550   96.6320   30.1930 C   0  0  0  0  0  0  0  0  0  0  0  0
   81.4660   96.6290   29.5900 N   0  0  0  0  0  0  0  0  0  0  0  0
   82.5180   96.1960   30.3260 C   0  0  0  0  0  0  0  0  0  0  0  0
   82.4550   95.7600   31.6530 C   0  0  0  0  0  0  0  0  0  0  0  0
   83.5530   95.2830   32.3860 N   0  0  0  0  0  0  0  0  0  0  0  0
   84.8560   95.1550   31.6950 C   0  0  0  0  0  0  0  0  0  0  0  0
   85.6470   93.9410   32.1980 C   0  0  0  0  0  0  0  0  0  0  0  0
   85.6690   93.7850   33.7160 C   0  0  0  0  0  0  0  0  0  0  0  0
   84.3540   93.3370   34.2570 N   0  0  0  0  0  0  0  0  0  0  0  0
   83.3900   94.4120   34.6930 C   0  0  0  0  0  0  0  0  0  0  0  0
   83.6140   95.6750   33.8220 C   0  0  0  0  0  0  0  0  0  0  0  0
   81.1680   95.7710   32.2120 C   0  0  0  0  0  0  0  0  0  0  0  0
   78.6808   96.6455   35.5115 H   0  0  0  0  0  0  0  0  0  0  0  0
   79.3294   97.7609   34.2618 H   0  0  0  0  0  0  0  0  0  0  0  0
   77.5860   97.3283   34.2618 H   0  0  0  0  0  0  0  0  0  0  0  0
   79.8924   95.3736   33.7978 H   0  0  0  0  0  0  0  0  0  0  0  0
   78.1247   95.0077   33.7172 H   0  0  0  0  0  0  0  0  0  0  0  0
   79.3879   96.9891   29.6180 H   0  0  0  0  0  0  0  0  0  0  0  0
   83.5042   96.1867   29.8388 H   0  0  0  0  0  0  0  0  0  0  0  0
   84.6776   95.0421   30.6155 H   0  0  0  0  0  0  0  0  0  0  0  0
   85.4458   96.0597   31.9041 H   0  0  0  0  0  0  0  0  0  0  0  0
   85.1973   93.0349   31.7659 H   0  0  0  0  0  0  0  0  0  0  0  0
   86.6899   94.0951   31.8841 H   0  0  0  0  0  0  0  0  0  0  0  0
   86.4339   93.0414   33.9843 H   0  0  0  0  0  0  0  0  0  0  0  0
   85.8953   94.7690   34.1525 H   0  0  0  0  0  0  0  0  0  0  0  0
   84.4710   92.6200   34.9830 H   0  0  0  0  0  0  0  0  0  0  0  0
   83.8590   92.8850   33.4640 H   0  0  0  0  0  0  0  0  0  0  0  0
   82.3574   94.0549   34.5659 H   0  0  0  0  0  0  0  0  0  0  0  0
   83.5600   94.6562   35.7520 H   0  0  0  0  0  0  0  0  0  0  0  0
   82.8302   96.4163   34.0368 H   0  0  0  0  0  0  0  0  0  0  0  0
   84.5958   96.1165   34.0482 H   0  0  0  0  0  0  0  0  0  0  0  0
   81.0340   95.4237   33.2471 H   0  0  0  0  0  0  0  0  0  0  0  0
  1  2  1  0
  2  3  1  0
  3  4  1  0
  4  5  2  0
  5  6  1  0
  6  7  2  0
  7  8  1  0
  8  9  1  0
  9 10  1  0
 10 11  1  0
 11 12  1  0
 12 13  1  0
 13 14  1  0
 14 15  1  0
  8 16  2  0
 16  4  1  0
 15  9  1  0
  1 17  1  0
  1 18  1  0
  1 19  1  0
  2 20  1  0
  2 21  1  0
  5 22  1  0
  7 23  1  0
 10 24  1  0
 10 25  1  0
 11 26  1  0
 11 27  1  0
 12 28  1  0
 12 29  1  0
 13 30  1  0
 13 31  1  0
 14 32  1  0
 14 33  1  0
 15 34  1  0
 15 35  1  0
 16 36  1  0
M  CHG  1  13   1
M  END
>  <meeko>  (1) 
{"is_sidechain": [false], "free_energy": -5.144, "intermolecular_energy": -7.851, "internal_energy": 0.311}

$$$$
3u8k_ligand
     RDKit          3D

 36 37  0  0  0  0  0  0  0  0999 V2000
   78.4310   97.4350   35.8140 C   0  0  0  0  0  0  0  0  0  0  0  0
   78.5630   96.9760   34.3720 C   0  0  0  0  0  0  0  0  0  0  0  0
   79.5260   95.9260   34.2580 O   0  0  0  0  0  0  0  0  0  0  0  0
   80.3340   95.8990   33.1590 C   0  0  0  0  0  0  0  0  0  0  0  0
   79.9560   95.9410   31.8290 C   0  0  0  0  0  0  0  0  0  0  0  0
   80.8340   95.8950   30.8020 N   0  0  0  0  0  0  0  0  0  0  0  0
   82.1490   95.8170   31.1200 C   0  0  0  0  0  0  0  0  0  0  0  0
   82.6690   95.7850   32.4190 C   0  0  0  0  0  0  0  0  0  0  0  0
   84.0340   95.6690   32.7260 N   0  0  0  0  0  0  0  0  0  0  0  0
   84.4190   95.4320   34.1360 C   0  0  0  0  0  0  0  0  0  0  0  0
   83.7720   94.1590   34.6920 C   0  0  0  0  0  0  0  0  0  0  0  0
   84.4930   92.8670   34.3220 C   0  0  0  0  0  0  0  0  0  0  0  0
   84.8980   92.8280   32.8880 N   0  0  0  0  0  0  0  0  0  0  0  0
   85.7770   93.9500   32.3930 C   0  0  0  0  0  0  0  0  0  0  0  0
   84.8920   95.0160   31.6980 C   0  0  0  0  0  0  0  0  0  0  0  0
   81.7030   95.8170   33.4360 C   0  0  0  0  0  0  0  0  0  0  0  0
   78.6712   96.5996   36.4881 H   0  0  0  0  0  0  0  0  0  0  0  0
   79.1262   98.2671   35.9990 H   0  0  0  0  0  0  0  0  0  0  0  0
   77.3999   97.7706   35.9990 H   0  0  0  0  0  0  0  0  0  0  0  0
   77.5874   96.6099   34.0197 H   0  0  0  0  0  0  0  0  0  0  0  0
   78.8969   97.8275   33.7609 H   0  0  0  0  0  0  0  0  0  0  0  0
   78.8839   96.0158   31.5945 H   0  0  0  0  0  0  0  0  0  0  0  0
   82.8674   95.7754   30.2880 H   0  0  0  0  0  0  0  0  0  0  0  0
   85.5128   95.3314   34.1951 H   0  0  0  0  0  0  0  0  0  0  0  0
   84.0695   96.2853   34.7358 H   0  0  0  0  0  0  0  0  0  0  0  0
   83.7487   94.2369   35.7890 H   0  0  0  0  0  0  0  0  0  0  0  0
   82.7699   94.0966   34.2426 H   0  0  0  0  0  0  0  0  0  0  0  0
   85.3946   92.7755   34.9455 H   0  0  0  0  0  0  0  0  0  0  0  0
   83.7950   92.0345   34.4942 H   0  0  0  0  0  0  0  0  0  0  0  0
   84.0880   92.6870   32.2730 H   0  0  0  0  0  0  0  0  0  0  0  0
   85.5040   91.9910   32.7840 H   0  0  0  0  0  0  0  0  0  0  0  0
   86.3055   94.4067   33.2428 H   0  0  0  0  0  0  0  0  0  0  0  0
   86.5146   93.5563   31.6782 H   0  0  0  0  0  0  0  0  0  0  0  0
   85.5311   95.7704   31.2159 H   0  0  0  0  0  0  0  0  0  0  0  0
   84.2623   94.5389   30.9326 H   0  0  0  0  0  0  0  0  0  0  0  0
   82.0325   95.7763   34.4847 H   0  0  0  0  0  0  0  0  0  0  0  0
  1  2  1  0
  2  3  1  0
  3  4  1  0
  4  5  2  0
  5  6  1  0
  6  7  2  0
  7  8  1  0
  8  9  1  0
  9 10  1  0
 10 11  1  0
 11 12  1  0
 12 13  1  0
 13 14  1  0
 14 15  1  0
  8 16  2  0
 16  4  1  0
 15  9  1  0
  1 17  1  0
  1 18  1  0
  1 19  1  0
  2 20  1  0
  2 21  1  0
  5 22  1  0
  7 23  1  0
 10 24  1  0
 10 25  1  0
 11 26  1  0
 11 27  1  0
 12 28  1  0
 12 29  1  0
 13 30  1  0
 13 31  1  0
 14 32  1  0
 14 33  1  0
 15 34  1  0
 15 35  1  0
 16 36  1  0
M  CHG  1  13   1
M  END
>  <meeko>  (2) 
{"is_sidechain": [false], "free_energy": -4.908, "intermolecular_energy": -8.018, "internal_energy": 0.839}

$$$$
3u8k_ligand
     RDKit          3D

 36 37  0  0  0  0  0  0  0  0999 V2000
   81.1470   96.1920   28.0850 C   0  0  0  0  0  0  0  0  0  0  0  0
   80.0060   96.9560   28.7340 C   0  0  0  0  0  0  0  0  0  0  0  0
   80.4140   97.5190   29.9830 O   0  0  0  0  0  0  0  0  0  0  0  0
   80.4400   96.7140   31.0830 C   0  0  0  0  0  0  0  0  0  0  0  0
   79.3630   96.2280   31.8020 C   0  0  0  0  0  0  0  0  0  0  0  0
   79.4890   95.4420   32.8950 N   0  0  0  0  0  0  0  0  0  0  0  0
   80.7480   95.1180   33.2780 C   0  0  0  0  0  0  0  0  0  0  0  0
   81.9220   95.5240   32.6330 C   0  0  0  0  0  0  0  0  0  0  0  0
   83.2180   95.2040   33.0670 N   0  0  0  0  0  0  0  0  0  0  0  0
   84.3660   95.8120   32.3560 C   0  0  0  0  0  0  0  0  0  0  0  0
   85.2530   94.7480   31.7010 C   0  0  0  0  0  0  0  0  0  0  0  0
   85.6490   93.6000   32.6330 C   0  0  0  0  0  0  0  0  0  0  0  0
   84.5000   93.0620   33.4170 N   0  0  0  0  0  0  0  0  0  0  0  0
   84.2220   93.7030   34.7540 C   0  0  0  0  0  0  0  0  0  0  0  0
   83.3950   94.9950   34.5310 C   0  0  0  0  0  0  0  0  0  0  0  0
   81.7200   96.3520   31.5190 C   0  0  0  0  0  0  0  0  0  0  0  0
   81.7907   95.7610   28.8660 H   0  0  0  0  0  0  0  0  0  0  0  0
   80.7386   95.3845   27.4595 H   0  0  0  0  0  0  0  0  0  0  0  0
   81.7381   96.8771   27.4595 H   0  0  0  0  0  0  0  0  0  0  0  0
   79.6862   97.7656   28.0614 H   0  0  0  0  0  0  0  0  0  0  0  0
   79.1757   96.2583   28.9177 H   0  0  0  0  0  0  0  0  0  0  0  0
   78.3500   96.4952   31.4668 H   0  0  0  0  0  0  0  0  0  0  0  0
   80.8562   94.4832   34.1698 H   0  0  0  0  0  0  0  0  0  0  0  0
   83.9852   96.4882   31.5764 H   0  0  0  0  0  0  0  0  0  0  0  0
   84.9735   96.3609   33.0906 H   0  0  0  0  0  0  0  0  0  0  0  0
   84.7082   94.3245   30.8444 H   0  0  0  0  0  0  0  0  0  0  0  0
   86.1855   95.2518   31.4065 H   0  0  0  0  0  0  0  0  0  0  0  0
   86.0709   92.7855   32.0259 H   0  0  0  0  0  0  0  0  0  0  0  0
   86.3801   93.9978   33.3522 H   0  0  0  0  0  0  0  0  0  0  0  0
   84.5440   92.0390   33.4930 H   0  0  0  0  0  0  0  0  0  0  0  0
   83.6490   93.2860   32.8670 H   0  0  0  0  0  0  0  0  0  0  0  0
   83.6533   93.0055   35.3865 H   0  0  0  0  0  0  0  0  0  0  0  0
   85.1709   93.9501   35.2526 H   0  0  0  0  0  0  0  0  0  0  0  0
   82.4109   94.8917   35.0115 H   0  0  0  0  0  0  0  0  0  0  0  0
   83.9199   95.8557   34.9710 H   0  0  0  0  0  0  0  0  0  0  0  0
   82.5956   96.7290   30.9703 H   0  0  0  0  0  0  0  0  0  0  0  0
  1  2  1  0
  2  3  1  0
  3  4  1  0
  4  5  2  0
  5  6  1  0
  6  7  2  0
  7  8  1  0
  8  9  1  0
  9 10  1  0
 10 11  1  0
 11 12  1  0
 12 13  1  0
 13 14  1  0
 14 15  1  0
  8 16  2  0
 16  4  1  0
 15  9  1  0
  1 17  1  0
  1 18  1  0
  1 19  1  0
  2 20  1  0
  2 21  1  0
  5 22  1  0
  7 23  1  0
 10 24  1  0
 10 25  1  0
 11 26  1  0
 11 27  1  0
 12 28  1  0
 12 29  1  0
 13 30  1  0
 13 31  1  0
 14 32  1  0
 14 33  1  0
 15 34  1  0
 15 35  1  0
 16 36  1  0
M  CHG  1  13   1
M  END
>  <meeko>  (3) 
{"is_sidechain": [false], "free_energy": -4.783, "intermolecular_energy": -7.251, "internal_energy": 0.262}

$$$$
3u8k_ligand
     RDKit          3D

 36 37  0  0  0  0  0  0  0  0999 V2000
   76.3360  100.2370   34.8070 C   0  0  0  0  0  0  0  0  0  0  0  0
   76.8270   99.6460   36.1180 C   0  0  0  0  0  0  0  0  0  0  0  0
   78.0610   98.9500   35.9330 O   0  0  0  0  0  0  0  0  0  0  0  0
   78.0230   97.6620   35.4860 C   0  0  0  0  0  0  0  0  0  0  0  0
   77.2400   96.6240   35.9590 C   0  0  0  0  0  0  0  0  0  0  0  0
   77.2810   95.3690   35.4570 N   0  0  0  0  0  0  0  0  0  0  0  0
   78.1350   95.1460   34.4290 C   0  0  0  0  0  0  0  0  0  0  0  0
   78.9680   96.1050   33.8430 C   0  0  0  0  0  0  0  0  0  0  0  0
   79.8700   95.8440   32.8000 N   0  0  0  0  0  0  0  0  0  0  0  0
   80.0060   96.8480   31.7210 C   0  0  0  0  0  0  0  0  0  0  0  0
   80.4370   96.2030   30.3990 C   0  0  0  0  0  0  0  0  0  0  0  0
   81.9330   96.2030   30.1710 C   0  0  0  0  0  0  0  0  0  0  0  0
   82.6750   95.5210   31.2700 N   0  0  0  0  0  0  0  0  0  0  0  0
   82.3370   95.9300   32.6820 C   0  0  0  0  0  0  0  0  0  0  0  0
   81.1140   95.1100   33.1660 C   0  0  0  0  0  0  0  0  0  0  0  0
   78.8890   97.3810   34.4230 C   0  0  0  0  0  0  0  0  0  0  0  0
   75.6457  101.0678   35.0151 H   0  0  0  0  0  0  0  0  0  0  0  0
   77.1942  100.6094   34.2285 H   0  0  0  0  0  0  0  0  0  0  0  0
   75.8126   99.4615   34.2285 H   0  0  0  0  0  0  0  0  0  0  0  0
   76.9768  100.4576   36.8452 H   0  0  0  0  0  0  0  0  0  0  0  0
   76.0738   98.9341   36.4866 H   0  0  0  0  0  0  0  0  0  0  0  0
   76.5470   96.8307   36.7878 H   0  0  0  0  0  0  0  0  0  0  0  0
   78.1768   94.1253   34.0210 H   0  0  0  0  0  0  0  0  0  0  0  0
   79.0371   97.3479   31.5748 H   0  0  0  0  0  0  0  0  0  0  0  0
   80.7804   97.5700   32.0194 H   0  0  0  0  0  0  0  0  0  0  0  0
   80.0865   95.1604   30.3928 H   0  0  0  0  0  0  0  0  0  0  0  0
   79.9930   96.8050   29.5925 H   0  0  0  0  0  0  0  0  0  0  0  0
   82.1463   95.6835   29.2252 H   0  0  0  0  0  0  0  0  0  0  0  0
   82.2677   97.2504   30.1396 H   0  0  0  0  0  0  0  0  0  0  0  0
   83.6880   95.5380   31.1060 H   0  0  0  0  0  0  0  0  0  0  0  0
   82.3820   94.5250   31.2370 H   0  0  0  0  0  0  0  0  0  0  0  0
   83.1968   95.7324   33.3390 H   0  0  0  0  0  0  0  0  0  0  0  0
   82.0995   97.0037   32.7111 H   0  0  0  0  0  0  0  0  0  0  0  0
   81.1163   94.1219   32.6826 H   0  0  0  0  0  0  0  0  0  0  0  0
   81.1618   94.9751   34.2566 H   0  0  0  0  0  0  0  0  0  0  0  0
   79.5279   98.1854   34.0296 H   0  0  0  0  0  0  0  0  0  0  0  0
  1  2  1  0
  2  3  1  0
  3  4  1  0
  4  5  2  0
  5  6  1  0
  6  7  2  0
  7  8  1  0
  8  9  1  0
  9 10  1  0
 10 11  1  0
 11 12  1  0
 12 13  1  0
 13 14  1  0
 14 15  1  0
  8 16  2  0
 16  4  1  0
 15  9  1  0
  1 17  1  0
  1 18  1  0
  1 19  1  0
  2 20  1  0
  2 21  1  0
  5 22  1  0
  7 23  1  0
 10 24  1  0
 10 25  1  0
 11 26  1  0
 11 27  1  0
 12 28  1  0
 12 29  1  0
 13 30  1  0
 13 31  1  0
 14 32  1  0
 14 33  1  0
 15 34  1  0
 15 35  1  0
 16 36  1  0
M  CHG  1  13   1
M  END
>  <meeko>  (4) 
{"is_sidechain": [false], "free_energy": -4.269, "intermolecular_energy": -6.497, "internal_energy": 0.293}

$$$$
3u8k_ligand
     RDKit          3D

 36 37  0  0  0  0  0  0  0  0999 V2000
   80.3230   96.3070   33.5930 C   0  0  0  0  0  0  0  0  0  0  0  0
   78.8970   96.7750   33.8300 C   0  0  0  0  0  0  0  0  0  0  0  0
   78.5060   96.5520   35.1870 O   0  0  0  0  0  0  0  0  0  0  0  0
   77.9440   97.5830   35.8810 C   0  0  0  0  0  0  0  0  0  0  0  0
   77.3970   97.5500   37.1510 C   0  0  0  0  0  0  0  0  0  0  0  0
   76.8480   98.6280   37.7550 N   0  0  0  0  0  0  0  0  0  0  0  0
   76.8580   99.7920   37.0630 C   0  0  0  0  0  0  0  0  0  0  0  0
   77.3930   99.9710   35.7830 C   0  0  0  0  0  0  0  0  0  0  0  0
   77.3630  101.1800   35.0700 N   0  0  0  0  0  0  0  0  0  0  0  0
   76.0970  101.5750   34.4120 C   0  0  0  0  0  0  0  0  0  0  0  0
   75.8920  103.0940   34.4460 C   0  0  0  0  0  0  0  0  0  0  0  0
   76.7750  103.8830   33.4530 C   0  0  0  0  0  0  0  0  0  0  0  0
   78.1500  104.1550   33.9640 N   0  0  0  0  0  0  0  0  0  0  0  0
   78.9480  102.9710   34.4480 C   0  0  0  0  0  0  0  0  0  0  0  0
   78.1880  102.2940   35.6170 C   0  0  0  0  0  0  0  0  0  0  0  0
   77.9300   98.8100   35.2060 C   0  0  0  0  0  0  0  0  0  0  0  0
   80.8208   96.1436   34.5602 H   0  0  0  0  0  0  0  0  0  0  0  0
   80.3102   95.3659   33.0236 H   0  0  0  0  0  0  0  0  0  0  0  0
   80.8703   97.0726   33.0236 H   0  0  0  0  0  0  0  0  0  0  0  0
   78.8291   97.8501   33.6076 H   0  0  0  0  0  0  0  0  0  0  0  0
   78.2256   96.2036   33.1722 H   0  0  0  0  0  0  0  0  0  0  0  0
   77.4093   96.5961   37.6987 H   0  0  0  0  0  0  0  0  0  0  0  0
   76.4076  100.6705   37.5482 H   0  0  0  0  0  0  0  0  0  0  0  0
   76.1204  101.2415   33.3640 H   0  0  0  0  0  0  0  0  0  0  0  0
   75.2653  101.1038   34.9563 H   0  0  0  0  0  0  0  0  0  0  0  0
   74.8383  103.3037   34.2101 H   0  0  0  0  0  0  0  0  0  0  0  0
   76.1819  103.4260   35.4539 H   0  0  0  0  0  0  0  0  0  0  0  0
   76.8581  103.3013   32.5231 H   0  0  0  0  0  0  0  0  0  0  0  0
   76.2907  104.8578   33.2941 H   0  0  0  0  0  0  0  0  0  0  0  0
   78.1500  104.9160   34.6530 H   0  0  0  0  0  0  0  0  0  0  0  0
   78.6970  104.4900   33.1470 H   0  0  0  0  0  0  0  0  0  0  0  0
   79.0761  102.2517   33.6257 H   0  0  0  0  0  0  0  0  0  0  0  0
   79.9376  103.3056   34.7925 H   0  0  0  0  0  0  0  0  0  0  0  0
   78.9092  101.8967   36.3464 H   0  0  0  0  0  0  0  0  0  0  0  0
   77.5404  103.0286   36.1179 H   0  0  0  0  0  0  0  0  0  0  0  0
   78.3531   98.8654   34.1921 H   0  0  0  0  0  0  0  0  0  0  0  0
  1  2  1  0
  2  3  1  0
  3  4  1  0
  4  5  2  0
  5  6  1  0
  6  7  2  0
  7  8  1  0
  8  9  1  0
  9 10  1  0
 10 11  1  0
 11 12  1  0
 12 13  1  0
 13 14  1  0
 14 15  1  0
  8 16  2  0
 16  4  1  0
 15  9  1  0
  1 17  1  0
  1 18  1  0
  1 19  1  0
  2 20  1  0
  2 21  1  0
  5 22  1  0
  7 23  1  0
 10 24  1  0
 10 25  1  0
 11 26  1  0
 11 27  1  0
 12 28  1  0
 12 29  1  0
 13 30  1  0
 13 31  1  0
 14 32  1  0
 14 33  1  0
 15 34  1  0
 15 35  1  0
 16 36  1  0
M  CHG  1  13   1
M  END
>  <meeko>  (5) 
{"is_sidechain": [false], "free_energy": -4.065, "intermolecular_energy": -6.22, "internal_energy": 0.326}

$$$$
3u8k_ligand
     RDKit          3D

 36 37  0  0  0  0  0  0  0  0999 V2000
   81.0480  104.0340   34.0520 C   0  0  0  0  0  0  0  0  0  0  0  0
   79.8270  104.3410   34.9020 C   0  0  0  0  0  0  0  0  0  0  0  0
   78.6240  103.9960   34.2110 O   0  0  0  0  0  0  0  0  0  0  0  0
   77.7070  103.2140   34.8500 C   0  0  0  0  0  0  0  0  0  0  0  0
   76.4450  103.5750   35.2870 C   0  0  0  0  0  0  0  0  0  0  0  0
   75.6060  102.7290   35.9260 N   0  0  0  0  0  0  0  0  0  0  0  0
   76.0450  101.4620   36.1250 C   0  0  0  0  0  0  0  0  0  0  0  0
   77.2860  100.9600   35.7200 C   0  0  0  0  0  0  0  0  0  0  0  0
   77.7330   99.6530   35.9660 N   0  0  0  0  0  0  0  0  0  0  0  0
   78.0690   99.2760   37.3580 C   0  0  0  0  0  0  0  0  0  0  0  0
   77.0340   98.3110   37.9480 C   0  0  0  0  0  0  0  0  0  0  0  0
   77.3790   96.8300   37.7550 C   0  0  0  0  0  0  0  0  0  0  0  0
   77.2930   96.4020   36.3290 N   0  0  0  0  0  0  0  0  0  0  0  0
   77.9680   97.2820   35.3070 C   0  0  0  0  0  0  0  0  0  0  0  0
   77.1340   98.5770   35.1270 C   0  0  0  0  0  0  0  0  0  0  0  0
   78.1140  101.8950   35.0790 C   0  0  0  0  0  0  0  0  0  0  0  0
   81.9055  103.8184   34.7064 H   0  0  0  0  0  0  0  0  0  0  0  0
   80.8423  103.1596   33.4171 H   0  0  0  0  0  0  0  0  0  0  0  0
   81.2803  104.9017   33.4171 H   0  0  0  0  0  0  0  0  0  0  0  0
   79.8840  103.7630   35.8362 H   0  0  0  0  0  0  0  0  0  0  0  0
   79.8113  105.4196   35.1176 H   0  0  0  0  0  0  0  0  0  0  0  0
   76.1060  104.6055   35.1048 H   0  0  0  0  0  0  0  0  0  0  0  0
   75.3685  100.7708   36.6489 H   0  0  0  0  0  0  0  0  0  0  0  0
   79.0559   98.7903   37.3678 H   0  0  0  0  0  0  0  0  0  0  0  0
   78.0744  100.1902   37.9698 H   0  0  0  0  0  0  0  0  0  0  0  0
   76.9524   98.5091   39.0269 H   0  0  0  0  0  0  0  0  0  0  0  0
   76.0907   98.4899   37.4111 H   0  0  0  0  0  0  0  0  0  0  0  0
   78.4046   96.6576   38.1133 H   0  0  0  0  0  0  0  0  0  0  0  0
   76.6457   96.2402   38.3246 H   0  0  0  0  0  0  0  0  0  0  0  0
   76.3260   96.1870   36.0600 H   0  0  0  0  0  0  0  0  0  0  0  0
   77.8270   95.5140   36.2640 H   0  0  0  0  0  0  0  0  0  0  0  0
   78.9798   97.5399   35.6530 H   0  0  0  0  0  0  0  0  0  0  0  0
   78.0398   96.7495   34.3472 H   0  0  0  0  0  0  0  0  0  0  0  0
   77.1471   98.8815   34.0701 H   0  0  0  0  0  0  0  0  0  0  0  0
   76.0933   98.3978   35.4351 H   0  0  0  0  0  0  0  0  0  0  0  0
   79.1143  101.5808   34.7463 H   0  0  0  0  0  0  0  0  0  0  0  0
  1  2  1  0
  2  3  1  0
  3  4  1  0
  4  5  2  0
  5  6  1  0
  6  7  2  0
  7  8  1  0
  8  9  1  0
  9 10  1  0
 10 11  1  0
 11 12  1  0
 12 13  1  0
 13 14  1  0
 14 15  1  0
  8 16  2  0
 16  4  1  0
 15  9  1  0
  1 17  1  0
  1 18  1  0
  1 19  1  0
  2 20  1  0
  2 21  1  0
  5 22  1  0
  7 23  1  0
 10 24  1  0
 10 25  1  0
 11 26  1  0
 11 27  1  0
 12 28  1  0
 12 29  1  0
 13 30  1  0
 13 31  1  0
 14 32  1  0
 14 33  1  0
 15 34  1  0
 15 35  1  0
 16 36  1  0
M  CHG  1  13   1
M  END
>  <meeko>  (6) 
{"is_sidechain": [false], "free_energy": -3.725, "intermolecular_energy": -5.7, "internal_energy": 0.326}

$$$$
3u8k_ligand
     RDKit          3D

 36 37  0  0  0  0  0  0  0  0999 V2000
   79.3720   95.8490   32.1910 C   0  0  0  0  0  0  0  0  0  0  0  0
   79.4290   96.0820   33.6910 C   0  0  0  0  0  0  0  0  0  0  0  0
   78.1390   95.9150   34.2830 O   0  0  0  0  0  0  0  0  0  0  0  0
   77.7990   96.7060   35.3410 C   0  0  0  0  0  0  0  0  0  0  0  0
   77.4010   96.3050   36.6040 C   0  0  0  0  0  0  0  0  0  0  0  0
   77.0700   97.1680   37.5910 N   0  0  0  0  0  0  0  0  0  0  0  0
   77.1530   98.4900   37.3060 C   0  0  0  0  0  0  0  0  0  0  0  0
   77.5580   99.0320   36.0810 C   0  0  0  0  0  0  0  0  0  0  0  0
   77.6050  100.4050   35.7960 N   0  0  0  0  0  0  0  0  0  0  0  0
   78.9030  101.1050   35.9250 C   0  0  0  0  0  0  0  0  0  0  0  0
   78.8170  102.2790   36.9080 C   0  0  0  0  0  0  0  0  0  0  0  0
   78.0790  103.5040   36.3690 C   0  0  0  0  0  0  0  0  0  0  0  0
   77.4210  103.2490   35.0560 N   0  0  0  0  0  0  0  0  0  0  0  0
   76.2320  102.3210   35.0530 C   0  0  0  0  0  0  0  0  0  0  0  0
   76.7110  100.8880   34.7070 C   0  0  0  0  0  0  0  0  0  0  0  0
   77.8690   98.0820   35.0960 C   0  0  0  0  0  0  0  0  0  0  0  0
   79.1149   94.7980   31.9927 H   0  0  0  0  0  0  0  0  0  0  0  0
   78.6075   96.5036   31.7471 H   0  0  0  0  0  0  0  0  0  0  0  0
   80.3523   96.0767   31.7471 H   0  0  0  0  0  0  0  0  0  0  0  0
   80.1277   95.3613   34.1410 H   0  0  0  0  0  0  0  0  0  0  0  0
   79.7686   97.1122   33.8737 H   0  0  0  0  0  0  0  0  0  0  0  0
   77.3512   95.2269   36.8165 H   0  0  0  0  0  0  0  0  0  0  0  0
   76.8793   99.1960   38.1039 H   0  0  0  0  0  0  0  0  0  0  0  0
   79.6587  100.3919   36.2861 H   0  0  0  0  0  0  0  0  0  0  0  0
   79.1784  101.5032   34.9373 H   0  0  0  0  0  0  0  0  0  0  0  0
   78.2940  101.9329   37.8117 H   0  0  0  0  0  0  0  0  0  0  0  0
   79.8510  102.5983   37.1052 H   0  0  0  0  0  0  0  0  0  0  0  0
   77.3089  103.7991   37.0969 H   0  0  0  0  0  0  0  0  0  0  0  0
   78.8232  104.2998   36.2181 H   0  0  0  0  0  0  0  0  0  0  0  0
   78.1070  102.9840   34.3380 H   0  0  0  0  0  0  0  0  0  0  0  0
   77.0130  104.1560   34.7600 H   0  0  0  0  0  0  0  0  0  0  0  0
   75.7606  102.3224   36.0469 H   0  0  0  0  0  0  0  0  0  0  0  0
   75.4991  102.6585   34.3053 H   0  0  0  0  0  0  0  0  0  0  0  0
   75.8422  100.2192   34.6178 H   0  0  0  0  0  0  0  0  0  0  0  0
   77.2564  100.8965   33.7517 H   0  0  0  0  0  0  0  0  0  0  0  0
   78.1777   98.4302   34.0993 H   0  0  0  0  0  0  0  0  0  0  0  0
  1  2  1  0
  2  3  1  0
  3  4  1  0
  4  5  2  0
  5  6  1  0
  6  7  2  0
  7  8  1  0
  8  9  1  0
  9 10  1  0
 10 11  1  0
 11 12  1  0
 12 13  1  0
 13 14  1  0
 14 15  1  0
  8 16  2  0
 16  4  1  0
 15  9  1  0
  1 17  1  0
  1 18  1  0
  1 19  1  0
  2 20  1  0
  2 21  1  0
  5 22  1  0
  7 23  1  0
 10 24  1  0
 10 25  1  0
 11 26  1  0
 11 27  1  0
 12 28  1  0
 12 29  1  0
 13 30  1  0
 13 31  1  0
 14 32  1  0
 14 33  1  0
 15 34  1  0
 15 35  1  0
 16 36  1  0
M  CHG  1  13   1
M  END
>  <meeko>  (7) 
{"is_sidechain": [false], "free_energy": -3.687, "intermolecular_energy": -5.511, "internal_energy": 0.196}

$$$$
3u8k_ligand
     RDKit          3D

 36 37  0  0  0  0  0  0  0  0999 V2000
   81.5280  104.2950   35.1740 C   0  0  0  0  0  0  0  0  0  0  0  0
   80.5080  103.5570   34.3240 C   0  0  0  0  0  0  0  0  0  0  0  0
   79.2510  104.2380   34.3310 O   0  0  0  0  0  0  0  0  0  0  0  0
   78.1100  103.5010   34.2110 C   0  0  0  0  0  0  0  0  0  0  0  0
   76.9550  103.8340   33.5260 C   0  0  0  0  0  0  0  0  0  0  0  0
   75.8620  103.0390   33.4750 N   0  0  0  0  0  0  0  0  0  0  0  0
   75.9330  101.8540   34.1270 C   0  0  0  0  0  0  0  0  0  0  0  0
   77.0420  101.3850   34.8410 C   0  0  0  0  0  0  0  0  0  0  0  0
   77.0810  100.1670   35.5380 N   0  0  0  0  0  0  0  0  0  0  0  0
   76.8550   98.9160   34.7790 C   0  0  0  0  0  0  0  0  0  0  0  0
   77.9010   97.8490   35.1230 C   0  0  0  0  0  0  0  0  0  0  0  0
   77.6050   97.0580   36.4000 C   0  0  0  0  0  0  0  0  0  0  0  0
   77.9570   97.7940   37.6490 N   0  0  0  0  0  0  0  0  0  0  0  0
   77.4370   99.2030   37.7850 C   0  0  0  0  0  0  0  0  0  0  0  0
   78.0520  100.0790   36.6640 C   0  0  0  0  0  0  0  0  0  0  0  0
   78.1330  102.2660   34.8700 C   0  0  0  0  0  0  0  0  0  0  0  0
   81.3040  104.1330   36.2387 H   0  0  0  0  0  0  0  0  0  0  0  0
   82.5358  103.9156   34.9494 H   0  0  0  0  0  0  0  0  0  0  0  0
   81.4828  105.3709   34.9494 H   0  0  0  0  0  0  0  0  0  0  0  0
   80.8782  103.4945   33.2901 H   0  0  0  0  0  0  0  0  0  0  0  0
   80.3647  102.5496   34.7418 H   0  0  0  0  0  0  0  0  0  0  0  0
   76.9240  104.7966   32.9946 H   0  0  0  0  0  0  0  0  0  0  0  0
   75.0449  101.2059   34.0926 H   0  0  0  0  0  0  0  0  0  0  0  0
   75.8552   98.5269   35.0220 H   0  0  0  0  0  0  0  0  0  0  0  0
   76.9379   99.1452   33.7063 H   0  0  0  0  0  0  0  0  0  0  0  0
   77.9565   97.1393   34.2844 H   0  0  0  0  0  0  0  0  0  0  0  0
   78.8467   98.3830   35.2980 H   0  0  0  0  0  0  0  0  0  0  0  0
   76.5303   96.8246   36.4242 H   0  0  0  0  0  0  0  0  0  0  0  0
   78.2274   96.1514   36.3715 H   0  0  0  0  0  0  0  0  0  0  0  0
   78.9650   97.7450   37.8410 H   0  0  0  0  0  0  0  0  0  0  0  0
   77.4790   97.2900   38.4210 H   0  0  0  0  0  0  0  0  0  0  0  0
   76.3409   99.2020   37.6926 H   0  0  0  0  0  0  0  0  0  0  0  0
   77.7163   99.6086   38.7686 H   0  0  0  0  0  0  0  0  0  0  0  0
   78.2590  101.0867   37.0536 H   0  0  0  0  0  0  0  0  0  0  0  0
   78.9930   99.6307   36.3125 H   0  0  0  0  0  0  0  0  0  0  0  0
   79.0357  101.9773   35.4284 H   0  0  0  0  0  0  0  0  0  0  0  0
  1  2  1  0
  2  3  1  0
  3  4  1  0
  4  5  2  0
  5  6  1  0
  6  7  2  0
  7  8  1  0
  8  9  1  0
  9 10  1  0
 10 11  1  0
 11 12  1  0
 12 13  1  0
 13 14  1  0
 14 15  1  0
  8 16  2  0
 16  4  1  0
 15  9  1  0
  1 17  1  0
  1 18  1  0
  1 19  1  0
  2 20  1  0
  2 21  1  0
  5 22  1  0
  7 23  1  0
 10 24  1  0
 10 25  1  0
 11 26  1  0
 11 27  1  0
 12 28  1  0
 12 29  1  0
 13 30  1  0
 13 31  1  0
 14 32  1  0
 14 33  1  0
 15 34  1  0
 15 35  1  0
 16 36  1  0
M  CHG  1  13   1
M  END
>  <meeko>  (8) 
{"is_sidechain": [false], "free_energy": -3.61, "intermolecular_energy": -5.508, "internal_energy": 0.31}

$$$$
3u8k_ligand
     RDKit          3D

 36 37  0  0  0  0  0  0  0  0999 V2000
   75.5240  102.5660   33.1980 C   0  0  0  0  0  0  0  0  0  0  0  0
   75.7020  103.4400   34.4270 C   0  0  0  0  0  0  0  0  0  0  0  0
   75.7910  102.6430   35.6110 O   0  0  0  0  0  0  0  0  0  0  0  0
   77.0080  102.1440   35.9710 C   0  0  0  0  0  0  0  0  0  0  0  0
   78.2200  102.8100   36.0030 C   0  0  0  0  0  0  0  0  0  0  0  0
   79.3840  102.2240   36.3650 N   0  0  0  0  0  0  0  0  0  0  0  0
   79.3310  100.9180   36.7210 C   0  0  0  0  0  0  0  0  0  0  0  0
   78.1740  100.1320   36.7510 C   0  0  0  0  0  0  0  0  0  0  0  0
   78.1470   98.7700   37.0900 N   0  0  0  0  0  0  0  0  0  0  0  0
   77.0870   98.2970   38.0100 C   0  0  0  0  0  0  0  0  0  0  0  0
   77.3350   96.8530   38.4630 C   0  0  0  0  0  0  0  0  0  0  0  0
   76.6560   95.7900   37.5890 C   0  0  0  0  0  0  0  0  0  0  0  0
   77.1530   95.7650   36.1830 N   0  0  0  0  0  0  0  0  0  0  0  0
   77.3000   97.0940   35.4850 C   0  0  0  0  0  0  0  0  0  0  0  0
   78.5620   97.8120   36.0270 C   0  0  0  0  0  0  0  0  0  0  0  0
   77.0050  100.7960   36.3470 C   0  0  0  0  0  0  0  0  0  0  0  0
   75.3135  101.5325   33.5104 H   0  0  0  0  0  0  0  0  0  0  0  0
   74.6847  102.9454   32.5967 H   0  0  0  0  0  0  0  0  0  0  0  0
   76.4449  102.5870   32.5967 H   0  0  0  0  0  0  0  0  0  0  0  0
   76.6245  104.0294   34.3193 H   0  0  0  0  0  0  0  0  0  0  0  0
   74.8298  104.1045   34.5152 H   0  0  0  0  0  0  0  0  0  0  0  0
   78.2381  103.8725   35.7190 H   0  0  0  0  0  0  0  0  0  0  0  0
   80.2762  100.4354   37.0105 H   0  0  0  0  0  0  0  0  0  0  0  0
   77.0651   98.9499   38.8950 H   0  0  0  0  0  0  0  0  0  0  0  0
   76.1270   98.3291   37.4740 H   0  0  0  0  0  0  0  0  0  0  0  0
   78.4194   96.6691   38.4485 H   0  0  0  0  0  0  0  0  0  0  0  0
   76.8981   96.7594   39.4682 H   0  0  0  0  0  0  0  0  0  0  0  0
   76.8368   94.8027   38.0391 H   0  0  0  0  0  0  0  0  0  0  0  0
   75.5861   96.0422   37.5480 H   0  0  0  0  0  0  0  0  0  0  0  0
   76.6250   95.0960   35.6110 H   0  0  0  0  0  0  0  0  0  0  0  0
   78.1290   95.4150   36.2320 H   0  0  0  0  0  0  0  0  0  0  0  0
   77.4044   96.9322   34.4020 H   0  0  0  0  0  0  0  0  0  0  0  0
   76.4105   97.7131   35.6736 H   0  0  0  0  0  0  0  0  0  0  0  0
   79.2576   97.0709   36.4476 H   0  0  0  0  0  0  0  0  0  0  0  0
   79.0653   98.3520   35.2115 H   0  0  0  0  0  0  0  0  0  0  0  0
   76.0566  100.2391   36.3253 H   0  0  0  0  0  0  0  0  0  0  0  0
  1  2  1  0
  2  3  1  0
  3  4  1  0
  4  5  2  0
  5  6  1  0
  6  7  2  0
  7  8  1  0
  8  9  1  0
  9 10  1  0
 10 11  1  0
 11 12  1  0
 12 13  1  0
 13 14  1  0
 14 15  1  0
  8 16  2  0
 16  4  1  0
 15  9  1  0
  1 17  1  0
  1 18  1  0
  1 19  1  0
  2 20  1  0
  2 21  1  0
  5 22  1  0
  7 23  1  0
 10 24  1  0
 10 25  1  0
 11 26  1  0
 11 27  1  0
 12 28  1  0
 12 29  1  0
 13 30  1  0
 13 31  1  0
 14 32  1  0
 14 33  1  0
 15 34  1  0
 15 35  1  0
 16 36  1  0
M  CHG  1  13   1
M  END
>  <meeko>  (9) 
{"is_sidechain": [false], "free_energy": -3.591, "intermolecular_energy": -5.433, "internal_energy": 0.264}

$$$$
