4mgd_ligand
     RDKit          3D

 30 31  0  0  0  0  0  0  0  0999 V2000
   -9.5900  -10.5680   54.4890 O   0  0  0  0  0  0  0  0  0  0  0  0
  -10.1690  -10.8550   53.2890 C   0  0  0  0  0  0  0  0  0  0  0  0
   -9.4630  -10.7540   52.0990 C   0  0  0  0  0  0  0  0  0  0  0  0
  -10.1030  -11.0590   50.8950 C   0  0  0  0  0  0  0  0  0  0  0  0
  -11.4520  -11.4750   50.8650 C   0  0  0  0  0  0  0  0  0  0  0  0
  -12.0890  -11.7730   49.4950 C   0  0  0  0  0  0  0  0  0  0  0  0
  -13.5930  -11.4520   49.5070 C   0  0  0  0  0  0  0  0  0  0  0  0
  -14.5530  -12.4130   49.8660 C   0  0  0  0  0  0  0  0  0  0  0  0
  -15.9130  -12.0980   49.8650 C   0  0  0  0  0  0  0  0  0  0  0  0
  -16.3260  -10.8220   49.5090 C   0  0  0  0  0  0  0  0  0  0  0  0
  -17.6640  -10.5600   49.5210 O   0  0  0  0  0  0  0  0  0  0  0  0
  -15.3990   -9.8480   49.1570 C   0  0  0  0  0  0  0  0  0  0  0  0
  -14.0370  -10.1620   49.1600 C   0  0  0  0  0  0  0  0  0  0  0  0
  -11.7300  -13.1190   48.7650 C   0  0  0  0  0  0  0  0  0  0  0  0
   -9.9600  -13.2160   48.4000 Cl  0  0  0  0  0  0  0  0  0  0  0  0
  -12.1970  -14.6100   49.6540 Cl  0  0  0  0  0  0  0  0  0  0  0  0
  -12.5560  -13.2050   47.1460 Cl  0  0  0  0  0  0  0  0  0  0  0  0
  -12.1400  -11.5530   52.0840 C   0  0  0  0  0  0  0  0  0  0  0  0
  -11.4990  -11.2490   53.2890 C   0  0  0  0  0  0  0  0  0  0  0  0
   -9.8680   -9.6790   54.7630 H   0  0  0  0  0  0  0  0  0  0  0  0
   -8.4097  -10.4369   52.1033 H   0  0  0  0  0  0  0  0  0  0  0  0
   -9.5445  -10.9733   49.9512 H   0  0  0  0  0  0  0  0  0  0  0  0
  -11.5696  -11.0718   48.8252 H   0  0  0  0  0  0  0  0  0  0  0  0
  -14.2294  -13.4249   50.1511 H   0  0  0  0  0  0  0  0  0  0  0  0
  -16.6555  -12.8595   50.1458 H   0  0  0  0  0  0  0  0  0  0  0  0
  -18.1440  -11.4000   49.6050 H   0  0  0  0  0  0  0  0  0  0  0  0
  -15.7345   -8.8382   48.8783 H   0  0  0  0  0  0  0  0  0  0  0  0
  -13.3019   -9.3904   48.8874 H   0  0  0  0  0  0  0  0  0  0  0  0
  -13.1971  -11.8571   52.0927 H   0  0  0  0  0  0  0  0  0  0  0  0
  -12.0502  -11.3224   54.2381 H   0  0  0  0  0  0  0  0  0  0  0  0
  1  2  1  0
  2  3  2  0
  3  4  1  0
  4  5  2  0
  5  6  1  0
  6  7  1  0
  7  8  2  0
  8  9  1  0
  9 10  2  0
 10 11  1  0
 10 12  1  0
 12 13  2  0
  6 14  1  0
 14 15  1  0
 14 16  1  0
 14 17  1  0
  5 18  1  0
 18 19  2  0
 19  2  1  0
 13  7  1  0
  1 20  1  0
  3 21  1  0
  4 22  1  0
  6 23  1  0
  8 24  1  0
  9 25  1  0
 11 26  1  0
 12 27  1  0
 13 28  1  0
 18 29  1  0
 19 30  1  0
M  END
>  <meeko>  (1) 
{"is_sidechain": [false], "free_energy": -8.765, "intermolecular_energy": -10.814, "internal_energy": -0.648}

$$$$
4mgd_ligand
     RDKit          3D

 30 31  0  0  0  0  0  0  0  0999 V2000
  -17.2540   -9.6980   48.8500 O   0  0  0  0  0  0  0  0  0  0  0  0
  -16.1470  -10.3970   49.2290 C   0  0  0  0  0  0  0  0  0  0  0  0
  -16.2170  -11.7410   49.5650 C   0  0  0  0  0  0  0  0  0  0  0  0
  -15.0530  -12.4130   49.9480 C   0  0  0  0  0  0  0  0  0  0  0  0
  -13.8050  -11.7540   49.9920 C   0  0  0  0  0  0  0  0  0  0  0  0
  -12.5730  -12.5610   50.4430 C   0  0  0  0  0  0  0  0  0  0  0  0
  -11.7020  -11.7390   51.4070 C   0  0  0  0  0  0  0  0  0  0  0  0
  -10.5850  -11.0130   50.9590 C   0  0  0  0  0  0  0  0  0  0  0  0
   -9.8060  -10.2770   51.8550 C   0  0  0  0  0  0  0  0  0  0  0  0
  -10.1360  -10.2580   53.2030 C   0  0  0  0  0  0  0  0  0  0  0  0
   -9.3460   -9.5280   54.0400 O   0  0  0  0  0  0  0  0  0  0  0  0
  -11.2390  -10.9610   53.6740 C   0  0  0  0  0  0  0  0  0  0  0  0
  -12.0200  -11.6950   52.7770 C   0  0  0  0  0  0  0  0  0  0  0  0
  -11.7530  -13.3640   49.3670 C   0  0  0  0  0  0  0  0  0  0  0  0
  -12.2300  -12.8870   47.6880 Cl  0  0  0  0  0  0  0  0  0  0  0  0
   -9.9680  -13.2060   49.5050 Cl  0  0  0  0  0  0  0  0  0  0  0  0
  -12.1240  -15.1420   49.4820 Cl  0  0  0  0  0  0  0  0  0  0  0  0
  -13.7720  -10.3920   49.6590 C   0  0  0  0  0  0  0  0  0  0  0  0
  -14.9370   -9.7200   49.2740 C   0  0  0  0  0  0  0  0  0  0  0  0
  -16.9920   -8.7840   48.6550 H   0  0  0  0  0  0  0  0  0  0  0  0
  -17.1793  -12.2727   49.5303 H   0  0  0  0  0  0  0  0  0  0  0  0
  -15.1102  -13.4771   50.2208 H   0  0  0  0  0  0  0  0  0  0  0  0
  -13.0184  -13.4089   50.9840 H   0  0  0  0  0  0  0  0  0  0  0  0
  -10.3213  -11.0245   49.8911 H   0  0  0  0  0  0  0  0  0  0  0  0
   -8.9331   -9.7139   51.4931 H   0  0  0  0  0  0  0  0  0  0  0  0
   -9.1990  -10.0400   54.8530 H   0  0  0  0  0  0  0  0  0  0  0  0
  -11.4949  -10.9397   54.7436 H   0  0  0  0  0  0  0  0  0  0  0  0
  -12.8965  -12.2466   53.1476 H   0  0  0  0  0  0  0  0  0  0  0  0
  -12.8183   -9.8454   49.7011 H   0  0  0  0  0  0  0  0  0  0  0  0
  -14.8936   -8.6539   49.0067 H   0  0  0  0  0  0  0  0  0  0  0  0
  1  2  1  0
  2  3  2  0
  3  4  1  0
  4  5  2  0
  5  6  1  0
  6  7  1  0
  7  8  2  0
  8  9  1  0
  9 10  2  0
 10 11  1  0
 10 12  1  0
 12 13  2  0
  6 14  1  0
 14 15  1  0
 14 16  1  0
 14 17  1  0
  5 18  1  0
 18 19  2  0
 19  2  1  0
 13  7  1  0
  1 20  1  0
  3 21  1  0
  4 22  1  0
  6 23  1  0
  8 24  1  0
  9 25  1  0
 11 26  1  0
 12 27  1  0
 13 28  1  0
 18 29  1  0
 19 30  1  0
M  END
>  <meeko>  (2) 
{"is_sidechain": [false], "free_energy": -8.069, "intermolecular_energy": -10.35, "internal_energy": -0.253}

$$$$
4mgd_ligand
     RDKit          3D

 30 31  0  0  0  0  0  0  0  0999 V2000
  -17.7040  -10.2080   49.1580 O   0  0  0  0  0  0  0  0  0  0  0  0
  -16.4080  -10.3970   49.5340 C   0  0  0  0  0  0  0  0  0  0  0  0
  -15.4160   -9.4820   49.2080 C   0  0  0  0  0  0  0  0  0  0  0  0
  -14.1020   -9.7230   49.6160 C   0  0  0  0  0  0  0  0  0  0  0  0
  -13.7620  -10.8730   50.3610 C   0  0  0  0  0  0  0  0  0  0  0  0
  -12.2880  -11.0740   50.7550 C   0  0  0  0  0  0  0  0  0  0  0  0
  -11.6690  -12.2530   49.9860 C   0  0  0  0  0  0  0  0  0  0  0  0
  -10.5200  -12.0980   49.1920 C   0  0  0  0  0  0  0  0  0  0  0  0
   -9.9790  -13.1830   48.5000 C   0  0  0  0  0  0  0  0  0  0  0  0
  -10.5790  -14.4310   48.5940 C   0  0  0  0  0  0  0  0  0  0  0  0
  -10.0180  -15.4610   47.8990 O   0  0  0  0  0  0  0  0  0  0  0  0
  -11.7120  -14.6160   49.3770 C   0  0  0  0  0  0  0  0  0  0  0  0
  -12.2520  -13.5310   50.0720 C   0  0  0  0  0  0  0  0  0  0  0  0
  -11.8930  -11.0270   52.2770 C   0  0  0  0  0  0  0  0  0  0  0  0
  -12.0550   -9.3530   52.9460 Cl  0  0  0  0  0  0  0  0  0  0  0  0
  -12.8270  -12.1420   53.3350 Cl  0  0  0  0  0  0  0  0  0  0  0  0
  -10.1390  -11.4600   52.4940 Cl  0  0  0  0  0  0  0  0  0  0  0  0
  -14.7860  -11.7840   50.6620 C   0  0  0  0  0  0  0  0  0  0  0  0
  -16.1020  -11.5430   50.2540 C   0  0  0  0  0  0  0  0  0  0  0  0
  -18.2270   -9.9880   49.9450 H   0  0  0  0  0  0  0  0  0  0  0  0
  -15.6623   -8.5764   48.6342 H   0  0  0  0  0  0  0  0  0  0  0  0
  -13.3153   -9.0013   49.3511 H   0  0  0  0  0  0  0  0  0  0  0  0
  -11.8170  -10.1353   50.4277 H   0  0  0  0  0  0  0  0  0  0  0  0
  -10.0415  -11.1106   49.1149 H   0  0  0  0  0  0  0  0  0  0  0  0
   -9.0792  -13.0491   47.8816 H   0  0  0  0  0  0  0  0  0  0  0  0
   -9.9070  -16.2170   48.4990 H   0  0  0  0  0  0  0  0  0  0  0  0
  -12.1800  -15.6089   49.4490 H   0  0  0  0  0  0  0  0  0  0  0  0
  -13.1461  -13.6778   50.6957 H   0  0  0  0  0  0  0  0  0  0  0  0
  -14.5509  -12.6989   51.2257 H   0  0  0  0  0  0  0  0  0  0  0  0
  -16.8953  -12.2628   50.5042 H   0  0  0  0  0  0  0  0  0  0  0  0
  1  2  1  0
  2  3  2  0
  3  4  1  0
  4  5  2  0
  5  6  1  0
  6  7  1  0
  7  8  2  0
  8  9  1  0
  9 10  2  0
 10 11  1  0
 10 12  1  0
 12 13  2  0
  6 14  1  0
 14 15  1  0
 14 16  1  0
 14 17  1  0
  5 18  1  0
 18 19  2  0
 19  2  1  0
 13  7  1  0
  1 20  1  0
  3 21  1  0
  4 22  1  0
  6 23  1  0
  8 24  1  0
  9 25  1  0
 11 26  1  0
 12 27  1  0
 13 28  1  0
 18 29  1  0
 19 30  1  0
M  END
>  <meeko>  (3) 
{"is_sidechain": [false], "free_energy": -7.497, "intermolecular_energy": -9.322, "internal_energy": -0.576}

$$$$
4mgd_ligand
     RDKit          3D

 30 31  0  0  0  0  0  0  0  0999 V2000
   -9.8780  -15.2550   47.7550 O   0  0  0  0  0  0  0  0  0  0  0  0
  -10.5760  -14.4820   48.6350 C   0  0  0  0  0  0  0  0  0  0  0  0
  -11.7170  -14.9520   49.2680 C   0  0  0  0  0  0  0  0  0  0  0  0
  -12.3960  -14.1190   50.1610 C   0  0  0  0  0  0  0  0  0  0  0  0
  -11.9410  -12.8110   50.4390 C   0  0  0  0  0  0  0  0  0  0  0  0
  -12.7580  -11.9510   51.4200 C   0  0  0  0  0  0  0  0  0  0  0  0
  -13.8380  -11.1470   50.6770 C   0  0  0  0  0  0  0  0  0  0  0  0
  -13.5280   -9.9840   49.9510 C   0  0  0  0  0  0  0  0  0  0  0  0
  -14.5270   -9.2690   49.2890 C   0  0  0  0  0  0  0  0  0  0  0  0
  -15.8430   -9.7080   49.3430 C   0  0  0  0  0  0  0  0  0  0  0  0
  -16.7850   -8.9770   48.6830 O   0  0  0  0  0  0  0  0  0  0  0  0
  -16.1790  -10.8580   50.0470 C   0  0  0  0  0  0  0  0  0  0  0  0
  -15.1780  -11.5760   50.7090 C   0  0  0  0  0  0  0  0  0  0  0  0
  -11.9990  -11.1310   52.5270 C   0  0  0  0  0  0  0  0  0  0  0  0
  -10.2540  -11.6040   52.6150 Cl  0  0  0  0  0  0  0  0  0  0  0  0
  -12.0820   -9.3450   52.3350 Cl  0  0  0  0  0  0  0  0  0  0  0  0
  -12.6790  -11.5040   54.1730 Cl  0  0  0  0  0  0  0  0  0  0  0  0
  -10.7920  -12.3630   49.7710 C   0  0  0  0  0  0  0  0  0  0  0  0
  -10.1110  -13.1970   48.8780 C   0  0  0  0  0  0  0  0  0  0  0  0
   -9.1820  -15.7260   48.2390 H   0  0  0  0  0  0  0  0  0  0  0  0
  -12.0836  -15.9699   49.0691 H   0  0  0  0  0  0  0  0  0  0  0  0
  -13.3044  -14.4898   50.6582 H   0  0  0  0  0  0  0  0  0  0  0  0
  -13.2390  -12.7017   52.0643 H   0  0  0  0  0  0  0  0  0  0  0  0
  -12.4864   -9.6336   49.9041 H   0  0  0  0  0  0  0  0  0  0  0  0
  -14.2723   -8.3593   48.7255 H   0  0  0  0  0  0  0  0  0  0  0  0
  -16.3350   -8.3720   48.0700 H   0  0  0  0  0  0  0  0  0  0  0  0
  -17.2236  -11.2007   50.0833 H   0  0  0  0  0  0  0  0  0  0  0  0
  -15.4418  -12.4892   51.2627 H   0  0  0  0  0  0  0  0  0  0  0  0
  -10.4217  -11.3431   49.9516 H   0  0  0  0  0  0  0  0  0  0  0  0
   -9.2064  -12.8342   48.3680 H   0  0  0  0  0  0  0  0  0  0  0  0
  1  2  1  0
  2  3  2  0
  3  4  1  0
  4  5  2  0
  5  6  1  0
  6  7  1  0
  7  8  2  0
  8  9  1  0
  9 10  2  0
 10 11  1  0
 10 12  1  0
 12 13  2  0
  6 14  1  0
 14 15  1  0
 14 16  1  0
 14 17  1  0
  5 18  1  0
 18 19  2  0
 19  2  1  0
 13  7  1  0
  1 20  1  0
  3 21  1  0
  4 22  1  0
  6 23  1  0
  8 24  1  0
  9 25  1  0
 11 26  1  0
 12 27  1  0
 13 28  1  0
 18 29  1  0
 19 30  1  0
M  END
>  <meeko>  (4) 
{"is_sidechain": [false], "free_energy": -6.492, "intermolecular_energy": -8.558, "internal_energy": -0.1}

$$$$
4mgd_ligand
     RDKit          3D

 30 31  0  0  0  0  0  0  0  0999 V2000
  -10.3160  -10.6860   54.3980 O   0  0  0  0  0  0  0  0  0  0  0  0
  -11.1760  -10.9210   53.3660 C   0  0  0  0  0  0  0  0  0  0  0  0
  -12.2460  -11.7930   53.4970 C   0  0  0  0  0  0  0  0  0  0  0  0
  -13.0980  -12.0000   52.4090 C   0  0  0  0  0  0  0  0  0  0  0  0
  -12.8960  -11.3340   51.1800 C   0  0  0  0  0  0  0  0  0  0  0  0
  -13.8680  -11.6320   50.0240 C   0  0  0  0  0  0  0  0  0  0  0  0
  -13.1040  -12.0700   48.7640 C   0  0  0  0  0  0  0  0  0  0  0  0
  -12.7720  -11.1590   47.7460 C   0  0  0  0  0  0  0  0  0  0  0  0
  -12.0810  -11.5820   46.6090 C   0  0  0  0  0  0  0  0  0  0  0  0
  -11.7150  -12.9140   46.4780 C   0  0  0  0  0  0  0  0  0  0  0  0
  -11.0440  -13.2810   45.3490 O   0  0  0  0  0  0  0  0  0  0  0  0
  -12.0240  -13.8360   47.4700 C   0  0  0  0  0  0  0  0  0  0  0  0
  -12.7130  -13.4130   48.6100 C   0  0  0  0  0  0  0  0  0  0  0  0
  -15.0460  -10.6290   49.7410 C   0  0  0  0  0  0  0  0  0  0  0  0
  -16.1100  -10.4400   51.1930 Cl  0  0  0  0  0  0  0  0  0  0  0  0
  -14.5320   -8.9900   49.2100 Cl  0  0  0  0  0  0  0  0  0  0  0  0
  -16.1340  -11.2770   48.4340 Cl  0  0  0  0  0  0  0  0  0  0  0  0
  -11.7970  -10.4700   51.0780 C   0  0  0  0  0  0  0  0  0  0  0  0
  -10.9450  -10.2610   52.1670 C   0  0  0  0  0  0  0  0  0  0  0  0
   -9.6560  -11.3970   54.4190 H   0  0  0  0  0  0  0  0  0  0  0  0
  -12.4224  -12.3167   54.4481 H   0  0  0  0  0  0  0  0  0  0  0  0
  -13.9435  -12.6961   52.5118 H   0  0  0  0  0  0  0  0  0  0  0  0
  -14.4557  -12.4783   50.4092 H   0  0  0  0  0  0  0  0  0  0  0  0
  -13.0596  -10.1020   47.8463 H   0  0  0  0  0  0  0  0  0  0  0  0
  -11.8271  -10.8606   45.8184 H   0  0  0  0  0  0  0  0  0  0  0  0
  -11.0390  -14.2510   45.2920 H   0  0  0  0  0  0  0  0  0  0  0  0
  -11.7290  -14.8899   47.3592 H   0  0  0  0  0  0  0  0  0  0  0  0
  -12.9533  -14.1410   49.3989 H   0  0  0  0  0  0  0  0  0  0  0  0
  -11.6021   -9.9495   50.1287 H   0  0  0  0  0  0  0  0  0  0  0  0
  -10.0915   -9.5734   52.0734 H   0  0  0  0  0  0  0  0  0  0  0  0
  1  2  1  0
  2  3  2  0
  3  4  1  0
  4  5  2  0
  5  6  1  0
  6  7  1  0
  7  8  2  0
  8  9  1  0
  9 10  2  0
 10 11  1  0
 10 12  1  0
 12 13  2  0
  6 14  1  0
 14 15  1  0
 14 16  1  0
 14 17  1  0
  5 18  1  0
 18 19  2  0
 19  2  1  0
 13  7  1  0
  1 20  1  0
  3 21  1  0
  4 22  1  0
  6 23  1  0
  8 24  1  0
  9 25  1  0
 11 26  1  0
 12 27  1  0
 13 28  1  0
 18 29  1  0
 19 30  1  0
M  END
>  <meeko>  (5) 
{"is_sidechain": [false], "free_energy": -6.076, "intermolecular_energy": -7.364, "internal_energy": -0.781}

$$$$
