2zda_ligand
     RDKit          3D

 58 60  0  0  0  0  0  0  0  0999 V2000
   10.6830   -9.6950   24.3470 N   0  0  0  0  0  0  0  0  0  0  0  0
   10.9810  -10.8070   23.7100 C   0  0  0  0  0  0  0  0  0  0  0  0
   10.3300  -11.9240   23.9540 N   0  0  0  0  0  0  0  0  0  0  0  0
   12.0550  -10.8020   22.7030 C   0  0  0  0  0  0  0  0  0  0  0  0
   12.6360   -9.5970   22.2770 C   0  0  0  0  0  0  0  0  0  0  0  0
   13.6740   -9.5930   21.3390 C   0  0  0  0  0  0  0  0  0  0  0  0
   14.1620  -10.7950   20.8100 C   0  0  0  0  0  0  0  0  0  0  0  0
   15.2970  -10.8030   19.8170 C   0  0  0  0  0  0  0  0  0  0  0  0
   16.5650  -11.0410   20.4740 N   0  0  0  0  0  0  0  0  0  0  0  0
   17.2280  -12.2390   20.3540 C   0  0  0  0  0  0  0  0  0  0  0  0
   16.7580  -13.1890   19.7170 O   0  0  0  0  0  0  0  0  0  0  0  0
   18.5310  -12.3910   21.1790 C   0  0  2  0  0  0  0  0  0  0  0  0
   19.7000  -11.5520   20.6410 C   0  0  0  0  0  0  0  0  0  0  0  0
   20.3900  -12.4940   19.6680 C   0  0  0  0  0  0  0  0  0  0  0  0
   20.3010  -13.8240   20.3890 C   0  0  0  0  0  0  0  0  0  0  0  0
   19.0360  -13.7800   21.1190 N   0  0  0  0  0  0  0  0  0  0  0  0
   18.6320  -14.9270   21.7620 C   0  0  0  0  0  0  0  0  0  0  0  0
   18.8980  -16.0330   21.2730 O   0  0  0  0  0  0  0  0  0  0  0  0
   17.6650  -14.9420   22.9690 C   0  0  2  0  0  0  0  0  0  0  0  0
   16.2770  -14.6270   22.4770 N   0  0  0  0  0  0  0  0  0  0  0  0
   17.9800  -14.1270   24.2230 C   0  0  0  0  0  0  0  0  0  0  0  0
   19.4290  -14.0450   24.6480 C   0  0  0  0  0  0  0  0  0  0  0  0
   20.0050  -12.7730   24.8050 C   0  0  0  0  0  0  0  0  0  0  0  0
   21.3350  -12.6320   25.2050 C   0  0  0  0  0  0  0  0  0  0  0  0
   22.1050  -13.7600   25.4680 C   0  0  0  0  0  0  0  0  0  0  0  0
   21.5410  -15.0260   25.3430 C   0  0  0  0  0  0  0  0  0  0  0  0
   20.2090  -15.1710   24.9450 C   0  0  0  0  0  0  0  0  0  0  0  0
   13.5710  -11.9980   21.2180 C   0  0  0  0  0  0  0  0  0  0  0  0
   12.5310  -12.0020   22.1550 C   0  0  0  0  0  0  0  0  0  0  0  0
   11.2100   -8.8460   24.1690 H   0  0  0  0  0  0  0  0  0  0  0  0
    9.9500   -9.6460   25.0420 H   0  0  0  0  0  0  0  0  0  0  0  0
   10.5500  -12.7680   23.4340 H   0  0  0  0  0  0  0  0  0  0  0  0
    9.5800  -11.9830   24.6310 H   0  0  0  0  0  0  0  0  0  0  0  0
   12.2703   -8.6436   22.6861 H   0  0  0  0  0  0  0  0  0  0  0  0
   14.1110   -8.6373   21.0139 H   0  0  0  0  0  0  0  0  0  0  0  0
   15.1212  -11.5980   19.0774 H   0  0  0  0  0  0  0  0  0  0  0  0
   15.3378   -9.8193   19.3263 H   0  0  0  0  0  0  0  0  0  0  0  0
   16.8410  -10.3820   21.1920 H   0  0  0  0  0  0  0  0  0  0  0  0
   18.2444  -12.0679   22.1907 H   0  0  0  0  0  0  0  0  0  0  0  0
   19.3341  -10.6519   20.1252 H   0  0  0  0  0  0  0  0  0  0  0  0
   20.3691  -11.1883   21.4348 H   0  0  0  0  0  0  0  0  0  0  0  0
   19.8620  -12.5275   18.7036 H   0  0  0  0  0  0  0  0  0  0  0  0
   21.4192  -12.1951   19.4200 H   0  0  0  0  0  0  0  0  0  0  0  0
   20.3015  -14.6546   19.6678 H   0  0  0  0  0  0  0  0  0  0  0  0
   21.1575  -13.9861   21.0599 H   0  0  0  0  0  0  0  0  0  0  0  0
   17.7877  -15.9635   23.3583 H   0  0  0  0  0  0  0  0  0  0  0  0
   16.2450  -13.8900   21.7670 H   0  0  0  0  0  0  0  0  0  0  0  0
   15.6900  -14.3410   23.2730 H   0  0  0  0  0  0  0  0  0  0  0  0
   15.8350  -15.4880   22.0920 H   0  0  0  0  0  0  0  0  0  0  0  0
   17.6281  -13.0998   24.0471 H   0  0  0  0  0  0  0  0  0  0  0  0
   17.4740  -14.6595   25.0418 H   0  0  0  0  0  0  0  0  0  0  0  0
   19.3994  -11.8757   24.6100 H   0  0  0  0  0  0  0  0  0  0  0  0
   21.7739  -11.6291   25.3122 H   0  0  0  0  0  0  0  0  0  0  0  0
   23.1561  -13.6518   25.7737 H   0  0  0  0  0  0  0  0  0  0  0  0
   22.1472  -15.9182   25.5588 H   0  0  0  0  0  0  0  0  0  0  0  0
   19.7697  -16.1762   24.8643 H   0  0  0  0  0  0  0  0  0  0  0  0
   13.9281  -12.9497   20.7975 H   0  0  0  0  0  0  0  0  0  0  0  0
   12.0820  -12.9572   22.4650 H   0  0  0  0  0  0  0  0  0  0  0  0
  1  2  1  0
  2  3  2  0
  2  4  1  0
  4  5  2  0
  5  6  1  0
  6  7  2  0
  7  8  1  0
  8  9  1  0
  9 10  1  0
 10 11  2  0
 10 12  1  0
 12 13  1  0
 13 14  1  0
 14 15  1  0
 15 16  1  0
 16 17  1  0
 17 18  2  0
 17 19  1  0
 19 20  1  0
 19 21  1  0
 21 22  1  0
 22 23  2  0
 23 24  1  0
 24 25  2  0
 25 26  1  0
 26 27  2  0
  7 28  1  0
 28 29  2  0
 29  4  1  0
 16 12  1  0
 27 22  1  0
  1 30  1  0
  1 31  1  0
  3 32  1  0
  3 33  1  0
  5 34  1  0
  6 35  1  0
  8 36  1  0
  8 37  1  0
  9 38  1  0
 12 39  1  1
 13 40  1  0
 13 41  1  0
 14 42  1  0
 14 43  1  0
 15 44  1  0
 15 45  1  0
 19 46  1  1
 20 47  1  0
 20 48  1  0
 20 49  1  0
 21 50  1  0
 21 51  1  0
 23 52  1  0
 24 53  1  0
 25 54  1  0
 26 55  1  0
 27 56  1  0
 28 57  1  0
 29 58  1  0
M  CHG  2   3   1  20   1
M  END
>  <meeko>  (1) 
{"is_sidechain": [false], "free_energy": -9.306, "intermolecular_energy": -13.93, "internal_energy": -1.324}

$$$$
2zda_ligand
     RDKit          3D

 58 60  0  0  0  0  0  0  0  0999 V2000
   10.3210  -11.9790   24.0150 N   0  0  0  0  0  0  0  0  0  0  0  0
   10.9590  -10.8590   23.7510 C   0  0  0  0  0  0  0  0  0  0  0  0
   10.6640   -9.7440   24.3840 N   0  0  0  0  0  0  0  0  0  0  0  0
   12.0250  -10.8520   22.7350 C   0  0  0  0  0  0  0  0  0  0  0  0
   12.6020   -9.6470   22.3070 C   0  0  0  0  0  0  0  0  0  0  0  0
   13.6330   -9.6420   21.3590 C   0  0  0  0  0  0  0  0  0  0  0  0
   14.1140  -10.8420   20.8230 C   0  0  0  0  0  0  0  0  0  0  0  0
   15.2400  -10.8490   19.8200 C   0  0  0  0  0  0  0  0  0  0  0  0
   16.5270  -10.9530   20.4770 N   0  0  0  0  0  0  0  0  0  0  0  0
   17.5560  -11.6890   19.9390 C   0  0  0  0  0  0  0  0  0  0  0  0
   17.4250  -12.3340   18.8920 O   0  0  0  0  0  0  0  0  0  0  0  0
   18.8480  -11.7890   20.7890 C   0  0  2  0  0  0  0  0  0  0  0  0
   20.1360  -11.6580   19.9640 C   0  0  0  0  0  0  0  0  0  0  0  0
   20.4600  -13.0940   19.5870 C   0  0  0  0  0  0  0  0  0  0  0  0
   20.0980  -13.8500   20.8500 C   0  0  0  0  0  0  0  0  0  0  0  0
   18.9650  -13.1220   21.4180 N   0  0  0  0  0  0  0  0  0  0  0  0
   18.3410  -13.6730   22.5130 C   0  0  0  0  0  0  0  0  0  0  0  0
   18.8790  -13.6060   23.6270 O   0  0  0  0  0  0  0  0  0  0  0  0
   17.0870  -14.5740   22.4280 C   0  0  2  0  0  0  0  0  0  0  0  0
   17.0950  -15.5200   23.6000 N   0  0  0  0  0  0  0  0  0  0  0  0
   16.7640  -15.3310   21.1390 C   0  0  0  0  0  0  0  0  0  0  0  0
   15.3290  -15.3080   20.6660 C   0  0  0  0  0  0  0  0  0  0  0  0
   15.0690  -14.8890   19.3500 C   0  0  0  0  0  0  0  0  0  0  0  0
   13.7650  -14.8570   18.8510 C   0  0  0  0  0  0  0  0  0  0  0  0
   12.7040  -15.2560   19.6560 C   0  0  0  0  0  0  0  0  0  0  0  0
   12.9470  -15.6990   20.9530 C   0  0  0  0  0  0  0  0  0  0  0  0
   14.2510  -15.7360   21.4540 C   0  0  0  0  0  0  0  0  0  0  0  0
   13.5250  -12.0460   21.2330 C   0  0  0  0  0  0  0  0  0  0  0  0
   12.4940  -12.0520   22.1790 C   0  0  0  0  0  0  0  0  0  0  0  0
   10.5400  -12.8260   23.5000 H   0  0  0  0  0  0  0  0  0  0  0  0
    9.5860  -12.0360   24.7070 H   0  0  0  0  0  0  0  0  0  0  0  0
   11.1840   -8.8940   24.1920 H   0  0  0  0  0  0  0  0  0  0  0  0
    9.9450   -9.6930   25.0940 H   0  0  0  0  0  0  0  0  0  0  0  0
   12.2402   -8.6943   22.7211 H   0  0  0  0  0  0  0  0  0  0  0  0
   14.0687   -8.6861   21.0327 H   0  0  0  0  0  0  0  0  0  0  0  0
   15.1123  -11.7068   19.1434 H   0  0  0  0  0  0  0  0  0  0  0  0
   15.2114   -9.9038   19.2581 H   0  0  0  0  0  0  0  0  0  0  0  0
   16.5750  -10.6490   21.4420 H   0  0  0  0  0  0  0  0  0  0  0  0
   18.7555  -10.9656   21.5125 H   0  0  0  0  0  0  0  0  0  0  0  0
   19.9682  -11.0438   19.0670 H   0  0  0  0  0  0  0  0  0  0  0  0
   20.9503  -11.1642   20.5145 H   0  0  0  0  0  0  0  0  0  0  0  0
   19.8513  -13.4288   18.7342 H   0  0  0  0  0  0  0  0  0  0  0  0
   21.5029  -13.2411   19.2696 H   0  0  0  0  0  0  0  0  0  0  0  0
   19.8117  -14.8851   20.6119 H   0  0  0  0  0  0  0  0  0  0  0  0
   20.9433  -13.9093   21.5514 H   0  0  0  0  0  0  0  0  0  0  0  0
   16.2667  -13.8412   22.4412 H   0  0  0  0  0  0  0  0  0  0  0  0
   16.4530  -16.3110   23.5000 H   0  0  0  0  0  0  0  0  0  0  0  0
   16.8490  -15.0040   24.4560 H   0  0  0  0  0  0  0  0  0  0  0  0
   18.0590  -15.8850   23.7530 H   0  0  0  0  0  0  0  0  0  0  0  0
   17.3833  -14.9005   20.3383 H   0  0  0  0  0  0  0  0  0  0  0  0
   16.9693  -16.3865   21.3709 H   0  0  0  0  0  0  0  0  0  0  0  0
   15.9045  -14.5819   18.7038 H   0  0  0  0  0  0  0  0  0  0  0  0
   13.5775  -14.5164   17.8220 H   0  0  0  0  0  0  0  0  0  0  0  0
   11.6750  -15.2217   19.2689 H   0  0  0  0  0  0  0  0  0  0  0  0
   12.1080  -16.0217   21.5870 H   0  0  0  0  0  0  0  0  0  0  0  0
   14.4332  -16.1038   22.4746 H   0  0  0  0  0  0  0  0  0  0  0  0
   13.8772  -12.9967   20.8063 H   0  0  0  0  0  0  0  0  0  0  0  0
   12.0464  -13.0075   22.4901 H   0  0  0  0  0  0  0  0  0  0  0  0
  1  2  1  0
  2  3  2  0
  2  4  1  0
  4  5  2  0
  5  6  1  0
  6  7  2  0
  7  8  1  0
  8  9  1  0
  9 10  1  0
 10 11  2  0
 10 12  1  0
 12 13  1  0
 13 14  1  0
 14 15  1  0
 15 16  1  0
 16 17  1  0
 17 18  2  0
 17 19  1  0
 19 20  1  0
 19 21  1  0
 21 22  1  0
 22 23  2  0
 23 24  1  0
 24 25  2  0
 25 26  1  0
 26 27  2  0
  7 28  1  0
 28 29  2  0
 29  4  1  0
 16 12  1  0
 27 22  1  0
  1 30  1  0
  1 31  1  0
  3 32  1  0
  3 33  1  0
  5 34  1  0
  6 35  1  0
  8 36  1  0
  8 37  1  0
  9 38  1  0
 12 39  1  1
 13 40  1  0
 13 41  1  0
 14 42  1  0
 14 43  1  0
 15 44  1  0
 15 45  1  0
 19 46  1  1
 20 47  1  0
 20 48  1  0
 20 49  1  0
 21 50  1  0
 21 51  1  0
 23 52  1  0
 24 53  1  0
 25 54  1  0
 26 55  1  0
 27 56  1  0
 28 57  1  0
 29 58  1  0
M  CHG  2   3   1  20   1
M  END
>  <meeko>  (2) 
{"is_sidechain": [false], "free_energy": -9.226, "intermolecular_energy": -13.062, "internal_energy": -2.072}

$$$$
2zda_ligand
     RDKit          3D

 58 60  0  0  0  0  0  0  0  0999 V2000
   10.7130  -10.9880   25.1670 N   0  0  0  0  0  0  0  0  0  0  0  0
   11.0540  -10.0290   24.3340 C   0  0  0  0  0  0  0  0  0  0  0  0
   10.7510   -8.7730   24.5840 N   0  0  0  0  0  0  0  0  0  0  0  0
   11.7920  -10.3620   23.1040 C   0  0  0  0  0  0  0  0  0  0  0  0
   12.5400   -9.3860   22.4270 C   0  0  0  0  0  0  0  0  0  0  0  0
   13.2620   -9.7090   21.2720 C   0  0  0  0  0  0  0  0  0  0  0  0
   13.2590  -11.0160   20.7710 C   0  0  0  0  0  0  0  0  0  0  0  0
   14.0530  -11.3790   19.5410 C   0  0  0  0  0  0  0  0  0  0  0  0
   15.1890  -12.2110   19.8780 N   0  0  0  0  0  0  0  0  0  0  0  0
   15.5180  -13.3210   19.1360 C   0  0  0  0  0  0  0  0  0  0  0  0
   14.8400  -13.6910   18.1710 O   0  0  0  0  0  0  0  0  0  0  0  0
   16.7040  -14.1710   19.6580 C   0  0  2  0  0  0  0  0  0  0  0  0
   16.2760  -15.5180   20.2580 C   0  0  0  0  0  0  0  0  0  0  0  0
   16.0620  -15.1970   21.7280 C   0  0  0  0  0  0  0  0  0  0  0  0
   17.1980  -14.2360   22.0170 C   0  0  0  0  0  0  0  0  0  0  0  0
   17.3920  -13.4880   20.7760 N   0  0  0  0  0  0  0  0  0  0  0  0
   18.2830  -12.4420   20.7970 C   0  0  0  0  0  0  0  0  0  0  0  0
   17.8790  -11.2840   20.6160 O   0  0  0  0  0  0  0  0  0  0  0  0
   19.8200  -12.6190   20.8190 C   0  0  2  0  0  0  0  0  0  0  0  0
   20.3240  -12.6140   19.3990 N   0  0  0  0  0  0  0  0  0  0  0  0
   20.4550  -13.7680   21.6030 C   0  0  0  0  0  0  0  0  0  0  0  0
   20.7760  -13.5160   23.0580 C   0  0  0  0  0  0  0  0  0  0  0  0
   22.1260  -13.3850   23.4280 C   0  0  0  0  0  0  0  0  0  0  0  0
   22.4860  -13.1410   24.7550 C   0  0  0  0  0  0  0  0  0  0  0  0
   21.5020  -13.0090   25.7280 C   0  0  0  0  0  0  0  0  0  0  0  0
   20.1600  -13.1090   25.3730 C   0  0  0  0  0  0  0  0  0  0  0  0
   19.7960  -13.3510   24.0460 C   0  0  0  0  0  0  0  0  0  0  0  0
   12.4970  -11.9890   21.4330 C   0  0  0  0  0  0  0  0  0  0  0  0
   11.7730  -11.6660   22.5870 C   0  0  0  0  0  0  0  0  0  0  0  0
   10.9300  -11.9560   24.9490 H   0  0  0  0  0  0  0  0  0  0  0  0
   10.2110  -10.8100   26.0260 H   0  0  0  0  0  0  0  0  0  0  0  0
   11.0450   -8.0390   23.9470 H   0  0  0  0  0  0  0  0  0  0  0  0
   10.2500   -8.4870   25.4150 H   0  0  0  0  0  0  0  0  0  0  0  0
   12.5591   -8.3546   22.8088 H   0  0  0  0  0  0  0  0  0  0  0  0
   13.8373   -8.9281   20.7531 H   0  0  0  0  0  0  0  0  0  0  0  0
   13.4025  -11.9257   18.8424 H   0  0  0  0  0  0  0  0  0  0  0  0
   14.4247  -10.4519   19.0801 H   0  0  0  0  0  0  0  0  0  0  0  0
   15.6010  -12.0760   20.7940 H   0  0  0  0  0  0  0  0  0  0  0  0
   17.3384  -14.3165   18.7712 H   0  0  0  0  0  0  0  0  0  0  0  0
   15.3456  -15.8776   19.7942 H   0  0  0  0  0  0  0  0  0  0  0  0
   17.0167  -16.3149   20.0960 H   0  0  0  0  0  0  0  0  0  0  0  0
   15.0847  -14.7200   21.8935 H   0  0  0  0  0  0  0  0  0  0  0  0
   16.0601  -16.0850   22.3772 H   0  0  0  0  0  0  0  0  0  0  0  0
   16.9287  -13.5564   22.8390 H   0  0  0  0  0  0  0  0  0  0  0  0
   18.1128  -14.7621   22.3274 H   0  0  0  0  0  0  0  0  0  0  0  0
   20.1503  -11.7596   21.4210 H   0  0  0  0  0  0  0  0  0  0  0  0
   19.6040  -12.4040   18.7040 H   0  0  0  0  0  0  0  0  0  0  0  0
   20.7350  -13.5320   19.1800 H   0  0  0  0  0  0  0  0  0  0  0  0
   21.0990  -11.9240   19.3030 H   0  0  0  0  0  0  0  0  0  0  0  0
   19.7619  -14.6211   21.5598 H   0  0  0  0  0  0  0  0  0  0  0  0
   21.4301  -13.9350   21.1220 H   0  0  0  0  0  0  0  0  0  0  0  0
   22.9097  -13.4760   22.6615 H   0  0  0  0  0  0  0  0  0  0  0  0
   23.5474  -13.0533   25.0301 H   0  0  0  0  0  0  0  0  0  0  0  0
   21.7832  -12.8260   26.7756 H   0  0  0  0  0  0  0  0  0  0  0  0
   19.3813  -12.9968   26.1418 H   0  0  0  0  0  0  0  0  0  0  0  0
   18.7318  -13.4125   23.7746 H   0  0  0  0  0  0  0  0  0  0  0  0
   12.4677  -13.0166   21.0418 H   0  0  0  0  0  0  0  0  0  0  0  0
   11.1826  -12.4434   23.0940 H   0  0  0  0  0  0  0  0  0  0  0  0
  1  2  1  0
  2  3  2  0
  2  4  1  0
  4  5  2  0
  5  6  1  0
  6  7  2  0
  7  8  1  0
  8  9  1  0
  9 10  1  0
 10 11  2  0
 10 12  1  0
 12 13  1  0
 13 14  1  0
 14 15  1  0
 15 16  1  0
 16 17  1  0
 17 18  2  0
 17 19  1  0
 19 20  1  0
 19 21  1  0
 21 22  1  0
 22 23  2  0
 23 24  1  0
 24 25  2  0
 25 26  1  0
 26 27  2  0
  7 28  1  0
 28 29  2  0
 29  4  1  0
 16 12  1  0
 27 22  1  0
  1 30  1  0
  1 31  1  0
  3 32  1  0
  3 33  1  0
  5 34  1  0
  6 35  1  0
  8 36  1  0
  8 37  1  0
  9 38  1  0
 12 39  1  6
 13 40  1  0
 13 41  1  0
 14 42  1  0
 14 43  1  0
 15 44  1  0
 15 45  1  0
 19 46  1  1
 20 47  1  0
 20 48  1  0
 20 49  1  0
 21 50  1  0
 21 51  1  0
 23 52  1  0
 24 53  1  0
 25 54  1  0
 26 55  1  0
 27 56  1  0
 28 57  1  0
 29 58  1  0
M  CHG  2   3   1  20   1
M  END
>  <meeko>  (3) 
{"is_sidechain": [false], "free_energy": -8.696, "intermolecular_energy": -13.503, "internal_energy": -0.837}

$$$$
2zda_ligand
     RDKit          3D

 58 60  0  0  0  0  0  0  0  0999 V2000
   10.8570   -8.8080   24.4770 N   0  0  0  0  0  0  0  0  0  0  0  0
   11.1110  -10.0700   24.2050 C   0  0  0  0  0  0  0  0  0  0  0  0
   10.7100  -11.0320   25.0100 N   0  0  0  0  0  0  0  0  0  0  0  0
   11.8500  -10.4150   22.9800 C   0  0  0  0  0  0  0  0  0  0  0  0
   12.5600   -9.4350   22.2680 C   0  0  0  0  0  0  0  0  0  0  0  0
   13.2840   -9.7670   21.1170 C   0  0  0  0  0  0  0  0  0  0  0  0
   13.3190  -11.0880   20.6540 C   0  0  0  0  0  0  0  0  0  0  0  0
   14.1160  -11.4600   19.4280 C   0  0  0  0  0  0  0  0  0  0  0  0
   14.3910  -12.8820   19.3940 N   0  0  0  0  0  0  0  0  0  0  0  0
   15.6430  -13.3820   19.6610 C   0  0  0  0  0  0  0  0  0  0  0  0
   16.6070  -12.6470   19.9010 O   0  0  0  0  0  0  0  0  0  0  0  0
   15.8200  -14.9140   19.5040 C   0  0  2  0  0  0  0  0  0  0  0  0
   14.5200  -15.6480   19.1420 C   0  0  0  0  0  0  0  0  0  0  0  0
   13.9330  -16.0110   20.4960 C   0  0  0  0  0  0  0  0  0  0  0  0
   15.1660  -16.3950   21.2900 C   0  0  0  0  0  0  0  0  0  0  0  0
   16.2310  -15.5320   20.7830 N   0  0  0  0  0  0  0  0  0  0  0  0
   17.4450  -15.5740   21.4280 C   0  0  0  0  0  0  0  0  0  0  0  0
   18.1630  -16.5790   21.3250 O   0  0  0  0  0  0  0  0  0  0  0  0
   17.9050  -14.5270   22.4690 C   0  0  2  0  0  0  0  0  0  0  0  0
   16.7130  -13.7010   22.8780 N   0  0  0  0  0  0  0  0  0  0  0  0
   19.1020  -13.6210   22.1790 C   0  0  0  0  0  0  0  0  0  0  0  0
   20.1070  -13.4290   23.2910 C   0  0  0  0  0  0  0  0  0  0  0  0
   19.6240  -13.2110   24.5940 C   0  0  0  0  0  0  0  0  0  0  0  0
   20.5030  -13.0380   25.6640 C   0  0  0  0  0  0  0  0  0  0  0  0
   21.8760  -13.0930   25.4530 C   0  0  0  0  0  0  0  0  0  0  0  0
   22.3700  -13.3340   24.1740 C   0  0  0  0  0  0  0  0  0  0  0  0
   21.4930  -13.5110   23.1000 C   0  0  0  0  0  0  0  0  0  0  0  0
   12.5950  -12.0650   21.3500 C   0  0  0  0  0  0  0  0  0  0  0  0
   11.8700  -11.7330   22.5000 C   0  0  0  0  0  0  0  0  0  0  0  0
   11.1940   -8.0740   23.8620 H   0  0  0  0  0  0  0  0  0  0  0  0
   10.3480   -8.5210   25.3030 H   0  0  0  0  0  0  0  0  0  0  0  0
   10.8880  -12.0030   24.7740 H   0  0  0  0  0  0  0  0  0  0  0  0
   10.1950  -10.8520   25.8620 H   0  0  0  0  0  0  0  0  0  0  0  0
   12.5471   -8.3927   22.6193 H   0  0  0  0  0  0  0  0  0  0  0  0
   13.8302   -8.9834   20.5715 H   0  0  0  0  0  0  0  0  0  0  0  0
   13.5435  -11.1836   18.5303 H   0  0  0  0  0  0  0  0  0  0  0  0
   15.0741  -10.9204   19.4582 H   0  0  0  0  0  0  0  0  0  0  0  0
   13.6930  -13.4730   18.9600 H   0  0  0  0  0  0  0  0  0  0  0  0
   16.5677  -15.0154   18.7036 H   0  0  0  0  0  0  0  0  0  0  0  0
   13.8395  -14.9904   18.5813 H   0  0  0  0  0  0  0  0  0  0  0  0
   14.6859  -16.5233   18.4968 H   0  0  0  0  0  0  0  0  0  0  0  0
   13.4182  -15.1516   20.9504 H   0  0  0  0  0  0  0  0  0  0  0  0
   13.1744  -16.8061   20.4484 H   0  0  0  0  0  0  0  0  0  0  0  0
   15.0042  -16.2182   22.3636 H   0  0  0  0  0  0  0  0  0  0  0  0
   15.4120  -17.4613   21.1782 H   0  0  0  0  0  0  0  0  0  0  0  0
   18.3194  -15.1557   23.2708 H   0  0  0  0  0  0  0  0  0  0  0  0
   15.8240  -14.0390   22.5000 H   0  0  0  0  0  0  0  0  0  0  0  0
   16.8510  -12.7280   22.5710 H   0  0  0  0  0  0  0  0  0  0  0  0
   16.6470  -13.6650   23.9170 H   0  0  0  0  0  0  0  0  0  0  0  0
   19.6382  -14.0463   21.3179 H   0  0  0  0  0  0  0  0  0  0  0  0
   18.6693  -12.6236   22.0120 H   0  0  0  0  0  0  0  0  0  0  0  0
   18.5390  -13.1764   24.7719 H   0  0  0  0  0  0  0  0  0  0  0  0
   20.1092  -12.8580   26.6752 H   0  0  0  0  0  0  0  0  0  0  0  0
   22.5698  -12.9466   26.2940 H   0  0  0  0  0  0  0  0  0  0  0  0
   23.4561  -13.3854   24.0077 H   0  0  0  0  0  0  0  0  0  0  0  0
   21.8941  -13.7164   22.0965 H   0  0  0  0  0  0  0  0  0  0  0  0
   12.5965  -13.1040   20.9887 H   0  0  0  0  0  0  0  0  0  0  0  0
   11.3093  -12.5145   23.0337 H   0  0  0  0  0  0  0  0  0  0  0  0
  1  2  1  0
  2  3  2  0
  2  4  1  0
  4  5  2  0
  5  6  1  0
  6  7  2  0
  7  8  1  0
  8  9  1  0
  9 10  1  0
 10 11  2  0
 10 12  1  0
 12 13  1  0
 13 14  1  0
 14 15  1  0
 15 16  1  0
 16 17  1  0
 17 18  2  0
 17 19  1  0
 19 20  1  0
 19 21  1  0
 21 22  1  0
 22 23  2  0
 23 24  1  0
 24 25  2  0
 25 26  1  0
 26 27  2  0
  7 28  1  0
 28 29  2  0
 29  4  1  0
 16 12  1  0
 27 22  1  0
  1 30  1  0
  1 31  1  0
  3 32  1  0
  3 33  1  0
  5 34  1  0
  6 35  1  0
  8 36  1  0
  8 37  1  0
  9 38  1  0
 12 39  1  6
 13 40  1  0
 13 41  1  0
 14 42  1  0
 14 43  1  0
 15 44  1  0
 15 45  1  0
 19 46  1  1
 20 47  1  0
 20 48  1  0
 20 49  1  0
 21 50  1  0
 21 51  1  0
 23 52  1  0
 24 53  1  0
 25 54  1  0
 26 55  1  0
 27 56  1  0
 28 57  1  0
 29 58  1  0
M  CHG  2   3   1  20   1
M  END
>  <meeko>  (4) 
{"is_sidechain": [false], "free_energy": -8.675, "intermolecular_energy": -13.193, "internal_energy": -1.116}

$$$$
2zda_ligand
     RDKit          3D

 58 60  0  0  0  0  0  0  0  0999 V2000
   22.0040  -13.8690   26.3460 N   0  0  0  0  0  0  0  0  0  0  0  0
   21.0310  -13.3100   25.6590 C   0  0  0  0  0  0  0  0  0  0  0  0
   20.8420  -12.0080   25.6870 N   0  0  0  0  0  0  0  0  0  0  0  0
   20.1410  -14.1510   24.8420 C   0  0  0  0  0  0  0  0  0  0  0  0
   20.6530  -15.2210   24.0910 C   0  0  0  0  0  0  0  0  0  0  0  0
   19.8040  -16.0370   23.3340 C   0  0  0  0  0  0  0  0  0  0  0  0
   18.4240  -15.8060   23.3140 C   0  0  0  0  0  0  0  0  0  0  0  0
   17.4980  -16.6940   22.5200 C   0  0  0  0  0  0  0  0  0  0  0  0
   16.1510  -16.1620   22.5000 N   0  0  0  0  0  0  0  0  0  0  0  0
   15.6100  -15.6070   21.3650 C   0  0  0  0  0  0  0  0  0  0  0  0
   16.2560  -15.4920   20.3170 O   0  0  0  0  0  0  0  0  0  0  0  0
   14.1920  -14.9970   21.5060 C   0  0  2  0  0  0  0  0  0  0  0  0
   13.1090  -15.7790   20.7490 C   0  0  0  0  0  0  0  0  0  0  0  0
   13.0890  -15.1170   19.3810 C   0  0  0  0  0  0  0  0  0  0  0  0
   13.2730  -13.6530   19.7280 C   0  0  0  0  0  0  0  0  0  0  0  0
   14.1370  -13.6450   20.9070 N   0  0  0  0  0  0  0  0  0  0  0  0
   14.5810  -12.4260   21.3620 C   0  0  0  0  0  0  0  0  0  0  0  0
   13.9260  -11.8100   22.2140 O   0  0  0  0  0  0  0  0  0  0  0  0
   15.7550  -11.6450   20.7260 C   0  0  2  0  0  0  0  0  0  0  0  0
   15.2590  -10.2820   20.3180 N   0  0  0  0  0  0  0  0  0  0  0  0
   16.5790  -12.2670   19.5990 C   0  0  0  0  0  0  0  0  0  0  0  0
   18.0740  -12.3510   19.8020 C   0  0  0  0  0  0  0  0  0  0  0  0
   18.5520  -12.9110   21.0000 C   0  0  0  0  0  0  0  0  0  0  0  0
   19.9230  -13.0260   21.2410 C   0  0  0  0  0  0  0  0  0  0  0  0
   20.8350  -12.5970   20.2840 C   0  0  0  0  0  0  0  0  0  0  0  0
   20.3780  -12.0650   19.0820 C   0  0  0  0  0  0  0  0  0  0  0  0
   19.0070  -11.9500   18.8350 C   0  0  0  0  0  0  0  0  0  0  0  0
   17.9120  -14.7260   24.0460 C   0  0  0  0  0  0  0  0  0  0  0  0
   18.7600  -13.9090   24.8030 C   0  0  0  0  0  0  0  0  0  0  0  0
   22.1220  -14.8770   26.3370 H   0  0  0  0  0  0  0  0  0  0  0  0
   22.6440  -13.3350   26.9170 H   0  0  0  0  0  0  0  0  0  0  0  0
   20.1060  -11.5860   25.1300 H   0  0  0  0  0  0  0  0  0  0  0  0
   21.4250  -11.3830   26.2280 H   0  0  0  0  0  0  0  0  0  0  0  0
   21.7347  -15.4206   24.0975 H   0  0  0  0  0  0  0  0  0  0  0  0
   20.2257  -16.8678   22.7493 H   0  0  0  0  0  0  0  0  0  0  0  0
   17.8698  -16.7680   21.4874 H   0  0  0  0  0  0  0  0  0  0  0  0
   17.4737  -17.6855   22.9957 H   0  0  0  0  0  0  0  0  0  0  0  0
   15.7020  -16.0160   23.3970 H   0  0  0  0  0  0  0  0  0  0  0  0
   14.0032  -15.0088   22.5896 H   0  0  0  0  0  0  0  0  0  0  0  0
   13.3759  -16.8430   20.6677 H   0  0  0  0  0  0  0  0  0  0  0  0
   12.1311  -15.7555   21.2521 H   0  0  0  0  0  0  0  0  0  0  0  0
   13.9117  -15.4831   18.7492 H   0  0  0  0  0  0  0  0  0  0  0  0
   12.1740  -15.3218   18.8059 H   0  0  0  0  0  0  0  0  0  0  0  0
   13.7513  -13.1163   18.8954 H   0  0  0  0  0  0  0  0  0  0  0  0
   12.3127  -13.1514   19.9183 H   0  0  0  0  0  0  0  0  0  0  0  0
   16.4996  -11.6352   21.5356 H   0  0  0  0  0  0  0  0  0  0  0  0
   14.2770  -10.1100   20.5500 H   0  0  0  0  0  0  0  0  0  0  0  0
   15.3820  -10.1640   19.3030 H   0  0  0  0  0  0  0  0  0  0  0  0
   15.8460   -9.5450   20.7640 H   0  0  0  0  0  0  0  0  0  0  0  0
   16.2080  -13.2909   19.4441 H   0  0  0  0  0  0  0  0  0  0  0  0
   16.4467  -11.5886   18.7433 H   0  0  0  0  0  0  0  0  0  0  0  0
   17.8365  -13.2633   21.7576 H   0  0  0  0  0  0  0  0  0  0  0  0
   20.2809  -13.4560   22.1881 H   0  0  0  0  0  0  0  0  0  0  0  0
   21.9151  -12.6778   20.4761 H   0  0  0  0  0  0  0  0  0  0  0  0
   21.1001  -11.7329   18.3216 H   0  0  0  0  0  0  0  0  0  0  0  0
   18.6575  -11.5420   17.8751 H   0  0  0  0  0  0  0  0  0  0  0  0
   16.8320  -14.5181   24.0254 H   0  0  0  0  0  0  0  0  0  0  0  0
   18.3387  -13.0681   25.3734 H   0  0  0  0  0  0  0  0  0  0  0  0
  1  2  1  0
  2  3  2  0
  2  4  1  0
  4  5  2  0
  5  6  1  0
  6  7  2  0
  7  8  1  0
  8  9  1  0
  9 10  1  0
 10 11  2  0
 10 12  1  0
 12 13  1  0
 13 14  1  0
 14 15  1  0
 15 16  1  0
 16 17  1  0
 17 18  2  0
 17 19  1  0
 19 20  1  0
 19 21  1  0
 21 22  1  0
 22 23  2  0
 23 24  1  0
 24 25  2  0
 25 26  1  0
 26 27  2  0
  7 28  1  0
 28 29  2  0
 29  4  1  0
 16 12  1  0
 27 22  1  0
  1 30  1  0
  1 31  1  0
  3 32  1  0
  3 33  1  0
  5 34  1  0
  6 35  1  0
  8 36  1  0
  8 37  1  0
  9 38  1  0
 12 39  1  1
 13 40  1  0
 13 41  1  0
 14 42  1  0
 14 43  1  0
 15 44  1  0
 15 45  1  0
 19 46  1  1
 20 47  1  0
 20 48  1  0
 20 49  1  0
 21 50  1  0
 21 51  1  0
 23 52  1  0
 24 53  1  0
 25 54  1  0
 26 55  1  0
 27 56  1  0
 28 57  1  0
 29 58  1  0
M  CHG  2   3   1  20   1
M  END
>  <meeko>  (5) 
{"is_sidechain": [false], "free_energy": -8.498, "intermolecular_energy": -11.901, "internal_energy": -2.144}

$$$$
2zda_ligand
     RDKit          3D

 58 60  0  0  0  0  0  0  0  0999 V2000
   12.3370   -7.8960   24.4520 N   0  0  0  0  0  0  0  0  0  0  0  0
   11.7120   -8.9280   23.9250 C   0  0  0  0  0  0  0  0  0  0  0  0
   10.5490   -9.3290   24.3930 N   0  0  0  0  0  0  0  0  0  0  0  0
   12.3200   -9.6420   22.7900 C   0  0  0  0  0  0  0  0  0  0  0  0
   13.2590   -9.0090   21.9620 C   0  0  0  0  0  0  0  0  0  0  0  0
   13.8560   -9.6960   20.8980 C   0  0  0  0  0  0  0  0  0  0  0  0
   13.5320  -11.0340   20.6420 C   0  0  0  0  0  0  0  0  0  0  0  0
   14.1870  -11.7900   19.5130 C   0  0  0  0  0  0  0  0  0  0  0  0
   13.9310  -13.2120   19.6170 N   0  0  0  0  0  0  0  0  0  0  0  0
   14.5920  -14.1250   18.8300 C   0  0  0  0  0  0  0  0  0  0  0  0
   15.4050  -13.7800   17.9650 O   0  0  0  0  0  0  0  0  0  0  0  0
   14.1590  -15.6050   18.9820 C   0  0  2  0  0  0  0  0  0  0  0  0
   12.6360  -15.8030   18.9730 C   0  0  0  0  0  0  0  0  0  0  0  0
   12.2610  -15.7050   20.4430 C   0  0  0  0  0  0  0  0  0  0  0  0
   13.4070  -16.4310   21.1180 C   0  0  0  0  0  0  0  0  0  0  0  0
   14.5790  -16.1460   20.2920 N   0  0  0  0  0  0  0  0  0  0  0  0
   15.8010  -16.5770   20.7530 C   0  0  0  0  0  0  0  0  0  0  0  0
   16.1190  -17.7690   20.6340 O   0  0  0  0  0  0  0  0  0  0  0  0
   16.7490  -15.7130   21.6180 C   0  0  2  0  0  0  0  0  0  0  0  0
   16.5720  -16.1050   23.0620 N   0  0  0  0  0  0  0  0  0  0  0  0
   16.7520  -14.1910   21.4790 C   0  0  0  0  0  0  0  0  0  0  0  0
   18.0090  -13.5500   20.9350 C   0  0  0  0  0  0  0  0  0  0  0  0
   19.2490  -14.0130   21.4070 C   0  0  0  0  0  0  0  0  0  0  0  0
   20.4450  -13.4690   20.9350 C   0  0  0  0  0  0  0  0  0  0  0  0
   20.4200  -12.4640   19.9740 C   0  0  0  0  0  0  0  0  0  0  0  0
   19.2000  -12.0130   19.4770 C   0  0  0  0  0  0  0  0  0  0  0  0
   18.0010  -12.5580   19.9450 C   0  0  0  0  0  0  0  0  0  0  0  0
   12.5790  -11.6630   21.4550 C   0  0  0  0  0  0  0  0  0  0  0  0
   11.9810  -10.9760   22.5180 C   0  0  0  0  0  0  0  0  0  0  0  0
   13.2460   -7.6140   24.1000 H   0  0  0  0  0  0  0  0  0  0  0  0
   11.9590   -7.3700   25.2280 H   0  0  0  0  0  0  0  0  0  0  0  0
   10.0650  -10.1070   23.9580 H   0  0  0  0  0  0  0  0  0  0  0  0
   10.0850   -8.8710   25.1660 H   0  0  0  0  0  0  0  0  0  0  0  0
   13.5297   -7.9597   22.1510 H   0  0  0  0  0  0  0  0  0  0  0  0
   14.5862   -9.1799   20.2573 H   0  0  0  0  0  0  0  0  0  0  0  0
   13.7879  -11.4226   18.5560 H   0  0  0  0  0  0  0  0  0  0  0  0
   15.2734  -11.6266   19.5684 H   0  0  0  0  0  0  0  0  0  0  0  0
   13.1030  -13.4920   20.1290 H   0  0  0  0  0  0  0  0  0  0  0  0
   14.6283  -16.1095   18.1245 H   0  0  0  0  0  0  0  0  0  0  0  0
   12.1399  -15.0156   18.3866 H   0  0  0  0  0  0  0  0  0  0  0  0
   12.3286  -16.7538   18.5132 H   0  0  0  0  0  0  0  0  0  0  0  0
   12.2055  -14.6565   20.7709 H   0  0  0  0  0  0  0  0  0  0  0  0
   11.2732  -16.1298   20.6747 H   0  0  0  0  0  0  0  0  0  0  0  0
   13.5544  -16.0533   22.1406 H   0  0  0  0  0  0  0  0  0  0  0  0
   13.2166  -17.5110   21.2039 H   0  0  0  0  0  0  0  0  0  0  0  0
   17.7375  -15.9535   21.1995 H   0  0  0  0  0  0  0  0  0  0  0  0
   16.4470  -17.1100   23.2070 H   0  0  0  0  0  0  0  0  0  0  0  0
   15.7560  -15.6130   23.4510 H   0  0  0  0  0  0  0  0  0  0  0  0
   17.3910  -15.7820   23.6180 H   0  0  0  0  0  0  0  0  0  0  0  0
   15.9242  -13.9182   20.8080 H   0  0  0  0  0  0  0  0  0  0  0  0
   16.6622  -13.8118   22.5077 H   0  0  0  0  0  0  0  0  0  0  0  0
   19.2777  -14.8153   22.1589 H   0  0  0  0  0  0  0  0  0  0  0  0
   21.4069  -13.8352   21.3231 H   0  0  0  0  0  0  0  0  0  0  0  0
   21.3607  -12.0269   19.6078 H   0  0  0  0  0  0  0  0  0  0  0  0
   19.1797  -11.2232   18.7116 H   0  0  0  0  0  0  0  0  0  0  0  0
   17.0438  -12.2056   19.5331 H   0  0  0  0  0  0  0  0  0  0  0  0
   12.2980  -12.7076   21.2556 H   0  0  0  0  0  0  0  0  0  0  0  0
   11.2374  -11.4875   23.1468 H   0  0  0  0  0  0  0  0  0  0  0  0
  1  2  1  0
  2  3  2  0
  2  4  1  0
  4  5  2  0
  5  6  1  0
  6  7  2  0
  7  8  1  0
  8  9  1  0
  9 10  1  0
 10 11  2  0
 10 12  1  0
 12 13  1  0
 13 14  1  0
 14 15  1  0
 15 16  1  0
 16 17  1  0
 17 18  2  0
 17 19  1  0
 19 20  1  0
 19 21  1  0
 21 22  1  0
 22 23  2  0
 23 24  1  0
 24 25  2  0
 25 26  1  0
 26 27  2  0
  7 28  1  0
 28 29  2  0
 29  4  1  0
 16 12  1  0
 27 22  1  0
  1 30  1  0
  1 31  1  0
  3 32  1  0
  3 33  1  0
  5 34  1  0
  6 35  1  0
  8 36  1  0
  8 37  1  0
  9 38  1  0
 12 39  1  6
 13 40  1  0
 13 41  1  0
 14 42  1  0
 14 43  1  0
 15 44  1  0
 15 45  1  0
 19 46  1  6
 20 47  1  0
 20 48  1  0
 20 49  1  0
 21 50  1  0
 21 51  1  0
 23 52  1  0
 24 53  1  0
 25 54  1  0
 26 55  1  0
 27 56  1  0
 28 57  1  0
 29 58  1  0
M  CHG  2   3   1  20   1
M  END
>  <meeko>  (6) 
{"is_sidechain": [false], "free_energy": -8.459, "intermolecular_energy": -12.806, "internal_energy": -1.181}

$$$$
2zda_ligand
     RDKit          3D

 58 60  0  0  0  0  0  0  0  0999 V2000
   20.8980  -11.9660   25.8130 N   0  0  0  0  0  0  0  0  0  0  0  0
   21.3940  -12.7900   24.9150 C   0  0  0  0  0  0  0  0  0  0  0  0
   22.6950  -12.9290   24.7660 N   0  0  0  0  0  0  0  0  0  0  0  0
   20.4820  -13.5740   24.0660 C   0  0  0  0  0  0  0  0  0  0  0  0
   20.8490  -13.9370   22.7610 C   0  0  0  0  0  0  0  0  0  0  0  0
   19.9930  -14.7040   21.9620 C   0  0  0  0  0  0  0  0  0  0  0  0
   18.7530  -15.1320   22.4520 C   0  0  0  0  0  0  0  0  0  0  0  0
   17.8340  -15.9790   21.6080 C   0  0  0  0  0  0  0  0  0  0  0  0
   16.5860  -15.2930   21.3430 N   0  0  0  0  0  0  0  0  0  0  0  0
   15.3700  -15.9050   21.5330 C   0  0  0  0  0  0  0  0  0  0  0  0
   15.2770  -17.0830   21.8960 O   0  0  0  0  0  0  0  0  0  0  0  0
   14.1170  -15.0880   21.1270 C   0  0  2  0  0  0  0  0  0  0  0  0
   13.1820  -15.8350   20.1660 C   0  0  0  0  0  0  0  0  0  0  0  0
   13.6960  -15.4330   18.7930 C   0  0  0  0  0  0  0  0  0  0  0  0
   14.0420  -13.9710   18.9920 C   0  0  0  0  0  0  0  0  0  0  0  0
   14.5000  -13.8720   20.3770 N   0  0  0  0  0  0  0  0  0  0  0  0
   15.0100  -12.6650   20.7930 C   0  0  0  0  0  0  0  0  0  0  0  0
   15.4740  -12.5540   21.9370 O   0  0  0  0  0  0  0  0  0  0  0  0
   14.8570  -11.3460   20.0000 C   0  0  2  0  0  0  0  0  0  0  0  0
   16.0100  -10.4400   20.3480 N   0  0  0  0  0  0  0  0  0  0  0  0
   13.5430  -10.5670   20.0390 C   0  0  0  0  0  0  0  0  0  0  0  0
   12.7830  -10.5610   21.3460 C   0  0  0  0  0  0  0  0  0  0  0  0
   12.7680   -9.3760   22.1010 C   0  0  0  0  0  0  0  0  0  0  0  0
   12.0740   -9.3050   23.3110 C   0  0  0  0  0  0  0  0  0  0  0  0
   11.3740  -10.4120   23.7760 C   0  0  0  0  0  0  0  0  0  0  0  0
   11.3560  -11.5840   23.0270 C   0  0  0  0  0  0  0  0  0  0  0  0
   12.0470  -11.6590   21.8140 C   0  0  0  0  0  0  0  0  0  0  0  0
   18.3750  -14.7540   23.7480 C   0  0  0  0  0  0  0  0  0  0  0  0
   19.2300  -13.9860   24.5460 C   0  0  0  0  0  0  0  0  0  0  0  0
   19.8930  -11.8480   25.8990 H   0  0  0  0  0  0  0  0  0  0  0  0
   21.4820  -11.4100   26.4230 H   0  0  0  0  0  0  0  0  0  0  0  0
   23.0640  -13.5890   24.0900 H   0  0  0  0  0  0  0  0  0  0  0  0
   23.3650  -12.4190   25.3260 H   0  0  0  0  0  0  0  0  0  0  0  0
   21.8217  -13.6147   22.3609 H   0  0  0  0  0  0  0  0  0  0  0  0
   20.2972  -14.9730   20.9397 H   0  0  0  0  0  0  0  0  0  0  0  0
   18.3300  -16.2037   20.6522 H   0  0  0  0  0  0  0  0  0  0  0  0
   17.6123  -16.9060   22.1571 H   0  0  0  0  0  0  0  0  0  0  0  0
   16.6400  -14.4310   20.8130 H   0  0  0  0  0  0  0  0  0  0  0  0
   13.6144  -14.8777   22.0826 H   0  0  0  0  0  0  0  0  0  0  0  0
   13.2555  -16.9229   20.3111 H   0  0  0  0  0  0  0  0  0  0  0  0
   12.1213  -15.5862   20.3178 H   0  0  0  0  0  0  0  0  0  0  0  0
   14.5846  -16.0180   18.5135 H   0  0  0  0  0  0  0  0  0  0  0  0
   12.9720  -15.6077   17.9835 H   0  0  0  0  0  0  0  0  0  0  0  0
   14.8396  -13.6653   18.2989 H   0  0  0  0  0  0  0  0  0  0  0  0
   13.1822  -13.3139   18.7947 H   0  0  0  0  0  0  0  0  0  0  0  0
   14.8515  -11.6960   18.9572 H   0  0  0  0  0  0  0  0  0  0  0  0
   16.3880  -10.5910   21.2880 H   0  0  0  0  0  0  0  0  0  0  0  0
   15.7090   -9.4590   20.2690 H   0  0  0  0  0  0  0  0  0  0  0  0
   16.7760  -10.5600   19.6520 H   0  0  0  0  0  0  0  0  0  0  0  0
   13.7702   -9.5215   19.7833 H   0  0  0  0  0  0  0  0  0  0  0  0
   12.8832  -11.0874   19.3292 H   0  0  0  0  0  0  0  0  0  0  0  0
   13.3103   -8.4921   21.7340 H   0  0  0  0  0  0  0  0  0  0  0  0
   12.0814   -8.3733   23.8957 H   0  0  0  0  0  0  0  0  0  0  0  0
   10.8356  -10.3615   24.7339 H   0  0  0  0  0  0  0  0  0  0  0  0
   10.7947  -12.4570   23.3913 H   0  0  0  0  0  0  0  0  0  0  0  0
   12.0131  -12.5858   21.2226 H   0  0  0  0  0  0  0  0  0  0  0  0
   17.3959  -15.0645   24.1417 H   0  0  0  0  0  0  0  0  0  0  0  0
   18.9168  -13.7020   25.5615 H   0  0  0  0  0  0  0  0  0  0  0  0
  1  2  1  0
  2  3  2  0
  2  4  1  0
  4  5  2  0
  5  6  1  0
  6  7  2  0
  7  8  1  0
  8  9  1  0
  9 10  1  0
 10 11  2  0
 10 12  1  0
 12 13  1  0
 13 14  1  0
 14 15  1  0
 15 16  1  0
 16 17  1  0
 17 18  2  0
 17 19  1  0
 19 20  1  0
 19 21  1  0
 21 22  1  0
 22 23  2  0
 23 24  1  0
 24 25  2  0
 25 26  1  0
 26 27  2  0
  7 28  1  0
 28 29  2  0
 29  4  1  0
 16 12  1  0
 27 22  1  0
  1 30  1  0
  1 31  1  0
  3 32  1  0
  3 33  1  0
  5 34  1  0
  6 35  1  0
  8 36  1  0
  8 37  1  0
  9 38  1  0
 12 39  1  1
 13 40  1  0
 13 41  1  0
 14 42  1  0
 14 43  1  0
 15 44  1  0
 15 45  1  0
 19 46  1  6
 20 47  1  0
 20 48  1  0
 20 49  1  0
 21 50  1  0
 21 51  1  0
 23 52  1  0
 24 53  1  0
 25 54  1  0
 26 55  1  0
 27 56  1  0
 28 57  1  0
 29 58  1  0
M  CHG  2   3   1  20   1
M  END
>  <meeko>  (7) 
{"is_sidechain": [false], "free_energy": -8.182, "intermolecular_energy": -12.645, "internal_energy": -0.927}

$$$$
2zda_ligand
     RDKit          3D

 58 60  0  0  0  0  0  0  0  0999 V2000
   12.4350   -9.6750   21.8690 N   0  0  0  0  0  0  0  0  0  0  0  0
   13.3940  -10.2220   21.1540 C   0  0  0  0  0  0  0  0  0  0  0  0
   14.4000   -9.5030   20.7050 N   0  0  0  0  0  0  0  0  0  0  0  0
   13.3460  -11.6630   20.8550 C   0  0  0  0  0  0  0  0  0  0  0  0
   14.0220  -12.1900   19.7440 C   0  0  0  0  0  0  0  0  0  0  0  0
   13.9970  -13.5630   19.4730 C   0  0  0  0  0  0  0  0  0  0  0  0
   13.3010  -14.4420   20.3120 C   0  0  0  0  0  0  0  0  0  0  0  0
   13.2880  -15.9260   20.0430 C   0  0  0  0  0  0  0  0  0  0  0  0
   14.5160  -16.5500   20.4910 N   0  0  0  0  0  0  0  0  0  0  0  0
   14.6110  -17.1610   21.7190 C   0  0  0  0  0  0  0  0  0  0  0  0
   13.6700  -17.1730   22.5210 O   0  0  0  0  0  0  0  0  0  0  0  0
   16.0060  -17.7110   22.1080 C   0  0  2  0  0  0  0  0  0  0  0  0
   15.9570  -18.7990   23.1910 C   0  0  0  0  0  0  0  0  0  0  0  0
   16.0770  -18.0120   24.4860 C   0  0  0  0  0  0  0  0  0  0  0  0
   17.0880  -16.9430   24.1210 C   0  0  0  0  0  0  0  0  0  0  0  0
   16.8420  -16.6500   22.7110 N   0  0  0  0  0  0  0  0  0  0  0  0
   17.5390  -15.6060   22.1470 C   0  0  0  0  0  0  0  0  0  0  0  0
   18.3350  -15.8250   21.2240 O   0  0  0  0  0  0  0  0  0  0  0  0
   17.5630  -14.1730   22.7290 C   0  0  2  0  0  0  0  0  0  0  0  0
   16.2650  -13.4920   22.3830 N   0  0  0  0  0  0  0  0  0  0  0  0
   18.7420  -13.2430   22.4440 C   0  0  0  0  0  0  0  0  0  0  0  0
   19.8920  -13.2660   23.4250 C   0  0  0  0  0  0  0  0  0  0  0  0
   21.1920  -13.4540   22.9220 C   0  0  0  0  0  0  0  0  0  0  0  0
   22.2960  -13.4740   23.7760 C   0  0  0  0  0  0  0  0  0  0  0  0
   22.1200  -13.2910   25.1430 C   0  0  0  0  0  0  0  0  0  0  0  0
   20.8430  -13.0770   25.6540 C   0  0  0  0  0  0  0  0  0  0  0  0
   19.7350  -13.0540   24.8020 C   0  0  0  0  0  0  0  0  0  0  0  0
   12.6080  -13.9170   21.4110 C   0  0  0  0  0  0  0  0  0  0  0  0
   12.6310  -12.5440   21.6800 C   0  0  0  0  0  0  0  0  0  0  0  0
   11.6500  -10.2360   22.1870 H   0  0  0  0  0  0  0  0  0  0  0  0
   12.4250   -8.6920   22.1050 H   0  0  0  0  0  0  0  0  0  0  0  0
   15.1490   -9.9430   20.1790 H   0  0  0  0  0  0  0  0  0  0  0  0
   14.4860   -8.5110   20.8840 H   0  0  0  0  0  0  0  0  0  0  0  0
   14.5789  -11.5152   19.0773 H   0  0  0  0  0  0  0  0  0  0  0  0
   14.5287  -13.9549   18.5934 H   0  0  0  0  0  0  0  0  0  0  0  0
   12.4396  -16.3799   20.5761 H   0  0  0  0  0  0  0  0  0  0  0  0
   13.1930  -16.0827   18.9584 H   0  0  0  0  0  0  0  0  0  0  0  0
   15.3570  -16.3360   19.9680 H   0  0  0  0  0  0  0  0  0  0  0  0
   16.4080  -18.1094   21.1648 H   0  0  0  0  0  0  0  0  0  0  0  0
   15.0061  -19.3506   23.1522 H   0  0  0  0  0  0  0  0  0  0  0  0
   16.7454  -19.5571   23.0744 H   0  0  0  0  0  0  0  0  0  0  0  0
   15.1127  -17.5672   24.7728 H   0  0  0  0  0  0  0  0  0  0  0  0
   16.3763  -18.6256   25.3485 H   0  0  0  0  0  0  0  0  0  0  0  0
   16.9361  -16.0427   24.7345 H   0  0  0  0  0  0  0  0  0  0  0  0
   18.1213  -17.2762   24.2979 H   0  0  0  0  0  0  0  0  0  0  0  0
   17.7068  -14.3551   23.8042 H   0  0  0  0  0  0  0  0  0  0  0  0
   16.0000  -13.5800   21.3980 H   0  0  0  0  0  0  0  0  0  0  0  0
   16.3320  -12.4920   22.6170 H   0  0  0  0  0  0  0  0  0  0  0  0
   15.4980  -13.8730   22.9750 H   0  0  0  0  0  0  0  0  0  0  0  0
   19.1442  -13.5116   21.4560 H   0  0  0  0  0  0  0  0  0  0  0  0
   18.3265  -12.2272   22.5175 H   0  0  0  0  0  0  0  0  0  0  0  0
   21.3408  -13.5872   21.8403 H   0  0  0  0  0  0  0  0  0  0  0  0
   23.3047  -13.6345   23.3677 H   0  0  0  0  0  0  0  0  0  0  0  0
   22.9875  -13.3153   25.8189 H   0  0  0  0  0  0  0  0  0  0  0  0
   20.7049  -12.9251   26.7347 H   0  0  0  0  0  0  0  0  0  0  0  0
   18.7325  -12.8682   25.2150 H   0  0  0  0  0  0  0  0  0  0  0  0
   12.0401  -14.5912   22.0690 H   0  0  0  0  0  0  0  0  0  0  0  0
   12.0821  -12.1509   22.5484 H   0  0  0  0  0  0  0  0  0  0  0  0
  1  2  1  0
  2  3  2  0
  2  4  1  0
  4  5  2  0
  5  6  1  0
  6  7  2  0
  7  8  1  0
  8  9  1  0
  9 10  1  0
 10 11  2  0
 10 12  1  0
 12 13  1  0
 13 14  1  0
 14 15  1  0
 15 16  1  0
 16 17  1  0
 17 18  2  0
 17 19  1  0
 19 20  1  0
 19 21  1  0
 21 22  1  0
 22 23  2  0
 23 24  1  0
 24 25  2  0
 25 26  1  0
 26 27  2  0
  7 28  1  0
 28 29  2  0
 29  4  1  0
 16 12  1  0
 27 22  1  0
  1 30  1  0
  1 31  1  0
  3 32  1  0
  3 33  1  0
  5 34  1  0
  6 35  1  0
  8 36  1  0
  8 37  1  0
  9 38  1  0
 12 39  1  6
 13 40  1  0
 13 41  1  0
 14 42  1  0
 14 43  1  0
 15 44  1  0
 15 45  1  0
 19 46  1  1
 20 47  1  0
 20 48  1  0
 20 49  1  0
 21 50  1  0
 21 51  1  0
 23 52  1  0
 24 53  1  0
 25 54  1  0
 26 55  1  0
 27 56  1  0
 28 57  1  0
 29 58  1  0
M  CHG  2   3   1  20   1
M  END
>  <meeko>  (8) 
{"is_sidechain": [false], "free_energy": -7.84, "intermolecular_energy": -11.742, "internal_energy": -1.317}

$$$$
2zda_ligand
     RDKit          3D

 58 60  0  0  0  0  0  0  0  0999 V2000
   22.5570  -17.4900   22.0270 N   0  0  0  0  0  0  0  0  0  0  0  0
   21.8900  -17.1260   23.1010 C   0  0  0  0  0  0  0  0  0  0  0  0
   22.5170  -16.8040   24.2130 N   0  0  0  0  0  0  0  0  0  0  0  0
   20.4190  -17.0730   23.0610 C   0  0  0  0  0  0  0  0  0  0  0  0
   19.7350  -17.0280   21.8360 C   0  0  0  0  0  0  0  0  0  0  0  0
   18.3360  -17.0030   21.7960 C   0  0  0  0  0  0  0  0  0  0  0  0
   17.5890  -17.0280   22.9800 C   0  0  0  0  0  0  0  0  0  0  0  0
   16.0810  -17.0250   22.9470 C   0  0  0  0  0  0  0  0  0  0  0  0
   15.5780  -15.9880   22.0690 N   0  0  0  0  0  0  0  0  0  0  0  0
   14.2470  -15.9050   21.7370 C   0  0  0  0  0  0  0  0  0  0  0  0
   13.4180  -16.7320   22.1330 O   0  0  0  0  0  0  0  0  0  0  0  0
   13.8590  -14.8020   20.7190 C   0  0  2  0  0  0  0  0  0  0  0  0
   13.6020  -15.3370   19.3030 C   0  0  0  0  0  0  0  0  0  0  0  0
   14.9670  -15.2510   18.6410 C   0  0  0  0  0  0  0  0  0  0  0  0
   15.5070  -13.9430   19.1830 C   0  0  0  0  0  0  0  0  0  0  0  0
   14.9670  -13.8390   20.5370 N   0  0  0  0  0  0  0  0  0  0  0  0
   15.4100  -12.7990   21.3200 C   0  0  0  0  0  0  0  0  0  0  0  0
   14.5900  -12.0600   21.8840 O   0  0  0  0  0  0  0  0  0  0  0  0
   16.8840  -12.3370   21.3860 C   0  0  2  0  0  0  0  0  0  0  0  0
   17.0630  -11.1660   20.4550 N   0  0  0  0  0  0  0  0  0  0  0  0
   18.0190  -13.3430   21.1950 C   0  0  0  0  0  0  0  0  0  0  0  0
   19.0730  -13.4080   22.2770 C   0  0  0  0  0  0  0  0  0  0  0  0
   20.4250  -13.3830   21.8920 C   0  0  0  0  0  0  0  0  0  0  0  0
   21.4440  -13.4290   22.8450 C   0  0  0  0  0  0  0  0  0  0  0  0
   21.1270  -13.4870   24.1980 C   0  0  0  0  0  0  0  0  0  0  0  0
   19.7940  -13.4850   24.5970 C   0  0  0  0  0  0  0  0  0  0  0  0
   18.7710  -13.4360   23.6460 C   0  0  0  0  0  0  0  0  0  0  0  0
   18.2690  -17.0510   24.2050 C   0  0  0  0  0  0  0  0  0  0  0  0
   19.6680  -17.0750   24.2450 C   0  0  0  0  0  0  0  0  0  0  0  0
   22.0600  -17.7620   21.1840 H   0  0  0  0  0  0  0  0  0  0  0  0
   23.5660  -17.5370   22.0030 H   0  0  0  0  0  0  0  0  0  0  0  0
   21.9930  -16.4970   25.0250 H   0  0  0  0  0  0  0  0  0  0  0  0
   23.5250  -16.8190   24.2940 H   0  0  0  0  0  0  0  0  0  0  0  0
   20.3056  -17.0122   20.8957 H   0  0  0  0  0  0  0  0  0  0  0  0
   17.8190  -16.9634   20.8259 H   0  0  0  0  0  0  0  0  0  0  0  0
   15.7281  -18.0025   22.5866 H   0  0  0  0  0  0  0  0  0  0  0  0
   15.7108  -16.8298   23.9643 H   0  0  0  0  0  0  0  0  0  0  0  0
   16.2640  -15.4640   21.5400 H   0  0  0  0  0  0  0  0  0  0  0  0
   12.9486  -14.3545   21.1443 H   0  0  0  0  0  0  0  0  0  0  0  0
   13.2444  -16.3768   19.3340 H   0  0  0  0  0  0  0  0  0  0  0  0
   12.8271  -14.7718   18.7644 H   0  0  0  0  0  0  0  0  0  0  0  0
   15.6057  -16.0974   18.9336 H   0  0  0  0  0  0  0  0  0  0  0  0
   14.9269  -15.2895   17.5424 H   0  0  0  0  0  0  0  0  0  0  0  0
   16.6066  -13.9594   19.2062 H   0  0  0  0  0  0  0  0  0  0  0  0
   15.2164  -13.0865   18.5569 H   0  0  0  0  0  0  0  0  0  0  0  0
   17.0089  -12.0933   22.4514 H   0  0  0  0  0  0  0  0  0  0  0  0
   16.8370  -11.3730   19.4790 H   0  0  0  0  0  0  0  0  0  0  0  0
   18.0380  -10.8370   20.5040 H   0  0  0  0  0  0  0  0  0  0  0  0
   16.4770  -10.3670   20.7760 H   0  0  0  0  0  0  0  0  0  0  0  0
   17.5658  -14.3420   21.1139 H   0  0  0  0  0  0  0  0  0  0  0  0
   18.5544  -12.9999   20.2974 H   0  0  0  0  0  0  0  0  0  0  0  0
   20.6836  -13.3264   20.8243 H   0  0  0  0  0  0  0  0  0  0  0  0
   22.4967  -13.4194   22.5262 H   0  0  0  0  0  0  0  0  0  0  0  0
   21.9279  -13.5343   24.9506 H   0  0  0  0  0  0  0  0  0  0  0  0
   19.5438  -13.5222   25.6675 H   0  0  0  0  0  0  0  0  0  0  0  0
   17.7211  -13.4193   23.9739 H   0  0  0  0  0  0  0  0  0  0  0  0
   17.6975  -17.0502   25.1449 H   0  0  0  0  0  0  0  0  0  0  0  0
   20.1840  -17.0957   25.2162 H   0  0  0  0  0  0  0  0  0  0  0  0
  1  2  1  0
  2  3  2  0
  2  4  1  0
  4  5  2  0
  5  6  1  0
  6  7  2  0
  7  8  1  0
  8  9  1  0
  9 10  1  0
 10 11  2  0
 10 12  1  0
 12 13  1  0
 13 14  1  0
 14 15  1  0
 15 16  1  0
 16 17  1  0
 17 18  2  0
 17 19  1  0
 19 20  1  0
 19 21  1  0
 21 22  1  0
 22 23  2  0
 23 24  1  0
 24 25  2  0
 25 26  1  0
 26 27  2  0
  7 28  1  0
 28 29  2  0
 29  4  1  0
 16 12  1  0
 27 22  1  0
  1 30  1  0
  1 31  1  0
  3 32  1  0
  3 33  1  0
  5 34  1  0
  6 35  1  0
  8 36  1  0
  8 37  1  0
  9 38  1  0
 12 39  1  1
 13 40  1  0
 13 41  1  0
 14 42  1  0
 14 43  1  0
 15 44  1  0
 15 45  1  0
 19 46  1  1
 20 47  1  0
 20 48  1  0
 20 49  1  0
 21 50  1  0
 21 51  1  0
 23 52  1  0
 24 53  1  0
 25 54  1  0
 26 55  1  0
 27 56  1  0
 28 57  1  0
 29 58  1  0
M  CHG  2   3   1  20   1
M  END
>  <meeko>  (9) 
{"is_sidechain": [false], "free_energy": -7.69, "intermolecular_energy": -10.007, "internal_energy": -2.828}

$$$$
