2wer_ligand
     RDKit          3D

 42 44  0  0  0  0  0  0  0  0999 V2000
    2.9480   57.0640   -5.8400 C   0  0  0  0  0  0  0  0  0  0  0  0
    3.4690   56.3090   -4.6190 C   0  0  2  0  0  0  0  0  0  0  0  0
    4.5110   57.1380   -3.8580 C   0  0  0  0  0  0  0  0  0  0  0  0
    5.6470   56.3370   -3.2930 C   0  0  1  0  0  0  0  0  0  0  0  0
    6.9330   56.9590   -3.2300 O   0  0  0  0  0  0  0  0  0  0  0  0
    6.2600   56.7880   -1.9750 C   0  0  2  0  0  0  0  0  0  0  0  0
    6.5020   55.7110   -1.0060 C   0  0  0  0  0  0  0  0  0  0  0  0
    5.6170   54.7630   -0.6480 C   0  0  0  0  0  0  0  0  0  0  0  0
    4.2630   54.7270   -1.1560 C   0  0  0  0  0  0  0  0  0  0  0  0
    3.6670   53.6420   -1.6650 C   0  0  0  0  0  0  0  0  0  0  0  0
    2.3050   53.8410   -2.2270 C   0  0  0  0  0  0  0  0  0  0  0  0
    1.5810   54.7200   -1.7570 O   0  0  0  0  0  0  0  0  0  0  0  0
    1.8310   52.9740   -3.3810 C   0  0  0  0  0  0  0  0  0  0  0  0
    2.9130   52.2300   -4.1400 C   0  0  0  0  0  0  0  0  0  0  0  0
    3.3120   50.9300   -3.7630 C   0  0  0  0  0  0  0  0  0  0  0  0
    2.5780   50.1330   -2.4070 Cl  0  0  0  0  0  0  0  0  0  0  0  0
    4.3330   50.2620   -4.4630 C   0  0  0  0  0  0  0  0  0  0  0  0
    4.7070   49.0030   -4.0760 O   0  0  0  0  0  0  0  0  0  0  0  0
    4.9780   50.8640   -5.5410 C   0  0  0  0  0  0  0  0  0  0  0  0
    4.6030   52.1500   -5.9160 C   0  0  0  0  0  0  0  0  0  0  0  0
    5.2290   52.7520   -6.9740 O   0  0  0  0  0  0  0  0  0  0  0  0
    3.5900   52.8350   -5.2240 C   0  0  0  0  0  0  0  0  0  0  0  0
    3.2460   54.1930   -5.6900 C   0  0  0  0  0  0  0  0  0  0  0  0
    2.3770   54.4350   -6.5070 O   0  0  0  0  0  0  0  0  0  0  0  0
    4.0600   55.0670   -5.0560 O   0  0  0  0  0  0  0  0  0  0  0  0
    2.3520   57.9277   -5.5102 H   0  0  0  0  0  0  0  0  0  0  0  0
    3.7976   57.4142   -6.4446 H   0  0  0  0  0  0  0  0  0  0  0  0
    2.3192   56.3939   -6.4446 H   0  0  0  0  0  0  0  0  0  0  0  0
    2.6281   56.1130   -3.9374 H   0  0  0  0  0  0  0  0  0  0  0  0
    4.9274   57.8857   -4.5491 H   0  0  0  0  0  0  0  0  0  0  0  0
    3.9887   57.5898   -3.0018 H   0  0  0  0  0  0  0  0  0  0  0  0
    5.2412   55.3949   -3.6903 H   0  0  0  0  0  0  0  0  0  0  0  0
    6.0824   57.4872   -1.1446 H   0  0  0  0  0  0  0  0  0  0  0  0
    7.4938   55.6765   -0.5314 H   0  0  0  0  0  0  0  0  0  0  0  0
    5.9360   53.9836    0.0597 H   0  0  0  0  0  0  0  0  0  0  0  0
    3.6806   55.6595   -1.1214 H   0  0  0  0  0  0  0  0  0  0  0  0
    4.1577   52.6575   -1.6674 H   0  0  0  0  0  0  0  0  0  0  0  0
    1.1301   52.2288   -2.9767 H   0  0  0  0  0  0  0  0  0  0  0  0
    1.3809   53.6665   -4.1076 H   0  0  0  0  0  0  0  0  0  0  0  0
    4.9900   49.0040   -3.1470 H   0  0  0  0  0  0  0  0  0  0  0  0
    5.7707   50.3313   -6.0867 H   0  0  0  0  0  0  0  0  0  0  0  0
    6.1940   52.7210   -6.8600 H   0  0  0  0  0  0  0  0  0  0  0  0
  1  2  1  0
  2  3  1  0
  3  4  1  0
  4  5  1  0
  5  6  1  0
  6  7  1  0
  7  8  2  0
  8  9  1  0
  9 10  2  0
 10 11  1  0
 11 12  2  0
 11 13  1  0
 13 14  1  0
 14 15  2  0
 15 16  1  0
 15 17  1  0
 17 18  1  0
 17 19  2  0
 19 20  1  0
 20 21  1  0
 20 22  2  0
 22 23  1  0
 23 24  2  0
 23 25  1  0
 25  2  1  0
  6  4  1  0
 22 14  1  0
  1 26  1  0
  1 27  1  0
  1 28  1  0
  2 29  1  1
  3 30  1  0
  3 31  1  0
  4 32  1  1
  6 33  1  1
  7 34  1  0
  8 35  1  0
  9 36  1  0
 10 37  1  0
 13 38  1  0
 13 39  1  0
 18 40  1  0
 19 41  1  0
 21 42  1  0
M  END
>  <meeko>  (1) 
{"is_sidechain": [false], "free_energy": -6.07, "intermolecular_energy": -9.618, "internal_energy": -0.145}

$$$$
2wer_ligand
     RDKit          3D

 42 44  0  0  0  0  0  0  0  0999 V2000
    2.3760   54.7640   -5.9050 C   0  0  0  0  0  0  0  0  0  0  0  0
    3.7100   54.3380   -5.2960 C   0  0  2  0  0  0  0  0  0  0  0  0
    4.5880   55.5640   -4.9470 C   0  0  0  0  0  0  0  0  0  0  0  0
    4.7780   55.7820   -3.4740 C   0  0  1  0  0  0  0  0  0  0  0  0
    4.5050   57.0860   -2.9540 O   0  0  0  0  0  0  0  0  0  0  0  0
    3.5490   56.0690   -2.6250 C   0  0  2  0  0  0  0  0  0  0  0  0
    3.4820   55.3230   -1.3610 C   0  0  0  0  0  0  0  0  0  0  0  0
    2.8850   54.1300   -1.1840 C   0  0  0  0  0  0  0  0  0  0  0  0
    2.1710   53.4500   -2.2420 C   0  0  0  0  0  0  0  0  0  0  0  0
    2.4240   52.2010   -2.6530 C   0  0  0  0  0  0  0  0  0  0  0  0
    1.6430   51.7230   -3.8250 C   0  0  0  0  0  0  0  0  0  0  0  0
    0.5480   52.2330   -4.0680 O   0  0  0  0  0  0  0  0  0  0  0  0
    2.2100   50.6290   -4.7130 C   0  0  0  0  0  0  0  0  0  0  0  0
    2.1940   50.9090   -6.2030 C   0  0  0  0  0  0  0  0  0  0  0  0
    1.1590   50.4230   -7.0310 C   0  0  0  0  0  0  0  0  0  0  0  0
   -0.1390   49.4790   -6.3700 Cl  0  0  0  0  0  0  0  0  0  0  0  0
    1.1710   50.6720   -8.4150 C   0  0  0  0  0  0  0  0  0  0  0  0
    0.1590   50.1860   -9.1990 O   0  0  0  0  0  0  0  0  0  0  0  0
    2.2030   51.3980   -9.0050 C   0  0  0  0  0  0  0  0  0  0  0  0
    3.2360   51.8730   -8.2040 C   0  0  0  0  0  0  0  0  0  0  0  0
    4.2550   52.5890   -8.7730 O   0  0  0  0  0  0  0  0  0  0  0  0
    3.2430   51.6280   -6.8210 C   0  0  0  0  0  0  0  0  0  0  0  0
    4.3710   52.1730   -6.0390 C   0  0  0  0  0  0  0  0  0  0  0  0
    5.1040   51.5010   -5.3390 O   0  0  0  0  0  0  0  0  0  0  0  0
    4.4120   53.5090   -6.2470 O   0  0  0  0  0  0  0  0  0  0  0  0
    1.6617   54.9921   -5.1002 H   0  0  0  0  0  0  0  0  0  0  0  0
    2.5259   55.6590   -6.5268 H   0  0  0  0  0  0  0  0  0  0  0  0
    1.9795   53.9478   -6.5268 H   0  0  0  0  0  0  0  0  0  0  0  0
    3.5092   53.7835   -4.3674 H   0  0  0  0  0  0  0  0  0  0  0  0
    5.5776   55.4220   -5.4057 H   0  0  0  0  0  0  0  0  0  0  0  0
    4.0637   56.4502   -5.3339 H   0  0  0  0  0  0  0  0  0  0  0  0
    5.6160   55.0708   -3.4297 H   0  0  0  0  0  0  0  0  0  0  0  0
    2.4505   56.0592   -2.6809 H   0  0  0  0  0  0  0  0  0  0  0  0
    3.9617   55.7795   -0.4827 H   0  0  0  0  0  0  0  0  0  0  0  0
    2.9424   53.6527   -0.1946 H   0  0  0  0  0  0  0  0  0  0  0  0
    1.3614   53.9986   -2.7456 H   0  0  0  0  0  0  0  0  0  0  0  0
    3.1678   51.5641   -2.1519 H   0  0  0  0  0  0  0  0  0  0  0  0
    3.2548   50.4597   -4.4133 H   0  0  0  0  0  0  0  0  0  0  0  0
    1.5539   49.7582   -4.5673 H   0  0  0  0  0  0  0  0  0  0  0  0
    0.4280   50.1740  -10.1320 H   0  0  0  0  0  0  0  0  0  0  0  0
    2.2010   51.5926  -10.0876 H   0  0  0  0  0  0  0  0  0  0  0  0
    3.9750   52.9570   -9.6280 H   0  0  0  0  0  0  0  0  0  0  0  0
  1  2  1  0
  2  3  1  0
  3  4  1  0
  4  5  1  0
  5  6  1  0
  6  7  1  0
  7  8  2  0
  8  9  1  0
  9 10  2  0
 10 11  1  0
 11 12  2  0
 11 13  1  0
 13 14  1  0
 14 15  2  0
 15 16  1  0
 15 17  1  0
 17 18  1  0
 17 19  2  0
 19 20  1  0
 20 21  1  0
 20 22  2  0
 22 23  1  0
 23 24  2  0
 23 25  1  0
 25  2  1  0
  6  4  1  0
 22 14  1  0
  1 26  1  0
  1 27  1  0
  1 28  1  0
  2 29  1  1
  3 30  1  0
  3 31  1  0
  4 32  1  1
  6 33  1  6
  7 34  1  0
  8 35  1  0
  9 36  1  0
 10 37  1  0
 13 38  1  0
 13 39  1  0
 18 40  1  0
 19 41  1  0
 21 42  1  0
M  END
>  <meeko>  (2) 
{"is_sidechain": [false], "free_energy": -5.836, "intermolecular_energy": -8.548, "internal_energy": -0.845}

$$$$
2wer_ligand
     RDKit          3D

 42 44  0  0  0  0  0  0  0  0999 V2000
    2.3790   49.5210   -5.3130 C   0  0  0  0  0  0  0  0  0  0  0  0
    3.8700   49.8280   -5.1840 C   0  0  2  0  0  0  0  0  0  0  0  0
    4.5000   49.1200   -3.9650 C   0  0  0  0  0  0  0  0  0  0  0  0
    3.6330   49.1480   -2.7400 C   0  0  1  0  0  0  0  0  0  0  0  0
    4.2610   48.9210   -1.4760 O   0  0  0  0  0  0  0  0  0  0  0  0
    3.8460   50.2700   -1.7340 C   0  0  2  0  0  0  0  0  0  0  0  0
    2.6150   50.9030   -1.2440 C   0  0  0  0  0  0  0  0  0  0  0  0
    2.3040   52.2070   -1.3560 C   0  0  0  0  0  0  0  0  0  0  0  0
    3.2030   53.1760   -1.9450 C   0  0  0  0  0  0  0  0  0  0  0  0
    2.8370   54.1260   -2.8140 C   0  0  0  0  0  0  0  0  0  0  0  0
    3.9330   54.9580   -3.3800 C   0  0  0  0  0  0  0  0  0  0  0  0
    4.3120   55.9550   -2.7650 O   0  0  0  0  0  0  0  0  0  0  0  0
    4.5810   54.5580   -4.6940 C   0  0  0  0  0  0  0  0  0  0  0  0
    3.6330   54.2510   -5.8360 C   0  0  0  0  0  0  0  0  0  0  0  0
    2.6870   55.2010   -6.2810 C   0  0  0  0  0  0  0  0  0  0  0  0
    2.5740   56.7620   -5.5300 Cl  0  0  0  0  0  0  0  0  0  0  0  0
    1.7990   54.8930   -7.3270 C   0  0  0  0  0  0  0  0  0  0  0  0
    0.8880   55.8280   -7.7380 O   0  0  0  0  0  0  0  0  0  0  0  0
    1.8240   53.6460   -7.9470 C   0  0  0  0  0  0  0  0  0  0  0  0
    2.7420   52.6950   -7.5110 C   0  0  0  0  0  0  0  0  0  0  0  0
    2.7760   51.4670   -8.1130 O   0  0  0  0  0  0  0  0  0  0  0  0
    3.6320   52.9840   -6.4630 C   0  0  0  0  0  0  0  0  0  0  0  0
    4.5810   51.9250   -6.0650 C   0  0  0  0  0  0  0  0  0  0  0  0
    5.6490   51.7240   -6.6110 O   0  0  0  0  0  0  0  0  0  0  0  0
    4.0380   51.2530   -5.0230 O   0  0  0  0  0  0  0  0  0  0  0  0
    1.9354   49.4297   -4.3106 H   0  0  0  0  0  0  0  0  0  0  0  0
    1.8829   50.3358   -5.8607 H   0  0  0  0  0  0  0  0  0  0  0  0
    2.2452   48.5765   -5.8607 H   0  0  0  0  0  0  0  0  0  0  0  0
    4.3723   49.4638   -6.0923 H   0  0  0  0  0  0  0  0  0  0  0  0
    4.6903   48.0701   -4.2325 H   0  0  0  0  0  0  0  0  0  0  0  0
    5.4244   49.6629   -3.7186 H   0  0  0  0  0  0  0  0  0  0  0  0
    2.7718   48.7313   -3.2828 H   0  0  0  0  0  0  0  0  0  0  0  0
    4.3754   51.2276   -1.6207 H   0  0  0  0  0  0  0  0  0  0  0  0
    1.8829   50.2540   -0.7412 H   0  0  0  0  0  0  0  0  0  0  0  0
    1.3271   52.5505   -0.9850 H   0  0  0  0  0  0  0  0  0  0  0  0
    4.2638   53.1284   -1.6578 H   0  0  0  0  0  0  0  0  0  0  0  0
    1.7849   54.2828   -3.0940 H   0  0  0  0  0  0  0  0  0  0  0  0
    5.2347   55.3836   -5.0119 H   0  0  0  0  0  0  0  0  0  0  0  0
    5.1121   53.6169   -4.4883 H   0  0  0  0  0  0  0  0  0  0  0  0
    1.2520   56.3580   -8.4670 H   0  0  0  0  0  0  0  0  0  0  0  0
    1.1292   53.4164   -8.7683 H   0  0  0  0  0  0  0  0  0  0  0  0
    2.0210   50.9270   -7.8250 H   0  0  0  0  0  0  0  0  0  0  0  0
  1  2  1  0
  2  3  1  0
  3  4  1  0
  4  5  1  0
  5  6  1  0
  6  7  1  0
  7  8  2  0
  8  9  1  0
  9 10  2  0
 10 11  1  0
 11 12  2  0
 11 13  1  0
 13 14  1  0
 14 15  2  0
 15 16  1  0
 15 17  1  0
 17 18  1  0
 17 19  2  0
 19 20  1  0
 20 21  1  0
 20 22  2  0
 22 23  1  0
 23 24  2  0
 23 25  1  0
 25  2  1  0
  6  4  1  0
 22 14  1  0
  1 26  1  0
  1 27  1  0
  1 28  1  0
  2 29  1  6
  3 30  1  0
  3 31  1  0
  4 32  1  6
  6 33  1  6
  7 34  1  0
  8 35  1  0
  9 36  1  0
 10 37  1  0
 13 38  1  0
 13 39  1  0
 18 40  1  0
 19 41  1  0
 21 42  1  0
M  END
>  <meeko>  (3) 
{"is_sidechain": [false], "free_energy": -5.739, "intermolecular_energy": -8.004, "internal_energy": -1.235}

$$$$
2wer_ligand
     RDKit          3D

 42 44  0  0  0  0  0  0  0  0999 V2000
    3.1240   49.8190   -7.1570 C   0  0  0  0  0  0  0  0  0  0  0  0
    2.3220   49.7350   -5.8600 C   0  0  2  0  0  0  0  0  0  0  0  0
    0.8140   49.5640   -6.1390 C   0  0  0  0  0  0  0  0  0  0  0  0
    0.4600   49.6710   -7.5930 C   0  0  1  0  0  0  0  0  0  0  0  0
   -0.9260   49.6630   -7.9430 O   0  0  0  0  0  0  0  0  0  0  0  0
   -0.2580   50.9260   -8.0690 C   0  0  2  0  0  0  0  0  0  0  0  0
    0.2680   51.5040   -9.3120 C   0  0  0  0  0  0  0  0  0  0  0  0
    1.0770   52.5760   -9.4000 C   0  0  0  0  0  0  0  0  0  0  0  0
    1.4920   53.3380   -8.2420 C   0  0  0  0  0  0  0  0  0  0  0  0
    2.7450   53.3940   -7.7740 C   0  0  0  0  0  0  0  0  0  0  0  0
    2.9430   54.1520   -6.5110 C   0  0  0  0  0  0  0  0  0  0  0  0
    2.1320   55.0250   -6.1980 O   0  0  0  0  0  0  0  0  0  0  0  0
    4.1280   53.8310   -5.6160 C   0  0  0  0  0  0  0  0  0  0  0  0
    3.8110   53.6030   -4.1510 C   0  0  0  0  0  0  0  0  0  0  0  0
    3.7200   54.6800   -3.2430 C   0  0  0  0  0  0  0  0  0  0  0  0
    3.9730   56.3140   -3.7740 Cl  0  0  0  0  0  0  0  0  0  0  0  0
    3.4480   54.4500   -1.8830 C   0  0  0  0  0  0  0  0  0  0  0  0
    3.3700   55.5110   -1.0200 O   0  0  0  0  0  0  0  0  0  0  0  0
    3.2660   53.1590   -1.3950 C   0  0  0  0  0  0  0  0  0  0  0  0
    3.3650   52.0860   -2.2750 C   0  0  0  0  0  0  0  0  0  0  0  0
    3.1870   50.8120   -1.8080 O   0  0  0  0  0  0  0  0  0  0  0  0
    3.6420   52.2970   -3.6370 C   0  0  0  0  0  0  0  0  0  0  0  0
    3.7230   51.1070   -4.5070 C   0  0  0  0  0  0  0  0  0  0  0  0
    4.7190   50.4200   -4.6340 O   0  0  0  0  0  0  0  0  0  0  0  0
    2.5220   50.9520   -5.1100 O   0  0  0  0  0  0  0  0  0  0  0  0
    4.1925   49.9309   -6.9208 H   0  0  0  0  0  0  0  0  0  0  0  0
    2.9721   48.9000   -7.7422 H   0  0  0  0  0  0  0  0  0  0  0  0
    2.7850   50.6866   -7.7422 H   0  0  0  0  0  0  0  0  0  0  0  0
    2.6707   48.8596   -5.2924 H   0  0  0  0  0  0  0  0  0  0  0  0
    0.5027   48.5732   -5.7766 H   0  0  0  0  0  0  0  0  0  0  0  0
    0.2932   50.3806   -5.6176 H   0  0  0  0  0  0  0  0  0  0  0  0
    1.3578   49.1142   -7.8996 H   0  0  0  0  0  0  0  0  0  0  0  0
   -0.5377   51.9332   -7.7264 H   0  0  0  0  0  0  0  0  0  0  0  0
   -0.0249   51.0181  -10.2544 H   0  0  0  0  0  0  0  0  0  0  0  0
    1.4372   52.8854  -10.3922 H   0  0  0  0  0  0  0  0  0  0  0  0
    0.7218   53.9132   -7.7073 H   0  0  0  0  0  0  0  0  0  0  0  0
    3.5817   52.9060   -8.2954 H   0  0  0  0  0  0  0  0  0  0  0  0
    4.6050   52.9186   -6.0032 H   0  0  0  0  0  0  0  0  0  0  0  0
    4.7721   54.7222   -5.6452 H   0  0  0  0  0  0  0  0  0  0  0  0
    4.1180   55.5000   -0.4010 H   0  0  0  0  0  0  0  0  0  0  0  0
    3.0473   52.9899   -0.3303 H   0  0  0  0  0  0  0  0  0  0  0  0
    3.9710   50.2690   -1.9970 H   0  0  0  0  0  0  0  0  0  0  0  0
  1  2  1  0
  2  3  1  0
  3  4  1  0
  4  5  1  0
  5  6  1  0
  6  7  1  0
  7  8  2  0
  8  9  1  0
  9 10  2  0
 10 11  1  0
 11 12  2  0
 11 13  1  0
 13 14  1  0
 14 15  2  0
 15 16  1  0
 15 17  1  0
 17 18  1  0
 17 19  2  0
 19 20  1  0
 20 21  1  0
 20 22  2  0
 22 23  1  0
 23 24  2  0
 23 25  1  0
 25  2  1  0
  6  4  1  0
 22 14  1  0
  1 26  1  0
  1 27  1  0
  1 28  1  0
  2 29  1  1
  3 30  1  0
  3 31  1  0
  4 32  1  6
  6 33  1  1
  7 34  1  0
  8 35  1  0
  9 36  1  0
 10 37  1  0
 13 38  1  0
 13 39  1  0
 18 40  1  0
 19 41  1  0
 21 42  1  0
M  END
>  <meeko>  (4) 
{"is_sidechain": [false], "free_energy": -5.643, "intermolecular_energy": -8.023, "internal_energy": -1.064}

$$$$
2wer_ligand
     RDKit          3D

 42 44  0  0  0  0  0  0  0  0999 V2000
    2.1710   54.8470   -1.3800 C   0  0  0  0  0  0  0  0  0  0  0  0
    3.2020   53.7210   -1.4130 C   0  0  2  0  0  0  0  0  0  0  0  0
    4.6000   54.2470   -1.0250 C   0  0  0  0  0  0  0  0  0  0  0  0
    4.8540   55.6450   -1.5060 C   0  0  1  0  0  0  0  0  0  0  0  0
    6.1730   55.9630   -1.9590 O   0  0  0  0  0  0  0  0  0  0  0  0
    5.1710   55.8530   -2.9790 C   0  0  2  0  0  0  0  0  0  0  0  0
    4.4570   56.9690   -3.6130 C   0  0  0  0  0  0  0  0  0  0  0  0
    3.7250   56.8950   -4.7400 C   0  0  0  0  0  0  0  0  0  0  0  0
    3.5950   55.6760   -5.5080 C   0  0  0  0  0  0  0  0  0  0  0  0
    2.4350   55.0700   -5.7870 C   0  0  0  0  0  0  0  0  0  0  0  0
    2.5270   53.7710   -6.5050 C   0  0  0  0  0  0  0  0  0  0  0  0
    3.1110   53.7210   -7.5890 O   0  0  0  0  0  0  0  0  0  0  0  0
    1.9200   52.5230   -5.8870 C   0  0  0  0  0  0  0  0  0  0  0  0
    2.9030   51.4760   -5.4020 C   0  0  0  0  0  0  0  0  0  0  0  0
    3.5870   50.6350   -6.3070 C   0  0  0  0  0  0  0  0  0  0  0  0
    3.3220   50.7680   -8.0170 Cl  0  0  0  0  0  0  0  0  0  0  0  0
    4.4790   49.6530   -5.8390 C   0  0  0  0  0  0  0  0  0  0  0  0
    5.1270   48.8460   -6.7350 O   0  0  0  0  0  0  0  0  0  0  0  0
    4.7080   49.4820   -4.4760 C   0  0  0  0  0  0  0  0  0  0  0  0
    4.0320   50.2950   -3.5720 C   0  0  0  0  0  0  0  0  0  0  0  0
    4.2500   50.1360   -2.2300 O   0  0  0  0  0  0  0  0  0  0  0  0
    3.1330   51.2760   -4.0210 C   0  0  0  0  0  0  0  0  0  0  0  0
    2.4620   52.1040   -2.9990 C   0  0  0  0  0  0  0  0  0  0  0  0
    1.3850   51.8340   -2.5020 O   0  0  0  0  0  0  0  0  0  0  0  0
    3.2510   53.1740   -2.7480 O   0  0  0  0  0  0  0  0  0  0  0  0
    1.9386   55.1008   -0.3352 H   0  0  0  0  0  0  0  0  0  0  0  0
    2.5783   55.7322   -1.8905 H   0  0  0  0  0  0  0  0  0  0  0  0
    1.2535   54.5191   -1.8905 H   0  0  0  0  0  0  0  0  0  0  0  0
    2.9085   52.9455   -0.6902 H   0  0  0  0  0  0  0  0  0  0  0  0
    4.6884   54.2319    0.0713 H   0  0  0  0  0  0  0  0  0  0  0  0
    5.3428   53.5934   -1.5057 H   0  0  0  0  0  0  0  0  0  0  0  0
    4.1383   56.0716   -0.7878 H   0  0  0  0  0  0  0  0  0  0  0  0
    5.1678   55.3150   -3.9385 H   0  0  0  0  0  0  0  0  0  0  0  0
    4.5266   57.9517   -3.1237 H   0  0  0  0  0  0  0  0  0  0  0  0
    3.2045   57.7981   -5.0914 H   0  0  0  0  0  0  0  0  0  0  0  0
    4.5169   55.2135   -5.8905 H   0  0  0  0  0  0  0  0  0  0  0  0
    1.4674   55.5083   -5.5012 H   0  0  0  0  0  0  0  0  0  0  0  0
    1.3100   52.8360   -5.0268 H   0  0  0  0  0  0  0  0  0  0  0  0
    1.3475   52.0412   -6.6933 H   0  0  0  0  0  0  0  0  0  0  0  0
    5.7880   48.2980   -6.2820 H   0  0  0  0  0  0  0  0  0  0  0  0
    5.4125   48.7160   -4.1198 H   0  0  0  0  0  0  0  0  0  0  0  0
    5.1490   50.4200   -1.9960 H   0  0  0  0  0  0  0  0  0  0  0  0
  1  2  1  0
  2  3  1  0
  3  4  1  0
  4  5  1  0
  5  6  1  0
  6  7  1  0
  7  8  2  0
  8  9  1  0
  9 10  2  0
 10 11  1  0
 11 12  2  0
 11 13  1  0
 13 14  1  0
 14 15  2  0
 15 16  1  0
 15 17  1  0
 17 18  1  0
 17 19  2  0
 19 20  1  0
 20 21  1  0
 20 22  2  0
 22 23  1  0
 23 24  2  0
 23 25  1  0
 25  2  1  0
  6  4  1  0
 22 14  1  0
  1 26  1  0
  1 27  1  0
  1 28  1  0
  2 29  1  1
  3 30  1  0
  3 31  1  0
  4 32  1  1
  6 33  1  6
  7 34  1  0
  8 35  1  0
  9 36  1  0
 10 37  1  0
 13 38  1  0
 13 39  1  0
 18 40  1  0
 19 41  1  0
 21 42  1  0
M  END
>  <meeko>  (5) 
{"is_sidechain": [false], "free_energy": -5.238, "intermolecular_energy": -7.517, "internal_energy": -0.928}

$$$$
2wer_ligand
     RDKit          3D

 42 44  0  0  0  0  0  0  0  0999 V2000
    1.5830   56.2670   -6.7070 C   0  0  0  0  0  0  0  0  0  0  0  0
    2.4320   55.0080   -6.8720 C   0  0  2  0  0  0  0  0  0  0  0  0
    1.9110   54.1230   -8.0010 C   0  0  0  0  0  0  0  0  0  0  0  0
    0.5510   53.5450   -7.7410 C   0  0  1  0  0  0  0  0  0  0  0  0
   -0.5130   53.9340   -8.6130 O   0  0  0  0  0  0  0  0  0  0  0  0
   -0.0350   52.5920   -8.7730 C   0  0  2  0  0  0  0  0  0  0  0  0
   -0.6530   51.3820   -8.2150 C   0  0  0  0  0  0  0  0  0  0  0  0
    0.0020   50.3640   -7.6290 C   0  0  0  0  0  0  0  0  0  0  0  0
    1.4440   50.3200   -7.5250 C   0  0  0  0  0  0  0  0  0  0  0  0
    2.1440   50.6980   -6.4480 C   0  0  0  0  0  0  0  0  0  0  0  0
    3.6240   50.6700   -6.5820 C   0  0  0  0  0  0  0  0  0  0  0  0
    4.1410   49.9310   -7.4220 O   0  0  0  0  0  0  0  0  0  0  0  0
    4.4780   51.5640   -5.6990 C   0  0  0  0  0  0  0  0  0  0  0  0
    3.9330   51.8430   -4.3120 C   0  0  0  0  0  0  0  0  0  0  0  0
    3.8230   50.8200   -3.3470 C   0  0  0  0  0  0  0  0  0  0  0  0
    4.3070   49.1940   -3.7150 Cl  0  0  0  0  0  0  0  0  0  0  0  0
    3.2930   51.0900   -2.0720 C   0  0  0  0  0  0  0  0  0  0  0  0
    3.1920   50.0800   -1.1530 O   0  0  0  0  0  0  0  0  0  0  0  0
    2.8610   52.3690   -1.7310 C   0  0  0  0  0  0  0  0  0  0  0  0
    2.9520   53.3860   -2.6760 C   0  0  0  0  0  0  0  0  0  0  0  0
    2.5310   54.6470   -2.3520 O   0  0  0  0  0  0  0  0  0  0  0  0
    3.4730   53.1320   -3.9560 C   0  0  0  0  0  0  0  0  0  0  0  0
    3.5430   54.2660   -4.9000 C   0  0  0  0  0  0  0  0  0  0  0  0
    4.4770   55.0430   -4.9640 O   0  0  0  0  0  0  0  0  0  0  0  0
    2.4080   54.2650   -5.6350 O   0  0  0  0  0  0  0  0  0  0  0  0
    1.4418   56.4763   -5.6364 H   0  0  0  0  0  0  0  0  0  0  0  0
    2.0925   57.1178   -7.1829 H   0  0  0  0  0  0  0  0  0  0  0  0
    0.6032   56.1135   -7.1829 H   0  0  0  0  0  0  0  0  0  0  0  0
    3.4585   55.3118   -7.1252 H   0  0  0  0  0  0  0  0  0  0  0  0
    1.8613   54.7263   -8.9194 H   0  0  0  0  0  0  0  0  0  0  0  0
    2.6068   53.2757   -8.0900 H   0  0  0  0  0  0  0  0  0  0  0  0
    0.7168   53.5218   -6.6538 H   0  0  0  0  0  0  0  0  0  0  0  0
    0.2487   52.0246   -9.6716 H   0  0  0  0  0  0  0  0  0  0  0  0
   -1.7480   51.3013   -8.2823 H   0  0  0  0  0  0  0  0  0  0  0  0
   -0.5827   49.5309   -7.2118 H   0  0  0  0  0  0  0  0  0  0  0  0
    2.0067   49.9489   -8.3943 H   0  0  0  0  0  0  0  0  0  0  0  0
    1.6512   51.0118   -5.5160 H   0  0  0  0  0  0  0  0  0  0  0  0
    5.4610   51.0838   -5.5842 H   0  0  0  0  0  0  0  0  0  0  0  0
    4.5104   52.5392   -6.2069 H   0  0  0  0  0  0  0  0  0  0  0  0
    3.8720   50.1770   -0.4660 H   0  0  0  0  0  0  0  0  0  0  0  0
    2.4539   52.5723   -0.7295 H   0  0  0  0  0  0  0  0  0  0  0  0
    2.7550   55.2720   -3.0620 H   0  0  0  0  0  0  0  0  0  0  0  0
  1  2  1  0
  2  3  1  0
  3  4  1  0
  4  5  1  0
  5  6  1  0
  6  7  1  0
  7  8  2  0
  8  9  1  0
  9 10  2  0
 10 11  1  0
 11 12  2  0
 11 13  1  0
 13 14  1  0
 14 15  2  0
 15 16  1  0
 15 17  1  0
 17 18  1  0
 17 19  2  0
 19 20  1  0
 20 21  1  0
 20 22  2  0
 22 23  1  0
 23 24  2  0
 23 25  1  0
 25  2  1  0
  6  4  1  0
 22 14  1  0
  1 26  1  0
  1 27  1  0
  1 28  1  0
  2 29  1  6
  3 30  1  0
  3 31  1  0
  4 32  1  1
  6 33  1  6
  7 34  1  0
  8 35  1  0
  9 36  1  0
 10 37  1  0
 13 38  1  0
 13 39  1  0
 18 40  1  0
 19 41  1  0
 21 42  1  0
M  END
>  <meeko>  (6) 
{"is_sidechain": [false], "free_energy": -5.106, "intermolecular_energy": -7.257, "internal_energy": -0.98}

$$$$
2wer_ligand
     RDKit          3D

 42 44  0  0  0  0  0  0  0  0999 V2000
    0.8950   53.6190   -7.8480 C   0  0  0  0  0  0  0  0  0  0  0  0
    2.3680   53.9950   -7.6950 C   0  0  2  0  0  0  0  0  0  0  0  0
    3.2870   52.9080   -8.3110 C   0  0  0  0  0  0  0  0  0  0  0  0
    2.6110   51.5750   -8.4550 C   0  0  1  0  0  0  0  0  0  0  0  0
    3.4430   50.4160   -8.5520 O   0  0  0  0  0  0  0  0  0  0  0  0
    2.7380   50.5770   -7.3140 C   0  0  2  0  0  0  0  0  0  0  0  0
    1.4870   49.9050   -6.9390 C   0  0  0  0  0  0  0  0  0  0  0  0
    0.7920   50.1160   -5.8060 C   0  0  0  0  0  0  0  0  0  0  0  0
    1.2410   51.0200   -4.7700 C   0  0  0  0  0  0  0  0  0  0  0  0
    2.5210   51.3320   -4.5320 C   0  0  0  0  0  0  0  0  0  0  0  0
    2.7780   52.2030   -3.3550 C   0  0  0  0  0  0  0  0  0  0  0  0
    3.4280   51.7600   -2.4070 O   0  0  0  0  0  0  0  0  0  0  0  0
    2.2550   53.6290   -3.3430 C   0  0  0  0  0  0  0  0  0  0  0  0
    3.2990   54.7210   -3.4720 C   0  0  0  0  0  0  0  0  0  0  0  0
    4.2260   54.9770   -2.4390 C   0  0  0  0  0  0  0  0  0  0  0  0
    4.2020   54.0470   -0.9740 Cl  0  0  0  0  0  0  0  0  0  0  0  0
    5.1740   56.0080   -2.5650 C   0  0  0  0  0  0  0  0  0  0  0  0
    6.0600   56.2400   -1.5480 O   0  0  0  0  0  0  0  0  0  0  0  0
    5.2200   56.8050   -3.7060 C   0  0  0  0  0  0  0  0  0  0  0  0
    4.3050   56.5740   -4.7270 C   0  0  0  0  0  0  0  0  0  0  0  0
    4.3410   57.3510   -5.8530 O   0  0  0  0  0  0  0  0  0  0  0  0
    3.3470   55.5520   -4.6150 C   0  0  0  0  0  0  0  0  0  0  0  0
    2.4160   55.3650   -5.7470 C   0  0  0  0  0  0  0  0  0  0  0  0
    1.5840   56.1840   -6.0880 O   0  0  0  0  0  0  0  0  0  0  0  0
    2.6640   54.1510   -6.2910 O   0  0  0  0  0  0  0  0  0  0  0  0
    0.4409   53.5031   -6.8528 H   0  0  0  0  0  0  0  0  0  0  0  0
    0.3697   54.4119   -8.4007 H   0  0  0  0  0  0  0  0  0  0  0  0
    0.8140   52.6714   -8.4007 H   0  0  0  0  0  0  0  0  0  0  0  0
    2.5551   54.9380   -8.2295 H   0  0  0  0  0  0  0  0  0  0  0  0
    3.6095   53.2460   -9.3069 H   0  0  0  0  0  0  0  0  0  0  0  0
    4.1369   52.7716   -7.6261 H   0  0  0  0  0  0  0  0  0  0  0  0
    1.7809   52.0057   -9.0341 H   0  0  0  0  0  0  0  0  0  0  0  0
    3.0788   50.5107   -6.2702 H   0  0  0  0  0  0  0  0  0  0  0  0
    1.0831   49.1650   -7.6456 H   0  0  0  0  0  0  0  0  0  0  0  0
   -0.1569   49.5787   -5.6618 H   0  0  0  0  0  0  0  0  0  0  0  0
    0.4754   51.4848   -4.1314 H   0  0  0  0  0  0  0  0  0  0  0  0
    3.3369   50.9644   -5.1716 H   0  0  0  0  0  0  0  0  0  0  0  0
    1.5506   53.7362   -4.1810 H   0  0  0  0  0  0  0  0  0  0  0  0
    1.7998   53.7696   -2.3515 H   0  0  0  0  0  0  0  0  0  0  0  0
    6.9600   55.9950   -1.8190 H   0  0  0  0  0  0  0  0  0  0  0  0
    5.9690   57.6053   -3.7981 H   0  0  0  0  0  0  0  0  0  0  0  0
    4.3610   58.2930   -5.6150 H   0  0  0  0  0  0  0  0  0  0  0  0
  1  2  1  0
  2  3  1  0
  3  4  1  0
  4  5  1  0
  5  6  1  0
  6  7  1  0
  7  8  2  0
  8  9  1  0
  9 10  2  0
 10 11  1  0
 11 12  2  0
 11 13  1  0
 13 14  1  0
 14 15  2  0
 15 16  1  0
 15 17  1  0
 17 18  1  0
 17 19  2  0
 19 20  1  0
 20 21  1  0
 20 22  2  0
 22 23  1  0
 23 24  2  0
 23 25  1  0
 25  2  1  0
  6  4  1  0
 22 14  1  0
  1 26  1  0
  1 27  1  0
  1 28  1  0
  2 29  1  6
  3 30  1  0
  3 31  1  0
  4 32  1  6
  6 33  1  1
  7 34  1  0
  8 35  1  0
  9 36  1  0
 10 37  1  0
 13 38  1  0
 13 39  1  0
 18 40  1  0
 19 41  1  0
 21 42  1  0
M  END
>  <meeko>  (7) 
{"is_sidechain": [false], "free_energy": -5.048, "intermolecular_energy": -8.427, "internal_energy": 0.283}

$$$$
2wer_ligand
     RDKit          3D

 42 44  0  0  0  0  0  0  0  0999 V2000
    2.4860   50.3400   -2.2270 C   0  0  0  0  0  0  0  0  0  0  0  0
    3.4400   51.4040   -2.7650 C   0  0  2  0  0  0  0  0  0  0  0  0
    3.4290   52.6650   -1.8690 C   0  0  0  0  0  0  0  0  0  0  0  0
    3.4370   53.9510   -2.6430 C   0  0  1  0  0  0  0  0  0  0  0  0
    2.5230   54.9740   -2.2420 O   0  0  0  0  0  0  0  0  0  0  0  0
    3.9020   55.2150   -1.9340 C   0  0  2  0  0  0  0  0  0  0  0  0
    4.8270   56.0530   -2.7090 C   0  0  0  0  0  0  0  0  0  0  0  0
    4.9520   56.0530   -4.0490 C   0  0  0  0  0  0  0  0  0  0  0  0
    4.2010   55.1600   -4.9030 C   0  0  0  0  0  0  0  0  0  0  0  0
    3.1140   55.5060   -5.6020 C   0  0  0  0  0  0  0  0  0  0  0  0
    2.4290   54.4120   -6.3400 C   0  0  0  0  0  0  0  0  0  0  0  0
    1.2020   54.3200   -6.2800 O   0  0  0  0  0  0  0  0  0  0  0  0
    3.2450   53.4370   -7.1710 C   0  0  0  0  0  0  0  0  0  0  0  0
    2.6930   52.0280   -7.2740 C   0  0  0  0  0  0  0  0  0  0  0  0
    1.8550   51.6440   -8.3430 C   0  0  0  0  0  0  0  0  0  0  0  0
    1.4220   52.7770   -9.5840 Cl  0  0  0  0  0  0  0  0  0  0  0  0
    1.3330   50.3390   -8.4110 C   0  0  0  0  0  0  0  0  0  0  0  0
    0.5190   49.9910   -9.4560 O   0  0  0  0  0  0  0  0  0  0  0  0
    1.6230   49.3970   -7.4280 C   0  0  0  0  0  0  0  0  0  0  0  0
    2.4370   49.7650   -6.3620 C   0  0  0  0  0  0  0  0  0  0  0  0
    2.7300   48.8470   -5.3900 O   0  0  0  0  0  0  0  0  0  0  0  0
    2.9630   51.0650   -6.2740 C   0  0  0  0  0  0  0  0  0  0  0  0
    3.8250   51.3740   -5.1150 C   0  0  0  0  0  0  0  0  0  0  0  0
    5.0370   51.2700   -5.1200 O   0  0  0  0  0  0  0  0  0  0  0  0
    3.0260   51.7700   -4.0980 O   0  0  0  0  0  0  0  0  0  0  0  0
    2.5009   50.3566   -1.1272 H   0  0  0  0  0  0  0  0  0  0  0  0
    1.4662   50.5481   -2.5831 H   0  0  0  0  0  0  0  0  0  0  0  0
    2.8037   49.3489   -2.5831 H   0  0  0  0  0  0  0  0  0  0  0  0
    4.4596   50.9912   -2.7736 H   0  0  0  0  0  0  0  0  0  0  0  0
    2.5237   52.6403   -1.2446 H   0  0  0  0  0  0  0  0  0  0  0  0
    4.3509   52.6432   -1.2693 H   0  0  0  0  0  0  0  0  0  0  0  0
    3.6896   53.4377   -3.5825 H   0  0  0  0  0  0  0  0  0  0  0  0
    4.3921   55.5440   -1.0058 H   0  0  0  0  0  0  0  0  0  0  0  0
    5.4740   56.7406   -2.1446 H   0  0  0  0  0  0  0  0  0  0  0  0
    5.6540   56.7611   -4.5134 H   0  0  0  0  0  0  0  0  0  0  0  0
    4.5490   54.1196   -4.9839 H   0  0  0  0  0  0  0  0  0  0  0  0
    2.7473   56.5427   -5.6292 H   0  0  0  0  0  0  0  0  0  0  0  0
    3.3206   53.8443   -8.1900 H   0  0  0  0  0  0  0  0  0  0  0  0
    4.2103   53.3405   -6.6525 H   0  0  0  0  0  0  0  0  0  0  0  0
   -0.2280   49.4560   -9.1400 H   0  0  0  0  0  0  0  0  0  0  0  0
    1.2148   48.3776   -7.4933 H   0  0  0  0  0  0  0  0  0  0  0  0
    2.0250   48.1800   -5.3290 H   0  0  0  0  0  0  0  0  0  0  0  0
  1  2  1  0
  2  3  1  0
  3  4  1  0
  4  5  1  0
  5  6  1  0
  6  7  1  0
  7  8  2  0
  8  9  1  0
  9 10  2  0
 10 11  1  0
 11 12  2  0
 11 13  1  0
 13 14  1  0
 14 15  2  0
 15 16  1  0
 15 17  1  0
 17 18  1  0
 17 19  2  0
 19 20  1  0
 20 21  1  0
 20 22  2  0
 22 23  1  0
 23 24  2  0
 23 25  1  0
 25  2  1  0
  6  4  1  0
 22 14  1  0
  1 26  1  0
  1 27  1  0
  1 28  1  0
  2 29  1  6
  3 30  1  0
  3 31  1  0
  4 32  1  6
  6 33  1  1
  7 34  1  0
  8 35  1  0
  9 36  1  0
 10 37  1  0
 13 38  1  0
 13 39  1  0
 18 40  1  0
 19 41  1  0
 21 42  1  0
M  END
>  <meeko>  (8) 
{"is_sidechain": [false], "free_energy": -4.651, "intermolecular_energy": -7.847, "internal_energy": 0.332}

$$$$
2wer_ligand
     RDKit          3D

 42 44  0  0  0  0  0  0  0  0999 V2000
    1.7890   56.3490   -6.9120 C   0  0  0  0  0  0  0  0  0  0  0  0
    2.2970   55.3260   -5.8980 C   0  0  2  0  0  0  0  0  0  0  0  0
    3.5180   55.8510   -5.1390 C   0  0  0  0  0  0  0  0  0  0  0  0
    3.5290   55.4240   -3.7010 C   0  0  1  0  0  0  0  0  0  0  0  0
    4.7330   55.6270   -2.9570 O   0  0  0  0  0  0  0  0  0  0  0  0
    3.6430   56.5010   -2.6320 C   0  0  2  0  0  0  0  0  0  0  0  0
    2.7210   56.3470   -1.4980 C   0  0  0  0  0  0  0  0  0  0  0  0
    2.3320   55.1780   -0.9550 C   0  0  0  0  0  0  0  0  0  0  0  0
    2.7520   53.8960   -1.4780 C   0  0  0  0  0  0  0  0  0  0  0  0
    2.0400   53.1480   -2.3290 C   0  0  0  0  0  0  0  0  0  0  0  0
    2.6050   51.8150   -2.6650 C   0  0  0  0  0  0  0  0  0  0  0  0
    3.4450   51.3100   -1.9190 O   0  0  0  0  0  0  0  0  0  0  0  0
    2.1280   51.0860   -3.9100 C   0  0  0  0  0  0  0  0  0  0  0  0
    3.1230   50.9990   -5.0510 C   0  0  0  0  0  0  0  0  0  0  0  0
    4.1460   50.0260   -5.0600 C   0  0  0  0  0  0  0  0  0  0  0  0
    4.3060   48.8910   -3.7560 Cl  0  0  0  0  0  0  0  0  0  0  0  0
    5.0760   49.9730   -6.1140 C   0  0  0  0  0  0  0  0  0  0  0  0
    6.0620   49.0240   -6.0990 O   0  0  0  0  0  0  0  0  0  0  0  0
    5.0140   50.8770   -7.1710 C   0  0  0  0  0  0  0  0  0  0  0  0
    4.0190   51.8490   -7.1700 C   0  0  0  0  0  0  0  0  0  0  0  0
    3.9490   52.7420   -8.2040 O   0  0  0  0  0  0  0  0  0  0  0  0
    3.0860   51.9200   -6.1220 C   0  0  0  0  0  0  0  0  0  0  0  0
    2.0560   52.9760   -6.1990 C   0  0  0  0  0  0  0  0  0  0  0  0
    0.8790   52.8000   -5.9440 O   0  0  0  0  0  0  0  0  0  0  0  0
    2.6610   54.1170   -6.5980 O   0  0  0  0  0  0  0  0  0  0  0  0
    1.3608   57.2113   -6.3799 H   0  0  0  0  0  0  0  0  0  0  0  0
    2.6246   56.6857   -7.5432 H   0  0  0  0  0  0  0  0  0  0  0  0
    1.0157   55.8868   -7.5432 H   0  0  0  0  0  0  0  0  0  0  0  0
    1.4965   55.1303   -5.1694 H   0  0  0  0  0  0  0  0  0  0  0  0
    4.4272   55.4698   -5.6269 H   0  0  0  0  0  0  0  0  0  0  0  0
    3.4773   56.9500   -5.1606 H   0  0  0  0  0  0  0  0  0  0  0  0
    2.8519   54.5797   -3.8977 H   0  0  0  0  0  0  0  0  0  0  0  0
    3.5988   57.5934   -2.5110 H   0  0  0  0  0  0  0  0  0  0  0  0
    2.3131   57.2671   -1.0541 H   0  0  0  0  0  0  0  0  0  0  0  0
    1.6680   55.1984   -0.0783 H   0  0  0  0  0  0  0  0  0  0  0  0
    3.7283   53.5077   -1.1522 H   0  0  0  0  0  0  0  0  0  0  0  0
    1.0894   53.5001   -2.7561 H   0  0  0  0  0  0  0  0  0  0  0  0
    1.8606   50.0599   -3.6176 H   0  0  0  0  0  0  0  0  0  0  0  0
    1.2850   51.6780   -4.2959 H   0  0  0  0  0  0  0  0  0  0  0  0
    6.2060   48.6690   -6.9920 H   0  0  0  0  0  0  0  0  0  0  0  0
    5.7411   50.8234   -7.9947 H   0  0  0  0  0  0  0  0  0  0  0  0
    4.0640   52.2870   -9.0550 H   0  0  0  0  0  0  0  0  0  0  0  0
  1  2  1  0
  2  3  1  0
  3  4  1  0
  4  5  1  0
  5  6  1  0
  6  7  1  0
  7  8  2  0
  8  9  1  0
  9 10  2  0
 10 11  1  0
 11 12  2  0
 11 13  1  0
 13 14  1  0
 14 15  2  0
 15 16  1  0
 15 17  1  0
 17 18  1  0
 17 19  2  0
 19 20  1  0
 20 21  1  0
 20 22  2  0
 22 23  1  0
 23 24  2  0
 23 25  1  0
 25  2  1  0
  6  4  1  0
 22 14  1  0
  1 26  1  0
  1 27  1  0
  1 28  1  0
  2 29  1  1
  3 30  1  0
  3 31  1  0
  4 32  1  1
  6 33  1  6
  7 34  1  0
  8 35  1  0
  9 36  1  0
 10 37  1  0
 13 38  1  0
 13 39  1  0
 18 40  1  0
 19 41  1  0
 21 42  1  0
M  END
>  <meeko>  (9) 
{"is_sidechain": [false], "free_energy": -4.629, "intermolecular_energy": -8.944, "internal_energy": 1.463}

$$$$
