1w4o_ligand
     RDKit          3D

 32 33  0  0  0  0  0  0  0  0999 V2000
   34.9860   -5.7750   11.7230 O   0  0  0  0  0  0  0  0  0  0  0  0
   35.4420   -4.6390   11.7840 C   0  0  0  0  0  0  0  0  0  0  0  0
   36.7190   -4.3670   12.4530 C   0  0  0  0  0  0  0  0  0  0  0  0
   37.1600   -3.1090   12.5010 C   0  0  0  0  0  0  0  0  0  0  0  0
   36.4520   -2.0450   11.9620 N   0  0  0  0  0  0  0  0  0  0  0  0
   37.0990   -0.7130   11.9950 C   0  0  2  0  0  0  0  0  0  0  0  0
   38.4940   -0.8830   11.6580 O   0  0  0  0  0  0  0  0  0  0  0  0
   39.1570    0.3490   12.0630 C   0  0  2  0  0  0  0  0  0  0  0  0
   40.4830    0.0190   12.7460 C   0  0  0  0  0  0  0  0  0  0  0  0
   40.4170   -1.0950   13.6300 O   0  0  0  0  0  0  0  0  0  0  0  0
   38.1950    1.1080   12.9870 C   0  0  1  0  0  0  0  0  0  0  0  0
   37.5940    2.1520   12.2310 O   0  0  0  0  0  0  0  0  0  0  0  0
   37.3950    3.5520   13.0620 P   0  0  0  0  0  0  0  0  0  0  0  0
   35.9240    3.5230   13.4270 O   0  0  0  0  0  0  0  0  0  0  0  0
   38.3680    3.3970   14.2160 O   0  0  0  0  0  0  0  0  0  0  0  0
   37.7890    4.6180   12.0450 O   0  0  0  0  0  0  0  0  0  0  0  0
   37.1210    0.0900   13.3030 C   0  0  2  0  0  0  0  0  0  0  0  0
   37.4970   -0.7270   14.4290 O   0  0  0  0  0  0  0  0  0  0  0  0
   35.2680   -2.2560   11.2740 C   0  0  0  0  0  0  0  0  0  0  0  0
   34.5870   -1.3950   10.7210 O   0  0  0  0  0  0  0  0  0  0  0  0
   34.8240   -3.5550   11.2360 N   0  0  0  0  0  0  0  0  0  0  0  0
   37.3008   -5.1835   12.9056 H   0  0  0  0  0  0  0  0  0  0  0  0
   38.1253   -2.9070   12.9883 H   0  0  0  0  0  0  0  0  0  0  0  0
   36.4677   -0.1387   11.3010 H   0  0  0  0  0  0  0  0  0  0  0  0
   39.3970    0.9852   11.1983 H   0  0  0  0  0  0  0  0  0  0  0  0
   41.2280   -0.2010   11.9672 H   0  0  0  0  0  0  0  0  0  0  0  0
   40.7536    0.8937   13.3556 H   0  0  0  0  0  0  0  0  0  0  0  0
   41.1840   -1.0090   14.2860 H   0  0  0  0  0  0  0  0  0  0  0  0
   38.6830    1.5262   13.8797 H   0  0  0  0  0  0  0  0  0  0  0  0
   36.1472    0.5149   13.5877 H   0  0  0  0  0  0  0  0  0  0  0  0
   38.1260   -1.3690   14.0460 H   0  0  0  0  0  0  0  0  0  0  0  0
   33.9540   -3.7090   10.7550 H   0  0  0  0  0  0  0  0  0  0  0  0
  1  2  2  0
  2  3  1  0
  3  4  2  0
  4  5  1  0
  5  6  1  0
  6  7  1  0
  7  8  1  0
  8  9  1  0
  9 10  1  0
  8 11  1  0
 11 12  1  0
 12 13  1  0
 13 14  2  0
 13 15  1  0
 13 16  1  0
 11 17  1  0
 17 18  1  0
  5 19  1  0
 19 20  2  0
 19 21  1  0
 21  2  1  0
 17  6  1  0
  3 22  1  0
  4 23  1  0
  6 24  1  6
  8 25  1  6
  9 26  1  0
  9 27  1  0
 10 28  1  0
 11 29  1  1
 17 30  1  1
 18 31  1  0
 21 32  1  0
M  CHG  2  15  -1  16  -1
M  END
>  <meeko>  (1) 
{"is_sidechain": [false], "free_energy": -5.959, "intermolecular_energy": -7.7, "internal_energy": -0.669}

$$$$
1w4o_ligand
     RDKit          3D

 32 33  0  0  0  0  0  0  0  0999 V2000
   33.2540   -6.9300   12.7880 O   0  0  0  0  0  0  0  0  0  0  0  0
   34.1500   -6.0930   12.7900 C   0  0  0  0  0  0  0  0  0  0  0  0
   35.2770   -6.1890   13.7240 C   0  0  0  0  0  0  0  0  0  0  0  0
   36.2150   -5.2420   13.6910 C   0  0  0  0  0  0  0  0  0  0  0  0
   36.1590   -4.1590   12.8250 N   0  0  0  0  0  0  0  0  0  0  0  0
   37.3140   -3.2320   12.8210 C   0  0  2  0  0  0  0  0  0  0  0  0
   38.4510   -3.9280   13.3800 O   0  0  0  0  0  0  0  0  0  0  0  0
   39.4300   -2.8990   13.7050 C   0  0  2  0  0  0  0  0  0  0  0  0
   40.0530   -3.1940   15.0680 C   0  0  0  0  0  0  0  0  0  0  0  0
   39.1270   -3.6770   16.0360 O   0  0  0  0  0  0  0  0  0  0  0  0
   38.7060   -1.5460   13.6720 C   0  0  1  0  0  0  0  0  0  0  0  0
   39.0320   -0.9050   12.4450 O   0  0  0  0  0  0  0  0  0  0  0  0
   39.0420    0.7330   12.5280 P   0  0  0  0  0  0  0  0  0  0  0  0
   39.0680    0.9960   14.0210 O   0  0  0  0  0  0  0  0  0  0  0  0
   40.3040    1.0980   11.7690 O   0  0  0  0  0  0  0  0  0  0  0  0
   37.7480    1.1240   11.8230 O   0  0  0  0  0  0  0  0  0  0  0  0
   37.2410   -1.9220   13.6200 C   0  0  2  0  0  0  0  0  0  0  0  0
   36.7130   -2.1300   14.9440 O   0  0  0  0  0  0  0  0  0  0  0  0
   35.1430   -4.0510   11.8900 C   0  0  0  0  0  0  0  0  0  0  0  0
   35.0220   -3.1620   11.0500 O   0  0  0  0  0  0  0  0  0  0  0  0
   34.1820   -5.0300   11.9380 N   0  0  0  0  0  0  0  0  0  0  0  0
   35.3468   -7.0243   14.4363 H   0  0  0  0  0  0  0  0  0  0  0  0
   37.0693   -5.3225   14.3792 H   0  0  0  0  0  0  0  0  0  0  0  0
   37.3615   -2.9357   11.7627 H   0  0  0  0  0  0  0  0  0  0  0  0
   40.2554   -2.8789   12.9782 H   0  0  0  0  0  0  0  0  0  0  0  0
   40.8385   -3.9520   14.9325 H   0  0  0  0  0  0  0  0  0  0  0  0
   40.4457   -2.2407   15.4513 H   0  0  0  0  0  0  0  0  0  0  0  0
   39.2130   -3.0910   16.8580 H   0  0  0  0  0  0  0  0  0  0  0  0
   38.9638   -0.8905   14.5169 H   0  0  0  0  0  0  0  0  0  0  0  0
   36.5809   -1.1605   13.1792 H   0  0  0  0  0  0  0  0  0  0  0  0
   35.7620   -2.2910   14.7890 H   0  0  0  0  0  0  0  0  0  0  0  0
   33.4310   -4.9440   11.2730 H   0  0  0  0  0  0  0  0  0  0  0  0
  1  2  2  0
  2  3  1  0
  3  4  2  0
  4  5  1  0
  5  6  1  0
  6  7  1  0
  7  8  1  0
  8  9  1  0
  9 10  1  0
  8 11  1  0
 11 12  1  0
 12 13  1  0
 13 14  2  0
 13 15  1  0
 13 16  1  0
 11 17  1  0
 17 18  1  0
  5 19  1  0
 19 20  2  0
 19 21  1  0
 21  2  1  0
 17  6  1  0
  3 22  1  0
  4 23  1  0
  6 24  1  6
  8 25  1  6
  9 26  1  0
  9 27  1  0
 10 28  1  0
 11 29  1  1
 17 30  1  6
 18 31  1  0
 21 32  1  0
M  CHG  2  15  -1  16  -1
M  END
>  <meeko>  (2) 
{"is_sidechain": [false], "free_energy": -5.822, "intermolecular_energy": -7.328, "internal_energy": -0.865}

$$$$
1w4o_ligand
     RDKit          3D

 32 33  0  0  0  0  0  0  0  0999 V2000
   42.4510    2.9450   10.2690 O   0  0  0  0  0  0  0  0  0  0  0  0
   42.1210    3.8670    9.5310 C   0  0  0  0  0  0  0  0  0  0  0  0
   42.5060    3.8840    8.1160 C   0  0  0  0  0  0  0  0  0  0  0  0
   42.1310    4.9200    7.3640 C   0  0  0  0  0  0  0  0  0  0  0  0
   41.4090    5.9920    7.8700 N   0  0  0  0  0  0  0  0  0  0  0  0
   40.9700    7.0290    6.9090 C   0  0  2  0  0  0  0  0  0  0  0  0
   41.2320    6.5430    5.5730 O   0  0  0  0  0  0  0  0  0  0  0  0
   41.1480    7.7060    4.7000 C   0  0  2  0  0  0  0  0  0  0  0  0
   42.2860    7.6700    3.6820 C   0  0  0  0  0  0  0  0  0  0  0  0
   42.6380    6.3570    3.2540 O   0  0  0  0  0  0  0  0  0  0  0  0
   41.1970    8.9560    5.5900 C   0  0  1  0  0  0  0  0  0  0  0  0
   39.8720    9.4550    5.7180 O   0  0  0  0  0  0  0  0  0  0  0  0
   39.6980   11.0180    5.2540 P   0  0  0  0  0  0  0  0  0  0  0  0
   39.4050   11.7290    6.5610 O   0  0  0  0  0  0  0  0  0  0  0  0
   41.0390   11.3290    4.6160 O   0  0  0  0  0  0  0  0  0  0  0  0
   38.5320   10.9610    4.2720 O   0  0  0  0  0  0  0  0  0  0  0  0
   41.6210    8.4200    6.9400 C   0  0  2  0  0  0  0  0  0  0  0  0
   43.0560    8.3390    7.0390 O   0  0  0  0  0  0  0  0  0  0  0  0
   40.9770    5.9980    9.1860 C   0  0  0  0  0  0  0  0  0  0  0  0
   40.2960    6.8700    9.7220 O   0  0  0  0  0  0  0  0  0  0  0  0
   41.3740    4.9270    9.9490 N   0  0  0  0  0  0  0  0  0  0  0  0
   43.0919    3.0595    7.6837 H   0  0  0  0  0  0  0  0  0  0  0  0
   42.4053    4.9249    6.2988 H   0  0  0  0  0  0  0  0  0  0  0  0
   39.9217    7.1815    7.2053 H   0  0  0  0  0  0  0  0  0  0  0  0
   40.2106    7.7148    4.1244 H   0  0  0  0  0  0  0  0  0  0  0  0
   41.9797    8.2512    2.7997 H   0  0  0  0  0  0  0  0  0  0  0  0
   43.1720    8.0915    4.1793 H   0  0  0  0  0  0  0  0  0  0  0  0
   42.2410    5.7040    3.9190 H   0  0  0  0  0  0  0  0  0  0  0  0
   41.8572    9.7453    5.2013 H   0  0  0  0  0  0  0  0  0  0  0  0
   41.3235    9.0388    7.7994 H   0  0  0  0  0  0  0  0  0  0  0  0
   43.3540    8.4130    6.1120 H   0  0  0  0  0  0  0  0  0  0  0  0
   41.0790    4.9380   10.9110 H   0  0  0  0  0  0  0  0  0  0  0  0
  1  2  2  0
  2  3  1  0
  3  4  2  0
  4  5  1  0
  5  6  1  0
  6  7  1  0
  7  8  1  0
  8  9  1  0
  9 10  1  0
  8 11  1  0
 11 12  1  0
 12 13  1  0
 13 14  2  0
 13 15  1  0
 13 16  1  0
 11 17  1  0
 17 18  1  0
  5 19  1  0
 19 20  2  0
 19 21  1  0
 21  2  1  0
 17  6  1  0
  3 22  1  0
  4 23  1  0
  6 24  1  6
  8 25  1  6
  9 26  1  0
  9 27  1  0
 10 28  1  0
 11 29  1  6
 17 30  1  1
 18 31  1  0
 21 32  1  0
M  CHG  2  15  -1  16  -1
M  END
>  <meeko>  (3) 
{"is_sidechain": [false], "free_energy": -5.785, "intermolecular_energy": -7.502, "internal_energy": -0.643}

$$$$
1w4o_ligand
     RDKit          3D

 32 33  0  0  0  0  0  0  0  0999 V2000
   36.7270    0.8900   11.0170 O   0  0  0  0  0  0  0  0  0  0  0  0
   36.6500   -0.3220   11.1870 C   0  0  0  0  0  0  0  0  0  0  0  0
   35.3800   -1.0350   11.0100 C   0  0  0  0  0  0  0  0  0  0  0  0
   35.3530   -2.3520   11.2230 C   0  0  0  0  0  0  0  0  0  0  0  0
   36.4700   -3.0710   11.6240 N   0  0  0  0  0  0  0  0  0  0  0  0
   36.3290   -4.5420   11.7290 C   0  0  2  0  0  0  0  0  0  0  0  0
   34.9960   -4.8970   11.2990 O   0  0  0  0  0  0  0  0  0  0  0  0
   34.7740   -6.2590   11.7650 C   0  0  2  0  0  0  0  0  0  0  0  0
   33.3640   -6.3830   12.3400 C   0  0  0  0  0  0  0  0  0  0  0  0
   32.3300   -6.2560   11.3690 O   0  0  0  0  0  0  0  0  0  0  0  0
   35.8600   -6.5740   12.8030 C   0  0  1  0  0  0  0  0  0  0  0  0
   36.8490   -7.3780   12.1720 O   0  0  0  0  0  0  0  0  0  0  0  0
   37.0130   -8.8730   12.8250 P   0  0  0  0  0  0  0  0  0  0  0  0
   38.3850   -9.3040   12.3430 O   0  0  0  0  0  0  0  0  0  0  0  0
   36.8890   -8.6030   14.3130 O   0  0  0  0  0  0  0  0  0  0  0  0
   35.8430   -9.6450   12.2250 O   0  0  0  0  0  0  0  0  0  0  0  0
   36.4800   -5.2250   13.0960 C   0  0  2  0  0  0  0  0  0  0  0  0
   35.7500   -4.5310   14.1260 O   0  0  0  0  0  0  0  0  0  0  0  0
   37.7030   -2.4530   11.7530 C   0  0  0  0  0  0  0  0  0  0  0  0
   38.7610   -3.0000   12.0560 O   0  0  0  0  0  0  0  0  0  0  0  0
   37.7160   -1.0970   11.5360 N   0  0  0  0  0  0  0  0  0  0  0  0
   34.4700   -0.4957   10.7083 H   0  0  0  0  0  0  0  0  0  0  0  0
   34.4053   -2.8904   11.0744 H   0  0  0  0  0  0  0  0  0  0  0  0
   37.1766   -4.8936   11.1224 H   0  0  0  0  0  0  0  0  0  0  0  0
   34.8446   -6.9867   10.9431 H   0  0  0  0  0  0  0  0  0  0  0  0
   33.2707   -7.3694   12.8179 H   0  0  0  0  0  0  0  0  0  0  0  0
   33.2362   -5.5541   13.0518 H   0  0  0  0  0  0  0  0  0  0  0  0
   31.6190   -5.6490   11.7590 H   0  0  0  0  0  0  0  0  0  0  0  0
   35.4762   -7.0869   13.6972 H   0  0  0  0  0  0  0  0  0  0  0  0
   37.5133   -5.2607   13.4716 H   0  0  0  0  0  0  0  0  0  0  0  0
   34.8790   -4.3640   13.7170 H   0  0  0  0  0  0  0  0  0  0  0  0
   38.6050   -0.6410   11.6490 H   0  0  0  0  0  0  0  0  0  0  0  0
  1  2  2  0
  2  3  1  0
  3  4  2  0
  4  5  1  0
  5  6  1  0
  6  7  1  0
  7  8  1  0
  8  9  1  0
  9 10  1  0
  8 11  1  0
 11 12  1  0
 12 13  1  0
 13 14  2  0
 13 15  1  0
 13 16  1  0
 11 17  1  0
 17 18  1  0
  5 19  1  0
 19 20  2  0
 19 21  1  0
 21  2  1  0
 17  6  1  0
  3 22  1  0
  4 23  1  0
  6 24  1  6
  8 25  1  6
  9 26  1  0
  9 27  1  0
 10 28  1  0
 11 29  1  1
 17 30  1  1
 18 31  1  0
 21 32  1  0
M  CHG  2  15  -1  16  -1
M  END
>  <meeko>  (4) 
{"is_sidechain": [false], "free_energy": -5.733, "intermolecular_energy": -7.496, "internal_energy": -0.583}

$$$$
1w4o_ligand
     RDKit          3D

 32 33  0  0  0  0  0  0  0  0999 V2000
   42.1090    7.7200    3.0300 O   0  0  0  0  0  0  0  0  0  0  0  0
   42.0760    7.0870    4.0800 C   0  0  0  0  0  0  0  0  0  0  0  0
   41.3560    7.5970    5.2520 C   0  0  0  0  0  0  0  0  0  0  0  0
   41.3660    6.8730    6.3720 C   0  0  0  0  0  0  0  0  0  0  0  0
   42.0450    5.6680    6.4810 N   0  0  0  0  0  0  0  0  0  0  0  0
   41.8930    4.9150    7.7470 C   0  0  2  0  0  0  0  0  0  0  0  0
   40.7630    5.4620    8.4630 O   0  0  0  0  0  0  0  0  0  0  0  0
   40.8780    4.9700    9.8290 C   0  0  2  0  0  0  0  0  0  0  0  0
   40.5620    6.0980   10.8100 C   0  0  0  0  0  0  0  0  0  0  0  0
   41.3790    7.2530   10.6460 O   0  0  0  0  0  0  0  0  0  0  0  0
   42.3020    4.4230   10.0040 C   0  0  1  0  0  0  0  0  0  0  0  0
   42.2380    3.0040    9.9250 O   0  0  0  0  0  0  0  0  0  0  0  0
   42.3280    2.2470   11.3760 P   0  0  0  0  0  0  0  0  0  0  0  0
   40.8820    1.8950   11.6640 O   0  0  0  0  0  0  0  0  0  0  0  0
   43.2510    1.0780   11.0860 O   0  0  0  0  0  0  0  0  0  0  0  0
   42.9290    3.3130   12.2870 O   0  0  0  0  0  0  0  0  0  0  0  0
   43.0330    4.9210    8.7760 C   0  0  2  0  0  0  0  0  0  0  0  0
   43.5570    6.2460    8.9890 O   0  0  0  0  0  0  0  0  0  0  0  0
   42.6950    5.1190    5.3880 C   0  0  0  0  0  0  0  0  0  0  0  0
   43.2850    4.0410    5.3600 O   0  0  0  0  0  0  0  0  0  0  0  0
   42.6810    5.8770    4.2420 N   0  0  0  0  0  0  0  0  0  0  0  0
   40.8193    8.5562    5.2080 H   0  0  0  0  0  0  0  0  0  0  0  0
   40.8127    7.2469    7.2461 H   0  0  0  0  0  0  0  0  0  0  0  0
   41.8196    3.8786    7.3858 H   0  0  0  0  0  0  0  0  0  0  0  0
   40.1587    4.1631   10.0329 H   0  0  0  0  0  0  0  0  0  0  0  0
   39.5119    6.3942   10.6702 H   0  0  0  0  0  0  0  0  0  0  0  0
   40.7607    5.7078   11.8191 H   0  0  0  0  0  0  0  0  0  0  0  0
   41.9360    7.3540   11.4860 H   0  0  0  0  0  0  0  0  0  0  0  0
   42.7743    4.7242   10.9507 H   0  0  0  0  0  0  0  0  0  0  0  0
   43.9091    4.3244    8.4819 H   0  0  0  0  0  0  0  0  0  0  0  0
   43.8000    6.5430    8.0900 H   0  0  0  0  0  0  0  0  0  0  0  0
   43.1690    5.4910    3.4520 H   0  0  0  0  0  0  0  0  0  0  0  0
  1  2  2  0
  2  3  1  0
  3  4  2  0
  4  5  1  0
  5  6  1  0
  6  7  1  0
  7  8  1  0
  8  9  1  0
  9 10  1  0
  8 11  1  0
 11 12  1  0
 12 13  1  0
 13 14  2  0
 13 15  1  0
 13 16  1  0
 11 17  1  0
 17 18  1  0
  5 19  1  0
 19 20  2  0
 19 21  1  0
 21  2  1  0
 17  6  1  0
  3 22  1  0
  4 23  1  0
  6 24  1  6
  8 25  1  6
  9 26  1  0
  9 27  1  0
 10 28  1  0
 11 29  1  1
 17 30  1  6
 18 31  1  0
 21 32  1  0
M  CHG  2  15  -1  16  -1
M  END
>  <meeko>  (5) 
{"is_sidechain": [false], "free_energy": -5.723, "intermolecular_energy": -7.172, "internal_energy": -0.893}

$$$$
1w4o_ligand
     RDKit          3D

 32 33  0  0  0  0  0  0  0  0999 V2000
   41.7190    3.1300   12.0870 O   0  0  0  0  0  0  0  0  0  0  0  0
   41.5630    3.7960   11.0700 C   0  0  0  0  0  0  0  0  0  0  0  0
   40.5600    4.8650   11.0080 C   0  0  0  0  0  0  0  0  0  0  0  0
   40.4240    5.5470    9.8700 C   0  0  0  0  0  0  0  0  0  0  0  0
   41.1780    5.2760    8.7370 N   0  0  0  0  0  0  0  0  0  0  0  0
   41.0000    6.1720    7.5710 C   0  0  2  0  0  0  0  0  0  0  0  0
   41.3700    5.4390    6.3810 O   0  0  0  0  0  0  0  0  0  0  0  0
   41.5440    6.4370    5.3350 C   0  0  2  0  0  0  0  0  0  0  0  0
   42.7910    6.1100    4.5150 C   0  0  0  0  0  0  0  0  0  0  0  0
   42.6780    6.4410    3.1340 O   0  0  0  0  0  0  0  0  0  0  0  0
   41.6340    7.8100    6.0170 C   0  0  1  0  0  0  0  0  0  0  0  0
   40.3760    8.4560    5.8680 O   0  0  0  0  0  0  0  0  0  0  0  0
   40.4810   10.0330    5.4320 P   0  0  0  0  0  0  0  0  0  0  0  0
   40.9920   10.7000    6.6950 O   0  0  0  0  0  0  0  0  0  0  0  0
   41.4500    9.9940    4.2650 O   0  0  0  0  0  0  0  0  0  0  0  0
   39.0470   10.3840    5.0490 O   0  0  0  0  0  0  0  0  0  0  0  0
   41.8090    7.4730    7.4820 C   0  0  2  0  0  0  0  0  0  0  0  0
   43.1980    7.2650    7.8030 O   0  0  0  0  0  0  0  0  0  0  0  0
   42.1730    4.3120    8.7610 C   0  0  0  0  0  0  0  0  0  0  0  0
   42.9260    4.0230    7.8340 O   0  0  0  0  0  0  0  0  0  0  0  0
   42.2990    3.6140    9.9370 N   0  0  0  0  0  0  0  0  0  0  0  0
   39.9336    5.0990   11.8814 H   0  0  0  0  0  0  0  0  0  0  0  0
   39.6828    6.3587    9.8277 H   0  0  0  0  0  0  0  0  0  0  0  0
   39.9494    6.4792    7.6802 H   0  0  0  0  0  0  0  0  0  0  0  0
   40.6969    6.4430    4.6332 H   0  0  0  0  0  0  0  0  0  0  0  0
   43.6391    6.6693    4.9367 H   0  0  0  0  0  0  0  0  0  0  0  0
   42.9330    5.0207    4.5712 H   0  0  0  0  0  0  0  0  0  0  0  0
   42.6730    7.4510    3.0630 H   0  0  0  0  0  0  0  0  0  0  0  0
   42.4326    8.4492    5.6126 H   0  0  0  0  0  0  0  0  0  0  0  0
   41.4819    8.2563    8.1816 H   0  0  0  0  0  0  0  0  0  0  0  0
   43.6650    7.5430    6.9910 H   0  0  0  0  0  0  0  0  0  0  0  0
   43.0070    2.8990    9.9520 H   0  0  0  0  0  0  0  0  0  0  0  0
  1  2  2  0
  2  3  1  0
  3  4  2  0
  4  5  1  0
  5  6  1  0
  6  7  1  0
  7  8  1  0
  8  9  1  0
  9 10  1  0
  8 11  1  0
 11 12  1  0
 12 13  1  0
 13 14  2  0
 13 15  1  0
 13 16  1  0
 11 17  1  0
 17 18  1  0
  5 19  1  0
 19 20  2  0
 19 21  1  0
 21  2  1  0
 17  6  1  0
  3 22  1  0
  4 23  1  0
  6 24  1  6
  8 25  1  6
  9 26  1  0
  9 27  1  0
 10 28  1  0
 11 29  1  6
 17 30  1  1
 18 31  1  0
 21 32  1  0
M  CHG  2  15  -1  16  -1
M  END
>  <meeko>  (6) 
{"is_sidechain": [false], "free_energy": -5.649, "intermolecular_energy": -7.899, "internal_energy": -0.071}

$$$$
1w4o_ligand
     RDKit          3D

 32 33  0  0  0  0  0  0  0  0999 V2000
   42.7920    6.7250    3.1680 O   0  0  0  0  0  0  0  0  0  0  0  0
   42.5340    6.6620    4.3650 C   0  0  0  0  0  0  0  0  0  0  0  0
   41.2530    7.1450    4.8930 C   0  0  0  0  0  0  0  0  0  0  0  0
   41.0340    7.0650    6.2060 C   0  0  0  0  0  0  0  0  0  0  0  0
   41.9730    6.5620    7.0950 N   0  0  0  0  0  0  0  0  0  0  0  0
   41.5660    6.4360    8.5140 C   0  0  2  0  0  0  0  0  0  0  0  0
   42.6990    6.7900    9.3390 O   0  0  0  0  0  0  0  0  0  0  0  0
   42.3900    6.3000   10.6750 C   0  0  2  0  0  0  0  0  0  0  0  0
   43.6320    5.6490   11.2830 C   0  0  0  0  0  0  0  0  0  0  0  0
   44.3840    4.8650   10.3630 O   0  0  0  0  0  0  0  0  0  0  0  0
   41.2170    5.3180   10.5460 C   0  0  1  0  0  0  0  0  0  0  0  0
   40.0350    5.9930   10.9570 O   0  0  0  0  0  0  0  0  0  0  0  0
   39.3540    5.3850   12.3190 P   0  0  0  0  0  0  0  0  0  0  0  0
   40.3280    4.2950   12.7250 O   0  0  0  0  0  0  0  0  0  0  0  0
   39.2940    6.5950   13.2320 O   0  0  0  0  0  0  0  0  0  0  0  0
   37.9940    4.8910   11.8370 O   0  0  0  0  0  0  0  0  0  0  0  0
   41.1150    5.0720    9.0570 C   0  0  2  0  0  0  0  0  0  0  0  0
   41.9980    4.0110    8.6450 O   0  0  0  0  0  0  0  0  0  0  0  0
   43.1750    6.0460    6.6400 C   0  0  0  0  0  0  0  0  0  0  0  0
   44.0550    5.5370    7.3320 O   0  0  0  0  0  0  0  0  0  0  0  0
   43.3900    6.1390    5.2870 N   0  0  0  0  0  0  0  0  0  0  0  0
   40.4900    7.5639    4.2205 H   0  0  0  0  0  0  0  0  0  0  0  0
   40.0680    7.4125    6.6010 H   0  0  0  0  0  0  0  0  0  0  0  0
   40.6780    7.0841    8.5529 H   0  0  0  0  0  0  0  0  0  0  0  0
   42.0979    7.1168   11.3513 H   0  0  0  0  0  0  0  0  0  0  0  0
   44.2838    6.4447   11.6730 H   0  0  0  0  0  0  0  0  0  0  0  0
   43.2802    4.9658   12.0701 H   0  0  0  0  0  0  0  0  0  0  0  0
   44.0840    5.1200    9.4300 H   0  0  0  0  0  0  0  0  0  0  0  0
   41.3470    4.3990   11.1363 H   0  0  0  0  0  0  0  0  0  0  0  0
   40.1229    4.7520    8.7058 H   0  0  0  0  0  0  0  0  0  0  0  0
   41.3910    3.2730    8.4430 H   0  0  0  0  0  0  0  0  0  0  0  0
   44.2710    5.7840    4.9550 H   0  0  0  0  0  0  0  0  0  0  0  0
  1  2  2  0
  2  3  1  0
  3  4  2  0
  4  5  1  0
  5  6  1  0
  6  7  1  0
  7  8  1  0
  8  9  1  0
  9 10  1  0
  8 11  1  0
 11 12  1  0
 12 13  1  0
 13 14  2  0
 13 15  1  0
 13 16  1  0
 11 17  1  0
 17 18  1  0
  5 19  1  0
 19 20  2  0
 19 21  1  0
 21  2  1  0
 17  6  1  0
  3 22  1  0
  4 23  1  0
  6 24  1  6
  8 25  1  1
  9 26  1  0
  9 27  1  0
 10 28  1  0
 11 29  1  1
 17 30  1  1
 18 31  1  0
 21 32  1  0
M  CHG  2  15  -1  16  -1
M  END
>  <meeko>  (7) 
{"is_sidechain": [false], "free_energy": -5.623, "intermolecular_energy": -7.231, "internal_energy": -0.706}

$$$$
1w4o_ligand
     RDKit          3D

 32 33  0  0  0  0  0  0  0  0999 V2000
   34.6370   -5.3720   11.4610 O   0  0  0  0  0  0  0  0  0  0  0  0
   35.3100   -4.3920   11.7570 C   0  0  0  0  0  0  0  0  0  0  0  0
   36.6390   -4.5360   12.3610 C   0  0  0  0  0  0  0  0  0  0  0  0
   37.3210   -3.4340   12.6750 C   0  0  0  0  0  0  0  0  0  0  0  0
   36.8180   -2.1570   12.4730 N   0  0  0  0  0  0  0  0  0  0  0  0
   37.7150   -1.0180   12.7730 C   0  0  2  0  0  0  0  0  0  0  0  0
   36.9610   -0.0360   13.5190 O   0  0  0  0  0  0  0  0  0  0  0  0
   37.7390    1.1940   13.4630 C   0  0  2  0  0  0  0  0  0  0  0  0
   36.8100    2.3800   13.2110 C   0  0  0  0  0  0  0  0  0  0  0  0
   35.4520    2.1370   13.5660 O   0  0  0  0  0  0  0  0  0  0  0  0
   38.7890    1.0260   12.3560 C   0  0  1  0  0  0  0  0  0  0  0  0
   40.0360    0.7380   12.9750 O   0  0  0  0  0  0  0  0  0  0  0  0
   41.2870    1.6380   12.4130 P   0  0  0  0  0  0  0  0  0  0  0  0
   42.2650    1.6180   13.5710 O   0  0  0  0  0  0  0  0  0  0  0  0
   41.7140    0.8780   11.1710 O   0  0  0  0  0  0  0  0  0  0  0  0
   40.6420    2.9920   12.1330 O   0  0  0  0  0  0  0  0  0  0  0  0
   38.3410   -0.2180   11.6200 C   0  0  2  0  0  0  0  0  0  0  0  0
   37.3730    0.1030   10.6020 O   0  0  0  0  0  0  0  0  0  0  0  0
   35.5910   -1.9670   11.8590 C   0  0  0  0  0  0  0  0  0  0  0  0
   35.0730   -0.8850   11.5910 O   0  0  0  0  0  0  0  0  0  0  0  0
   34.8980   -3.1100   11.5440 N   0  0  0  0  0  0  0  0  0  0  0  0
   37.0642   -5.5325   12.5510 H   0  0  0  0  0  0  0  0  0  0  0  0
   38.3244   -3.5420   13.1125 H   0  0  0  0  0  0  0  0  0  0  0  0
   38.5524   -1.5188   13.2810 H   0  0  0  0  0  0  0  0  0  0  0  0
   38.2535    1.3933   14.4146 H   0  0  0  0  0  0  0  0  0  0  0  0
   37.1737    3.2355   13.7991 H   0  0  0  0  0  0  0  0  0  0  0  0
   36.8266    2.5732   12.1282 H   0  0  0  0  0  0  0  0  0  0  0  0
   35.4530    1.6310   14.4440 H   0  0  0  0  0  0  0  0  0  0  0  0
   38.8884    1.9098   11.7087 H   0  0  0  0  0  0  0  0  0  0  0  0
   39.1376   -0.7513   11.0806 H   0  0  0  0  0  0  0  0  0  0  0  0
   37.9130    0.1940    9.7940 H   0  0  0  0  0  0  0  0  0  0  0  0
   33.9970   -2.9760   11.1160 H   0  0  0  0  0  0  0  0  0  0  0  0
  1  2  2  0
  2  3  1  0
  3  4  2  0
  4  5  1  0
  5  6  1  0
  6  7  1  0
  7  8  1  0
  8  9  1  0
  9 10  1  0
  8 11  1  0
 11 12  1  0
 12 13  1  0
 13 14  2  0
 13 15  1  0
 13 16  1  0
 11 17  1  0
 17 18  1  0
  5 19  1  0
 19 20  2  0
 19 21  1  0
 21  2  1  0
 17  6  1  0
  3 22  1  0
  4 23  1  0
  6 24  1  1
  8 25  1  1
  9 26  1  0
  9 27  1  0
 10 28  1  0
 11 29  1  6
 17 30  1  6
 18 31  1  0
 21 32  1  0
M  CHG  2  15  -1  16  -1
M  END
>  <meeko>  (8) 
{"is_sidechain": [false], "free_energy": -5.469, "intermolecular_energy": -7.519, "internal_energy": -0.217}

$$$$
1w4o_ligand
     RDKit          3D

 32 33  0  0  0  0  0  0  0  0999 V2000
   33.3620   -8.1560   13.6870 O   0  0  0  0  0  0  0  0  0  0  0  0
   34.1290   -7.2360   13.4250 C   0  0  0  0  0  0  0  0  0  0  0  0
   33.7350   -6.1520   12.5190 C   0  0  0  0  0  0  0  0  0  0  0  0
   34.6160   -5.1840   12.2600 C   0  0  0  0  0  0  0  0  0  0  0  0
   35.8960   -5.1710   12.7950 N   0  0  0  0  0  0  0  0  0  0  0  0
   36.7400   -3.9890   12.5070 C   0  0  2  0  0  0  0  0  0  0  0  0
   38.0970   -4.4450   12.3090 O   0  0  0  0  0  0  0  0  0  0  0  0
   38.9360   -3.2580   12.4070 C   0  0  2  0  0  0  0  0  0  0  0  0
   40.1850   -3.5780   13.2280 C   0  0  0  0  0  0  0  0  0  0  0  0
   39.9440   -4.4380   14.3370 O   0  0  0  0  0  0  0  0  0  0  0  0
   38.0890   -2.1450   13.0380 C   0  0  1  0  0  0  0  0  0  0  0  0
   37.6690   -1.2710   11.9970 O   0  0  0  0  0  0  0  0  0  0  0  0
   37.9230    0.3180   12.3130 P   0  0  0  0  0  0  0  0  0  0  0  0
   36.8380    1.0010   11.5030 O   0  0  0  0  0  0  0  0  0  0  0  0
   37.7680    0.3880   13.8200 O   0  0  0  0  0  0  0  0  0  0  0  0
   39.3450    0.5490   11.8140 O   0  0  0  0  0  0  0  0  0  0  0  0
   36.8650   -2.8710   13.5520 C   0  0  2  0  0  0  0  0  0  0  0  0
   37.0920   -3.3950   14.8750 O   0  0  0  0  0  0  0  0  0  0  0  0
   36.2970   -6.1430   13.6960 C   0  0  0  0  0  0  0  0  0  0  0  0
   37.3860   -6.2020   14.2630 O   0  0  0  0  0  0  0  0  0  0  0  0
   35.3830   -7.1350   13.9510 N   0  0  0  0  0  0  0  0  0  0  0  0
   32.7342   -6.1374   12.0626 H   0  0  0  0  0  0  0  0  0  0  0  0
   34.3148   -4.3617   11.5943 H   0  0  0  0  0  0  0  0  0  0  0  0
   36.2167   -3.5409   11.6495 H   0  0  0  0  0  0  0  0  0  0  0  0
   39.2845   -2.9230   11.4189 H   0  0  0  0  0  0  0  0  0  0  0  0
   40.9186   -4.0629   12.5671 H   0  0  0  0  0  0  0  0  0  0  0  0
   40.5496   -2.6245   13.6378 H   0  0  0  0  0  0  0  0  0  0  0  0
   38.9400   -4.5080   14.4550 H   0  0  0  0  0  0  0  0  0  0  0  0
   38.6219   -1.5748   13.8132 H   0  0  0  0  0  0  0  0  0  0  0  0
   35.9643   -2.2482   13.6560 H   0  0  0  0  0  0  0  0  0  0  0  0
   37.7830   -2.8080   15.2390 H   0  0  0  0  0  0  0  0  0  0  0  0
   35.6780   -7.8540   14.5890 H   0  0  0  0  0  0  0  0  0  0  0  0
  1  2  2  0
  2  3  1  0
  3  4  2  0
  4  5  1  0
  5  6  1  0
  6  7  1  0
  7  8  1  0
  8  9  1  0
  9 10  1  0
  8 11  1  0
 11 12  1  0
 12 13  1  0
 13 14  2  0
 13 15  1  0
 13 16  1  0
 11 17  1  0
 17 18  1  0
  5 19  1  0
 19 20  2  0
 19 21  1  0
 21  2  1  0
 17  6  1  0
  3 22  1  0
  4 23  1  0
  6 24  1  6
  8 25  1  6
  9 26  1  0
  9 27  1  0
 10 28  1  0
 11 29  1  1
 17 30  1  1
 18 31  1  0
 21 32  1  0
M  CHG  2  15  -1  16  -1
M  END
>  <meeko>  (9) 
{"is_sidechain": [false], "free_energy": -5.406, "intermolecular_energy": -7.003, "internal_energy": -0.652}

$$$$
