3ejr_ligand
     RDKit          3D

 55 57  0  0  0  0  0  0  0  0999 V2000
   49.6070   72.8470  -25.3860 C   0  0  0  0  0  0  0  0  0  0  0  0
   48.3780   72.3130  -24.6160 C   0  0  0  0  0  0  0  0  0  0  0  0
   48.9030   71.6400  -23.3300 C   0  0  0  0  0  0  0  0  0  0  0  0
   47.5130   73.5340  -24.2340 C   0  0  0  0  0  0  0  0  0  0  0  0
   47.5300   71.3080  -25.4180 C   0  0  0  0  0  0  0  0  0  0  0  0
   47.1440   71.5290  -26.7500 C   0  0  0  0  0  0  0  0  0  0  0  0
   46.3720   70.5950  -27.4550 C   0  0  0  0  0  0  0  0  0  0  0  0
   45.9610   69.4110  -26.8400 C   0  0  0  0  0  0  0  0  0  0  0  0
   45.1390   68.3830  -27.5420 C   0  0  0  0  0  0  0  0  0  0  0  0
   43.9440   68.2660  -27.2770 O   0  0  0  0  0  0  0  0  0  0  0  0
   45.7970   67.4730  -28.5620 C   0  0  0  0  0  0  0  0  0  0  0  0
   45.9520   68.2090  -29.9020 C   0  0  1  0  0  0  0  0  0  0  0  0
   47.3080   67.9180  -30.5960 C   0  0  0  0  0  0  0  0  0  0  0  0
   47.2210   67.0960  -31.8980 C   0  0  0  0  0  0  0  0  0  0  0  0
   46.2240   65.9390  -31.7910 C   0  0  1  0  0  0  0  0  0  0  0  0
   46.7290   65.0470  -30.7850 O   0  0  0  0  0  0  0  0  0  0  0  0
   44.8260   66.3950  -31.3320 C   0  0  2  0  0  0  0  0  0  0  0  0
   43.7450   66.5340  -32.3990 C   0  0  2  0  0  0  0  0  0  0  0  0
   44.2640   67.3330  -33.4750 O   0  0  0  0  0  0  0  0  0  0  0  0
   42.6530   67.3430  -31.6610 C   0  0  2  0  0  0  0  0  0  0  0  0
   41.9400   68.1140  -32.6260 O   0  0  0  0  0  0  0  0  0  0  0  0
   43.4290   68.2280  -30.6500 C   0  0  0  0  0  0  0  0  0  0  0  0
   44.8690   67.8500  -30.8750 N   0  0  1  0  0  0  0  0  0  0  0  0
   46.3380   69.1700  -25.5150 C   0  0  0  0  0  0  0  0  0  0  0  0
   47.1090   70.1060  -24.8180 C   0  0  0  0  0  0  0  0  0  0  0  0
   50.3725   73.1796  -24.6695 H   0  0  0  0  0  0  0  0  0  0  0  0
   50.0195   72.0470  -26.0183 H   0  0  0  0  0  0  0  0  0  0  0  0
   49.3037   73.6945  -26.0183 H   0  0  0  0  0  0  0  0  0  0  0  0
   48.4962   72.1614  -22.4510 H   0  0  0  0  0  0  0  0  0  0  0  0
   48.5853   70.5870  -23.3113 H   0  0  0  0  0  0  0  0  0  0  0  0
   50.0016   71.6919  -23.3113 H   0  0  0  0  0  0  0  0  0  0  0  0
   47.4559   73.6146  -23.1384 H   0  0  0  0  0  0  0  0  0  0  0  0
   47.9664   74.4478  -24.6457 H   0  0  0  0  0  0  0  0  0  0  0  0
   46.5006   73.4094  -24.6457 H   0  0  0  0  0  0  0  0  0  0  0  0
   47.4548   72.4570  -27.2521 H   0  0  0  0  0  0  0  0  0  0  0  0
   46.0885   70.7962  -28.4986 H   0  0  0  0  0  0  0  0  0  0  0  0
   46.7894   67.1722  -28.1949 H   0  0  0  0  0  0  0  0  0  0  0  0
   45.1678   66.5829  -28.7101 H   0  0  0  0  0  0  0  0  0  0  0  0
   45.8917   69.2751  -29.6380 H   0  0  0  0  0  0  0  0  0  0  0  0
   47.7813   68.8820  -30.8341 H   0  0  0  0  0  0  0  0  0  0  0  0
   47.8856   67.3052  -29.8883 H   0  0  0  0  0  0  0  0  0  0  0  0
   46.9046   67.7608  -32.7152 H   0  0  0  0  0  0  0  0  0  0  0  0
   48.2150   66.6661  -32.0908 H   0  0  0  0  0  0  0  0  0  0  0  0
   46.1220   65.4782  -32.7846 H   0  0  0  0  0  0  0  0  0  0  0  0
   47.6870   64.9310  -30.9440 H   0  0  0  0  0  0  0  0  0  0  0  0
   44.5879   65.6094  -30.5997 H   0  0  0  0  0  0  0  0  0  0  0  0
   43.3929   65.5778  -32.8133 H   0  0  0  0  0  0  0  0  0  0  0  0
   43.6190   68.0680  -33.5910 H   0  0  0  0  0  0  0  0  0  0  0  0
   41.9111   66.7255  -31.1334 H   0  0  0  0  0  0  0  0  0  0  0  0
   41.1300   67.6310  -32.8850 H   0  0  0  0  0  0  0  0  0  0  0  0
   43.2668   69.2958  -30.8585 H   0  0  0  0  0  0  0  0  0  0  0  0
   43.1050   68.0713  -29.6105 H   0  0  0  0  0  0  0  0  0  0  0  0
   45.0980   68.3700  -31.7450 H   0  0  0  0  0  0  0  0  0  0  0  0
   46.0265   68.2393  -25.0183 H   0  0  0  0  0  0  0  0  0  0  0  0
   47.3933   69.8979  -23.7759 H   0  0  0  0  0  0  0  0  0  0  0  0
  1  2  1  0
  2  3  1  0
  2  4  1  0
  2  5  1  0
  5  6  2  0
  6  7  1  0
  7  8  2  0
  8  9  1  0
  9 10  2  0
  9 11  1  0
 11 12  1  0
 12 13  1  0
 13 14  1  0
 14 15  1  0
 15 16  1  0
 15 17  1  0
 17 18  1  0
 18 19  1  0
 18 20  1  0
 20 21  1  0
 20 22  1  0
 22 23  1  0
  8 24  1  0
 24 25  2  0
 25  5  1  0
 23 12  1  0
 23 17  1  0
  1 26  1  0
  1 27  1  0
  1 28  1  0
  3 29  1  0
  3 30  1  0
  3 31  1  0
  4 32  1  0
  4 33  1  0
  4 34  1  0
  6 35  1  0
  7 36  1  0
 11 37  1  0
 11 38  1  0
 12 39  1  1
 13 40  1  0
 13 41  1  0
 14 42  1  0
 14 43  1  0
 15 44  1  6
 16 45  1  0
 17 46  1  1
 18 47  1  6
 19 48  1  0
 20 49  1  1
 21 50  1  0
 22 51  1  0
 22 52  1  0
 23 53  1  6
 24 54  1  0
 25 55  1  0
M  CHG  1  23   1
M  END
>  <meeko>  (1) 
{"is_sidechain": [false], "free_energy": -7.908, "intermolecular_energy": -10.45, "internal_energy": -0.669}

$$$$
3ejr_ligand
     RDKit          3D

 55 57  0  0  0  0  0  0  0  0999 V2000
   49.7010   72.6940  -25.1390 C   0  0  0  0  0  0  0  0  0  0  0  0
   48.3720   72.2980  -24.4570 C   0  0  0  0  0  0  0  0  0  0  0  0
   48.7260   71.7130  -23.0730 C   0  0  0  0  0  0  0  0  0  0  0  0
   47.5530   73.5930  -24.2670 C   0  0  0  0  0  0  0  0  0  0  0  0
   47.5440   71.2740  -25.2550 C   0  0  0  0  0  0  0  0  0  0  0  0
   47.1380   70.0410  -24.7200 C   0  0  0  0  0  0  0  0  0  0  0  0
   46.3840   69.1280  -25.4700 C   0  0  0  0  0  0  0  0  0  0  0  0
   46.0170   69.4270  -26.7840 C   0  0  0  0  0  0  0  0  0  0  0  0
   45.2150   68.4930  -27.6280 C   0  0  0  0  0  0  0  0  0  0  0  0
   44.4030   67.7340  -27.1040 O   0  0  0  0  0  0  0  0  0  0  0  0
   45.4320   68.4750  -29.1300 C   0  0  0  0  0  0  0  0  0  0  0  0
   46.6870   67.6560  -29.4710 C   0  0  1  0  0  0  0  0  0  0  0  0
   46.7490   66.3040  -28.7140 C   0  0  0  0  0  0  0  0  0  0  0  0
   46.5870   65.0470  -29.5930 C   0  0  0  0  0  0  0  0  0  0  0  0
   45.4910   65.2110  -30.6500 C   0  0  1  0  0  0  0  0  0  0  0  0
   44.2520   65.3700  -29.9420 O   0  0  0  0  0  0  0  0  0  0  0  0
   45.6820   66.4710  -31.5170 C   0  0  2  0  0  0  0  0  0  0  0  0
   46.2670   66.2820  -32.9130 C   0  0  2  0  0  0  0  0  0  0  0  0
   47.4660   65.4960  -32.8040 O   0  0  0  0  0  0  0  0  0  0  0  0
   46.6540   67.7260  -33.3080 C   0  0  2  0  0  0  0  0  0  0  0  0
   47.7640   67.6630  -34.2000 O   0  0  0  0  0  0  0  0  0  0  0  0
   47.0080   68.4230  -31.9680 C   0  0  0  0  0  0  0  0  0  0  0  0
   46.7850   67.3500  -30.9350 N   0  0  1  0  0  0  0  0  0  0  0  0
   46.4080   70.6500  -27.3340 C   0  0  0  0  0  0  0  0  0  0  0  0
   47.1610   71.5570  -26.5800 C   0  0  0  0  0  0  0  0  0  0  0  0
   50.4550   72.9187  -24.3702 H   0  0  0  0  0  0  0  0  0  0  0  0
   50.0535   71.8619  -25.7661 H   0  0  0  0  0  0  0  0  0  0  0  0
   49.5405   73.5834  -25.7661 H   0  0  0  0  0  0  0  0  0  0  0  0
   48.3287   72.3695  -22.2849 H   0  0  0  0  0  0  0  0  0  0  0  0
   48.2824   70.7113  -22.9739 H   0  0  0  0  0  0  0  0  0  0  0  0
   49.8192   71.6413  -22.9739 H   0  0  0  0  0  0  0  0  0  0  0  0
   47.4267   73.7927  -23.1927 H   0  0  0  0  0  0  0  0  0  0  0  0
   48.0835   74.4345  -24.7365 H   0  0  0  0  0  0  0  0  0  0  0  0
   46.5653   73.4744  -24.7365 H   0  0  0  0  0  0  0  0  0  0  0  0
   47.4184   69.7854  -23.6875 H   0  0  0  0  0  0  0  0  0  0  0  0
   46.0797   68.1709  -25.0213 H   0  0  0  0  0  0  0  0  0  0  0  0
   44.5572   68.0213  -29.6188 H   0  0  0  0  0  0  0  0  0  0  0  0
   45.5664   69.5066  -29.4874 H   0  0  0  0  0  0  0  0  0  0  0  0
   47.5248   68.2958  -29.1568 H   0  0  0  0  0  0  0  0  0  0  0  0
   47.7243   66.2419  -28.2091 H   0  0  0  0  0  0  0  0  0  0  0  0
   45.8933   66.3035  -28.0228 H   0  0  0  0  0  0  0  0  0  0  0  0
   47.5414   64.8464  -30.1019 H   0  0  0  0  0  0  0  0  0  0  0  0
   46.2974   64.2135  -28.9362 H   0  0  0  0  0  0  0  0  0  0  0  0
   45.5159   64.3338  -31.3132 H   0  0  0  0  0  0  0  0  0  0  0  0
   43.8540   64.4830  -29.8350 H   0  0  0  0  0  0  0  0  0  0  0  0
   44.6513   66.8542  -31.5472 H   0  0  0  0  0  0  0  0  0  0  0  0
   45.5892   65.7876  -33.6245 H   0  0  0  0  0  0  0  0  0  0  0  0
   47.2030   64.6840  -32.3140 H   0  0  0  0  0  0  0  0  0  0  0  0
   45.8588   68.2817  -33.8265 H   0  0  0  0  0  0  0  0  0  0  0  0
   47.8070   68.4920  -34.7160 H   0  0  0  0  0  0  0  0  0  0  0  0
   48.0558   68.7578  -31.9653 H   0  0  0  0  0  0  0  0  0  0  0  0
   46.4030   69.3230  -31.7839 H   0  0  0  0  0  0  0  0  0  0  0  0
   47.6390   66.7670  -31.0380 H   0  0  0  0  0  0  0  0  0  0  0  0
   46.1223   70.9016  -28.3660 H   0  0  0  0  0  0  0  0  0  0  0  0
   47.4607   72.5135  -27.0331 H   0  0  0  0  0  0  0  0  0  0  0  0
  1  2  1  0
  2  3  1  0
  2  4  1  0
  2  5  1  0
  5  6  2  0
  6  7  1  0
  7  8  2  0
  8  9  1  0
  9 10  2  0
  9 11  1  0
 11 12  1  0
 12 13  1  0
 13 14  1  0
 14 15  1  0
 15 16  1  0
 15 17  1  0
 17 18  1  0
 18 19  1  0
 18 20  1  0
 20 21  1  0
 20 22  1  0
 22 23  1  0
  8 24  1  0
 24 25  2  0
 25  5  1  0
 23 12  1  0
 23 17  1  0
  1 26  1  0
  1 27  1  0
  1 28  1  0
  3 29  1  0
  3 30  1  0
  3 31  1  0
  4 32  1  0
  4 33  1  0
  4 34  1  0
  6 35  1  0
  7 36  1  0
 11 37  1  0
 11 38  1  0
 12 39  1  1
 13 40  1  0
 13 41  1  0
 14 42  1  0
 14 43  1  0
 15 44  1  6
 16 45  1  0
 17 46  1  6
 18 47  1  6
 19 48  1  0
 20 49  1  6
 21 50  1  0
 22 51  1  0
 22 52  1  0
 23 53  1  1
 24 54  1  0
 25 55  1  0
M  CHG  1  23   1
M  END
>  <meeko>  (2) 
{"is_sidechain": [false], "free_energy": -7.556, "intermolecular_energy": -9.88, "internal_energy": -0.773}

$$$$
3ejr_ligand
     RDKit          3D

 55 57  0  0  0  0  0  0  0  0999 V2000
   46.7250   69.6460  -17.4240 C   0  0  0  0  0  0  0  0  0  0  0  0
   47.8530   70.6800  -17.2150 C   0  0  0  0  0  0  0  0  0  0  0  0
   47.2600   71.8410  -16.3880 C   0  0  0  0  0  0  0  0  0  0  0  0
   48.9610   69.9860  -16.3940 C   0  0  0  0  0  0  0  0  0  0  0  0
   48.4460   71.2290  -18.5260 C   0  0  0  0  0  0  0  0  0  0  0  0
   49.8200   71.1980  -18.8120 C   0  0  0  0  0  0  0  0  0  0  0  0
   50.3320   71.7050  -20.0140 C   0  0  0  0  0  0  0  0  0  0  0  0
   49.4750   72.2620  -20.9660 C   0  0  0  0  0  0  0  0  0  0  0  0
   49.9640   72.8160  -22.2630 C   0  0  0  0  0  0  0  0  0  0  0  0
   50.7600   73.7530  -22.2690 O   0  0  0  0  0  0  0  0  0  0  0  0
   49.4510   72.2280  -23.5640 C   0  0  0  0  0  0  0  0  0  0  0  0
   47.9470   72.5080  -23.7110 C   0  0  1  0  0  0  0  0  0  0  0  0
   47.6500   73.9250  -24.2670 C   0  0  0  0  0  0  0  0  0  0  0  0
   47.0470   73.9650  -25.6860 C   0  0  0  0  0  0  0  0  0  0  0  0
   47.7180   72.9650  -26.6330 C   0  0  1  0  0  0  0  0  0  0  0  0
   49.0880   73.3740  -26.7650 O   0  0  0  0  0  0  0  0  0  0  0  0
   47.7260   71.5280  -26.0760 C   0  0  2  0  0  0  0  0  0  0  0  0
   46.6910   70.5540  -26.6290 C   0  0  2  0  0  0  0  0  0  0  0  0
   45.3950   71.1710  -26.5540 O   0  0  0  0  0  0  0  0  0  0  0  0
   46.7490   69.3940  -25.6080 C   0  0  2  0  0  0  0  0  0  0  0  0
   45.4660   68.7740  -25.5630 O   0  0  0  0  0  0  0  0  0  0  0  0
   47.1310   70.0680  -24.2640 C   0  0  0  0  0  0  0  0  0  0  0  0
   47.2720   71.5240  -24.6200 N   0  0  1  0  0  0  0  0  0  0  0  0
   48.1030   72.2990  -20.7030 C   0  0  0  0  0  0  0  0  0  0  0  0
   47.6000   71.7910  -19.5000 C   0  0  0  0  0  0  0  0  0  0  0  0
   46.3537   69.3057  -16.4461 H   0  0  0  0  0  0  0  0  0  0  0  0
   45.9020   70.1100  -17.9874 H   0  0  0  0  0  0  0  0  0  0  0  0
   47.1158   68.7859  -17.9874 H   0  0  0  0  0  0  0  0  0  0  0  0
   47.3719   71.6220  -15.3158 H   0  0  0  0  0  0  0  0  0  0  0  0
   47.7927   72.7727  -16.6295 H   0  0  0  0  0  0  0  0  0  0  0  0
   46.1930   71.9556  -16.6295 H   0  0  0  0  0  0  0  0  0  0  0  0
   48.7567   70.1139  -15.3207 H   0  0  0  0  0  0  0  0  0  0  0  0
   48.9811   68.9136  -16.6381 H   0  0  0  0  0  0  0  0  0  0  0  0
   49.9346   70.4359  -16.6381 H   0  0  0  0  0  0  0  0  0  0  0  0
   50.5118   70.7651  -18.0745 H   0  0  0  0  0  0  0  0  0  0  0  0
   51.4139   71.6641  -20.2087 H   0  0  0  0  0  0  0  0  0  0  0  0
   49.9904   72.6838  -24.4074 H   0  0  0  0  0  0  0  0  0  0  0  0
   49.6168   71.1406  -23.5587 H   0  0  0  0  0  0  0  0  0  0  0  0
   47.5504   72.4192  -22.6888 H   0  0  0  0  0  0  0  0  0  0  0  0
   46.9422   74.4165  -23.5833 H   0  0  0  0  0  0  0  0  0  0  0  0
   48.6228   74.4338  -24.3362 H   0  0  0  0  0  0  0  0  0  0  0  0
   45.9752   73.7261  -25.6214 H   0  0  0  0  0  0  0  0  0  0  0  0
   47.2108   74.9740  -26.0922 H   0  0  0  0  0  0  0  0  0  0  0  0
   47.1609   72.9594  -27.5815 H   0  0  0  0  0  0  0  0  0  0  0  0
   49.5690   73.0680  -25.9710 H   0  0  0  0  0  0  0  0  0  0  0  0
   48.7548   71.2229  -26.3177 H   0  0  0  0  0  0  0  0  0  0  0  0
   46.8706   70.2463  -27.6697 H   0  0  0  0  0  0  0  0  0  0  0  0
   45.0280   70.9040  -25.6810 H   0  0  0  0  0  0  0  0  0  0  0  0
   47.4751   68.6064  -25.8577 H   0  0  0  0  0  0  0  0  0  0  0  0
   45.4290   68.0680  -26.2370 H   0  0  0  0  0  0  0  0  0  0  0  0
   46.3396   69.9228  -23.5139 H   0  0  0  0  0  0  0  0  0  0  0  0
   48.0464   69.6474  -23.8222 H   0  0  0  0  0  0  0  0  0  0  0  0
   46.2820   71.8330  -24.6730 H   0  0  0  0  0  0  0  0  0  0  0  0
   47.4149   72.7296  -21.4454 H   0  0  0  0  0  0  0  0  0  0  0  0
   46.5171   71.8320  -19.3112 H   0  0  0  0  0  0  0  0  0  0  0  0
  1  2  1  0
  2  3  1  0
  2  4  1  0
  2  5  1  0
  5  6  2  0
  6  7  1  0
  7  8  2  0
  8  9  1  0
  9 10  2  0
  9 11  1  0
 11 12  1  0
 12 13  1  0
 13 14  1  0
 14 15  1  0
 15 16  1  0
 15 17  1  0
 17 18  1  0
 18 19  1  0
 18 20  1  0
 20 21  1  0
 20 22  1  0
 22 23  1  0
  8 24  1  0
 24 25  2  0
 25  5  1  0
 23 12  1  0
 23 17  1  0
  1 26  1  0
  1 27  1  0
  1 28  1  0
  3 29  1  0
  3 30  1  0
  3 31  1  0
  4 32  1  0
  4 33  1  0
  4 34  1  0
  6 35  1  0
  7 36  1  0
 11 37  1  0
 11 38  1  0
 12 39  1  1
 13 40  1  0
 13 41  1  0
 14 42  1  0
 14 43  1  0
 15 44  1  6
 16 45  1  0
 17 46  1  1
 18 47  1  6
 19 48  1  0
 20 49  1  6
 21 50  1  0
 22 51  1  0
 22 52  1  0
 23 53  1  6
 24 54  1  0
 25 55  1  0
M  CHG  1  23   1
M  END
>  <meeko>  (3) 
{"is_sidechain": [false], "free_energy": -7.529, "intermolecular_energy": -10.227, "internal_energy": -0.392}

$$$$
3ejr_ligand
     RDKit          3D

 55 57  0  0  0  0  0  0  0  0999 V2000
   44.0520   67.1920  -32.3400 C   0  0  0  0  0  0  0  0  0  0  0  0
   45.4590   67.1640  -31.7040 C   0  0  0  0  0  0  0  0  0  0  0  0
   45.8730   65.6820  -31.5750 C   0  0  0  0  0  0  0  0  0  0  0  0
   46.4170   67.8750  -32.6850 C   0  0  0  0  0  0  0  0  0  0  0  0
   45.5330   67.8440  -30.3230 C   0  0  0  0  0  0  0  0  0  0  0  0
   46.6250   68.6290  -29.9190 C   0  0  0  0  0  0  0  0  0  0  0  0
   46.6640   69.2350  -28.6560 C   0  0  0  0  0  0  0  0  0  0  0  0
   45.6070   69.0680  -27.7600 C   0  0  0  0  0  0  0  0  0  0  0  0
   45.5950   69.6900  -26.4030 C   0  0  0  0  0  0  0  0  0  0  0  0
   45.3030   69.0140  -25.4190 O   0  0  0  0  0  0  0  0  0  0  0  0
   45.9230   71.1650  -26.2580 C   0  0  0  0  0  0  0  0  0  0  0  0
   47.4380   71.3840  -26.4060 C   0  0  1  0  0  0  0  0  0  0  0  0
   47.7940   72.3700  -27.5490 C   0  0  0  0  0  0  0  0  0  0  0  0
   48.3860   73.7200  -27.0950 C   0  0  0  0  0  0  0  0  0  0  0  0
   47.6640   74.2930  -25.8730 C   0  0  1  0  0  0  0  0  0  0  0  0
   46.3130   74.5620  -26.2780 O   0  0  0  0  0  0  0  0  0  0  0  0
   47.5960   73.2980  -24.6990 C   0  0  2  0  0  0  0  0  0  0  0  0
   48.5810   73.4940  -23.5510 C   0  0  2  0  0  0  0  0  0  0  0  0
   49.9050   73.6160  -24.1000 O   0  0  0  0  0  0  0  0  0  0  0  0
   48.4790   72.1510  -22.7930 C   0  0  2  0  0  0  0  0  0  0  0  0
   49.7340   71.8960  -22.1650 O   0  0  0  0  0  0  0  0  0  0  0  0
   48.1390   71.1030  -23.8850 C   0  0  0  0  0  0  0  0  0  0  0  0
   48.0600   71.9160  -25.1500 N   0  0  1  0  0  0  0  0  0  0  0  0
   44.5090   68.2930  -28.1440 C   0  0  0  0  0  0  0  0  0  0  0  0
   44.4760   67.6910  -29.4070 C   0  0  0  0  0  0  0  0  0  0  0  0
   43.2909   67.2071  -31.5459 H   0  0  0  0  0  0  0  0  0  0  0  0
   43.9493   68.0924  -32.9635 H   0  0  0  0  0  0  0  0  0  0  0  0
   43.9136   66.2964  -32.9635 H   0  0  0  0  0  0  0  0  0  0  0  0
   45.9480   65.4135  -30.5109 H   0  0  0  0  0  0  0  0  0  0  0  0
   45.1179   65.0467  -32.0611 H   0  0  0  0  0  0  0  0  0  0  0  0
   46.8480   65.5300  -32.0611 H   0  0  0  0  0  0  0  0  0  0  0  0
   47.1734   68.4363  -32.1168 H   0  0  0  0  0  0  0  0  0  0  0  0
   46.9152   67.1263  -33.3184 H   0  0  0  0  0  0  0  0  0  0  0  0
   45.8447   68.5687  -33.3184 H   0  0  0  0  0  0  0  0  0  0  0  0
   47.4691   68.7715  -30.6097 H   0  0  0  0  0  0  0  0  0  0  0  0
   47.5327   69.8458  -28.3692 H   0  0  0  0  0  0  0  0  0  0  0  0
   45.3949   71.7339  -27.0373 H   0  0  0  0  0  0  0  0  0  0  0  0
   45.6038   71.5098  -25.2634 H   0  0  0  0  0  0  0  0  0  0  0  0
   47.8388   70.3862  -26.6378 H   0  0  0  0  0  0  0  0  0  0  0  0
   48.5292   71.8797  -28.2040 H   0  0  0  0  0  0  0  0  0  0  0  0
   46.8450   72.6079  -28.0518 H   0  0  0  0  0  0  0  0  0  0  0  0
   49.4464   73.5734  -26.8421 H   0  0  0  0  0  0  0  0  0  0  0  0
   48.2637   74.4347  -27.9222 H   0  0  0  0  0  0  0  0  0  0  0  0
   48.2129   75.1835  -25.5327 H   0  0  0  0  0  0  0  0  0  0  0  0
   45.7950   74.7610  -25.4730 H   0  0  0  0  0  0  0  0  0  0  0  0
   46.5527   73.4357  -24.3788 H   0  0  0  0  0  0  0  0  0  0  0  0
   48.3790   74.3776  -22.9277 H   0  0  0  0  0  0  0  0  0  0  0  0
   50.4920   73.7960  -23.3310 H   0  0  0  0  0  0  0  0  0  0  0  0
   47.7158   72.1357  -22.0010 H   0  0  0  0  0  0  0  0  0  0  0  0
   50.0920   71.0510  -22.4990 H   0  0  0  0  0  0  0  0  0  0  0  0
   48.9295   70.3415  -23.9572 H   0  0  0  0  0  0  0  0  0  0  0  0
   47.2097   70.5538  -23.6733 H   0  0  0  0  0  0  0  0  0  0  0  0
   49.0630   72.0610  -25.3800 H   0  0  0  0  0  0  0  0  0  0  0  0
   43.6666   68.1556  -27.4501 H   0  0  0  0  0  0  0  0  0  0  0  0
   43.6034   67.0841  -29.6902 H   0  0  0  0  0  0  0  0  0  0  0  0
  1  2  1  0
  2  3  1  0
  2  4  1  0
  2  5  1  0
  5  6  2  0
  6  7  1  0
  7  8  2  0
  8  9  1  0
  9 10  2  0
  9 11  1  0
 11 12  1  0
 12 13  1  0
 13 14  1  0
 14 15  1  0
 15 16  1  0
 15 17  1  0
 17 18  1  0
 18 19  1  0
 18 20  1  0
 20 21  1  0
 20 22  1  0
 22 23  1  0
  8 24  1  0
 24 25  2  0
 25  5  1  0
 23 12  1  0
 23 17  1  0
  1 26  1  0
  1 27  1  0
  1 28  1  0
  3 29  1  0
  3 30  1  0
  3 31  1  0
  4 32  1  0
  4 33  1  0
  4 34  1  0
  6 35  1  0
  7 36  1  0
 11 37  1  0
 11 38  1  0
 12 39  1  6
 13 40  1  0
 13 41  1  0
 14 42  1  0
 14 43  1  0
 15 44  1  1
 16 45  1  0
 17 46  1  1
 18 47  1  1
 19 48  1  0
 20 49  1  1
 21 50  1  0
 22 51  1  0
 22 52  1  0
 23 53  1  6
 24 54  1  0
 25 55  1  0
M  CHG  1  23   1
M  END
>  <meeko>  (4) 
{"is_sidechain": [false], "free_energy": -7.185, "intermolecular_energy": -9.643, "internal_energy": -0.52}

$$$$
3ejr_ligand
     RDKit          3D

 55 57  0  0  0  0  0  0  0  0999 V2000
   46.7800   69.6830  -17.1820 C   0  0  0  0  0  0  0  0  0  0  0  0
   47.9140   70.7310  -17.1490 C   0  0  0  0  0  0  0  0  0  0  0  0
   47.4150   71.9160  -16.2940 C   0  0  0  0  0  0  0  0  0  0  0  0
   49.1230   70.0740  -16.4490 C   0  0  0  0  0  0  0  0  0  0  0  0
   48.3340   71.2380  -18.5420 C   0  0  0  0  0  0  0  0  0  0  0  0
   47.4140   71.7300  -19.4810 C   0  0  0  0  0  0  0  0  0  0  0  0
   47.8250   72.1860  -20.7420 C   0  0  0  0  0  0  0  0  0  0  0  0
   49.1750   72.1570  -21.0960 C   0  0  0  0  0  0  0  0  0  0  0  0
   49.6690   72.6290  -22.4230 C   0  0  0  0  0  0  0  0  0  0  0  0
   50.8760   72.7590  -22.6190 O   0  0  0  0  0  0  0  0  0  0  0  0
   48.6690   72.9670  -23.5130 C   0  0  0  0  0  0  0  0  0  0  0  0
   48.8240   71.9920  -24.6910 C   0  0  1  0  0  0  0  0  0  0  0  0
   47.8670   70.7750  -24.5960 C   0  0  0  0  0  0  0  0  0  0  0  0
   46.7510   70.7280  -25.6600 C   0  0  0  0  0  0  0  0  0  0  0  0
   46.1200   72.1020  -25.9040 C   0  0  1  0  0  0  0  0  0  0  0  0
   45.4880   72.4930  -24.6760 O   0  0  0  0  0  0  0  0  0  0  0  0
   47.1610   73.1860  -26.2430 C   0  0  2  0  0  0  0  0  0  0  0  0
   47.3150   73.5800  -27.7090 C   0  0  2  0  0  0  0  0  0  0  0  0
   47.4830   72.3850  -28.4890 O   0  0  0  0  0  0  0  0  0  0  0  0
   48.6480   74.3630  -27.7030 C   0  0  2  0  0  0  0  0  0  0  0  0
   49.2610   74.2100  -28.9820 O   0  0  0  0  0  0  0  0  0  0  0  0
   49.4820   73.7180  -26.5650 C   0  0  0  0  0  0  0  0  0  0  0  0
   48.5720   72.6530  -26.0120 N   0  0  1  0  0  0  0  0  0  0  0  0
   50.1070   71.6740  -20.1740 C   0  0  0  0  0  0  0  0  0  0  0  0
   49.6900   71.2220  -18.9170 C   0  0  0  0  0  0  0  0  0  0  0  0
   46.4945   69.4192  -16.1530 H   0  0  0  0  0  0  0  0  0  0  0  0
   45.9093   70.1013  -17.7083 H   0  0  0  0  0  0  0  0  0  0  0  0
   47.1285   68.7821  -17.7083 H   0  0  0  0  0  0  0  0  0  0  0  0
   47.5194   71.6681  -15.2274 H   0  0  0  0  0  0  0  0  0  0  0  0
   48.0128   72.8106  -16.5228 H   0  0  0  0  0  0  0  0  0  0  0  0
   46.3573   72.1135  -16.5228 H   0  0  0  0  0  0  0  0  0  0  0  0
   48.9970   70.1425  -15.3584 H   0  0  0  0  0  0  0  0  0  0  0  0
   49.1879   69.0165  -16.7449 H   0  0  0  0  0  0  0  0  0  0  0  0
   50.0456   70.5948  -16.7449 H   0  0  0  0  0  0  0  0  0  0  0  0
   46.3454   71.7586  -19.2217 H   0  0  0  0  0  0  0  0  0  0  0  0
   47.0801   72.5683  -21.4554 H   0  0  0  0  0  0  0  0  0  0  0  0
   47.6491   72.8896  -23.1081 H   0  0  0  0  0  0  0  0  0  0  0  0
   48.8538   73.9921  -23.8667 H   0  0  0  0  0  0  0  0  0  0  0  0
   49.8674   71.6494  -24.6276 H   0  0  0  0  0  0  0  0  0  0  0  0
   48.4698   69.8603  -24.6955 H   0  0  0  0  0  0  0  0  0  0  0  0
   47.3575   70.8643  -23.6252 H   0  0  0  0  0  0  0  0  0  0  0  0
   47.1790   70.3628  -26.6052 H   0  0  0  0  0  0  0  0  0  0  0  0
   45.9619   70.0571  -25.2895 H   0  0  0  0  0  0  0  0  0  0  0  0
   45.4274   72.0176  -26.7544 H   0  0  0  0  0  0  0  0  0  0  0  0
   46.0260   72.1420  -23.9390 H   0  0  0  0  0  0  0  0  0  0  0  0
   46.7942   74.0189  -25.6252 H   0  0  0  0  0  0  0  0  0  0  0  0
   46.4643   74.1451  -28.1176 H   0  0  0  0  0  0  0  0  0  0  0  0
   48.3770   72.4610  -28.8950 H   0  0  0  0  0  0  0  0  0  0  0  0
   48.5377   75.4434  -27.5279 H   0  0  0  0  0  0  0  0  0  0  0  0
   48.5640   74.1390  -29.6630 H   0  0  0  0  0  0  0  0  0  0  0  0
   50.4082   73.2755  -26.9604 H   0  0  0  0  0  0  0  0  0  0  0  0
   49.7968   74.4462  -25.8030 H   0  0  0  0  0  0  0  0  0  0  0  0
   48.6640   71.8980  -26.7200 H   0  0  0  0  0  0  0  0  0  0  0  0
   51.1746   71.6489  -20.4377 H   0  0  0  0  0  0  0  0  0  0  0  0
   50.4397   70.8455  -18.2056 H   0  0  0  0  0  0  0  0  0  0  0  0
  1  2  1  0
  2  3  1  0
  2  4  1  0
  2  5  1  0
  5  6  2  0
  6  7  1  0
  7  8  2  0
  8  9  1  0
  9 10  2  0
  9 11  1  0
 11 12  1  0
 12 13  1  0
 13 14  1  0
 14 15  1  0
 15 16  1  0
 15 17  1  0
 17 18  1  0
 18 19  1  0
 18 20  1  0
 20 21  1  0
 20 22  1  0
 22 23  1  0
  8 24  1  0
 24 25  2  0
 25  5  1  0
 23 12  1  0
 23 17  1  0
  1 26  1  0
  1 27  1  0
  1 28  1  0
  3 29  1  0
  3 30  1  0
  3 31  1  0
  4 32  1  0
  4 33  1  0
  4 34  1  0
  6 35  1  0
  7 36  1  0
 11 37  1  0
 11 38  1  0
 12 39  1  6
 13 40  1  0
 13 41  1  0
 14 42  1  0
 14 43  1  0
 15 44  1  6
 16 45  1  0
 17 46  1  1
 18 47  1  6
 19 48  1  0
 20 49  1  1
 21 50  1  0
 22 51  1  0
 22 52  1  0
 23 53  1  6
 24 54  1  0
 25 55  1  0
M  CHG  1  23   1
M  END
>  <meeko>  (5) 
{"is_sidechain": [false], "free_energy": -6.55, "intermolecular_energy": -8.505, "internal_energy": -0.821}

$$$$
3ejr_ligand
     RDKit          3D

 55 57  0  0  0  0  0  0  0  0999 V2000
   46.5880   66.4910  -36.1980 C   0  0  0  0  0  0  0  0  0  0  0  0
   47.8270   66.7680  -35.3170 C   0  0  0  0  0  0  0  0  0  0  0  0
   48.8140   65.6020  -35.5380 C   0  0  0  0  0  0  0  0  0  0  0  0
   48.4650   68.0780  -35.8270 C   0  0  0  0  0  0  0  0  0  0  0  0
   47.5060   66.8970  -33.8160 C   0  0  0  0  0  0  0  0  0  0  0  0
   46.9800   68.0680  -33.2480 C   0  0  0  0  0  0  0  0  0  0  0  0
   46.6980   68.1570  -31.8780 C   0  0  0  0  0  0  0  0  0  0  0  0
   46.9400   67.0700  -31.0360 C   0  0  0  0  0  0  0  0  0  0  0  0
   46.6590   67.1090  -29.5710 C   0  0  0  0  0  0  0  0  0  0  0  0
   46.0690   66.1730  -29.0340 O   0  0  0  0  0  0  0  0  0  0  0  0
   47.0870   68.3190  -28.7620 C   0  0  0  0  0  0  0  0  0  0  0  0
   45.8600   69.1720  -28.4010 C   0  0  1  0  0  0  0  0  0  0  0  0
   44.7690   68.3680  -27.6470 C   0  0  0  0  0  0  0  0  0  0  0  0
   44.5600   68.7630  -26.1710 C   0  0  0  0  0  0  0  0  0  0  0  0
   45.8820   69.0090  -25.4400 C   0  0  1  0  0  0  0  0  0  0  0  0
   46.5880   67.7580  -25.4260 O   0  0  0  0  0  0  0  0  0  0  0  0
   46.7830   70.0290  -26.1620 C   0  0  2  0  0  0  0  0  0  0  0  0
   46.8210   71.4500  -25.6100 C   0  0  2  0  0  0  0  0  0  0  0  0
   45.4700   71.9160  -25.4520 O   0  0  0  0  0  0  0  0  0  0  0  0
   47.4860   72.2370  -26.7620 C   0  0  2  0  0  0  0  0  0  0  0  0
   47.0020   73.5780  -26.7260 O   0  0  0  0  0  0  0  0  0  0  0  0
   47.0610   71.4870  -28.0520 C   0  0  0  0  0  0  0  0  0  0  0  0
   46.2180   70.3480  -27.5430 N   0  0  1  0  0  0  0  0  0  0  0  0
   47.4610   65.8940  -31.5820 C   0  0  0  0  0  0  0  0  0  0  0  0
   47.7400   65.8120  -32.9500 C   0  0  0  0  0  0  0  0  0  0  0  0
   45.7170   66.2963  -35.5550 H   0  0  0  0  0  0  0  0  0  0  0  0
   46.3866   67.3663  -36.8331 H   0  0  0  0  0  0  0  0  0  0  0  0
   46.7785   65.6133  -36.8331 H   0  0  0  0  0  0  0  0  0  0  0  0
   49.1444   65.2117  -34.5641 H   0  0  0  0  0  0  0  0  0  0  0  0
   48.3150   64.8014  -36.1037 H   0  0  0  0  0  0  0  0  0  0  0  0
   49.6860   65.9620  -36.1037 H   0  0  0  0  0  0  0  0  0  0  0  0
   48.7665   68.6972  -34.9693 H   0  0  0  0  0  0  0  0  0  0  0  0
   49.3490   67.8419  -36.4376 H   0  0  0  0  0  0  0  0  0  0  0  0
   47.7341   68.6284  -36.4376 H   0  0  0  0  0  0  0  0  0  0  0  0
   46.7844   68.9368  -33.8938 H   0  0  0  0  0  0  0  0  0  0  0  0
   46.2838   69.0882  -31.4640 H   0  0  0  0  0  0  0  0  0  0  0  0
   47.5815   67.9832  -27.8386 H   0  0  0  0  0  0  0  0  0  0  0  0
   47.7840   68.9245  -29.3599 H   0  0  0  0  0  0  0  0  0  0  0  0
   45.4674   69.5120  -29.3707 H   0  0  0  0  0  0  0  0  0  0  0  0
   43.8150   68.5117  -28.1754 H   0  0  0  0  0  0  0  0  0  0  0  0
   45.1143   67.3237  -27.6360 H   0  0  0  0  0  0  0  0  0  0  0  0
   43.9589   69.6835  -26.1334 H   0  0  0  0  0  0  0  0  0  0  0  0
   44.0497   67.9276  -25.6693 H   0  0  0  0  0  0  0  0  0  0  0  0
   45.6548   69.4040  -24.4388 H   0  0  0  0  0  0  0  0  0  0  0  0
   46.7330   67.5080  -24.4920 H   0  0  0  0  0  0  0  0  0  0  0  0
   47.7586   69.5268  -26.0839 H   0  0  0  0  0  0  0  0  0  0  0  0
   47.3384   71.5454  -24.6440 H   0  0  0  0  0  0  0  0  0  0  0  0
   45.5350   72.8970  -25.4030 H   0  0  0  0  0  0  0  0  0  0  0  0
   48.5828   72.2920  -26.6981 H   0  0  0  0  0  0  0  0  0  0  0  0
   46.2010   73.6120  -26.1680 H   0  0  0  0  0  0  0  0  0  0  0  0
   46.4754   72.1436  -28.7123 H   0  0  0  0  0  0  0  0  0  0  0  0
   47.9198   71.1472  -28.6494 H   0  0  0  0  0  0  0  0  0  0  0  0
   45.3170   70.8190  -27.3330 H   0  0  0  0  0  0  0  0  0  0  0  0
   47.6528   65.0276  -30.9320 H   0  0  0  0  0  0  0  0  0  0  0  0
   48.1520   64.8777  -33.3590 H   0  0  0  0  0  0  0  0  0  0  0  0
  1  2  1  0
  2  3  1  0
  2  4  1  0
  2  5  1  0
  5  6  2  0
  6  7  1  0
  7  8  2  0
  8  9  1  0
  9 10  2  0
  9 11  1  0
 11 12  1  0
 12 13  1  0
 13 14  1  0
 14 15  1  0
 15 16  1  0
 15 17  1  0
 17 18  1  0
 18 19  1  0
 18 20  1  0
 20 21  1  0
 20 22  1  0
 22 23  1  0
  8 24  1  0
 24 25  2  0
 25  5  1  0
 23 12  1  0
 23 17  1  0
  1 26  1  0
  1 27  1  0
  1 28  1  0
  3 29  1  0
  3 30  1  0
  3 31  1  0
  4 32  1  0
  4 33  1  0
  4 34  1  0
  6 35  1  0
  7 36  1  0
 11 37  1  0
 11 38  1  0
 12 39  1  6
 13 40  1  0
 13 41  1  0
 14 42  1  0
 14 43  1  0
 15 44  1  1
 16 45  1  0
 17 46  1  6
 18 47  1  1
 19 48  1  0
 20 49  1  1
 21 50  1  0
 22 51  1  0
 22 52  1  0
 23 53  1  1
 24 54  1  0
 25 55  1  0
M  CHG  1  23   1
M  END
>  <meeko>  (6) 
{"is_sidechain": [false], "free_energy": -6.438, "intermolecular_energy": -8.827, "internal_energy": -0.35}

$$$$
3ejr_ligand
     RDKit          3D

 55 57  0  0  0  0  0  0  0  0999 V2000
   47.3030   65.2510  -37.1710 C   0  0  0  0  0  0  0  0  0  0  0  0
   47.7800   66.0130  -35.9140 C   0  0  0  0  0  0  0  0  0  0  0  0
   48.8530   65.1380  -35.2310 C   0  0  0  0  0  0  0  0  0  0  0  0
   48.4280   67.3280  -36.3970 C   0  0  0  0  0  0  0  0  0  0  0  0
   46.6530   66.3280  -34.9120 C   0  0  0  0  0  0  0  0  0  0  0  0
   45.4570   65.5950  -34.8570 C   0  0  0  0  0  0  0  0  0  0  0  0
   44.4490   65.9040  -33.9340 C   0  0  0  0  0  0  0  0  0  0  0  0
   44.6130   66.9630  -33.0380 C   0  0  0  0  0  0  0  0  0  0  0  0
   43.5740   67.3370  -32.0340 C   0  0  0  0  0  0  0  0  0  0  0  0
   42.3890   67.1000  -32.2590 O   0  0  0  0  0  0  0  0  0  0  0  0
   43.9930   68.0300  -30.7520 C   0  0  0  0  0  0  0  0  0  0  0  0
   44.4530   66.9910  -29.7170 C   0  0  1  0  0  0  0  0  0  0  0  0
   45.7000   66.1940  -30.1770 C   0  0  0  0  0  0  0  0  0  0  0  0
   46.9930   66.4730  -29.3820 C   0  0  0  0  0  0  0  0  0  0  0  0
   47.1820   67.9620  -29.0810 C   0  0  1  0  0  0  0  0  0  0  0  0
   47.3360   68.6250  -30.3460 O   0  0  0  0  0  0  0  0  0  0  0  0
   45.9600   68.5910  -28.3860 C   0  0  2  0  0  0  0  0  0  0  0  0
   46.0440   68.8150  -26.8800 C   0  0  2  0  0  0  0  0  0  0  0  0
   46.4670   67.5890  -26.2580 O   0  0  0  0  0  0  0  0  0  0  0  0
   44.5690   69.0810  -26.5000 C   0  0  2  0  0  0  0  0  0  0  0  0
   44.3670   68.6440  -25.1580 O   0  0  0  0  0  0  0  0  0  0  0  0
   43.7420   68.2580  -27.5230 C   0  0  0  0  0  0  0  0  0  0  0  0
   44.7870   67.6150  -28.3950 N   0  0  1  0  0  0  0  0  0  0  0  0
   45.7980   67.7020  -33.0740 C   0  0  0  0  0  0  0  0  0  0  0  0
   46.8000   67.3880  -33.9980 C   0  0  0  0  0  0  0  0  0  0  0  0
   46.7422   64.3552  -36.8659 H   0  0  0  0  0  0  0  0  0  0  0  0
   46.6523   65.9043  -37.7709 H   0  0  0  0  0  0  0  0  0  0  0  0
   48.1749   64.9512  -37.7709 H   0  0  0  0  0  0  0  0  0  0  0  0
   48.7523   65.2201  -34.1387 H   0  0  0  0  0  0  0  0  0  0  0  0
   48.7180   64.0892  -35.5338 H   0  0  0  0  0  0  0  0  0  0  0  0
   49.8532   65.4813  -35.5338 H   0  0  0  0  0  0  0  0  0  0  0  0
   48.7254   67.9315  -35.5267 H   0  0  0  0  0  0  0  0  0  0  0  0
   49.3159   67.0978  -37.0042 H   0  0  0  0  0  0  0  0  0  0  0  0
   47.7046   67.8918  -37.0042 H   0  0  0  0  0  0  0  0  0  0  0  0
   45.3076   64.7581  -35.5551 H   0  0  0  0  0  0  0  0  0  0  0  0
   43.5237   65.3095  -33.9149 H   0  0  0  0  0  0  0  0  0  0  0  0
   44.8210   68.7218  -30.9661 H   0  0  0  0  0  0  0  0  0  0  0  0
   43.1355   68.5872  -30.3467 H   0  0  0  0  0  0  0  0  0  0  0  0
   43.5953   66.3102  -29.6126 H   0  0  0  0  0  0  0  0  0  0  0  0
   45.4703   65.1221  -30.0864 H   0  0  0  0  0  0  0  0  0  0  0  0
   45.9026   66.5165  -31.2090 H   0  0  0  0  0  0  0  0  0  0  0  0
   46.9485   65.9229  -28.4305 H   0  0  0  0  0  0  0  0  0  0  0  0
   47.8433   66.1443  -29.9976 H   0  0  0  0  0  0  0  0  0  0  0  0
   48.0479   68.0718  -28.4116 H   0  0  0  0  0  0  0  0  0  0  0  0
   46.4760   69.0260  -30.5790 H   0  0  0  0  0  0  0  0  0  0  0  0
   45.8762   69.5362  -28.9424 H   0  0  0  0  0  0  0  0  0  0  0  0
   46.7361   69.6158  -26.5805 H   0  0  0  0  0  0  0  0  0  0  0  0
   45.7100   67.3050  -25.6970 H   0  0  0  0  0  0  0  0  0  0  0  0
   44.2757   70.1405  -26.5380 H   0  0  0  0  0  0  0  0  0  0  0  0
   43.4150   68.4770  -25.0170 H   0  0  0  0  0  0  0  0  0  0  0  0
   43.1342   67.4961  -27.0131 H   0  0  0  0  0  0  0  0  0  0  0  0
   43.0338   68.8768  -28.0936 H   0  0  0  0  0  0  0  0  0  0  0  0
   45.1180   66.8320  -27.7980 H   0  0  0  0  0  0  0  0  0  0  0  0
   45.9439   68.5358  -32.3715 H   0  0  0  0  0  0  0  0  0  0  0  0
   47.7247   67.9836  -34.0106 H   0  0  0  0  0  0  0  0  0  0  0  0
  1  2  1  0
  2  3  1  0
  2  4  1  0
  2  5  1  0
  5  6  2  0
  6  7  1  0
  7  8  2  0
  8  9  1  0
  9 10  2  0
  9 11  1  0
 11 12  1  0
 12 13  1  0
 13 14  1  0
 14 15  1  0
 15 16  1  0
 15 17  1  0
 17 18  1  0
 18 19  1  0
 18 20  1  0
 20 21  1  0
 20 22  1  0
 22 23  1  0
  8 24  1  0
 24 25  2  0
 25  5  1  0
 23 12  1  0
 23 17  1  0
  1 26  1  0
  1 27  1  0
  1 28  1  0
  3 29  1  0
  3 30  1  0
  3 31  1  0
  4 32  1  0
  4 33  1  0
  4 34  1  0
  6 35  1  0
  7 36  1  0
 11 37  1  0
 11 38  1  0
 12 39  1  1
 13 40  1  0
 13 41  1  0
 14 42  1  0
 14 43  1  0
 15 44  1  1
 16 45  1  0
 17 46  1  6
 18 47  1  6
 19 48  1  0
 20 49  1  1
 21 50  1  0
 22 51  1  0
 22 52  1  0
 23 53  1  1
 24 54  1  0
 25 55  1  0
M  CHG  1  23   1
M  END
>  <meeko>  (7) 
{"is_sidechain": [false], "free_energy": -5.919, "intermolecular_energy": -7.984, "internal_energy": -0.506}

$$$$
3ejr_ligand
     RDKit          3D

 55 57  0  0  0  0  0  0  0  0999 V2000
   46.3980   70.1050  -27.1820 C   0  0  0  0  0  0  0  0  0  0  0  0
   45.6000   68.8190  -26.8730 C   0  0  0  0  0  0  0  0  0  0  0  0
   46.4350   67.9960  -25.8680 C   0  0  0  0  0  0  0  0  0  0  0  0
   44.2790   69.2520  -26.2010 C   0  0  0  0  0  0  0  0  0  0  0  0
   45.2940   67.9620  -28.1160 C   0  0  0  0  0  0  0  0  0  0  0  0
   45.8980   66.7170  -28.3490 C   0  0  0  0  0  0  0  0  0  0  0  0
   45.5990   65.9580  -29.4900 C   0  0  0  0  0  0  0  0  0  0  0  0
   44.6840   66.4320  -30.4320 C   0  0  0  0  0  0  0  0  0  0  0  0
   44.3280   65.6670  -31.6630 C   0  0  0  0  0  0  0  0  0  0  0  0
   43.1680   65.3070  -31.8490 O   0  0  0  0  0  0  0  0  0  0  0  0
   45.4150   65.3210  -32.6650 C   0  0  0  0  0  0  0  0  0  0  0  0
   45.5730   66.4610  -33.6850 C   0  0  1  0  0  0  0  0  0  0  0  0
   45.7640   67.8460  -33.0150 C   0  0  0  0  0  0  0  0  0  0  0  0
   47.1580   68.4800  -33.1950 C   0  0  0  0  0  0  0  0  0  0  0  0
   48.2880   67.4590  -33.0330 C   0  0  1  0  0  0  0  0  0  0  0  0
   48.2320   66.9890  -31.6770 O   0  0  0  0  0  0  0  0  0  0  0  0
   48.1180   66.2300  -33.9460 C   0  0  2  0  0  0  0  0  0  0  0  0
   48.9610   66.1740  -35.2160 C   0  0  2  0  0  0  0  0  0  0  0  0
   48.8070   67.4170  -35.9230 O   0  0  0  0  0  0  0  0  0  0  0  0
   48.2690   65.0530  -36.0240 C   0  0  2  0  0  0  0  0  0  0  0  0
   48.4590   65.3210  -37.4120 O   0  0  0  0  0  0  0  0  0  0  0  0
   46.7770   65.1240  -35.6050 C   0  0  0  0  0  0  0  0  0  0  0  0
   46.7400   66.2450  -34.6000 N   0  0  1  0  0  0  0  0  0  0  0  0
   44.0690   67.6680  -30.2160 C   0  0  0  0  0  0  0  0  0  0  0  0
   44.3720   68.4190  -29.0760 C   0  0  0  0  0  0  0  0  0  0  0  0
   46.6968   70.5865  -26.2392 H   0  0  0  0  0  0  0  0  0  0  0  0
   47.2959   69.8486  -27.7634 H   0  0  0  0  0  0  0  0  0  0  0  0
   45.7696   70.7957  -27.7634 H   0  0  0  0  0  0  0  0  0  0  0  0
   46.1526   68.2744  -24.8420 H   0  0  0  0  0  0  0  0  0  0  0  0
   46.2432   66.9240  -26.0231 H   0  0  0  0  0  0  0  0  0  0  0  0
   47.5041   68.2033  -26.0231 H   0  0  0  0  0  0  0  0  0  0  0  0
   44.3942   69.2142  -25.1077 H   0  0  0  0  0  0  0  0  0  0  0  0
   44.0306   70.2786  -26.5083 H   0  0  0  0  0  0  0  0  0  0  0  0
   43.4711   68.5717  -26.5083 H   0  0  0  0  0  0  0  0  0  0  0  0
   46.6231   66.3271  -27.6195 H   0  0  0  0  0  0  0  0  0  0  0  0
   46.0878   64.9846  -29.6434 H   0  0  0  0  0  0  0  0  0  0  0  0
   46.3667   65.1734  -32.1335 H   0  0  0  0  0  0  0  0  0  0  0  0
   45.1366   64.3983  -33.1953 H   0  0  0  0  0  0  0  0  0  0  0  0
   44.6326   66.4517  -34.2555 H   0  0  0  0  0  0  0  0  0  0  0  0
   45.0200   68.5350  -33.4414 H   0  0  0  0  0  0  0  0  0  0  0  0
   45.6434   67.6797  -31.9344 H   0  0  0  0  0  0  0  0  0  0  0  0
   47.2195   68.9185  -34.2020 H   0  0  0  0  0  0  0  0  0  0  0  0
   47.2823   69.2451  -32.4145 H   0  0  0  0  0  0  0  0  0  0  0  0
   49.2370   67.9493  -33.2958 H   0  0  0  0  0  0  0  0  0  0  0  0
   47.6000   67.5560  -31.1910 H   0  0  0  0  0  0  0  0  0  0  0  0
   48.3702   65.4211  -33.2445 H   0  0  0  0  0  0  0  0  0  0  0  0
   50.0334   66.0040  -35.0400 H   0  0  0  0  0  0  0  0  0  0  0  0
   49.4750   67.3920  -36.6450 H   0  0  0  0  0  0  0  0  0  0  0  0
   48.6689   64.0459  -35.8348 H   0  0  0  0  0  0  0  0  0  0  0  0
   49.4150   65.4070  -37.5920 H   0  0  0  0  0  0  0  0  0  0  0  0
   46.1372   65.3520  -36.4703 H   0  0  0  0  0  0  0  0  0  0  0  0
   46.4038   64.1733  -35.1963 H   0  0  0  0  0  0  0  0  0  0  0  0
   46.7700   67.0860  -35.2100 H   0  0  0  0  0  0  0  0  0  0  0  0
   43.3424   68.0524  -30.9469 H   0  0  0  0  0  0  0  0  0  0  0  0
   43.8778   69.3902  -28.9260 H   0  0  0  0  0  0  0  0  0  0  0  0
  1  2  1  0
  2  3  1  0
  2  4  1  0
  2  5  1  0
  5  6  2  0
  6  7  1  0
  7  8  2  0
  8  9  1  0
  9 10  2  0
  9 11  1  0
 11 12  1  0
 12 13  1  0
 13 14  1  0
 14 15  1  0
 15 16  1  0
 15 17  1  0
 17 18  1  0
 18 19  1  0
 18 20  1  0
 20 21  1  0
 20 22  1  0
 22 23  1  0
  8 24  1  0
 24 25  2  0
 25  5  1  0
 23 12  1  0
 23 17  1  0
  1 26  1  0
  1 27  1  0
  1 28  1  0
  3 29  1  0
  3 30  1  0
  3 31  1  0
  4 32  1  0
  4 33  1  0
  4 34  1  0
  6 35  1  0
  7 36  1  0
 11 37  1  0
 11 38  1  0
 12 39  1  6
 13 40  1  0
 13 41  1  0
 14 42  1  0
 14 43  1  0
 15 44  1  6
 16 45  1  0
 17 46  1  1
 18 47  1  1
 19 48  1  0
 20 49  1  1
 21 50  1  0
 22 51  1  0
 22 52  1  0
 23 53  1  6
 24 54  1  0
 25 55  1  0
M  CHG  1  23   1
M  END
>  <meeko>  (8) 
{"is_sidechain": [false], "free_energy": -5.591, "intermolecular_energy": -7.436, "internal_energy": -0.621}

$$$$
3ejr_ligand
     RDKit          3D

 55 57  0  0  0  0  0  0  0  0999 V2000
   47.4080   66.1340  -31.4170 C   0  0  0  0  0  0  0  0  0  0  0  0
   46.4980   67.3670  -31.2230 C   0  0  0  0  0  0  0  0  0  0  0  0
   47.0510   68.4880  -32.1300 C   0  0  0  0  0  0  0  0  0  0  0  0
   45.0860   66.9720  -31.7060 C   0  0  0  0  0  0  0  0  0  0  0  0
   46.4280   67.8660  -29.7670 C   0  0  0  0  0  0  0  0  0  0  0  0
   46.0360   67.0430  -28.7000 C   0  0  0  0  0  0  0  0  0  0  0  0
   45.9810   67.5240  -27.3840 C   0  0  0  0  0  0  0  0  0  0  0  0
   46.3160   68.8500  -27.1040 C   0  0  0  0  0  0  0  0  0  0  0  0
   46.2750   69.4160  -25.7230 C   0  0  0  0  0  0  0  0  0  0  0  0
   45.2480   69.3280  -25.0530 O   0  0  0  0  0  0  0  0  0  0  0  0
   47.5020   70.1170  -25.1700 C   0  0  0  0  0  0  0  0  0  0  0  0
   47.1210   71.5130  -24.6510 C   0  0  1  0  0  0  0  0  0  0  0  0
   47.8040   71.8610  -23.3030 C   0  0  0  0  0  0  0  0  0  0  0  0
   48.8620   72.9820  -23.3690 C   0  0  0  0  0  0  0  0  0  0  0  0
   49.7620   72.8620  -24.6020 C   0  0  1  0  0  0  0  0  0  0  0  0
   50.4880   71.6310  -24.4700 O   0  0  0  0  0  0  0  0  0  0  0  0
   48.9640   72.7790  -25.9180 C   0  0  2  0  0  0  0  0  0  0  0  0
   48.8640   74.0440  -26.7630 C   0  0  2  0  0  0  0  0  0  0  0  0
   48.4330   75.1260  -25.9190 O   0  0  0  0  0  0  0  0  0  0  0  0
   47.7250   73.6970  -27.7480 C   0  0  2  0  0  0  0  0  0  0  0  0
   47.0660   74.9080  -28.1140 O   0  0  0  0  0  0  0  0  0  0  0  0
   46.7990   72.7330  -26.9600 C   0  0  0  0  0  0  0  0  0  0  0  0
   47.4770   72.5980  -25.6230 N   0  0  1  0  0  0  0  0  0  0  0  0
   46.7120   69.6850  -28.1520 C   0  0  0  0  0  0  0  0  0  0  0  0
   46.7650   69.1980  -29.4630 C   0  0  0  0  0  0  0  0  0  0  0  0
   47.7014   65.7365  -30.4342 H   0  0  0  0  0  0  0  0  0  0  0  0
   46.8627   65.3604  -31.9775 H   0  0  0  0  0  0  0  0  0  0  0  0
   48.3080   66.4271  -31.9775 H   0  0  0  0  0  0  0  0  0  0  0  0
   47.4517   69.3004  -31.5059 H   0  0  0  0  0  0  0  0  0  0  0  0
   47.8530   68.0837  -32.7650 H   0  0  0  0  0  0  0  0  0  0  0  0
   46.2421   68.8784  -32.7650 H   0  0  0  0  0  0  0  0  0  0  0  0
   44.4381   66.7908  -30.8357 H   0  0  0  0  0  0  0  0  0  0  0  0
   44.6649   67.7868  -32.3132 H   0  0  0  0  0  0  0  0  0  0  0  0
   45.1488   66.0569  -32.3132 H   0  0  0  0  0  0  0  0  0  0  0  0
   45.7655   65.9958  -28.9008 H   0  0  0  0  0  0  0  0  0  0  0  0
   45.6725   66.8534  -26.5685 H   0  0  0  0  0  0  0  0  0  0  0  0
   47.9197   69.5227  -24.3439 H   0  0  0  0  0  0  0  0  0  0  0  0
   48.2497   70.2210  -25.9701 H   0  0  0  0  0  0  0  0  0  0  0  0
   46.0306   71.4660  -24.5138 H   0  0  0  0  0  0  0  0  0  0  0  0
   47.0212   72.1739  -22.5964 H   0  0  0  0  0  0  0  0  0  0  0  0
   48.3420   70.9534  -22.9918 H   0  0  0  0  0  0  0  0  0  0  0  0
   48.3464   73.9532  -23.4009 H   0  0  0  0  0  0  0  0  0  0  0  0
   49.5003   72.8942  -22.4775 H   0  0  0  0  0  0  0  0  0  0  0  0
   50.4040   73.7540  -24.6484 H   0  0  0  0  0  0  0  0  0  0  0  0
   49.8610   70.8970  -24.6290 H   0  0  0  0  0  0  0  0  0  0  0  0
   49.5112   71.9768  -26.4347 H   0  0  0  0  0  0  0  0  0  0  0  0
   49.8053   74.3368  -27.2512 H   0  0  0  0  0  0  0  0  0  0  0  0
   47.4890   74.9370  -25.7130 H   0  0  0  0  0  0  0  0  0  0  0  0
   48.0627   73.2222  -28.6810 H   0  0  0  0  0  0  0  0  0  0  0  0
   47.2140   75.5750  -27.4150 H   0  0  0  0  0  0  0  0  0  0  0  0
   45.7921   73.1613  -26.8474 H   0  0  0  0  0  0  0  0  0  0  0  0
   46.6606   71.7665  -27.4667 H   0  0  0  0  0  0  0  0  0  0  0  0
   47.2140   73.4860  -25.1520 H   0  0  0  0  0  0  0  0  0  0  0  0
   46.9836   70.7308  -27.9455 H   0  0  0  0  0  0  0  0  0  0  0  0
   47.0772   69.8719  -30.2744 H   0  0  0  0  0  0  0  0  0  0  0  0
  1  2  1  0
  2  3  1  0
  2  4  1  0
  2  5  1  0
  5  6  2  0
  6  7  1  0
  7  8  2  0
  8  9  1  0
  9 10  2  0
  9 11  1  0
 11 12  1  0
 12 13  1  0
 13 14  1  0
 14 15  1  0
 15 16  1  0
 15 17  1  0
 17 18  1  0
 18 19  1  0
 18 20  1  0
 20 21  1  0
 20 22  1  0
 22 23  1  0
  8 24  1  0
 24 25  2  0
 25  5  1  0
 23 12  1  0
 23 17  1  0
  1 26  1  0
  1 27  1  0
  1 28  1  0
  3 29  1  0
  3 30  1  0
  3 31  1  0
  4 32  1  0
  4 33  1  0
  4 34  1  0
  6 35  1  0
  7 36  1  0
 11 37  1  0
 11 38  1  0
 12 39  1  1
 13 40  1  0
 13 41  1  0
 14 42  1  0
 14 43  1  0
 15 44  1  6
 16 45  1  0
 17 46  1  6
 18 47  1  6
 19 48  1  0
 20 49  1  6
 21 50  1  0
 22 51  1  0
 22 52  1  0
 23 53  1  1
 24 54  1  0
 25 55  1  0
M  CHG  1  23   1
M  END
>  <meeko>  (9) 
{"is_sidechain": [false], "free_energy": -5.277, "intermolecular_energy": -6.973, "internal_energy": -0.669}

$$$$
