2j7h_ligand
     RDKit          3D

 24 24  0  0  0  0  0  0  0  0999 V2000
    0.5240   12.4320   10.4720 O   0  0  0  0  0  0  0  0  0  0  0  0
    0.8390   11.6290    9.3240 C   0  0  0  0  0  0  0  0  0  0  0  0
   -0.1920   10.4970    9.3230 C   0  0  1  0  0  0  0  0  0  0  0  0
   -0.6460   10.3370   10.7660 N   0  0  0  0  0  0  0  0  0  0  0  0
   -1.6370    9.0960   10.8910 N   0  0  0  0  0  0  0  0  0  0  0  0
   -2.8360    9.3330   10.0080 C   0  0  0  0  0  0  0  0  0  0  0  0
   -2.4130    9.5720    8.5510 C   0  0  1  0  0  0  0  0  0  0  0  0
   -3.5820    9.9080    7.8120 O   0  0  0  0  0  0  0  0  0  0  0  0
   -1.4020   10.7260    8.4160 C   0  0  2  0  0  0  0  0  0  0  0  0
   -0.9460   10.7880    7.0690 O   0  0  0  0  0  0  0  0  0  0  0  0
   -0.0170   13.1890   10.1480 H   0  0  0  0  0  0  0  0  0  0  0  0
    0.7566   12.2252    8.4032 H   0  0  0  0  0  0  0  0  0  0  0  0
    1.8686   11.2440    9.3647 H   0  0  0  0  0  0  0  0  0  0  0  0
    0.2868    9.5954    8.9133 H   0  0  0  0  0  0  0  0  0  0  0  0
   -1.0390   11.2320   11.1250 H   0  0  0  0  0  0  0  0  0  0  0  0
    0.2470   10.2390   11.3130 H   0  0  0  0  0  0  0  0  0  0  0  0
   -1.1760    8.1940   10.6450 H   0  0  0  0  0  0  0  0  0  0  0  0
   -1.9630    8.9660   11.8720 H   0  0  0  0  0  0  0  0  0  0  0  0
   -3.4933    8.4520   10.0511 H   0  0  0  0  0  0  0  0  0  0  0  0
   -3.3637   10.2280   10.3692 H   0  0  0  0  0  0  0  0  0  0  0  0
   -1.9284    8.6589    8.1749 H   0  0  0  0  0  0  0  0  0  0  0  0
   -3.9890   10.7190    8.1820 H   0  0  0  0  0  0  0  0  0  0  0  0
   -1.9002   11.6626    8.7068 H   0  0  0  0  0  0  0  0  0  0  0  0
    0.0330   10.8490    7.0570 H   0  0  0  0  0  0  0  0  0  0  0  0
  1  2  1  0
  2  3  1  0
  3  4  1  0
  4  5  1  0
  5  6  1  0
  6  7  1  0
  7  8  1  0
  7  9  1  0
  9 10  1  0
  9  3  1  0
  1 11  1  0
  2 12  1  0
  2 13  1  0
  3 14  1  6
  4 15  1  0
  4 16  1  0
  5 17  1  0
  5 18  1  0
  6 19  1  0
  6 20  1  0
  7 21  1  6
  8 22  1  0
  9 23  1  1
 10 24  1  0
M  CHG  2   4   1   5   1
M  END
>  <meeko>  (1) 
{"is_sidechain": [false], "free_energy": -6.158, "intermolecular_energy": -7.058, "internal_energy": -0.032}

$$$$
2j7h_ligand
     RDKit          3D

 24 24  0  0  0  0  0  0  0  0999 V2000
   -1.0760    9.1480   12.3240 O   0  0  0  0  0  0  0  0  0  0  0  0
   -1.8840    8.9110   11.1600 C   0  0  0  0  0  0  0  0  0  0  0  0
   -1.6520   10.1190   10.2490 C   0  0  1  0  0  0  0  0  0  0  0  0
   -0.3550   10.7600   10.7190 N   0  0  0  0  0  0  0  0  0  0  0  0
   -0.0870   12.1040    9.9070 N   0  0  0  0  0  0  0  0  0  0  0  0
    0.0130   11.7800    8.4380 C   0  0  0  0  0  0  0  0  0  0  0  0
   -1.2510   11.0650    7.9410 C   0  0  1  0  0  0  0  0  0  0  0  0
   -1.0290   10.6850    6.5870 O   0  0  0  0  0  0  0  0  0  0  0  0
   -1.5670    9.7970    8.7570 C   0  0  2  0  0  0  0  0  0  0  0  0
   -2.8240    9.2770    8.3390 O   0  0  0  0  0  0  0  0  0  0  0  0
   -0.1500    9.2640   12.0070 H   0  0  0  0  0  0  0  0  0  0  0  0
   -1.5711    7.9842   10.6569 H   0  0  0  0  0  0  0  0  0  0  0  0
   -2.9467    8.7922   11.4179 H   0  0  0  0  0  0  0  0  0  0  0  0
   -2.5234   10.7852   10.3318 H   0  0  0  0  0  0  0  0  0  0  0  0
    0.4270   10.0740   10.6740 H   0  0  0  0  0  0  0  0  0  0  0  0
   -0.4880   10.8940   11.7540 H   0  0  0  0  0  0  0  0  0  0  0  0
   -0.8250   12.8220   10.0730 H   0  0  0  0  0  0  0  0  0  0  0  0
    0.7990   12.5630   10.2100 H   0  0  0  0  0  0  0  0  0  0  0  0
    0.1428   12.7144    7.8723 H   0  0  0  0  0  0  0  0  0  0  0  0
    0.8739   11.1124    8.2859 H   0  0  0  0  0  0  0  0  0  0  0  0
   -2.1033   11.7520    8.0484 H   0  0  0  0  0  0  0  0  0  0  0  0
   -1.0550   11.4770    6.0100 H   0  0  0  0  0  0  0  0  0  0  0  0
   -0.7632    9.0649    8.5898 H   0  0  0  0  0  0  0  0  0  0  0  0
   -3.2170    8.7470    9.0650 H   0  0  0  0  0  0  0  0  0  0  0  0
  1  2  1  0
  2  3  1  0
  3  4  1  0
  4  5  1  0
  5  6  1  0
  6  7  1  0
  7  8  1  0
  7  9  1  0
  9 10  1  0
  9  3  1  0
  1 11  1  0
  2 12  1  0
  2 13  1  0
  3 14  1  6
  4 15  1  0
  4 16  1  0
  5 17  1  0
  5 18  1  0
  6 19  1  0
  6 20  1  0
  7 21  1  6
  8 22  1  0
  9 23  1  1
 10 24  1  0
M  CHG  2   4   1   5   1
M  END
>  <meeko>  (2) 
{"is_sidechain": [false], "free_energy": -6.068, "intermolecular_energy": -6.957, "internal_energy": -0.03}

$$$$
2j7h_ligand
     RDKit          3D

 24 24  0  0  0  0  0  0  0  0999 V2000
    0.7540   12.7580   10.5460 O   0  0  0  0  0  0  0  0  0  0  0  0
    0.7660   11.7090    9.5670 C   0  0  0  0  0  0  0  0  0  0  0  0
   -0.5260   10.9210    9.7960 C   0  0  1  0  0  0  0  0  0  0  0  0
   -1.5490   11.4960    8.8280 N   0  0  0  0  0  0  0  0  0  0  0  0
   -2.9710   10.8200    9.0730 N   0  0  0  0  0  0  0  0  0  0  0  0
   -2.8530    9.3330    8.8570 C   0  0  0  0  0  0  0  0  0  0  0  0
   -1.7760    8.7240    9.7670 C   0  0  1  0  0  0  0  0  0  0  0  0
   -1.6400    7.3510    9.4170 O   0  0  0  0  0  0  0  0  0  0  0  0
   -0.4070    9.4100    9.5950 C   0  0  2  0  0  0  0  0  0  0  0  0
    0.4950    8.8980   10.5690 O   0  0  0  0  0  0  0  0  0  0  0  0
   -0.1320   12.7320   10.9780 H   0  0  0  0  0  0  0  0  0  0  0  0
    0.7839   12.1312    8.5514 H   0  0  0  0  0  0  0  0  0  0  0  0
    1.6562   11.0702    9.6643 H   0  0  0  0  0  0  0  0  0  0  0  0
   -0.8132   11.0309   10.8521 H   0  0  0  0  0  0  0  0  0  0  0  0
   -1.2060   11.4190    7.8480 H   0  0  0  0  0  0  0  0  0  0  0  0
   -1.5230   12.5330    9.0030 H   0  0  0  0  0  0  0  0  0  0  0  0
   -3.3470   11.0220   10.0250 H   0  0  0  0  0  0  0  0  0  0  0  0
   -3.6900   11.1980    8.4200 H   0  0  0  0  0  0  0  0  0  0  0  0
   -3.8207    8.8600    9.0800 H   0  0  0  0  0  0  0  0  0  0  0  0
   -2.5665    9.1545    7.8101 H   0  0  0  0  0  0  0  0  0  0  0  0
   -2.0874    8.8593   10.8133 H   0  0  0  0  0  0  0  0  0  0  0  0
   -1.0000    7.2570    8.6810 H   0  0  0  0  0  0  0  0  0  0  0  0
   -0.0423    9.2089    8.5769 H   0  0  0  0  0  0  0  0  0  0  0  0
    1.2570    9.5080   10.6620 H   0  0  0  0  0  0  0  0  0  0  0  0
  1  2  1  0
  2  3  1  0
  3  4  1  0
  4  5  1  0
  5  6  1  0
  6  7  1  0
  7  8  1  0
  7  9  1  0
  9 10  1  0
  9  3  1  0
  1 11  1  0
  2 12  1  0
  2 13  1  0
  3 14  1  1
  4 15  1  0
  4 16  1  0
  5 17  1  0
  5 18  1  0
  6 19  1  0
  6 20  1  0
  7 21  1  1
  8 22  1  0
  9 23  1  6
 10 24  1  0
M  CHG  2   4   1   5   1
M  END
>  <meeko>  (3) 
{"is_sidechain": [false], "free_energy": -5.843, "intermolecular_energy": -6.699, "internal_energy": -0.029}

$$$$
2j7h_ligand
     RDKit          3D

 24 24  0  0  0  0  0  0  0  0999 V2000
    1.0690   11.6390    8.1360 O   0  0  0  0  0  0  0  0  0  0  0  0
   -0.2710   11.9670    7.7350 C   0  0  0  0  0  0  0  0  0  0  0  0
   -1.1830   11.1370    8.6410 C   0  0  1  0  0  0  0  0  0  0  0  0
   -1.6270    9.9410    7.8110 N   0  0  0  0  0  0  0  0  0  0  0  0
   -2.6830    9.0730    8.6290 N   0  0  0  0  0  0  0  0  0  0  0  0
   -2.0410    8.5900    9.9050 C   0  0  0  0  0  0  0  0  0  0  0  0
   -1.5130    9.7670   10.7390 C   0  0  1  0  0  0  0  0  0  0  0  0
   -0.8180    9.2270   11.8570 O   0  0  0  0  0  0  0  0  0  0  0  0
   -0.5420   10.6600    9.9440 C   0  0  2  0  0  0  0  0  0  0  0  0
   -0.2160   11.8030   10.7270 O   0  0  0  0  0  0  0  0  0  0  0  0
    1.3540   10.8800    7.5770 H   0  0  0  0  0  0  0  0  0  0  0  0
   -0.4627   13.0409    7.8764 H   0  0  0  0  0  0  0  0  0  0  0  0
   -0.4439   11.7482    6.6709 H   0  0  0  0  0  0  0  0  0  0  0  0
   -2.0159   11.7763    8.9689 H   0  0  0  0  0  0  0  0  0  0  0  0
   -0.8000    9.4020    7.4790 H   0  0  0  0  0  0  0  0  0  0  0  0
   -2.0020   10.3620    6.9230 H   0  0  0  0  0  0  0  0  0  0  0  0
   -3.5560    9.6030    8.8380 H   0  0  0  0  0  0  0  0  0  0  0  0
   -3.0020    8.2450    8.0810 H   0  0  0  0  0  0  0  0  0  0  0  0
   -2.7867    8.0374   10.4954 H   0  0  0  0  0  0  0  0  0  0  0  0
   -1.1937    7.9386    9.6447 H   0  0  0  0  0  0  0  0  0  0  0  0
   -2.3674   10.3908   11.0403 H   0  0  0  0  0  0  0  0  0  0  0  0
   -0.7630    9.8960   12.5700 H   0  0  0  0  0  0  0  0  0  0  0  0
    0.3582   10.0729    9.7095 H   0  0  0  0  0  0  0  0  0  0  0  0
    0.0490   11.5180   11.6270 H   0  0  0  0  0  0  0  0  0  0  0  0
  1  2  1  0
  2  3  1  0
  3  4  1  0
  4  5  1  0
  5  6  1  0
  6  7  1  0
  7  8  1  0
  7  9  1  0
  9 10  1  0
  9  3  1  0
  1 11  1  0
  2 12  1  0
  2 13  1  0
  3 14  1  1
  4 15  1  0
  4 16  1  0
  5 17  1  0
  5 18  1  0
  6 19  1  0
  6 20  1  0
  7 21  1  1
  8 22  1  0
  9 23  1  6
 10 24  1  0
M  CHG  2   4   1   5   1
M  END
>  <meeko>  (4) 
{"is_sidechain": [false], "free_energy": -5.763, "intermolecular_energy": -6.393, "internal_energy": -0.244}

$$$$
2j7h_ligand
     RDKit          3D

 24 24  0  0  0  0  0  0  0  0999 V2000
   -4.0210    9.8320    8.8960 O   0  0  0  0  0  0  0  0  0  0  0  0
   -2.9770    8.9770    9.3860 C   0  0  0  0  0  0  0  0  0  0  0  0
   -1.6680    9.6930    9.0440 C   0  0  1  0  0  0  0  0  0  0  0  0
   -1.9350   10.4720    7.7640 N   0  0  0  0  0  0  0  0  0  0  0  0
   -0.5910   11.1610    7.2560 N   0  0  0  0  0  0  0  0  0  0  0  0
   -0.0850   12.0990    8.3220 C   0  0  0  0  0  0  0  0  0  0  0  0
    0.1280   11.3630    9.6530 C   0  0  1  0  0  0  0  0  0  0  0  0
    0.4840   12.3340   10.6310 O   0  0  0  0  0  0  0  0  0  0  0  0
   -1.1420   10.6330   10.1290 C   0  0  2  0  0  0  0  0  0  0  0  0
   -0.8270    9.8570   11.2800 O   0  0  0  0  0  0  0  0  0  0  0  0
   -3.6950   10.2200    8.0510 H   0  0  0  0  0  0  0  0  0  0  0  0
   -3.0689    8.8427   10.4739 H   0  0  0  0  0  0  0  0  0  0  0  0
   -3.0243    7.9751    8.9344 H   0  0  0  0  0  0  0  0  0  0  0  0
   -0.8781    8.9349    8.9380 H   0  0  0  0  0  0  0  0  0  0  0  0
   -2.7260   11.1350    7.9010 H   0  0  0  0  0  0  0  0  0  0  0  0
   -2.3380    9.7610    7.1030 H   0  0  0  0  0  0  0  0  0  0  0  0
    0.1430   10.4630    7.0070 H   0  0  0  0  0  0  0  0  0  0  0  0
   -0.7480   11.7030    6.3800 H   0  0  0  0  0  0  0  0  0  0  0  0
    0.8715   12.5322    7.9943 H   0  0  0  0  0  0  0  0  0  0  0  0
   -0.8353   12.8884    8.4764 H   0  0  0  0  0  0  0  0  0  0  0  0
    0.9133   10.6060    9.5104 H   0  0  0  0  0  0  0  0  0  0  0  0
    0.2960   11.9870   11.5280 H   0  0  0  0  0  0  0  0  0  0  0  0
   -1.9112   11.3849   10.3593 H   0  0  0  0  0  0  0  0  0  0  0  0
    0.0110   10.1790   11.6730 H   0  0  0  0  0  0  0  0  0  0  0  0
  1  2  1  0
  2  3  1  0
  3  4  1  0
  4  5  1  0
  5  6  1  0
  6  7  1  0
  7  8  1  0
  7  9  1  0
  9 10  1  0
  9  3  1  0
  1 11  1  0
  2 12  1  0
  2 13  1  0
  3 14  1  6
  4 15  1  0
  4 16  1  0
  5 17  1  0
  5 18  1  0
  6 19  1  0
  6 20  1  0
  7 21  1  6
  8 22  1  0
  9 23  1  1
 10 24  1  0
M  CHG  2   4   1   5   1
M  END
>  <meeko>  (5) 
{"is_sidechain": [false], "free_energy": -5.692, "intermolecular_energy": -6.522, "internal_energy": -0.033}

$$$$
2j7h_ligand
     RDKit          3D

 24 24  0  0  0  0  0  0  0  0999 V2000
    0.7620   11.8370    7.7630 O   0  0  0  0  0  0  0  0  0  0  0  0
   -0.1890   12.1190    8.8020 C   0  0  0  0  0  0  0  0  0  0  0  0
   -0.5020   10.7670    9.4480 C   0  0  1  0  0  0  0  0  0  0  0  0
   -0.9890   11.0750   10.8560 N   0  0  0  0  0  0  0  0  0  0  0  0
   -1.2280    9.7190   11.6570 N   0  0  0  0  0  0  0  0  0  0  0  0
   -2.2630    8.8950   10.9340 C   0  0  0  0  0  0  0  0  0  0  0  0
   -1.8410    8.6240    9.4830 C   0  0  1  0  0  0  0  0  0  0  0  0
   -2.9180    7.9540    8.8380 O   0  0  0  0  0  0  0  0  0  0  0  0
   -1.5390    9.9210    8.7080 C   0  0  2  0  0  0  0  0  0  0  0  0
   -1.0130    9.5860    7.4290 O   0  0  0  0  0  0  0  0  0  0  0  0
    1.6240   12.2090    8.0600 H   0  0  0  0  0  0  0  0  0  0  0  0
    0.2436   12.8079    9.5425 H   0  0  0  0  0  0  0  0  0  0  0  0
   -1.0948   12.6015    8.4061 H   0  0  0  0  0  0  0  0  0  0  0  0
    0.4113   10.1543    9.4255 H   0  0  0  0  0  0  0  0  0  0  0  0
   -1.8200   11.7020   10.8240 H   0  0  0  0  0  0  0  0  0  0  0  0
   -0.2440   11.6960   11.2620 H   0  0  0  0  0  0  0  0  0  0  0  0
   -0.3490    9.1720   11.7830 H   0  0  0  0  0  0  0  0  0  0  0  0
   -1.5640    9.9030   12.6270 H   0  0  0  0  0  0  0  0  0  0  0  0
   -2.3871    7.9353   11.4570 H   0  0  0  0  0  0  0  0  0  0  0  0
   -3.2095    9.4554   10.9230 H   0  0  0  0  0  0  0  0  0  0  0  0
   -0.9209    8.0213    9.4953 H   0  0  0  0  0  0  0  0  0  0  0  0
   -3.5140    7.5580    9.5080 H   0  0  0  0  0  0  0  0  0  0  0  0
   -2.4723   10.4952    8.6115 H   0  0  0  0  0  0  0  0  0  0  0  0
   -0.0570    9.8020    7.4020 H   0  0  0  0  0  0  0  0  0  0  0  0
  1  2  1  0
  2  3  1  0
  3  4  1  0
  4  5  1  0
  5  6  1  0
  6  7  1  0
  7  8  1  0
  7  9  1  0
  9 10  1  0
  9  3  1  0
  1 11  1  0
  2 12  1  0
  2 13  1  0
  3 14  1  1
  4 15  1  0
  4 16  1  0
  5 17  1  0
  5 18  1  0
  6 19  1  0
  6 20  1  0
  7 21  1  1
  8 22  1  0
  9 23  1  6
 10 24  1  0
M  CHG  2   4   1   5   1
M  END
>  <meeko>  (6) 
{"is_sidechain": [false], "free_energy": -5.533, "intermolecular_energy": -6.137, "internal_energy": -0.235}

$$$$
2j7h_ligand
     RDKit          3D

 24 24  0  0  0  0  0  0  0  0999 V2000
   -1.0840    9.1440   12.4120 O   0  0  0  0  0  0  0  0  0  0  0  0
   -1.8320    8.2210   11.6060 C   0  0  0  0  0  0  0  0  0  0  0  0
   -1.6250    8.6800   10.1600 C   0  0  1  0  0  0  0  0  0  0  0  0
   -2.9460    9.2910    9.7170 N   0  0  0  0  0  0  0  0  0  0  0  0
   -2.8700    9.6930    8.1780 N   0  0  0  0  0  0  0  0  0  0  0  0
   -1.7610   10.6950    7.9840 C   0  0  0  0  0  0  0  0  0  0  0  0
   -0.4190   10.1420    8.4880 C   0  0  1  0  0  0  0  0  0  0  0  0
    0.5440   11.1850    8.3860 O   0  0  0  0  0  0  0  0  0  0  0  0
   -0.4890    9.6840    9.9570 C   0  0  2  0  0  0  0  0  0  0  0  0
    0.7370    9.0500   10.3040 O   0  0  0  0  0  0  0  0  0  0  0  0
   -1.6280    9.3240   13.2140 H   0  0  0  0  0  0  0  0  0  0  0  0
   -1.4535    7.1972   11.7423 H   0  0  0  0  0  0  0  0  0  0  0  0
   -2.8968    8.2083   11.8817 H   0  0  0  0  0  0  0  0  0  0  0  0
   -1.3249    7.8075    9.5611 H   0  0  0  0  0  0  0  0  0  0  0  0
   -3.2130   10.0740   10.3480 H   0  0  0  0  0  0  0  0  0  0  0  0
   -3.6630    8.5560    9.9410 H   0  0  0  0  0  0  0  0  0  0  0  0
   -2.7260    8.8660    7.5580 H   0  0  0  0  0  0  0  0  0  0  0  0
   -3.7650   10.1150    7.8490 H   0  0  0  0  0  0  0  0  0  0  0  0
   -1.6729   10.9300    6.9130 H   0  0  0  0  0  0  0  0  0  0  0  0
   -2.0038   11.5998    8.5606 H   0  0  0  0  0  0  0  0  0  0  0  0
   -0.1523    9.2663    7.8781 H   0  0  0  0  0  0  0  0  0  0  0  0
    1.2120   11.0920    9.0960 H   0  0  0  0  0  0  0  0  0  0  0  0
   -0.6690   10.5657   10.5896 H   0  0  0  0  0  0  0  0  0  0  0  0
    1.0180    9.3470   11.1960 H   0  0  0  0  0  0  0  0  0  0  0  0
  1  2  1  0
  2  3  1  0
  3  4  1  0
  4  5  1  0
  5  6  1  0
  6  7  1  0
  7  8  1  0
  7  9  1  0
  9 10  1  0
  9  3  1  0
  1 11  1  0
  2 12  1  0
  2 13  1  0
  3 14  1  6
  4 15  1  0
  4 16  1  0
  5 17  1  0
  5 18  1  0
  6 19  1  0
  6 20  1  0
  7 21  1  6
  8 22  1  0
  9 23  1  1
 10 24  1  0
M  CHG  2   4   1   5   1
M  END
>  <meeko>  (7) 
{"is_sidechain": [false], "free_energy": -5.067, "intermolecular_energy": -5.611, "internal_energy": -0.228}

$$$$
2j7h_ligand
     RDKit          3D

 24 24  0  0  0  0  0  0  0  0999 V2000
    0.4380    7.2390    9.0170 O   0  0  0  0  0  0  0  0  0  0  0  0
    0.4490    7.9120   10.2850 C   0  0  0  0  0  0  0  0  0  0  0  0
   -0.4490    9.1380   10.1050 C   0  0  1  0  0  0  0  0  0  0  0  0
    0.4850   10.3170    9.8760 N   0  0  0  0  0  0  0  0  0  0  0  0
   -0.3530   11.6690    9.7950 N   0  0  0  0  0  0  0  0  0  0  0  0
   -1.3340   11.5740    8.6550 C   0  0  0  0  0  0  0  0  0  0  0  0
   -2.2510   10.3510    8.8120 C   0  0  1  0  0  0  0  0  0  0  0  0
   -3.0570   10.2620    7.6430 O   0  0  0  0  0  0  0  0  0  0  0  0
   -1.4570    9.0390    8.9590 C   0  0  2  0  0  0  0  0  0  0  0  0
   -2.3620    7.9800    9.2500 O   0  0  0  0  0  0  0  0  0  0  0  0
   -0.5060    7.0510    8.8050 H   0  0  0  0  0  0  0  0  0  0  0  0
    0.0499    7.2554   11.0722 H   0  0  0  0  0  0  0  0  0  0  0  0
    1.4680    8.1936   10.5887 H   0  0  0  0  0  0  0  0  0  0  0  0
   -1.0724    9.2427   11.0052 H   0  0  0  0  0  0  0  0  0  0  0  0
    1.0920   10.1440    9.0470 H   0  0  0  0  0  0  0  0  0  0  0  0
    1.1660   10.2720   10.6760 H   0  0  0  0  0  0  0  0  0  0  0  0
   -0.8510   11.8810   10.6870 H   0  0  0  0  0  0  0  0  0  0  0  0
    0.2650   12.4930    9.6380 H   0  0  0  0  0  0  0  0  0  0  0  0
   -1.9506   12.4847    8.6353 H   0  0  0  0  0  0  0  0  0  0  0  0
   -0.7691   11.4679    7.7171 H   0  0  0  0  0  0  0  0  0  0  0  0
   -2.8518   10.4813    9.7242 H   0  0  0  0  0  0  0  0  0  0  0  0
   -3.0170    9.3530    7.2790 H   0  0  0  0  0  0  0  0  0  0  0  0
   -0.9179    8.8504    8.0189 H   0  0  0  0  0  0  0  0  0  0  0  0
   -3.2680    8.3420    9.3500 H   0  0  0  0  0  0  0  0  0  0  0  0
  1  2  1  0
  2  3  1  0
  3  4  1  0
  4  5  1  0
  5  6  1  0
  6  7  1  0
  7  8  1  0
  7  9  1  0
  9 10  1  0
  9  3  1  0
  1 11  1  0
  2 12  1  0
  2 13  1  0
  3 14  1  1
  4 15  1  0
  4 16  1  0
  5 17  1  0
  5 18  1  0
  6 19  1  0
  6 20  1  0
  7 21  1  1
  8 22  1  0
  9 23  1  6
 10 24  1  0
M  CHG  2   4   1   5   1
M  END
>  <meeko>  (8) 
{"is_sidechain": [false], "free_energy": -4.968, "intermolecular_energy": -5.482, "internal_energy": -0.244}

$$$$
2j7h_ligand
     RDKit          3D

 24 24  0  0  0  0  0  0  0  0999 V2000
   -2.2480   11.5930    9.0760 O   0  0  0  0  0  0  0  0  0  0  0  0
   -1.3240   10.7980    8.3170 C   0  0  0  0  0  0  0  0  0  0  0  0
   -1.0610    9.5530    9.1690 C   0  0  1  0  0  0  0  0  0  0  0  0
    0.3440    9.7140    9.7310 N   0  0  0  0  0  0  0  0  0  0  0  0
    0.7600    8.4060   10.5390 N   0  0  0  0  0  0  0  0  0  0  0  0
   -0.2140    8.1950   11.6700 C   0  0  0  0  0  0  0  0  0  0  0  0
   -1.6560    8.1000   11.1490 C   0  0  1  0  0  0  0  0  0  0  0  0
   -2.5190    8.0260   12.2780 O   0  0  0  0  0  0  0  0  0  0  0  0
   -2.0570    9.3260   10.3070 C   0  0  2  0  0  0  0  0  0  0  0  0
   -3.3420    9.0980    9.7380 O   0  0  0  0  0  0  0  0  0  0  0  0
   -1.7440   12.3700    9.4110 H   0  0  0  0  0  0  0  0  0  0  0  0
   -1.7641   10.5158    7.3492 H   0  0  0  0  0  0  0  0  0  0  0  0
   -0.3962   11.3470    8.0987 H   0  0  0  0  0  0  0  0  0  0  0  0
   -1.1763    8.6666    8.5280 H   0  0  0  0  0  0  0  0  0  0  0  0
    0.4160   10.5950   10.2810 H   0  0  0  0  0  0  0  0  0  0  0  0
    0.9410    9.9160    8.8890 H   0  0  0  0  0  0  0  0  0  0  0  0
    0.8010    7.5600    9.9300 H   0  0  0  0  0  0  0  0  0  0  0  0
    1.7200    8.4920   10.9350 H   0  0  0  0  0  0  0  0  0  0  0  0
    0.0407    7.2619   12.1938 H   0  0  0  0  0  0  0  0  0  0  0  0
   -0.1460    9.0539   12.3539 H   0  0  0  0  0  0  0  0  0  0  0  0
   -1.7352    7.2127   10.5037 H   0  0  0  0  0  0  0  0  0  0  0  0
   -3.4180    8.3280   12.0310 H   0  0  0  0  0  0  0  0  0  0  0  0
   -2.0669   10.2104   10.9610 H   0  0  0  0  0  0  0  0  0  0  0  0
   -3.7220    8.2740   10.1100 H   0  0  0  0  0  0  0  0  0  0  0  0
  1  2  1  0
  2  3  1  0
  3  4  1  0
  4  5  1  0
  5  6  1  0
  6  7  1  0
  7  8  1  0
  7  9  1  0
  9 10  1  0
  9  3  1  0
  1 11  1  0
  2 12  1  0
  2 13  1  0
  3 14  1  6
  4 15  1  0
  4 16  1  0
  5 17  1  0
  5 18  1  0
  6 19  1  0
  6 20  1  0
  7 21  1  6
  8 22  1  0
  9 23  1  1
 10 24  1  0
M  CHG  2   4   1   5   1
M  END
>  <meeko>  (9) 
{"is_sidechain": [false], "free_energy": -4.427, "intermolecular_energy": -4.874, "internal_energy": -0.232}

$$$$
