2xj7_ligand
     RDKit          3D

 35 36  0  0  0  0  0  0  0  0999 V2000
    2.0790  -32.9130   30.4630 C   0  0  0  0  0  0  0  0  0  0  0  0
    1.4940  -32.5630   31.8030 C   0  0  0  0  0  0  0  0  0  0  0  0
    0.3690  -32.9050   32.1550 O   0  0  0  0  0  0  0  0  0  0  0  0
    2.3220  -31.8370   32.6320 N   0  0  0  0  0  0  0  0  0  0  0  0
    1.8010  -31.2500   33.8720 C   0  0  1  0  0  0  0  0  0  0  0  0
    0.3670  -30.6920   33.7170 C   0  0  0  0  0  0  0  0  0  0  0  0
   -0.5460  -30.9850   34.9020 N   0  0  2  0  0  0  0  0  0  0  0  0
   -1.6480  -29.9500   35.0070 C   0  0  0  0  0  0  0  0  0  0  0  0
   -1.1360  -28.9000   35.9960 C   0  0  0  0  0  0  0  0  0  0  0  0
    0.1800  -29.4350   36.5570 C   0  0  2  0  0  0  0  0  0  0  0  0
    1.2750  -28.8520   35.8540 O   0  0  0  0  0  0  0  0  0  0  0  0
    0.1010  -30.9410   36.2790 C   0  0  2  0  0  0  0  0  0  0  0  0
    1.4250  -31.7140   36.3460 C   0  0  1  0  0  0  0  0  0  0  0  0
    1.2380  -32.8380   37.2250 O   0  0  0  0  0  0  0  0  0  0  0  0
    1.8750  -32.2790   34.9970 C   0  0  2  0  0  0  0  0  0  0  0  0
    3.2110  -32.7940   35.1290 O   0  0  0  0  0  0  0  0  0  0  0  0
    3.0149  -33.4729   30.6064 H   0  0  0  0  0  0  0  0  0  0  0  0
    1.3639  -33.5318   29.9011 H   0  0  0  0  0  0  0  0  0  0  0  0
    2.2862  -31.9903   29.9011 H   0  0  0  0  0  0  0  0  0  0  0  0
    3.1090  -31.3600   32.1950 H   0  0  0  0  0  0  0  0  0  0  0  0
    2.4347  -30.3869   34.1239 H   0  0  0  0  0  0  0  0  0  0  0  0
    0.4324  -29.6010   33.5927 H   0  0  0  0  0  0  0  0  0  0  0  0
   -0.0759  -31.1932   32.8437 H   0  0  0  0  0  0  0  0  0  0  0  0
   -0.9670  -31.9150   34.7600 H   0  0  0  0  0  0  0  0  0  0  0  0
   -1.8387  -29.4917   34.0254 H   0  0  0  0  0  0  0  0  0  0  0  0
   -2.5949  -30.3974   35.3434 H   0  0  0  0  0  0  0  0  0  0  0  0
   -0.9678  -27.9430   35.4804 H   0  0  0  0  0  0  0  0  0  0  0  0
   -1.8664  -28.7214   36.7989 H   0  0  0  0  0  0  0  0  0  0  0  0
    0.3286  -29.2069   37.6228 H   0  0  0  0  0  0  0  0  0  0  0  0
    1.3320  -29.2800   34.9750 H   0  0  0  0  0  0  0  0  0  0  0  0
   -0.4652  -31.4612   37.0657 H   0  0  0  0  0  0  0  0  0  0  0  0
    2.1916  -31.0046   36.6910 H   0  0  0  0  0  0  0  0  0  0  0  0
    1.2750  -33.6460   36.6710 H   0  0  0  0  0  0  0  0  0  0  0  0
    1.1830  -33.0873   34.7182 H   0  0  0  0  0  0  0  0  0  0  0  0
    3.1900  -33.6240   35.6440 H   0  0  0  0  0  0  0  0  0  0  0  0
  1  2  1  0
  2  3  2  0
  2  4  1  0
  4  5  1  0
  5  6  1  0
  6  7  1  0
  7  8  1  0
  8  9  1  0
  9 10  1  0
 10 11  1  0
 10 12  1  0
 12 13  1  0
 13 14  1  0
 13 15  1  0
 15 16  1  0
 15  5  1  0
 12  7  1  0
  1 17  1  0
  1 18  1  0
  1 19  1  0
  4 20  1  0
  5 21  1  1
  6 22  1  0
  6 23  1  0
  7 24  1  6
  8 25  1  0
  8 26  1  0
  9 27  1  0
  9 28  1  0
 10 29  1  1
 11 30  1  0
 12 31  1  1
 13 32  1  1
 14 33  1  0
 15 34  1  6
 16 35  1  0
M  CHG  1   7   1
M  END
>  <meeko>  (1) 
{"is_sidechain": [false], "free_energy": -9.144, "intermolecular_energy": -10.481, "internal_energy": 0.504}

$$$$
2xj7_ligand
     RDKit          3D

 35 36  0  0  0  0  0  0  0  0999 V2000
    1.7290  -33.0940   30.5570 C   0  0  0  0  0  0  0  0  0  0  0  0
    1.8320  -32.1500   31.7220 C   0  0  0  0  0  0  0  0  0  0  0  0
    2.8690  -31.5680   32.0240 O   0  0  0  0  0  0  0  0  0  0  0  0
    0.6650  -31.9640   32.4310 N   0  0  0  0  0  0  0  0  0  0  0  0
    0.6800  -31.2430   33.7090 C   0  0  1  0  0  0  0  0  0  0  0  0
   -0.5290  -30.2940   33.8790 C   0  0  0  0  0  0  0  0  0  0  0  0
   -1.1360  -30.3030   35.2760 N   0  0  2  0  0  0  0  0  0  0  0  0
   -1.8370  -28.9920   35.5720 C   0  0  0  0  0  0  0  0  0  0  0  0
   -0.8070  -28.1300   36.3080 C   0  0  0  0  0  0  0  0  0  0  0  0
    0.4080  -29.0220   36.5590 C   0  0  2  0  0  0  0  0  0  0  0  0
    1.3920  -28.7860   35.5550 O   0  0  0  0  0  0  0  0  0  0  0  0
   -0.1590  -30.4410   36.4350 C   0  0  2  0  0  0  0  0  0  0  0  0
    0.8640  -31.5650   36.2270 C   0  0  1  0  0  0  0  0  0  0  0  0
    0.6150  -32.5810   37.2150 O   0  0  0  0  0  0  0  0  0  0  0  0
    0.7620  -32.2430   34.8590 C   0  0  2  0  0  0  0  0  0  0  0  0
    1.8870  -33.1240   34.6900 O   0  0  0  0  0  0  0  0  0  0  0  0
    1.6167  -34.1234   30.9280 H   0  0  0  0  0  0  0  0  0  0  0  0
    0.8546  -32.8273   29.9452 H   0  0  0  0  0  0  0  0  0  0  0  0
    2.6403  -33.0222   29.9452 H   0  0  0  0  0  0  0  0  0  0  0  0
   -0.0650  -32.6640   32.3080 H   0  0  0  0  0  0  0  0  0  0  0  0
    1.5719  -30.5993   33.7180 H   0  0  0  0  0  0  0  0  0  0  0  0
   -0.1983  -29.2696   33.6528 H   0  0  0  0  0  0  0  0  0  0  0  0
   -1.3105  -30.6501   33.1917 H   0  0  0  0  0  0  0  0  0  0  0  0
   -1.8220  -31.0710   35.3240 H   0  0  0  0  0  0  0  0  0  0  0  0
   -2.1482  -28.5035   34.6368 H   0  0  0  0  0  0  0  0  0  0  0  0
   -2.7451  -29.1434   36.1740 H   0  0  0  0  0  0  0  0  0  0  0  0
   -0.5226  -27.2665   35.6888 H   0  0  0  0  0  0  0  0  0  0  0  0
   -1.2163  -27.7417   37.2523 H   0  0  0  0  0  0  0  0  0  0  0  0
    0.8932  -28.8418   37.5296 H   0  0  0  0  0  0  0  0  0  0  0  0
    2.2710  -28.9770   35.9420 H   0  0  0  0  0  0  0  0  0  0  0  0
   -0.6162  -30.7693   37.3801 H   0  0  0  0  0  0  0  0  0  0  0  0
    1.8610  -31.1070   36.3059 H   0  0  0  0  0  0  0  0  0  0  0  0
   -0.2770  -32.4100   37.5840 H   0  0  0  0  0  0  0  0  0  0  0  0
   -0.1762  -32.8167   34.8318 H   0  0  0  0  0  0  0  0  0  0  0  0
    2.5080  -33.0040   35.4330 H   0  0  0  0  0  0  0  0  0  0  0  0
  1  2  1  0
  2  3  2  0
  2  4  1  0
  4  5  1  0
  5  6  1  0
  6  7  1  0
  7  8  1  0
  8  9  1  0
  9 10  1  0
 10 11  1  0
 10 12  1  0
 12 13  1  0
 13 14  1  0
 13 15  1  0
 15 16  1  0
 15  5  1  0
 12  7  1  0
  1 17  1  0
  1 18  1  0
  1 19  1  0
  4 20  1  0
  5 21  1  6
  6 22  1  0
  6 23  1  0
  7 24  1  6
  8 25  1  0
  8 26  1  0
  9 27  1  0
  9 28  1  0
 10 29  1  1
 11 30  1  0
 12 31  1  1
 13 32  1  1
 14 33  1  0
 15 34  1  1
 16 35  1  0
M  CHG  1   7   1
M  END
>  <meeko>  (2) 
{"is_sidechain": [false], "free_energy": -7.834, "intermolecular_energy": -8.335, "internal_energy": -0.141}

$$$$
2xj7_ligand
     RDKit          3D

 35 36  0  0  0  0  0  0  0  0999 V2000
    1.0510  -26.9360   39.0960 C   0  0  0  0  0  0  0  0  0  0  0  0
    1.2860  -27.5640   37.7500 C   0  0  0  0  0  0  0  0  0  0  0  0
    1.9740  -27.0430   36.8780 O   0  0  0  0  0  0  0  0  0  0  0  0
    0.6830  -28.7880   37.5620 N   0  0  0  0  0  0  0  0  0  0  0  0
    0.6520  -29.4040   36.2300 C   0  0  1  0  0  0  0  0  0  0  0  0
    1.3030  -30.8060   36.2000 C   0  0  0  0  0  0  0  0  0  0  0  0
    0.5460  -31.8260   35.3590 N   0  0  2  0  0  0  0  0  0  0  0  0
    1.4760  -32.9110   34.8530 C   0  0  0  0  0  0  0  0  0  0  0  0
    1.9080  -32.4650   33.4530 C   0  0  0  0  0  0  0  0  0  0  0  0
    1.0930  -31.2150   33.1240 C   0  0  2  0  0  0  0  0  0  0  0  0
    1.8700  -30.0510   33.3930 O   0  0  0  0  0  0  0  0  0  0  0  0
   -0.0990  -31.3030   34.0830 C   0  0  2  0  0  0  0  0  0  0  0  0
   -0.8920  -30.0070   34.2990 C   0  0  1  0  0  0  0  0  0  0  0  0
   -2.2830  -30.2940   34.0690 O   0  0  0  0  0  0  0  0  0  0  0  0
   -0.7860  -29.4510   35.7210 C   0  0  2  0  0  0  0  0  0  0  0  0
   -1.3830  -28.1440   35.7580 O   0  0  0  0  0  0  0  0  0  0  0  0
    1.3190  -27.6523   39.8866 H   0  0  0  0  0  0  0  0  0  0  0  0
    1.6722  -26.0334   39.1930 H   0  0  0  0  0  0  0  0  0  0  0  0
   -0.0101  -26.6629   39.1930 H   0  0  0  0  0  0  0  0  0  0  0  0
   -0.0780  -29.0310   38.1960 H   0  0  0  0  0  0  0  0  0  0  0  0
    1.2573  -28.7770   35.5588 H   0  0  0  0  0  0  0  0  0  0  0  0
    2.3189  -30.7063   35.7902 H   0  0  0  0  0  0  0  0  0  0  0  0
    1.2966  -31.1806   37.2342 H   0  0  0  0  0  0  0  0  0  0  0  0
   -0.1820  -32.2530   35.9500 H   0  0  0  0  0  0  0  0  0  0  0  0
    2.3510  -33.0049   35.5129 H   0  0  0  0  0  0  0  0  0  0  0  0
    0.9813  -33.8933   34.8321 H   0  0  0  0  0  0  0  0  0  0  0  0
    2.9828  -32.2310   33.4437 H   0  0  0  0  0  0  0  0  0  0  0  0
    1.7344  -33.2590   32.7118 H   0  0  0  0  0  0  0  0  0  0  0  0
    0.7851  -31.1549   32.0697 H   0  0  0  0  0  0  0  0  0  0  0  0
    2.2000  -30.1130   34.3120 H   0  0  0  0  0  0  0  0  0  0  0  0
   -0.8906  -31.9485   33.6748 H   0  0  0  0  0  0  0  0  0  0  0  0
   -0.4738  -29.2595   33.6088 H   0  0  0  0  0  0  0  0  0  0  0  0
   -2.6580  -29.5300   33.5830 H   0  0  0  0  0  0  0  0  0  0  0  0
   -1.3267  -30.1325   36.3942 H   0  0  0  0  0  0  0  0  0  0  0  0
   -1.1420  -27.6990   36.5930 H   0  0  0  0  0  0  0  0  0  0  0  0
  1  2  1  0
  2  3  2  0
  2  4  1  0
  4  5  1  0
  5  6  1  0
  6  7  1  0
  7  8  1  0
  8  9  1  0
  9 10  1  0
 10 11  1  0
 10 12  1  0
 12 13  1  0
 13 14  1  0
 13 15  1  0
 15 16  1  0
 15  5  1  0
 12  7  1  0
  1 17  1  0
  1 18  1  0
  1 19  1  0
  4 20  1  0
  5 21  1  6
  6 22  1  0
  6 23  1  0
  7 24  1  1
  8 25  1  0
  8 26  1  0
  9 27  1  0
  9 28  1  0
 10 29  1  6
 11 30  1  0
 12 31  1  6
 13 32  1  6
 14 33  1  0
 15 34  1  1
 16 35  1  0
M  CHG  1   7   1
M  END
>  <meeko>  (3) 
{"is_sidechain": [false], "free_energy": -6.577, "intermolecular_energy": -6.853, "internal_energy": -0.182}

$$$$
2xj7_ligand
     RDKit          3D

 35 36  0  0  0  0  0  0  0  0999 V2000
    2.3190  -32.4920   31.4550 C   0  0  0  0  0  0  0  0  0  0  0  0
    1.4200  -31.8950   32.5020 C   0  0  0  0  0  0  0  0  0  0  0  0
    0.2130  -31.7420   32.3420 O   0  0  0  0  0  0  0  0  0  0  0  0
    2.0450  -31.5420   33.6780 N   0  0  0  0  0  0  0  0  0  0  0  0
    1.3310  -30.7570   34.6910 C   0  0  1  0  0  0  0  0  0  0  0  0
    1.1650  -29.2720   34.2940 C   0  0  0  0  0  0  0  0  0  0  0  0
   -0.2030  -28.6880   34.6260 N   0  0  2  0  0  0  0  0  0  0  0  0
   -0.1210  -27.1870   34.8160 C   0  0  0  0  0  0  0  0  0  0  0  0
    0.0480  -26.9690   36.3220 C   0  0  0  0  0  0  0  0  0  0  0  0
   -0.1000  -28.3400   36.9790 C   0  0  2  0  0  0  0  0  0  0  0  0
    1.1890  -28.8930   37.2320 O   0  0  0  0  0  0  0  0  0  0  0  0
   -0.8430  -29.1650   35.9220 C   0  0  2  0  0  0  0  0  0  0  0  0
   -0.7930  -30.6890   36.0920 C   0  0  1  0  0  0  0  0  0  0  0  0
   -2.1420  -31.1860   36.0460 O   0  0  0  0  0  0  0  0  0  0  0  0
   -0.0200  -31.4050   34.9830 C   0  0  2  0  0  0  0  0  0  0  0  0
    0.1450  -32.7870   35.3460 O   0  0  0  0  0  0  0  0  0  0  0  0
    3.1398  -33.0371   31.9440 H   0  0  0  0  0  0  0  0  0  0  0  0
    1.7406  -33.1860   30.8275 H   0  0  0  0  0  0  0  0  0  0  0  0
    2.7343  -31.6896   30.8275 H   0  0  0  0  0  0  0  0  0  0  0  0
    3.0580  -31.4380   33.6490 H   0  0  0  0  0  0  0  0  0  0  0  0
    1.9426  -30.7581   35.6053 H   0  0  0  0  0  0  0  0  0  0  0  0
    1.9291  -28.6851   34.8247 H   0  0  0  0  0  0  0  0  0  0  0  0
    1.2742  -29.2220   33.2006 H   0  0  0  0  0  0  0  0  0  0  0  0
   -0.8400  -28.8960   33.8430 H   0  0  0  0  0  0  0  0  0  0  0  0
    0.7418  -26.7778   34.2700 H   0  0  0  0  0  0  0  0  0  0  0  0
   -1.0173  -26.6792   34.4302 H   0  0  0  0  0  0  0  0  0  0  0  0
    1.0426  -26.5506   36.5360 H   0  0  0  0  0  0  0  0  0  0  0  0
   -0.7002  -26.2608   36.7074 H   0  0  0  0  0  0  0  0  0  0  0  0
   -0.6287  -28.3107   37.9432 H   0  0  0  0  0  0  0  0  0  0  0  0
    1.2740  -29.7140   36.7050 H   0  0  0  0  0  0  0  0  0  0  0  0
   -1.9291  -29.0008   35.9812 H   0  0  0  0  0  0  0  0  0  0  0  0
   -0.2818  -30.8865   37.0457 H   0  0  0  0  0  0  0  0  0  0  0  0
   -2.4470  -31.1070   35.1180 H   0  0  0  0  0  0  0  0  0  0  0  0
   -0.6041  -31.3244   34.0544 H   0  0  0  0  0  0  0  0  0  0  0  0
    1.0240  -32.9130   35.7530 H   0  0  0  0  0  0  0  0  0  0  0  0
  1  2  1  0
  2  3  2  0
  2  4  1  0
  4  5  1  0
  5  6  1  0
  6  7  1  0
  7  8  1  0
  8  9  1  0
  9 10  1  0
 10 11  1  0
 10 12  1  0
 12 13  1  0
 13 14  1  0
 13 15  1  0
 15 16  1  0
 15  5  1  0
 12  7  1  0
  1 17  1  0
  1 18  1  0
  1 19  1  0
  4 20  1  0
  5 21  1  1
  6 22  1  0
  6 23  1  0
  7 24  1  6
  8 25  1  0
  8 26  1  0
  9 27  1  0
  9 28  1  0
 10 29  1  1
 11 30  1  0
 12 31  1  6
 13 32  1  1
 14 33  1  0
 15 34  1  6
 16 35  1  0
M  CHG  1   7   1
M  END
>  <meeko>  (4) 
{"is_sidechain": [false], "free_energy": -6.467, "intermolecular_energy": -7.426, "internal_energy": 0.518}

$$$$
