3e5a_ligand
     RDKit          3D

 63 67  0  0  0  0  0  0  0  0999 V2000
   28.1320   27.2910   14.9810 C   0  0  0  0  0  0  0  0  0  0  0  0
   26.8500   27.8830   15.4370 C   0  0  0  0  0  0  0  0  0  0  0  0
   26.5000   28.3260   16.7360 C   0  0  0  0  0  0  0  0  0  0  0  0
   25.2220   28.8260   16.6170 C   0  0  0  0  0  0  0  0  0  0  0  0
   24.4070   29.3910   17.5440 N   0  0  0  0  0  0  0  0  0  0  0  0
   24.3320   29.0820   18.9100 C   0  0  0  0  0  0  0  0  0  0  0  0
   23.2450   29.4210   19.7380 C   0  0  0  0  0  0  0  0  0  0  0  0
   23.2530   29.0710   21.0820 C   0  0  0  0  0  0  0  0  0  0  0  0
   22.1820   29.3700   21.9430 N   0  0  0  0  0  0  0  0  0  0  0  0
   20.9210   29.7310   21.2250 C   0  0  0  0  0  0  0  0  0  0  0  0
   19.8340   30.3130   22.1600 C   0  0  0  0  0  0  0  0  0  0  0  0
   20.1440   30.0240   23.6230 N   0  0  0  0  0  0  0  0  0  0  0  0
   18.9970   30.3720   24.5220 C   0  0  0  0  0  0  0  0  0  0  0  0
   20.6340   28.6050   23.7950 C   0  0  0  0  0  0  0  0  0  0  0  0
   22.0010   28.4300   23.0830 C   0  0  0  0  0  0  0  0  0  0  0  0
   24.2950   28.3900   21.5660 N   0  0  0  0  0  0  0  0  0  0  0  0
   25.3240   28.0770   20.7500 C   0  0  0  0  0  0  0  0  0  0  0  0
   26.7190   27.1780   21.3960 S   0  0  0  0  0  0  0  0  0  0  0  0
   27.3910   26.4750   19.8970 C   0  0  0  0  0  0  0  0  0  0  0  0
   26.8320   25.3170   19.3500 C   0  0  0  0  0  0  0  0  0  0  0  0
   27.4830   24.6450   18.3080 C   0  0  0  0  0  0  0  0  0  0  0  0
   28.7180   25.1050   17.8480 C   0  0  0  0  0  0  0  0  0  0  0  0
   29.4310   24.3190   16.9270 N   0  0  0  0  0  0  0  0  0  0  0  0
   30.7820   24.0540   17.0130 C   0  0  0  0  0  0  0  0  0  0  0  0
   31.5180   24.3330   17.9560 O   0  0  0  0  0  0  0  0  0  0  0  0
   31.3050   23.2510   15.8780 C   0  0  0  0  0  0  0  0  0  0  0  0
   31.9690   23.9520   14.7150 C   0  0  0  0  0  0  0  0  0  0  0  0
   30.6390   23.2830   14.5220 C   0  0  0  0  0  0  0  0  0  0  0  0
   29.2170   26.3200   18.3180 C   0  0  0  0  0  0  0  0  0  0  0  0
   28.5430   27.0180   19.3200 C   0  0  0  0  0  0  0  0  0  0  0  0
   25.3520   28.4180   19.4650 N   0  0  0  0  0  0  0  0  0  0  0  0
   24.8440   28.5230   15.3330 N   0  0  0  0  0  0  0  0  0  0  0  0
   25.8430   28.0640   14.5750 N   0  0  0  0  0  0  0  0  0  0  0  0
   28.7381   27.0111   15.8552 H   0  0  0  0  0  0  0  0  0  0  0  0
   27.9276   26.3961   14.3749 H   0  0  0  0  0  0  0  0  0  0  0  0
   28.6806   28.0269   14.3749 H   0  0  0  0  0  0  0  0  0  0  0  0
   27.1169   28.2805   17.6456 H   0  0  0  0  0  0  0  0  0  0  0  0
   23.6420   29.9530   17.1700 H   0  0  0  0  0  0  0  0  0  0  0  0
   22.3859   29.9653   19.3188 H   0  0  0  0  0  0  0  0  0  0  0  0
   21.1587   30.4805   20.4558 H   0  0  0  0  0  0  0  0  0  0  0  0
   20.5164   28.8059   20.7885 H   0  0  0  0  0  0  0  0  0  0  0  0
   19.7823   31.4020   22.0138 H   0  0  0  0  0  0  0  0  0  0  0  0
   18.8735   29.8387   21.9102 H   0  0  0  0  0  0  0  0  0  0  0  0
   20.9330   30.6410   23.8610 H   0  0  0  0  0  0  0  0  0  0  0  0
   19.3118   30.2765   25.5717 H   0  0  0  0  0  0  0  0  0  0  0  0
   18.6793   31.4070   24.3272 H   0  0  0  0  0  0  0  0  0  0  0  0
   18.1578   29.6880   24.3272 H   0  0  0  0  0  0  0  0  0  0  0  0
   20.7501   28.3863   24.8668 H   0  0  0  0  0  0  0  0  0  0  0  0
   19.9030   27.9126   23.3520 H   0  0  0  0  0  0  0  0  0  0  0  0
   22.8034   28.6061   23.8145 H   0  0  0  0  0  0  0  0  0  0  0  0
   22.0351   27.4078   22.6781 H   0  0  0  0  0  0  0  0  0  0  0  0
   25.8778   24.9321   19.7390 H   0  0  0  0  0  0  0  0  0  0  0  0
   27.0219   23.7561   17.8528 H   0  0  0  0  0  0  0  0  0  0  0  0
   28.8990   23.7620   16.2670 H   0  0  0  0  0  0  0  0  0  0  0  0
   31.5806   22.4516   16.5816 H   0  0  0  0  0  0  0  0  0  0  0  0
   32.0388   25.0497   14.7024 H   0  0  0  0  0  0  0  0  0  0  0  0
   32.9514   23.8831   14.2249 H   0  0  0  0  0  0  0  0  0  0  0  0
   29.7354   23.8911   14.3680 H   0  0  0  0  0  0  0  0  0  0  0  0
   30.2456   22.5219   13.8321 H   0  0  0  0  0  0  0  0  0  0  0  0
   30.1467   26.7296   17.8963 H   0  0  0  0  0  0  0  0  0  0  0  0
   28.9179   27.9959   19.6564 H   0  0  0  0  0  0  0  0  0  0  0  0
   26.1580   28.1300   18.9220 H   0  0  0  0  0  0  0  0  0  0  0  0
   23.9310   28.6040   14.9040 H   0  0  0  0  0  0  0  0  0  0  0  0
  1  2  1  0
  2  3  1  0
  3  4  2  0
  4  5  1  0
  5  6  1  0
  6  7  2  0
  7  8  1  0
  8  9  1  0
  9 10  1  0
 10 11  1  0
 11 12  1  0
 12 13  1  0
 12 14  1  0
 14 15  1  0
  8 16  2  0
 16 17  1  0
 17 18  1  0
 18 19  1  0
 19 20  2  0
 20 21  1  0
 21 22  2  0
 22 23  1  0
 23 24  1  0
 24 25  2  0
 24 26  1  0
 26 27  1  0
 27 28  1  0
 22 29  1  0
 29 30  2  0
 17 31  2  0
  4 32  1  0
 32 33  1  0
 33  2  2  0
 31  6  1  0
 15  9  1  0
 30 19  1  0
 28 26  1  0
  1 34  1  0
  1 35  1  0
  1 36  1  0
  3 37  1  0
  5 38  1  0
  7 39  1  0
 10 40  1  0
 10 41  1  0
 11 42  1  0
 11 43  1  0
 12 44  1  0
 13 45  1  0
 13 46  1  0
 13 47  1  0
 14 48  1  0
 14 49  1  0
 15 50  1  0
 15 51  1  0
 20 52  1  0
 21 53  1  0
 23 54  1  0
 26 55  1  0
 27 56  1  0
 27 57  1  0
 28 58  1  0
 28 59  1  0
 29 60  1  0
 30 61  1  0
 31 62  1  0
 32 63  1  0
M  CHG  2  12   1  31   1
M  END
>  <meeko>  (1) 
{"is_sidechain": [false], "free_energy": -9.464, "intermolecular_energy": -13.337, "internal_energy": -0.831}

$$$$
3e5a_ligand
     RDKit          3D

 63 67  0  0  0  0  0  0  0  0999 V2000
   29.1120   26.8680   14.8000 C   0  0  0  0  0  0  0  0  0  0  0  0
   27.7740   27.4580   15.0530 C   0  0  0  0  0  0  0  0  0  0  0  0
   27.3270   28.1620   16.1980 C   0  0  0  0  0  0  0  0  0  0  0  0
   26.0310   28.5310   15.9150 C   0  0  0  0  0  0  0  0  0  0  0  0
   25.1330   29.2340   16.6510 N   0  0  0  0  0  0  0  0  0  0  0  0
   24.7910   29.0280   17.9960 C   0  0  0  0  0  0  0  0  0  0  0  0
   23.5120   29.2730   18.5310 C   0  0  0  0  0  0  0  0  0  0  0  0
   23.2600   29.0370   19.8760 C   0  0  0  0  0  0  0  0  0  0  0  0
   21.9940   29.2460   20.4510 N   0  0  0  0  0  0  0  0  0  0  0  0
   21.8940   28.7720   21.8660 C   0  0  0  0  0  0  0  0  0  0  0  0
   20.4420   28.7570   22.4010 C   0  0  0  0  0  0  0  0  0  0  0  0
   19.5150   29.5850   21.5220 N   0  0  0  0  0  0  0  0  0  0  0  0
   18.1650   29.7750   22.1460 C   0  0  0  0  0  0  0  0  0  0  0  0
   20.1780   30.8810   21.1170 C   0  0  0  0  0  0  0  0  0  0  0  0
   21.3950   30.5860   20.2020 C   0  0  0  0  0  0  0  0  0  0  0  0
   24.2410   28.5530   20.6430 N   0  0  0  0  0  0  0  0  0  0  0  0
   25.4580   28.3280   20.1040 C   0  0  0  0  0  0  0  0  0  0  0  0
   26.7700   27.6940   21.1270 S   0  0  0  0  0  0  0  0  0  0  0  0
   27.5490   26.5430   20.0020 C   0  0  0  0  0  0  0  0  0  0  0  0
   28.7530   26.8760   19.3750 C   0  0  0  0  0  0  0  0  0  0  0  0
   29.2510   26.0790   18.3380 C   0  0  0  0  0  0  0  0  0  0  0  0
   28.5180   24.9760   17.8940 C   0  0  0  0  0  0  0  0  0  0  0  0
   28.9500   24.2970   16.7430 N   0  0  0  0  0  0  0  0  0  0  0  0
   29.6650   23.1180   16.7570 C   0  0  0  0  0  0  0  0  0  0  0  0
   29.9020   22.4250   17.7430 O   0  0  0  0  0  0  0  0  0  0  0  0
   30.0560   22.6420   15.4050 C   0  0  0  0  0  0  0  0  0  0  0  0
   31.5200   22.5480   15.0440 C   0  0  0  0  0  0  0  0  0  0  0  0
   30.6550   23.5820   14.3850 C   0  0  0  0  0  0  0  0  0  0  0  0
   27.3760   24.5840   18.5940 C   0  0  0  0  0  0  0  0  0  0  0  0
   26.9060   25.3490   19.6610 C   0  0  0  0  0  0  0  0  0  0  0  0
   25.7330   28.5650   18.8240 N   0  0  0  0  0  0  0  0  0  0  0  0
   25.7430   27.9150   14.7220 N   0  0  0  0  0  0  0  0  0  0  0  0
   26.8080   27.3650   14.1320 N   0  0  0  0  0  0  0  0  0  0  0  0
   29.6044   26.6509   15.7594 H   0  0  0  0  0  0  0  0  0  0  0  0
   28.9993   25.9361   14.2265 H   0  0  0  0  0  0  0  0  0  0  0  0
   29.7241   27.5797   14.2265 H   0  0  0  0  0  0  0  0  0  0  0  0
   27.8943   28.3696   17.1173 H   0  0  0  0  0  0  0  0  0  0  0  0
   24.5100   29.8410   16.1190 H   0  0  0  0  0  0  0  0  0  0  0  0
   22.7096   29.6527   17.8814 H   0  0  0  0  0  0  0  0  0  0  0  0
   22.2982   27.7505   21.9222 H   0  0  0  0  0  0  0  0  0  0  0  0
   22.4652   29.4763   22.4886 H   0  0  0  0  0  0  0  0  0  0  0  0
   20.0801   27.7185   22.4235 H   0  0  0  0  0  0  0  0  0  0  0  0
   20.4416   29.1938   23.4106 H   0  0  0  0  0  0  0  0  0  0  0  0
   19.3930   29.0340   20.6610 H   0  0  0  0  0  0  0  0  0  0  0  0
   18.2623   29.7613   23.2416 H   0  0  0  0  0  0  0  0  0  0  0  0
   17.7463   30.7409   21.8271 H   0  0  0  0  0  0  0  0  0  0  0  0
   17.4960   28.9622   21.8271 H   0  0  0  0  0  0  0  0  0  0  0  0
   19.4551   31.5063   20.5726 H   0  0  0  0  0  0  0  0  0  0  0  0
   20.5214   31.4100   22.0182 H   0  0  0  0  0  0  0  0  0  0  0  0
   21.0660   30.6343   19.1535 H   0  0  0  0  0  0  0  0  0  0  0  0
   22.1656   31.3390   20.4236 H   0  0  0  0  0  0  0  0  0  0  0  0
   29.3109   27.7674   19.6977 H   0  0  0  0  0  0  0  0  0  0  0  0
   30.2182   26.3208   17.8733 H   0  0  0  0  0  0  0  0  0  0  0  0
   28.5610   24.5820   15.8500 H   0  0  0  0  0  0  0  0  0  0  0  0
   29.1965   21.9556   15.4082 H   0  0  0  0  0  0  0  0  0  0  0  0
   32.2860   22.8551   15.7713 H   0  0  0  0  0  0  0  0  0  0  0  0
   32.1812   21.7456   14.6850 H   0  0  0  0  0  0  0  0  0  0  0  0
   30.7876   24.6462   14.6298 H   0  0  0  0  0  0  0  0  0  0  0  0
   30.4210   23.8497   13.3440 H   0  0  0  0  0  0  0  0  0  0  0  0
   26.8437   23.6666   18.3024 H   0  0  0  0  0  0  0  0  0  0  0  0
   26.0294   25.0132   20.2344 H   0  0  0  0  0  0  0  0  0  0  0  0
   26.6700   28.3530   18.5000 H   0  0  0  0  0  0  0  0  0  0  0  0
   24.8510   27.8310   14.2490 H   0  0  0  0  0  0  0  0  0  0  0  0
  1  2  1  0
  2  3  1  0
  3  4  2  0
  4  5  1  0
  5  6  1  0
  6  7  2  0
  7  8  1  0
  8  9  1  0
  9 10  1  0
 10 11  1  0
 11 12  1  0
 12 13  1  0
 12 14  1  0
 14 15  1  0
  8 16  2  0
 16 17  1  0
 17 18  1  0
 18 19  1  0
 19 20  2  0
 20 21  1  0
 21 22  2  0
 22 23  1  0
 23 24  1  0
 24 25  2  0
 24 26  1  0
 26 27  1  0
 27 28  1  0
 22 29  1  0
 29 30  2  0
 17 31  2  0
  4 32  1  0
 32 33  1  0
 33  2  2  0
 31  6  1  0
 15  9  1  0
 30 19  1  0
 28 26  1  0
  1 34  1  0
  1 35  1  0
  1 36  1  0
  3 37  1  0
  5 38  1  0
  7 39  1  0
 10 40  1  0
 10 41  1  0
 11 42  1  0
 11 43  1  0
 12 44  1  0
 13 45  1  0
 13 46  1  0
 13 47  1  0
 14 48  1  0
 14 49  1  0
 15 50  1  0
 15 51  1  0
 20 52  1  0
 21 53  1  0
 23 54  1  0
 26 55  1  0
 27 56  1  0
 27 57  1  0
 28 58  1  0
 28 59  1  0
 29 60  1  0
 30 61  1  0
 31 62  1  0
 32 63  1  0
M  CHG  2  12   1  31   1
M  END
>  <meeko>  (2) 
{"is_sidechain": [false], "free_energy": -9.429, "intermolecular_energy": -13.037, "internal_energy": -1.082}

$$$$
3e5a_ligand
     RDKit          3D

 63 67  0  0  0  0  0  0  0  0999 V2000
   27.4010   21.5430   26.6110 C   0  0  0  0  0  0  0  0  0  0  0  0
   26.3900   22.4940   26.0850 C   0  0  0  0  0  0  0  0  0  0  0  0
   25.6960   22.4440   24.8510 C   0  0  0  0  0  0  0  0  0  0  0  0
   24.8480   23.5290   24.8670 C   0  0  0  0  0  0  0  0  0  0  0  0
   23.9460   23.9570   23.9480 N   0  0  0  0  0  0  0  0  0  0  0  0
   23.9520   25.1770   23.2550 C   0  0  0  0  0  0  0  0  0  0  0  0
   22.7950   25.9240   22.9630 C   0  0  0  0  0  0  0  0  0  0  0  0
   22.8950   27.1270   22.2750 C   0  0  0  0  0  0  0  0  0  0  0  0
   21.7700   27.9180   21.9780 N   0  0  0  0  0  0  0  0  0  0  0  0
   20.6920   27.8350   23.0100 C   0  0  0  0  0  0  0  0  0  0  0  0
   19.3630   28.4860   22.5550 C   0  0  0  0  0  0  0  0  0  0  0  0
   19.5700   29.3900   21.3480 N   0  0  0  0  0  0  0  0  0  0  0  0
   18.3510   30.2050   21.0370 C   0  0  0  0  0  0  0  0  0  0  0  0
   20.8230   30.2180   21.5090 C   0  0  0  0  0  0  0  0  0  0  0  0
   22.0690   29.2950   21.5010 C   0  0  0  0  0  0  0  0  0  0  0  0
   24.1040   27.5710   21.9190 N   0  0  0  0  0  0  0  0  0  0  0  0
   25.1960   26.8340   22.2130 C   0  0  0  0  0  0  0  0  0  0  0  0
   26.8070   27.4180   21.7310 S   0  0  0  0  0  0  0  0  0  0  0  0
   26.9770   26.6510   20.1250 C   0  0  0  0  0  0  0  0  0  0  0  0
   26.7570   25.2790   19.9730 C   0  0  0  0  0  0  0  0  0  0  0  0
   27.0970   24.6390   18.7750 C   0  0  0  0  0  0  0  0  0  0  0  0
   27.7030   25.3640   17.7470 C   0  0  0  0  0  0  0  0  0  0  0  0
   28.1920   24.6690   16.6290 N   0  0  0  0  0  0  0  0  0  0  0  0
   29.4170   24.0360   16.5800 C   0  0  0  0  0  0  0  0  0  0  0  0
   30.1820   23.8630   17.5250 O   0  0  0  0  0  0  0  0  0  0  0  0
   29.7230   23.4300   15.2590 C   0  0  0  0  0  0  0  0  0  0  0  0
   31.0090   23.7940   14.5540 C   0  0  0  0  0  0  0  0  0  0  0  0
   29.6960   24.2550   13.9930 C   0  0  0  0  0  0  0  0  0  0  0  0
   27.8190   26.7500   17.8600 C   0  0  0  0  0  0  0  0  0  0  0  0
   27.4330   27.3960   19.0340 C   0  0  0  0  0  0  0  0  0  0  0  0
   25.1280   25.6690   22.8520 N   0  0  0  0  0  0  0  0  0  0  0  0
   25.1840   24.2210   26.0040 N   0  0  0  0  0  0  0  0  0  0  0  0
   26.0220   23.5590   26.8060 N   0  0  0  0  0  0  0  0  0  0  0  0
   27.3830   21.5599   27.7107 H   0  0  0  0  0  0  0  0  0  0  0  0
   27.1692   20.5280   26.2560 H   0  0  0  0  0  0  0  0  0  0  0  0
   28.4000   21.8364   26.2560 H   0  0  0  0  0  0  0  0  0  0  0  0
   25.8101   21.6978   24.0509 H   0  0  0  0  0  0  0  0  0  0  0  0
   23.0790   23.4220   23.9040 H   0  0  0  0  0  0  0  0  0  0  0  0
   21.8089   25.5542   23.2805 H   0  0  0  0  0  0  0  0  0  0  0  0
   20.5034   26.7748   23.2346 H   0  0  0  0  0  0  0  0  0  0  0  0
   21.0417   28.3879   23.8943 H   0  0  0  0  0  0  0  0  0  0  0  0
   18.6488   27.6927   22.2893 H   0  0  0  0  0  0  0  0  0  0  0  0
   18.9771   29.0985   23.3832 H   0  0  0  0  0  0  0  0  0  0  0  0
   19.7360   28.7520   20.5570 H   0  0  0  0  0  0  0  0  0  0  0  0
   17.8739   30.5239   21.9755 H   0  0  0  0  0  0  0  0  0  0  0  0
   18.6414   31.0912   20.4537 H   0  0  0  0  0  0  0  0  0  0  0  0
   17.6431   29.5979   20.4537 H   0  0  0  0  0  0  0  0  0  0  0  0
   20.8953   30.9358   20.6786 H   0  0  0  0  0  0  0  0  0  0  0  0
   20.7792   30.7597   22.4654 H   0  0  0  0  0  0  0  0  0  0  0  0
   22.4549   29.2346   20.4727 H   0  0  0  0  0  0  0  0  0  0  0  0
   22.8080   29.7306   22.1895 H   0  0  0  0  0  0  0  0  0  0  0  0
   26.3152   24.7001   20.7974 H   0  0  0  0  0  0  0  0  0  0  0  0
   26.8871   23.5672   18.6439 H   0  0  0  0  0  0  0  0  0  0  0  0
   27.5420   24.4590   15.8790 H   0  0  0  0  0  0  0  0  0  0  0  0
   29.2343   22.4990   15.5822 H   0  0  0  0  0  0  0  0  0  0  0  0
   31.6978   24.5212   15.0086 H   0  0  0  0  0  0  0  0  0  0  0  0
   31.8656   23.2275   14.1600 H   0  0  0  0  0  0  0  0  0  0  0  0
   29.4233   25.3198   14.0369 H   0  0  0  0  0  0  0  0  0  0  0  0
   29.1937   24.1656   13.0185 H   0  0  0  0  0  0  0  0  0  0  0  0
   28.2170   27.3361   17.0185 H   0  0  0  0  0  0  0  0  0  0  0  0
   27.4875   28.4926   19.1014 H   0  0  0  0  0  0  0  0  0  0  0  0
   26.0000   25.1890   23.0440 H   0  0  0  0  0  0  0  0  0  0  0  0
   24.8840   25.1420   26.3000 H   0  0  0  0  0  0  0  0  0  0  0  0
  1  2  1  0
  2  3  1  0
  3  4  2  0
  4  5  1  0
  5  6  1  0
  6  7  2  0
  7  8  1  0
  8  9  1  0
  9 10  1  0
 10 11  1  0
 11 12  1  0
 12 13  1  0
 12 14  1  0
 14 15  1  0
  8 16  2  0
 16 17  1  0
 17 18  1  0
 18 19  1  0
 19 20  2  0
 20 21  1  0
 21 22  2  0
 22 23  1  0
 23 24  1  0
 24 25  2  0
 24 26  1  0
 26 27  1  0
 27 28  1  0
 22 29  1  0
 29 30  2  0
 17 31  2  0
  4 32  1  0
 32 33  1  0
 33  2  2  0
 31  6  1  0
 15  9  1  0
 30 19  1  0
 28 26  1  0
  1 34  1  0
  1 35  1  0
  1 36  1  0
  3 37  1  0
  5 38  1  0
  7 39  1  0
 10 40  1  0
 10 41  1  0
 11 42  1  0
 11 43  1  0
 12 44  1  0
 13 45  1  0
 13 46  1  0
 13 47  1  0
 14 48  1  0
 14 49  1  0
 15 50  1  0
 15 51  1  0
 20 52  1  0
 21 53  1  0
 23 54  1  0
 26 55  1  0
 27 56  1  0
 27 57  1  0
 28 58  1  0
 28 59  1  0
 29 60  1  0
 30 61  1  0
 31 62  1  0
 32 63  1  0
M  CHG  2  12   1  31   1
M  END
>  <meeko>  (3) 
{"is_sidechain": [false], "free_energy": -9.001, "intermolecular_energy": -12.717, "internal_energy": -0.798}

$$$$
3e5a_ligand
     RDKit          3D

 63 67  0  0  0  0  0  0  0  0999 V2000
   19.3290   30.5840   24.1870 C   0  0  0  0  0  0  0  0  0  0  0  0
   19.6500   29.3120   23.4940 C   0  0  0  0  0  0  0  0  0  0  0  0
   20.8460   28.5560   23.5560 C   0  0  0  0  0  0  0  0  0  0  0  0
   20.6180   27.4490   22.7700 C   0  0  0  0  0  0  0  0  0  0  0  0
   21.4180   26.3900   22.4850 N   0  0  0  0  0  0  0  0  0  0  0  0
   22.8140   26.3230   22.6060 C   0  0  0  0  0  0  0  0  0  0  0  0
   23.4870   25.5000   23.5290 C   0  0  0  0  0  0  0  0  0  0  0  0
   24.8750   25.4940   23.5770 C   0  0  0  0  0  0  0  0  0  0  0  0
   25.5920   24.6740   24.4670 N   0  0  0  0  0  0  0  0  0  0  0  0
   26.2560   25.4310   25.5720 C   0  0  0  0  0  0  0  0  0  0  0  0
   27.2540   24.5700   26.3840 C   0  0  0  0  0  0  0  0  0  0  0  0
   27.0430   23.0840   26.1320 N   0  0  0  0  0  0  0  0  0  0  0  0
   27.8350   22.2320   27.0770 C   0  0  0  0  0  0  0  0  0  0  0  0
   25.5700   22.7490   26.1110 C   0  0  0  0  0  0  0  0  0  0  0  0
   24.8910   23.4340   24.8960 C   0  0  0  0  0  0  0  0  0  0  0  0
   25.5560   26.2600   22.7200 N   0  0  0  0  0  0  0  0  0  0  0  0
   24.8840   27.0390   21.8450 C   0  0  0  0  0  0  0  0  0  0  0  0
   25.7890   28.0700   20.7090 S   0  0  0  0  0  0  0  0  0  0  0  0
   26.8570   26.8630   19.9370 C   0  0  0  0  0  0  0  0  0  0  0  0
   28.1450   27.2200   19.5290 C   0  0  0  0  0  0  0  0  0  0  0  0
   28.9000   26.3490   18.7350 C   0  0  0  0  0  0  0  0  0  0  0  0
   28.3460   25.1400   18.3080 C   0  0  0  0  0  0  0  0  0  0  0  0
   29.0530   24.3660   17.3730 N   0  0  0  0  0  0  0  0  0  0  0  0
   28.9630   24.5230   16.0060 C   0  0  0  0  0  0  0  0  0  0  0  0
   28.3820   25.4300   15.4160 O   0  0  0  0  0  0  0  0  0  0  0  0
   29.7630   23.5340   15.2380 C   0  0  0  0  0  0  0  0  0  0  0  0
   31.2550   23.7320   15.0990 C   0  0  0  0  0  0  0  0  0  0  0  0
   30.3670   23.8850   13.8980 C   0  0  0  0  0  0  0  0  0  0  0  0
   27.1070   24.7380   18.8080 C   0  0  0  0  0  0  0  0  0  0  0  0
   26.3750   25.5840   19.6410 C   0  0  0  0  0  0  0  0  0  0  0  0
   23.5560   27.0810   21.7920 N   0  0  0  0  0  0  0  0  0  0  0  0
   19.3980   27.6790   22.1850 N   0  0  0  0  0  0  0  0  0  0  0  0
   18.7500   28.7300   22.6940 N   0  0  0  0  0  0  0  0  0  0  0  0
   19.3682   30.4287   25.2753 H   0  0  0  0  0  0  0  0  0  0  0  0
   20.0612   31.3530   23.8998 H   0  0  0  0  0  0  0  0  0  0  0  0
   18.3196   30.9134   23.8998 H   0  0  0  0  0  0  0  0  0  0  0  0
   21.7620   28.8011   24.1135 H   0  0  0  0  0  0  0  0  0  0  0  0
   20.9790   25.6420   21.9480 H   0  0  0  0  0  0  0  0  0  0  0  0
   22.9118   24.8599   24.2141 H   0  0  0  0  0  0  0  0  0  0  0  0
   26.8012   26.2809   25.1357 H   0  0  0  0  0  0  0  0  0  0  0  0
   25.4671   25.7595   26.2647 H   0  0  0  0  0  0  0  0  0  0  0  0
   28.2794   24.8400   26.0913 H   0  0  0  0  0  0  0  0  0  0  0  0
   27.0875   24.7655   27.4536 H   0  0  0  0  0  0  0  0  0  0  0  0
   27.3980   22.9170   25.1800 H   0  0  0  0  0  0  0  0  0  0  0  0
   27.5835   22.5025   28.1131 H   0  0  0  0  0  0  0  0  0  0  0  0
   27.5935   21.1726   26.9057 H   0  0  0  0  0  0  0  0  0  0  0  0
   28.9092   22.3956   26.9057 H   0  0  0  0  0  0  0  0  0  0  0  0
   25.4448   21.6590   26.0324 H   0  0  0  0  0  0  0  0  0  0  0  0
   25.1027   23.1105   27.0389 H   0  0  0  0  0  0  0  0  0  0  0  0
   24.8814   22.7265   24.0538 H   0  0  0  0  0  0  0  0  0  0  0  0
   23.8733   23.7180   25.2021 H   0  0  0  0  0  0  0  0  0  0  0  0
   28.5671   28.1892   19.8330 H   0  0  0  0  0  0  0  0  0  0  0  0
   29.9277   26.6161   18.4478 H   0  0  0  0  0  0  0  0  0  0  0  0
   29.8110   23.7840   17.7160 H   0  0  0  0  0  0  0  0  0  0  0  0
   29.1017   22.7321   15.5980 H   0  0  0  0  0  0  0  0  0  0  0  0
   31.7356   24.6162   15.5431 H   0  0  0  0  0  0  0  0  0  0  0  0
   32.1439   23.1288   15.3358 H   0  0  0  0  0  0  0  0  0  0  0  0
   30.1979   24.8811   13.4631 H   0  0  0  0  0  0  0  0  0  0  0  0
   30.3374   23.4400   12.8924 H   0  0  0  0  0  0  0  0  0  0  0  0
   26.7053   23.7486   18.5438 H   0  0  0  0  0  0  0  0  0  0  0  0
   25.4184   25.2451   20.0652 H   0  0  0  0  0  0  0  0  0  0  0  0
   23.1350   27.6830   21.0940 H   0  0  0  0  0  0  0  0  0  0  0  0
   18.9430   27.1640   21.4410 H   0  0  0  0  0  0  0  0  0  0  0  0
  1  2  1  0
  2  3  1  0
  3  4  2  0
  4  5  1  0
  5  6  1  0
  6  7  2  0
  7  8  1  0
  8  9  1  0
  9 10  1  0
 10 11  1  0
 11 12  1  0
 12 13  1  0
 12 14  1  0
 14 15  1  0
  8 16  2  0
 16 17  1  0
 17 18  1  0
 18 19  1  0
 19 20  2  0
 20 21  1  0
 21 22  2  0
 22 23  1  0
 23 24  1  0
 24 25  2  0
 24 26  1  0
 26 27  1  0
 27 28  1  0
 22 29  1  0
 29 30  2  0
 17 31  2  0
  4 32  1  0
 32 33  1  0
 33  2  2  0
 31  6  1  0
 15  9  1  0
 30 19  1  0
 28 26  1  0
  1 34  1  0
  1 35  1  0
  1 36  1  0
  3 37  1  0
  5 38  1  0
  7 39  1  0
 10 40  1  0
 10 41  1  0
 11 42  1  0
 11 43  1  0
 12 44  1  0
 13 45  1  0
 13 46  1  0
 13 47  1  0
 14 48  1  0
 14 49  1  0
 15 50  1  0
 15 51  1  0
 20 52  1  0
 21 53  1  0
 23 54  1  0
 26 55  1  0
 27 56  1  0
 27 57  1  0
 28 58  1  0
 28 59  1  0
 29 60  1  0
 30 61  1  0
 31 62  1  0
 32 63  1  0
M  CHG  2  12   1  31   1
M  END
>  <meeko>  (4) 
{"is_sidechain": [false], "free_energy": -8.913, "intermolecular_energy": -12.628, "internal_energy": -0.764}

$$$$
3e5a_ligand
     RDKit          3D

 63 67  0  0  0  0  0  0  0  0999 V2000
   27.0730   31.7440   28.7620 C   0  0  0  0  0  0  0  0  0  0  0  0
   26.3630   31.3890   27.5080 C   0  0  0  0  0  0  0  0  0  0  0  0
   25.5770   30.2410   27.2390 C   0  0  0  0  0  0  0  0  0  0  0  0
   25.1130   30.4120   25.9540 C   0  0  0  0  0  0  0  0  0  0  0  0
   24.3060   29.6260   25.1960 N   0  0  0  0  0  0  0  0  0  0  0  0
   24.6610   28.4520   24.5150 C   0  0  0  0  0  0  0  0  0  0  0  0
   25.1540   27.2930   25.1450 C   0  0  0  0  0  0  0  0  0  0  0  0
   25.4770   26.1720   24.3920 C   0  0  0  0  0  0  0  0  0  0  0  0
   25.9530   24.9850   24.9780 N   0  0  0  0  0  0  0  0  0  0  0  0
   26.8310   25.2150   26.1660 C   0  0  0  0  0  0  0  0  0  0  0  0
   27.5630   23.9360   26.6390 C   0  0  0  0  0  0  0  0  0  0  0  0
   26.9320   22.6820   26.0480 N   0  0  0  0  0  0  0  0  0  0  0  0
   27.4720   21.4310   26.6720 C   0  0  0  0  0  0  0  0  0  0  0  0
   25.4240   22.7730   26.0900 C   0  0  0  0  0  0  0  0  0  0  0  0
   24.9390   23.9100   25.1540 C   0  0  0  0  0  0  0  0  0  0  0  0
   25.2900   26.2040   23.0700 N   0  0  0  0  0  0  0  0  0  0  0  0
   24.8150   27.3290   22.4920 C   0  0  0  0  0  0  0  0  0  0  0  0
   24.5740   27.3780   20.7280 S   0  0  0  0  0  0  0  0  0  0  0  0
   26.1710   26.8160   20.1550 C   0  0  0  0  0  0  0  0  0  0  0  0
   27.2540   27.6980   20.1080 C   0  0  0  0  0  0  0  0  0  0  0  0
   28.4390   27.3260   19.4620 C   0  0  0  0  0  0  0  0  0  0  0  0
   28.5220   26.0890   18.8190 C   0  0  0  0  0  0  0  0  0  0  0  0
   29.6520   25.8110   18.0330 N   0  0  0  0  0  0  0  0  0  0  0  0
   29.6760   25.8760   16.6550 C   0  0  0  0  0  0  0  0  0  0  0  0
   28.7840   26.3140   15.9330 O   0  0  0  0  0  0  0  0  0  0  0  0
   30.9770   25.4700   16.0620 C   0  0  0  0  0  0  0  0  0  0  0  0
   31.0790   24.1580   15.3200 C   0  0  0  0  0  0  0  0  0  0  0  0
   31.7780   24.3260   16.6370 C   0  0  0  0  0  0  0  0  0  0  0  0
   27.4820   25.1690   18.9630 C   0  0  0  0  0  0  0  0  0  0  0  0
   26.3210   25.5200   19.6510 C   0  0  0  0  0  0  0  0  0  0  0  0
   24.5180   28.4240   23.1860 N   0  0  0  0  0  0  0  0  0  0  0  0
   25.7510   31.5380   25.4960 N   0  0  0  0  0  0  0  0  0  0  0  0
   26.4120   32.2020   26.4480 N   0  0  0  0  0  0  0  0  0  0  0  0
   26.4646   31.4398   29.6265 H   0  0  0  0  0  0  0  0  0  0  0  0
   28.0420   31.2243   28.7945 H   0  0  0  0  0  0  0  0  0  0  0  0
   27.2386   32.8310   28.7945 H   0  0  0  0  0  0  0  0  0  0  0  0
   25.3797   29.3942   27.9128 H   0  0  0  0  0  0  0  0  0  0  0  0
   23.4090   30.0370   24.9410 H   0  0  0  0  0  0  0  0  0  0  0  0
   25.2836   27.2757   26.2372 H   0  0  0  0  0  0  0  0  0  0  0  0
   27.5844   25.9720   25.9028 H   0  0  0  0  0  0  0  0  0  0  0  0
   26.1841   25.5461   26.9918 H   0  0  0  0  0  0  0  0  0  0  0  0
   28.6156   23.9892   26.3240 H   0  0  0  0  0  0  0  0  0  0  0  0
   27.4851   23.8785   27.7347 H   0  0  0  0  0  0  0  0  0  0  0  0
   27.2010   22.6840   25.0550 H   0  0  0  0  0  0  0  0  0  0  0  0
   27.4330   21.5214   27.7676 H   0  0  0  0  0  0  0  0  0  0  0  0
   26.8651   20.5708   26.3532 H   0  0  0  0  0  0  0  0  0  0  0  0
   28.5143   21.2826   26.3532 H   0  0  0  0  0  0  0  0  0  0  0  0
   24.9913   21.8176   25.7582 H   0  0  0  0  0  0  0  0  0  0  0  0
   25.1022   22.9886   27.1195 H   0  0  0  0  0  0  0  0  0  0  0  0
   24.7088   23.4794   24.1683 H   0  0  0  0  0  0  0  0  0  0  0  0
   24.0516   24.3650   25.6183 H   0  0  0  0  0  0  0  0  0  0  0  0
   27.1751   28.6883   20.5804 H   0  0  0  0  0  0  0  0  0  0  0  0
   29.3031   28.0067   19.4609 H   0  0  0  0  0  0  0  0  0  0  0  0
   30.5490   25.7390   18.5010 H   0  0  0  0  0  0  0  0  0  0  0  0
   31.1933   26.5248   15.8370 H   0  0  0  0  0  0  0  0  0  0  0  0
   30.2008   23.5000   15.2441 H   0  0  0  0  0  0  0  0  0  0  0  0
   31.3905   23.8604   14.3079 H   0  0  0  0  0  0  0  0  0  0  0  0
   31.4117   23.7909   17.5255 H   0  0  0  0  0  0  0  0  0  0  0  0
   32.8131   24.2021   16.9880 H   0  0  0  0  0  0  0  0  0  0  0  0
   27.5789   24.1618   18.5315 H   0  0  0  0  0  0  0  0  0  0  0  0
   25.5229   24.7773   19.7974 H   0  0  0  0  0  0  0  0  0  0  0  0
   24.1540   29.2180   22.6730 H   0  0  0  0  0  0  0  0  0  0  0  0
   25.7790   31.9150   24.5570 H   0  0  0  0  0  0  0  0  0  0  0  0
  1  2  1  0
  2  3  1  0
  3  4  2  0
  4  5  1  0
  5  6  1  0
  6  7  2  0
  7  8  1  0
  8  9  1  0
  9 10  1  0
 10 11  1  0
 11 12  1  0
 12 13  1  0
 12 14  1  0
 14 15  1  0
  8 16  2  0
 16 17  1  0
 17 18  1  0
 18 19  1  0
 19 20  2  0
 20 21  1  0
 21 22  2  0
 22 23  1  0
 23 24  1  0
 24 25  2  0
 24 26  1  0
 26 27  1  0
 27 28  1  0
 22 29  1  0
 29 30  2  0
 17 31  2  0
  4 32  1  0
 32 33  1  0
 33  2  2  0
 31  6  1  0
 15  9  1  0
 30 19  1  0
 28 26  1  0
  1 34  1  0
  1 35  1  0
  1 36  1  0
  3 37  1  0
  5 38  1  0
  7 39  1  0
 10 40  1  0
 10 41  1  0
 11 42  1  0
 11 43  1  0
 12 44  1  0
 13 45  1  0
 13 46  1  0
 13 47  1  0
 14 48  1  0
 14 49  1  0
 15 50  1  0
 15 51  1  0
 20 52  1  0
 21 53  1  0
 23 54  1  0
 26 55  1  0
 27 56  1  0
 27 57  1  0
 28 58  1  0
 28 59  1  0
 29 60  1  0
 30 61  1  0
 31 62  1  0
 32 63  1  0
M  CHG  2  12   1  31   1
M  END
>  <meeko>  (5) 
{"is_sidechain": [false], "free_energy": -8.847, "intermolecular_energy": -12.276, "internal_energy": -1.023}

$$$$
3e5a_ligand
     RDKit          3D

 63 67  0  0  0  0  0  0  0  0999 V2000
   20.8120   33.4240   21.3940 C   0  0  0  0  0  0  0  0  0  0  0  0
   21.8590   32.6550   22.1110 C   0  0  0  0  0  0  0  0  0  0  0  0
   21.7320   31.4140   22.7840 C   0  0  0  0  0  0  0  0  0  0  0  0
   22.9970   31.1170   23.2400 C   0  0  0  0  0  0  0  0  0  0  0  0
   23.4540   30.0450   23.9350 N   0  0  0  0  0  0  0  0  0  0  0  0
   23.9750   28.8520   23.4110 C   0  0  0  0  0  0  0  0  0  0  0  0
   24.4500   27.7850   24.1980 C   0  0  0  0  0  0  0  0  0  0  0  0
   24.9460   26.6380   23.5930 C   0  0  0  0  0  0  0  0  0  0  0  0
   25.4120   25.5390   24.3360 N   0  0  0  0  0  0  0  0  0  0  0  0
   25.4790   25.7970   25.8070 C   0  0  0  0  0  0  0  0  0  0  0  0
   26.2370   24.6940   26.5850 C   0  0  0  0  0  0  0  0  0  0  0  0
   26.3930   23.4300   25.7500 N   0  0  0  0  0  0  0  0  0  0  0  0
   26.9120   22.2800   26.5580 C   0  0  0  0  0  0  0  0  0  0  0  0
   25.1130   23.1160   25.0110 C   0  0  0  0  0  0  0  0  0  0  0  0
   24.8250   24.2230   23.9630 C   0  0  0  0  0  0  0  0  0  0  0  0
   24.9420   26.5560   22.2600 N   0  0  0  0  0  0  0  0  0  0  0  0
   24.4810   27.5940   21.5300 C   0  0  0  0  0  0  0  0  0  0  0  0
   24.4850   27.4910   19.7520 S   0  0  0  0  0  0  0  0  0  0  0  0
   26.1300   26.8580   19.4550 C   0  0  0  0  0  0  0  0  0  0  0  0
   27.2150   27.7340   19.3580 C   0  0  0  0  0  0  0  0  0  0  0  0
   28.4580   27.2680   18.9140 C   0  0  0  0  0  0  0  0  0  0  0  0
   28.6020   25.9360   18.5190 C   0  0  0  0  0  0  0  0  0  0  0  0
   29.8060   25.5380   17.9150 N   0  0  0  0  0  0  0  0  0  0  0  0
   30.0730   25.6480   16.5670 C   0  0  0  0  0  0  0  0  0  0  0  0
   29.3800   26.2270   15.7340 O   0  0  0  0  0  0  0  0  0  0  0  0
   31.3940   25.0930   16.1730 C   0  0  0  0  0  0  0  0  0  0  0  0
   31.4560   23.7940   15.4050 C   0  0  0  0  0  0  0  0  0  0  0  0
   31.9450   23.8450   16.8220 C   0  0  0  0  0  0  0  0  0  0  0  0
   27.5500   25.0420   18.7230 C   0  0  0  0  0  0  0  0  0  0  0  0
   26.3260   25.4950   19.2140 C   0  0  0  0  0  0  0  0  0  0  0  0
   24.0190   28.7120   22.0820 N   0  0  0  0  0  0  0  0  0  0  0  0
   23.7450   32.2320   22.9540 N   0  0  0  0  0  0  0  0  0  0  0  0
   23.1140   33.1150   22.1750 N   0  0  0  0  0  0  0  0  0  0  0  0
   20.1494   33.9107   22.1248 H   0  0  0  0  0  0  0  0  0  0  0  0
   21.2869   34.1896   20.7628 H   0  0  0  0  0  0  0  0  0  0  0  0
   20.2236   32.7418   20.7628 H   0  0  0  0  0  0  0  0  0  0  0  0
   20.8181   30.8159   22.9142 H   0  0  0  0  0  0  0  0  0  0  0  0
   23.2120   30.0300   24.9260 H   0  0  0  0  0  0  0  0  0  0  0  0
   24.4280   27.8606   25.2952 H   0  0  0  0  0  0  0  0  0  0  0  0
   25.9922   26.7561   25.9708 H   0  0  0  0  0  0  0  0  0  0  0  0
   24.4457   25.8120   26.1839 H   0  0  0  0  0  0  0  0  0  0  0  0
   27.2350   25.0690   26.8559 H   0  0  0  0  0  0  0  0  0  0  0  0
   25.6555   24.4441   27.4847 H   0  0  0  0  0  0  0  0  0  0  0  0
   27.0980   23.6610   25.0360 H   0  0  0  0  0  0  0  0  0  0  0  0
   26.8089   22.5084   27.6291 H   0  0  0  0  0  0  0  0  0  0  0  0
   26.3354   21.3742   26.3191 H   0  0  0  0  0  0  0  0  0  0  0  0
   27.9727   22.1131   26.3191 H   0  0  0  0  0  0  0  0  0  0  0  0
   25.2148   22.1472   24.5000 H   0  0  0  0  0  0  0  0  0  0  0  0
   24.2811   23.0711   25.7293 H   0  0  0  0  0  0  0  0  0  0  0  0
   25.2484   23.9107   22.9969 H   0  0  0  0  0  0  0  0  0  0  0  0
   23.7338   24.3511   23.9088 H   0  0  0  0  0  0  0  0  0  0  0  0
   27.0917   28.7923   19.6313 H   0  0  0  0  0  0  0  0  0  0  0  0
   29.3203   27.9499   18.8762 H   0  0  0  0  0  0  0  0  0  0  0  0
   30.5940   25.3290   18.5200 H   0  0  0  0  0  0  0  0  0  0  0  0
   31.7706   26.1163   16.0278 H   0  0  0  0  0  0  0  0  0  0  0  0
   30.5286   23.2541   15.1630 H   0  0  0  0  0  0  0  0  0  0  0  0
   31.8906   23.4799   14.4446 H   0  0  0  0  0  0  0  0  0  0  0  0
   31.3758   23.3426   17.6180 H   0  0  0  0  0  0  0  0  0  0  0  0
   32.8858   23.5839   17.3287 H   0  0  0  0  0  0  0  0  0  0  0  0
   27.6870   23.9746   18.4953 H   0  0  0  0  0  0  0  0  0  0  0  0
   25.5143   24.7795   19.4118 H   0  0  0  0  0  0  0  0  0  0  0  0
   23.6790   29.4360   21.4590 H   0  0  0  0  0  0  0  0  0  0  0  0
   24.6860   32.4580   23.2500 H   0  0  0  0  0  0  0  0  0  0  0  0
  1  2  1  0
  2  3  1  0
  3  4  2  0
  4  5  1  0
  5  6  1  0
  6  7  2  0
  7  8  1  0
  8  9  1  0
  9 10  1  0
 10 11  1  0
 11 12  1  0
 12 13  1  0
 12 14  1  0
 14 15  1  0
  8 16  2  0
 16 17  1  0
 17 18  1  0
 18 19  1  0
 19 20  2  0
 20 21  1  0
 21 22  2  0
 22 23  1  0
 23 24  1  0
 24 25  2  0
 24 26  1  0
 26 27  1  0
 27 28  1  0
 22 29  1  0
 29 30  2  0
 17 31  2  0
  4 32  1  0
 32 33  1  0
 33  2  2  0
 31  6  1  0
 15  9  1  0
 30 19  1  0
 28 26  1  0
  1 34  1  0
  1 35  1  0
  1 36  1  0
  3 37  1  0
  5 38  1  0
  7 39  1  0
 10 40  1  0
 10 41  1  0
 11 42  1  0
 11 43  1  0
 12 44  1  0
 13 45  1  0
 13 46  1  0
 13 47  1  0
 14 48  1  0
 14 49  1  0
 15 50  1  0
 15 51  1  0
 20 52  1  0
 21 53  1  0
 23 54  1  0
 26 55  1  0
 27 56  1  0
 27 57  1  0
 28 58  1  0
 28 59  1  0
 29 60  1  0
 30 61  1  0
 31 62  1  0
 32 63  1  0
M  CHG  2  12   1  31   1
M  END
>  <meeko>  (6) 
{"is_sidechain": [false], "free_energy": -8.613, "intermolecular_energy": -11.978, "internal_energy": -0.99}

$$$$
3e5a_ligand
     RDKit          3D

 63 67  0  0  0  0  0  0  0  0999 V2000
   22.8040   32.6570   21.3580 C   0  0  0  0  0  0  0  0  0  0  0  0
   22.7750   31.6600   20.2580 C   0  0  0  0  0  0  0  0  0  0  0  0
   23.6810   30.5990   20.0100 C   0  0  0  0  0  0  0  0  0  0  0  0
   23.1850   29.9510   18.9010 C   0  0  0  0  0  0  0  0  0  0  0  0
   23.6460   28.8600   18.2390 N   0  0  0  0  0  0  0  0  0  0  0  0
   24.6680   27.9880   18.6460 C   0  0  0  0  0  0  0  0  0  0  0  0
   25.6510   27.4680   17.7820 C   0  0  0  0  0  0  0  0  0  0  0  0
   26.6300   26.6130   18.2730 C   0  0  0  0  0  0  0  0  0  0  0  0
   27.6440   26.0840   17.4540 N   0  0  0  0  0  0  0  0  0  0  0  0
   27.9810   26.9520   16.2840 C   0  0  0  0  0  0  0  0  0  0  0  0
   28.8950   26.2510   15.2500 C   0  0  0  0  0  0  0  0  0  0  0  0
   29.5500   25.0080   15.8370 N   0  0  0  0  0  0  0  0  0  0  0  0
   30.6100   24.4500   14.9360 C   0  0  0  0  0  0  0  0  0  0  0  0
   30.0330   25.2720   17.2440 C   0  0  0  0  0  0  0  0  0  0  0  0
   28.8220   25.5310   18.1770 C   0  0  0  0  0  0  0  0  0  0  0  0
   26.6360   26.3150   19.5750 N   0  0  0  0  0  0  0  0  0  0  0  0
   25.6810   26.8290   20.3800 C   0  0  0  0  0  0  0  0  0  0  0  0
   25.6810   26.4250   22.1140 S   0  0  0  0  0  0  0  0  0  0  0  0
   24.0770   27.0420   22.6040 C   0  0  0  0  0  0  0  0  0  0  0  0
   22.9370   26.2480   22.4410 C   0  0  0  0  0  0  0  0  0  0  0  0
   21.6630   26.8010   22.6180 C   0  0  0  0  0  0  0  0  0  0  0  0
   21.5280   28.1600   22.9090 C   0  0  0  0  0  0  0  0  0  0  0  0
   20.2430   28.7270   22.9090 N   0  0  0  0  0  0  0  0  0  0  0  0
   19.6680   29.3520   21.8230 C   0  0  0  0  0  0  0  0  0  0  0  0
   20.1190   29.3820   20.6800 O   0  0  0  0  0  0  0  0  0  0  0  0
   18.3260   29.9230   22.1050 C   0  0  0  0  0  0  0  0  0  0  0  0
   17.0900   29.1360   21.7340 C   0  0  0  0  0  0  0  0  0  0  0  0
   17.4240   30.3950   20.9880 C   0  0  0  0  0  0  0  0  0  0  0  0
   22.6670   28.9210   23.1800 C   0  0  0  0  0  0  0  0  0  0  0  0
   23.9360   28.3580   23.0540 C   0  0  0  0  0  0  0  0  0  0  0  0
   24.7200   27.6330   19.9340 N   0  0  0  0  0  0  0  0  0  0  0  0
   22.1350   30.7280   18.4790 N   0  0  0  0  0  0  0  0  0  0  0  0
   21.8000   31.6900   19.3430 N   0  0  0  0  0  0  0  0  0  0  0  0
   22.7888   32.1352   22.3263 H   0  0  0  0  0  0  0  0  0  0  0  0
   23.7201   33.2611   21.2813 H   0  0  0  0  0  0  0  0  0  0  0  0
   21.9246   33.3133   21.2813 H   0  0  0  0  0  0  0  0  0  0  0  0
   24.5867   30.3470   20.5812 H   0  0  0  0  0  0  0  0  0  0  0  0
   23.3540   28.7830   17.2650 H   0  0  0  0  0  0  0  0  0  0  0  0
   25.6438   27.7393   16.7160 H   0  0  0  0  0  0  0  0  0  0  0  0
   27.0458   27.2434   15.7836 H   0  0  0  0  0  0  0  0  0  0  0  0
   28.5309   27.8230   16.6699 H   0  0  0  0  0  0  0  0  0  0  0  0
   28.2906   25.9590   14.3785 H   0  0  0  0  0  0  0  0  0  0  0  0
   29.6887   26.9543   14.9578 H   0  0  0  0  0  0  0  0  0  0  0  0
   28.7950   24.3120   15.9090 H   0  0  0  0  0  0  0  0  0  0  0  0
   31.4209   24.0231   15.5444 H   0  0  0  0  0  0  0  0  0  0  0  0
   30.1751   23.6639   14.3012 H   0  0  0  0  0  0  0  0  0  0  0  0
   31.0119   25.2534   14.3012 H   0  0  0  0  0  0  0  0  0  0  0  0
   30.5932   24.3979   17.6075 H   0  0  0  0  0  0  0  0  0  0  0  0
   30.6857   26.1574   17.2430 H   0  0  0  0  0  0  0  0  0  0  0  0
   28.5310   24.5801   18.6472 H   0  0  0  0  0  0  0  0  0  0  0  0
   29.1327   26.2772   18.9231 H   0  0  0  0  0  0  0  0  0  0  0  0
   23.0417   25.1863   22.1730 H   0  0  0  0  0  0  0  0  0  0  0  0
   20.7695   26.1657   22.5279 H   0  0  0  0  0  0  0  0  0  0  0  0
   19.6270   28.5060   23.6850 H   0  0  0  0  0  0  0  0  0  0  0  0
   18.7244   30.3850   23.0203 H   0  0  0  0  0  0  0  0  0  0  0  0
   17.1890   28.1599   21.2365 H   0  0  0  0  0  0  0  0  0  0  0  0
   16.2099   28.7684   22.2820 H   0  0  0  0  0  0  0  0  0  0  0  0
   17.7674   30.3405   19.9444 H   0  0  0  0  0  0  0  0  0  0  0  0
   16.8894   31.3300   20.7642 H   0  0  0  0  0  0  0  0  0  0  0  0
   22.5624   29.9699   23.4945 H   0  0  0  0  0  0  0  0  0  0  0  0
   24.8274   28.9499   23.3090 H   0  0  0  0  0  0  0  0  0  0  0  0
   24.0530   27.9840   20.6100 H   0  0  0  0  0  0  0  0  0  0  0  0
   21.6000   30.6620   17.6220 H   0  0  0  0  0  0  0  0  0  0  0  0
  1  2  1  0
  2  3  1  0
  3  4  2  0
  4  5  1  0
  5  6  1  0
  6  7  2  0
  7  8  1  0
  8  9  1  0
  9 10  1  0
 10 11  1  0
 11 12  1  0
 12 13  1  0
 12 14  1  0
 14 15  1  0
  8 16  2  0
 16 17  1  0
 17 18  1  0
 18 19  1  0
 19 20  2  0
 20 21  1  0
 21 22  2  0
 22 23  1  0
 23 24  1  0
 24 25  2  0
 24 26  1  0
 26 27  1  0
 27 28  1  0
 22 29  1  0
 29 30  2  0
 17 31  2  0
  4 32  1  0
 32 33  1  0
 33  2  2  0
 31  6  1  0
 15  9  1  0
 30 19  1  0
 28 26  1  0
  1 34  1  0
  1 35  1  0
  1 36  1  0
  3 37  1  0
  5 38  1  0
  7 39  1  0
 10 40  1  0
 10 41  1  0
 11 42  1  0
 11 43  1  0
 12 44  1  0
 13 45  1  0
 13 46  1  0
 13 47  1  0
 14 48  1  0
 14 49  1  0
 15 50  1  0
 15 51  1  0
 20 52  1  0
 21 53  1  0
 23 54  1  0
 26 55  1  0
 27 56  1  0
 27 57  1  0
 28 58  1  0
 28 59  1  0
 29 60  1  0
 30 61  1  0
 31 62  1  0
 32 63  1  0
M  CHG  2  12   1  31   1
M  END
>  <meeko>  (7) 
{"is_sidechain": [false], "free_energy": -8.383, "intermolecular_energy": -11.449, "internal_energy": -1.195}

$$$$
3e5a_ligand
     RDKit          3D

 63 67  0  0  0  0  0  0  0  0999 V2000
   28.6110   32.4650   27.7560 C   0  0  0  0  0  0  0  0  0  0  0  0
   27.4640   32.2900   26.8310 C   0  0  0  0  0  0  0  0  0  0  0  0
   26.3650   31.4040   26.9510 C   0  0  0  0  0  0  0  0  0  0  0  0
   25.5670   31.6630   25.8600 C   0  0  0  0  0  0  0  0  0  0  0  0
   24.3840   31.1160   25.4830 N   0  0  0  0  0  0  0  0  0  0  0  0
   24.1900   29.9520   24.7240 C   0  0  0  0  0  0  0  0  0  0  0  0
   24.6060   28.6690   25.1260 C   0  0  0  0  0  0  0  0  0  0  0  0
   24.3690   27.5690   24.3120 C   0  0  0  0  0  0  0  0  0  0  0  0
   24.7480   26.2660   24.6810 N   0  0  0  0  0  0  0  0  0  0  0  0
   24.1250   25.8010   25.9580 C   0  0  0  0  0  0  0  0  0  0  0  0
   24.7450   24.4880   26.4940 C   0  0  0  0  0  0  0  0  0  0  0  0
   25.5550   23.7740   25.4200 N   0  0  0  0  0  0  0  0  0  0  0  0
   25.9660   22.3970   25.8450 C   0  0  0  0  0  0  0  0  0  0  0  0
   24.8280   23.8030   24.0960 C   0  0  0  0  0  0  0  0  0  0  0  0
   24.7310   25.2630   23.5810 C   0  0  0  0  0  0  0  0  0  0  0  0
   23.7200   27.7470   23.1580 N   0  0  0  0  0  0  0  0  0  0  0  0
   23.3320   28.9880   22.7970 C   0  0  0  0  0  0  0  0  0  0  0  0
   22.4770   29.2290   21.2530 S   0  0  0  0  0  0  0  0  0  0  0  0
   23.7800   28.8650   20.0860 C   0  0  0  0  0  0  0  0  0  0  0  0
   23.9280   29.6390   18.9310 C   0  0  0  0  0  0  0  0  0  0  0  0
   24.8010   29.2300   17.9160 C   0  0  0  0  0  0  0  0  0  0  0  0
   25.4880   28.0200   18.0340 C   0  0  0  0  0  0  0  0  0  0  0  0
   26.2190   27.5470   16.9320 N   0  0  0  0  0  0  0  0  0  0  0  0
   27.5960   27.4850   16.8810 C   0  0  0  0  0  0  0  0  0  0  0  0
   28.3670   27.6880   17.8160 O   0  0  0  0  0  0  0  0  0  0  0  0
   28.1230   27.0080   15.5760 C   0  0  0  0  0  0  0  0  0  0  0  0
   28.3720   25.5320   15.3690 C   0  0  0  0  0  0  0  0  0  0  0  0
   29.5330   26.4800   15.4450 C   0  0  0  0  0  0  0  0  0  0  0  0
   25.4240   27.3090   19.2330 C   0  0  0  0  0  0  0  0  0  0  0  0
   24.5940   27.7430   20.2660 C   0  0  0  0  0  0  0  0  0  0  0  0
   23.5650   30.0620   23.5470 N   0  0  0  0  0  0  0  0  0  0  0  0
   26.2880   32.5510   25.1010 N   0  0  0  0  0  0  0  0  0  0  0  0
   27.3710   33.0280   25.7190 N   0  0  0  0  0  0  0  0  0  0  0  0
   28.2553   32.4107   28.7955 H   0  0  0  0  0  0  0  0  0  0  0  0
   29.3494   31.6691   27.5791 H   0  0  0  0  0  0  0  0  0  0  0  0
   29.0785   33.4449   27.5791 H   0  0  0  0  0  0  0  0  0  0  0  0
   26.1873   30.6659   27.7470 H   0  0  0  0  0  0  0  0  0  0  0  0
   23.5670   31.7160   25.5970 H   0  0  0  0  0  0  0  0  0  0  0  0
   25.1210   28.5369   26.0890 H   0  0  0  0  0  0  0  0  0  0  0  0
   24.2565   26.5857   26.7176 H   0  0  0  0  0  0  0  0  0  0  0  0
   23.0632   25.6014   25.7510 H   0  0  0  0  0  0  0  0  0  0  0  0
   25.4051   24.7244   27.3415 H   0  0  0  0  0  0  0  0  0  0  0  0
   23.9269   23.8232   26.8083 H   0  0  0  0  0  0  0  0  0  0  0  0
   26.4080   24.3390   25.3030 H   0  0  0  0  0  0  0  0  0  0  0  0
   25.9824   22.3419   26.9435 H   0  0  0  0  0  0  0  0  0  0  0  0
   25.2480   21.6623   25.4517 H   0  0  0  0  0  0  0  0  0  0  0  0
   26.9693   22.1760   25.4517 H   0  0  0  0  0  0  0  0  0  0  0  0
   25.3781   23.1935   23.3640 H   0  0  0  0  0  0  0  0  0  0  0  0
   23.8144   23.3971   24.2296 H   0  0  0  0  0  0  0  0  0  0  0  0
   25.5843   25.4579   22.9147 H   0  0  0  0  0  0  0  0  0  0  0  0
   23.7703   25.3651   23.0550 H   0  0  0  0  0  0  0  0  0  0  0  0
   23.3566   30.5723   18.8196 H   0  0  0  0  0  0  0  0  0  0  0  0
   24.9456   29.8609   17.0266 H   0  0  0  0  0  0  0  0  0  0  0  0
   25.7140   27.0530   16.2040 H   0  0  0  0  0  0  0  0  0  0  0  0
   27.5437   27.7916   15.0657 H   0  0  0  0  0  0  0  0  0  0  0  0
   28.1869   24.8233   16.1896 H   0  0  0  0  0  0  0  0  0  0  0  0
   28.0290   24.7812   14.6419 H   0  0  0  0  0  0  0  0  0  0  0  0
   30.1978   26.4653   16.3213 H   0  0  0  0  0  0  0  0  0  0  0  0
   30.3913   26.7102   14.7966 H   0  0  0  0  0  0  0  0  0  0  0  0
   26.0315   26.4014   19.3639 H   0  0  0  0  0  0  0  0  0  0  0  0
   24.5798   27.2018   21.2236 H   0  0  0  0  0  0  0  0  0  0  0  0
   23.2260   30.9540   23.2050 H   0  0  0  0  0  0  0  0  0  0  0  0
   26.1030   32.8790   24.1610 H   0  0  0  0  0  0  0  0  0  0  0  0
  1  2  1  0
  2  3  1  0
  3  4  2  0
  4  5  1  0
  5  6  1  0
  6  7  2  0
  7  8  1  0
  8  9  1  0
  9 10  1  0
 10 11  1  0
 11 12  1  0
 12 13  1  0
 12 14  1  0
 14 15  1  0
  8 16  2  0
 16 17  1  0
 17 18  1  0
 18 19  1  0
 19 20  2  0
 20 21  1  0
 21 22  2  0
 22 23  1  0
 23 24  1  0
 24 25  2  0
 24 26  1  0
 26 27  1  0
 27 28  1  0
 22 29  1  0
 29 30  2  0
 17 31  2  0
  4 32  1  0
 32 33  1  0
 33  2  2  0
 31  6  1  0
 15  9  1  0
 30 19  1  0
 28 26  1  0
  1 34  1  0
  1 35  1  0
  1 36  1  0
  3 37  1  0
  5 38  1  0
  7 39  1  0
 10 40  1  0
 10 41  1  0
 11 42  1  0
 11 43  1  0
 12 44  1  0
 13 45  1  0
 13 46  1  0
 13 47  1  0
 14 48  1  0
 14 49  1  0
 15 50  1  0
 15 51  1  0
 20 52  1  0
 21 53  1  0
 23 54  1  0
 26 55  1  0
 27 56  1  0
 27 57  1  0
 28 58  1  0
 28 59  1  0
 29 60  1  0
 30 61  1  0
 31 62  1  0
 32 63  1  0
M  CHG  2  12   1  31   1
M  END
>  <meeko>  (8) 
{"is_sidechain": [false], "free_energy": -8.33, "intermolecular_energy": -12.046, "internal_energy": -0.523}

$$$$
3e5a_ligand
     RDKit          3D

 63 67  0  0  0  0  0  0  0  0999 V2000
   24.1820   23.2680   26.9580 C   0  0  0  0  0  0  0  0  0  0  0  0
   24.3300   23.9290   25.6370 C   0  0  0  0  0  0  0  0  0  0  0  0
   25.1170   25.0590   25.3040 C   0  0  0  0  0  0  0  0  0  0  0  0
   24.9390   25.2400   23.9510 C   0  0  0  0  0  0  0  0  0  0  0  0
   25.4660   26.1640   23.1080 N   0  0  0  0  0  0  0  0  0  0  0  0
   24.7690   27.1110   22.3440 C   0  0  0  0  0  0  0  0  0  0  0  0
   23.6150   27.7870   22.7850 C   0  0  0  0  0  0  0  0  0  0  0  0
   22.9900   28.7150   21.9620 C   0  0  0  0  0  0  0  0  0  0  0  0
   21.8490   29.4300   22.3670 N   0  0  0  0  0  0  0  0  0  0  0  0
   21.0900   30.0360   21.2300 C   0  0  0  0  0  0  0  0  0  0  0  0
   20.0000   31.0350   21.6910 C   0  0  0  0  0  0  0  0  0  0  0  0
   19.6890   30.8770   23.1730 N   0  0  0  0  0  0  0  0  0  0  0  0
   18.4830   31.6660   23.5840 C   0  0  0  0  0  0  0  0  0  0  0  0
   19.6100   29.4160   23.5500 C   0  0  0  0  0  0  0  0  0  0  0  0
   21.0030   28.7540   23.3880 C   0  0  0  0  0  0  0  0  0  0  0  0
   23.5140   28.9700   20.7600 N   0  0  0  0  0  0  0  0  0  0  0  0
   24.6220   28.3070   20.3620 C   0  0  0  0  0  0  0  0  0  0  0  0
   25.3160   28.6380   18.7560 S   0  0  0  0  0  0  0  0  0  0  0  0
   26.6300   27.4280   18.7010 C   0  0  0  0  0  0  0  0  0  0  0  0
   27.9170   27.7650   19.1300 C   0  0  0  0  0  0  0  0  0  0  0  0
   28.9890   26.8980   18.8880 C   0  0  0  0  0  0  0  0  0  0  0  0
   28.7820   25.7160   18.1740 C   0  0  0  0  0  0  0  0  0  0  0  0
   29.8970   24.9510   17.7950 N   0  0  0  0  0  0  0  0  0  0  0  0
   30.5360   25.0590   16.5770 C   0  0  0  0  0  0  0  0  0  0  0  0
   30.3250   25.9130   15.7190 O   0  0  0  0  0  0  0  0  0  0  0  0
   31.6490   24.0910   16.4000 C   0  0  0  0  0  0  0  0  0  0  0  0
   31.3660   22.7340   15.7980 C   0  0  0  0  0  0  0  0  0  0  0  0
   31.7440   22.8420   17.2460 C   0  0  0  0  0  0  0  0  0  0  0  0
   27.4810   25.3310   17.8470 C   0  0  0  0  0  0  0  0  0  0  0  0
   26.4050   26.1700   18.1330 C   0  0  0  0  0  0  0  0  0  0  0  0
   25.2280   27.3990   21.1220 N   0  0  0  0  0  0  0  0  0  0  0  0
   23.9710   24.3320   23.6000 N   0  0  0  0  0  0  0  0  0  0  0  0
   23.6780   23.4600   24.5680 N   0  0  0  0  0  0  0  0  0  0  0  0
   24.3471   24.0053   27.7575 H   0  0  0  0  0  0  0  0  0  0  0  0
   23.1682   22.8507   27.0477 H   0  0  0  0  0  0  0  0  0  0  0  0
   24.9211   22.4582   27.0477 H   0  0  0  0  0  0  0  0  0  0  0  0
   25.7379   25.6630   25.9820 H   0  0  0  0  0  0  0  0  0  0  0  0
   26.4450   26.0230   22.8620 H   0  0  0  0  0  0  0  0  0  0  0  0
   23.2070   27.5793   23.7852 H   0  0  0  0  0  0  0  0  0  0  0  0
   21.7997   30.5679   20.5793 H   0  0  0  0  0  0  0  0  0  0  0  0
   20.5813   29.2164   20.7014 H   0  0  0  0  0  0  0  0  0  0  0  0
   20.3541   32.0601   21.5074 H   0  0  0  0  0  0  0  0  0  0  0  0
   19.0812   30.8302   21.1219 H   0  0  0  0  0  0  0  0  0  0  0  0
   20.5060   31.2650   23.6640 H   0  0  0  0  0  0  0  0  0  0  0  0
   18.4259   31.7033   24.6819 H   0  0  0  0  0  0  0  0  0  0  0  0
   18.5606   32.6885   23.1859 H   0  0  0  0  0  0  0  0  0  0  0  0
   17.5772   31.1853   23.1859 H   0  0  0  0  0  0  0  0  0  0  0  0
   19.2828   29.3263   24.5964 H   0  0  0  0  0  0  0  0  0  0  0  0
   18.8893   28.9100   22.8909 H   0  0  0  0  0  0  0  0  0  0  0  0
   21.5241   28.7908   24.3561 H   0  0  0  0  0  0  0  0  0  0  0  0
   20.8403   27.7198   23.0504 H   0  0  0  0  0  0  0  0  0  0  0  0
   28.0878   28.7141   19.6592 H   0  0  0  0  0  0  0  0  0  0  0  0
   29.9936   27.1476   19.2600 H   0  0  0  0  0  0  0  0  0  0  0  0
   30.3780   24.4240   18.5150 H   0  0  0  0  0  0  0  0  0  0  0  0
   32.3298   24.9269   16.1814 H   0  0  0  0  0  0  0  0  0  0  0  0
   30.3380   22.4611   15.5175 H   0  0  0  0  0  0  0  0  0  0  0  0
   31.7518   22.1719   14.9348 H   0  0  0  0  0  0  0  0  0  0  0  0
   30.9928   22.6482   18.0258 H   0  0  0  0  0  0  0  0  0  0  0  0
   32.5210   22.3918   17.8813 H   0  0  0  0  0  0  0  0  0  0  0  0
   27.3036   24.3603   17.3610 H   0  0  0  0  0  0  0  0  0  0  0  0
   25.3785   25.8424   17.9118 H   0  0  0  0  0  0  0  0  0  0  0  0
   26.0620   26.9600   20.7490 H   0  0  0  0  0  0  0  0  0  0  0  0
   23.4700   24.2440   22.7240 H   0  0  0  0  0  0  0  0  0  0  0  0
  1  2  1  0
  2  3  1  0
  3  4  2  0
  4  5  1  0
  5  6  1  0
  6  7  2  0
  7  8  1  0
  8  9  1  0
  9 10  1  0
 10 11  1  0
 11 12  1  0
 12 13  1  0
 12 14  1  0
 14 15  1  0
  8 16  2  0
 16 17  1  0
 17 18  1  0
 18 19  1  0
 19 20  2  0
 20 21  1  0
 21 22  2  0
 22 23  1  0
 23 24  1  0
 24 25  2  0
 24 26  1  0
 26 27  1  0
 27 28  1  0
 22 29  1  0
 29 30  2  0
 17 31  2  0
  4 32  1  0
 32 33  1  0
 33  2  2  0
 31  6  1  0
 15  9  1  0
 30 19  1  0
 28 26  1  0
  1 34  1  0
  1 35  1  0
  1 36  1  0
  3 37  1  0
  5 38  1  0
  7 39  1  0
 10 40  1  0
 10 41  1  0
 11 42  1  0
 11 43  1  0
 12 44  1  0
 13 45  1  0
 13 46  1  0
 13 47  1  0
 14 48  1  0
 14 49  1  0
 15 50  1  0
 15 51  1  0
 20 52  1  0
 21 53  1  0
 23 54  1  0
 26 55  1  0
 27 56  1  0
 27 57  1  0
 28 58  1  0
 28 59  1  0
 29 60  1  0
 30 61  1  0
 31 62  1  0
 32 63  1  0
M  CHG  2  12   1  31   1
M  END
>  <meeko>  (9) 
{"is_sidechain": [false], "free_energy": -8.321, "intermolecular_energy": -11.672, "internal_energy": -0.884}

$$$$
