4ih5_ligand
     RDKit          3D

 27 29  0  0  0  0  0  0  0  0999 V2000
  -37.9670   -8.8760   13.8070 C   0  0  0  0  0  0  0  0  0  0  0  0
  -37.9390   -9.5000   12.5620 C   0  0  0  0  0  0  0  0  0  0  0  0
  -36.8920  -10.3670   12.2390 C   0  0  0  0  0  0  0  0  0  0  0  0
  -35.8490  -10.6030   13.1430 C   0  0  0  0  0  0  0  0  0  0  0  0
  -34.8130  -11.5220   12.8640 N   0  0  0  0  0  0  0  0  0  0  0  0
  -33.6490  -11.1360   12.2520 N   0  0  0  0  0  0  0  0  0  0  0  0
  -32.5790  -10.5640   12.9550 C   0  0  0  0  0  0  0  0  0  0  0  0
  -31.6270  -11.3830   13.4890 N   0  0  0  0  0  0  0  0  0  0  0  0
  -30.5710  -10.8330   14.1730 C   0  0  0  0  0  0  0  0  0  0  0  0
  -30.2720   -9.5350   14.4380 N   0  0  0  0  0  0  0  0  0  0  0  0
  -31.2150   -8.7130   13.9250 C   0  0  0  0  0  0  0  0  0  0  0  0
  -31.2500   -7.3800   14.0070 N   0  0  0  0  0  0  0  0  0  0  0  0
  -32.3900   -7.0500   13.3670 N   0  0  0  0  0  0  0  0  0  0  0  0
  -33.0790   -8.1170   12.8620 C   0  0  0  0  0  0  0  0  0  0  0  0
  -32.3300   -9.2130   13.2050 C   0  0  0  0  0  0  0  0  0  0  0  0
  -35.9110   -9.9950   14.4040 C   0  0  0  0  0  0  0  0  0  0  0  0
  -36.9560   -9.1270   14.7300 C   0  0  0  0  0  0  0  0  0  0  0  0
  -38.7860   -8.1867   14.0600 H   0  0  0  0  0  0  0  0  0  0  0  0
  -38.7409   -9.3103   11.8333 H   0  0  0  0  0  0  0  0  0  0  0  0
  -36.8870  -10.8710   11.2613 H   0  0  0  0  0  0  0  0  0  0  0  0
  -34.7000  -12.2130   13.6080 H   0  0  0  0  0  0  0  0  0  0  0  0
  -33.7480  -10.6430   11.3630 H   0  0  0  0  0  0  0  0  0  0  0  0
  -29.8500  -11.5623   14.5710 H   0  0  0  0  0  0  0  0  0  0  0  0
  -32.6400   -6.0680   13.3170 H   0  0  0  0  0  0  0  0  0  0  0  0
  -34.0263   -8.1001   12.3032 H   0  0  0  0  0  0  0  0  0  0  0  0
  -35.1269  -10.2038   15.1466 H   0  0  0  0  0  0  0  0  0  0  0  0
  -36.9798   -8.6416   15.7168 H   0  0  0  0  0  0  0  0  0  0  0  0
  1  2  2  0
  2  3  1  0
  3  4  2  0
  4  5  1  0
  5  6  1  0
  6  7  1  0
  7  8  2  0
  8  9  1  0
  9 10  2  0
 10 11  1  0
 11 12  2  0
 12 13  1  0
 13 14  1  0
 14 15  2  0
  4 16  1  0
 16 17  2  0
 17  1  1  0
 15  7  1  0
 15 11  1  0
  1 18  1  0
  2 19  1  0
  3 20  1  0
  5 21  1  0
  6 22  1  0
  9 23  1  0
 13 24  1  0
 14 25  1  0
 16 26  1  0
 17 27  1  0
M  END
>  <meeko>  (1) 
{"is_sidechain": [false], "free_energy": -6.781, "intermolecular_energy": -7.971, "internal_energy": -0.491}

$$$$
4ih5_ligand
     RDKit          3D

 27 29  0  0  0  0  0  0  0  0999 V2000
  -37.9660   -8.9080   13.9360 C   0  0  0  0  0  0  0  0  0  0  0  0
  -36.8860   -9.1040   14.7940 C   0  0  0  0  0  0  0  0  0  0  0  0
  -35.8500   -9.9670   14.4270 C   0  0  0  0  0  0  0  0  0  0  0  0
  -35.8890  -10.6610   13.2110 C   0  0  0  0  0  0  0  0  0  0  0  0
  -34.8240  -11.4890   12.7910 N   0  0  0  0  0  0  0  0  0  0  0  0
  -33.5830  -10.9830   12.5070 N   0  0  0  0  0  0  0  0  0  0  0  0
  -33.3930   -9.8500   11.7030 C   0  0  0  0  0  0  0  0  0  0  0  0
  -33.5570   -9.9640   10.3530 N   0  0  0  0  0  0  0  0  0  0  0  0
  -33.3790   -8.8590    9.5570 C   0  0  0  0  0  0  0  0  0  0  0  0
  -33.0490   -7.5830    9.8800 N   0  0  0  0  0  0  0  0  0  0  0  0
  -32.8720   -7.4590   11.2160 C   0  0  0  0  0  0  0  0  0  0  0  0
  -32.5280   -6.3530   11.8810 N   0  0  0  0  0  0  0  0  0  0  0  0
  -32.4580   -6.7610   13.1640 N   0  0  0  0  0  0  0  0  0  0  0  0
  -32.7600   -8.0810   13.3510 C   0  0  0  0  0  0  0  0  0  0  0  0
  -33.0410   -8.5580   12.0970 C   0  0  0  0  0  0  0  0  0  0  0  0
  -36.9640  -10.4250   12.3440 C   0  0  0  0  0  0  0  0  0  0  0  0
  -38.0030   -9.5630   12.7090 C   0  0  0  0  0  0  0  0  0  0  0  0
  -38.7874   -8.2371   14.2279 H   0  0  0  0  0  0  0  0  0  0  0  0
  -36.8488   -8.5795   15.7602 H   0  0  0  0  0  0  0  0  0  0  0  0
  -34.9923  -10.1031   15.1022 H   0  0  0  0  0  0  0  0  0  0  0  0
  -34.8220  -12.3890   13.2760 H   0  0  0  0  0  0  0  0  0  0  0  0
  -32.8610  -11.6660   12.2720 H   0  0  0  0  0  0  0  0  0  0  0  0
  -33.5284   -9.0375    8.4819 H   0  0  0  0  0  0  0  0  0  0  0  0
  -32.1910   -6.0790   13.8660 H   0  0  0  0  0  0  0  0  0  0  0  0
  -32.7744   -8.6381   14.2994 H   0  0  0  0  0  0  0  0  0  0  0  0
  -36.9911  -10.9239   11.3640 H   0  0  0  0  0  0  0  0  0  0  0  0
  -38.8500   -9.4027   12.0257 H   0  0  0  0  0  0  0  0  0  0  0  0
  1  2  2  0
  2  3  1  0
  3  4  2  0
  4  5  1  0
  5  6  1  0
  6  7  1  0
  7  8  2  0
  8  9  1  0
  9 10  2  0
 10 11  1  0
 11 12  2  0
 12 13  1  0
 13 14  1  0
 14 15  2  0
  4 16  1  0
 16 17  2  0
 17  1  1  0
 15  7  1  0
 15 11  1  0
  1 18  1  0
  2 19  1  0
  3 20  1  0
  5 21  1  0
  6 22  1  0
  9 23  1  0
 13 24  1  0
 14 25  1  0
 16 26  1  0
 17 27  1  0
M  END
>  <meeko>  (2) 
{"is_sidechain": [false], "free_energy": -6.587, "intermolecular_energy": -7.68, "internal_energy": -0.552}

$$$$
4ih5_ligand
     RDKit          3D

 27 29  0  0  0  0  0  0  0  0999 V2000
  -30.4350   -6.6710   14.3650 C   0  0  0  0  0  0  0  0  0  0  0  0
  -31.4580   -6.4370   13.4490 C   0  0  0  0  0  0  0  0  0  0  0  0
  -32.5090   -7.3490   13.3280 C   0  0  0  0  0  0  0  0  0  0  0  0
  -32.5420   -8.5160   14.1010 C   0  0  0  0  0  0  0  0  0  0  0  0
  -33.6250   -9.4210   14.0400 N   0  0  0  0  0  0  0  0  0  0  0  0
  -33.8240  -10.2390   12.9600 N   0  0  0  0  0  0  0  0  0  0  0  0
  -34.5590   -9.8400   11.8340 C   0  0  0  0  0  0  0  0  0  0  0  0
  -33.8890   -9.5320   10.6840 N   0  0  0  0  0  0  0  0  0  0  0  0
  -34.5990   -9.1460    9.5740 C   0  0  0  0  0  0  0  0  0  0  0  0
  -35.9360   -9.0030    9.3870 N   0  0  0  0  0  0  0  0  0  0  0  0
  -36.6100   -9.2940   10.5230 C   0  0  0  0  0  0  0  0  0  0  0  0
  -37.9330   -9.2470   10.7060 N   0  0  0  0  0  0  0  0  0  0  0  0
  -38.0890   -9.5970   11.9990 N   0  0  0  0  0  0  0  0  0  0  0  0
  -36.9210   -9.8830   12.6480 C   0  0  0  0  0  0  0  0  0  0  0  0
  -35.9420   -9.7010   11.7060 C   0  0  0  0  0  0  0  0  0  0  0  0
  -31.5240   -8.7190   15.0430 C   0  0  0  0  0  0  0  0  0  0  0  0
  -30.4700   -7.8090   15.1660 C   0  0  0  0  0  0  0  0  0  0  0  0
  -29.6018   -5.9585   14.4552 H   0  0  0  0  0  0  0  0  0  0  0  0
  -31.4382   -5.5341   12.8210 H   0  0  0  0  0  0  0  0  0  0  0  0
  -33.3223   -7.1476   12.6153 H   0  0  0  0  0  0  0  0  0  0  0  0
  -33.8190   -9.8510   14.9470 H   0  0  0  0  0  0  0  0  0  0  0  0
  -34.0600  -11.2110   13.1670 H   0  0  0  0  0  0  0  0  0  0  0  0
  -33.9838   -8.9148    8.6919 H   0  0  0  0  0  0  0  0  0  0  0  0
  -39.0310   -9.6150   12.3760 H   0  0  0  0  0  0  0  0  0  0  0  0
  -36.7942  -10.1915   13.6962 H   0  0  0  0  0  0  0  0  0  0  0  0
  -31.5549   -9.6055   15.6936 H   0  0  0  0  0  0  0  0  0  0  0  0
  -29.6679   -7.9923   15.8961 H   0  0  0  0  0  0  0  0  0  0  0  0
  1  2  2  0
  2  3  1  0
  3  4  2  0
  4  5  1  0
  5  6  1  0
  6  7  1  0
  7  8  2  0
  8  9  1  0
  9 10  2  0
 10 11  1  0
 11 12  2  0
 12 13  1  0
 13 14  1  0
 14 15  2  0
  4 16  1  0
 16 17  2  0
 17  1  1  0
 15  7  1  0
 15 11  1  0
  1 18  1  0
  2 19  1  0
  3 20  1  0
  5 21  1  0
  6 22  1  0
  9 23  1  0
 13 24  1  0
 14 25  1  0
 16 26  1  0
 17 27  1  0
M  END
>  <meeko>  (3) 
{"is_sidechain": [false], "free_energy": -6.455, "intermolecular_energy": -7.748, "internal_energy": -0.33}

$$$$
4ih5_ligand
     RDKit          3D

 27 29  0  0  0  0  0  0  0  0999 V2000
  -38.0840   -9.1990   13.4330 C   0  0  0  0  0  0  0  0  0  0  0  0
  -37.1690   -9.2500   14.4820 C   0  0  0  0  0  0  0  0  0  0  0  0
  -35.8710   -9.7160   14.2540 C   0  0  0  0  0  0  0  0  0  0  0  0
  -35.4790  -10.1590   12.9850 C   0  0  0  0  0  0  0  0  0  0  0  0
  -34.1560  -10.5760   12.7160 N   0  0  0  0  0  0  0  0  0  0  0  0
  -33.0880  -10.0990   13.4300 N   0  0  0  0  0  0  0  0  0  0  0  0
  -32.5750   -8.8060   13.2490 C   0  0  0  0  0  0  0  0  0  0  0  0
  -32.9440   -8.0980   12.1420 N   0  0  0  0  0  0  0  0  0  0  0  0
  -32.4510   -6.8300   11.9580 C   0  0  0  0  0  0  0  0  0  0  0  0
  -31.6080   -6.0910   12.7240 N   0  0  0  0  0  0  0  0  0  0  0  0
  -31.2250   -6.7870   13.8190 C   0  0  0  0  0  0  0  0  0  0  0  0
  -30.3910   -6.3770   14.7790 N   0  0  0  0  0  0  0  0  0  0  0  0
  -30.3210   -7.4350   15.6130 N   0  0  0  0  0  0  0  0  0  0  0  0
  -31.0890   -8.5000   15.2350 C   0  0  0  0  0  0  0  0  0  0  0  0
  -31.6960   -8.1000   14.0730 C   0  0  0  0  0  0  0  0  0  0  0  0
  -36.4010  -10.0680   11.9330 C   0  0  0  0  0  0  0  0  0  0  0  0
  -37.6990   -9.6020   12.1580 C   0  0  0  0  0  0  0  0  0  0  0  0
  -39.1086   -8.8410   13.6121 H   0  0  0  0  0  0  0  0  0  0  0  0
  -37.4677   -8.9238   15.4892 H   0  0  0  0  0  0  0  0  0  0  0  0
  -35.1479   -9.7349   15.0827 H   0  0  0  0  0  0  0  0  0  0  0  0
  -34.1060  -11.5690   12.4790 H   0  0  0  0  0  0  0  0  0  0  0  0
  -32.3030  -10.7400   13.5510 H   0  0  0  0  0  0  0  0  0  0  0  0
  -32.7952   -6.3312   11.0400 H   0  0  0  0  0  0  0  0  0  0  0  0
  -29.7190   -7.3590   16.4270 H   0  0  0  0  0  0  0  0  0  0  0  0
  -31.1965   -9.4660   15.7500 H   0  0  0  0  0  0  0  0  0  0  0  0
  -36.0991  -10.3670   10.9184 H   0  0  0  0  0  0  0  0  0  0  0  0
  -38.4173   -9.5537   11.3263 H   0  0  0  0  0  0  0  0  0  0  0  0
  1  2  2  0
  2  3  1  0
  3  4  2  0
  4  5  1  0
  5  6  1  0
  6  7  1  0
  7  8  2  0
  8  9  1  0
  9 10  2  0
 10 11  1  0
 11 12  2  0
 12 13  1  0
 13 14  1  0
 14 15  2  0
  4 16  1  0
 16 17  2  0
 17  1  1  0
 15  7  1  0
 15 11  1  0
  1 18  1  0
  2 19  1  0
  3 20  1  0
  5 21  1  0
  6 22  1  0
  9 23  1  0
 13 24  1  0
 14 25  1  0
 16 26  1  0
 17 27  1  0
M  END
>  <meeko>  (4) 
{"is_sidechain": [false], "free_energy": -6.399, "intermolecular_energy": -7.756, "internal_energy": -0.256}

$$$$
4ih5_ligand
     RDKit          3D

 27 29  0  0  0  0  0  0  0  0999 V2000
  -38.0010   -9.2620   13.3320 C   0  0  0  0  0  0  0  0  0  0  0  0
  -37.3990   -9.6360   12.1320 C   0  0  0  0  0  0  0  0  0  0  0  0
  -36.0440   -9.9740   12.1070 C   0  0  0  0  0  0  0  0  0  0  0  0
  -35.2670   -9.9200   13.2710 C   0  0  0  0  0  0  0  0  0  0  0  0
  -33.9110  -10.3160   13.2820 N   0  0  0  0  0  0  0  0  0  0  0  0
  -32.9650   -9.6350   14.0020 N   0  0  0  0  0  0  0  0  0  0  0  0
  -31.5890   -9.7890   13.7790 C   0  0  0  0  0  0  0  0  0  0  0  0
  -31.1670  -10.7280   12.8820 N   0  0  0  0  0  0  0  0  0  0  0  0
  -29.8220  -10.8830   12.6510 C   0  0  0  0  0  0  0  0  0  0  0  0
  -28.7550  -10.2340   13.1830 N   0  0  0  0  0  0  0  0  0  0  0  0
  -29.1600   -9.3090   14.0840 C   0  0  0  0  0  0  0  0  0  0  0  0
  -28.3810   -8.4990   14.8080 N   0  0  0  0  0  0  0  0  0  0  0  0
  -29.2580   -7.8010   15.5580 N   0  0  0  0  0  0  0  0  0  0  0  0
  -30.5680   -8.1190   15.3320 C   0  0  0  0  0  0  0  0  0  0  0  0
  -30.5320   -9.0940   14.3690 C   0  0  0  0  0  0  0  0  0  0  0  0
  -35.8960   -9.5750   14.4750 C   0  0  0  0  0  0  0  0  0  0  0  0
  -37.2510   -9.2360   14.5040 C   0  0  0  0  0  0  0  0  0  0  0  0
  -39.0661   -8.9881   13.3527 H   0  0  0  0  0  0  0  0  0  0  0  0
  -37.9906   -9.6650   11.2051 H   0  0  0  0  0  0  0  0  0  0  0  0
  -35.5806  -10.2870   11.1597 H   0  0  0  0  0  0  0  0  0  0  0  0
  -33.8070  -11.3320   13.2870 H   0  0  0  0  0  0  0  0  0  0  0  0
  -33.1200   -9.5750   15.0090 H   0  0  0  0  0  0  0  0  0  0  0  0
  -29.5680  -11.6598   11.9148 H   0  0  0  0  0  0  0  0  0  0  0  0
  -28.8870   -7.1210   16.2120 H   0  0  0  0  0  0  0  0  0  0  0  0
  -31.4562   -7.6873   15.8165 H   0  0  0  0  0  0  0  0  0  0  0  0
  -35.3153   -9.5711   15.4092 H   0  0  0  0  0  0  0  0  0  0  0  0
  -37.7254   -8.9483   15.4538 H   0  0  0  0  0  0  0  0  0  0  0  0
  1  2  2  0
  2  3  1  0
  3  4  2  0
  4  5  1  0
  5  6  1  0
  6  7  1  0
  7  8  2  0
  8  9  1  0
  9 10  2  0
 10 11  1  0
 11 12  2  0
 12 13  1  0
 13 14  1  0
 14 15  2  0
  4 16  1  0
 16 17  2  0
 17  1  1  0
 15  7  1  0
 15 11  1  0
  1 18  1  0
  2 19  1  0
  3 20  1  0
  5 21  1  0
  6 22  1  0
  9 23  1  0
 13 24  1  0
 14 25  1  0
 16 26  1  0
 17 27  1  0
M  END
>  <meeko>  (5) 
{"is_sidechain": [false], "free_energy": -6.311, "intermolecular_energy": -7.675, "internal_energy": -0.233}

$$$$
4ih5_ligand
     RDKit          3D

 27 29  0  0  0  0  0  0  0  0999 V2000
  -38.0080   -9.1490   13.4920 C   0  0  0  0  0  0  0  0  0  0  0  0
  -37.1340   -9.2060   14.5750 C   0  0  0  0  0  0  0  0  0  0  0  0
  -35.8540   -9.7420   14.4120 C   0  0  0  0  0  0  0  0  0  0  0  0
  -35.4390  -10.2490   13.1750 C   0  0  0  0  0  0  0  0  0  0  0  0
  -34.1300  -10.7390   12.9700 N   0  0  0  0  0  0  0  0  0  0  0  0
  -33.0230  -10.0210   13.3400 N   0  0  0  0  0  0  0  0  0  0  0  0
  -32.7220   -8.7630   12.8000 C   0  0  0  0  0  0  0  0  0  0  0  0
  -32.4150   -7.7370   13.6470 N   0  0  0  0  0  0  0  0  0  0  0  0
  -32.1120   -6.5020   13.1290 C   0  0  0  0  0  0  0  0  0  0  0  0
  -32.0540   -6.0760   11.8410 N   0  0  0  0  0  0  0  0  0  0  0  0
  -32.3680   -7.0810   10.9910 C   0  0  0  0  0  0  0  0  0  0  0  0
  -32.4260   -7.0160    9.6580 N   0  0  0  0  0  0  0  0  0  0  0  0
  -32.8040   -8.2580    9.2950 N   0  0  0  0  0  0  0  0  0  0  0  0
  -32.9750   -9.1220   10.3400 C   0  0  0  0  0  0  0  0  0  0  0  0
  -32.6890   -8.3810   11.4570 C   0  0  0  0  0  0  0  0  0  0  0  0
  -36.3180  -10.1520   12.0870 C   0  0  0  0  0  0  0  0  0  0  0  0
  -37.5990   -9.6170   12.2470 C   0  0  0  0  0  0  0  0  0  0  0  0
  -39.0190   -8.7351   13.6206 H   0  0  0  0  0  0  0  0  0  0  0  0
  -37.4514   -8.8291   15.5585 H   0  0  0  0  0  0  0  0  0  0  0  0
  -35.1629   -9.7659   15.2675 H   0  0  0  0  0  0  0  0  0  0  0  0
  -34.0650  -11.7450   13.1350 H   0  0  0  0  0  0  0  0  0  0  0  0
  -32.1530  -10.5480   13.4290 H   0  0  0  0  0  0  0  0  0  0  0  0
  -31.8782   -5.7325   13.8795 H   0  0  0  0  0  0  0  0  0  0  0  0
  -32.9320   -8.4460    8.3060 H   0  0  0  0  0  0  0  0  0  0  0  0
  -33.2758  -10.1791   10.2946 H   0  0  0  0  0  0  0  0  0  0  0  0
  -35.9953  -10.5014   11.0951 H   0  0  0  0  0  0  0  0  0  0  0  0
  -38.2845   -9.5658   11.3882 H   0  0  0  0  0  0  0  0  0  0  0  0
  1  2  2  0
  2  3  1  0
  3  4  2  0
  4  5  1  0
  5  6  1  0
  6  7  1  0
  7  8  2  0
  8  9  1  0
  9 10  2  0
 10 11  1  0
 11 12  2  0
 12 13  1  0
 13 14  1  0
 14 15  2  0
  4 16  1  0
 16 17  2  0
 17  1  1  0
 15  7  1  0
 15 11  1  0
  1 18  1  0
  2 19  1  0
  3 20  1  0
  5 21  1  0
  6 22  1  0
  9 23  1  0
 13 24  1  0
 14 25  1  0
 16 26  1  0
 17 27  1  0
M  END
>  <meeko>  (6) 
{"is_sidechain": [false], "free_energy": -6.082, "intermolecular_energy": -7.259, "internal_energy": -0.381}

$$$$
4ih5_ligand
     RDKit          3D

 27 29  0  0  0  0  0  0  0  0999 V2000
  -29.4880   -6.9480   14.7440 C   0  0  0  0  0  0  0  0  0  0  0  0
  -29.6780   -6.7940   13.3720 C   0  0  0  0  0  0  0  0  0  0  0  0
  -30.7040   -7.4890   12.7270 C   0  0  0  0  0  0  0  0  0  0  0  0
  -31.5370   -8.3630   13.4360 C   0  0  0  0  0  0  0  0  0  0  0  0
  -32.6190   -9.0280   12.8170 N   0  0  0  0  0  0  0  0  0  0  0  0
  -33.4310   -9.8870   13.5100 N   0  0  0  0  0  0  0  0  0  0  0  0
  -34.8050   -9.6600   13.6780 C   0  0  0  0  0  0  0  0  0  0  0  0
  -35.3010   -9.5210   14.9420 N   0  0  0  0  0  0  0  0  0  0  0  0
  -36.6440   -9.2920   15.1180 C   0  0  0  0  0  0  0  0  0  0  0  0
  -37.6440   -9.1690   14.2090 N   0  0  0  0  0  0  0  0  0  0  0  0
  -37.1670   -9.3180   12.9510 C   0  0  0  0  0  0  0  0  0  0  0  0
  -37.8700   -9.2720   11.8160 N   0  0  0  0  0  0  0  0  0  0  0  0
  -36.9470   -9.5020   10.8600 N   0  0  0  0  0  0  0  0  0  0  0  0
  -35.6780   -9.6770   11.3360 C   0  0  0  0  0  0  0  0  0  0  0  0
  -35.7930   -9.5530   12.6960 C   0  0  0  0  0  0  0  0  0  0  0  0
  -31.3560   -8.4790   14.8210 C   0  0  0  0  0  0  0  0  0  0  0  0
  -30.3300   -7.7860   15.4700 C   0  0  0  0  0  0  0  0  0  0  0  0
  -28.6748   -6.4088   15.2520 H   0  0  0  0  0  0  0  0  0  0  0  0
  -29.0203   -6.1254   12.7971 H   0  0  0  0  0  0  0  0  0  0  0  0
  -30.8596   -7.3476   11.6473 H   0  0  0  0  0  0  0  0  0  0  0  0
  -33.1000   -8.4330   12.1390 H   0  0  0  0  0  0  0  0  0  0  0  0
  -33.0580  -10.2520   14.3870 H   0  0  0  0  0  0  0  0  0  0  0  0
  -36.9604   -9.1920   16.1668 H   0  0  0  0  0  0  0  0  0  0  0  0
  -37.2590   -9.5300    9.8950 H   0  0  0  0  0  0  0  0  0  0  0  0
  -34.7649   -9.8741   10.7552 H   0  0  0  0  0  0  0  0  0  0  0  0
  -32.0298   -9.1235   15.4046 H   0  0  0  0  0  0  0  0  0  0  0  0
  -30.1879   -7.9028   16.5545 H   0  0  0  0  0  0  0  0  0  0  0  0
  1  2  2  0
  2  3  1  0
  3  4  2  0
  4  5  1  0
  5  6  1  0
  6  7  1  0
  7  8  2  0
  8  9  1  0
  9 10  2  0
 10 11  1  0
 11 12  2  0
 12 13  1  0
 13 14  1  0
 14 15  2  0
  4 16  1  0
 16 17  2  0
 17  1  1  0
 15  7  1  0
 15 11  1  0
  1 18  1  0
  2 19  1  0
  3 20  1  0
  5 21  1  0
  6 22  1  0
  9 23  1  0
 13 24  1  0
 14 25  1  0
 16 26  1  0
 17 27  1  0
M  END
>  <meeko>  (7) 
{"is_sidechain": [false], "free_energy": -6.051, "intermolecular_energy": -7.33, "internal_energy": -0.273}

$$$$
4ih5_ligand
     RDKit          3D

 27 29  0  0  0  0  0  0  0  0999 V2000
  -29.3880   -9.3990   14.2700 C   0  0  0  0  0  0  0  0  0  0  0  0
  -30.1260  -10.4140   13.6650 C   0  0  0  0  0  0  0  0  0  0  0  0
  -31.5190  -10.3270   13.6090 C   0  0  0  0  0  0  0  0  0  0  0  0
  -32.1950   -9.2390   14.1770 C   0  0  0  0  0  0  0  0  0  0  0  0
  -33.5970   -9.0990   14.0780 N   0  0  0  0  0  0  0  0  0  0  0  0
  -34.3870  -10.0840   13.5470 N   0  0  0  0  0  0  0  0  0  0  0  0
  -35.3900   -9.8220   12.6020 C   0  0  0  0  0  0  0  0  0  0  0  0
  -36.6970   -9.9360   12.9790 N   0  0  0  0  0  0  0  0  0  0  0  0
  -37.6870   -9.6760   12.0630 C   0  0  0  0  0  0  0  0  0  0  0  0
  -37.6090   -9.3000   10.7610 N   0  0  0  0  0  0  0  0  0  0  0  0
  -36.3170   -9.1970   10.3720 C   0  0  0  0  0  0  0  0  0  0  0  0
  -35.8690   -8.8640    9.1580 N   0  0  0  0  0  0  0  0  0  0  0  0
  -34.5280   -8.9310    9.2830 N   0  0  0  0  0  0  0  0  0  0  0  0
  -34.0980   -9.2760   10.5330 C   0  0  0  0  0  0  0  0  0  0  0  0
  -35.2450   -9.4480   11.2650 C   0  0  0  0  0  0  0  0  0  0  0  0
  -31.4360   -8.2100   14.7500 C   0  0  0  0  0  0  0  0  0  0  0  0
  -30.0420   -8.2940   14.8080 C   0  0  0  0  0  0  0  0  0  0  0  0
  -28.2916   -9.4705   14.3225 H   0  0  0  0  0  0  0  0  0  0  0  0
  -29.6116  -11.2842   13.2313 H   0  0  0  0  0  0  0  0  0  0  0  0
  -32.0929  -11.1232   13.1124 H   0  0  0  0  0  0  0  0  0  0  0  0
  -33.9940   -8.6190   14.8890 H   0  0  0  0  0  0  0  0  0  0  0  0
  -34.7410  -10.7820   14.2030 H   0  0  0  0  0  0  0  0  0  0  0  0
  -38.7111   -9.7914   12.4476 H   0  0  0  0  0  0  0  0  0  0  0  0
  -33.9640   -8.7290    8.4650 H   0  0  0  0  0  0  0  0  0  0  0  0
  -33.0595   -9.3907   10.8770 H   0  0  0  0  0  0  0  0  0  0  0  0
  -31.9439   -7.3244   15.1596 H   0  0  0  0  0  0  0  0  0  0  0  0
  -29.4616   -7.4869   15.2788 H   0  0  0  0  0  0  0  0  0  0  0  0
  1  2  2  0
  2  3  1  0
  3  4  2  0
  4  5  1  0
  5  6  1  0
  6  7  1  0
  7  8  2  0
  8  9  1  0
  9 10  2  0
 10 11  1  0
 11 12  2  0
 12 13  1  0
 13 14  1  0
 14 15  2  0
  4 16  1  0
 16 17  2  0
 17  1  1  0
 15  7  1  0
 15 11  1  0
  1 18  1  0
  2 19  1  0
  3 20  1  0
  5 21  1  0
  6 22  1  0
  9 23  1  0
 13 24  1  0
 14 25  1  0
 16 26  1  0
 17 27  1  0
M  END
>  <meeko>  (8) 
{"is_sidechain": [false], "free_energy": -5.992, "intermolecular_energy": -7.173, "internal_energy": -0.361}

$$$$
4ih5_ligand
     RDKit          3D

 27 29  0  0  0  0  0  0  0  0999 V2000
  -37.5690   -9.6230   11.1670 C   0  0  0  0  0  0  0  0  0  0  0  0
  -36.3860   -9.2700   10.5230 C   0  0  0  0  0  0  0  0  0  0  0  0
  -35.1560   -9.5060   11.1420 C   0  0  0  0  0  0  0  0  0  0  0  0
  -35.0920  -10.0750   12.4200 C   0  0  0  0  0  0  0  0  0  0  0  0
  -33.8590  -10.3800   13.0390 N   0  0  0  0  0  0  0  0  0  0  0  0
  -33.3750   -9.6440   14.0880 N   0  0  0  0  0  0  0  0  0  0  0  0
  -32.1650   -8.9370   14.0220 C   0  0  0  0  0  0  0  0  0  0  0  0
  -32.1970   -7.5990   13.7570 N   0  0  0  0  0  0  0  0  0  0  0  0
  -31.0190   -6.8960   13.6960 C   0  0  0  0  0  0  0  0  0  0  0  0
  -29.7360   -7.3080   13.8630 N   0  0  0  0  0  0  0  0  0  0  0  0
  -29.6900   -8.6360   14.1150 C   0  0  0  0  0  0  0  0  0  0  0  0
  -28.5980   -9.3780   14.3150 N   0  0  0  0  0  0  0  0  0  0  0  0
  -29.0850  -10.6230   14.4930 N   0  0  0  0  0  0  0  0  0  0  0  0
  -30.4480  -10.7060   14.4310 C   0  0  0  0  0  0  0  0  0  0  0  0
  -30.8680   -9.4230   14.1930 C   0  0  0  0  0  0  0  0  0  0  0  0
  -36.2900  -10.4560   13.0400 C   0  0  0  0  0  0  0  0  0  0  0  0
  -37.5210  -10.2210   12.4230 C   0  0  0  0  0  0  0  0  0  0  0  0
  -38.5385   -9.4299   10.6846 H   0  0  0  0  0  0  0  0  0  0  0  0
  -36.4199   -8.8052    9.5266 H   0  0  0  0  0  0  0  0  0  0  0  0
  -34.2254   -9.2414   10.6186 H   0  0  0  0  0  0  0  0  0  0  0  0
  -33.7040  -11.3870   13.1120 H   0  0  0  0  0  0  0  0  0  0  0  0
  -33.4430  -10.0750   15.0110 H   0  0  0  0  0  0  0  0  0  0  0  0
  -31.1334   -5.8243   13.4760 H   0  0  0  0  0  0  0  0  0  0  0  0
  -28.4220  -11.3750   14.6490 H   0  0  0  0  0  0  0  0  0  0  0  0
  -31.0711  -11.6051   14.5467 H   0  0  0  0  0  0  0  0  0  0  0  0
  -36.2604  -10.9460   14.0244 H   0  0  0  0  0  0  0  0  0  0  0  0
  -38.4536  -10.5089   12.9303 H   0  0  0  0  0  0  0  0  0  0  0  0
  1  2  2  0
  2  3  1  0
  3  4  2  0
  4  5  1  0
  5  6  1  0
  6  7  1  0
  7  8  2  0
  8  9  1  0
  9 10  2  0
 10 11  1  0
 11 12  2  0
 12 13  1  0
 13 14  1  0
 14 15  2  0
  4 16  1  0
 16 17  2  0
 17  1  1  0
 15  7  1  0
 15 11  1  0
  1 18  1  0
  2 19  1  0
  3 20  1  0
  5 21  1  0
  6 22  1  0
  9 23  1  0
 13 24  1  0
 14 25  1  0
 16 26  1  0
 17 27  1  0
M  END
>  <meeko>  (9) 
{"is_sidechain": [false], "free_energy": -5.953, "intermolecular_energy": -7.199, "internal_energy": -0.289}

$$$$
