3n86_ligand
     RDKit          3D

 39 40  0  0  0  0  0  0  0  0999 V2000
   21.7680  -15.0550    8.8330 O   0  0  0  0  0  0  0  0  0  0  0  0
   22.3050  -14.2310    9.5640 C   0  0  0  0  0  0  0  0  0  0  0  0
   21.7210  -12.8500    9.8090 C   0  0  0  0  0  0  0  0  0  0  0  0
   21.0910  -12.2520    8.5550 C   0  0  0  0  0  0  0  0  0  0  0  0
   21.5660  -10.8440    8.3380 C   0  0  0  0  0  0  0  0  0  0  0  0
   22.2470  -10.1390    9.2590 C   0  0  0  0  0  0  0  0  0  0  0  0
   22.8270   -8.7660    9.0400 C   0  0  1  0  0  0  0  0  0  0  0  0
   21.9640   -7.8490    9.7500 O   0  0  0  0  0  0  0  0  0  0  0  0
   24.2780   -8.6940    9.6550 C   0  0  0  0  0  0  0  0  0  0  0  0
   25.0160   -7.8380    9.0700 O   0  0  0  0  0  0  0  0  0  0  0  0
   24.5250   -9.4500   10.6340 O   0  0  0  0  0  0  0  0  0  0  0  0
   22.8880   -8.3600    7.5710 C   0  0  0  0  0  0  0  0  0  0  0  0
   21.5790   -8.6950    6.8810 C   0  0  1  0  0  0  0  0  0  0  0  0
   21.6640   -8.3530    5.4930 O   0  0  0  0  0  0  0  0  0  0  0  0
   21.2580  -10.1850    7.0350 C   0  0  0  0  0  0  0  0  0  0  0  0
   20.7250  -10.8160    6.1170 O   0  0  0  0  0  0  0  0  0  0  0  0
   23.4910  -14.3980   10.2650 N   0  0  0  0  0  0  0  0  0  0  0  0
   24.3290  -15.5310   10.2890 C   0  0  0  0  0  0  0  0  0  0  0  0
   25.1330  -15.7540    9.1630 C   0  0  0  0  0  0  0  0  0  0  0  0
   25.9930  -16.8550    9.1060 C   0  0  0  0  0  0  0  0  0  0  0  0
   26.0560  -17.7430   10.1750 C   0  0  0  0  0  0  0  0  0  0  0  0
   25.2620  -17.5300   11.2980 C   0  0  0  0  0  0  0  0  0  0  0  0
   24.4010  -16.4280   11.3560 C   0  0  0  0  0  0  0  0  0  0  0  0
   20.9495  -12.9265   10.5894 H   0  0  0  0  0  0  0  0  0  0  0  0
   22.5440  -12.1887   10.1178 H   0  0  0  0  0  0  0  0  0  0  0  0
   21.3692  -12.8645    7.6847 H   0  0  0  0  0  0  0  0  0  0  0  0
   19.9984  -12.2395    8.6814 H   0  0  0  0  0  0  0  0  0  0  0  0
   22.3914  -10.6000   10.2472 H   0  0  0  0  0  0  0  0  0  0  0  0
   21.0670   -8.1880    9.4990 H   0  0  0  0  0  0  0  0  0  0  0  0
   23.0695   -7.2774    7.5003 H   0  0  0  0  0  0  0  0  0  0  0  0
   23.7042   -8.9101    7.0798 H   0  0  0  0  0  0  0  0  0  0  0  0
   20.7715   -8.1137    7.3501 H   0  0  0  0  0  0  0  0  0  0  0  0
   21.1430   -9.0380    5.0310 H   0  0  0  0  0  0  0  0  0  0  0  0
   23.7830  -13.6160   10.8370 H   0  0  0  0  0  0  0  0  0  0  0  0
   25.0870  -15.0552    8.3147 H   0  0  0  0  0  0  0  0  0  0  0  0
   26.6192  -17.0189    8.2166 H   0  0  0  0  0  0  0  0  0  0  0  0
   26.7310  -18.6105   10.1328 H   0  0  0  0  0  0  0  0  0  0  0  0
   25.3113  -18.2311   12.1442 H   0  0  0  0  0  0  0  0  0  0  0  0
   23.7773  -16.2679   12.2478 H   0  0  0  0  0  0  0  0  0  0  0  0
  1  2  2  0
  2  3  1  0
  3  4  1  0
  4  5  1  0
  5  6  2  0
  6  7  1  0
  7  8  1  1
  7  9  1  0
  9 10  2  0
  9 11  1  0
  7 12  1  0
 12 13  1  0
 13 14  1  0
 13 15  1  0
 15 16  2  0
  2 17  1  0
 17 18  1  0
 18 19  2  0
 19 20  1  0
 20 21  2  0
 21 22  1  0
 22 23  2  0
 15  5  1  0
 23 18  1  0
  3 24  1  0
  3 25  1  0
  4 26  1  0
  4 27  1  0
  6 28  1  0
  8 29  1  0
 12 30  1  0
 12 31  1  0
 13 32  1  1
 14 33  1  0
 17 34  1  0
 19 35  1  0
 20 36  1  0
 21 37  1  0
 22 38  1  0
 23 39  1  0
M  CHG  1  11  -1
M  END
>  <meeko>  (1) 
{"is_sidechain": [false], "free_energy": -6.173, "intermolecular_energy": -8.339, "internal_energy": -0.554}

$$$$
3n86_ligand
     RDKit          3D

 39 40  0  0  0  0  0  0  0  0999 V2000
   17.0400  -10.1840    4.7250 O   0  0  0  0  0  0  0  0  0  0  0  0
   17.7130  -11.0810    4.2300 C   0  0  0  0  0  0  0  0  0  0  0  0
   19.1750  -10.8980    3.8620 C   0  0  0  0  0  0  0  0  0  0  0  0
   19.6560   -9.4650    4.0710 C   0  0  0  0  0  0  0  0  0  0  0  0
   20.7600   -9.4150    5.0880 C   0  0  0  0  0  0  0  0  0  0  0  0
   20.5610   -9.1310    6.3870 C   0  0  0  0  0  0  0  0  0  0  0  0
   21.6250   -9.1720    7.4520 C   0  0  1  0  0  0  0  0  0  0  0  0
   21.9500   -7.7950    7.7490 O   0  0  0  0  0  0  0  0  0  0  0  0
   21.0540   -9.8610    8.7520 C   0  0  0  0  0  0  0  0  0  0  0  0
   20.5680   -9.0240    9.5780 O   0  0  0  0  0  0  0  0  0  0  0  0
   21.1240  -11.1190    8.8120 O   0  0  0  0  0  0  0  0  0  0  0  0
   22.8910   -9.9020    7.0180 C   0  0  0  0  0  0  0  0  0  0  0  0
   23.2990   -9.4570    5.6250 C   0  0  1  0  0  0  0  0  0  0  0  0
   24.4610  -10.1830    5.2090 O   0  0  0  0  0  0  0  0  0  0  0  0
   22.1550   -9.6860    4.6330 C   0  0  0  0  0  0  0  0  0  0  0  0
   22.3840  -10.0510    3.4760 O   0  0  0  0  0  0  0  0  0  0  0  0
   17.2820  -12.3640    3.9260 N   0  0  0  0  0  0  0  0  0  0  0  0
   15.9970  -12.9110    4.1100 C   0  0  0  0  0  0  0  0  0  0  0  0
   15.8510  -13.8740    5.1180 C   0  0  0  0  0  0  0  0  0  0  0  0
   14.6090  -14.4660    5.3660 C   0  0  0  0  0  0  0  0  0  0  0  0
   13.5010  -14.1020    4.6060 C   0  0  0  0  0  0  0  0  0  0  0  0
   13.6360  -13.1460    3.6020 C   0  0  0  0  0  0  0  0  0  0  0  0
   14.8790  -12.5520    3.3550 C   0  0  0  0  0  0  0  0  0  0  0  0
   19.7826  -11.5687    4.4873 H   0  0  0  0  0  0  0  0  0  0  0  0
   19.2823  -11.1336    2.7929 H   0  0  0  0  0  0  0  0  0  0  0  0
   20.0278   -9.0666    3.1155 H   0  0  0  0  0  0  0  0  0  0  0  0
   18.8129   -8.8603    4.4364 H   0  0  0  0  0  0  0  0  0  0  0  0
   19.5439   -8.8472    6.6953 H   0  0  0  0  0  0  0  0  0  0  0  0
   22.3150   -7.4870    6.8800 H   0  0  0  0  0  0  0  0  0  0  0  0
   23.7025   -9.6744    7.7248 H   0  0  0  0  0  0  0  0  0  0  0  0
   22.6963  -10.9846    7.0073 H   0  0  0  0  0  0  0  0  0  0  0  0
   23.5302   -8.3818    5.6485 H   0  0  0  0  0  0  0  0  0  0  0  0
   24.7880  -10.6240    6.0170 H   0  0  0  0  0  0  0  0  0  0  0  0
   17.9790  -12.9850    3.5340 H   0  0  0  0  0  0  0  0  0  0  0  0
   16.7233  -14.1672    5.7206 H   0  0  0  0  0  0  0  0  0  0  0  0
   14.5074  -15.2191    6.1613 H   0  0  0  0  0  0  0  0  0  0  0  0
   12.5229  -14.5674    4.7975 H   0  0  0  0  0  0  0  0  0  0  0  0
   12.7617  -12.8566    3.0005 H   0  0  0  0  0  0  0  0  0  0  0  0
   14.9756  -11.7972    2.5607 H   0  0  0  0  0  0  0  0  0  0  0  0
  1  2  2  0
  2  3  1  0
  3  4  1  0
  4  5  1  0
  5  6  2  0
  6  7  1  0
  7  8  1  1
  7  9  1  0
  9 10  2  0
  9 11  1  0
  7 12  1  0
 12 13  1  0
 13 14  1  0
 13 15  1  0
 15 16  2  0
  2 17  1  0
 17 18  1  0
 18 19  2  0
 19 20  1  0
 20 21  2  0
 21 22  1  0
 22 23  2  0
 15  5  1  0
 23 18  1  0
  3 24  1  0
  3 25  1  0
  4 26  1  0
  4 27  1  0
  6 28  1  0
  8 29  1  0
 12 30  1  0
 12 31  1  0
 13 32  1  1
 14 33  1  0
 17 34  1  0
 19 35  1  0
 20 36  1  0
 21 37  1  0
 22 38  1  0
 23 39  1  0
M  CHG  1  11  -1
M  END
>  <meeko>  (2) 
{"is_sidechain": [false], "free_energy": -6.048, "intermolecular_energy": -8.194, "internal_energy": -0.53}

$$$$
3n86_ligand
     RDKit          3D

 39 40  0  0  0  0  0  0  0  0999 V2000
   20.4620   -9.5730    2.8470 O   0  0  0  0  0  0  0  0  0  0  0  0
   20.6260   -9.9650    3.9970 C   0  0  0  0  0  0  0  0  0  0  0  0
   21.9980  -10.0600    4.6410 C   0  0  0  0  0  0  0  0  0  0  0  0
   22.4180   -8.7590    5.3170 C   0  0  0  0  0  0  0  0  0  0  0  0
   22.1800   -8.8250    6.7980 C   0  0  0  0  0  0  0  0  0  0  0  0
   23.0450   -9.3780    7.6670 C   0  0  0  0  0  0  0  0  0  0  0  0
   22.8880   -9.3710    9.1640 C   0  0  1  0  0  0  0  0  0  0  0  0
   22.4860  -10.7100    9.5320 O   0  0  0  0  0  0  0  0  0  0  0  0
   24.2720   -9.0400    9.8460 C   0  0  0  0  0  0  0  0  0  0  0  0
   24.8850   -8.0840    9.2730 O   0  0  0  0  0  0  0  0  0  0  0  0
   24.5900   -9.7230   10.8580 O   0  0  0  0  0  0  0  0  0  0  0  0
   21.8400   -8.3800    9.6600 C   0  0  0  0  0  0  0  0  0  0  0  0
   20.5830   -8.4830    8.8160 C   0  0  1  0  0  0  0  0  0  0  0  0
   19.6240   -7.5170    9.2600 O   0  0  0  0  0  0  0  0  0  0  0  0
   20.9110   -8.2550    7.3370 C   0  0  0  0  0  0  0  0  0  0  0  0
   20.1280   -7.6460    6.6020 O   0  0  0  0  0  0  0  0  0  0  0  0
   19.6360  -10.3770    4.8770 N   0  0  0  0  0  0  0  0  0  0  0  0
   18.2470  -10.4410    4.6490 C   0  0  0  0  0  0  0  0  0  0  0  0
   17.5210   -9.2510    4.7930 C   0  0  0  0  0  0  0  0  0  0  0  0
   16.1390   -9.2280    4.5830 C   0  0  0  0  0  0  0  0  0  0  0  0
   15.4690  -10.3950    4.2300 C   0  0  0  0  0  0  0  0  0  0  0  0
   16.1820  -11.5830    4.0850 C   0  0  0  0  0  0  0  0  0  0  0  0
   17.5660  -11.6060    4.2930 C   0  0  0  0  0  0  0  0  0  0  0  0
   21.9784  -10.8595    5.3963 H   0  0  0  0  0  0  0  0  0  0  0  0
   22.7266  -10.2730    3.8449 H   0  0  0  0  0  0  0  0  0  0  0  0
   23.4883   -8.5856    5.1314 H   0  0  0  0  0  0  0  0  0  0  0  0
   21.8182   -7.9363    4.9005 H   0  0  0  0  0  0  0  0  0  0  0  0
   23.9352   -9.8732    7.2519 H   0  0  0  0  0  0  0  0  0  0  0  0
   21.5070  -10.5990    9.6400 H   0  0  0  0  0  0  0  0  0  0  0  0
   21.5938   -8.6053   10.7081 H   0  0  0  0  0  0  0  0  0  0  0  0
   22.2438   -7.3598    9.5809 H   0  0  0  0  0  0  0  0  0  0  0  0
   20.1610   -9.4926    8.9283 H   0  0  0  0  0  0  0  0  0  0  0  0
   18.7560   -7.9510    9.1500 H   0  0  0  0  0  0  0  0  0  0  0  0
   19.9490  -10.6550    5.7990 H   0  0  0  0  0  0  0  0  0  0  0  0
   18.0441   -8.3251    5.0743 H   0  0  0  0  0  0  0  0  0  0  0  0
   15.5812   -8.2868    4.6969 H   0  0  0  0  0  0  0  0  0  0  0  0
   14.3814  -10.3798    4.0662 H   0  0  0  0  0  0  0  0  0  0  0  0
   15.6549  -12.5072    3.8058 H   0  0  0  0  0  0  0  0  0  0  0  0
   18.1206  -12.5486    4.1751 H   0  0  0  0  0  0  0  0  0  0  0  0
  1  2  2  0
  2  3  1  0
  3  4  1  0
  4  5  1  0
  5  6  2  0
  6  7  1  0
  7  8  1  1
  7  9  1  0
  9 10  2  0
  9 11  1  0
  7 12  1  0
 12 13  1  0
 13 14  1  0
 13 15  1  0
 15 16  2  0
  2 17  1  0
 17 18  1  0
 18 19  2  0
 19 20  1  0
 20 21  2  0
 21 22  1  0
 22 23  2  0
 15  5  1  0
 23 18  1  0
  3 24  1  0
  3 25  1  0
  4 26  1  0
  4 27  1  0
  6 28  1  0
  8 29  1  0
 12 30  1  0
 12 31  1  0
 13 32  1  6
 14 33  1  0
 17 34  1  0
 19 35  1  0
 20 36  1  0
 21 37  1  0
 22 38  1  0
 23 39  1  0
M  CHG  1  11  -1
M  END
>  <meeko>  (3) 
{"is_sidechain": [false], "free_energy": -5.711, "intermolecular_energy": -7.3, "internal_energy": -0.968}

$$$$
3n86_ligand
     RDKit          3D

 39 40  0  0  0  0  0  0  0  0999 V2000
   17.3940   -8.6490    3.8630 O   0  0  0  0  0  0  0  0  0  0  0  0
   18.2290   -9.1630    4.5980 C   0  0  0  0  0  0  0  0  0  0  0  0
   19.1540   -8.3450    5.4820 C   0  0  0  0  0  0  0  0  0  0  0  0
   20.6260   -8.6720    5.2480 C   0  0  0  0  0  0  0  0  0  0  0  0
   21.3990   -8.6050    6.5340 C   0  0  0  0  0  0  0  0  0  0  0  0
   21.9650   -7.4790    7.0040 C   0  0  0  0  0  0  0  0  0  0  0  0
   22.6570   -7.3500    8.3350 C   0  0  1  0  0  0  0  0  0  0  0  0
   24.0740   -7.3110    8.0480 O   0  0  0  0  0  0  0  0  0  0  0  0
   22.2310   -6.0010    9.0320 C   0  0  0  0  0  0  0  0  0  0  0  0
   23.2020   -5.1880    9.1610 O   0  0  0  0  0  0  0  0  0  0  0  0
   21.0160   -5.8780    9.3500 O   0  0  0  0  0  0  0  0  0  0  0  0
   22.3700   -8.5110    9.2820 C   0  0  0  0  0  0  0  0  0  0  0  0
   22.4930   -9.8310    8.5440 C   0  0  1  0  0  0  0  0  0  0  0  0
   22.1760  -10.9100    9.4300 O   0  0  0  0  0  0  0  0  0  0  0  0
   21.5560   -9.8560    7.3320 C   0  0  0  0  0  0  0  0  0  0  0  0
   20.9750  -10.8940    7.0020 O   0  0  0  0  0  0  0  0  0  0  0  0
   18.4740  -10.5200    4.7460 N   0  0  0  0  0  0  0  0  0  0  0  0
   17.8330  -11.5920    4.0940 C   0  0  0  0  0  0  0  0  0  0  0  0
   16.7900  -12.2270    4.7820 C   0  0  0  0  0  0  0  0  0  0  0  0
   16.1010  -13.2980    4.2060 C   0  0  0  0  0  0  0  0  0  0  0  0
   16.4500  -13.7450    2.9350 C   0  0  0  0  0  0  0  0  0  0  0  0
   17.4840  -13.1210    2.2430 C   0  0  0  0  0  0  0  0  0  0  0  0
   18.1740  -12.0480    2.8200 C   0  0  0  0  0  0  0  0  0  0  0  0
   18.9917   -7.2778    5.2703 H   0  0  0  0  0  0  0  0  0  0  0  0
   18.9194   -8.5900    6.5284 H   0  0  0  0  0  0  0  0  0  0  0  0
   20.7080   -9.6864    4.8306 H   0  0  0  0  0  0  0  0  0  0  0  0
   21.0436   -7.9342    4.5471 H   0  0  0  0  0  0  0  0  0  0  0  0
   21.9188   -6.5834    6.3669 H   0  0  0  0  0  0  0  0  0  0  0  0
   24.0720   -7.1590    7.0690 H   0  0  0  0  0  0  0  0  0  0  0  0
   23.0916   -8.4900   10.1120 H   0  0  0  0  0  0  0  0  0  0  0  0
   21.3463   -8.4116    9.6722 H   0  0  0  0  0  0  0  0  0  0  0  0
   23.5277   -9.9442    8.1883 H   0  0  0  0  0  0  0  0  0  0  0  0
   21.3850  -11.3320    9.0430 H   0  0  0  0  0  0  0  0  0  0  0  0
   19.1940  -10.7710    5.4130 H   0  0  0  0  0  0  0  0  0  0  0  0
   16.5104  -11.8784    5.7871 H   0  0  0  0  0  0  0  0  0  0  0  0
   15.2839  -13.7870    4.7566 H   0  0  0  0  0  0  0  0  0  0  0  0
   15.9107  -14.5883    2.4790 H   0  0  0  0  0  0  0  0  0  0  0  0
   17.7604  -13.4725    1.2380 H   0  0  0  0  0  0  0  0  0  0  0  0
   18.9900  -11.5614    2.2656 H   0  0  0  0  0  0  0  0  0  0  0  0
  1  2  2  0
  2  3  1  0
  3  4  1  0
  4  5  1  0
  5  6  2  0
  6  7  1  0
  7  8  1  6
  7  9  1  0
  9 10  2  0
  9 11  1  0
  7 12  1  0
 12 13  1  0
 13 14  1  0
 13 15  1  0
 15 16  2  0
  2 17  1  0
 17 18  1  0
 18 19  2  0
 19 20  1  0
 20 21  2  0
 21 22  1  0
 22 23  2  0
 15  5  1  0
 23 18  1  0
  3 24  1  0
  3 25  1  0
  4 26  1  0
  4 27  1  0
  6 28  1  0
  8 29  1  0
 12 30  1  0
 12 31  1  0
 13 32  1  6
 14 33  1  0
 17 34  1  0
 19 35  1  0
 20 36  1  0
 21 37  1  0
 22 38  1  0
 23 39  1  0
M  CHG  1  11  -1
M  END
>  <meeko>  (4) 
{"is_sidechain": [false], "free_energy": -5.639, "intermolecular_energy": -7.388, "internal_energy": -0.783}

$$$$
3n86_ligand
     RDKit          3D

 39 40  0  0  0  0  0  0  0  0999 V2000
   18.6950  -12.4880    2.1740 O   0  0  0  0  0  0  0  0  0  0  0  0
   18.6790  -11.6830    3.0980 C   0  0  0  0  0  0  0  0  0  0  0  0
   19.8410  -10.7480    3.3880 C   0  0  0  0  0  0  0  0  0  0  0  0
   19.8560  -10.2680    4.8370 C   0  0  0  0  0  0  0  0  0  0  0  0
   21.2550   -9.9510    5.2790 C   0  0  0  0  0  0  0  0  0  0  0  0
   22.2760   -9.7440    4.4290 C   0  0  0  0  0  0  0  0  0  0  0  0
   23.6650   -9.3240    4.8320 C   0  0  1  0  0  0  0  0  0  0  0  0
   24.4930  -10.5020    4.7020 O   0  0  0  0  0  0  0  0  0  0  0  0
   24.1930   -8.2080    3.8510 C   0  0  0  0  0  0  0  0  0  0  0  0
   24.9270   -8.6770    2.9240 O   0  0  0  0  0  0  0  0  0  0  0  0
   23.8230   -7.0230    4.0780 O   0  0  0  0  0  0  0  0  0  0  0  0
   23.7510   -8.8090    6.2650 C   0  0  0  0  0  0  0  0  0  0  0  0
   22.9890   -9.7310    7.1990 C   0  0  1  0  0  0  0  0  0  0  0  0
   23.0370   -9.2120    8.5330 O   0  0  0  0  0  0  0  0  0  0  0  0
   21.5340   -9.8710    6.7430 C   0  0  0  0  0  0  0  0  0  0  0  0
   20.6170   -9.9530    7.5670 O   0  0  0  0  0  0  0  0  0  0  0  0
   17.6500  -11.4910    4.0080 N   0  0  0  0  0  0  0  0  0  0  0  0
   16.4160  -12.1690    4.0740 C   0  0  0  0  0  0  0  0  0  0  0  0
   15.4660  -11.8640    3.0900 C   0  0  0  0  0  0  0  0  0  0  0  0
   14.2170  -12.4920    3.0830 C   0  0  0  0  0  0  0  0  0  0  0  0
   13.9060  -13.4300    4.0630 C   0  0  0  0  0  0  0  0  0  0  0  0
   14.8430  -13.7400    5.0450 C   0  0  0  0  0  0  0  0  0  0  0  0
   16.0940  -13.1120    5.0510 C   0  0  0  0  0  0  0  0  0  0  0  0
   20.7817  -11.2798    3.1826 H   0  0  0  0  0  0  0  0  0  0  0  0
   19.7280   -9.8637    2.7436 H   0  0  0  0  0  0  0  0  0  0  0  0
   19.2367   -9.3631    4.9236 H   0  0  0  0  0  0  0  0  0  0  0  0
   19.4566  -11.0680    5.4776 H   0  0  0  0  0  0  0  0  0  0  0  0
   22.0818   -9.8929    3.3566 H   0  0  0  0  0  0  0  0  0  0  0  0
   23.8600  -11.1430    4.2880 H   0  0  0  0  0  0  0  0  0  0  0  0
   24.8059   -8.7692    6.5743 H   0  0  0  0  0  0  0  0  0  0  0  0
   23.3079   -7.8033    6.3125 H   0  0  0  0  0  0  0  0  0  0  0  0
   23.4584  -10.7256    7.1784 H   0  0  0  0  0  0  0  0  0  0  0  0
   23.3210   -8.2830    8.4340 H   0  0  0  0  0  0  0  0  0  0  0  0
   17.7990  -10.7680    4.7020 H   0  0  0  0  0  0  0  0  0  0  0  0
   15.7058  -11.1219    2.3142 H   0  0  0  0  0  0  0  0  0  0  0  0
   13.4809  -12.2450    2.3038 H   0  0  0  0  0  0  0  0  0  0  0  0
   12.9235  -13.9246    4.0617 H   0  0  0  0  0  0  0  0  0  0  0  0
   14.5991  -14.4818    5.8197 H   0  0  0  0  0  0  0  0  0  0  0  0
   16.8280  -13.3634    5.8308 H   0  0  0  0  0  0  0  0  0  0  0  0
  1  2  2  0
  2  3  1  0
  3  4  1  0
  4  5  1  0
  5  6  2  0
  6  7  1  0
  7  8  1  1
  7  9  1  0
  9 10  2  0
  9 11  1  0
  7 12  1  0
 12 13  1  0
 13 14  1  0
 13 15  1  0
 15 16  2  0
  2 17  1  0
 17 18  1  0
 18 19  2  0
 19 20  1  0
 20 21  2  0
 21 22  1  0
 22 23  2  0
 15  5  1  0
 23 18  1  0
  3 24  1  0
  3 25  1  0
  4 26  1  0
  4 27  1  0
  6 28  1  0
  8 29  1  0
 12 30  1  0
 12 31  1  0
 13 32  1  1
 14 33  1  0
 17 34  1  0
 19 35  1  0
 20 36  1  0
 21 37  1  0
 22 38  1  0
 23 39  1  0
M  CHG  1  11  -1
M  END
>  <meeko>  (5) 
{"is_sidechain": [false], "free_energy": -5.561, "intermolecular_energy": -7.513, "internal_energy": -0.553}

$$$$
3n86_ligand
     RDKit          3D

 39 40  0  0  0  0  0  0  0  0999 V2000
   20.0300  -10.8760    3.8980 O   0  0  0  0  0  0  0  0  0  0  0  0
   19.1300  -10.2220    4.4110 C   0  0  0  0  0  0  0  0  0  0  0  0
   19.3420   -8.8140    4.9420 C   0  0  0  0  0  0  0  0  0  0  0  0
   20.8080   -8.5170    5.2400 C   0  0  0  0  0  0  0  0  0  0  0  0
   21.0430   -8.4220    6.7210 C   0  0  0  0  0  0  0  0  0  0  0  0
   20.7710   -7.3250    7.4480 C   0  0  0  0  0  0  0  0  0  0  0  0
   20.8970   -7.2290    8.9460 C   0  0  1  0  0  0  0  0  0  0  0  0
   22.0890   -6.4520    9.1990 O   0  0  0  0  0  0  0  0  0  0  0  0
   19.6480   -6.4700    9.5400 C   0  0  0  0  0  0  0  0  0  0  0  0
   19.2810   -6.9370   10.6660 O   0  0  0  0  0  0  0  0  0  0  0  0
   19.1860   -5.5090    8.8660 O   0  0  0  0  0  0  0  0  0  0  0  0
   21.0280   -8.5850    9.6320 C   0  0  0  0  0  0  0  0  0  0  0  0
   22.0290   -9.4510    8.8910 C   0  0  1  0  0  0  0  0  0  0  0  0
   22.1090  -10.7370    9.5160 O   0  0  0  0  0  0  0  0  0  0  0  0
   21.6190   -9.6060    7.4230 C   0  0  0  0  0  0  0  0  0  0  0  0
   21.7950  -10.6730    6.8260 O   0  0  0  0  0  0  0  0  0  0  0  0
   17.8170  -10.6280    4.5970 N   0  0  0  0  0  0  0  0  0  0  0  0
   17.2360  -11.8640    4.2480 C   0  0  0  0  0  0  0  0  0  0  0  0
   17.4340  -12.3140    2.9360 C   0  0  0  0  0  0  0  0  0  0  0  0
   16.8920  -13.5300    2.5080 C   0  0  0  0  0  0  0  0  0  0  0  0
   16.1450  -14.3060    3.3890 C   0  0  0  0  0  0  0  0  0  0  0  0
   15.9430  -13.8670    4.6950 C   0  0  0  0  0  0  0  0  0  0  0  0
   16.4860  -12.6510    5.1230 C   0  0  0  0  0  0  0  0  0  0  0  0
   18.9822   -8.0957    4.1907 H   0  0  0  0  0  0  0  0  0  0  0  0
   18.7843   -8.7252    5.8860 H   0  0  0  0  0  0  0  0  0  0  0  0
   21.4306   -9.3244    4.8272 H   0  0  0  0  0  0  0  0  0  0  0  0
   21.0735   -7.5544    4.7785 H   0  0  0  0  0  0  0  0  0  0  0  0
   20.4305   -6.4291    6.9082 H   0  0  0  0  0  0  0  0  0  0  0  0
   21.8540   -5.5870    8.7760 H   0  0  0  0  0  0  0  0  0  0  0  0
   21.3707   -8.4374   10.6668 H   0  0  0  0  0  0  0  0  0  0  0  0
   20.0484   -9.0854    9.6293 H   0  0  0  0  0  0  0  0  0  0  0  0
   23.0157   -8.9662    8.9287 H   0  0  0  0  0  0  0  0  0  0  0  0
   22.9950  -11.0770    9.2840 H   0  0  0  0  0  0  0  0  0  0  0  0
   17.1980   -9.9510    5.0260 H   0  0  0  0  0  0  0  0  0  0  0  0
   18.0224  -11.7040    2.2348 H   0  0  0  0  0  0  0  0  0  0  0  0
   17.0560  -13.8728    1.4757 H   0  0  0  0  0  0  0  0  0  0  0  0
   15.7158  -15.2622    3.0552 H   0  0  0  0  0  0  0  0  0  0  0  0
   15.3537  -14.4793    5.3934 H   0  0  0  0  0  0  0  0  0  0  0  0
   16.3207  -12.3127    6.1566 H   0  0  0  0  0  0  0  0  0  0  0  0
  1  2  2  0
  2  3  1  0
  3  4  1  0
  4  5  1  0
  5  6  2  0
  6  7  1  0
  7  8  1  6
  7  9  1  0
  9 10  2  0
  9 11  1  0
  7 12  1  0
 12 13  1  0
 13 14  1  0
 13 15  1  0
 15 16  2  0
  2 17  1  0
 17 18  1  0
 18 19  2  0
 19 20  1  0
 20 21  2  0
 21 22  1  0
 22 23  2  0
 15  5  1  0
 23 18  1  0
  3 24  1  0
  3 25  1  0
  4 26  1  0
  4 27  1  0
  6 28  1  0
  8 29  1  0
 12 30  1  0
 12 31  1  0
 13 32  1  6
 14 33  1  0
 17 34  1  0
 19 35  1  0
 20 36  1  0
 21 37  1  0
 22 38  1  0
 23 39  1  0
M  CHG  1  11  -1
M  END
>  <meeko>  (6) 
{"is_sidechain": [false], "free_energy": -5.49, "intermolecular_energy": -7.472, "internal_energy": -0.498}

$$$$
3n86_ligand
     RDKit          3D

 39 40  0  0  0  0  0  0  0  0999 V2000
   18.9510   -6.6230   10.6910 O   0  0  0  0  0  0  0  0  0  0  0  0
   19.0710   -5.6320    9.9810 C   0  0  0  0  0  0  0  0  0  0  0  0
   20.4240   -5.0550    9.6040 C   0  0  0  0  0  0  0  0  0  0  0  0
   20.9180   -5.5570    8.2510 C   0  0  0  0  0  0  0  0  0  0  0  0
   21.8850   -6.6930    8.4220 C   0  0  0  0  0  0  0  0  0  0  0  0
   21.5470   -7.9860    8.2750 C   0  0  0  0  0  0  0  0  0  0  0  0
   22.5090   -9.1430    8.3380 C   0  0  1  0  0  0  0  0  0  0  0  0
   22.2860   -9.7810    9.6160 O   0  0  0  0  0  0  0  0  0  0  0  0
   22.1880  -10.1700    7.1840 C   0  0  0  0  0  0  0  0  0  0  0  0
   21.3790  -11.0810    7.5490 O   0  0  0  0  0  0  0  0  0  0  0  0
   22.7360   -9.9640    6.0660 O   0  0  0  0  0  0  0  0  0  0  0  0
   23.9710   -8.7220    8.2370 C   0  0  0  0  0  0  0  0  0  0  0  0
   24.2360   -7.5300    9.1380 C   0  0  1  0  0  0  0  0  0  0  0  0
   25.5990   -7.1140    9.0000 O   0  0  0  0  0  0  0  0  0  0  0  0
   23.2960   -6.3730    8.7850 C   0  0  0  0  0  0  0  0  0  0  0  0
   23.6870   -5.2020    8.8340 O   0  0  0  0  0  0  0  0  0  0  0  0
   18.0420   -4.8880    9.4210 N   0  0  0  0  0  0  0  0  0  0  0  0
   16.6550   -5.0990    9.5460 C   0  0  0  0  0  0  0  0  0  0  0  0
   15.9750   -5.5660    8.4120 C   0  0  0  0  0  0  0  0  0  0  0  0
   14.5980   -5.8010    8.4520 C   0  0  0  0  0  0  0  0  0  0  0  0
   13.8860   -5.5710    9.6250 C   0  0  0  0  0  0  0  0  0  0  0  0
   14.5520   -5.1080   10.7570 C   0  0  0  0  0  0  0  0  0  0  0  0
   15.9320   -4.8730   10.7180 C   0  0  0  0  0  0  0  0  0  0  0  0
   20.3412   -3.9588    9.5645 H   0  0  0  0  0  0  0  0  0  0  0  0
   21.1489   -5.3793   10.3652 H   0  0  0  0  0  0  0  0  0  0  0  0
   20.0577   -5.9023    7.6589 H   0  0  0  0  0  0  0  0  0  0  0  0
   21.4321   -4.7320    7.7362 H   0  0  0  0  0  0  0  0  0  0  0  0
   20.4866   -8.2164    8.0949 H   0  0  0  0  0  0  0  0  0  0  0  0
   23.0910  -10.3550    9.6930 H   0  0  0  0  0  0  0  0  0  0  0  0
   24.6128   -9.5605    8.5454 H   0  0  0  0  0  0  0  0  0  0  0  0
   24.1931   -8.4422    7.1966 H   0  0  0  0  0  0  0  0  0  0  0  0
   24.0504   -7.8250   10.1813 H   0  0  0  0  0  0  0  0  0  0  0  0
   26.1110   -7.9430    8.9300 H   0  0  0  0  0  0  0  0  0  0  0  0
   18.3240   -4.1050    8.8440 H   0  0  0  0  0  0  0  0  0  0  0  0
   16.5314   -5.7493    7.4810 H   0  0  0  0  0  0  0  0  0  0  0  0
   14.0767   -6.1680    7.5556 H   0  0  0  0  0  0  0  0  0  0  0  0
   12.8018   -5.7541    9.6581 H   0  0  0  0  0  0  0  0  0  0  0  0
   13.9916   -4.9261   11.6859 H   0  0  0  0  0  0  0  0  0  0  0  0
   16.4496   -4.5078   11.6173 H   0  0  0  0  0  0  0  0  0  0  0  0
  1  2  2  0
  2  3  1  0
  3  4  1  0
  4  5  1  0
  5  6  2  0
  6  7  1  0
  7  8  1  1
  7  9  1  0
  9 10  2  0
  9 11  1  0
  7 12  1  0
 12 13  1  0
 13 14  1  0
 13 15  1  0
 15 16  2  0
  2 17  1  0
 17 18  1  0
 18 19  2  0
 19 20  1  0
 20 21  2  0
 21 22  1  0
 22 23  2  0
 15  5  1  0
 23 18  1  0
  3 24  1  0
  3 25  1  0
  4 26  1  0
  4 27  1  0
  6 28  1  0
  8 29  1  0
 12 30  1  0
 12 31  1  0
 13 32  1  1
 14 33  1  0
 17 34  1  0
 19 35  1  0
 20 36  1  0
 21 37  1  0
 22 38  1  0
 23 39  1  0
M  CHG  1  11  -1
M  END
>  <meeko>  (7) 
{"is_sidechain": [false], "free_energy": -5.487, "intermolecular_energy": -7.373, "internal_energy": -0.593}

$$$$
3n86_ligand
     RDKit          3D

 39 40  0  0  0  0  0  0  0  0999 V2000
   17.0030   -8.7450    3.9320 O   0  0  0  0  0  0  0  0  0  0  0  0
   17.9380   -9.1850    4.5910 C   0  0  0  0  0  0  0  0  0  0  0  0
   18.8800   -8.2880    5.3750 C   0  0  0  0  0  0  0  0  0  0  0  0
   20.1130   -7.8890    4.5700 C   0  0  0  0  0  0  0  0  0  0  0  0
   21.3700   -8.3220    5.2680 C   0  0  0  0  0  0  0  0  0  0  0  0
   21.6350   -8.0510    6.5580 C   0  0  0  0  0  0  0  0  0  0  0  0
   22.8330   -8.5560    7.3180 C   0  0  1  0  0  0  0  0  0  0  0  0
   23.7290   -7.4280    7.4490 O   0  0  0  0  0  0  0  0  0  0  0  0
   22.3930   -9.0370    8.7540 C   0  0  0  0  0  0  0  0  0  0  0  0
   21.6470  -10.0680    8.7190 O   0  0  0  0  0  0  0  0  0  0  0  0
   22.8330   -8.3820    9.7380 O   0  0  0  0  0  0  0  0  0  0  0  0
   23.5630   -9.6950    6.6130 C   0  0  0  0  0  0  0  0  0  0  0  0
   23.7420   -9.3700    5.1410 C   0  0  1  0  0  0  0  0  0  0  0  0
   24.3850  -10.4660    4.4810 O   0  0  0  0  0  0  0  0  0  0  0  0
   22.3860   -9.0880    4.4870 C   0  0  0  0  0  0  0  0  0  0  0  0
   22.1530   -9.4510    3.3300 O   0  0  0  0  0  0  0  0  0  0  0  0
   18.2930  -10.5190    4.7320 N   0  0  0  0  0  0  0  0  0  0  0  0
   17.6720  -11.6450    4.1540 C   0  0  0  0  0  0  0  0  0  0  0  0
   18.1030  -12.0260    2.8760 C   0  0  0  0  0  0  0  0  0  0  0  0
   17.5390  -13.1320    2.2330 C   0  0  0  0  0  0  0  0  0  0  0  0
   16.5380  -13.8660    2.8610 C   0  0  0  0  0  0  0  0  0  0  0  0
   16.1030  -13.4950    4.1310 C   0  0  0  0  0  0  0  0  0  0  0  0
   16.6680  -12.3890    4.7760 C   0  0  0  0  0  0  0  0  0  0  0  0
   18.3382   -7.3758    5.6655 H   0  0  0  0  0  0  0  0  0  0  0  0
   19.2236   -8.8522    6.2546 H   0  0  0  0  0  0  0  0  0  0  0  0
   20.0674   -8.3669    3.5803 H   0  0  0  0  0  0  0  0  0  0  0  0
   20.1269   -6.7939    4.4668 H   0  0  0  0  0  0  0  0  0  0  0  0
   20.9223   -7.4116    7.0996 H   0  0  0  0  0  0  0  0  0  0  0  0
   24.1210   -7.3810    6.5390 H   0  0  0  0  0  0  0  0  0  0  0  0
   24.5504   -9.8361    7.0768 H   0  0  0  0  0  0  0  0  0  0  0  0
   22.9689  -10.6159    6.7080 H   0  0  0  0  0  0  0  0  0  0  0  0
   24.3686   -8.4706    5.0486 H   0  0  0  0  0  0  0  0  0  0  0  0
   25.2940  -10.4790    4.8390 H   0  0  0  0  0  0  0  0  0  0  0  0
   19.0880  -10.7070    5.3300 H   0  0  0  0  0  0  0  0  0  0  0  0
   18.8932  -11.4489    2.3736 H   0  0  0  0  0  0  0  0  0  0  0  0
   17.8868  -13.4218    1.2305 H   0  0  0  0  0  0  0  0  0  0  0  0
   16.0919  -14.7358    2.3566 H   0  0  0  0  0  0  0  0  0  0  0  0
   15.3116  -14.0740    4.6294 H   0  0  0  0  0  0  0  0  0  0  0  0
   16.3187  -12.1042    5.7794 H   0  0  0  0  0  0  0  0  0  0  0  0
  1  2  2  0
  2  3  1  0
  3  4  1  0
  4  5  1  0
  5  6  2  0
  6  7  1  0
  7  8  1  1
  7  9  1  0
  9 10  2  0
  9 11  1  0
  7 12  1  0
 12 13  1  0
 13 14  1  0
 13 15  1  0
 15 16  2  0
  2 17  1  0
 17 18  1  0
 18 19  2  0
 19 20  1  0
 20 21  2  0
 21 22  1  0
 22 23  2  0
 15  5  1  0
 23 18  1  0
  3 24  1  0
  3 25  1  0
  4 26  1  0
  4 27  1  0
  6 28  1  0
  8 29  1  0
 12 30  1  0
 12 31  1  0
 13 32  1  1
 14 33  1  0
 17 34  1  0
 19 35  1  0
 20 36  1  0
 21 37  1  0
 22 38  1  0
 23 39  1  0
M  CHG  1  11  -1
M  END
>  <meeko>  (8) 
{"is_sidechain": [false], "free_energy": -5.481, "intermolecular_energy": -7.251, "internal_energy": -0.708}

$$$$
3n86_ligand
     RDKit          3D

 39 40  0  0  0  0  0  0  0  0999 V2000
   18.7940  -11.8020    2.6880 O   0  0  0  0  0  0  0  0  0  0  0  0
   18.6890  -11.3100    3.8050 C   0  0  0  0  0  0  0  0  0  0  0  0
   19.8230  -10.5540    4.4760 C   0  0  0  0  0  0  0  0  0  0  0  0
   19.5280   -9.0640    4.6170 C   0  0  0  0  0  0  0  0  0  0  0  0
   19.9690   -8.5570    5.9600 C   0  0  0  0  0  0  0  0  0  0  0  0
   20.6410   -9.3050    6.8540 C   0  0  0  0  0  0  0  0  0  0  0  0
   21.1870   -8.8030    8.1630 C   0  0  1  0  0  0  0  0  0  0  0  0
   20.3090   -9.3180    9.1890 O   0  0  0  0  0  0  0  0  0  0  0  0
   22.6410   -9.3730    8.3910 C   0  0  0  0  0  0  0  0  0  0  0  0
   23.2010   -9.7350    7.3080 O   0  0  0  0  0  0  0  0  0  0  0  0
   23.0730   -9.3840    9.5770 O   0  0  0  0  0  0  0  0  0  0  0  0
   21.2300   -7.2810    8.2600 C   0  0  0  0  0  0  0  0  0  0  0  0
   19.9230   -6.6890    7.7630 C   0  0  1  0  0  0  0  0  0  0  0  0
   19.9920   -5.2600    7.8130 O   0  0  0  0  0  0  0  0  0  0  0  0
   19.6380   -7.1500    6.3300 C   0  0  0  0  0  0  0  0  0  0  0  0
   19.1130   -6.3880    5.5130 O   0  0  0  0  0  0  0  0  0  0  0  0
   17.5700  -11.3550    4.6250 N   0  0  0  0  0  0  0  0  0  0  0  0
   16.3300  -11.9690    4.3630 C   0  0  0  0  0  0  0  0  0  0  0  0
   16.0050  -13.1020    5.1220 C   0  0  0  0  0  0  0  0  0  0  0  0
   14.7930  -13.7700    4.9250 C   0  0  0  0  0  0  0  0  0  0  0  0
   13.8950  -13.3130    3.9660 C   0  0  0  0  0  0  0  0  0  0  0  0
   14.2080  -12.1880    3.2070 C   0  0  0  0  0  0  0  0  0  0  0  0
   15.4210  -11.5180    3.4050 C   0  0  0  0  0  0  0  0  0  0  0  0
   19.9855  -10.9779    5.4779 H   0  0  0  0  0  0  0  0  0  0  0  0
   20.7162  -10.6597    3.8428 H   0  0  0  0  0  0  0  0  0  0  0  0
   20.0650   -8.5142    3.8300 H   0  0  0  0  0  0  0  0  0  0  0  0
   18.4432   -8.9091    4.5209 H   0  0  0  0  0  0  0  0  0  0  0  0
   20.8037  -10.3650    6.6090 H   0  0  0  0  0  0  0  0  0  0  0  0
   20.9170   -9.3510    9.9720 H   0  0  0  0  0  0  0  0  0  0  0  0
   21.3868   -6.9876    9.3085 H   0  0  0  0  0  0  0  0  0  0  0  0
   22.0553   -6.9039    7.6382 H   0  0  0  0  0  0  0  0  0  0  0  0
   19.1052   -7.0368    8.4113 H   0  0  0  0  0  0  0  0  0  0  0  0
   19.1660   -4.9510    7.3920 H   0  0  0  0  0  0  0  0  0  0  0  0
   17.6530  -10.8790    5.5150 H   0  0  0  0  0  0  0  0  0  0  0  0
   16.7115  -13.4694    5.8809 H   0  0  0  0  0  0  0  0  0  0  0  0
   14.5494  -14.6570    5.5283 H   0  0  0  0  0  0  0  0  0  0  0  0
   12.9415  -13.8381    3.8077 H   0  0  0  0  0  0  0  0  0  0  0  0
   13.4990  -11.8244    2.4487 H   0  0  0  0  0  0  0  0  0  0  0  0
   15.6593  -10.6299    2.8013 H   0  0  0  0  0  0  0  0  0  0  0  0
  1  2  2  0
  2  3  1  0
  3  4  1  0
  4  5  1  0
  5  6  2  0
  6  7  1  0
  7  8  1  1
  7  9  1  0
  9 10  2  0
  9 11  1  0
  7 12  1  0
 12 13  1  0
 13 14  1  0
 13 15  1  0
 15 16  2  0
  2 17  1  0
 17 18  1  0
 18 19  2  0
 19 20  1  0
 20 21  2  0
 21 22  1  0
 22 23  2  0
 15  5  1  0
 23 18  1  0
  3 24  1  0
  3 25  1  0
  4 26  1  0
  4 27  1  0
  6 28  1  0
  8 29  1  0
 12 30  1  0
 12 31  1  0
 13 32  1  1
 14 33  1  0
 17 34  1  0
 19 35  1  0
 20 36  1  0
 21 37  1  0
 22 38  1  0
 23 39  1  0
M  CHG  1  11  -1
M  END
>  <meeko>  (9) 
{"is_sidechain": [false], "free_energy": -5.245, "intermolecular_energy": -7.024, "internal_energy": -0.616}

$$$$
