4qd6_ligand
     RDKit          3D

 62 66  0  0  0  0  0  0  0  0999 V2000
    7.5850   25.3910   19.7240 O   0  0  0  0  0  0  0  0  0  0  0  0
    6.5730   25.6400   18.7130 S   0  0  0  0  0  0  0  0  0  0  0  0
    6.6290   26.8310   17.8860 O   0  0  0  0  0  0  0  0  0  0  0  0
    6.5430   24.2540   17.6040 C   0  0  0  0  0  0  0  0  0  0  0  0
    5.4320   24.0730   16.7720 C   0  0  0  0  0  0  0  0  0  0  0  0
    5.3980   22.9810   15.9060 C   0  0  0  0  0  0  0  0  0  0  0  0
    6.4670   22.0840   15.8690 C   0  0  0  0  0  0  0  0  0  0  0  0
    7.5780   22.2760   16.6930 C   0  0  0  0  0  0  0  0  0  0  0  0
    7.6210   23.3660   17.5630 C   0  0  0  0  0  0  0  0  0  0  0  0
    5.0220   25.6510   19.5630 C   0  0  0  0  0  0  0  0  0  0  0  0
    4.5190   24.4810   20.1140 C   0  0  0  0  0  0  0  0  0  0  0  0
    3.3140   24.5460   20.7960 C   0  0  0  0  0  0  0  0  0  0  0  0
    2.7860   23.3450   21.3280 N   0  0  0  0  0  0  0  0  0  0  0  0
    1.5030   23.1420   21.7090 C   0  0  0  0  0  0  0  0  0  0  0  0
    0.3400   23.0330   20.9870 C   0  0  0  0  0  0  0  0  0  0  0  0
   -0.7010   22.8340   21.9430 C   0  0  0  0  0  0  0  0  0  0  0  0
   -2.1410   22.6620   21.6990 C   0  0  0  0  0  0  0  0  0  0  0  0
   -2.7950   21.4880   22.1040 C   0  0  0  0  0  0  0  0  0  0  0  0
   -4.1620   21.3090   21.8760 C   0  0  0  0  0  0  0  0  0  0  0  0
   -4.8970   22.3050   21.2370 C   0  0  0  0  0  0  0  0  0  0  0  0
   -4.2660   23.4780   20.8300 C   0  0  0  0  0  0  0  0  0  0  0  0
   -2.8970   23.6550   21.0590 C   0  0  0  0  0  0  0  0  0  0  0  0
   -0.1930   22.8160   23.1880 N   0  0  0  0  0  0  0  0  0  0  0  0
    1.1250   23.0010   23.0130 N   0  0  0  0  0  0  0  0  0  0  0  0
    2.6170   25.7080   20.8870 N   0  0  0  0  0  0  0  0  0  0  0  0
    3.1010   26.8360   20.3230 C   0  0  0  0  0  0  0  0  0  0  0  0
    2.4230   28.0520   20.4490 N   0  0  0  0  0  0  0  0  0  0  0  0
    1.2780   28.1210   21.3670 C   0  0  2  0  0  0  0  0  0  0  0  0
   -0.0570   28.0330   20.6110 C   0  0  0  0  0  0  0  0  0  0  0  0
   -0.3780   29.2890   19.7980 C   0  0  0  0  0  0  0  0  0  0  0  0
   -0.2960   30.5580   20.6440 C   0  0  1  0  0  0  0  0  0  0  0  0
   -1.3230   30.5430   21.6300 O   0  0  0  0  0  0  0  0  0  0  0  0
    1.0530   30.6730   21.3500 C   0  0  0  0  0  0  0  0  0  0  0  0
    1.3760   29.4250   22.1760 C   0  0  0  0  0  0  0  0  0  0  0  0
    4.3160   26.8430   19.6610 C   0  0  0  0  0  0  0  0  0  0  0  0
    4.5942   24.7852   16.8012 H   0  0  0  0  0  0  0  0  0  0  0  0
    4.5279   22.8260   15.2511 H   0  0  0  0  0  0  0  0  0  0  0  0
    6.4341   21.2214   15.1872 H   0  0  0  0  0  0  0  0  0  0  0  0
    8.4191   21.5680   16.6562 H   0  0  0  0  0  0  0  0  0  0  0  0
    8.4957   23.5248   18.2108 H   0  0  0  0  0  0  0  0  0  0  0  0
    5.0610   23.5292   20.0125 H   0  0  0  0  0  0  0  0  0  0  0  0
    3.4990   22.7260   21.7020 H   0  0  0  0  0  0  0  0  0  0  0  0
    0.2325   23.0879   19.8936 H   0  0  0  0  0  0  0  0  0  0  0  0
   -2.2223   20.6961   22.6090 H   0  0  0  0  0  0  0  0  0  0  0  0
   -4.6574   20.3822   22.2009 H   0  0  0  0  0  0  0  0  0  0  0  0
   -5.9727   22.1654   21.0544 H   0  0  0  0  0  0  0  0  0  0  0  0
   -4.8450   24.2669   20.3275 H   0  0  0  0  0  0  0  0  0  0  0  0
   -2.4076   24.5846   20.7330 H   0  0  0  0  0  0  0  0  0  0  0  0
    1.7500   23.0070   23.8120 H   0  0  0  0  0  0  0  0  0  0  0  0
    2.2240   28.4460   19.5350 H   0  0  0  0  0  0  0  0  0  0  0  0
    1.3077   27.2599   22.0508 H   0  0  0  0  0  0  0  0  0  0  0  0
   -0.0131   27.1748   19.9243 H   0  0  0  0  0  0  0  0  0  0  0  0
   -0.8506   27.9219   21.3646 H   0  0  0  0  0  0  0  0  0  0  0  0
    0.3409   29.3683   18.9692 H   0  0  0  0  0  0  0  0  0  0  0  0
   -1.4087   29.1967   19.4251 H   0  0  0  0  0  0  0  0  0  0  0  0
   -0.4178   31.4181   19.9692 H   0  0  0  0  0  0  0  0  0  0  0  0
   -1.9490   31.2580   21.4200 H   0  0  0  0  0  0  0  0  0  0  0  0
    1.8393   30.8114   20.5933 H   0  0  0  0  0  0  0  0  0  0  0  0
    1.0055   31.5316   22.0359 H   0  0  0  0  0  0  0  0  0  0  0  0
    2.4006   29.5188   22.5651 H   0  0  0  0  0  0  0  0  0  0  0  0
    0.6312   29.3656   22.9833 H   0  0  0  0  0  0  0  0  0  0  0  0
    4.7132   27.7705   19.2228 H   0  0  0  0  0  0  0  0  0  0  0  0
  1  2  2  0
  2  3  2  0
  2  4  1  0
  4  5  2  0
  5  6  1  0
  6  7  2  0
  7  8  1  0
  8  9  2  0
  2 10  1  0
 10 11  2  0
 11 12  1  0
 12 13  1  0
 13 14  1  0
 14 15  2  0
 15 16  1  0
 16 17  1  0
 17 18  2  0
 18 19  1  0
 19 20  2  0
 20 21  1  0
 21 22  2  0
 16 23  2  0
 23 24  1  0
 12 25  2  0
 25 26  1  0
 26 27  1  0
 27 28  1  0
 28 29  1  0
 29 30  1  0
 30 31  1  0
 31 32  1  0
 31 33  1  0
 33 34  1  0
 26 35  2  0
  9  4  1  0
 35 10  1  0
 24 14  1  0
 34 28  1  0
 22 17  1  0
  5 36  1  0
  6 37  1  0
  7 38  1  0
  8 39  1  0
  9 40  1  0
 11 41  1  0
 13 42  1  0
 15 43  1  0
 18 44  1  0
 19 45  1  0
 20 46  1  0
 21 47  1  0
 22 48  1  0
 24 49  1  0
 27 50  1  0
 28 51  1  6
 29 52  1  0
 29 53  1  0
 30 54  1  0
 30 55  1  0
 31 56  1  1
 32 57  1  0
 33 58  1  0
 33 59  1  0
 34 60  1  0
 34 61  1  0
 35 62  1  0
M  END
>  <meeko>  (1) 
{"is_sidechain": [false], "free_energy": -7.567, "intermolecular_energy": -10.885, "internal_energy": -1.375}

$$$$
4qd6_ligand
     RDKit          3D

 62 66  0  0  0  0  0  0  0  0999 V2000
    8.2580   28.5060   19.7510 O   0  0  0  0  0  0  0  0  0  0  0  0
    7.9350   27.3800   20.6090 S   0  0  0  0  0  0  0  0  0  0  0  0
    8.5820   26.0950   20.4210 O   0  0  0  0  0  0  0  0  0  0  0  0
    8.2360   27.8590   22.2920 C   0  0  0  0  0  0  0  0  0  0  0  0
    9.0460   27.0490   23.0940 C   0  0  0  0  0  0  0  0  0  0  0  0
    9.2790   27.4150   24.4200 C   0  0  0  0  0  0  0  0  0  0  0  0
    8.7100   28.5810   24.9330 C   0  0  0  0  0  0  0  0  0  0  0  0
    7.9120   29.3920   24.1240 C   0  0  0  0  0  0  0  0  0  0  0  0
    7.6740   29.0340   22.7970 C   0  0  0  0  0  0  0  0  0  0  0  0
    6.1910   27.1280   20.4510 C   0  0  0  0  0  0  0  0  0  0  0  0
    5.6740   25.8420   20.3860 C   0  0  0  0  0  0  0  0  0  0  0  0
    4.3000   25.6950   20.2920 C   0  0  0  0  0  0  0  0  0  0  0  0
    3.7770   24.3830   20.1920 N   0  0  0  0  0  0  0  0  0  0  0  0
    2.6590   23.9250   20.8040 C   0  0  0  0  0  0  0  0  0  0  0  0
    1.3590   23.8150   20.3730 C   0  0  0  0  0  0  0  0  0  0  0  0
    0.6250   23.2690   21.4700 C   0  0  0  0  0  0  0  0  0  0  0  0
   -0.8100   22.9550   21.5380 C   0  0  0  0  0  0  0  0  0  0  0  0
   -1.3930   22.5620   22.7520 C   0  0  0  0  0  0  0  0  0  0  0  0
   -2.7550   22.2570   22.8310 C   0  0  0  0  0  0  0  0  0  0  0  0
   -3.5550   22.3430   21.6950 C   0  0  0  0  0  0  0  0  0  0  0  0
   -2.9940   22.7340   20.4810 C   0  0  0  0  0  0  0  0  0  0  0  0
   -1.6300   23.0380   20.4030 C   0  0  0  0  0  0  0  0  0  0  0  0
    1.4420   23.0520   22.5150 N   0  0  0  0  0  0  0  0  0  0  0  0
    2.6490   23.4530   22.0850 N   0  0  0  0  0  0  0  0  0  0  0  0
    3.4780   26.7740   20.2180 N   0  0  0  0  0  0  0  0  0  0  0  0
    3.9920   28.0220   20.2530 C   0  0  0  0  0  0  0  0  0  0  0  0
    3.1600   29.1450   20.2280 N   0  0  0  0  0  0  0  0  0  0  0  0
    2.6330   29.6510   21.5030 C   0  0  2  0  0  0  0  0  0  0  0  0
    1.5840   28.6980   22.0970 C   0  0  0  0  0  0  0  0  0  0  0  0
    0.2630   28.6900   21.3240 C   0  0  0  0  0  0  0  0  0  0  0  0
   -0.3010   30.0970   21.1370 C   0  0  1  0  0  0  0  0  0  0  0  0
   -0.6720   30.6360   22.4020 O   0  0  0  0  0  0  0  0  0  0  0  0
    0.7230   31.0290   20.4940 C   0  0  0  0  0  0  0  0  0  0  0  0
    2.0440   31.0510   21.2690 C   0  0  0  0  0  0  0  0  0  0  0  0
    5.3540   28.2350   20.3830 C   0  0  0  0  0  0  0  0  0  0  0  0
    9.4949   26.1325   22.6836 H   0  0  0  0  0  0  0  0  0  0  0  0
    9.9117   26.7839   25.0614 H   0  0  0  0  0  0  0  0  0  0  0  0
    8.8912   28.8629   25.9807 H   0  0  0  0  0  0  0  0  0  0  0  0
    7.4710   30.3131   24.5329 H   0  0  0  0  0  0  0  0  0  0  0  0
    7.0493   29.6713   22.1539 H   0  0  0  0  0  0  0  0  0  0  0  0
    6.3365   24.9642   20.4085 H   0  0  0  0  0  0  0  0  0  0  0  0
    4.4610   23.7030   19.8770 H   0  0  0  0  0  0  0  0  0  0  0  0
    0.9639   24.0912   19.3843 H   0  0  0  0  0  0  0  0  0  0  0  0
   -0.7691   22.4928   23.6553 H   0  0  0  0  0  0  0  0  0  0  0  0
   -3.1947   21.9490   23.7911 H   0  0  0  0  0  0  0  0  0  0  0  0
   -4.6268   22.1030   21.7556 H   0  0  0  0  0  0  0  0  0  0  0  0
   -3.6243   22.8039   19.5822 H   0  0  0  0  0  0  0  0  0  0  0  0
   -1.1959   23.3456   19.4402 H   0  0  0  0  0  0  0  0  0  0  0  0
    3.4590   23.3720   22.6900 H   0  0  0  0  0  0  0  0  0  0  0  0
    2.4450   29.0440   19.5140 H   0  0  0  0  0  0  0  0  0  0  0  0
    3.4511   29.7129   22.2357 H   0  0  0  0  0  0  0  0  0  0  0  0
    1.9969   27.6784   22.0924 H   0  0  0  0  0  0  0  0  0  0  0  0
    1.3626   29.0523   23.1146 H   0  0  0  0  0  0  0  0  0  0  0  0
    0.4339   28.2418   20.3341 H   0  0  0  0  0  0  0  0  0  0  0  0
   -0.4664   28.1069   21.9053 H   0  0  0  0  0  0  0  0  0  0  0  0
   -1.1763   30.0210   20.4751 H   0  0  0  0  0  0  0  0  0  0  0  0
    0.1020   30.5760   22.9900 H   0  0  0  0  0  0  0  0  0  0  0  0
    0.9192   30.6869   19.4671 H   0  0  0  0  0  0  0  0  0  0  0  0
    0.3075   32.0475   20.5012 H   0  0  0  0  0  0  0  0  0  0  0  0
    2.7732   31.6462   20.6998 H   0  0  0  0  0  0  0  0  0  0  0  0
    1.8356   31.4869   22.2572 H   0  0  0  0  0  0  0  0  0  0  0  0
    5.7631   29.2550   20.4312 H   0  0  0  0  0  0  0  0  0  0  0  0
  1  2  2  0
  2  3  2  0
  2  4  1  0
  4  5  2  0
  5  6  1  0
  6  7  2  0
  7  8  1  0
  8  9  2  0
  2 10  1  0
 10 11  2  0
 11 12  1  0
 12 13  1  0
 13 14  1  0
 14 15  2  0
 15 16  1  0
 16 17  1  0
 17 18  2  0
 18 19  1  0
 19 20  2  0
 20 21  1  0
 21 22  2  0
 16 23  2  0
 23 24  1  0
 12 25  2  0
 25 26  1  0
 26 27  1  0
 27 28  1  0
 28 29  1  0
 29 30  1  0
 30 31  1  0
 31 32  1  0
 31 33  1  0
 33 34  1  0
 26 35  2  0
  9  4  1  0
 35 10  1  0
 24 14  1  0
 34 28  1  0
 22 17  1  0
  5 36  1  0
  6 37  1  0
  7 38  1  0
  8 39  1  0
  9 40  1  0
 11 41  1  0
 13 42  1  0
 15 43  1  0
 18 44  1  0
 19 45  1  0
 20 46  1  0
 21 47  1  0
 22 48  1  0
 24 49  1  0
 27 50  1  0
 28 51  1  6
 29 52  1  0
 29 53  1  0
 30 54  1  0
 30 55  1  0
 31 56  1  1
 32 57  1  0
 33 58  1  0
 33 59  1  0
 34 60  1  0
 34 61  1  0
 35 62  1  0
M  END
>  <meeko>  (2) 
{"is_sidechain": [false], "free_energy": -7.411, "intermolecular_energy": -10.713, "internal_energy": -1.322}

$$$$
4qd6_ligand
     RDKit          3D

 62 66  0  0  0  0  0  0  0  0999 V2000
    5.2480   24.4930   15.4200 O   0  0  0  0  0  0  0  0  0  0  0  0
    5.5190   23.3790   16.3110 S   0  0  0  0  0  0  0  0  0  0  0  0
    4.6190   22.2420   16.3710 O   0  0  0  0  0  0  0  0  0  0  0  0
    7.1270   22.7350   15.9230 C   0  0  0  0  0  0  0  0  0  0  0  0
    8.0020   23.5100   15.1550 C   0  0  0  0  0  0  0  0  0  0  0  0
    9.2640   23.0050   14.8400 C   0  0  0  0  0  0  0  0  0  0  0  0
    9.6450   21.7410   15.2930 C   0  0  0  0  0  0  0  0  0  0  0  0
    8.7700   20.9770   16.0690 C   0  0  0  0  0  0  0  0  0  0  0  0
    7.5070   21.4740   16.3900 C   0  0  0  0  0  0  0  0  0  0  0  0
    5.6200   24.0670   17.9380 C   0  0  0  0  0  0  0  0  0  0  0  0
    4.4670   24.4640   18.6010 C   0  0  0  0  0  0  0  0  0  0  0  0
    4.5930   24.9700   19.8850 C   0  0  0  0  0  0  0  0  0  0  0  0
    3.4200   25.4060   20.5460 N   0  0  0  0  0  0  0  0  0  0  0  0
    2.4350   24.6080   21.0230 C   0  0  0  0  0  0  0  0  0  0  0  0
    1.1170   24.4660   20.6640 C   0  0  0  0  0  0  0  0  0  0  0  0
    0.5750   23.4760   21.5370 C   0  0  0  0  0  0  0  0  0  0  0  0
   -0.7990   22.9540   21.5790 C   0  0  0  0  0  0  0  0  0  0  0  0
   -1.4020   22.6380   22.8070 C   0  0  0  0  0  0  0  0  0  0  0  0
   -2.7060   22.1380   22.8610 C   0  0  0  0  0  0  0  0  0  0  0  0
   -3.4270   21.9450   21.6860 C   0  0  0  0  0  0  0  0  0  0  0  0
   -2.8460   22.2540   20.4590 C   0  0  0  0  0  0  0  0  0  0  0  0
   -1.5410   22.7550   20.4050 C   0  0  0  0  0  0  0  0  0  0  0  0
    1.5200   23.0330   22.3850 N   0  0  0  0  0  0  0  0  0  0  0  0
    2.6200   23.7280   22.0500 N   0  0  0  0  0  0  0  0  0  0  0  0
    5.8120   25.1190   20.4670 N   0  0  0  0  0  0  0  0  0  0  0  0
    6.9300   24.7560   19.8030 C   0  0  0  0  0  0  0  0  0  0  0  0
    8.1890   24.8550   20.4050 N   0  0  0  0  0  0  0  0  0  0  0  0
    9.0440   25.9950   20.0490 C   0  0  2  0  0  0  0  0  0  0  0  0
   10.4290   25.8870   20.7060 C   0  0  0  0  0  0  0  0  0  0  0  0
   10.4030   26.1210   22.2180 C   0  0  0  0  0  0  0  0  0  0  0  0
    9.7100   27.4310   22.5860 C   0  0  1  0  0  0  0  0  0  0  0  0
   10.4770   28.5300   22.1030 O   0  0  0  0  0  0  0  0  0  0  0  0
    8.3120   27.5120   21.9780 C   0  0  0  0  0  0  0  0  0  0  0  0
    8.3300   27.2910   20.4640 C   0  0  0  0  0  0  0  0  0  0  0  0
    6.8670   24.2110   18.5320 C   0  0  0  0  0  0  0  0  0  0  0  0
    7.6985   24.5070   14.8031 H   0  0  0  0  0  0  0  0  0  0  0  0
    9.9596   23.6039   14.2338 H   0  0  0  0  0  0  0  0  0  0  0  0
   10.6388   21.3446   15.0378 H   0  0  0  0  0  0  0  0  0  0  0  0
    9.0772   19.9833   16.4269 H   0  0  0  0  0  0  0  0  0  0  0  0
    6.8163   20.8787   17.0052 H   0  0  0  0  0  0  0  0  0  0  0  0
    3.4810   24.3794   18.1208 H   0  0  0  0  0  0  0  0  0  0  0  0
    3.2030   26.3820   20.3740 H   0  0  0  0  0  0  0  0  0  0  0  0
    0.5868   25.0059   19.8656 H   0  0  0  0  0  0  0  0  0  0  0  0
   -0.8396   22.7862   23.7407 H   0  0  0  0  0  0  0  0  0  0  0  0
   -3.1627   21.8969   23.8322 H   0  0  0  0  0  0  0  0  0  0  0  0
   -4.4527   21.5496   21.7268 H   0  0  0  0  0  0  0  0  0  0  0  0
   -3.4147   22.1038   19.5295 H   0  0  0  0  0  0  0  0  0  0  0  0
   -1.0912   22.9958   19.4305 H   0  0  0  0  0  0  0  0  0  0  0  0
    3.4950   23.5620   22.5350 H   0  0  0  0  0  0  0  0  0  0  0  0
    8.6750   23.9640   20.3640 H   0  0  0  0  0  0  0  0  0  0  0  0
    9.2122   25.9986   18.9619 H   0  0  0  0  0  0  0  0  0  0  0  0
   10.8279   24.8797   20.5156 H   0  0  0  0  0  0  0  0  0  0  0  0
   11.0599   26.6733   20.2660 H   0  0  0  0  0  0  0  0  0  0  0  0
    9.8653   25.2890   22.6962 H   0  0  0  0  0  0  0  0  0  0  0  0
   11.4438   26.1788   22.5692 H   0  0  0  0  0  0  0  0  0  0  0  0
    9.6243   27.4684   23.6820 H   0  0  0  0  0  0  0  0  0  0  0  0
   11.2480   28.6350   22.6880 H   0  0  0  0  0  0  0  0  0  0  0  0
    7.6783   26.7416   22.4416 H   0  0  0  0  0  0  0  0  0  0  0  0
    7.9172   28.5208   22.1688 H   0  0  0  0  0  0  0  0  0  0  0  0
    7.2912   27.2481   20.1047 H   0  0  0  0  0  0  0  0  0  0  0  0
    8.8875   28.1280   20.0184 H   0  0  0  0  0  0  0  0  0  0  0  0
    7.7815   23.8999   18.0059 H   0  0  0  0  0  0  0  0  0  0  0  0
  1  2  2  0
  2  3  2  0
  2  4  1  0
  4  5  2  0
  5  6  1  0
  6  7  2  0
  7  8  1  0
  8  9  2  0
  2 10  1  0
 10 11  2  0
 11 12  1  0
 12 13  1  0
 13 14  1  0
 14 15  2  0
 15 16  1  0
 16 17  1  0
 17 18  2  0
 18 19  1  0
 19 20  2  0
 20 21  1  0
 21 22  2  0
 16 23  2  0
 23 24  1  0
 12 25  2  0
 25 26  1  0
 26 27  1  0
 27 28  1  0
 28 29  1  0
 29 30  1  0
 30 31  1  0
 31 32  1  0
 31 33  1  0
 33 34  1  0
 26 35  2  0
  9  4  1  0
 35 10  1  0
 24 14  1  0
 34 28  1  0
 22 17  1  0
  5 36  1  0
  6 37  1  0
  7 38  1  0
  8 39  1  0
  9 40  1  0
 11 41  1  0
 13 42  1  0
 15 43  1  0
 18 44  1  0
 19 45  1  0
 20 46  1  0
 21 47  1  0
 22 48  1  0
 24 49  1  0
 27 50  1  0
 28 51  1  1
 29 52  1  0
 29 53  1  0
 30 54  1  0
 30 55  1  0
 31 56  1  6
 32 57  1  0
 33 58  1  0
 33 59  1  0
 34 60  1  0
 34 61  1  0
 35 62  1  0
M  END
>  <meeko>  (3) 
{"is_sidechain": [false], "free_energy": -7.397, "intermolecular_energy": -10.683, "internal_energy": -1.333}

$$$$
4qd6_ligand
     RDKit          3D

 62 66  0  0  0  0  0  0  0  0999 V2000
    1.1050   31.1660   22.4110 O   0  0  0  0  0  0  0  0  0  0  0  0
    2.2970   30.8300   21.6550 S   0  0  0  0  0  0  0  0  0  0  0  0
    2.8200   31.7400   20.6530 O   0  0  0  0  0  0  0  0  0  0  0  0
    3.6170   30.5250   22.8020 C   0  0  0  0  0  0  0  0  0  0  0  0
    3.3050   30.2280   24.1330 C   0  0  0  0  0  0  0  0  0  0  0  0
    4.3380   29.9970   25.0410 C   0  0  0  0  0  0  0  0  0  0  0  0
    5.6670   30.0570   24.6190 C   0  0  0  0  0  0  0  0  0  0  0  0
    5.9710   30.3420   23.2860 C   0  0  0  0  0  0  0  0  0  0  0  0
    4.9450   30.5750   22.3710 C   0  0  0  0  0  0  0  0  0  0  0  0
    1.9490   29.2930   20.8510 C   0  0  0  0  0  0  0  0  0  0  0  0
    0.6700   29.0210   20.3870 C   0  0  0  0  0  0  0  0  0  0  0  0
    0.4530   27.8160   19.7390 C   0  0  0  0  0  0  0  0  0  0  0  0
   -0.8600   27.5250   19.2960 N   0  0  0  0  0  0  0  0  0  0  0  0
   -1.7230   26.6610   19.8820 C   0  0  0  0  0  0  0  0  0  0  0  0
   -1.6280   25.3200   20.1600 C   0  0  0  0  0  0  0  0  0  0  0  0
   -2.8620   24.9570   20.7790 C   0  0  0  0  0  0  0  0  0  0  0  0
   -3.2810   23.6360   21.2690 C   0  0  0  0  0  0  0  0  0  0  0  0
   -4.4850   23.0640   20.8300 C   0  0  0  0  0  0  0  0  0  0  0  0
   -4.8970   21.8100   21.2900 C   0  0  0  0  0  0  0  0  0  0  0  0
   -4.1090   21.1080   22.1970 C   0  0  0  0  0  0  0  0  0  0  0  0
   -2.9090   21.6580   22.6430 C   0  0  0  0  0  0  0  0  0  0  0  0
   -2.4980   22.9140   22.1820 C   0  0  0  0  0  0  0  0  0  0  0  0
   -3.6670   26.0300   20.8770 N   0  0  0  0  0  0  0  0  0  0  0  0
   -2.9560   27.0310   20.3340 N   0  0  0  0  0  0  0  0  0  0  0  0
    1.4490   26.9020   19.5970 N   0  0  0  0  0  0  0  0  0  0  0  0
    2.6840   27.1640   20.0760 C   0  0  0  0  0  0  0  0  0  0  0  0
    3.7330   26.2570   19.8960 N   0  0  0  0  0  0  0  0  0  0  0  0
    5.0320   26.7750   19.4460 C   0  0  2  0  0  0  0  0  0  0  0  0
    5.3780   26.2770   18.0340 C   0  0  0  0  0  0  0  0  0  0  0  0
    5.7280   24.7870   17.9840 C   0  0  0  0  0  0  0  0  0  0  0  0
    6.8160   24.4190   18.9900 C   0  0  1  0  0  0  0  0  0  0  0  0
    8.0400   25.0500   18.6230 O   0  0  0  0  0  0  0  0  0  0  0  0
    6.4460   24.8650   20.4020 C   0  0  0  0  0  0  0  0  0  0  0  0
    6.1060   26.3560   20.4630 C   0  0  0  0  0  0  0  0  0  0  0  0
    2.9720   28.3650   20.7020 C   0  0  0  0  0  0  0  0  0  0  0  0
    2.2559   30.1772   24.4599 H   0  0  0  0  0  0  0  0  0  0  0  0
    4.1050   29.7672   26.0912 H   0  0  0  0  0  0  0  0  0  0  0  0
    6.4788   29.8790   25.3396 H   0  0  0  0  0  0  0  0  0  0  0  0
    7.0201   30.3827   22.9579 H   0  0  0  0  0  0  0  0  0  0  0  0
    5.1791   30.7962   21.3192 H   0  0  0  0  0  0  0  0  0  0  0  0
   -0.1486   29.7418   20.5297 H   0  0  0  0  0  0  0  0  0  0  0  0
   -1.0180   27.7730   18.3250 H   0  0  0  0  0  0  0  0  0  0  0  0
   -0.7743   24.6593   19.9487 H   0  0  0  0  0  0  0  0  0  0  0  0
   -5.1144   23.6111   20.1126 H   0  0  0  0  0  0  0  0  0  0  0  0
   -5.8443   21.3780   20.9350 H   0  0  0  0  0  0  0  0  0  0  0  0
   -4.4325   20.1216   22.5609 H   0  0  0  0  0  0  0  0  0  0  0  0
   -2.2836   21.1042   23.3586 H   0  0  0  0  0  0  0  0  0  0  0  0
   -1.5493   23.3403   22.5400 H   0  0  0  0  0  0  0  0  0  0  0  0
   -3.3380   27.9700   20.3050 H   0  0  0  0  0  0  0  0  0  0  0  0
    3.4200   25.4500   19.3670 H   0  0  0  0  0  0  0  0  0  0  0  0
    4.9863   27.8726   19.3893 H   0  0  0  0  0  0  0  0  0  0  0  0
    4.5116   26.4539   17.3797 H   0  0  0  0  0  0  0  0  0  0  0  0
    6.2686   26.8313   17.7031 H   0  0  0  0  0  0  0  0  0  0  0  0
    4.8239   24.2024   18.2095 H   0  0  0  0  0  0  0  0  0  0  0  0
    6.1077   24.5617   16.9765 H   0  0  0  0  0  0  0  0  0  0  0  0
    6.9238   23.3243   18.9802 H   0  0  0  0  0  0  0  0  0  0  0  0
    8.5280   24.4380   18.0440 H   0  0  0  0  0  0  0  0  0  0  0  0
    5.5724   24.2877   20.7391 H   0  0  0  0  0  0  0  0  0  0  0  0
    7.3154   24.6884   21.0523 H   0  0  0  0  0  0  0  0  0  0  0  0
    5.7404   26.5900   21.4737 H   0  0  0  0  0  0  0  0  0  0  0  0
    7.0234   26.9105   20.2163 H   0  0  0  0  0  0  0  0  0  0  0  0
    3.9855   28.5790   21.0721 H   0  0  0  0  0  0  0  0  0  0  0  0
  1  2  2  0
  2  3  2  0
  2  4  1  0
  4  5  2  0
  5  6  1  0
  6  7  2  0
  7  8  1  0
  8  9  2  0
  2 10  1  0
 10 11  2  0
 11 12  1  0
 12 13  1  0
 13 14  1  0
 14 15  2  0
 15 16  1  0
 16 17  1  0
 17 18  2  0
 18 19  1  0
 19 20  2  0
 20 21  1  0
 21 22  2  0
 16 23  2  0
 23 24  1  0
 12 25  2  0
 25 26  1  0
 26 27  1  0
 27 28  1  0
 28 29  1  0
 29 30  1  0
 30 31  1  0
 31 32  1  0
 31 33  1  0
 33 34  1  0
 26 35  2  0
  9  4  1  0
 35 10  1  0
 24 14  1  0
 34 28  1  0
 22 17  1  0
  5 36  1  0
  6 37  1  0
  7 38  1  0
  8 39  1  0
  9 40  1  0
 11 41  1  0
 13 42  1  0
 15 43  1  0
 18 44  1  0
 19 45  1  0
 20 46  1  0
 21 47  1  0
 22 48  1  0
 24 49  1  0
 27 50  1  0
 28 51  1  1
 29 52  1  0
 29 53  1  0
 30 54  1  0
 30 55  1  0
 31 56  1  6
 32 57  1  0
 33 58  1  0
 33 59  1  0
 34 60  1  0
 34 61  1  0
 35 62  1  0
M  END
>  <meeko>  (4) 
{"is_sidechain": [false], "free_energy": -7.308, "intermolecular_energy": -10.543, "internal_energy": -1.344}

$$$$
4qd6_ligand
     RDKit          3D

 62 66  0  0  0  0  0  0  0  0999 V2000
    1.7150   23.8990   23.1950 O   0  0  0  0  0  0  0  0  0  0  0  0
    1.4660   23.3510   21.8750 S   0  0  0  0  0  0  0  0  0  0  0  0
    2.1560   22.1560   21.4250 O   0  0  0  0  0  0  0  0  0  0  0  0
   -0.2720   23.0170   21.7300 C   0  0  0  0  0  0  0  0  0  0  0  0
   -0.8760   23.0950   20.4710 C   0  0  0  0  0  0  0  0  0  0  0  0
   -2.2430   22.8430   20.3520 C   0  0  0  0  0  0  0  0  0  0  0  0
   -2.9940   22.5120   21.4820 C   0  0  0  0  0  0  0  0  0  0  0  0
   -2.3820   22.4240   22.7340 C   0  0  0  0  0  0  0  0  0  0  0  0
   -1.0160   22.6740   22.8620 C   0  0  0  0  0  0  0  0  0  0  0  0
    1.8370   24.6450   20.7280 C   0  0  0  0  0  0  0  0  0  0  0  0
    2.3300   24.3410   19.4670 C   0  0  0  0  0  0  0  0  0  0  0  0
    2.5790   25.3880   18.5930 C   0  0  0  0  0  0  0  0  0  0  0  0
    3.1130   25.0780   17.3190 N   0  0  0  0  0  0  0  0  0  0  0  0
    4.1030   24.1890   17.0680 C   0  0  0  0  0  0  0  0  0  0  0  0
    5.4570   24.2410   17.2880 C   0  0  0  0  0  0  0  0  0  0  0  0
    5.9830   23.0050   16.8030 C   0  0  0  0  0  0  0  0  0  0  0  0
    7.3820   22.5520   16.7950 C   0  0  0  0  0  0  0  0  0  0  0  0
    7.7440   21.3770   16.1170 C   0  0  0  0  0  0  0  0  0  0  0  0
    9.0690   20.9320   16.1040 C   0  0  0  0  0  0  0  0  0  0  0  0
   10.0530   21.6580   16.7700 C   0  0  0  0  0  0  0  0  0  0  0  0
    9.7130   22.8270   17.4470 C   0  0  0  0  0  0  0  0  0  0  0  0
    8.3860   23.2710   17.4600 C   0  0  0  0  0  0  0  0  0  0  0  0
    4.9930   22.2360   16.3170 N   0  0  0  0  0  0  0  0  0  0  0  0
    3.8830   22.9710   16.4920 N   0  0  0  0  0  0  0  0  0  0  0  0
    2.3910   26.6800   18.9690 N   0  0  0  0  0  0  0  0  0  0  0  0
    1.9390   26.9680   20.2080 C   0  0  0  0  0  0  0  0  0  0  0  0
    1.6930   28.2880   20.5970 N   0  0  0  0  0  0  0  0  0  0  0  0
    0.5190   28.5610   21.4370 C   0  0  2  0  0  0  0  0  0  0  0  0
   -0.7720   28.6030   20.6040 C   0  0  0  0  0  0  0  0  0  0  0  0
   -0.8760   29.8390   19.7080 C   0  0  0  0  0  0  0  0  0  0  0  0
   -0.6720   31.1350   20.4890 C   0  0  1  0  0  0  0  0  0  0  0  0
   -1.7440   31.3140   21.4100 O   0  0  0  0  0  0  0  0  0  0  0  0
    0.6390   31.1150   21.2720 C   0  0  0  0  0  0  0  0  0  0  0  0
    0.7460   29.8870   22.1800 C   0  0  0  0  0  0  0  0  0  0  0  0
    1.6380   25.9650   21.1140 C   0  0  0  0  0  0  0  0  0  0  0  0
   -0.2792   23.3524   19.5835 H   0  0  0  0  0  0  0  0  0  0  0  0
   -2.7297   22.9051   19.3675 H   0  0  0  0  0  0  0  0  0  0  0  0
   -4.0727   22.3197   21.3853 H   0  0  0  0  0  0  0  0  0  0  0  0
   -2.9775   22.1574   23.6196 H   0  0  0  0  0  0  0  0  0  0  0  0
   -0.5285   22.6018   23.8454 H   0  0  0  0  0  0  0  0  0  0  0  0
    2.5179   23.2989   19.1693 H   0  0  0  0  0  0  0  0  0  0  0  0
    2.9230   25.7910   16.6220 H   0  0  0  0  0  0  0  0  0  0  0  0
    6.0220   25.0668   17.7450 H   0  0  0  0  0  0  0  0  0  0  0  0
    6.9730   20.7977   15.5879 H   0  0  0  0  0  0  0  0  0  0  0  0
    9.3342   20.0088   15.5679 H   0  0  0  0  0  0  0  0  0  0  0  0
   11.0962   21.3093   16.7616 H   0  0  0  0  0  0  0  0  0  0  0  0
   10.4894   23.4024   17.9726 H   0  0  0  0  0  0  0  0  0  0  0  0
    8.1272   24.1948   17.9981 H   0  0  0  0  0  0  0  0  0  0  0  0
    2.9780   22.6010   16.2220 H   0  0  0  0  0  0  0  0  0  0  0  0
    1.7670   28.9140   19.8000 H   0  0  0  0  0  0  0  0  0  0  0  0
    0.3954   27.7465   22.1659 H   0  0  0  0  0  0  0  0  0  0  0  0
   -0.8056   27.7067   19.9672 H   0  0  0  0  0  0  0  0  0  0  0  0
   -1.6139   28.6421   21.3109 H   0  0  0  0  0  0  0  0  0  0  0  0
   -0.1080   29.7735   18.9232 H   0  0  0  0  0  0  0  0  0  0  0  0
   -1.8877   29.8598   19.2766 H   0  0  0  0  0  0  0  0  0  0  0  0
   -0.6410   31.9606   19.7627 H   0  0  0  0  0  0  0  0  0  0  0  0
   -2.5780   31.2320   20.9140 H   0  0  0  0  0  0  0  0  0  0  0  0
    1.4776   31.1046   20.5603 H   0  0  0  0  0  0  0  0  0  0  0  0
    0.6684   32.0117   21.9084 H   0  0  0  0  0  0  0  0  0  0  0  0
    1.7510   29.8694   22.6268 H   0  0  0  0  0  0  0  0  0  0  0  0
   -0.0438   29.9740   22.9407 H   0  0  0  0  0  0  0  0  0  0  0  0
    1.2509   26.2072   22.1147 H   0  0  0  0  0  0  0  0  0  0  0  0
  1  2  2  0
  2  3  2  0
  2  4  1  0
  4  5  2  0
  5  6  1  0
  6  7  2  0
  7  8  1  0
  8  9  2  0
  2 10  1  0
 10 11  2  0
 11 12  1  0
 12 13  1  0
 13 14  1  0
 14 15  2  0
 15 16  1  0
 16 17  1  0
 17 18  2  0
 18 19  1  0
 19 20  2  0
 20 21  1  0
 21 22  2  0
 16 23  2  0
 23 24  1  0
 12 25  2  0
 25 26  1  0
 26 27  1  0
 27 28  1  0
 28 29  1  0
 29 30  1  0
 30 31  1  0
 31 32  1  0
 31 33  1  0
 33 34  1  0
 26 35  2  0
  9  4  1  0
 35 10  1  0
 24 14  1  0
 34 28  1  0
 22 17  1  0
  5 36  1  0
  6 37  1  0
  7 38  1  0
  8 39  1  0
  9 40  1  0
 11 41  1  0
 13 42  1  0
 15 43  1  0
 18 44  1  0
 19 45  1  0
 20 46  1  0
 21 47  1  0
 22 48  1  0
 24 49  1  0
 27 50  1  0
 28 51  1  6
 29 52  1  0
 29 53  1  0
 30 54  1  0
 30 55  1  0
 31 56  1  1
 32 57  1  0
 33 58  1  0
 33 59  1  0
 34 60  1  0
 34 61  1  0
 35 62  1  0
M  END
>  <meeko>  (5) 
{"is_sidechain": [false], "free_energy": -7.307, "intermolecular_energy": -10.431, "internal_energy": -1.456}

$$$$
4qd6_ligand
     RDKit          3D

 62 66  0  0  0  0  0  0  0  0999 V2000
    7.6590   28.4010   19.2270 O   0  0  0  0  0  0  0  0  0  0  0  0
    7.5330   27.2340   20.0810 S   0  0  0  0  0  0  0  0  0  0  0  0
    8.2210   25.9980   19.7540 O   0  0  0  0  0  0  0  0  0  0  0  0
    8.0500   27.6840   21.7180 C   0  0  0  0  0  0  0  0  0  0  0  0
    8.9290   26.8430   22.4090 C   0  0  0  0  0  0  0  0  0  0  0  0
    9.3310   27.1870   23.6990 C   0  0  0  0  0  0  0  0  0  0  0  0
    8.8630   28.3630   24.2870 C   0  0  0  0  0  0  0  0  0  0  0  0
    7.9950   29.2040   23.5890 C   0  0  0  0  0  0  0  0  0  0  0  0
    7.5870   28.8680   22.2970 C   0  0  0  0  0  0  0  0  0  0  0  0
    5.8030   26.8750   20.1690 C   0  0  0  0  0  0  0  0  0  0  0  0
    5.3690   25.5750   20.3880 C   0  0  0  0  0  0  0  0  0  0  0  0
    4.0050   25.3480   20.4790 C   0  0  0  0  0  0  0  0  0  0  0  0
    3.5640   24.0160   20.6690 N   0  0  0  0  0  0  0  0  0  0  0  0
    2.3600   23.6420   21.1630 C   0  0  0  0  0  0  0  0  0  0  0  0
    1.1440   23.4390   20.5570 C   0  0  0  0  0  0  0  0  0  0  0  0
    0.2430   23.0630   21.5990 C   0  0  0  0  0  0  0  0  0  0  0  0
   -1.1870   22.7370   21.4910 C   0  0  0  0  0  0  0  0  0  0  0  0
   -1.7970   22.6270   20.2320 C   0  0  0  0  0  0  0  0  0  0  0  0
   -3.1560   22.3210   20.1140 C   0  0  0  0  0  0  0  0  0  0  0  0
   -3.9260   22.1190   21.2570 C   0  0  0  0  0  0  0  0  0  0  0  0
   -3.3370   22.2230   22.5150 C   0  0  0  0  0  0  0  0  0  0  0  0
   -1.9770   22.5300   22.6320 C   0  0  0  0  0  0  0  0  0  0  0  0
    0.8830   23.0330   22.7810 N   0  0  0  0  0  0  0  0  0  0  0  0
    2.1450   23.3820   22.4860 N   0  0  0  0  0  0  0  0  0  0  0  0
    3.1100   26.3560   20.3130 N   0  0  0  0  0  0  0  0  0  0  0  0
    3.5410   27.6130   20.0720 C   0  0  0  0  0  0  0  0  0  0  0  0
    2.6360   28.6730   19.9480 N   0  0  0  0  0  0  0  0  0  0  0  0
    1.3070   28.5300   20.5560 C   0  0  2  0  0  0  0  0  0  0  0  0
    0.4000   29.7220   20.2140 C   0  0  0  0  0  0  0  0  0  0  0  0
    0.8060   31.0170   20.9210 C   0  0  0  0  0  0  0  0  0  0  0  0
    0.9380   30.8300   22.4310 C   0  0  1  0  0  0  0  0  0  0  0  0
   -0.3400   30.5440   22.9920 O   0  0  0  0  0  0  0  0  0  0  0  0
    1.8840   29.6810   22.7710 C   0  0  0  0  0  0  0  0  0  0  0  0
    1.4780   28.3790   22.0770 C   0  0  0  0  0  0  0  0  0  0  0  0
    4.8910   27.9100   20.0060 C   0  0  0  0  0  0  0  0  0  0  0  0
    9.2992   25.9198   21.9393 H   0  0  0  0  0  0  0  0  0  0  0  0
   10.0177   26.5308   24.2538 H   0  0  0  0  0  0  0  0  0  0  0  0
    9.1800   28.6286   25.3063 H   0  0  0  0  0  0  0  0  0  0  0  0
    7.6325   30.1312   24.0568 H   0  0  0  0  0  0  0  0  0  0  0  0
    6.9072   29.5295   21.7399 H   0  0  0  0  0  0  0  0  0  0  0  0
    6.0876   24.7480   20.4866 H   0  0  0  0  0  0  0  0  0  0  0  0
    4.3230   23.3440   20.7020 H   0  0  0  0  0  0  0  0  0  0  0  0
    0.9117   23.5446   19.4870 H   0  0  0  0  0  0  0  0  0  0  0  0
   -1.1965   22.7840   19.3238 H   0  0  0  0  0  0  0  0  0  0  0  0
   -3.6172   22.2398   19.1186 H   0  0  0  0  0  0  0  0  0  0  0  0
   -4.9955   21.8782   21.1665 H   0  0  0  0  0  0  0  0  0  0  0  0
   -3.9429   22.0633   23.4191 H   0  0  0  0  0  0  0  0  0  0  0  0
   -1.5217   22.6100   23.6302 H   0  0  0  0  0  0  0  0  0  0  0  0
    2.8490   23.4150   23.2150 H   0  0  0  0  0  0  0  0  0  0  0  0
    2.6020   29.0020   18.9880 H   0  0  0  0  0  0  0  0  0  0  0  0
    0.8149   27.6344   20.1489 H   0  0  0  0  0  0  0  0  0  0  0  0
    0.4403   29.8904   19.1277 H   0  0  0  0  0  0  0  0  0  0  0  0
   -0.6135   29.4681   20.5581 H   0  0  0  0  0  0  0  0  0  0  0  0
    1.7736   31.3522   20.5192 H   0  0  0  0  0  0  0  0  0  0  0  0
    0.0185   31.7633   20.7396 H   0  0  0  0  0  0  0  0  0  0  0  0
    1.3462   31.7622   22.8486 H   0  0  0  0  0  0  0  0  0  0  0  0
   -0.3110   30.7830   23.9350 H   0  0  0  0  0  0  0  0  0  0  0  0
    2.9009   29.9518   22.4509 H   0  0  0  0  0  0  0  0  0  0  0  0
    1.8396   29.5148   23.8575 H   0  0  0  0  0  0  0  0  0  0  0  0
    2.2550   27.6242   22.2681 H   0  0  0  0  0  0  0  0  0  0  0  0
    0.5019   28.0809   22.4873 H   0  0  0  0  0  0  0  0  0  0  0  0
    5.2334   28.9402   19.8288 H   0  0  0  0  0  0  0  0  0  0  0  0
  1  2  2  0
  2  3  2  0
  2  4  1  0
  4  5  2  0
  5  6  1  0
  6  7  2  0
  7  8  1  0
  8  9  2  0
  2 10  1  0
 10 11  2  0
 11 12  1  0
 12 13  1  0
 13 14  1  0
 14 15  2  0
 15 16  1  0
 16 17  1  0
 17 18  2  0
 18 19  1  0
 19 20  2  0
 20 21  1  0
 21 22  2  0
 16 23  2  0
 23 24  1  0
 12 25  2  0
 25 26  1  0
 26 27  1  0
 27 28  1  0
 28 29  1  0
 29 30  1  0
 30 31  1  0
 31 32  1  0
 31 33  1  0
 33 34  1  0
 26 35  2  0
  9  4  1  0
 35 10  1  0
 24 14  1  0
 34 28  1  0
 22 17  1  0
  5 36  1  0
  6 37  1  0
  7 38  1  0
  8 39  1  0
  9 40  1  0
 11 41  1  0
 13 42  1  0
 15 43  1  0
 18 44  1  0
 19 45  1  0
 20 46  1  0
 21 47  1  0
 22 48  1  0
 24 49  1  0
 27 50  1  0
 28 51  1  1
 29 52  1  0
 29 53  1  0
 30 54  1  0
 30 55  1  0
 31 56  1  6
 32 57  1  0
 33 58  1  0
 33 59  1  0
 34 60  1  0
 34 61  1  0
 35 62  1  0
M  END
>  <meeko>  (6) 
{"is_sidechain": [false], "free_energy": -7.259, "intermolecular_energy": -10.494, "internal_energy": -1.323}

$$$$
4qd6_ligand
     RDKit          3D

 62 66  0  0  0  0  0  0  0  0999 V2000
    3.1990   26.1860   19.6610 O   0  0  0  0  0  0  0  0  0  0  0  0
    3.4200   24.7760   19.9290 S   0  0  0  0  0  0  0  0  0  0  0  0
    4.5790   24.3370   20.6830 O   0  0  0  0  0  0  0  0  0  0  0  0
    1.9940   24.1410   20.7750 C   0  0  0  0  0  0  0  0  0  0  0  0
    2.1580   23.1000   21.6950 C   0  0  0  0  0  0  0  0  0  0  0  0
    1.0400   22.5900   22.3560 C   0  0  0  0  0  0  0  0  0  0  0  0
   -0.2250   23.1220   22.1020 C   0  0  0  0  0  0  0  0  0  0  0  0
   -0.3810   24.1690   21.1910 C   0  0  0  0  0  0  0  0  0  0  0  0
    0.7310   24.6850   20.5250 C   0  0  0  0  0  0  0  0  0  0  0  0
    3.4760   23.9810   18.3500 C   0  0  0  0  0  0  0  0  0  0  0  0
    2.4020   23.2180   17.9130 C   0  0  0  0  0  0  0  0  0  0  0  0
    2.4810   22.6380   16.6580 C   0  0  0  0  0  0  0  0  0  0  0  0
    1.3990   21.8330   16.2280 N   0  0  0  0  0  0  0  0  0  0  0  0
    0.2590   21.5980   16.9210 C   0  0  0  0  0  0  0  0  0  0  0  0
   -0.3900   22.3240   17.8890 C   0  0  0  0  0  0  0  0  0  0  0  0
   -1.5400   21.5590   18.2510 C   0  0  0  0  0  0  0  0  0  0  0  0
   -2.5710   21.8830   19.2480 C   0  0  0  0  0  0  0  0  0  0  0  0
   -3.1140   23.1750   19.3130 C   0  0  0  0  0  0  0  0  0  0  0  0
   -4.0920   23.4980   20.2580 C   0  0  0  0  0  0  0  0  0  0  0  0
   -4.5440   22.5310   21.1520 C   0  0  0  0  0  0  0  0  0  0  0  0
   -4.0180   21.2420   21.1000 C   0  0  0  0  0  0  0  0  0  0  0  0
   -3.0380   20.9200   20.1550 C   0  0  0  0  0  0  0  0  0  0  0  0
   -1.5900   20.4240   17.5320 N   0  0  0  0  0  0  0  0  0  0  0  0
   -0.5020   20.4780   16.7460 N   0  0  0  0  0  0  0  0  0  0  0  0
    3.5930   22.7700   15.8880 N   0  0  0  0  0  0  0  0  0  0  0  0
    4.6450   23.4900   16.3340 C   0  0  0  0  0  0  0  0  0  0  0  0
    5.7780   23.6790   15.5360 N   0  0  0  0  0  0  0  0  0  0  0  0
    6.5540   22.4970   15.1360 C   0  0  2  0  0  0  0  0  0  0  0  0
    7.1730   21.7920   16.3530 C   0  0  0  0  0  0  0  0  0  0  0  0
    8.3210   22.5780   16.9910 C   0  0  0  0  0  0  0  0  0  0  0  0
    9.3860   22.9710   15.9690 C   0  0  1  0  0  0  0  0  0  0  0  0
   10.0320   21.8010   15.4770 O   0  0  0  0  0  0  0  0  0  0  0  0
    8.7770   23.7220   14.7880 C   0  0  0  0  0  0  0  0  0  0  0  0
    7.6360   22.9370   14.1360 C   0  0  0  0  0  0  0  0  0  0  0  0
    4.6120   24.1240   17.5640 C   0  0  0  0  0  0  0  0  0  0  0  0
    3.1580   22.6878   21.8952 H   0  0  0  0  0  0  0  0  0  0  0  0
    1.1558   21.7681   23.0778 H   0  0  0  0  0  0  0  0  0  0  0  0
   -1.1042   22.7143   22.6223 H   0  0  0  0  0  0  0  0  0  0  0  0
   -1.3803   24.5867   20.9987 H   0  0  0  0  0  0  0  0  0  0  0  0
    0.6148   25.5125   19.8096 H   0  0  0  0  0  0  0  0  0  0  0  0
    1.5132   23.0780   18.5457 H   0  0  0  0  0  0  0  0  0  0  0  0
    1.6530   21.1820   15.4920 H   0  0  0  0  0  0  0  0  0  0  0  0
   -0.0858   23.2972   18.3017 H   0  0  0  0  0  0  0  0  0  0  0  0
   -2.7649   23.9454   18.6097 H   0  0  0  0  0  0  0  0  0  0  0  0
   -4.5048   24.5169   20.2954 H   0  0  0  0  0  0  0  0  0  0  0  0
   -5.3134   22.7838   21.8964 H   0  0  0  0  0  0  0  0  0  0  0  0
   -4.3742   20.4754   21.8039 H   0  0  0  0  0  0  0  0  0  0  0  0
   -2.6287   19.8995   20.1227 H   0  0  0  0  0  0  0  0  0  0  0  0
   -0.3170   19.7360   16.0800 H   0  0  0  0  0  0  0  0  0  0  0  0
    6.3550   24.4270   15.9070 H   0  0  0  0  0  0  0  0  0  0  0  0
    5.8852   21.7665   14.6575 H   0  0  0  0  0  0  0  0  0  0  0  0
    6.3872   21.6468   17.1090 H   0  0  0  0  0  0  0  0  0  0  0  0
    7.5899   20.8378   15.9986 H   0  0  0  0  0  0  0  0  0  0  0  0
    7.9140   23.4919   17.4484 H   0  0  0  0  0  0  0  0  0  0  0  0
    8.7962   21.9322   17.7441 H   0  0  0  0  0  0  0  0  0  0  0  0
   10.1075   23.6298   16.4744 H   0  0  0  0  0  0  0  0  0  0  0  0
   10.9410   22.0460   15.2260 H   0  0  0  0  0  0  0  0  0  0  0  0
    8.3863   24.6867   15.1440 H   0  0  0  0  0  0  0  0  0  0  0  0
    9.5649   23.8656   14.0339 H   0  0  0  0  0  0  0  0  0  0  0  0
    7.1669   23.5729   13.3708 H   0  0  0  0  0  0  0  0  0  0  0  0
    8.0724   22.0242   13.7043 H   0  0  0  0  0  0  0  0  0  0  0  0
    5.4647   24.7264   17.9105 H   0  0  0  0  0  0  0  0  0  0  0  0
  1  2  2  0
  2  3  2  0
  2  4  1  0
  4  5  2  0
  5  6  1  0
  6  7  2  0
  7  8  1  0
  8  9  2  0
  2 10  1  0
 10 11  2  0
 11 12  1  0
 12 13  1  0
 13 14  1  0
 14 15  2  0
 15 16  1  0
 16 17  1  0
 17 18  2  0
 18 19  1  0
 19 20  2  0
 20 21  1  0
 21 22  2  0
 16 23  2  0
 23 24  1  0
 12 25  2  0
 25 26  1  0
 26 27  1  0
 27 28  1  0
 28 29  1  0
 29 30  1  0
 30 31  1  0
 31 32  1  0
 31 33  1  0
 33 34  1  0
 26 35  2  0
  9  4  1  0
 35 10  1  0
 24 14  1  0
 34 28  1  0
 22 17  1  0
  5 36  1  0
  6 37  1  0
  7 38  1  0
  8 39  1  0
  9 40  1  0
 11 41  1  0
 13 42  1  0
 15 43  1  0
 18 44  1  0
 19 45  1  0
 20 46  1  0
 21 47  1  0
 22 48  1  0
 24 49  1  0
 27 50  1  0
 28 51  1  1
 29 52  1  0
 29 53  1  0
 30 54  1  0
 30 55  1  0
 31 56  1  6
 32 57  1  0
 33 58  1  0
 33 59  1  0
 34 60  1  0
 34 61  1  0
 35 62  1  0
M  END
>  <meeko>  (7) 
{"is_sidechain": [false], "free_energy": -7.226, "intermolecular_energy": -9.914, "internal_energy": -1.856}

$$$$
4qd6_ligand
     RDKit          3D

 62 66  0  0  0  0  0  0  0  0999 V2000
   -1.5500   22.3870   17.6900 O   0  0  0  0  0  0  0  0  0  0  0  0
   -2.2170   23.4650   18.3970 S   0  0  0  0  0  0  0  0  0  0  0  0
   -3.3460   24.1550   17.8010 O   0  0  0  0  0  0  0  0  0  0  0  0
   -2.7710   22.8430   19.9650 C   0  0  0  0  0  0  0  0  0  0  0  0
   -1.8500   22.7120   21.0080 C   0  0  0  0  0  0  0  0  0  0  0  0
   -2.2770   22.2150   22.2390 C   0  0  0  0  0  0  0  0  0  0  0  0
   -3.6140   21.8590   22.4230 C   0  0  0  0  0  0  0  0  0  0  0  0
   -4.5320   22.0030   21.3810 C   0  0  0  0  0  0  0  0  0  0  0  0
   -4.1140   22.4990   20.1460 C   0  0  0  0  0  0  0  0  0  0  0  0
   -0.9700   24.6730   18.7360 C   0  0  0  0  0  0  0  0  0  0  0  0
   -1.2700   25.7910   19.5020 C   0  0  0  0  0  0  0  0  0  0  0  0
   -0.2540   26.6950   19.7650 C   0  0  0  0  0  0  0  0  0  0  0  0
   -0.5700   27.8510   20.5180 N   0  0  0  0  0  0  0  0  0  0  0  0
    0.3070   28.6010   21.2270 C   0  0  0  0  0  0  0  0  0  0  0  0
    1.5930   28.3580   21.6430 C   0  0  0  0  0  0  0  0  0  0  0  0
    2.0010   29.5220   22.3630 C   0  0  0  0  0  0  0  0  0  0  0  0
    3.2900   29.7790   23.0220 C   0  0  0  0  0  0  0  0  0  0  0  0
    4.4820   29.7570   22.2820 C   0  0  0  0  0  0  0  0  0  0  0  0
    5.7150   29.9960   22.8950 C   0  0  0  0  0  0  0  0  0  0  0  0
    5.7730   30.2620   24.2610 C   0  0  0  0  0  0  0  0  0  0  0  0
    4.6000   30.2900   25.0110 C   0  0  0  0  0  0  0  0  0  0  0  0
    3.3660   30.0490   24.3960 C   0  0  0  0  0  0  0  0  0  0  0  0
    1.0110   30.4320   22.3780 N   0  0  0  0  0  0  0  0  0  0  0  0
    0.0140   29.8520   21.6900 N   0  0  0  0  0  0  0  0  0  0  0  0
    0.9930   26.5230   19.2520 N   0  0  0  0  0  0  0  0  0  0  0  0
    1.2680   25.4470   18.4840 C   0  0  0  0  0  0  0  0  0  0  0  0
    2.5570   25.2270   17.9890 N   0  0  0  0  0  0  0  0  0  0  0  0
    3.3360   24.1120   18.5430 C   0  0  2  0  0  0  0  0  0  0  0  0
    3.1420   23.9880   20.0620 C   0  0  0  0  0  0  0  0  0  0  0  0
    3.8130   25.1140   20.8540 C   0  0  0  0  0  0  0  0  0  0  0  0
    5.2870   25.2720   20.4890 C   0  0  1  0  0  0  0  0  0  0  0  0
    6.0090   24.1150   20.9000 O   0  0  0  0  0  0  0  0  0  0  0  0
    5.4750   25.4510   18.9850 C   0  0  0  0  0  0  0  0  0  0  0  0
    4.8170   24.3230   18.1860 C   0  0  0  0  0  0  0  0  0  0  0  0
    0.3050   24.4900   18.2160 C   0  0  0  0  0  0  0  0  0  0  0  0
   -0.7983   22.9982   20.8593 H   0  0  0  0  0  0  0  0  0  0  0  0
   -1.5597   22.1035   23.0655 H   0  0  0  0  0  0  0  0  0  0  0  0
   -3.9461   21.4629   23.3940 H   0  0  0  0  0  0  0  0  0  0  0  0
   -5.5853   21.7252   21.5339 H   0  0  0  0  0  0  0  0  0  0  0  0
   -4.8338   22.6183   19.3228 H   0  0  0  0  0  0  0  0  0  0  0  0
   -2.2864   25.9546   19.8894 H   0  0  0  0  0  0  0  0  0  0  0  0
   -1.5550   27.9170   20.7540 H   0  0  0  0  0  0  0  0  0  0  0  0
    2.1879   27.4512   21.4591 H   0  0  0  0  0  0  0  0  0  0  0  0
    4.4454   29.5484   21.2026 H   0  0  0  0  0  0  0  0  0  0  0  0
    6.6393   29.9741   22.2990 H   0  0  0  0  0  0  0  0  0  0  0  0
    6.7424   30.4494   24.7459 H   0  0  0  0  0  0  0  0  0  0  0  0
    4.6433   30.5021   26.0895 H   0  0  0  0  0  0  0  0  0  0  0  0
    2.4452   30.0716   24.9974 H   0  0  0  0  0  0  0  0  0  0  0  0
   -0.8560   30.3490   21.5350 H   0  0  0  0  0  0  0  0  0  0  0  0
    3.0790   26.0980   17.9510 H   0  0  0  0  0  0  0  0  0  0  0  0
    2.9815   23.1678   18.1039 H   0  0  0  0  0  0  0  0  0  0  0  0
    2.0636   24.0040   20.2784 H   0  0  0  0  0  0  0  0  0  0  0  0
    3.6143   23.0449   20.3741 H   0  0  0  0  0  0  0  0  0  0  0  0
    3.2911   26.0583   20.6398 H   0  0  0  0  0  0  0  0  0  0  0  0
    3.7535   24.8593   21.9224 H   0  0  0  0  0  0  0  0  0  0  0  0
    5.6636   26.1686   21.0031 H   0  0  0  0  0  0  0  0  0  0  0  0
    6.7350   24.4070   21.4800 H   0  0  0  0  0  0  0  0  0  0  0  0
    5.0264   26.4088   18.6826 H   0  0  0  0  0  0  0  0  0  0  0  0
    6.5542   25.4324   18.7731 H   0  0  0  0  0  0  0  0  0  0  0  0
    4.8874   24.5657   17.1154 H   0  0  0  0  0  0  0  0  0  0  0  0
    5.3490   23.3928   18.4346 H   0  0  0  0  0  0  0  0  0  0  0  0
    0.5433   23.6061   17.6062 H   0  0  0  0  0  0  0  0  0  0  0  0
  1  2  2  0
  2  3  2  0
  2  4  1  0
  4  5  2  0
  5  6  1  0
  6  7  2  0
  7  8  1  0
  8  9  2  0
  2 10  1  0
 10 11  2  0
 11 12  1  0
 12 13  1  0
 13 14  1  0
 14 15  2  0
 15 16  1  0
 16 17  1  0
 17 18  2  0
 18 19  1  0
 19 20  2  0
 20 21  1  0
 21 22  2  0
 16 23  2  0
 23 24  1  0
 12 25  2  0
 25 26  1  0
 26 27  1  0
 27 28  1  0
 28 29  1  0
 29 30  1  0
 30 31  1  0
 31 32  1  0
 31 33  1  0
 33 34  1  0
 26 35  2  0
  9  4  1  0
 35 10  1  0
 24 14  1  0
 34 28  1  0
 22 17  1  0
  5 36  1  0
  6 37  1  0
  7 38  1  0
  8 39  1  0
  9 40  1  0
 11 41  1  0
 13 42  1  0
 15 43  1  0
 18 44  1  0
 19 45  1  0
 20 46  1  0
 21 47  1  0
 22 48  1  0
 24 49  1  0
 27 50  1  0
 28 51  1  1
 29 52  1  0
 29 53  1  0
 30 54  1  0
 30 55  1  0
 31 56  1  6
 32 57  1  0
 33 58  1  0
 33 59  1  0
 34 60  1  0
 34 61  1  0
 35 62  1  0
M  END
>  <meeko>  (8) 
{"is_sidechain": [false], "free_energy": -7.194, "intermolecular_energy": -10.562, "internal_energy": -1.161}

$$$$
4qd6_ligand
     RDKit          3D

 62 66  0  0  0  0  0  0  0  0999 V2000
   -0.6310   29.0010   21.3840 O   0  0  0  0  0  0  0  0  0  0  0  0
    0.5640   28.7060   20.6160 S   0  0  0  0  0  0  0  0  0  0  0  0
    0.7060   29.1830   19.2520 O   0  0  0  0  0  0  0  0  0  0  0  0
    1.9680   29.3160   21.5150 C   0  0  0  0  0  0  0  0  0  0  0  0
    3.1130   29.7000   20.8090 C   0  0  0  0  0  0  0  0  0  0  0  0
    4.2220   30.1710   21.5110 C   0  0  0  0  0  0  0  0  0  0  0  0
    4.1820   30.2620   22.9030 C   0  0  0  0  0  0  0  0  0  0  0  0
    3.0320   29.8890   23.6010 C   0  0  0  0  0  0  0  0  0  0  0  0
    1.9180   29.4160   22.9080 C   0  0  0  0  0  0  0  0  0  0  0  0
    0.7030   26.9430   20.5830 C   0  0  0  0  0  0  0  0  0  0  0  0
    1.8910   26.3280   20.9540 C   0  0  0  0  0  0  0  0  0  0  0  0
    1.9420   24.9440   20.9400 C   0  0  0  0  0  0  0  0  0  0  0  0
    3.1640   24.3200   21.2870 N   0  0  0  0  0  0  0  0  0  0  0  0
    4.3170   24.3820   20.5790 C   0  0  0  0  0  0  0  0  0  0  0  0
    4.5590   24.4730   19.2300 C   0  0  0  0  0  0  0  0  0  0  0  0
    5.9790   24.4910   19.0840 C   0  0  0  0  0  0  0  0  0  0  0  0
    6.7660   24.5740   17.8450 C   0  0  0  0  0  0  0  0  0  0  0  0
    7.5350   23.4800   17.4170 C   0  0  0  0  0  0  0  0  0  0  0  0
    8.2900   23.5460   16.2430 C   0  0  0  0  0  0  0  0  0  0  0  0
    8.2870   24.7090   15.4780 C   0  0  0  0  0  0  0  0  0  0  0  0
    7.5290   25.8040   15.8860 C   0  0  0  0  0  0  0  0  0  0  0  0
    6.7730   25.7370   17.0610 C   0  0  0  0  0  0  0  0  0  0  0  0
    6.5720   24.4200   20.2890 N   0  0  0  0  0  0  0  0  0  0  0  0
    5.5520   24.3570   21.1600 N   0  0  0  0  0  0  0  0  0  0  0  0
    0.8790   24.2030   20.5310 N   0  0  0  0  0  0  0  0  0  0  0  0
   -0.2630   24.8100   20.1440 C   0  0  0  0  0  0  0  0  0  0  0  0
   -1.3840   24.0640   19.7670 N   0  0  0  0  0  0  0  0  0  0  0  0
   -1.5570   22.7250   20.3450 C   0  0  2  0  0  0  0  0  0  0  0  0
   -2.3200   21.7930   19.3910 C   0  0  0  0  0  0  0  0  0  0  0  0
   -3.8030   22.1450   19.2560 C   0  0  0  0  0  0  0  0  0  0  0  0
   -4.4960   22.2460   20.6140 C   0  0  1  0  0  0  0  0  0  0  0  0
   -4.5250   20.9630   21.2330 O   0  0  0  0  0  0  0  0  0  0  0  0
   -3.7680   23.2150   21.5420 C   0  0  0  0  0  0  0  0  0  0  0  0
   -2.2860   22.8630   21.6910 C   0  0  0  0  0  0  0  0  0  0  0  0
   -0.3880   26.1890   20.1710 C   0  0  0  0  0  0  0  0  0  0  0  0
    3.1383   29.6311   19.7114 H   0  0  0  0  0  0  0  0  0  0  0  0
    5.1296   30.4712   20.9668 H   0  0  0  0  0  0  0  0  0  0  0  0
    5.0610   30.6294   23.4529 H   0  0  0  0  0  0  0  0  0  0  0  0
    3.0045   29.9682   24.6978 H   0  0  0  0  0  0  0  0  0  0  0  0
    1.0081   29.1243   23.4530 H   0  0  0  0  0  0  0  0  0  0  0  0
    2.7672   26.9232   21.2507 H   0  0  0  0  0  0  0  0  0  0  0  0
    3.0510   23.5590   21.9490 H   0  0  0  0  0  0  0  0  0  0  0  0
    3.8105   24.5221   18.4254 H   0  0  0  0  0  0  0  0  0  0  0  0
    7.5433   22.5568   18.0150 H   0  0  0  0  0  0  0  0  0  0  0  0
    8.8867   22.6790   15.9233 H   0  0  0  0  0  0  0  0  0  0  0  0
    8.8815   24.7631   14.5541 H   0  0  0  0  0  0  0  0  0  0  0  0
    7.5249   26.7238   15.2827 H   0  0  0  0  0  0  0  0  0  0  0  0
    6.1768   26.6069   17.3739 H   0  0  0  0  0  0  0  0  0  0  0  0
    5.7340   24.3180   22.1570 H   0  0  0  0  0  0  0  0  0  0  0  0
   -1.5010   24.0810   18.7580 H   0  0  0  0  0  0  0  0  0  0  0  0
   -0.5695   22.2678   20.5055 H   0  0  0  0  0  0  0  0  0  0  0  0
   -1.8547   21.8552   18.3962 H   0  0  0  0  0  0  0  0  0  0  0  0
   -2.2637   20.7788   19.8131 H   0  0  0  0  0  0  0  0  0  0  0  0
   -3.8924   23.1121   18.7395 H   0  0  0  0  0  0  0  0  0  0  0  0
   -4.2913   21.3411   18.6856 H   0  0  0  0  0  0  0  0  0  0  0  0
   -5.5167   22.6181   20.4417 H   0  0  0  0  0  0  0  0  0  0  0  0
   -5.2560   20.9600   21.8760 H   0  0  0  0  0  0  0  0  0  0  0  0
   -3.8518   24.2316   21.1302 H   0  0  0  0  0  0  0  0  0  0  0  0
   -4.2344   23.1483   22.5360 H   0  0  0  0  0  0  0  0  0  0  0  0
   -1.7954   23.6561   22.2743 H   0  0  0  0  0  0  0  0  0  0  0  0
   -2.2315   21.8859   22.1934 H   0  0  0  0  0  0  0  0  0  0  0  0
   -1.3287   26.6753   19.8733 H   0  0  0  0  0  0  0  0  0  0  0  0
  1  2  2  0
  2  3  2  0
  2  4  1  0
  4  5  2  0
  5  6  1  0
  6  7  2  0
  7  8  1  0
  8  9  2  0
  2 10  1  0
 10 11  2  0
 11 12  1  0
 12 13  1  0
 13 14  1  0
 14 15  2  0
 15 16  1  0
 16 17  1  0
 17 18  2  0
 18 19  1  0
 19 20  2  0
 20 21  1  0
 21 22  2  0
 16 23  2  0
 23 24  1  0
 12 25  2  0
 25 26  1  0
 26 27  1  0
 27 28  1  0
 28 29  1  0
 29 30  1  0
 30 31  1  0
 31 32  1  0
 31 33  1  0
 33 34  1  0
 26 35  2  0
  9  4  1  0
 35 10  1  0
 24 14  1  0
 34 28  1  0
 22 17  1  0
  5 36  1  0
  6 37  1  0
  7 38  1  0
  8 39  1  0
  9 40  1  0
 11 41  1  0
 13 42  1  0
 15 43  1  0
 18 44  1  0
 19 45  1  0
 20 46  1  0
 21 47  1  0
 22 48  1  0
 24 49  1  0
 27 50  1  0
 28 51  1  6
 29 52  1  0
 29 53  1  0
 30 54  1  0
 30 55  1  0
 31 56  1  1
 32 57  1  0
 33 58  1  0
 33 59  1  0
 34 60  1  0
 34 61  1  0
 35 62  1  0
M  END
>  <meeko>  (9) 
{"is_sidechain": [false], "free_energy": -7.094, "intermolecular_energy": -10.053, "internal_energy": -1.526}

$$$$
