3rlr_ligand
     RDKit          3D

 35 37  0  0  0  0  0  0  0  0999 V2000
   13.6170   -0.9640   55.6210 C   0  0  0  0  0  0  0  0  0  0  0  0
   12.4620   -1.3770   54.9040 O   0  0  0  0  0  0  0  0  0  0  0  0
   12.5060   -1.3260   53.5350 C   0  0  0  0  0  0  0  0  0  0  0  0
   13.6840   -1.3410   52.7780 C   0  0  0  0  0  0  0  0  0  0  0  0
   13.6550   -1.2900   51.3680 C   0  0  0  0  0  0  0  0  0  0  0  0
   14.9190   -1.3070   50.6380 C   0  0  0  0  0  0  0  0  0  0  0  0
   15.5590   -2.5000   50.5350 N   0  0  0  0  0  0  0  0  0  0  0  0
   16.7320   -2.5580   49.8710 C   0  0  0  0  0  0  0  0  0  0  0  0
   17.4240   -3.8870   49.8370 C   0  0  0  0  0  0  0  0  0  0  0  0
   17.3580   -1.5300   49.2670 N   0  0  0  0  0  0  0  0  0  0  0  0
   16.6740   -0.3830   49.3670 C   0  0  0  0  0  0  0  0  0  0  0  0
   17.0840    0.8040   48.8260 N   0  0  0  0  0  0  0  0  0  0  0  0
   16.1530    1.7830   49.0800 C   0  0  0  0  0  0  0  0  0  0  0  0
   16.3280    3.1770   48.5970 C   0  0  0  0  0  0  0  0  0  0  0  0
   15.1330    1.1930   49.8140 C   0  0  0  0  0  0  0  0  0  0  0  0
   13.9560    1.8670   50.2680 C   0  0  0  0  0  0  0  0  0  0  0  0
   12.9940    2.4080   50.6280 N   0  0  0  0  0  0  0  0  0  0  0  0
   15.4660   -0.1780   50.0120 C   0  0  0  0  0  0  0  0  0  0  0  0
   12.4060   -1.1980   50.7300 C   0  0  0  0  0  0  0  0  0  0  0  0
   12.2650   -1.0760   49.0080 Cl  0  0  0  0  0  0  0  0  0  0  0  0
   11.2240   -1.1880   51.4730 C   0  0  0  0  0  0  0  0  0  0  0  0
   11.2760   -1.2550   52.8650 C   0  0  0  0  0  0  0  0  0  0  0  0
    9.7780   -1.2320   53.7300 Cl  0  0  0  0  0  0  0  0  0  0  0  0
   13.4223   -1.0336   56.7014 H   0  0  0  0  0  0  0  0  0  0  0  0
   14.4639   -1.6150   55.3584 H   0  0  0  0  0  0  0  0  0  0  0  0
   13.8591    0.0764   55.3584 H   0  0  0  0  0  0  0  0  0  0  0  0
   14.6540   -1.3937   53.2941 H   0  0  0  0  0  0  0  0  0  0  0  0
   17.6042   -4.2330   50.8655 H   0  0  0  0  0  0  0  0  0  0  0  0
   16.7912   -4.6165   49.3103 H   0  0  0  0  0  0  0  0  0  0  0  0
   18.3845   -3.7869   49.3103 H   0  0  0  0  0  0  0  0  0  0  0  0
   17.9470    0.9130   48.3100 H   0  0  0  0  0  0  0  0  0  0  0  0
   16.4132    3.8556   49.4585 H   0  0  0  0  0  0  0  0  0  0  0  0
   17.2413    3.2419   47.9874 H   0  0  0  0  0  0  0  0  0  0  0  0
   15.4590    3.4656   47.9874 H   0  0  0  0  0  0  0  0  0  0  0  0
   10.2524   -1.1273   50.9608 H   0  0  0  0  0  0  0  0  0  0  0  0
  1  2  1  0
  2  3  1  0
  3  4  2  0
  4  5  1  0
  5  6  1  0
  6  7  2  0
  7  8  1  0
  8  9  1  0
  8 10  2  0
 10 11  1  0
 11 12  1  0
 12 13  1  0
 13 14  1  0
 13 15  2  0
 15 16  1  0
 16 17  3  0
 15 18  1  0
  5 19  2  0
 19 20  1  0
 19 21  1  0
 21 22  2  0
 22 23  1  0
 22  3  1  0
 18  6  1  0
 18 11  2  0
  1 24  1  0
  1 25  1  0
  1 26  1  0
  4 27  1  0
  9 28  1  0
  9 29  1  0
  9 30  1  0
 12 31  1  0
 14 32  1  0
 14 33  1  0
 14 34  1  0
 21 35  1  0
M  END
>  <meeko>  (1) 
{"is_sidechain": [false], "free_energy": -9.534, "intermolecular_energy": -10.648, "internal_energy": -0.718}

$$$$
3rlr_ligand
     RDKit          3D

 35 37  0  0  0  0  0  0  0  0999 V2000
   13.8990   -0.7920   56.2740 C   0  0  0  0  0  0  0  0  0  0  0  0
   12.6930   -1.3220   55.7390 O   0  0  0  0  0  0  0  0  0  0  0  0
   12.4930   -1.2190   54.3880 C   0  0  0  0  0  0  0  0  0  0  0  0
   13.4930   -0.9110   53.4580 C   0  0  0  0  0  0  0  0  0  0  0  0
   13.2160   -0.8250   52.0770 C   0  0  0  0  0  0  0  0  0  0  0  0
   14.3040   -0.4980   51.1600 C   0  0  0  0  0  0  0  0  0  0  0  0
   14.3750    0.7830   50.7150 N   0  0  0  0  0  0  0  0  0  0  0  0
   15.3650    1.1260   49.8630 C   0  0  0  0  0  0  0  0  0  0  0  0
   15.3620    2.5360   49.3570 C   0  0  0  0  0  0  0  0  0  0  0  0
   16.3320    0.3130   49.3980 N   0  0  0  0  0  0  0  0  0  0  0  0
   16.2400   -0.9290   49.8900 C   0  0  0  0  0  0  0  0  0  0  0  0
   17.1100   -1.9400   49.5870 N   0  0  0  0  0  0  0  0  0  0  0  0
   16.7610   -3.0810   50.2710 C   0  0  0  0  0  0  0  0  0  0  0  0
   17.5400   -4.3400   50.1470 C   0  0  0  0  0  0  0  0  0  0  0  0
   15.6290   -2.7770   51.0160 C   0  0  0  0  0  0  0  0  0  0  0  0
   14.9540   -3.6900   51.8870 C   0  0  0  0  0  0  0  0  0  0  0  0
   14.4110   -4.4240   52.6030 N   0  0  0  0  0  0  0  0  0  0  0  0
   15.2860   -1.4170   50.7660 C   0  0  0  0  0  0  0  0  0  0  0  0
   11.8940   -1.0330   51.6480 C   0  0  0  0  0  0  0  0  0  0  0  0
   11.4390   -0.8980   49.9830 Cl  0  0  0  0  0  0  0  0  0  0  0  0
   10.8880   -1.3470   52.5640 C   0  0  0  0  0  0  0  0  0  0  0  0
   11.1880   -1.4420   53.9230 C   0  0  0  0  0  0  0  0  0  0  0  0
    9.8980   -1.8280   55.0100 Cl  0  0  0  0  0  0  0  0  0  0  0  0
   13.8527   -0.8123   57.3728 H   0  0  0  0  0  0  0  0  0  0  0  0
   14.7500   -1.3991   55.9315 H   0  0  0  0  0  0  0  0  0  0  0  0
   14.0273    0.2454   55.9315 H   0  0  0  0  0  0  0  0  0  0  0  0
   14.5189   -0.7318   53.8121 H   0  0  0  0  0  0  0  0  0  0  0  0
   15.3605    3.2314   50.2093 H   0  0  0  0  0  0  0  0  0  0  0  0
   16.2598    2.7079   48.7451 H   0  0  0  0  0  0  0  0  0  0  0  0
   14.4635    2.7041   48.7451 H   0  0  0  0  0  0  0  0  0  0  0  0
   17.8930   -1.8320   48.9570 H   0  0  0  0  0  0  0  0  0  0  0  0
   17.7778   -4.7243   51.1499 H   0  0  0  0  0  0  0  0  0  0  0  0
   16.9457   -5.0865   49.5997 H   0  0  0  0  0  0  0  0  0  0  0  0
   18.4732   -4.1413   49.5997 H   0  0  0  0  0  0  0  0  0  0  0  0
    9.8595   -1.5194   52.2142 H   0  0  0  0  0  0  0  0  0  0  0  0
  1  2  1  0
  2  3  1  0
  3  4  2  0
  4  5  1  0
  5  6  1  0
  6  7  2  0
  7  8  1  0
  8  9  1  0
  8 10  2  0
 10 11  1  0
 11 12  1  0
 12 13  1  0
 13 14  1  0
 13 15  2  0
 15 16  1  0
 16 17  3  0
 15 18  1  0
  5 19  2  0
 19 20  1  0
 19 21  1  0
 21 22  2  0
 22 23  1  0
 22  3  1  0
 18  6  1  0
 18 11  2  0
  1 24  1  0
  1 25  1  0
  1 26  1  0
  4 27  1  0
  9 28  1  0
  9 29  1  0
  9 30  1  0
 12 31  1  0
 14 32  1  0
 14 33  1  0
 14 34  1  0
 21 35  1  0
M  END
>  <meeko>  (2) 
{"is_sidechain": [false], "free_energy": -8.311, "intermolecular_energy": -9.335, "internal_energy": -0.665}

$$$$
3rlr_ligand
     RDKit          3D

 35 37  0  0  0  0  0  0  0  0999 V2000
    9.0880   -1.2720   53.4180 C   0  0  0  0  0  0  0  0  0  0  0  0
   10.0230   -2.3410   53.4700 O   0  0  0  0  0  0  0  0  0  0  0  0
   11.3510   -2.0250   53.5860 C   0  0  0  0  0  0  0  0  0  0  0  0
   12.1550   -1.5770   52.5300 C   0  0  0  0  0  0  0  0  0  0  0  0
   13.5180   -1.2660   52.7210 C   0  0  0  0  0  0  0  0  0  0  0  0
   14.3000   -0.8040   51.5790 C   0  0  0  0  0  0  0  0  0  0  0  0
   14.1010    0.4740   51.1680 N   0  0  0  0  0  0  0  0  0  0  0  0
   14.8030    0.9390   50.1120 C   0  0  0  0  0  0  0  0  0  0  0  0
   14.5030    2.3380   49.6650 C   0  0  0  0  0  0  0  0  0  0  0  0
   15.7200    0.2550   49.4020 N   0  0  0  0  0  0  0  0  0  0  0  0
   15.9050   -0.9880   49.8640 C   0  0  0  0  0  0  0  0  0  0  0  0
   16.7920   -1.8810   49.3300 N   0  0  0  0  0  0  0  0  0  0  0  0
   16.7640   -3.0550   50.0440 C   0  0  0  0  0  0  0  0  0  0  0  0
   17.6390   -4.2050   49.6970 C   0  0  0  0  0  0  0  0  0  0  0  0
   15.8210   -2.8970   51.0500 C   0  0  0  0  0  0  0  0  0  0  0  0
   15.4970   -3.8870   52.0310 C   0  0  0  0  0  0  0  0  0  0  0  0
   15.2400   -4.6830   52.8350 N   0  0  0  0  0  0  0  0  0  0  0  0
   15.2610   -1.5920   50.9310 C   0  0  0  0  0  0  0  0  0  0  0  0
   14.0680   -1.4400   54.0030 C   0  0  0  0  0  0  0  0  0  0  0  0
   15.7410   -1.1380   54.3300 Cl  0  0  0  0  0  0  0  0  0  0  0  0
   13.2760   -1.8820   55.0650 C   0  0  0  0  0  0  0  0  0  0  0  0
   11.9270   -2.1680   54.8570 C   0  0  0  0  0  0  0  0  0  0  0  0
   11.0000   -2.7170   56.2100 Cl  0  0  0  0  0  0  0  0  0  0  0  0
    8.8218   -0.9676   54.4410 H   0  0  0  0  0  0  0  0  0  0  0  0
    9.5353   -0.4192   52.8864 H   0  0  0  0  0  0  0  0  0  0  0  0
    8.1832   -1.6018   52.8864 H   0  0  0  0  0  0  0  0  0  0  0  0
   11.7136   -1.4651   51.5287 H   0  0  0  0  0  0  0  0  0  0  0  0
   14.3648    2.9826   50.5456 H   0  0  0  0  0  0  0  0  0  0  0  0
   15.3402    2.7173   49.0607 H   0  0  0  0  0  0  0  0  0  0  0  0
   13.5839    2.3407   49.0607 H   0  0  0  0  0  0  0  0  0  0  0  0
   17.3780   -1.6750   48.5320 H   0  0  0  0  0  0  0  0  0  0  0  0
   18.0015   -4.6814   50.6198 H   0  0  0  0  0  0  0  0  0  0  0  0
   17.0668   -4.9362   49.1072 H   0  0  0  0  0  0  0  0  0  0  0  0
   18.4963   -3.8485   49.1072 H   0  0  0  0  0  0  0  0  0  0  0  0
   13.7163   -2.0046   56.0656 H   0  0  0  0  0  0  0  0  0  0  0  0
  1  2  1  0
  2  3  1  0
  3  4  2  0
  4  5  1  0
  5  6  1  0
  6  7  2  0
  7  8  1  0
  8  9  1  0
  8 10  2  0
 10 11  1  0
 11 12  1  0
 12 13  1  0
 13 14  1  0
 13 15  2  0
 15 16  1  0
 16 17  3  0
 15 18  1  0
  5 19  2  0
 19 20  1  0
 19 21  1  0
 21 22  2  0
 22 23  1  0
 22  3  1  0
 18  6  1  0
 18 11  2  0
  1 24  1  0
  1 25  1  0
  1 26  1  0
  4 27  1  0
  9 28  1  0
  9 29  1  0
  9 30  1  0
 12 31  1  0
 14 32  1  0
 14 33  1  0
 14 34  1  0
 21 35  1  0
M  END
>  <meeko>  (3) 
{"is_sidechain": [false], "free_energy": -7.805, "intermolecular_energy": -8.725, "internal_energy": -0.71}

$$$$
3rlr_ligand
     RDKit          3D

 35 37  0  0  0  0  0  0  0  0999 V2000
   16.7420    0.1540   49.7360 C   0  0  0  0  0  0  0  0  0  0  0  0
   16.6230   -1.2430   49.5000 O   0  0  0  0  0  0  0  0  0  0  0  0
   16.0600   -2.0140   50.4830 C   0  0  0  0  0  0  0  0  0  0  0  0
   15.0640   -1.5740   51.3630 C   0  0  0  0  0  0  0  0  0  0  0  0
   14.5250   -2.4240   52.3520 C   0  0  0  0  0  0  0  0  0  0  0  0
   13.4890   -1.9030   53.2380 C   0  0  0  0  0  0  0  0  0  0  0  0
   12.2130   -1.9150   52.7750 N   0  0  0  0  0  0  0  0  0  0  0  0
   11.2260   -1.4390   53.5630 C   0  0  0  0  0  0  0  0  0  0  0  0
    9.8450   -1.4220   52.9800 C   0  0  0  0  0  0  0  0  0  0  0  0
   11.3690   -0.9450   54.8070 N   0  0  0  0  0  0  0  0  0  0  0  0
   12.6380   -0.9840   55.2330 C   0  0  0  0  0  0  0  0  0  0  0  0
   13.0460   -0.5570   56.4660 N   0  0  0  0  0  0  0  0  0  0  0  0
   14.3990   -0.7540   56.6070 C   0  0  0  0  0  0  0  0  0  0  0  0
   15.1190   -0.3950   57.8570 C   0  0  0  0  0  0  0  0  0  0  0  0
   14.8550   -1.3100   55.4190 C   0  0  0  0  0  0  0  0  0  0  0  0
   16.2100   -1.6860   55.1590 C   0  0  0  0  0  0  0  0  0  0  0  0
   17.3070   -2.0030   54.9480 N   0  0  0  0  0  0  0  0  0  0  0  0
   13.7430   -1.4440   54.5380 C   0  0  0  0  0  0  0  0  0  0  0  0
   15.0310   -3.7310   52.4540 C   0  0  0  0  0  0  0  0  0  0  0  0
   14.4750   -4.8350   53.6670 Cl  0  0  0  0  0  0  0  0  0  0  0  0
   16.0210   -4.1840   51.5800 C   0  0  0  0  0  0  0  0  0  0  0  0
   16.5270   -3.3310   50.6000 C   0  0  0  0  0  0  0  0  0  0  0  0
   17.7570   -3.9470   49.5500 Cl  0  0  0  0  0  0  0  0  0  0  0  0
   16.7581    0.3427   50.8196 H   0  0  0  0  0  0  0  0  0  0  0  0
   17.6749    0.5238   49.2855 H   0  0  0  0  0  0  0  0  0  0  0  0
   15.8851    0.6763   49.2855 H   0  0  0  0  0  0  0  0  0  0  0  0
   14.6930   -0.5417   51.2816 H   0  0  0  0  0  0  0  0  0  0  0  0
    9.1039   -1.4129   53.7929 H   0  0  0  0  0  0  0  0  0  0  0  0
    9.7199   -0.5222   52.3597 H   0  0  0  0  0  0  0  0  0  0  0  0
    9.6978   -2.3184   52.3597 H   0  0  0  0  0  0  0  0  0  0  0  0
   12.4190   -0.1680   57.1580 H   0  0  0  0  0  0  0  0  0  0  0  0
   14.5162   -0.6956   58.7266 H   0  0  0  0  0  0  0  0  0  0  0  0
   16.0876   -0.9157   57.8847 H   0  0  0  0  0  0  0  0  0  0  0  0
   15.2860    0.6919   57.8847 H   0  0  0  0  0  0  0  0  0  0  0  0
   16.4014   -5.2127   51.6644 H   0  0  0  0  0  0  0  0  0  0  0  0
  1  2  1  0
  2  3  1  0
  3  4  2  0
  4  5  1  0
  5  6  1  0
  6  7  2  0
  7  8  1  0
  8  9  1  0
  8 10  2  0
 10 11  1  0
 11 12  1  0
 12 13  1  0
 13 14  1  0
 13 15  2  0
 15 16  1  0
 16 17  3  0
 15 18  1  0
  5 19  2  0
 19 20  1  0
 19 21  1  0
 21 22  2  0
 22 23  1  0
 22  3  1  0
 18  6  1  0
 18 11  2  0
  1 24  1  0
  1 25  1  0
  1 26  1  0
  4 27  1  0
  9 28  1  0
  9 29  1  0
  9 30  1  0
 12 31  1  0
 14 32  1  0
 14 33  1  0
 14 34  1  0
 21 35  1  0
M  END
>  <meeko>  (4) 
{"is_sidechain": [false], "free_energy": -7.609, "intermolecular_energy": -8.411, "internal_energy": -0.805}

$$$$
3rlr_ligand
     RDKit          3D

 35 37  0  0  0  0  0  0  0  0999 V2000
   15.7590   -6.3920   52.9780 C   0  0  0  0  0  0  0  0  0  0  0  0
   16.3790   -5.5500   52.0150 O   0  0  0  0  0  0  0  0  0  0  0  0
   15.8580   -4.2970   51.8310 C   0  0  0  0  0  0  0  0  0  0  0  0
   14.8550   -3.7290   52.6260 C   0  0  0  0  0  0  0  0  0  0  0  0
   14.3660   -2.4280   52.3810 C   0  0  0  0  0  0  0  0  0  0  0  0
   13.3180   -1.8960   53.2460 C   0  0  0  0  0  0  0  0  0  0  0  0
   12.0470   -1.9250   52.7700 N   0  0  0  0  0  0  0  0  0  0  0  0
   11.0490   -1.4400   53.5380 C   0  0  0  0  0  0  0  0  0  0  0  0
    9.6740   -1.4440   52.9410 C   0  0  0  0  0  0  0  0  0  0  0  0
   11.1750   -0.9210   54.7730 N   0  0  0  0  0  0  0  0  0  0  0  0
   12.4400   -0.9430   55.2130 C   0  0  0  0  0  0  0  0  0  0  0  0
   12.8330   -0.4900   56.4420 N   0  0  0  0  0  0  0  0  0  0  0  0
   14.1860   -0.6750   56.6010 C   0  0  0  0  0  0  0  0  0  0  0  0
   14.8900   -0.2870   57.8500 C   0  0  0  0  0  0  0  0  0  0  0  0
   14.6570   -1.2510   55.4290 C   0  0  0  0  0  0  0  0  0  0  0  0
   16.0180   -1.6240   55.1900 C   0  0  0  0  0  0  0  0  0  0  0  0
   17.1180   -1.9380   54.9970 N   0  0  0  0  0  0  0  0  0  0  0  0
   13.5560   -1.4100   54.5390 C   0  0  0  0  0  0  0  0  0  0  0  0
   14.8960   -1.7120   51.2940 C   0  0  0  0  0  0  0  0  0  0  0  0
   14.3270   -0.1300   50.8760 Cl  0  0  0  0  0  0  0  0  0  0  0  0
   15.9010   -2.2630   50.4960 C   0  0  0  0  0  0  0  0  0  0  0  0
   16.3790   -3.5450   50.7670 C   0  0  0  0  0  0  0  0  0  0  0  0
   17.6200   -4.1770   49.7400 Cl  0  0  0  0  0  0  0  0  0  0  0  0
   16.0157   -6.0434   53.9893 H   0  0  0  0  0  0  0  0  0  0  0  0
   14.6676   -6.3595   52.8450 H   0  0  0  0  0  0  0  0  0  0  0  0
   16.1140   -7.4246   52.8450 H   0  0  0  0  0  0  0  0  0  0  0  0
   14.4383   -4.3107   53.4614 H   0  0  0  0  0  0  0  0  0  0  0  0
    8.9246   -1.4462   53.7463 H   0  0  0  0  0  0  0  0  0  0  0  0
    9.5416   -0.5462   52.3193 H   0  0  0  0  0  0  0  0  0  0  0  0
    9.5468   -2.3425   52.3193 H   0  0  0  0  0  0  0  0  0  0  0  0
   12.1960   -0.0910   57.1190 H   0  0  0  0  0  0  0  0  0  0  0  0
   14.3000   -0.6122   58.7196 H   0  0  0  0  0  0  0  0  0  0  0  0
   15.8792   -0.7673   57.8777 H   0  0  0  0  0  0  0  0  0  0  0  0
   15.0122    0.8058   57.8777 H   0  0  0  0  0  0  0  0  0  0  0  0
   16.3149   -1.6870   49.6552 H   0  0  0  0  0  0  0  0  0  0  0  0
  1  2  1  0
  2  3  1  0
  3  4  2  0
  4  5  1  0
  5  6  1  0
  6  7  2  0
  7  8  1  0
  8  9  1  0
  8 10  2  0
 10 11  1  0
 11 12  1  0
 12 13  1  0
 13 14  1  0
 13 15  2  0
 15 16  1  0
 16 17  3  0
 15 18  1  0
  5 19  2  0
 19 20  1  0
 19 21  1  0
 21 22  2  0
 22 23  1  0
 22  3  1  0
 18  6  1  0
 18 11  2  0
  1 24  1  0
  1 25  1  0
  1 26  1  0
  4 27  1  0
  9 28  1  0
  9 29  1  0
  9 30  1  0
 12 31  1  0
 14 32  1  0
 14 33  1  0
 14 34  1  0
 21 35  1  0
M  END
>  <meeko>  (5) 
{"is_sidechain": [false], "free_energy": -7.261, "intermolecular_energy": -8.159, "internal_energy": -0.669}

$$$$
3rlr_ligand
     RDKit          3D

 35 37  0  0  0  0  0  0  0  0999 V2000
   15.9830   -1.0260   56.9500 C   0  0  0  0  0  0  0  0  0  0  0  0
   15.0000   -2.0340   56.7570 O   0  0  0  0  0  0  0  0  0  0  0  0
   14.1950   -1.9400   55.6520 C   0  0  0  0  0  0  0  0  0  0  0  0
   14.6250   -1.5110   54.3900 C   0  0  0  0  0  0  0  0  0  0  0  0
   13.7410   -1.4420   53.2930 C   0  0  0  0  0  0  0  0  0  0  0  0
   14.2540   -0.9850   52.0050 C   0  0  0  0  0  0  0  0  0  0  0  0
   13.8450    0.2350   51.5730 N   0  0  0  0  0  0  0  0  0  0  0  0
   14.2940    0.6930   50.3850 C   0  0  0  0  0  0  0  0  0  0  0  0
   13.7660    2.0200   49.9290 C   0  0  0  0  0  0  0  0  0  0  0  0
   15.1410    0.0560   49.5550 N   0  0  0  0  0  0  0  0  0  0  0  0
   15.5420   -1.1270   50.0380 C   0  0  0  0  0  0  0  0  0  0  0  0
   16.4140   -1.9620   49.3960 N   0  0  0  0  0  0  0  0  0  0  0  0
   16.6430   -3.0800   50.1620 C   0  0  0  0  0  0  0  0  0  0  0  0
   17.5650   -4.1590   49.7200 C   0  0  0  0  0  0  0  0  0  0  0  0
   15.8800   -2.9470   51.3140 C   0  0  0  0  0  0  0  0  0  0  0  0
   15.8460   -3.8940   52.3860 C   0  0  0  0  0  0  0  0  0  0  0  0
   15.8250   -4.6530   53.2640 N   0  0  0  0  0  0  0  0  0  0  0  0
   15.1670   -1.7160   51.2340 C   0  0  0  0  0  0  0  0  0  0  0  0
   12.3950   -1.7920   53.4990 C   0  0  0  0  0  0  0  0  0  0  0  0
   11.2200   -1.6890   52.2310 Cl  0  0  0  0  0  0  0  0  0  0  0  0
   11.9540   -2.2260   54.7500 C   0  0  0  0  0  0  0  0  0  0  0  0
   12.8500   -2.3020   55.8160 C   0  0  0  0  0  0  0  0  0  0  0  0
   12.2420   -2.8400   57.3440 Cl  0  0  0  0  0  0  0  0  0  0  0  0
   16.1383   -0.8668   58.0273 H   0  0  0  0  0  0  0  0  0  0  0  0
   16.9288   -1.3426   56.4861 H   0  0  0  0  0  0  0  0  0  0  0  0
   15.6428   -0.0884   56.4861 H   0  0  0  0  0  0  0  0  0  0  0  0
   15.6770   -1.2210   54.2510 H   0  0  0  0  0  0  0  0  0  0  0  0
   13.5202    2.6376   50.8054 H   0  0  0  0  0  0  0  0  0  0  0  0
   14.5297    2.5300   49.3235 H   0  0  0  0  0  0  0  0  0  0  0  0
   12.8607    1.8660   49.3235 H   0  0  0  0  0  0  0  0  0  0  0  0
   16.8240   -1.7540   48.4950 H   0  0  0  0  0  0  0  0  0  0  0  0
   17.9927   -4.6596   50.6012 H   0  0  0  0  0  0  0  0  0  0  0  0
   17.0094   -4.8914   49.1159 H   0  0  0  0  0  0  0  0  0  0  0  0
   18.3751   -3.7245   49.1159 H   0  0  0  0  0  0  0  0  0  0  0  0
   10.9007   -2.5079   54.8951 H   0  0  0  0  0  0  0  0  0  0  0  0
  1  2  1  0
  2  3  1  0
  3  4  2  0
  4  5  1  0
  5  6  1  0
  6  7  2  0
  7  8  1  0
  8  9  1  0
  8 10  2  0
 10 11  1  0
 11 12  1  0
 12 13  1  0
 13 14  1  0
 13 15  2  0
 15 16  1  0
 16 17  3  0
 15 18  1  0
  5 19  2  0
 19 20  1  0
 19 21  1  0
 21 22  2  0
 22 23  1  0
 22  3  1  0
 18  6  1  0
 18 11  2  0
  1 24  1  0
  1 25  1  0
  1 26  1  0
  4 27  1  0
  9 28  1  0
  9 29  1  0
  9 30  1  0
 12 31  1  0
 14 32  1  0
 14 33  1  0
 14 34  1  0
 21 35  1  0
M  END
>  <meeko>  (6) 
{"is_sidechain": [false], "free_energy": -7.239, "intermolecular_energy": -8.371, "internal_energy": -0.432}

$$$$
3rlr_ligand
     RDKit          3D

 35 37  0  0  0  0  0  0  0  0999 V2000
   12.2710   -0.5760   48.8230 C   0  0  0  0  0  0  0  0  0  0  0  0
   13.6820   -0.4780   48.6820 O   0  0  0  0  0  0  0  0  0  0  0  0
   14.4620   -0.9070   49.7230 C   0  0  0  0  0  0  0  0  0  0  0  0
   14.1100   -1.9340   50.6080 C   0  0  0  0  0  0  0  0  0  0  0  0
   14.9640   -2.3290   51.6590 C   0  0  0  0  0  0  0  0  0  0  0  0
   14.5370   -3.4060   52.5460 C   0  0  0  0  0  0  0  0  0  0  0  0
   13.4550   -3.1690   53.3310 N   0  0  0  0  0  0  0  0  0  0  0  0
   13.0290   -4.1390   54.1680 C   0  0  0  0  0  0  0  0  0  0  0  0
   11.8670   -3.8040   55.0540 C   0  0  0  0  0  0  0  0  0  0  0  0
   13.5700   -5.3630   54.3090 N   0  0  0  0  0  0  0  0  0  0  0  0
   14.6130   -5.5620   53.4920 C   0  0  0  0  0  0  0  0  0  0  0  0
   15.3260   -6.7260   53.4280 N   0  0  0  0  0  0  0  0  0  0  0  0
   16.3120   -6.6210   52.4760 C   0  0  0  0  0  0  0  0  0  0  0  0
   17.2380   -7.7450   52.1770 C   0  0  0  0  0  0  0  0  0  0  0  0
   16.2210   -5.3460   51.9350 C   0  0  0  0  0  0  0  0  0  0  0  0
   17.0590   -4.8370   50.8930 C   0  0  0  0  0  0  0  0  0  0  0  0
   17.7290   -4.4240   50.0400 N   0  0  0  0  0  0  0  0  0  0  0  0
   15.1530   -4.6640   52.5870 C   0  0  0  0  0  0  0  0  0  0  0  0
   16.1820   -1.6440   51.8200 C   0  0  0  0  0  0  0  0  0  0  0  0
   17.2760   -2.0150   53.1100 Cl  0  0  0  0  0  0  0  0  0  0  0  0
   16.5480   -0.6220   50.9420 C   0  0  0  0  0  0  0  0  0  0  0  0
   15.6940   -0.2600   49.9000 C   0  0  0  0  0  0  0  0  0  0  0  0
   16.1990    1.0190   48.8500 Cl  0  0  0  0  0  0  0  0  0  0  0  0
   12.0097   -0.5942   49.8914 H   0  0  0  0  0  0  0  0  0  0  0  0
   11.7935    0.2911   48.3434 H   0  0  0  0  0  0  0  0  0  0  0  0
   11.9179   -1.5008   48.3434 H   0  0  0  0  0  0  0  0  0  0  0  0
   13.1442   -2.4449   50.4804 H   0  0  0  0  0  0  0  0  0  0  0  0
   12.1717   -3.8919   56.1073 H   0  0  0  0  0  0  0  0  0  0  0  0
   11.5371   -2.7742   54.8524 H   0  0  0  0  0  0  0  0  0  0  0  0
   11.0395   -4.5002   54.8524 H   0  0  0  0  0  0  0  0  0  0  0  0
   15.1270   -7.5340   54.0020 H   0  0  0  0  0  0  0  0  0  0  0  0
   17.5990   -8.1832   53.1192 H   0  0  0  0  0  0  0  0  0  0  0  0
   16.7069   -8.5128   51.5953 H   0  0  0  0  0  0  0  0  0  0  0  0
   18.0933   -7.3706   51.5953 H   0  0  0  0  0  0  0  0  0  0  0  0
   17.5090   -0.1027   51.0718 H   0  0  0  0  0  0  0  0  0  0  0  0
  1  2  1  0
  2  3  1  0
  3  4  2  0
  4  5  1  0
  5  6  1  0
  6  7  2  0
  7  8  1  0
  8  9  1  0
  8 10  2  0
 10 11  1  0
 11 12  1  0
 12 13  1  0
 13 14  1  0
 13 15  2  0
 15 16  1  0
 16 17  3  0
 15 18  1  0
  5 19  2  0
 19 20  1  0
 19 21  1  0
 21 22  2  0
 22 23  1  0
 22  3  1  0
 18  6  1  0
 18 11  2  0
  1 24  1  0
  1 25  1  0
  1 26  1  0
  4 27  1  0
  9 28  1  0
  9 29  1  0
  9 30  1  0
 12 31  1  0
 14 32  1  0
 14 33  1  0
 14 34  1  0
 21 35  1  0
M  END
>  <meeko>  (7) 
{"is_sidechain": [false], "free_energy": -7.238, "intermolecular_energy": -8.147, "internal_energy": -0.654}

$$$$
3rlr_ligand
     RDKit          3D

 35 37  0  0  0  0  0  0  0  0999 V2000
   16.4520    0.2110   49.6330 C   0  0  0  0  0  0  0  0  0  0  0  0
   17.2530   -0.8400   50.1580 O   0  0  0  0  0  0  0  0  0  0  0  0
   16.6800   -1.6890   51.0680 C   0  0  0  0  0  0  0  0  0  0  0  0
   15.9870   -1.2760   52.2130 C   0  0  0  0  0  0  0  0  0  0  0  0
   15.4170   -2.2070   53.1070 C   0  0  0  0  0  0  0  0  0  0  0  0
   14.7090   -1.7100   54.2830 C   0  0  0  0  0  0  0  0  0  0  0  0
   15.4520   -1.4510   55.3890 N   0  0  0  0  0  0  0  0  0  0  0  0
   14.8350   -0.9920   56.4990 C   0  0  0  0  0  0  0  0  0  0  0  0
   15.6930   -0.7780   57.7090 C   0  0  0  0  0  0  0  0  0  0  0  0
   13.5190   -0.7440   56.6330 N   0  0  0  0  0  0  0  0  0  0  0  0
   12.8330   -0.9830   55.5080 C   0  0  0  0  0  0  0  0  0  0  0  0
   11.4850   -0.7950   55.3770 N   0  0  0  0  0  0  0  0  0  0  0  0
   11.0910   -1.1040   54.0960 C   0  0  0  0  0  0  0  0  0  0  0  0
    9.6760   -0.9790   53.6590 C   0  0  0  0  0  0  0  0  0  0  0  0
   12.2260   -1.5100   53.4080 C   0  0  0  0  0  0  0  0  0  0  0  0
   12.2520   -1.9030   52.0320 C   0  0  0  0  0  0  0  0  0  0  0  0
   12.2800   -2.2110   50.9130 N   0  0  0  0  0  0  0  0  0  0  0  0
   13.3320   -1.4500   54.3030 C   0  0  0  0  0  0  0  0  0  0  0  0
   15.5810   -3.5760   52.8370 C   0  0  0  0  0  0  0  0  0  0  0  0
   14.9670   -4.7990   53.8990 Cl  0  0  0  0  0  0  0  0  0  0  0  0
   16.2650   -4.0020   51.6960 C   0  0  0  0  0  0  0  0  0  0  0  0
   16.8060   -3.0630   50.8180 C   0  0  0  0  0  0  0  0  0  0  0  0
   17.6470   -3.6520   49.4250 Cl  0  0  0  0  0  0  0  0  0  0  0  0
   16.0133    0.7866   50.4614 H   0  0  0  0  0  0  0  0  0  0  0  0
   17.0758    0.8742   49.0157 H   0  0  0  0  0  0  0  0  0  0  0  0
   15.6472   -0.2147   49.0157 H   0  0  0  0  0  0  0  0  0  0  0  0
   15.8847   -0.2005   52.4201 H   0  0  0  0  0  0  0  0  0  0  0  0
   15.0905   -0.9283   58.6170 H   0  0  0  0  0  0  0  0  0  0  0  0
   16.5265   -1.4958   57.6991 H   0  0  0  0  0  0  0  0  0  0  0  0
   16.0918    0.2471   57.6991 H   0  0  0  0  0  0  0  0  0  0  0  0
   10.8920   -0.4660   56.1260 H   0  0  0  0  0  0  0  0  0  0  0  0
    9.0231   -0.9213   54.5424 H   0  0  0  0  0  0  0  0  0  0  0  0
    9.5578   -0.0669   53.0556 H   0  0  0  0  0  0  0  0  0  0  0  0
    9.3997   -1.8562   53.0556 H   0  0  0  0  0  0  0  0  0  0  0  0
   16.3768   -5.0768   51.4902 H   0  0  0  0  0  0  0  0  0  0  0  0
  1  2  1  0
  2  3  1  0
  3  4  2  0
  4  5  1  0
  5  6  1  0
  6  7  2  0
  7  8  1  0
  8  9  1  0
  8 10  2  0
 10 11  1  0
 11 12  1  0
 12 13  1  0
 13 14  1  0
 13 15  2  0
 15 16  1  0
 16 17  3  0
 15 18  1  0
  5 19  2  0
 19 20  1  0
 19 21  1  0
 21 22  2  0
 22 23  1  0
 22  3  1  0
 18  6  1  0
 18 11  2  0
  1 24  1  0
  1 25  1  0
  1 26  1  0
  4 27  1  0
  9 28  1  0
  9 29  1  0
  9 30  1  0
 12 31  1  0
 14 32  1  0
 14 33  1  0
 14 34  1  0
 21 35  1  0
M  END
>  <meeko>  (8) 
{"is_sidechain": [false], "free_energy": -7.036, "intermolecular_energy": -7.771, "internal_energy": -0.806}

$$$$
3rlr_ligand
     RDKit          3D

 35 37  0  0  0  0  0  0  0  0999 V2000
   12.3060   -0.6160   48.9790 C   0  0  0  0  0  0  0  0  0  0  0  0
   13.7110   -0.5650   48.7660 O   0  0  0  0  0  0  0  0  0  0  0  0
   14.5270   -1.0210   49.7670 C   0  0  0  0  0  0  0  0  0  0  0  0
   14.2450   -2.1250   50.5810 C   0  0  0  0  0  0  0  0  0  0  0  0
   15.1350   -2.5430   51.5930 C   0  0  0  0  0  0  0  0  0  0  0  0
   14.7800   -3.7010   52.4070 C   0  0  0  0  0  0  0  0  0  0  0  0
   15.5200   -4.8260   52.2390 N   0  0  0  0  0  0  0  0  0  0  0  0
   15.2230   -5.9210   52.9710 C   0  0  0  0  0  0  0  0  0  0  0  0
   16.0330   -7.1530   52.7030 C   0  0  0  0  0  0  0  0  0  0  0  0
   14.2440   -6.0220   53.8900 N   0  0  0  0  0  0  0  0  0  0  0  0
   13.5640   -4.8790   54.0450 C   0  0  0  0  0  0  0  0  0  0  0  0
   12.5330   -4.7140   54.9280 N   0  0  0  0  0  0  0  0  0  0  0  0
   12.0640   -3.4230   54.8650 C   0  0  0  0  0  0  0  0  0  0  0  0
   10.9500   -2.9500   55.7270 C   0  0  0  0  0  0  0  0  0  0  0  0
   12.8170   -2.7630   53.9030 C   0  0  0  0  0  0  0  0  0  0  0  0
   12.6580   -1.3880   53.5420 C   0  0  0  0  0  0  0  0  0  0  0  0
   12.5410   -0.2690   53.2540 N   0  0  0  0  0  0  0  0  0  0  0  0
   13.7610   -3.6870   53.3680 C   0  0  0  0  0  0  0  0  0  0  0  0
   16.3150   -1.8040   51.7890 C   0  0  0  0  0  0  0  0  0  0  0  0
   17.4470   -2.2020   53.0380 Cl  0  0  0  0  0  0  0  0  0  0  0  0
   16.6120   -0.7050   50.9810 C   0  0  0  0  0  0  0  0  0  0  0  0
   15.7240   -0.3200   49.9760 C   0  0  0  0  0  0  0  0  0  0  0  0
   16.1430    1.0550   49.0120 Cl  0  0  0  0  0  0  0  0  0  0  0  0
   12.0990   -0.6235   50.0593 H   0  0  0  0  0  0  0  0  0  0  0  0
   11.8335    0.2656   48.5212 H   0  0  0  0  0  0  0  0  0  0  0  0
   11.8987   -1.5295   48.5212 H   0  0  0  0  0  0  0  0  0  0  0  0
   13.3074   -2.6795   50.4279 H   0  0  0  0  0  0  0  0  0  0  0  0
   16.3331   -7.6094   53.6578 H   0  0  0  0  0  0  0  0  0  0  0  0
   15.4298   -7.8704   52.1272 H   0  0  0  0  0  0  0  0  0  0  0  0
   16.9307   -6.8835   52.1272 H   0  0  0  0  0  0  0  0  0  0  0  0
   12.1950   -5.4490   55.5340 H   0  0  0  0  0  0  0  0  0  0  0  0
   11.2289   -3.0684   56.7844 H   0  0  0  0  0  0  0  0  0  0  0  0
   10.7492   -1.8890   55.5174 H   0  0  0  0  0  0  0  0  0  0  0  0
   10.0472   -3.5424   55.5174 H   0  0  0  0  0  0  0  0  0  0  0  0
   17.5449   -0.1433   51.1364 H   0  0  0  0  0  0  0  0  0  0  0  0
  1  2  1  0
  2  3  1  0
  3  4  2  0
  4  5  1  0
  5  6  1  0
  6  7  2  0
  7  8  1  0
  8  9  1  0
  8 10  2  0
 10 11  1  0
 11 12  1  0
 12 13  1  0
 13 14  1  0
 13 15  2  0
 15 16  1  0
 16 17  3  0
 15 18  1  0
  5 19  2  0
 19 20  1  0
 19 21  1  0
 21 22  2  0
 22 23  1  0
 22  3  1  0
 18  6  1  0
 18 11  2  0
  1 24  1  0
  1 25  1  0
  1 26  1  0
  4 27  1  0
  9 28  1  0
  9 29  1  0
  9 30  1  0
 12 31  1  0
 14 32  1  0
 14 33  1  0
 14 34  1  0
 21 35  1  0
M  END
>  <meeko>  (9) 
{"is_sidechain": [false], "free_energy": -6.951, "intermolecular_energy": -7.906, "internal_energy": -0.576}

$$$$
