1syi_ligand
     RDKit          3D

 30 31  0  0  0  0  0  0  0  0999 V2000
   20.1550   14.7780   59.9820 N   0  0  0  0  0  0  0  0  0  0  0  0
   21.2580   15.0010   58.9590 C   0  0  1  0  0  0  0  0  0  0  0  0
   20.8440   14.4740   57.5810 C   0  0  0  0  0  0  0  0  0  0  0  0
   20.9260   13.0030   57.4830 N   0  0  0  0  0  0  0  0  0  0  0  0
   19.7870   12.2300   57.5180 C   0  0  0  0  0  0  0  0  0  0  0  0
   19.8250   10.9000   57.4630 C   0  0  0  0  0  0  0  0  0  0  0  0
   21.1050   10.2060   57.3590 C   0  0  0  0  0  0  0  0  0  0  0  0
   21.1880    8.9880   57.2770 O   0  0  0  0  0  0  0  0  0  0  0  0
   22.1970   11.0330   57.3410 N   0  0  0  0  0  0  0  0  0  0  0  0
   22.1760   12.4040   57.3450 C   0  0  0  0  0  0  0  0  0  0  0  0
   23.2090   13.0580   57.1830 O   0  0  0  0  0  0  0  0  0  0  0  0
   18.4850   10.2670   57.5160 C   0  0  0  0  0  0  0  0  0  0  0  0
   17.5640   11.4710   57.2790 C   0  0  0  0  0  0  0  0  0  0  0  0
   18.3810   12.7270   57.6170 C   0  0  0  0  0  0  0  0  0  0  0  0
   21.4710   16.5180   58.7570 C   0  0  0  0  0  0  0  0  0  0  0  0
   22.4010   16.7150   57.9100 O   0  0  0  0  0  0  0  0  0  0  0  0
   20.7340   17.2920   59.4040 O   0  0  0  0  0  0  0  0  0  0  0  0
   19.8710   13.8010   60.0460 H   0  0  0  0  0  0  0  0  0  0  0  0
   19.3520   15.4200   59.8870 H   0  0  0  0  0  0  0  0  0  0  0  0
   20.6580   14.9860   60.8790 H   0  0  0  0  0  0  0  0  0  0  0  0
   22.1556   14.4868   59.3330 H   0  0  0  0  0  0  0  0  0  0  0  0
   19.8066   14.7821   57.3840 H   0  0  0  0  0  0  0  0  0  0  0  0
   21.5418   14.8947   56.8420 H   0  0  0  0  0  0  0  0  0  0  0  0
   23.0940   10.5830   57.2420 H   0  0  0  0  0  0  0  0  0  0  0  0
   18.3673    9.5103   56.7264 H   0  0  0  0  0  0  0  0  0  0  0  0
   18.2825    9.7269   58.4526 H   0  0  0  0  0  0  0  0  0  0  0  0
   17.2417   11.5003   56.2277 H   0  0  0  0  0  0  0  0  0  0  0  0
   16.6612   11.4069   57.9042 H   0  0  0  0  0  0  0  0  0  0  0  0
   18.1914   13.5323   56.8921 H   0  0  0  0  0  0  0  0  0  0  0  0
   18.1357   13.1608   58.5976 H   0  0  0  0  0  0  0  0  0  0  0  0
  1  2  1  0
  2  3  1  0
  3  4  1  0
  4  5  1  0
  5  6  2  0
  6  7  1  0
  7  8  2  0
  7  9  1  0
  9 10  1  0
 10 11  2  0
  6 12  1  0
 12 13  1  0
 13 14  1  0
  2 15  1  0
 15 16  2  0
 15 17  1  0
 10  4  1  0
 14  5  1  0
  1 18  1  0
  1 19  1  0
  1 20  1  0
  2 21  1  1
  3 22  1  0
  3 23  1  0
  9 24  1  0
 12 25  1  0
 12 26  1  0
 13 27  1  0
 13 28  1  0
 14 29  1  0
 14 30  1  0
M  CHG  2   1   1  17  -1
M  END
>  <meeko>  (1) 
{"is_sidechain": [false], "free_energy": -9.164, "intermolecular_energy": -11.039, "internal_energy": -0.248}

$$$$
1syi_ligand
     RDKit          3D

 30 31  0  0  0  0  0  0  0  0999 V2000
   20.1680   14.6840   59.9800 N   0  0  0  0  0  0  0  0  0  0  0  0
   21.1310   14.7680   58.8060 C   0  0  1  0  0  0  0  0  0  0  0  0
   20.4590   14.3050   57.5090 C   0  0  0  0  0  0  0  0  0  0  0  0
   20.0230   12.8960   57.5620 N   0  0  0  0  0  0  0  0  0  0  0  0
   20.8980   11.8760   57.2580 C   0  0  0  0  0  0  0  0  0  0  0  0
   20.5320   10.5960   57.2650 C   0  0  0  0  0  0  0  0  0  0  0  0
   19.1610   10.2260   57.6070 C   0  0  0  0  0  0  0  0  0  0  0  0
   18.7860    9.0630   57.6550 O   0  0  0  0  0  0  0  0  0  0  0  0
   18.3410   11.2880   57.8860 N   0  0  0  0  0  0  0  0  0  0  0  0
   18.7120   12.6080   57.9340 C   0  0  0  0  0  0  0  0  0  0  0  0
   17.9320   13.4740   58.3350 O   0  0  0  0  0  0  0  0  0  0  0  0
   21.6290    9.6650   56.9070 C   0  0  0  0  0  0  0  0  0  0  0  0
   22.8550   10.5820   56.9950 C   0  0  0  0  0  0  0  0  0  0  0  0
   22.3380   12.0250   56.8870 C   0  0  0  0  0  0  0  0  0  0  0  0
   21.5060   16.2470   58.5550 C   0  0  0  0  0  0  0  0  0  0  0  0
   20.9060   16.9930   59.3940 O   0  0  0  0  0  0  0  0  0  0  0  0
   22.3090   16.4840   57.6270 O   0  0  0  0  0  0  0  0  0  0  0  0
   20.2590   15.4710   60.6200 H   0  0  0  0  0  0  0  0  0  0  0  0
   20.1700   13.7730   60.4660 H   0  0  0  0  0  0  0  0  0  0  0  0
   19.2440   14.8150   59.5000 H   0  0  0  0  0  0  0  0  0  0  0  0
   21.9997   14.1404   59.0540 H   0  0  0  0  0  0  0  0  0  0  0  0
   19.5790   14.9384   57.3236 H   0  0  0  0  0  0  0  0  0  0  0  0
   21.2016   14.3917   56.7021 H   0  0  0  0  0  0  0  0  0  0  0  0
   17.3960   11.0620   58.1530 H   0  0  0  0  0  0  0  0  0  0  0  0
   21.6984    8.8327   57.6229 H   0  0  0  0  0  0  0  0  0  0  0  0
   21.5024    9.1809   55.9274 H   0  0  0  0  0  0  0  0  0  0  0  0
   23.3698   10.4350   57.9559 H   0  0  0  0  0  0  0  0  0  0  0  0
   23.5735   10.3588   56.1926 H   0  0  0  0  0  0  0  0  0  0  0  0
   22.8633   12.6899   57.5884 H   0  0  0  0  0  0  0  0  0  0  0  0
   22.4931   12.4754   55.8955 H   0  0  0  0  0  0  0  0  0  0  0  0
  1  2  1  0
  2  3  1  0
  3  4  1  0
  4  5  1  0
  5  6  2  0
  6  7  1  0
  7  8  2  0
  7  9  1  0
  9 10  1  0
 10 11  2  0
  6 12  1  0
 12 13  1  0
 13 14  1  0
  2 15  1  0
 15 16  2  0
 15 17  1  0
 10  4  1  0
 14  5  1  0
  1 18  1  0
  1 19  1  0
  1 20  1  0
  2 21  1  1
  3 22  1  0
  3 23  1  0
  9 24  1  0
 12 25  1  0
 12 26  1  0
 13 27  1  0
 13 28  1  0
 14 29  1  0
 14 30  1  0
M  CHG  2   1   1  17  -1
M  END
>  <meeko>  (2) 
{"is_sidechain": [false], "free_energy": -6.693, "intermolecular_energy": -8.031, "internal_energy": -0.28}

$$$$
1syi_ligand
     RDKit          3D

 30 31  0  0  0  0  0  0  0  0999 V2000
   22.6670   13.1310   58.7330 N   0  0  0  0  0  0  0  0  0  0  0  0
   22.2150   14.1780   57.7270 C   0  0  1  0  0  0  0  0  0  0  0  0
   21.0800   13.6410   56.8480 C   0  0  0  0  0  0  0  0  0  0  0  0
   20.7080   12.2520   57.1800 N   0  0  0  0  0  0  0  0  0  0  0  0
   19.4440   11.9510   57.6360 C   0  0  0  0  0  0  0  0  0  0  0  0
   19.0830   10.7140   57.9740 C   0  0  0  0  0  0  0  0  0  0  0  0
   20.0380    9.6150   57.8660 C   0  0  0  0  0  0  0  0  0  0  0  0
   19.7450    8.4590   58.1370 O   0  0  0  0  0  0  0  0  0  0  0  0
   21.2790    9.9850   57.4180 N   0  0  0  0  0  0  0  0  0  0  0  0
   21.6540   11.2420   57.0170 C   0  0  0  0  0  0  0  0  0  0  0  0
   22.7540   11.4430   56.4950 O   0  0  0  0  0  0  0  0  0  0  0  0
   17.6790   10.6140   58.4390 C   0  0  0  0  0  0  0  0  0  0  0  0
   17.1140   11.9750   58.0140 C   0  0  0  0  0  0  0  0  0  0  0  0
   18.3150   12.9120   57.8190 C   0  0  0  0  0  0  0  0  0  0  0  0
   21.6010   15.3820   58.4780 C   0  0  0  0  0  0  0  0  0  0  0  0
   20.7640   14.9690   59.3450 O   0  0  0  0  0  0  0  0  0  0  0  0
   22.0000   16.5220   58.1580 O   0  0  0  0  0  0  0  0  0  0  0  0
   23.3370   13.4990   59.4070 H   0  0  0  0  0  0  0  0  0  0  0  0
   22.9740   12.2420   58.3100 H   0  0  0  0  0  0  0  0  0  0  0  0
   21.7830   12.9680   59.2740 H   0  0  0  0  0  0  0  0  0  0  0  0
   23.0952   14.4505   57.1261 H   0  0  0  0  0  0  0  0  0  0  0  0
   20.1971   14.2831   56.9828 H   0  0  0  0  0  0  0  0  0  0  0  0
   21.4351   13.6490   55.8069 H   0  0  0  0  0  0  0  0  0  0  0  0
   21.9520    9.2430   57.3070 H   0  0  0  0  0  0  0  0  0  0  0  0
   17.1499    9.7873   57.9424 H   0  0  0  0  0  0  0  0  0  0  0  0
   17.5782   10.4043   59.5141 H   0  0  0  0  0  0  0  0  0  0  0  0
   16.5544   11.8755   57.0722 H   0  0  0  0  0  0  0  0  0  0  0  0
   16.4236   12.3706   58.7735 H   0  0  0  0  0  0  0  0  0  0  0  0
   18.1845   13.5468   56.9302 H   0  0  0  0  0  0  0  0  0  0  0  0
   18.4654   13.6137   58.6527 H   0  0  0  0  0  0  0  0  0  0  0  0
  1  2  1  0
  2  3  1  0
  3  4  1  0
  4  5  1  0
  5  6  2  0
  6  7  1  0
  7  8  2  0
  7  9  1  0
  9 10  1  0
 10 11  2  0
  6 12  1  0
 12 13  1  0
 13 14  1  0
  2 15  1  0
 15 16  2  0
 15 17  1  0
 10  4  1  0
 14  5  1  0
  1 18  1  0
  1 19  1  0
  1 20  1  0
  2 21  1  6
  3 22  1  0
  3 23  1  0
  9 24  1  0
 12 25  1  0
 12 26  1  0
 13 27  1  0
 13 28  1  0
 14 29  1  0
 14 30  1  0
M  CHG  2   1   1  17  -1
M  END
>  <meeko>  (3) 
{"is_sidechain": [false], "free_energy": -6.602, "intermolecular_energy": -8.626, "internal_energy": 0.426}

$$$$
