3f3c_ligand
     RDKit          3D

 23 23  0  0  0  0  0  0  0  0999 V2000
   25.8440   32.1770   19.1160 N   0  0  0  0  0  0  0  0  0  0  0  0
   27.2030   31.4770   19.1280 C   0  0  1  0  0  0  0  0  0  0  0  0
   27.7220   31.3670   20.5620 C   0  0  0  0  0  0  0  0  0  0  0  0
   28.0360   32.7250   21.1510 C   0  0  0  0  0  0  0  0  0  0  0  0
   27.5290   33.1000   22.4050 C   0  0  0  0  0  0  0  0  0  0  0  0
   27.8130   34.3630   22.9270 C   0  0  0  0  0  0  0  0  0  0  0  0
   28.6000   35.2480   22.2000 C   0  0  0  0  0  0  0  0  0  0  0  0
   28.8680   36.4590   22.7050 F   0  0  0  0  0  0  0  0  0  0  0  0
   29.1100   34.8950   20.9570 C   0  0  0  0  0  0  0  0  0  0  0  0
   28.8290   33.6330   20.4320 C   0  0  0  0  0  0  0  0  0  0  0  0
   27.0330   30.0960   18.4310 C   0  0  0  0  0  0  0  0  0  0  0  0
   28.1360   29.4550   18.5120 O   0  0  0  0  0  0  0  0  0  0  0  0
   25.9310   29.8240   17.9150 O   0  0  0  0  0  0  0  0  0  0  0  0
   26.1120   33.0900   19.5710 H   0  0  0  0  0  0  0  0  0  0  0  0
   25.1250   31.7260   19.6780 H   0  0  0  0  0  0  0  0  0  0  0  0
   25.5400   32.4570   18.1820 H   0  0  0  0  0  0  0  0  0  0  0  0
   27.9594   32.0527   18.5744 H   0  0  0  0  0  0  0  0  0  0  0  0
   26.9556   30.8786   21.1817 H   0  0  0  0  0  0  0  0  0  0  0  0
   28.6509   30.7781   20.5455 H   0  0  0  0  0  0  0  0  0  0  0  0
   26.9064   32.3969   22.9777 H   0  0  0  0  0  0  0  0  0  0  0  0
   27.4155   34.6566   23.9098 H   0  0  0  0  0  0  0  0  0  0  0  0
   29.7307   35.6050   20.3908 H   0  0  0  0  0  0  0  0  0  0  0  0
   29.2314   33.3480   19.4487 H   0  0  0  0  0  0  0  0  0  0  0  0
  1  2  1  0
  2  3  1  0
  3  4  1  0
  4  5  2  0
  5  6  1  0
  6  7  2  0
  7  8  1  0
  7  9  1  0
  9 10  2  0
  2 11  1  0
 11 12  2  0
 11 13  1  0
 10  4  1  0
  1 14  1  0
  1 15  1  0
  1 16  1  0
  2 17  1  6
  3 18  1  0
  3 19  1  0
  5 20  1  0
  6 21  1  0
  9 22  1  0
 10 23  1  0
M  CHG  2   1   1  13  -1
M  END
>  <meeko>  (1) 
{"is_sidechain": [false], "free_energy": -7.681, "intermolecular_energy": -9.253, "internal_energy": -0.174}

$$$$
3f3c_ligand
     RDKit          3D

 23 23  0  0  0  0  0  0  0  0999 V2000
   25.8370   32.2010   19.1070 N   0  0  0  0  0  0  0  0  0  0  0  0
   27.1920   31.4920   19.1220 C   0  0  1  0  0  0  0  0  0  0  0  0
   27.7130   31.3910   20.5560 C   0  0  0  0  0  0  0  0  0  0  0  0
   28.0260   32.7520   21.1370 C   0  0  0  0  0  0  0  0  0  0  0  0
   28.8270   33.6680   20.4350 C   0  0  0  0  0  0  0  0  0  0  0  0
   29.1210   34.9130   20.9920 C   0  0  0  0  0  0  0  0  0  0  0  0
   28.6170   35.2430   22.2450 C   0  0  0  0  0  0  0  0  0  0  0  0
   28.9040   36.4400   22.7750 F   0  0  0  0  0  0  0  0  0  0  0  0
   27.8230   34.3510   22.9540 C   0  0  0  0  0  0  0  0  0  0  0  0
   27.5270   33.1050   22.4010 C   0  0  0  0  0  0  0  0  0  0  0  0
   27.0120   30.1050   18.4380 C   0  0  0  0  0  0  0  0  0  0  0  0
   28.1290   29.4850   18.4640 O   0  0  0  0  0  0  0  0  0  0  0  0
   25.8900   29.8120   17.9800 O   0  0  0  0  0  0  0  0  0  0  0  0
   25.3810   31.6890   18.3060 H   0  0  0  0  0  0  0  0  0  0  0  0
   25.8770   33.1930   18.8870 H   0  0  0  0  0  0  0  0  0  0  0  0
   25.2480   31.9660   19.9070 H   0  0  0  0  0  0  0  0  0  0  0  0
   27.9503   32.0581   18.5612 H   0  0  0  0  0  0  0  0  0  0  0  0
   26.9480   30.9051   21.1794 H   0  0  0  0  0  0  0  0  0  0  0  0
   28.6428   30.8034   20.5414 H   0  0  0  0  0  0  0  0  0  0  0  0
   29.2234   33.4030   19.4437 H   0  0  0  0  0  0  0  0  0  0  0  0
   29.7485   35.6300   20.4424 H   0  0  0  0  0  0  0  0  0  0  0  0
   27.4304   34.6250   23.9443 H   0  0  0  0  0  0  0  0  0  0  0  0
   26.8988   32.3947   22.9586 H   0  0  0  0  0  0  0  0  0  0  0  0
  1  2  1  0
  2  3  1  0
  3  4  1  0
  4  5  2  0
  5  6  1  0
  6  7  2  0
  7  8  1  0
  7  9  1  0
  9 10  2  0
  2 11  1  0
 11 12  2  0
 11 13  1  0
 10  4  1  0
  1 14  1  0
  1 15  1  0
  1 16  1  0
  2 17  1  6
  3 18  1  0
  3 19  1  0
  5 20  1  0
  6 21  1  0
  9 22  1  0
 10 23  1  0
M  CHG  2   1   1  13  -1
M  END
>  <meeko>  (2) 
{"is_sidechain": [false], "free_energy": -7.637, "intermolecular_energy": -9.2, "internal_energy": -0.174}

$$$$
3f3c_ligand
     RDKit          3D

 23 23  0  0  0  0  0  0  0  0999 V2000
   25.9850   32.3740   19.3690 N   0  0  0  0  0  0  0  0  0  0  0  0
   27.1750   31.4470   19.6170 C   0  0  1  0  0  0  0  0  0  0  0  0
   27.1820   30.9830   21.0740 C   0  0  0  0  0  0  0  0  0  0  0  0
   27.7150   32.0530   22.0010 C   0  0  0  0  0  0  0  0  0  0  0  0
   27.2240   33.3680   21.9400 C   0  0  0  0  0  0  0  0  0  0  0  0
   27.7380   34.3480   22.7910 C   0  0  0  0  0  0  0  0  0  0  0  0
   28.7370   34.0170   23.6980 C   0  0  0  0  0  0  0  0  0  0  0  0
   29.2270   34.9630   24.5110 F   0  0  0  0  0  0  0  0  0  0  0  0
   29.2350   32.7230   23.7730 C   0  0  0  0  0  0  0  0  0  0  0  0
   28.7240   31.7400   22.9250 C   0  0  0  0  0  0  0  0  0  0  0  0
   27.0820   30.2710   18.6020 C   0  0  0  0  0  0  0  0  0  0  0  0
   25.8600   30.1150   18.2610 O   0  0  0  0  0  0  0  0  0  0  0  0
   28.1310   29.6740   18.2890 O   0  0  0  0  0  0  0  0  0  0  0  0
   25.3430   31.7050   18.8650 H   0  0  0  0  0  0  0  0  0  0  0  0
   26.1800   33.1670   18.7620 H   0  0  0  0  0  0  0  0  0  0  0  0
   25.4680   32.6060   20.2180 H   0  0  0  0  0  0  0  0  0  0  0  0
   28.1315   31.9665   19.4582 H   0  0  0  0  0  0  0  0  0  0  0  0
   26.1534   30.7327   21.3731 H   0  0  0  0  0  0  0  0  0  0  0  0
   27.8403   30.1050   21.1504 H   0  0  0  0  0  0  0  0  0  0  0  0
   26.4331   33.6258   21.2203 H   0  0  0  0  0  0  0  0  0  0  0  0
   27.3538   35.3776   22.7437 H   0  0  0  0  0  0  0  0  0  0  0  0
   30.0264   32.4748   24.4955 H   0  0  0  0  0  0  0  0  0  0  0  0
   29.1144   30.7131   22.9810 H   0  0  0  0  0  0  0  0  0  0  0  0
  1  2  1  0
  2  3  1  0
  3  4  1  0
  4  5  2  0
  5  6  1  0
  6  7  2  0
  7  8  1  0
  7  9  1  0
  9 10  2  0
  2 11  1  0
 11 12  2  0
 11 13  1  0
 10  4  1  0
  1 14  1  0
  1 15  1  0
  1 16  1  0
  2 17  1  6
  3 18  1  0
  3 19  1  0
  5 20  1  0
  6 21  1  0
  9 22  1  0
 10 23  1  0
M  CHG  2   1   1  13  -1
M  END
>  <meeko>  (3) 
{"is_sidechain": [false], "free_energy": -7.4, "intermolecular_energy": -9.346, "internal_energy": 0.257}

$$$$
3f3c_ligand
     RDKit          3D

 23 23  0  0  0  0  0  0  0  0999 V2000
   25.6710   30.9180   18.4880 N   0  0  0  0  0  0  0  0  0  0  0  0
   26.6310   31.6380   19.4350 C   0  0  1  0  0  0  0  0  0  0  0  0
   26.1580   31.4800   20.8800 C   0  0  0  0  0  0  0  0  0  0  0  0
   27.2090   31.9360   21.8680 C   0  0  0  0  0  0  0  0  0  0  0  0
   28.1620   31.0370   22.3720 C   0  0  0  0  0  0  0  0  0  0  0  0
   29.1140   31.4690   23.2960 C   0  0  0  0  0  0  0  0  0  0  0  0
   29.1150   32.7950   23.7150 C   0  0  0  0  0  0  0  0  0  0  0  0
   30.0310   33.2030   24.6030 F   0  0  0  0  0  0  0  0  0  0  0  0
   28.1800   33.6990   23.2280 C   0  0  0  0  0  0  0  0  0  0  0  0
   27.2260   33.2710   22.3040 C   0  0  0  0  0  0  0  0  0  0  0  0
   28.0580   31.0660   19.1930 C   0  0  0  0  0  0  0  0  0  0  0  0
   28.9140   31.9890   19.4090 O   0  0  0  0  0  0  0  0  0  0  0  0
   28.1660   29.8760   18.8340 O   0  0  0  0  0  0  0  0  0  0  0  0
   26.3640   30.5430   17.7880 H   0  0  0  0  0  0  0  0  0  0  0  0
   25.0100   31.5250   18.0070 H   0  0  0  0  0  0  0  0  0  0  0  0
   25.2590   30.0760   18.8910 H   0  0  0  0  0  0  0  0  0  0  0  0
   26.6546   32.7202   19.2393 H   0  0  0  0  0  0  0  0  0  0  0  0
   25.2484   32.0814   21.0247 H   0  0  0  0  0  0  0  0  0  0  0  0
   25.9593   30.4132   21.0601 H   0  0  0  0  0  0  0  0  0  0  0  0
   28.1582   29.9891   22.0376 H   0  0  0  0  0  0  0  0  0  0  0  0
   29.8602   30.7640   23.6912 H   0  0  0  0  0  0  0  0  0  0  0  0
   28.1914   34.7450   23.5682 H   0  0  0  0  0  0  0  0  0  0  0  0
   26.4832   33.9830   21.9150 H   0  0  0  0  0  0  0  0  0  0  0  0
  1  2  1  0
  2  3  1  0
  3  4  1  0
  4  5  2  0
  5  6  1  0
  6  7  2  0
  7  8  1  0
  7  9  1  0
  9 10  2  0
  2 11  1  0
 11 12  2  0
 11 13  1  0
 10  4  1  0
  1 14  1  0
  1 15  1  0
  1 16  1  0
  2 17  1  6
  3 18  1  0
  3 19  1  0
  5 20  1  0
  6 21  1  0
  9 22  1  0
 10 23  1  0
M  CHG  2   1   1  13  -1
M  END
>  <meeko>  (4) 
{"is_sidechain": [false], "free_energy": -5.088, "intermolecular_energy": -6.772, "internal_energy": 0.469}

$$$$
