4eo8_ligand
     RDKit          3D

 56 57  0  0  0  0  0  0  0  0999 V2000
   15.2360   44.4340   42.8690 C   0  0  0  0  0  0  0  0  0  0  0  0
   14.0510   44.5250   42.0170 N   0  0  0  0  0  0  0  0  0  0  0  0
   14.2840   45.4350   40.8950 C   0  0  0  0  0  0  0  0  0  0  0  0
   13.4990   43.2510   41.6260 N   0  0  0  0  0  0  0  0  0  0  0  0
   14.3790   42.2700   41.0970 C   0  0  0  0  0  0  0  0  0  0  0  0
   15.1930   42.4750   39.9230 C   0  0  0  0  0  0  0  0  0  0  0  0
   16.0420   41.4260   39.6570 C   0  0  0  0  0  0  0  0  0  0  0  0
   16.9730   41.3850   38.5790 C   0  0  0  0  0  0  0  0  0  0  0  0
   17.7570   41.3500   37.6690 C   0  0  0  0  0  0  0  0  0  0  0  0
   18.7240   41.3160   36.5520 C   0  0  0  0  0  0  0  0  0  0  0  0
   19.9800   40.5490   36.9880 C   0  0  0  0  0  0  0  0  0  0  0  0
   19.1060   42.7510   36.1630 C   0  0  0  0  0  0  0  0  0  0  0  0
   18.0850   40.6110   35.3470 C   0  0  0  0  0  0  0  0  0  0  0  0
   15.8570   40.1700   40.7880 S   0  0  0  0  0  0  0  0  0  0  0  0
   14.6040   41.0020   41.6080 C   0  0  0  0  0  0  0  0  0  0  0  0
   13.7820   40.3000   42.7520 C   0  0  0  0  0  0  0  0  0  0  0  0
   13.8070   40.8460   43.8980 O   0  0  0  0  0  0  0  0  0  0  0  0
   13.1650   39.2360   42.4370 O   0  0  0  0  0  0  0  0  0  0  0  0
   12.1440   43.2060   41.2320 C   0  0  0  0  0  0  0  0  0  0  0  0
   11.7640   42.9070   40.0880 O   0  0  0  0  0  0  0  0  0  0  0  0
   11.0390   43.5400   42.2530 C   0  0  2  0  0  0  0  0  0  0  0  0
   10.4350   44.9380   42.0820 C   0  0  0  0  0  0  0  0  0  0  0  0
    9.3000   45.1400   43.0820 C   0  0  0  0  0  0  0  0  0  0  0  0
    9.7570   44.9880   44.5450 C   0  0  1  0  0  0  0  0  0  0  0  0
    8.7020   44.2370   45.3600 C   0  0  0  0  0  0  0  0  0  0  0  0
   11.1420   44.3310   44.6830 C   0  0  0  0  0  0  0  0  0  0  0  0
   11.3660   43.1770   43.7090 C   0  0  0  0  0  0  0  0  0  0  0  0
   14.9307   44.4574   43.9255 H   0  0  0  0  0  0  0  0  0  0  0  0
   15.7656   43.4925   42.6612 H   0  0  0  0  0  0  0  0  0  0  0  0
   15.9031   45.2836   42.6612 H   0  0  0  0  0  0  0  0  0  0  0  0
   14.5396   46.4334   41.2796 H   0  0  0  0  0  0  0  0  0  0  0  0
   15.1138   45.0551   40.2810 H   0  0  0  0  0  0  0  0  0  0  0  0
   13.3737   45.5006   40.2810 H   0  0  0  0  0  0  0  0  0  0  0  0
   15.1397   43.3813   39.3018 H   0  0  0  0  0  0  0  0  0  0  0  0
   20.0286   40.5193   38.0865 H   0  0  0  0  0  0  0  0  0  0  0  0
   19.9377   39.5225   36.5950 H   0  0  0  0  0  0  0  0  0  0  0  0
   20.8738   41.0555   36.5950 H   0  0  0  0  0  0  0  0  0  0  0  0
   19.2648   43.3477   37.0733 H   0  0  0  0  0  0  0  0  0  0  0  0
   20.0314   42.7357   35.5685 H   0  0  0  0  0  0  0  0  0  0  0  0
   18.2955   43.1978   35.5685 H   0  0  0  0  0  0  0  0  0  0  0  0
   17.3858   39.8396   35.7019 H   0  0  0  0  0  0  0  0  0  0  0  0
   17.5402   41.3473   34.7379 H   0  0  0  0  0  0  0  0  0  0  0  0
   18.8712   40.1410   34.7379 H   0  0  0  0  0  0  0  0  0  0  0  0
   10.2280   42.8450   41.9897 H   0  0  0  0  0  0  0  0  0  0  0  0
   11.2135   45.6953   42.2562 H   0  0  0  0  0  0  0  0  0  0  0  0
   10.0396   45.0389   41.0605 H   0  0  0  0  0  0  0  0  0  0  0  0
    8.8880   46.1508   42.9461 H   0  0  0  0  0  0  0  0  0  0  0  0
    8.5468   44.3620   42.8886 H   0  0  0  0  0  0  0  0  0  0  0  0
    9.8642   46.0045   44.9515 H   0  0  0  0  0  0  0  0  0  0  0  0
    8.8992   44.3774   46.4330 H   0  0  0  0  0  0  0  0  0  0  0  0
    7.7033   44.6286   45.1164 H   0  0  0  0  0  0  0  0  0  0  0  0
    8.7450   43.1652   45.1164 H   0  0  0  0  0  0  0  0  0  0  0  0
   11.9106   45.0962   44.4995 H   0  0  0  0  0  0  0  0  0  0  0  0
   11.2038   43.9145   45.6992 H   0  0  0  0  0  0  0  0  0  0  0  0
   12.4217   42.8729   43.7646 H   0  0  0  0  0  0  0  0  0  0  0  0
   10.6852   42.3648   44.0035 H   0  0  0  0  0  0  0  0  0  0  0  0
  1  2  1  0
  2  3  1  0
  2  4  1  0
  4  5  1  0
  5  6  1  0
  6  7  2  0
  7  8  1  0
  8  9  3  0
  9 10  1  0
 10 11  1  0
 10 12  1  0
 10 13  1  0
  7 14  1  0
 14 15  1  0
 15 16  1  0
 16 17  2  0
 16 18  1  0
  4 19  1  0
 19 20  2  0
 19 21  1  0
 21 22  1  0
 22 23  1  0
 23 24  1  0
 24 25  1  0
 24 26  1  0
 26 27  1  0
 15  5  2  0
 27 21  1  0
  1 28  1  0
  1 29  1  0
  1 30  1  0
  3 31  1  0
  3 32  1  0
  3 33  1  0
  6 34  1  0
 11 35  1  0
 11 36  1  0
 11 37  1  0
 12 38  1  0
 12 39  1  0
 12 40  1  0
 13 41  1  0
 13 42  1  0
 13 43  1  0
 21 44  1  1
 22 45  1  0
 22 46  1  0
 23 47  1  0
 23 48  1  0
 24 49  1  6
 25 50  1  0
 25 51  1  0
 25 52  1  0
 26 53  1  0
 26 54  1  0
 27 55  1  0
 27 56  1  0
M  CHG  1  18  -1
M  END
>  <meeko>  (1) 
{"is_sidechain": [false], "free_energy": -7.581, "intermolecular_energy": -10.241, "internal_energy": -0.751}

$$$$
4eo8_ligand
     RDKit          3D

 56 57  0  0  0  0  0  0  0  0999 V2000
   15.2440   44.5770   43.0000 C   0  0  0  0  0  0  0  0  0  0  0  0
   13.9480   44.7570   42.3500 N   0  0  0  0  0  0  0  0  0  0  0  0
   14.1160   45.1170   40.9410 C   0  0  0  0  0  0  0  0  0  0  0  0
   13.0170   43.6760   42.5640 N   0  0  0  0  0  0  0  0  0  0  0  0
   11.7700   43.9740   43.1780 C   0  0  0  0  0  0  0  0  0  0  0  0
   11.5260   43.8490   44.5940 C   0  0  0  0  0  0  0  0  0  0  0  0
   10.2800   44.2890   44.9740 C   0  0  0  0  0  0  0  0  0  0  0  0
    9.7960   44.3060   46.3140 C   0  0  0  0  0  0  0  0  0  0  0  0
    9.3880   44.3200   47.4440 C   0  0  0  0  0  0  0  0  0  0  0  0
    8.8890   44.3450   48.8350 C   0  0  0  0  0  0  0  0  0  0  0  0
    7.3590   44.4790   48.8260 C   0  0  0  0  0  0  0  0  0  0  0  0
    9.5050   45.5400   49.5770 C   0  0  0  0  0  0  0  0  0  0  0  0
    9.2840   43.0420   49.5430 C   0  0  0  0  0  0  0  0  0  0  0  0
    9.3740   44.8290   43.6410 S   0  0  0  0  0  0  0  0  0  0  0  0
   10.6270   44.4280   42.5420 C   0  0  0  0  0  0  0  0  0  0  0  0
   10.3950   44.5090   40.9880 C   0  0  0  0  0  0  0  0  0  0  0  0
   10.6650   45.6120   40.4210 O   0  0  0  0  0  0  0  0  0  0  0  0
    9.9460   43.4630   40.4250 O   0  0  0  0  0  0  0  0  0  0  0  0
   13.5350   42.3730   42.7160 C   0  0  0  0  0  0  0  0  0  0  0  0
   13.6060   41.7770   43.8050 O   0  0  0  0  0  0  0  0  0  0  0  0
   14.0530   41.6060   41.4840 C   0  0  2  0  0  0  0  0  0  0  0  0
   13.0770   41.5950   40.3020 C   0  0  0  0  0  0  0  0  0  0  0  0
   13.7120   40.8860   39.1090 C   0  0  0  0  0  0  0  0  0  0  0  0
   14.1090   39.4300   39.4210 C   0  0  1  0  0  0  0  0  0  0  0  0
   15.4560   39.0940   38.7780 C   0  0  0  0  0  0  0  0  0  0  0  0
   14.1120   39.1110   40.9260 C   0  0  0  0  0  0  0  0  0  0  0  0
   14.6820   40.2380   41.7850 C   0  0  0  0  0  0  0  0  0  0  0  0
   15.1122   44.5953   44.0919 H   0  0  0  0  0  0  0  0  0  0  0  0
   15.6742   43.6105   42.6987 H   0  0  0  0  0  0  0  0  0  0  0  0
   15.9213   45.3897   42.6987 H   0  0  0  0  0  0  0  0  0  0  0  0
   14.5802   46.1117   40.8695 H   0  0  0  0  0  0  0  0  0  0  0  0
   14.7609   44.3751   40.4474 H   0  0  0  0  0  0  0  0  0  0  0  0
   13.1331   45.1347   40.4474 H   0  0  0  0  0  0  0  0  0  0  0  0
   12.2642   43.4417   45.3005 H   0  0  0  0  0  0  0  0  0  0  0  0
    6.9877   44.5115   49.8609 H   0  0  0  0  0  0  0  0  0  0  0  0
    7.0751   45.4054   48.3053 H   0  0  0  0  0  0  0  0  0  0  0  0
    6.9184   43.6160   48.3053 H   0  0  0  0  0  0  0  0  0  0  0  0
    9.4225   45.3799   50.6622 H   0  0  0  0  0  0  0  0  0  0  0  0
   10.5652   45.6365   49.3002 H   0  0  0  0  0  0  0  0  0  0  0  0
    8.9686   46.4596   49.3002 H   0  0  0  0  0  0  0  0  0  0  0  0
    9.2396   43.1886   50.6323 H   0  0  0  0  0  0  0  0  0  0  0  0
    8.5883   42.2412   49.2521 H   0  0  0  0  0  0  0  0  0  0  0  0
   10.3073   42.7623   49.2521 H   0  0  0  0  0  0  0  0  0  0  0  0
   14.9057   42.2121   41.1442 H   0  0  0  0  0  0  0  0  0  0  0  0
   12.1576   41.0660   40.5933 H   0  0  0  0  0  0  0  0  0  0  0  0
   12.8374   42.6312   40.0212 H   0  0  0  0  0  0  0  0  0  0  0  0
   12.9916   40.8833   38.2777 H   0  0  0  0  0  0  0  0  0  0  0  0
   14.6315   41.4317   38.8508 H   0  0  0  0  0  0  0  0  0  0  0  0
   13.3333   38.7870   38.9796 H   0  0  0  0  0  0  0  0  0  0  0  0
   16.2017   38.9080   39.5650 H   0  0  0  0  0  0  0  0  0  0  0  0
   15.3500   38.1948   38.1534 H   0  0  0  0  0  0  0  0  0  0  0  0
   15.7847   39.9377   38.1534 H   0  0  0  0  0  0  0  0  0  0  0  0
   13.0763   38.9203   41.2438 H   0  0  0  0  0  0  0  0  0  0  0  0
   14.7600   38.2339   41.0702 H   0  0  0  0  0  0  0  0  0  0  0  0
   14.5026   39.9960   42.8430 H   0  0  0  0  0  0  0  0  0  0  0  0
   15.7549   40.3139   41.5544 H   0  0  0  0  0  0  0  0  0  0  0  0
  1  2  1  0
  2  3  1  0
  2  4  1  0
  4  5  1  0
  5  6  1  0
  6  7  2  0
  7  8  1  0
  8  9  3  0
  9 10  1  0
 10 11  1  0
 10 12  1  0
 10 13  1  0
  7 14  1  0
 14 15  1  0
 15 16  1  0
 16 17  2  0
 16 18  1  0
  4 19  1  0
 19 20  2  0
 19 21  1  0
 21 22  1  0
 22 23  1  0
 23 24  1  0
 24 25  1  0
 24 26  1  0
 26 27  1  0
 15  5  2  0
 27 21  1  0
  1 28  1  0
  1 29  1  0
  1 30  1  0
  3 31  1  0
  3 32  1  0
  3 33  1  0
  6 34  1  0
 11 35  1  0
 11 36  1  0
 11 37  1  0
 12 38  1  0
 12 39  1  0
 12 40  1  0
 13 41  1  0
 13 42  1  0
 13 43  1  0
 21 44  1  1
 22 45  1  0
 22 46  1  0
 23 47  1  0
 23 48  1  0
 24 49  1  1
 25 50  1  0
 25 51  1  0
 25 52  1  0
 26 53  1  0
 26 54  1  0
 27 55  1  0
 27 56  1  0
M  CHG  1  18  -1
M  END
>  <meeko>  (2) 
{"is_sidechain": [false], "free_energy": -7.283, "intermolecular_energy": -9.863, "internal_energy": -0.725}

$$$$
4eo8_ligand
     RDKit          3D

 56 57  0  0  0  0  0  0  0  0999 V2000
   10.6080   43.5170   40.6440 C   0  0  0  0  0  0  0  0  0  0  0  0
   11.8700   44.2450   40.7700 N   0  0  0  0  0  0  0  0  0  0  0  0
   11.6360   45.6880   40.8350 C   0  0  0  0  0  0  0  0  0  0  0  0
   12.7410   43.7520   41.8090 N   0  0  0  0  0  0  0  0  0  0  0  0
   14.0420   43.3120   41.4430 C   0  0  0  0  0  0  0  0  0  0  0  0
   14.2920   42.3060   40.4390 C   0  0  0  0  0  0  0  0  0  0  0  0
   15.6300   42.1150   40.1800 C   0  0  0  0  0  0  0  0  0  0  0  0
   16.1500   41.2050   39.2140 C   0  0  0  0  0  0  0  0  0  0  0  0
   16.5890   40.4390   38.4000 C   0  0  0  0  0  0  0  0  0  0  0  0
   17.1370   39.5000   37.3980 C   0  0  0  0  0  0  0  0  0  0  0  0
   17.3920   38.1390   38.0610 C   0  0  0  0  0  0  0  0  0  0  0  0
   18.4560   40.0570   36.8430 C   0  0  0  0  0  0  0  0  0  0  0  0
   16.1290   39.3310   36.2530 C   0  0  0  0  0  0  0  0  0  0  0  0
   16.6040   43.1110   41.1530 S   0  0  0  0  0  0  0  0  0  0  0  0
   15.2420   43.7660   41.9620 C   0  0  0  0  0  0  0  0  0  0  0  0
   15.4200   44.7080   43.2100 C   0  0  0  0  0  0  0  0  0  0  0  0
   15.2000   44.2000   44.3520 O   0  0  0  0  0  0  0  0  0  0  0  0
   15.7630   45.9070   42.9730 O   0  0  0  0  0  0  0  0  0  0  0  0
   12.1510   43.1890   42.9600 C   0  0  0  0  0  0  0  0  0  0  0  0
   11.9810   41.9700   43.1270 O   0  0  0  0  0  0  0  0  0  0  0  0
   11.6780   44.1070   44.1040 C   0  0  2  0  0  0  0  0  0  0  0  0
   12.0010   43.5750   45.5040 C   0  0  0  0  0  0  0  0  0  0  0  0
   11.5680   44.5890   46.5600 C   0  0  0  0  0  0  0  0  0  0  0  0
   10.0620   44.9070   46.5000 C   0  0  1  0  0  0  0  0  0  0  0  0
    9.8220   46.4000   46.7300 C   0  0  0  0  0  0  0  0  0  0  0  0
    9.3900   44.4250   45.2020 C   0  0  0  0  0  0  0  0  0  0  0  0
   10.2470   44.6450   43.9570 C   0  0  0  0  0  0  0  0  0  0  0  0
   10.2142   43.2898   41.6456 H   0  0  0  0  0  0  0  0  0  0  0  0
    9.8815   44.1348   40.0958 H   0  0  0  0  0  0  0  0  0  0  0  0
   10.7791   42.5788   40.0958 H   0  0  0  0  0  0  0  0  0  0  0  0
   11.5847   46.0041   41.8874 H   0  0  0  0  0  0  0  0  0  0  0  0
   12.4602   46.2161   40.3333 H   0  0  0  0  0  0  0  0  0  0  0  0
   10.6871   45.9286   40.3333 H   0  0  0  0  0  0  0  0  0  0  0  0
   13.4922   41.7472   39.9310 H   0  0  0  0  0  0  0  0  0  0  0  0
   17.3704   38.2542   39.1547 H   0  0  0  0  0  0  0  0  0  0  0  0
   16.6114   37.4284   37.7517 H   0  0  0  0  0  0  0  0  0  0  0  0
   18.3769   37.7592   37.7517 H   0  0  0  0  0  0  0  0  0  0  0  0
   19.1162   40.3358   37.6775 H   0  0  0  0  0  0  0  0  0  0  0  0
   18.9477   39.2897   36.2270 H   0  0  0  0  0  0  0  0  0  0  0  0
   18.2489   40.9445   36.2270 H   0  0  0  0  0  0  0  0  0  0  0  0
   15.1252   39.1627   36.6701 H   0  0  0  0  0  0  0  0  0  0  0  0
   16.1212   40.2404   35.6341 H   0  0  0  0  0  0  0  0  0  0  0  0
   16.4182   38.4688   35.6341 H   0  0  0  0  0  0  0  0  0  0  0  0
   12.3046   45.0038   43.9893 H   0  0  0  0  0  0  0  0  0  0  0  0
   11.4651   42.6282   45.6666 H   0  0  0  0  0  0  0  0  0  0  0  0
   13.0852   43.4086   45.5860 H   0  0  0  0  0  0  0  0  0  0  0  0
   11.8019   44.1820   47.5548 H   0  0  0  0  0  0  0  0  0  0  0  0
   12.1122   45.5246   46.3636 H   0  0  0  0  0  0  0  0  0  0  0  0
    9.5847   44.3398   47.3127 H   0  0  0  0  0  0  0  0  0  0  0  0
    9.7892   46.6039   47.8104 H   0  0  0  0  0  0  0  0  0  0  0  0
   10.6389   46.9774   46.2725 H   0  0  0  0  0  0  0  0  0  0  0  0
    8.8653   46.6923   46.2725 H   0  0  0  0  0  0  0  0  0  0  0  0
    9.1816   43.3490   45.2961 H   0  0  0  0  0  0  0  0  0  0  0  0
    8.4718   45.0168   45.0727 H   0  0  0  0  0  0  0  0  0  0  0  0
    9.7675   44.1355   43.1082 H   0  0  0  0  0  0  0  0  0  0  0  0
   10.3210   45.7311   43.7991 H   0  0  0  0  0  0  0  0  0  0  0  0
  1  2  1  0
  2  3  1  0
  2  4  1  0
  4  5  1  0
  5  6  1  0
  6  7  2  0
  7  8  1  0
  8  9  3  0
  9 10  1  0
 10 11  1  0
 10 12  1  0
 10 13  1  0
  7 14  1  0
 14 15  1  0
 15 16  1  0
 16 17  2  0
 16 18  1  0
  4 19  1  0
 19 20  2  0
 19 21  1  0
 21 22  1  0
 22 23  1  0
 23 24  1  0
 24 25  1  0
 24 26  1  0
 26 27  1  0
 15  5  2  0
 27 21  1  0
  1 28  1  0
  1 29  1  0
  1 30  1  0
  3 31  1  0
  3 32  1  0
  3 33  1  0
  6 34  1  0
 11 35  1  0
 11 36  1  0
 11 37  1  0
 12 38  1  0
 12 39  1  0
 12 40  1  0
 13 41  1  0
 13 42  1  0
 13 43  1  0
 21 44  1  1
 22 45  1  0
 22 46  1  0
 23 47  1  0
 23 48  1  0
 24 49  1  6
 25 50  1  0
 25 51  1  0
 25 52  1  0
 26 53  1  0
 26 54  1  0
 27 55  1  0
 27 56  1  0
M  CHG  1  18  -1
M  END
>  <meeko>  (3) 
{"is_sidechain": [false], "free_energy": -7.11, "intermolecular_energy": -9.532, "internal_energy": -0.822}

$$$$
4eo8_ligand
     RDKit          3D

 56 57  0  0  0  0  0  0  0  0999 V2000
   17.3920   37.8360   41.0400 C   0  0  0  0  0  0  0  0  0  0  0  0
   16.6310   37.9410   39.7970 N   0  0  0  0  0  0  0  0  0  0  0  0
   15.9990   36.6640   39.4620 C   0  0  0  0  0  0  0  0  0  0  0  0
   15.7280   39.0650   39.7440 N   0  0  0  0  0  0  0  0  0  0  0  0
   14.8280   39.2580   40.8260 C   0  0  0  0  0  0  0  0  0  0  0  0
   14.0330   38.2010   41.4020 C   0  0  0  0  0  0  0  0  0  0  0  0
   13.3130   38.5980   42.5050 C   0  0  0  0  0  0  0  0  0  0  0  0
   12.4730   37.7460   43.2790 C   0  0  0  0  0  0  0  0  0  0  0  0
   11.7640   37.0280   43.9320 C   0  0  0  0  0  0  0  0  0  0  0  0
   10.8860   36.1450   44.7280 C   0  0  0  0  0  0  0  0  0  0  0  0
   11.5410   34.7630   44.8620 C   0  0  0  0  0  0  0  0  0  0  0  0
    9.5290   36.0040   44.0230 C   0  0  0  0  0  0  0  0  0  0  0  0
   10.6810   36.7530   46.1220 C   0  0  0  0  0  0  0  0  0  0  0  0
   13.5530   40.2460   42.8480 S   0  0  0  0  0  0  0  0  0  0  0  0
   14.5820   40.4470   41.4920 C   0  0  0  0  0  0  0  0  0  0  0  0
   15.0800   41.8760   41.0610 C   0  0  0  0  0  0  0  0  0  0  0  0
   14.3610   42.5120   40.2300 O   0  0  0  0  0  0  0  0  0  0  0  0
   16.1700   42.2760   41.5750 O   0  0  0  0  0  0  0  0  0  0  0  0
   15.3530   39.5570   38.4760 C   0  0  0  0  0  0  0  0  0  0  0  0
   14.2220   39.4110   37.9810 O   0  0  0  0  0  0  0  0  0  0  0  0
   16.3770   40.3290   37.6210 C   0  0  2  0  0  0  0  0  0  0  0  0
   16.9350   39.5260   36.4410 C   0  0  0  0  0  0  0  0  0  0  0  0
   17.8720   40.4010   35.6130 C   0  0  0  0  0  0  0  0  0  0  0  0
   19.0590   40.9460   36.4300 C   0  0  1  0  0  0  0  0  0  0  0  0
   19.3500   42.3970   36.0460 C   0  0  0  0  0  0  0  0  0  0  0  0
   18.8700   40.7950   37.9490 C   0  0  0  0  0  0  0  0  0  0  0  0
   17.4460   41.0920   38.4160 C   0  0  0  0  0  0  0  0  0  0  0  0
   16.7090   37.9302   41.8971 H   0  0  0  0  0  0  0  0  0  0  0  0
   17.8972   36.8596   41.0793 H   0  0  0  0  0  0  0  0  0  0  0  0
   18.1427   38.6391   41.0793 H   0  0  0  0  0  0  0  0  0  0  0  0
   15.7354   36.1314   40.3876 H   0  0  0  0  0  0  0  0  0  0  0  0
   15.0884   36.8488   38.8733 H   0  0  0  0  0  0  0  0  0  0  0  0
   16.6983   36.0521   38.8733 H   0  0  0  0  0  0  0  0  0  0  0  0
   14.0052   37.1779   40.9988 H   0  0  0  0  0  0  0  0  0  0  0  0
   11.6587   34.5147   45.9271 H   0  0  0  0  0  0  0  0  0  0  0  0
   10.9052   34.0074   44.3774 H   0  0  0  0  0  0  0  0  0  0  0  0
   12.5284   34.7767   44.3774 H   0  0  0  0  0  0  0  0  0  0  0  0
    8.7314   35.9211   44.7760 H   0  0  0  0  0  0  0  0  0  0  0  0
    9.3490   36.8883   43.3940 H   0  0  0  0  0  0  0  0  0  0  0  0
    9.5346   35.1016   43.3940 H   0  0  0  0  0  0  0  0  0  0  0  0
   10.9330   36.0056   46.8887 H   0  0  0  0  0  0  0  0  0  0  0  0
   11.3326   37.6316   46.2383 H   0  0  0  0  0  0  0  0  0  0  0  0
    9.6304   37.0577   46.2383 H   0  0  0  0  0  0  0  0  0  0  0  0
   15.7769   41.1288   37.1625 H   0  0  0  0  0  0  0  0  0  0  0  0
   17.4901   38.6561   36.8220 H   0  0  0  0  0  0  0  0  0  0  0  0
   16.1019   39.1876   35.8075 H   0  0  0  0  0  0  0  0  0  0  0  0
   18.2655   39.8024   34.7782 H   0  0  0  0  0  0  0  0  0  0  0  0
   17.2905   41.2646   35.2580 H   0  0  0  0  0  0  0  0  0  0  0  0
   19.9325   40.3283   36.1739 H   0  0  0  0  0  0  0  0  0  0  0  0
   19.4710   43.0004   36.9578 H   0  0  0  0  0  0  0  0  0  0  0  0
   20.2748   42.4407   35.4520 H   0  0  0  0  0  0  0  0  0  0  0  0
   18.5136   42.7939   35.4520 H   0  0  0  0  0  0  0  0  0  0  0  0
   19.1208   39.7616   38.2305 H   0  0  0  0  0  0  0  0  0  0  0  0
   19.5302   41.5298   38.4329 H   0  0  0  0  0  0  0  0  0  0  0  0
   17.3601   40.8112   39.4761 H   0  0  0  0  0  0  0  0  0  0  0  0
   17.2672   42.1657   38.2570 H   0  0  0  0  0  0  0  0  0  0  0  0
  1  2  1  0
  2  3  1  0
  2  4  1  0
  4  5  1  0
  5  6  1  0
  6  7  2  0
  7  8  1  0
  8  9  3  0
  9 10  1  0
 10 11  1  0
 10 12  1  0
 10 13  1  0
  7 14  1  0
 14 15  1  0
 15 16  1  0
 16 17  2  0
 16 18  1  0
  4 19  1  0
 19 20  2  0
 19 21  1  0
 21 22  1  0
 22 23  1  0
 23 24  1  0
 24 25  1  0
 24 26  1  0
 26 27  1  0
 15  5  2  0
 27 21  1  0
  1 28  1  0
  1 29  1  0
  1 30  1  0
  3 31  1  0
  3 32  1  0
  3 33  1  0
  6 34  1  0
 11 35  1  0
 11 36  1  0
 11 37  1  0
 12 38  1  0
 12 39  1  0
 12 40  1  0
 13 41  1  0
 13 42  1  0
 13 43  1  0
 21 44  1  1
 22 45  1  0
 22 46  1  0
 23 47  1  0
 23 48  1  0
 24 49  1  1
 25 50  1  0
 25 51  1  0
 25 52  1  0
 26 53  1  0
 26 54  1  0
 27 55  1  0
 27 56  1  0
M  CHG  1  18  -1
M  END
>  <meeko>  (4) 
{"is_sidechain": [false], "free_energy": -7.038, "intermolecular_energy": -9.575, "internal_energy": -0.682}

$$$$
4eo8_ligand
     RDKit          3D

 56 57  0  0  0  0  0  0  0  0999 V2000
   13.7400   40.0560   38.7230 C   0  0  0  0  0  0  0  0  0  0  0  0
   14.7760   40.1860   39.7460 N   0  0  0  0  0  0  0  0  0  0  0  0
   14.2550   40.8650   40.9340 C   0  0  0  0  0  0  0  0  0  0  0  0
   15.4800   38.9620   40.0400 N   0  0  0  0  0  0  0  0  0  0  0  0
   15.1360   38.2550   41.2240 C   0  0  0  0  0  0  0  0  0  0  0  0
   15.6030   38.6230   42.5390 C   0  0  0  0  0  0  0  0  0  0  0  0
   15.0590   37.8580   43.5440 C   0  0  0  0  0  0  0  0  0  0  0  0
   15.3250   38.0310   44.9340 C   0  0  0  0  0  0  0  0  0  0  0  0
   15.5500   38.1760   46.1050 C   0  0  0  0  0  0  0  0  0  0  0  0
   15.8180   38.3570   47.5470 C   0  0  0  0  0  0  0  0  0  0  0  0
   16.0740   36.9890   48.1930 C   0  0  0  0  0  0  0  0  0  0  0  0
   14.6040   39.0210   48.2130 C   0  0  0  0  0  0  0  0  0  0  0  0
   17.0540   39.2490   47.7280 C   0  0  0  0  0  0  0  0  0  0  0  0
   14.0080   36.6710   42.9290 S   0  0  0  0  0  0  0  0  0  0  0  0
   14.3160   37.1430   41.3100 C   0  0  0  0  0  0  0  0  0  0  0  0
   13.7620   36.2970   40.1040 C   0  0  0  0  0  0  0  0  0  0  0  0
   14.3020   35.1680   39.8950 O   0  0  0  0  0  0  0  0  0  0  0  0
   12.8220   36.8190   39.4300 O   0  0  0  0  0  0  0  0  0  0  0  0
   16.7890   38.8110   39.5360 C   0  0  0  0  0  0  0  0  0  0  0  0
   17.5610   37.8960   39.8720 O   0  0  0  0  0  0  0  0  0  0  0  0
   17.3330   39.8170   38.5030 C   0  0  2  0  0  0  0  0  0  0  0  0
   17.3130   39.3000   37.0600 C   0  0  0  0  0  0  0  0  0  0  0  0
   17.7910   40.3940   36.1090 C   0  0  0  0  0  0  0  0  0  0  0  0
   19.2170   40.8820   36.4280 C   0  0  1  0  0  0  0  0  0  0  0  0
   19.3110   42.4000   36.2650 C   0  0  0  0  0  0  0  0  0  0  0  0
   19.7160   40.4360   37.8130 C   0  0  0  0  0  0  0  0  0  0  0  0
   18.6440   40.5110   38.8980 C   0  0  0  0  0  0  0  0  0  0  0  0
   12.7600   39.9330   39.2072 H   0  0  0  0  0  0  0  0  0  0  0  0
   13.7284   40.9597   38.0960 H   0  0  0  0  0  0  0  0  0  0  0  0
   13.9520   39.1774   38.0960 H   0  0  0  0  0  0  0  0  0  0  0  0
   14.6368   40.3674   41.8377 H   0  0  0  0  0  0  0  0  0  0  0  0
   14.5810   41.9156   40.9284 H   0  0  0  0  0  0  0  0  0  0  0  0
   13.1559   40.8221   40.9284 H   0  0  0  0  0  0  0  0  0  0  0  0
   16.3228   39.4350   42.7195 H   0  0  0  0  0  0  0  0  0  0  0  0
   16.0549   37.0913   49.2881 H   0  0  0  0  0  0  0  0  0  0  0  0
   15.2925   36.2823   47.8770 H   0  0  0  0  0  0  0  0  0  0  0  0
   17.0582   36.6127   47.8770 H   0  0  0  0  0  0  0  0  0  0  0  0
   14.7087   38.9637   49.3065 H   0  0  0  0  0  0  0  0  0  0  0  0
   14.5478   40.0754   47.9048 H   0  0  0  0  0  0  0  0  0  0  0  0
   13.6858   38.4995   47.9048 H   0  0  0  0  0  0  0  0  0  0  0  0
   17.2501   39.3905   48.8011 H   0  0  0  0  0  0  0  0  0  0  0  0
   17.9244   38.7696   47.2563 H   0  0  0  0  0  0  0  0  0  0  0  0
   16.8732   40.2262   47.2563 H   0  0  0  0  0  0  0  0  0  0  0  0
   16.5940   40.6316   38.5238 H   0  0  0  0  0  0  0  0  0  0  0  0
   17.9778   38.4277   36.9759 H   0  0  0  0  0  0  0  0  0  0  0  0
   16.2855   39.0118   36.7930 H   0  0  0  0  0  0  0  0  0  0  0  0
   17.7764   39.9984   35.0827 H   0  0  0  0  0  0  0  0  0  0  0  0
   17.1136   41.2528   36.2253 H   0  0  0  0  0  0  0  0  0  0  0  0
   19.8874   40.4030   35.6992 H   0  0  0  0  0  0  0  0  0  0  0  0
   19.3404   42.8742   37.2571 H   0  0  0  0  0  0  0  0  0  0  0  0
   20.2265   42.6532   35.7103 H   0  0  0  0  0  0  0  0  0  0  0  0
   18.4337   42.7642   35.7103 H   0  0  0  0  0  0  0  0  0  0  0  0
   20.0650   39.3954   37.7392 H   0  0  0  0  0  0  0  0  0  0  0  0
   20.5217   41.1256   38.1050 H   0  0  0  0  0  0  0  0  0  0  0  0
   19.0334   40.0306   39.8077 H   0  0  0  0  0  0  0  0  0  0  0  0
   18.4150   41.5750   39.0577 H   0  0  0  0  0  0  0  0  0  0  0  0
  1  2  1  0
  2  3  1  0
  2  4  1  0
  4  5  1  0
  5  6  1  0
  6  7  2  0
  7  8  1  0
  8  9  3  0
  9 10  1  0
 10 11  1  0
 10 12  1  0
 10 13  1  0
  7 14  1  0
 14 15  1  0
 15 16  1  0
 16 17  2  0
 16 18  1  0
  4 19  1  0
 19 20  2  0
 19 21  1  0
 21 22  1  0
 22 23  1  0
 23 24  1  0
 24 25  1  0
 24 26  1  0
 26 27  1  0
 15  5  2  0
 27 21  1  0
  1 28  1  0
  1 29  1  0
  1 30  1  0
  3 31  1  0
  3 32  1  0
  3 33  1  0
  6 34  1  0
 11 35  1  0
 11 36  1  0
 11 37  1  0
 12 38  1  0
 12 39  1  0
 12 40  1  0
 13 41  1  0
 13 42  1  0
 13 43  1  0
 21 44  1  1
 22 45  1  0
 22 46  1  0
 23 47  1  0
 23 48  1  0
 24 49  1  1
 25 50  1  0
 25 51  1  0
 25 52  1  0
 26 53  1  0
 26 54  1  0
 27 55  1  0
 27 56  1  0
M  CHG  1  18  -1
M  END
>  <meeko>  (5) 
{"is_sidechain": [false], "free_energy": -6.792, "intermolecular_energy": -9.354, "internal_energy": -0.572}

$$$$
4eo8_ligand
     RDKit          3D

 56 57  0  0  0  0  0  0  0  0999 V2000
   11.9400   42.7340   39.9900 C   0  0  0  0  0  0  0  0  0  0  0  0
   13.3590   43.0830   40.0420 N   0  0  0  0  0  0  0  0  0  0  0  0
   13.5360   44.5180   40.2650 C   0  0  0  0  0  0  0  0  0  0  0  0
   14.1440   42.2570   40.9270 N   0  0  0  0  0  0  0  0  0  0  0  0
   13.5110   41.7100   42.0760 C   0  0  0  0  0  0  0  0  0  0  0  0
   12.6790   42.4770   42.9710 C   0  0  0  0  0  0  0  0  0  0  0  0
   12.0900   41.7160   43.9540 C   0  0  0  0  0  0  0  0  0  0  0  0
   11.1990   42.2170   44.9470 C   0  0  0  0  0  0  0  0  0  0  0  0
   10.4480   42.6390   45.7850 C   0  0  0  0  0  0  0  0  0  0  0  0
    9.5270   43.1520   46.8210 C   0  0  0  0  0  0  0  0  0  0  0  0
   10.0810   44.4640   47.3920 C   0  0  0  0  0  0  0  0  0  0  0  0
    9.3970   42.1160   47.9460 C   0  0  0  0  0  0  0  0  0  0  0  0
    8.1490   43.4070   46.1960 C   0  0  0  0  0  0  0  0  0  0  0  0
   12.5480   40.0830   43.8400 S   0  0  0  0  0  0  0  0  0  0  0  0
   13.5760   40.3950   42.5050 C   0  0  0  0  0  0  0  0  0  0  0  0
   14.5290   39.2770   41.9400 C   0  0  0  0  0  0  0  0  0  0  0  0
   15.6580   39.1440   42.5030 O   0  0  0  0  0  0  0  0  0  0  0  0
   14.0910   38.6020   40.9580 O   0  0  0  0  0  0  0  0  0  0  0  0
   15.5370   42.4780   40.9810 C   0  0  0  0  0  0  0  0  0  0  0  0
   16.1370   42.8800   41.9920 O   0  0  0  0  0  0  0  0  0  0  0  0
   16.4020   42.2160   39.7330 C   0  0  2  0  0  0  0  0  0  0  0  0
   16.0610   40.9140   39.0010 C   0  0  0  0  0  0  0  0  0  0  0  0
   16.9130   40.7870   37.7410 C   0  0  0  0  0  0  0  0  0  0  0  0
   18.4240   40.7920   38.0370 C   0  0  1  0  0  0  0  0  0  0  0  0
   19.1720   41.6110   36.9840 C   0  0  0  0  0  0  0  0  0  0  0  0
   18.7620   41.2690   39.4610 C   0  0  0  0  0  0  0  0  0  0  0  0
   17.9080   42.4470   39.9250 C   0  0  0  0  0  0  0  0  0  0  0  0
   11.5484   42.6377   41.0134 H   0  0  0  0  0  0  0  0  0  0  0  0
   11.3876   43.5230   39.4587 H   0  0  0  0  0  0  0  0  0  0  0  0
   11.8166   41.7787   39.4587 H   0  0  0  0  0  0  0  0  0  0  0  0
   13.5610   44.7208   41.3459 H   0  0  0  0  0  0  0  0  0  0  0  0
   14.4814   44.8462   39.8084 H   0  0  0  0  0  0  0  0  0  0  0  0
   12.6986   45.0661   39.8084 H   0  0  0  0  0  0  0  0  0  0  0  0
   12.5304   43.5628   42.8767 H   0  0  0  0  0  0  0  0  0  0  0  0
   10.0633   44.4220   48.4911 H   0  0  0  0  0  0  0  0  0  0  0  0
   11.1159   44.6059   47.0471 H   0  0  0  0  0  0  0  0  0  0  0  0
    9.4610   45.3047   47.0471 H   0  0  0  0  0  0  0  0  0  0  0  0
    9.4606   42.6227   48.9203 H   0  0  0  0  0  0  0  0  0  0  0  0
    8.4275   41.6032   47.8620 H   0  0  0  0  0  0  0  0  0  0  0  0
   10.2098   41.3796   47.8620 H   0  0  0  0  0  0  0  0  0  0  0  0
    7.4044   43.5448   46.9938 H   0  0  0  0  0  0  0  0  0  0  0  0
    8.1908   44.3127   45.5731 H   0  0  0  0  0  0  0  0  0  0  0  0
    7.8640   42.5464   45.5731 H   0  0  0  0  0  0  0  0  0  0  0  0
   16.1041   43.0174   39.0409 H   0  0  0  0  0  0  0  0  0  0  0  0
   16.2614   40.0596   39.6642 H   0  0  0  0  0  0  0  0  0  0  0  0
   14.9978   40.9252   38.7192 H   0  0  0  0  0  0  0  0  0  0  0  0
   16.6570   39.8430   37.2377 H   0  0  0  0  0  0  0  0  0  0  0  0
   16.6977   41.6599   37.1073 H   0  0  0  0  0  0  0  0  0  0  0  0
   18.7624   39.7468   37.9820 H   0  0  0  0  0  0  0  0  0  0  0  0
   19.8329   42.3346   37.4837 H   0  0  0  0  0  0  0  0  0  0  0  0
   19.7737   40.9380   36.3555 H   0  0  0  0  0  0  0  0  0  0  0  0
   18.4474   42.1494   36.3555 H   0  0  0  0  0  0  0  0  0  0  0  0
   18.6063   40.4305   40.1557 H   0  0  0  0  0  0  0  0  0  0  0  0
   19.8075   41.6107   39.4493 H   0  0  0  0  0  0  0  0  0  0  0  0
   18.1016   42.6194   40.9940 H   0  0  0  0  0  0  0  0  0  0  0  0
   18.1864   43.3148   39.3091 H   0  0  0  0  0  0  0  0  0  0  0  0
  1  2  1  0
  2  3  1  0
  2  4  1  0
  4  5  1  0
  5  6  1  0
  6  7  2  0
  7  8  1  0
  8  9  3  0
  9 10  1  0
 10 11  1  0
 10 12  1  0
 10 13  1  0
  7 14  1  0
 14 15  1  0
 15 16  1  0
 16 17  2  0
 16 18  1  0
  4 19  1  0
 19 20  2  0
 19 21  1  0
 21 22  1  0
 22 23  1  0
 23 24  1  0
 24 25  1  0
 24 26  1  0
 26 27  1  0
 15  5  2  0
 27 21  1  0
  1 28  1  0
  1 29  1  0
  1 30  1  0
  3 31  1  0
  3 32  1  0
  3 33  1  0
  6 34  1  0
 11 35  1  0
 11 36  1  0
 11 37  1  0
 12 38  1  0
 12 39  1  0
 12 40  1  0
 13 41  1  0
 13 42  1  0
 13 43  1  0
 21 44  1  1
 22 45  1  0
 22 46  1  0
 23 47  1  0
 23 48  1  0
 24 49  1  6
 25 50  1  0
 25 51  1  0
 25 52  1  0
 26 53  1  0
 26 54  1  0
 27 55  1  0
 27 56  1  0
M  CHG  1  18  -1
M  END
>  <meeko>  (6) 
{"is_sidechain": [false], "free_energy": -6.728, "intermolecular_energy": -9.259, "internal_energy": -0.58}

$$$$
4eo8_ligand
     RDKit          3D

 56 57  0  0  0  0  0  0  0  0999 V2000
   13.5510   41.5960   46.0470 C   0  0  0  0  0  0  0  0  0  0  0  0
   12.5790   41.4800   44.9620 N   0  0  0  0  0  0  0  0  0  0  0  0
   11.3290   40.8860   45.4400 C   0  0  0  0  0  0  0  0  0  0  0  0
   12.3900   42.6900   44.1980 N   0  0  0  0  0  0  0  0  0  0  0  0
   12.6360   42.6480   42.8000 C   0  0  0  0  0  0  0  0  0  0  0  0
   13.7840   42.0030   42.2090 C   0  0  0  0  0  0  0  0  0  0  0  0
   13.7600   41.9990   40.8340 C   0  0  0  0  0  0  0  0  0  0  0  0
   14.7530   41.4020   40.0040 C   0  0  0  0  0  0  0  0  0  0  0  0
   15.5900   40.8990   39.3040 C   0  0  0  0  0  0  0  0  0  0  0  0
   16.6230   40.2880   38.4410 C   0  0  0  0  0  0  0  0  0  0  0  0
   17.6000   39.4830   39.3090 C   0  0  0  0  0  0  0  0  0  0  0  0
   17.3870   41.3940   37.6980 C   0  0  0  0  0  0  0  0  0  0  0  0
   15.9520   39.3560   37.4240 C   0  0  0  0  0  0  0  0  0  0  0  0
   12.3840   42.7930   40.2300 S   0  0  0  0  0  0  0  0  0  0  0  0
   11.8390   43.1900   41.8060 C   0  0  0  0  0  0  0  0  0  0  0  0
   10.6070   44.1460   42.0180 C   0  0  0  0  0  0  0  0  0  0  0  0
   10.8490   45.3910   42.0830 O   0  0  0  0  0  0  0  0  0  0  0  0
    9.4690   43.5930   42.1150 O   0  0  0  0  0  0  0  0  0  0  0  0
   12.5470   43.9250   44.8610 C   0  0  0  0  0  0  0  0  0  0  0  0
   13.4460   44.7430   44.6020 O   0  0  0  0  0  0  0  0  0  0  0  0
   11.5640   44.3240   45.9790 C   0  0  2  0  0  0  0  0  0  0  0  0
   10.1100   44.4530   45.5130 C   0  0  0  0  0  0  0  0  0  0  0  0
    9.2080   44.7690   46.7030 C   0  0  0  0  0  0  0  0  0  0  0  0
    9.6010   46.0730   47.4220 C   0  0  1  0  0  0  0  0  0  0  0  0
    9.4790   45.9060   48.9380 C   0  0  0  0  0  0  0  0  0  0  0  0
   10.9960   46.5880   47.0260 C   0  0  0  0  0  0  0  0  0  0  0  0
   12.0340   45.4770   46.8780 C   0  0  0  0  0  0  0  0  0  0  0  0
   13.0303   41.5339   47.0140 H   0  0  0  0  0  0  0  0  0  0  0  0
   14.2836   40.7789   45.9719 H   0  0  0  0  0  0  0  0  0  0  0  0
   14.0708   42.5625   45.9719 H   0  0  0  0  0  0  0  0  0  0  0  0
   11.3218   40.8826   46.5400 H   0  0  0  0  0  0  0  0  0  0  0  0
   10.4776   41.4758   45.0696 H   0  0  0  0  0  0  0  0  0  0  0  0
   11.2486   39.8534   45.0696 H   0  0  0  0  0  0  0  0  0  0  0  0
   14.5981   41.5584   42.8003 H   0  0  0  0  0  0  0  0  0  0  0  0
   17.3808   39.6636   40.3717 H   0  0  0  0  0  0  0  0  0  0  0  0
   17.4886   38.4111   39.0887 H   0  0  0  0  0  0  0  0  0  0  0  0
   18.6308   39.7974   39.0887 H   0  0  0  0  0  0  0  0  0  0  0  0
   17.8545   42.0708   38.4283 H   0  0  0  0  0  0  0  0  0  0  0  0
   18.1658   40.9412   37.0668 H   0  0  0  0  0  0  0  0  0  0  0  0
   16.6878   41.9621   37.0668 H   0  0  0  0  0  0  0  0  0  0  0  0
   15.3899   38.5752   37.9573 H   0  0  0  0  0  0  0  0  0  0  0  0
   15.2636   39.9370   36.7927 H   0  0  0  0  0  0  0  0  0  0  0  0
   16.7214   38.8875   36.7927 H   0  0  0  0  0  0  0  0  0  0  0  0
   11.5717   43.4529   46.6506 H   0  0  0  0  0  0  0  0  0  0  0  0
   10.0349   45.2636   44.7732 H   0  0  0  0  0  0  0  0  0  0  0  0
    9.7902   43.5036   45.0588 H   0  0  0  0  0  0  0  0  0  0  0  0
    8.1728   44.8645   46.3434 H   0  0  0  0  0  0  0  0  0  0  0  0
    9.3153   43.9474   47.4265 H   0  0  0  0  0  0  0  0  0  0  0  0
    8.8908   46.8449   47.0907 H   0  0  0  0  0  0  0  0  0  0  0  0
   10.0559   46.6957   49.4415 H   0  0  0  0  0  0  0  0  0  0  0  0
    8.4214   45.9809   49.2312 H   0  0  0  0  0  0  0  0  0  0  0  0
    9.8719   44.9213   49.2312 H   0  0  0  0  0  0  0  0  0  0  0  0
   10.9124   47.1172   46.0653 H   0  0  0  0  0  0  0  0  0  0  0  0
   11.3402   47.2479   47.8360 H   0  0  0  0  0  0  0  0  0  0  0  0
   12.9480   45.9084   46.4437 H   0  0  0  0  0  0  0  0  0  0  0  0
   12.2095   45.0587   47.8801 H   0  0  0  0  0  0  0  0  0  0  0  0
  1  2  1  0
  2  3  1  0
  2  4  1  0
  4  5  1  0
  5  6  1  0
  6  7  2  0
  7  8  1  0
  8  9  3  0
  9 10  1  0
 10 11  1  0
 10 12  1  0
 10 13  1  0
  7 14  1  0
 14 15  1  0
 15 16  1  0
 16 17  2  0
 16 18  1  0
  4 19  1  0
 19 20  2  0
 19 21  1  0
 21 22  1  0
 22 23  1  0
 23 24  1  0
 24 25  1  0
 24 26  1  0
 26 27  1  0
 15  5  2  0
 27 21  1  0
  1 28  1  0
  1 29  1  0
  1 30  1  0
  3 31  1  0
  3 32  1  0
  3 33  1  0
  6 34  1  0
 11 35  1  0
 11 36  1  0
 11 37  1  0
 12 38  1  0
 12 39  1  0
 12 40  1  0
 13 41  1  0
 13 42  1  0
 13 43  1  0
 21 44  1  6
 22 45  1  0
 22 46  1  0
 23 47  1  0
 23 48  1  0
 24 49  1  1
 25 50  1  0
 25 51  1  0
 25 52  1  0
 26 53  1  0
 26 54  1  0
 27 55  1  0
 27 56  1  0
M  CHG  1  18  -1
M  END
>  <meeko>  (7) 
{"is_sidechain": [false], "free_energy": -6.715, "intermolecular_energy": -9.0, "internal_energy": -0.821}

$$$$
4eo8_ligand
     RDKit          3D

 56 57  0  0  0  0  0  0  0  0999 V2000
   11.4870   45.3290   41.0170 C   0  0  0  0  0  0  0  0  0  0  0  0
   11.8480   43.9970   41.4970 N   0  0  0  0  0  0  0  0  0  0  0  0
   11.8480   43.0280   40.4000 C   0  0  0  0  0  0  0  0  0  0  0  0
   13.0430   43.9570   42.3050 N   0  0  0  0  0  0  0  0  0  0  0  0
   14.2750   43.6520   41.6680 C   0  0  0  0  0  0  0  0  0  0  0  0
   14.7090   42.3090   41.3680 C   0  0  0  0  0  0  0  0  0  0  0  0
   15.8860   42.2600   40.6590 C   0  0  0  0  0  0  0  0  0  0  0  0
   16.5170   41.0650   40.2080 C   0  0  0  0  0  0  0  0  0  0  0  0
   17.0500   40.0570   39.8290 C   0  0  0  0  0  0  0  0  0  0  0  0
   17.7130   38.8210   39.3630 C   0  0  0  0  0  0  0  0  0  0  0  0
   17.5700   37.7310   40.4340 C   0  0  0  0  0  0  0  0  0  0  0  0
   19.2010   39.1030   39.1120 C   0  0  0  0  0  0  0  0  0  0  0  0
   17.0540   38.3490   38.0600 C   0  0  0  0  0  0  0  0  0  0  0  0
   16.5060   43.8170   40.3690 S   0  0  0  0  0  0  0  0  0  0  0  0
   15.2270   44.5600   41.2350 C   0  0  0  0  0  0  0  0  0  0  0  0
   15.2490   46.1030   41.5420 C   0  0  0  0  0  0  0  0  0  0  0  0
   16.0910   46.5080   42.4020 O   0  0  0  0  0  0  0  0  0  0  0  0
   14.4150   46.8200   40.9090 O   0  0  0  0  0  0  0  0  0  0  0  0
   12.9090   43.6440   43.6740 C   0  0  0  0  0  0  0  0  0  0  0  0
   13.8430   43.2420   44.3880 O   0  0  0  0  0  0  0  0  0  0  0  0
   11.5400   43.7980   44.3650 C   0  0  2  0  0  0  0  0  0  0  0  0
   11.4950   44.9100   45.4180 C   0  0  0  0  0  0  0  0  0  0  0  0
   10.0830   45.0370   45.9820 C   0  0  0  0  0  0  0  0  0  0  0  0
    9.5800   43.7340   46.6340 C   0  0  1  0  0  0  0  0  0  0  0  0
    8.1070   43.5010   46.2950 C   0  0  0  0  0  0  0  0  0  0  0  0
   10.4380   42.5070   46.2780 C   0  0  0  0  0  0  0  0  0  0  0  0
   10.8880   42.4840   44.8190 C   0  0  0  0  0  0  0  0  0  0  0  0
   11.3073   45.9921   41.8761 H   0  0  0  0  0  0  0  0  0  0  0  0
   12.3078   45.7338   40.4068 H   0  0  0  0  0  0  0  0  0  0  0  0
   10.5741   45.2639   40.4068 H   0  0  0  0  0  0  0  0  0  0  0  0
   12.8851   42.7853   40.1252 H   0  0  0  0  0  0  0  0  0  0  0  0
   11.3295   42.1121   40.7198 H   0  0  0  0  0  0  0  0  0  0  0  0
   11.3295   43.4584   39.5306 H   0  0  0  0  0  0  0  0  0  0  0  0
   14.1524   41.4118   41.6765 H   0  0  0  0  0  0  0  0  0  0  0  0
   17.6300   38.1881   41.4327 H   0  0  0  0  0  0  0  0  0  0  0  0
   16.5983   37.2286   40.3184 H   0  0  0  0  0  0  0  0  0  0  0  0
   18.3793   36.9950   40.3184 H   0  0  0  0  0  0  0  0  0  0  0  0
   19.7230   39.2019   40.0752 H   0  0  0  0  0  0  0  0  0  0  0  0
   19.6403   38.2721   38.5405 H   0  0  0  0  0  0  0  0  0  0  0  0
   19.3059   40.0370   38.5405 H   0  0  0  0  0  0  0  0  0  0  0  0
   16.1806   37.7235   38.2965 H   0  0  0  0  0  0  0  0  0  0  0  0
   16.7315   39.2228   37.4748 H   0  0  0  0  0  0  0  0  0  0  0  0
   17.7775   37.7624   37.4748 H   0  0  0  0  0  0  0  0  0  0  0  0
   10.8821   44.1462   43.5551 H   0  0  0  0  0  0  0  0  0  0  0  0
   12.1927   44.6682   46.2333 H   0  0  0  0  0  0  0  0  0  0  0  0
   11.7842   45.8626   44.9501 H   0  0  0  0  0  0  0  0  0  0  0  0
   10.0779   45.8339   46.7402 H   0  0  0  0  0  0  0  0  0  0  0  0
    9.4109   45.2677   45.1424 H   0  0  0  0  0  0  0  0  0  0  0  0
    9.6785   43.8635   47.7219 H   0  0  0  0  0  0  0  0  0  0  0  0
    7.5268   43.4092   47.2250 H   0  0  0  0  0  0  0  0  0  0  0  0
    7.7270   44.3502   45.7081 H   0  0  0  0  0  0  0  0  0  0  0  0
    8.0077   42.5760   45.7081 H   0  0  0  0  0  0  0  0  0  0  0  0
   11.3322   42.5091   46.9186 H   0  0  0  0  0  0  0  0  0  0  0  0
    9.8131   41.6162   46.4390 H   0  0  0  0  0  0  0  0  0  0  0  0
   11.6166   41.6699   44.6909 H   0  0  0  0  0  0  0  0  0  0  0  0
    9.9891   42.3357   44.2025 H   0  0  0  0  0  0  0  0  0  0  0  0
  1  2  1  0
  2  3  1  0
  2  4  1  0
  4  5  1  0
  5  6  1  0
  6  7  2  0
  7  8  1  0
  8  9  3  0
  9 10  1  0
 10 11  1  0
 10 12  1  0
 10 13  1  0
  7 14  1  0
 14 15  1  0
 15 16  1  0
 16 17  2  0
 16 18  1  0
  4 19  1  0
 19 20  2  0
 19 21  1  0
 21 22  1  0
 22 23  1  0
 23 24  1  0
 24 25  1  0
 24 26  1  0
 26 27  1  0
 15  5  2  0
 27 21  1  0
  1 28  1  0
  1 29  1  0
  1 30  1  0
  3 31  1  0
  3 32  1  0
  3 33  1  0
  6 34  1  0
 11 35  1  0
 11 36  1  0
 11 37  1  0
 12 38  1  0
 12 39  1  0
 12 40  1  0
 13 41  1  0
 13 42  1  0
 13 43  1  0
 21 44  1  1
 22 45  1  0
 22 46  1  0
 23 47  1  0
 23 48  1  0
 24 49  1  6
 25 50  1  0
 25 51  1  0
 25 52  1  0
 26 53  1  0
 26 54  1  0
 27 55  1  0
 27 56  1  0
M  CHG  1  18  -1
M  END
>  <meeko>  (8) 
{"is_sidechain": [false], "free_energy": -6.683, "intermolecular_energy": -9.293, "internal_energy": -0.486}

$$$$
4eo8_ligand
     RDKit          3D

 56 57  0  0  0  0  0  0  0  0999 V2000
   15.4920   35.3210   39.8880 C   0  0  0  0  0  0  0  0  0  0  0  0
   15.0100   36.7010   39.8940 N   0  0  0  0  0  0  0  0  0  0  0  0
   13.5660   36.7480   40.1260 C   0  0  0  0  0  0  0  0  0  0  0  0
   15.7630   37.5920   40.7430 N   0  0  0  0  0  0  0  0  0  0  0  0
   15.0470   38.4470   41.6230 C   0  0  0  0  0  0  0  0  0  0  0  0
   14.4880   39.7160   41.2250 C   0  0  0  0  0  0  0  0  0  0  0  0
   13.7510   40.3230   42.2160 C   0  0  0  0  0  0  0  0  0  0  0  0
   13.0660   41.5640   42.0770 C   0  0  0  0  0  0  0  0  0  0  0  0
   12.4890   42.6120   41.9600 C   0  0  0  0  0  0  0  0  0  0  0  0
   11.7800   43.9020   41.8260 C   0  0  0  0  0  0  0  0  0  0  0  0
   12.6700   44.8960   41.0670 C   0  0  0  0  0  0  0  0  0  0  0  0
   11.4620   44.4580   43.2210 C   0  0  0  0  0  0  0  0  0  0  0  0
   10.4740   43.6870   41.0490 C   0  0  0  0  0  0  0  0  0  0  0  0
   13.7430   39.3990   43.6430 S   0  0  0  0  0  0  0  0  0  0  0  0
   14.7680   38.2090   42.9580 C   0  0  0  0  0  0  0  0  0  0  0  0
   15.3600   37.0480   43.8410 C   0  0  0  0  0  0  0  0  0  0  0  0
   14.5520   36.1500   44.2300 O   0  0  0  0  0  0  0  0  0  0  0  0
   16.6010   37.1090   44.1000 O   0  0  0  0  0  0  0  0  0  0  0  0
   17.0370   38.0100   40.3030 C   0  0  0  0  0  0  0  0  0  0  0  0
   18.1060   37.5930   40.7790 O   0  0  0  0  0  0  0  0  0  0  0  0
   17.1530   39.0440   39.1670 C   0  0  2  0  0  0  0  0  0  0  0  0
   17.2750   38.4240   37.7710 C   0  0  0  0  0  0  0  0  0  0  0  0
   17.3020   39.5240   36.7130 C   0  0  0  0  0  0  0  0  0  0  0  0
   18.4690   40.5110   36.9060 C   0  0  1  0  0  0  0  0  0  0  0  0
   18.0100   41.9430   36.6240 C   0  0  0  0  0  0  0  0  0  0  0  0
   19.1370   40.3990   38.2870 C   0  0  0  0  0  0  0  0  0  0  0  0
   18.1420   40.1900   39.4280 C   0  0  0  0  0  0  0  0  0  0  0  0
   15.6143   34.9708   40.9236 H   0  0  0  0  0  0  0  0  0  0  0  0
   14.7643   34.6807   39.3680 H   0  0  0  0  0  0  0  0  0  0  0  0
   16.4601   35.2730   39.3680 H   0  0  0  0  0  0  0  0  0  0  0  0
   13.3685   36.7544   41.2081 H   0  0  0  0  0  0  0  0  0  0  0  0
   13.1512   37.6601   39.6721 H   0  0  0  0  0  0  0  0  0  0  0  0
   13.0928   35.8648   39.6721 H   0  0  0  0  0  0  0  0  0  0  0  0
   14.6363   40.1552   40.2274 H   0  0  0  0  0  0  0  0  0  0  0  0
   13.2247   45.5155   41.7871 H   0  0  0  0  0  0  0  0  0  0  0  0
   13.3807   44.3433   40.4350 H   0  0  0  0  0  0  0  0  0  0  0  0
   12.0424   45.5415   40.4350 H   0  0  0  0  0  0  0  0  0  0  0  0
   11.8540   43.7727   43.9870 H   0  0  0  0  0  0  0  0  0  0  0  0
   11.9317   45.4458   43.3379 H   0  0  0  0  0  0  0  0  0  0  0  0
   10.3724   44.5540   43.3379 H   0  0  0  0  0  0  0  0  0  0  0  0
    9.6439   43.5504   41.7577 H   0  0  0  0  0  0  0  0  0  0  0  0
   10.2751   44.5645   40.4162 H   0  0  0  0  0  0  0  0  0  0  0  0
   10.5669   42.7921   40.4162 H   0  0  0  0  0  0  0  0  0  0  0  0
   16.1726   39.5428   39.1726 H   0  0  0  0  0  0  0  0  0  0  0  0
   18.2045   37.8387   37.7121 H   0  0  0  0  0  0  0  0  0  0  0  0
   16.4102   37.7689   37.5895 H   0  0  0  0  0  0  0  0  0  0  0  0
   17.3980   39.0560   35.7221 H   0  0  0  0  0  0  0  0  0  0  0  0
   16.3667   40.0955   36.8062 H   0  0  0  0  0  0  0  0  0  0  0  0
   19.2433   40.2346   36.1752 H   0  0  0  0  0  0  0  0  0  0  0  0
   17.8417   42.4682   37.5757 H   0  0  0  0  0  0  0  0  0  0  0  0
   18.7845   42.4693   36.0468 H   0  0  0  0  0  0  0  0  0  0  0  0
   17.0739   41.9210   36.0468 H   0  0  0  0  0  0  0  0  0  0  0  0
   19.8319   39.5465   38.2700 H   0  0  0  0  0  0  0  0  0  0  0  0
   19.6524   41.3522   38.4764 H   0  0  0  0  0  0  0  0  0  0  0  0
   18.7049   39.9637   40.3455 H   0  0  0  0  0  0  0  0  0  0  0  0
   17.5533   41.1145   39.5215 H   0  0  0  0  0  0  0  0  0  0  0  0
  1  2  1  0
  2  3  1  0
  2  4  1  0
  4  5  1  0
  5  6  1  0
  6  7  2  0
  7  8  1  0
  8  9  3  0
  9 10  1  0
 10 11  1  0
 10 12  1  0
 10 13  1  0
  7 14  1  0
 14 15  1  0
 15 16  1  0
 16 17  2  0
 16 18  1  0
  4 19  1  0
 19 20  2  0
 19 21  1  0
 21 22  1  0
 22 23  1  0
 23 24  1  0
 24 25  1  0
 24 26  1  0
 26 27  1  0
 15  5  2  0
 27 21  1  0
  1 28  1  0
  1 29  1  0
  1 30  1  0
  3 31  1  0
  3 32  1  0
  3 33  1  0
  6 34  1  0
 11 35  1  0
 11 36  1  0
 11 37  1  0
 12 38  1  0
 12 39  1  0
 12 40  1  0
 13 41  1  0
 13 42  1  0
 13 43  1  0
 21 44  1  1
 22 45  1  0
 22 46  1  0
 23 47  1  0
 23 48  1  0
 24 49  1  1
 25 50  1  0
 25 51  1  0
 25 52  1  0
 26 53  1  0
 26 54  1  0
 27 55  1  0
 27 56  1  0
M  CHG  1  18  -1
M  END
>  <meeko>  (9) 
{"is_sidechain": [false], "free_energy": -6.561, "intermolecular_energy": -8.864, "internal_energy": -0.75}

$$$$
