3zdg_ligand
     RDKit          3D

 34 33  0  0  0  0  0  0  0  0999 V2000
  -84.4340   50.4150  -18.0460 C   0  0  0  0  0  0  0  0  0  0  0  0
  -85.7890   49.7100  -17.9230 C   0  0  2  0  0  0  0  0  0  0  0  0
  -85.7380   48.2680  -18.4770 C   0  0  0  0  0  0  0  0  0  0  0  0
  -86.9280   47.3340  -18.2520 C   0  0  0  0  0  0  0  0  0  0  0  0
  -88.1570   47.8330  -18.7900 O   0  0  0  0  0  0  0  0  0  0  0  0
  -89.2410   47.0170  -18.6770 C   0  0  0  0  0  0  0  0  0  0  0  0
  -89.2980   46.1300  -17.8270 O   0  0  0  0  0  0  0  0  0  0  0  0
  -90.2560   47.3360  -19.5530 N   0  0  0  0  0  0  0  0  0  0  0  0
  -91.4140   46.4640  -19.6440 C   0  0  0  0  0  0  0  0  0  0  0  0
  -90.0900   48.3030  -20.6280 C   0  0  0  0  0  0  0  0  0  0  0  0
  -86.9140   50.5400  -18.5340 N   0  0  0  0  0  0  0  0  0  0  0  0
  -86.7760   50.7740  -20.0180 C   0  0  0  0  0  0  0  0  0  0  0  0
  -87.1420   51.8550  -17.8380 C   0  0  0  0  0  0  0  0  0  0  0  0
  -84.0359   50.6221  -17.0417 H   0  0  0  0  0  0  0  0  0  0  0  0
  -83.7321   49.7677  -18.5923 H   0  0  0  0  0  0  0  0  0  0  0  0
  -84.5612   51.3612  -18.5923 H   0  0  0  0  0  0  0  0  0  0  0  0
  -86.0188   49.6192  -16.8511 H   0  0  0  0  0  0  0  0  0  0  0  0
  -85.5946   48.3477  -19.5647 H   0  0  0  0  0  0  0  0  0  0  0  0
  -84.9271   47.7978  -17.9013 H   0  0  0  0  0  0  0  0  0  0  0  0
  -86.7067   46.3676  -18.7284 H   0  0  0  0  0  0  0  0  0  0  0  0
  -87.0653   47.2422  -17.1645 H   0  0  0  0  0  0  0  0  0  0  0  0
  -91.7582   46.2048  -18.6319 H   0  0  0  0  0  0  0  0  0  0  0  0
  -92.2207   46.9809  -20.1845 H   0  0  0  0  0  0  0  0  0  0  0  0
  -91.1401   45.5459  -20.1845 H   0  0  0  0  0  0  0  0  0  0  0  0
  -89.9186   49.3016  -20.1997 H   0  0  0  0  0  0  0  0  0  0  0  0
  -89.2278   48.0172  -21.2484 H   0  0  0  0  0  0  0  0  0  0  0  0
  -90.9982   48.3211  -21.2484 H   0  0  0  0  0  0  0  0  0  0  0  0
  -87.7970   49.9920  -18.4410 H   0  0  0  0  0  0  0  0  0  0  0  0
  -86.2242   51.7096  -20.1919 H   0  0  0  0  0  0  0  0  0  0  0  0
  -86.2279   49.9353  -20.4720 H   0  0  0  0  0  0  0  0  0  0  0  0
  -87.7752   50.8478  -20.4720 H   0  0  0  0  0  0  0  0  0  0  0  0
  -87.1156   51.7028  -16.7489 H   0  0  0  0  0  0  0  0  0  0  0  0
  -86.3536   52.5650  -18.1282 H   0  0  0  0  0  0  0  0  0  0  0  0
  -88.1234   52.2582  -18.1282 H   0  0  0  0  0  0  0  0  0  0  0  0
  1  2  1  0
  2  3  1  0
  3  4  1  0
  4  5  1  0
  5  6  1  0
  6  7  2  0
  6  8  1  0
  8  9  1  0
  8 10  1  0
  2 11  1  0
 11 12  1  0
 11 13  1  0
  1 14  1  0
  1 15  1  0
  1 16  1  0
  2 17  1  1
  3 18  1  0
  3 19  1  0
  4 20  1  0
  4 21  1  0
  9 22  1  0
  9 23  1  0
  9 24  1  0
 10 25  1  0
 10 26  1  0
 10 27  1  0
 11 28  1  0
 12 29  1  0
 12 30  1  0
 12 31  1  0
 13 32  1  0
 13 33  1  0
 13 34  1  0
M  CHG  1  11   1
M  END
>  <meeko>  (1) 
{"is_sidechain": [false], "free_energy": -5.761, "intermolecular_energy": -7.445, "internal_energy": -0.47}

$$$$
3zdg_ligand
     RDKit          3D

 34 33  0  0  0  0  0  0  0  0999 V2000
  -84.6410   49.9640  -17.8130 C   0  0  0  0  0  0  0  0  0  0  0  0
  -86.1280   49.6040  -17.8950 C   0  0  2  0  0  0  0  0  0  0  0  0
  -86.3420   48.1690  -18.4260 C   0  0  0  0  0  0  0  0  0  0  0  0
  -87.7360   47.5430  -18.3590 C   0  0  0  0  0  0  0  0  0  0  0  0
  -88.3000   47.2640  -19.6450 O   0  0  0  0  0  0  0  0  0  0  0  0
  -89.2570   48.1280  -20.0850 C   0  0  0  0  0  0  0  0  0  0  0  0
  -88.9890   49.2860  -20.3980 O   0  0  0  0  0  0  0  0  0  0  0  0
  -90.5030   47.5500  -20.1950 N   0  0  0  0  0  0  0  0  0  0  0  0
  -91.6470   48.3850  -20.5140 C   0  0  0  0  0  0  0  0  0  0  0  0
  -90.7990   46.2180  -19.6850 C   0  0  0  0  0  0  0  0  0  0  0  0
  -86.9180   50.6500  -18.6760 N   0  0  0  0  0  0  0  0  0  0  0  0
  -86.3110   51.0190  -20.0070 C   0  0  0  0  0  0  0  0  0  0  0  0
  -87.2070   51.9010  -17.8910 C   0  0  0  0  0  0  0  0  0  0  0  0
  -84.3391   50.0371  -16.7578 H   0  0  0  0  0  0  0  0  0  0  0  0
  -84.0468   49.1838  -18.3112 H   0  0  0  0  0  0  0  0  0  0  0  0
  -84.4695   50.9296  -18.3112 H   0  0  0  0  0  0  0  0  0  0  0  0
  -86.5293   49.6146  -16.8709 H   0  0  0  0  0  0  0  0  0  0  0  0
  -86.0424   48.1711  -19.4844 H   0  0  0  0  0  0  0  0  0  0  0  0
  -85.7458   47.5478  -17.7414 H   0  0  0  0  0  0  0  0  0  0  0  0
  -87.6673   46.5999  -17.7971 H   0  0  0  0  0  0  0  0  0  0  0  0
  -88.3954   48.2742  -17.8686 H   0  0  0  0  0  0  0  0  0  0  0  0
  -92.1200   48.7302  -19.5828 H   0  0  0  0  0  0  0  0  0  0  0  0
  -91.3144   49.2542  -21.1004 H   0  0  0  0  0  0  0  0  0  0  0  0
  -92.3734   47.8033  -21.1004 H   0  0  0  0  0  0  0  0  0  0  0  0
  -90.7947   46.2372  -18.5852 H   0  0  0  0  0  0  0  0  0  0  0  0
  -91.7897   45.9003  -20.0424 H   0  0  0  0  0  0  0  0  0  0  0  0
  -90.0361   45.5107  -20.0424 H   0  0  0  0  0  0  0  0  0  0  0  0
  -87.8410   50.2280  -18.9220 H   0  0  0  0  0  0  0  0  0  0  0  0
  -85.3817   51.5839  -19.8422 H   0  0  0  0  0  0  0  0  0  0  0  0
  -86.0878   50.1036  -20.5746 H   0  0  0  0  0  0  0  0  0  0  0  0
  -87.0209   51.6385  -20.5746 H   0  0  0  0  0  0  0  0  0  0  0  0
  -87.1556   51.6787  -16.8149 H   0  0  0  0  0  0  0  0  0  0  0  0
  -86.4632   52.6715  -18.1421 H   0  0  0  0  0  0  0  0  0  0  0  0
  -88.2134   52.2672  -18.1421 H   0  0  0  0  0  0  0  0  0  0  0  0
  1  2  1  0
  2  3  1  0
  3  4  1  0
  4  5  1  0
  5  6  1  0
  6  7  2  0
  6  8  1  0
  8  9  1  0
  8 10  1  0
  2 11  1  0
 11 12  1  0
 11 13  1  0
  1 14  1  0
  1 15  1  0
  1 16  1  0
  2 17  1  1
  3 18  1  0
  3 19  1  0
  4 20  1  0
  4 21  1  0
  9 22  1  0
  9 23  1  0
  9 24  1  0
 10 25  1  0
 10 26  1  0
 10 27  1  0
 11 28  1  0
 12 29  1  0
 12 30  1  0
 12 31  1  0
 13 32  1  0
 13 33  1  0
 13 34  1  0
M  CHG  1  11   1
M  END
>  <meeko>  (2) 
{"is_sidechain": [false], "free_energy": -5.661, "intermolecular_energy": -7.355, "internal_energy": -0.431}

$$$$
3zdg_ligand
     RDKit          3D

 34 33  0  0  0  0  0  0  0  0999 V2000
  -87.2510   51.1120  -19.2380 C   0  0  0  0  0  0  0  0  0  0  0  0
  -86.4040   49.8370  -19.2800 C   0  0  2  0  0  0  0  0  0  0  0  0
  -86.7040   48.9100  -18.0800 C   0  0  0  0  0  0  0  0  0  0  0  0
  -87.0550   47.4430  -18.3340 C   0  0  0  0  0  0  0  0  0  0  0  0
  -88.3980   47.1050  -17.9720 O   0  0  0  0  0  0  0  0  0  0  0  0
  -89.2970   47.0250  -18.9920 C   0  0  0  0  0  0  0  0  0  0  0  0
  -89.1950   47.7210  -20.0010 O   0  0  0  0  0  0  0  0  0  0  0  0
  -90.2600   46.0600  -18.7940 N   0  0  0  0  0  0  0  0  0  0  0  0
  -91.3670   45.9590  -19.7300 C   0  0  0  0  0  0  0  0  0  0  0  0
  -90.4200   45.3580  -17.5290 C   0  0  0  0  0  0  0  0  0  0  0  0
  -84.9190   50.1520  -19.4290 N   0  0  0  0  0  0  0  0  0  0  0  0
  -84.1090   49.0400  -20.0490 C   0  0  0  0  0  0  0  0  0  0  0  0
  -84.2630   50.5980  -18.1490 C   0  0  0  0  0  0  0  0  0  0  0  0
  -87.4381   51.3936  -18.1912 H   0  0  0  0  0  0  0  0  0  0  0  0
  -86.7136   51.9261  -19.7463 H   0  0  0  0  0  0  0  0  0  0  0  0
  -88.2098   50.9322  -19.7463 H   0  0  0  0  0  0  0  0  0  0  0  0
  -86.6929   49.2762  -20.1811 H   0  0  0  0  0  0  0  0  0  0  0  0
  -85.8116   48.9193  -17.4369 H   0  0  0  0  0  0  0  0  0  0  0  0
  -87.6280   49.3279  -17.6539 H   0  0  0  0  0  0  0  0  0  0  0  0
  -86.9202   47.2335  -19.4054 H   0  0  0  0  0  0  0  0  0  0  0  0
  -86.3882   46.8374  -17.7027 H   0  0  0  0  0  0  0  0  0  0  0  0
  -92.3115   45.8728  -19.1729 H   0  0  0  0  0  0  0  0  0  0  0  0
  -91.3953   46.8583  -20.3628 H   0  0  0  0  0  0  0  0  0  0  0  0
  -91.2321   45.0694  -20.3628 H   0  0  0  0  0  0  0  0  0  0  0  0
  -90.2600   46.0600  -16.6973 H   0  0  0  0  0  0  0  0  0  0  0  0
  -91.4361   44.9413  -17.4668 H   0  0  0  0  0  0  0  0  0  0  0  0
  -89.6848   44.5422  -17.4668 H   0  0  0  0  0  0  0  0  0  0  0  0
  -84.8310   50.9420  -20.1050 H   0  0  0  0  0  0  0  0  0  0  0  0
  -83.6613   48.4254  -19.2541 H   0  0  0  0  0  0  0  0  0  0  0  0
  -84.7636   48.4132  -20.6724 H   0  0  0  0  0  0  0  0  0  0  0  0
  -83.3117   49.4708  -20.6724 H   0  0  0  0  0  0  0  0  0  0  0  0
  -84.8323   50.2110  -17.2910 H   0  0  0  0  0  0  0  0  0  0  0  0
  -83.2338   50.2117  -18.1105 H   0  0  0  0  0  0  0  0  0  0  0  0
  -84.2437   51.6972  -18.1105 H   0  0  0  0  0  0  0  0  0  0  0  0
  1  2  1  0
  2  3  1  0
  3  4  1  0
  4  5  1  0
  5  6  1  0
  6  7  2  0
  6  8  1  0
  8  9  1  0
  8 10  1  0
  2 11  1  0
 11 12  1  0
 11 13  1  0
  1 14  1  0
  1 15  1  0
  1 16  1  0
  2 17  1  6
  3 18  1  0
  3 19  1  0
  4 20  1  0
  4 21  1  0
  9 22  1  0
  9 23  1  0
  9 24  1  0
 10 25  1  0
 10 26  1  0
 10 27  1  0
 11 28  1  0
 12 29  1  0
 12 30  1  0
 12 31  1  0
 13 32  1  0
 13 33  1  0
 13 34  1  0
M  CHG  1  11   1
M  END
>  <meeko>  (3) 
{"is_sidechain": [false], "free_energy": -5.378, "intermolecular_energy": -7.16, "internal_energy": -0.261}

$$$$
3zdg_ligand
     RDKit          3D

 34 33  0  0  0  0  0  0  0  0999 V2000
  -86.3300   50.7750  -17.3750 C   0  0  0  0  0  0  0  0  0  0  0  0
  -85.5710   50.6830  -18.7020 C   0  0  2  0  0  0  0  0  0  0  0  0
  -86.5190   50.8140  -19.9150 C   0  0  0  0  0  0  0  0  0  0  0  0
  -87.9750   50.3610  -19.7830 C   0  0  0  0  0  0  0  0  0  0  0  0
  -88.1780   48.9830  -20.1150 O   0  0  0  0  0  0  0  0  0  0  0  0
  -89.4640   48.6020  -20.3480 C   0  0  0  0  0  0  0  0  0  0  0  0
  -90.1740   49.1820  -21.1680 O   0  0  0  0  0  0  0  0  0  0  0  0
  -89.8400   47.4870  -19.6290 N   0  0  0  0  0  0  0  0  0  0  0  0
  -91.2240   47.0520  -19.6670 C   0  0  0  0  0  0  0  0  0  0  0  0
  -89.0130   46.9180  -18.5740 C   0  0  0  0  0  0  0  0  0  0  0  0
  -84.6970   49.4340  -18.7650 N   0  0  0  0  0  0  0  0  0  0  0  0
  -84.1670   49.1170  -20.1420 C   0  0  0  0  0  0  0  0  0  0  0  0
  -85.3500   48.2080  -18.1840 C   0  0  0  0  0  0  0  0  0  0  0  0
  -85.6196   50.6889  -16.5396 H   0  0  0  0  0  0  0  0  0  0  0  0
  -86.8497   51.7427  -17.3162 H   0  0  0  0  0  0  0  0  0  0  0  0
  -87.0658   49.9595  -17.3162 H   0  0  0  0  0  0  0  0  0  0  0  0
  -84.8867   51.5427  -18.7532 H   0  0  0  0  0  0  0  0  0  0  0  0
  -86.5384   51.8781  -20.1930 H   0  0  0  0  0  0  0  0  0  0  0  0
  -86.0957   50.1154  -20.6517 H   0  0  0  0  0  0  0  0  0  0  0  0
  -88.2956   50.5191  -18.7427 H   0  0  0  0  0  0  0  0  0  0  0  0
  -88.5642   50.9554  -20.4968 H   0  0  0  0  0  0  0  0  0  0  0  0
  -91.5996   46.9340  -18.6399 H   0  0  0  0  0  0  0  0  0  0  0  0
  -91.8300   47.8030  -20.1950 H   0  0  0  0  0  0  0  0  0  0  0  0
  -91.2914   46.0893  -20.1950 H   0  0  0  0  0  0  0  0  0  0  0  0
  -89.4237   47.2006  -17.5935 H   0  0  0  0  0  0  0  0  0  0  0  0
  -89.0044   45.8219  -18.6658 H   0  0  0  0  0  0  0  0  0  0  0  0
  -87.9862   47.3017  -18.6658 H   0  0  0  0  0  0  0  0  0  0  0  0
  -83.8420   49.6180  -18.1960 H   0  0  0  0  0  0  0  0  0  0  0  0
  -83.2261   48.5543  -20.0522 H   0  0  0  0  0  0  0  0  0  0  0  0
  -84.9053   48.5121  -20.6888 H   0  0  0  0  0  0  0  0  0  0  0  0
  -83.9833   50.0536  -20.6888 H   0  0  0  0  0  0  0  0  0  0  0  0
  -85.3209   48.2627  -17.0857 H   0  0  0  0  0  0  0  0  0  0  0  0
  -86.3958   48.1551  -18.5209 H   0  0  0  0  0  0  0  0  0  0  0  0
  -84.8104   47.3106  -18.5209 H   0  0  0  0  0  0  0  0  0  0  0  0
  1  2  1  0
  2  3  1  0
  3  4  1  0
  4  5  1  0
  5  6  1  0
  6  7  2  0
  6  8  1  0
  8  9  1  0
  8 10  1  0
  2 11  1  0
 11 12  1  0
 11 13  1  0
  1 14  1  0
  1 15  1  0
  1 16  1  0
  2 17  1  1
  3 18  1  0
  3 19  1  0
  4 20  1  0
  4 21  1  0
  9 22  1  0
  9 23  1  0
  9 24  1  0
 10 25  1  0
 10 26  1  0
 10 27  1  0
 11 28  1  0
 12 29  1  0
 12 30  1  0
 12 31  1  0
 13 32  1  0
 13 33  1  0
 13 34  1  0
M  CHG  1  11   1
M  END
>  <meeko>  (4) 
{"is_sidechain": [false], "free_energy": -5.325, "intermolecular_energy": -6.996, "internal_energy": -0.355}

$$$$
3zdg_ligand
     RDKit          3D

 34 33  0  0  0  0  0  0  0  0999 V2000
  -86.5780   51.8470  -18.7200 C   0  0  0  0  0  0  0  0  0  0  0  0
  -86.4470   50.5930  -19.5900 C   0  0  2  0  0  0  0  0  0  0  0  0
  -87.8230   49.9600  -19.8940 C   0  0  0  0  0  0  0  0  0  0  0  0
  -87.9220   48.4510  -20.1220 C   0  0  0  0  0  0  0  0  0  0  0  0
  -89.1810   47.8940  -19.7290 O   0  0  0  0  0  0  0  0  0  0  0  0
  -89.1600   47.0390  -18.6690 C   0  0  0  0  0  0  0  0  0  0  0  0
  -88.2170   47.0100  -17.8790 O   0  0  0  0  0  0  0  0  0  0  0  0
  -90.3070   46.2850  -18.5550 N   0  0  0  0  0  0  0  0  0  0  0  0
  -90.3670   45.2300  -17.5590 C   0  0  0  0  0  0  0  0  0  0  0  0
  -91.3340   46.2570  -19.5870 C   0  0  0  0  0  0  0  0  0  0  0  0
  -85.4540   49.5970  -18.9980 N   0  0  0  0  0  0  0  0  0  0  0  0
  -84.9160   49.9900  -17.6440 C   0  0  0  0  0  0  0  0  0  0  0  0
  -84.3090   49.2650  -19.9170 C   0  0  0  0  0  0  0  0  0  0  0  0
  -86.5482   51.5613  -17.6582 H   0  0  0  0  0  0  0  0  0  0  0  0
  -85.7467   52.5334  -18.9386 H   0  0  0  0  0  0  0  0  0  0  0  0
  -87.5332   52.3467  -18.9386 H   0  0  0  0  0  0  0  0  0  0  0  0
  -86.0312   50.9045  -20.5596 H   0  0  0  0  0  0  0  0  0  0  0  0
  -88.4803   50.1995  -19.0451 H   0  0  0  0  0  0  0  0  0  0  0  0
  -88.0951   50.3879  -20.8701 H   0  0  0  0  0  0  0  0  0  0  0  0
  -87.7720   48.2504  -21.1931 H   0  0  0  0  0  0  0  0  0  0  0  0
  -87.1505   47.9786  -19.4962 H   0  0  0  0  0  0  0  0  0  0  0  0
  -90.3418   45.6738  -16.5528 H   0  0  0  0  0  0  0  0  0  0  0  0
  -91.2990   44.6595  -17.6848 H   0  0  0  0  0  0  0  0  0  0  0  0
  -89.5056   44.5575  -17.6848 H   0  0  0  0  0  0  0  0  0  0  0  0
  -92.3273   46.2299  -19.1152 H   0  0  0  0  0  0  0  0  0  0  0  0
  -91.2497   47.1578  -20.2127 H   0  0  0  0  0  0  0  0  0  0  0  0
  -91.2008   45.3622  -20.2127 H   0  0  0  0  0  0  0  0  0  0  0  0
  -85.9680   48.7060  -18.8220 H   0  0  0  0  0  0  0  0  0  0  0  0
  -85.5367   49.5366  -16.8571 H   0  0  0  0  0  0  0  0  0  0  0  0
  -83.8798   49.6347  -17.5439 H   0  0  0  0  0  0  0  0  0  0  0  0
  -84.9394   51.0852  -17.5439 H   0  0  0  0  0  0  0  0  0  0  0  0
  -83.4220   49.0078  -19.3195 H   0  0  0  0  0  0  0  0  0  0  0  0
  -84.5843   48.4097  -20.5515 H   0  0  0  0  0  0  0  0  0  0  0  0
  -84.0840   50.1349  -20.5515 H   0  0  0  0  0  0  0  0  0  0  0  0
  1  2  1  0
  2  3  1  0
  3  4  1  0
  4  5  1  0
  5  6  1  0
  6  7  2  0
  6  8  1  0
  8  9  1  0
  8 10  1  0
  2 11  1  0
 11 12  1  0
 11 13  1  0
  1 14  1  0
  1 15  1  0
  1 16  1  0
  2 17  1  6
  3 18  1  0
  3 19  1  0
  4 20  1  0
  4 21  1  0
  9 22  1  0
  9 23  1  0
  9 24  1  0
 10 25  1  0
 10 26  1  0
 10 27  1  0
 11 28  1  0
 12 29  1  0
 12 30  1  0
 12 31  1  0
 13 32  1  0
 13 33  1  0
 13 34  1  0
M  CHG  1  11   1
M  END
>  <meeko>  (5) 
{"is_sidechain": [false], "free_energy": -5.196, "intermolecular_energy": -6.925, "internal_energy": -0.26}

$$$$
3zdg_ligand
     RDKit          3D

 34 33  0  0  0  0  0  0  0  0999 V2000
  -91.1350   46.1430  -19.6620 C   0  0  0  0  0  0  0  0  0  0  0  0
  -89.9340   47.0930  -19.6150 C   0  0  2  0  0  0  0  0  0  0  0  0
  -89.1530   46.9650  -18.2890 C   0  0  0  0  0  0  0  0  0  0  0  0
  -87.6300   47.1120  -18.2970 C   0  0  0  0  0  0  0  0  0  0  0  0
  -87.1750   48.3800  -17.8120 O   0  0  0  0  0  0  0  0  0  0  0  0
  -85.8830   48.7050  -18.0940 C   0  0  0  0  0  0  0  0  0  0  0  0
  -85.0210   47.8450  -18.2640 O   0  0  0  0  0  0  0  0  0  0  0  0
  -85.6800   50.0620  -18.2260 N   0  0  0  0  0  0  0  0  0  0  0  0
  -84.3270   50.5650  -18.3840 C   0  0  0  0  0  0  0  0  0  0  0  0
  -86.6980   51.0450  -17.8830 C   0  0  0  0  0  0  0  0  0  0  0  0
  -90.3410   48.5300  -19.9280 N   0  0  0  0  0  0  0  0  0  0  0  0
  -91.5030   48.6520  -20.8830 C   0  0  0  0  0  0  0  0  0  0  0  0
  -89.2030   49.3900  -20.4100 C   0  0  0  0  0  0  0  0  0  0  0  0
  -91.4474   45.8959  -18.6366 H   0  0  0  0  0  0  0  0  0  0  0  0
  -91.9672   46.6299  -20.1916 H   0  0  0  0  0  0  0  0  0  0  0  0
  -90.8528   45.2211  -20.1916 H   0  0  0  0  0  0  0  0  0  0  0  0
  -89.2381   46.7881  -20.4105 H   0  0  0  0  0  0  0  0  0  0  0  0
  -89.5458   47.7362  -17.6101 H   0  0  0  0  0  0  0  0  0  0  0  0
  -89.3109   45.9168  -17.9952 H   0  0  0  0  0  0  0  0  0  0  0  0
  -87.2009   46.3224  -17.6626 H   0  0  0  0  0  0  0  0  0  0  0  0
  -87.3031   47.0304  -19.3441 H   0  0  0  0  0  0  0  0  0  0  0  0
  -83.8796   50.7313  -17.3930 H   0  0  0  0  0  0  0  0  0  0  0  0
  -83.7253   49.8305  -18.9394 H   0  0  0  0  0  0  0  0  0  0  0  0
  -84.3512   51.5142  -18.9394 H   0  0  0  0  0  0  0  0  0  0  0  0
  -86.7786   51.1228  -16.7887 H   0  0  0  0  0  0  0  0  0  0  0  0
  -86.4183   52.0235  -18.3006 H   0  0  0  0  0  0  0  0  0  0  0  0
  -87.6661   50.7313  -18.3006 H   0  0  0  0  0  0  0  0  0  0  0  0
  -90.6890   48.9590  -19.0430 H   0  0  0  0  0  0  0  0  0  0  0  0
  -92.4381   48.7502  -20.3121 H   0  0  0  0  0  0  0  0  0  0  0  0
  -91.3652   49.5406  -21.5165 H   0  0  0  0  0  0  0  0  0  0  0  0
  -91.5528   47.7541  -21.5165 H   0  0  0  0  0  0  0  0  0  0  0  0
  -88.6610   49.7996  -19.5449 H   0  0  0  0  0  0  0  0  0  0  0  0
  -88.5168   48.7828  -21.0186 H   0  0  0  0  0  0  0  0  0  0  0  0
  -89.5998   50.2159  -21.0186 H   0  0  0  0  0  0  0  0  0  0  0  0
  1  2  1  0
  2  3  1  0
  3  4  1  0
  4  5  1  0
  5  6  1  0
  6  7  2  0
  6  8  1  0
  8  9  1  0
  8 10  1  0
  2 11  1  0
 11 12  1  0
 11 13  1  0
  1 14  1  0
  1 15  1  0
  1 16  1  0
  2 17  1  6
  3 18  1  0
  3 19  1  0
  4 20  1  0
  4 21  1  0
  9 22  1  0
  9 23  1  0
  9 24  1  0
 10 25  1  0
 10 26  1  0
 10 27  1  0
 11 28  1  0
 12 29  1  0
 12 30  1  0
 12 31  1  0
 13 32  1  0
 13 33  1  0
 13 34  1  0
M  CHG  1  11   1
M  END
>  <meeko>  (6) 
{"is_sidechain": [false], "free_energy": -5.159, "intermolecular_energy": -6.942, "internal_energy": -0.195}

$$$$
3zdg_ligand
     RDKit          3D

 34 33  0  0  0  0  0  0  0  0999 V2000
  -87.9310   47.4160  -18.5190 C   0  0  0  0  0  0  0  0  0  0  0  0
  -88.8940   47.4280  -19.7100 C   0  0  2  0  0  0  0  0  0  0  0  0
  -88.8100   48.7530  -20.5010 C   0  0  0  0  0  0  0  0  0  0  0  0
  -88.3990   50.0360  -19.7770 C   0  0  0  0  0  0  0  0  0  0  0  0
  -87.1000   50.5110  -20.1470 O   0  0  0  0  0  0  0  0  0  0  0  0
  -86.3160   50.9750  -19.1350 C   0  0  0  0  0  0  0  0  0  0  0  0
  -86.6160   51.9800  -18.4920 O   0  0  0  0  0  0  0  0  0  0  0  0
  -85.2210   50.1770  -18.8840 N   0  0  0  0  0  0  0  0  0  0  0  0
  -84.2200   50.6240  -17.9320 C   0  0  0  0  0  0  0  0  0  0  0  0
  -84.8350   49.0770  -19.7570 C   0  0  0  0  0  0  0  0  0  0  0  0
  -90.3180   47.0800  -19.2870 N   0  0  0  0  0  0  0  0  0  0  0  0
  -90.5960   45.5990  -19.2070 C   0  0  0  0  0  0  0  0  0  0  0  0
  -91.3780   47.7460  -20.1220 C   0  0  0  0  0  0  0  0  0  0  0  0
  -88.5068   47.4232  -17.5818 H   0  0  0  0  0  0  0  0  0  0  0  0
  -87.3085   46.5100  -18.5599 H   0  0  0  0  0  0  0  0  0  0  0  0
  -87.2861   48.3062  -18.5599 H   0  0  0  0  0  0  0  0  0  0  0  0
  -88.5748   46.6353  -20.4026 H   0  0  0  0  0  0  0  0  0  0  0  0
  -88.0836   48.5963  -21.3121 H   0  0  0  0  0  0  0  0  0  0  0  0
  -89.8521   48.9448  -20.7963 H   0  0  0  0  0  0  0  0  0  0  0  0
  -89.1354   50.8188  -20.0112 H   0  0  0  0  0  0  0  0  0  0  0  0
  -88.3638   49.8033  -18.7025 H   0  0  0  0  0  0  0  0  0  0  0  0
  -84.5881   50.4596  -16.9085 H   0  0  0  0  0  0  0  0  0  0  0  0
  -83.2905   50.0554  -18.0831 H   0  0  0  0  0  0  0  0  0  0  0  0
  -84.0230   51.6956  -18.0831 H   0  0  0  0  0  0  0  0  0  0  0  0
  -84.5320   48.2135  -19.1467 H   0  0  0  0  0  0  0  0  0  0  0  0
  -85.6882   48.7960  -20.3919 H   0  0  0  0  0  0  0  0  0  0  0  0
  -83.9933   49.3907  -20.3919 H   0  0  0  0  0  0  0  0  0  0  0  0
  -90.4480   47.4190  -18.3080 H   0  0  0  0  0  0  0  0  0  0  0  0
  -90.6534   45.2932  -18.1519 H   0  0  0  0  0  0  0  0  0  0  0  0
  -91.5514   45.3778  -19.7054 H   0  0  0  0  0  0  0  0  0  0  0  0
  -89.7859   45.0464  -19.7054 H   0  0  0  0  0  0  0  0  0  0  0  0
  -92.1236   48.2144  -19.4627 H   0  0  0  0  0  0  0  0  0  0  0  0
  -90.9148   48.5157  -20.7569 H   0  0  0  0  0  0  0  0  0  0  0  0
  -91.8705   46.9947  -20.7569 H   0  0  0  0  0  0  0  0  0  0  0  0
  1  2  1  0
  2  3  1  0
  3  4  1  0
  4  5  1  0
  5  6  1  0
  6  7  2  0
  6  8  1  0
  8  9  1  0
  8 10  1  0
  2 11  1  0
 11 12  1  0
 11 13  1  0
  1 14  1  0
  1 15  1  0
  1 16  1  0
  2 17  1  6
  3 18  1  0
  3 19  1  0
  4 20  1  0
  4 21  1  0
  9 22  1  0
  9 23  1  0
  9 24  1  0
 10 25  1  0
 10 26  1  0
 10 27  1  0
 11 28  1  0
 12 29  1  0
 12 30  1  0
 12 31  1  0
 13 32  1  0
 13 33  1  0
 13 34  1  0
M  CHG  1  11   1
M  END
>  <meeko>  (7) 
{"is_sidechain": [false], "free_energy": -4.907, "intermolecular_energy": -6.457, "internal_energy": -0.354}

$$$$
3zdg_ligand
     RDKit          3D

 34 33  0  0  0  0  0  0  0  0999 V2000
  -91.5140   46.1010  -19.8230 C   0  0  0  0  0  0  0  0  0  0  0  0
  -90.8060   47.4330  -19.5610 C   0  0  2  0  0  0  0  0  0  0  0  0
  -90.3990   48.1350  -20.8760 C   0  0  0  0  0  0  0  0  0  0  0  0
  -91.4610   48.8730  -21.6930 C   0  0  0  0  0  0  0  0  0  0  0  0
  -91.5510   48.4280  -23.0510 O   0  0  0  0  0  0  0  0  0  0  0  0
  -91.9880   49.3440  -23.9590 C   0  0  0  0  0  0  0  0  0  0  0  0
  -92.6670   50.3140  -23.6260 O   0  0  0  0  0  0  0  0  0  0  0  0
  -91.5390   49.0980  -25.2380 N   0  0  0  0  0  0  0  0  0  0  0  0
  -92.0420   49.9080  -26.3340 C   0  0  0  0  0  0  0  0  0  0  0  0
  -90.8530   47.8680  -25.6070 C   0  0  0  0  0  0  0  0  0  0  0  0
  -89.6390   47.2700  -18.5910 N   0  0  0  0  0  0  0  0  0  0  0  0
  -88.2860   47.5510  -19.1960 C   0  0  0  0  0  0  0  0  0  0  0  0
  -89.6120   45.9340  -17.8980 C   0  0  0  0  0  0  0  0  0  0  0  0
  -91.7669   45.6253  -18.8640 H   0  0  0  0  0  0  0  0  0  0  0  0
  -92.4350   46.2819  -20.3966 H   0  0  0  0  0  0  0  0  0  0  0  0
  -90.8488   45.4388  -20.3966 H   0  0  0  0  0  0  0  0  0  0  0  0
  -91.5281   48.1001  -19.0674 H   0  0  0  0  0  0  0  0  0  0  0  0
  -89.6232   48.8714  -20.6193 H   0  0  0  0  0  0  0  0  0  0  0  0
  -90.0984   47.3042  -21.5313 H   0  0  0  0  0  0  0  0  0  0  0  0
  -92.4382   48.7206  -21.2116 H   0  0  0  0  0  0  0  0  0  0  0  0
  -91.1686   49.9331  -21.7196 H   0  0  0  0  0  0  0  0  0  0  0  0
  -92.5817   50.7772  -25.9299 H   0  0  0  0  0  0  0  0  0  0  0  0
  -91.1996   50.2539  -26.9510 H   0  0  0  0  0  0  0  0  0  0  0  0
  -92.7256   49.3063  -26.9510 H   0  0  0  0  0  0  0  0  0  0  0  0
  -90.5522   47.3287  -24.6967 H   0  0  0  0  0  0  0  0  0  0  0  0
  -91.5286   47.2355  -26.2015 H   0  0  0  0  0  0  0  0  0  0  0  0
  -89.9598   48.1105  -26.2015 H   0  0  0  0  0  0  0  0  0  0  0  0
  -89.7440   47.9940  -17.8470 H   0  0  0  0  0  0  0  0  0  0  0  0
  -87.5499   47.7039  -18.3930 H   0  0  0  0  0  0  0  0  0  0  0  0
  -87.9781   46.6976  -19.8181 H   0  0  0  0  0  0  0  0  0  0  0  0
  -88.3434   48.4564  -19.8181 H   0  0  0  0  0  0  0  0  0  0  0  0
  -89.6151   46.0859  -16.8085 H   0  0  0  0  0  0  0  0  0  0  0  0
  -90.4986   45.3517  -18.1895 H   0  0  0  0  0  0  0  0  0  0  0  0
  -88.7026   45.3880  -18.1895 H   0  0  0  0  0  0  0  0  0  0  0  0
  1  2  1  0
  2  3  1  0
  3  4  1  0
  4  5  1  0
  5  6  1  0
  6  7  2  0
  6  8  1  0
  8  9  1  0
  8 10  1  0
  2 11  1  0
 11 12  1  0
 11 13  1  0
  1 14  1  0
  1 15  1  0
  1 16  1  0
  2 17  1  1
  3 18  1  0
  3 19  1  0
  4 20  1  0
  4 21  1  0
  9 22  1  0
  9 23  1  0
  9 24  1  0
 10 25  1  0
 10 26  1  0
 10 27  1  0
 11 28  1  0
 12 29  1  0
 12 30  1  0
 12 31  1  0
 13 32  1  0
 13 33  1  0
 13 34  1  0
M  CHG  1  11   1
M  END
>  <meeko>  (8) 
{"is_sidechain": [false], "free_energy": -4.444, "intermolecular_energy": -6.023, "internal_energy": -0.189}

$$$$
3zdg_ligand
     RDKit          3D

 34 33  0  0  0  0  0  0  0  0999 V2000
  -90.9320   48.3380  -20.2640 C   0  0  0  0  0  0  0  0  0  0  0  0
  -90.1640   47.5660  -19.1870 C   0  0  2  0  0  0  0  0  0  0  0  0
  -88.7350   47.2040  -19.6500 C   0  0  0  0  0  0  0  0  0  0  0  0
  -87.5870   47.2340  -18.6390 C   0  0  0  0  0  0  0  0  0  0  0  0
  -87.2230   48.5550  -18.2250 O   0  0  0  0  0  0  0  0  0  0  0  0
  -85.8910   48.8350  -18.2030 C   0  0  0  0  0  0  0  0  0  0  0  0
  -85.0450   47.9530  -18.0660 O   0  0  0  0  0  0  0  0  0  0  0  0
  -85.6120   50.1690  -18.4120 N   0  0  0  0  0  0  0  0  0  0  0  0
  -84.2450   50.6380  -18.2730 C   0  0  0  0  0  0  0  0  0  0  0  0
  -86.6470   51.1930  -18.4340 C   0  0  0  0  0  0  0  0  0  0  0  0
  -90.9510   46.3560  -18.6920 N   0  0  0  0  0  0  0  0  0  0  0  0
  -90.2630   45.5730  -17.6010 C   0  0  0  0  0  0  0  0  0  0  0  0
  -91.3760   45.4200  -19.7920 C   0  0  0  0  0  0  0  0  0  0  0  0
  -91.6302   49.0398  -19.7845 H   0  0  0  0  0  0  0  0  0  0  0  0
  -90.2220   48.8977  -20.8905 H   0  0  0  0  0  0  0  0  0  0  0  0
  -91.4954   47.6309  -20.8905 H   0  0  0  0  0  0  0  0  0  0  0  0
  -90.0461   48.2339  -18.3209 H   0  0  0  0  0  0  0  0  0  0  0  0
  -88.7787   46.1821  -20.0548 H   0  0  0  0  0  0  0  0  0  0  0  0
  -88.4798   48.0082  -20.3558 H   0  0  0  0  0  0  0  0  0  0  0  0
  -87.8915   46.6623  -17.7499 H   0  0  0  0  0  0  0  0  0  0  0  0
  -86.7079   46.7977  -19.1358 H   0  0  0  0  0  0  0  0  0  0  0  0
  -83.9937   50.7242  -17.2056 H   0  0  0  0  0  0  0  0  0  0  0  0
  -83.5613   49.9230  -18.7541 H   0  0  0  0  0  0  0  0  0  0  0  0
  -84.1443   51.6221  -18.7541 H   0  0  0  0  0  0  0  0  0  0  0  0
  -86.9188   51.4619  -17.4026 H   0  0  0  0  0  0  0  0  0  0  0  0
  -86.2704   52.0838  -18.9580 H   0  0  0  0  0  0  0  0  0  0  0  0
  -87.5337   50.8069  -18.9580 H   0  0  0  0  0  0  0  0  0  0  0  0
  -91.8240   46.7100  -18.2440 H   0  0  0  0  0  0  0  0  0  0  0  0
  -90.5908   45.9460  -16.6195 H   0  0  0  0  0  0  0  0  0  0  0  0
  -90.5230   44.5082  -17.6941 H   0  0  0  0  0  0  0  0  0  0  0  0
  -89.1736   45.6939  -17.6941 H   0  0  0  0  0  0  0  0  0  0  0  0
  -91.7928   44.5021  -19.3518 H   0  0  0  0  0  0  0  0  0  0  0  0
  -92.1407   45.9083  -20.4139 H   0  0  0  0  0  0  0  0  0  0  0  0
  -90.5051   45.1657  -20.4139 H   0  0  0  0  0  0  0  0  0  0  0  0
  1  2  1  0
  2  3  1  0
  3  4  1  0
  4  5  1  0
  5  6  1  0
  6  7  2  0
  6  8  1  0
  8  9  1  0
  8 10  1  0
  2 11  1  0
 11 12  1  0
 11 13  1  0
  1 14  1  0
  1 15  1  0
  1 16  1  0
  2 17  1  1
  3 18  1  0
  3 19  1  0
  4 20  1  0
  4 21  1  0
  9 22  1  0
  9 23  1  0
  9 24  1  0
 10 25  1  0
 10 26  1  0
 10 27  1  0
 11 28  1  0
 12 29  1  0
 12 30  1  0
 12 31  1  0
 13 32  1  0
 13 33  1  0
 13 34  1  0
M  CHG  1  11   1
M  END
>  <meeko>  (9) 
{"is_sidechain": [false], "free_energy": -4.351, "intermolecular_energy": -6.083, "internal_energy": -0.009}

$$$$
