4mme_ligand
     RDKit          3D

 31 34  0  0  0  0  0  0  0  0999 V2000
  104.5170   23.3710   34.6210 O   0  0  0  0  0  0  0  0  0  0  0  0
  103.4340   22.7840   35.3420 C   0  0  2  0  0  0  0  0  0  0  0  0
  102.5320   21.9380   34.4520 C   0  0  0  0  0  0  0  0  0  0  0  0
  102.8040   21.7840   33.0790 C   0  0  0  0  0  0  0  0  0  0  0  0
  101.9760   21.0100   32.2610 C   0  0  0  0  0  0  0  0  0  0  0  0
  100.8630   20.3760   32.8030 C   0  0  0  0  0  0  0  0  0  0  0  0
   99.8450   19.4230   31.7950 Cl  0  0  0  0  0  0  0  0  0  0  0  0
  100.5700   20.5070   34.1560 C   0  0  0  0  0  0  0  0  0  0  0  0
  101.3980   21.2820   34.9760 C   0  0  0  0  0  0  0  0  0  0  0  0
  102.7030   23.8730   36.1400 C   0  0  0  0  0  0  0  0  0  0  0  0
  101.9620   24.9510   35.6810 C   0  0  0  0  0  0  0  0  0  0  0  0
  101.4000   25.8090   36.6320 C   0  0  0  0  0  0  0  0  0  0  0  0
  101.5840   25.5870   38.0110 C   0  0  0  0  0  0  0  0  0  0  0  0
  102.3360   24.5030   38.4730 C   0  0  0  0  0  0  0  0  0  0  0  0
  102.8830   23.6650   37.5270 C   0  0  0  0  0  0  0  0  0  0  0  0
  103.6970   22.4950   37.6760 C   0  0  0  0  0  0  0  0  0  0  0  0
  104.2310   21.7850   38.6320 N   0  0  0  0  0  0  0  0  0  0  0  0
  104.9280   20.7920   37.9600 C   0  0  0  0  0  0  0  0  0  0  0  0
  104.8070   20.9160   36.5850 C   0  0  0  0  0  0  0  0  0  0  0  0
  104.0080   21.9930   36.4380 N   0  0  0  0  0  0  0  0  0  0  0  0
  104.1320   24.0810   34.0780 H   0  0  0  0  0  0  0  0  0  0  0  0
  103.6829   22.2812   32.6428 H   0  0  0  0  0  0  0  0  0  0  0  0
  102.2043   20.9025   31.1903 H   0  0  0  0  0  0  0  0  0  0  0  0
   99.6895   20.0027   34.5808 H   0  0  0  0  0  0  0  0  0  0  0  0
  101.1611   21.3813   36.0456 H   0  0  0  0  0  0  0  0  0  0  0  0
  101.8206   25.1259   34.6042 H   0  0  0  0  0  0  0  0  0  0  0  0
  100.8045   26.6713   36.2977 H   0  0  0  0  0  0  0  0  0  0  0  0
  101.1286   26.2778   38.7358 H   0  0  0  0  0  0  0  0  0  0  0  0
  102.4848   24.3265   39.5485 H   0  0  0  0  0  0  0  0  0  0  0  0
  105.5073   20.0009   38.4585 H   0  0  0  0  0  0  0  0  0  0  0  0
  105.2550   20.2871   35.8015 H   0  0  0  0  0  0  0  0  0  0  0  0
  2  1  1  6
  2  3  1  0
  3  4  2  0
  4  5  1  0
  5  6  2  0
  6  7  1  0
  6  8  1  0
  8  9  2  0
  2 10  1  0
 10 11  2  0
 11 12  1  0
 12 13  2  0
 13 14  1  0
 14 15  2  0
 15 16  1  0
 16 17  2  0
 17 18  1  0
 18 19  2  0
 19 20  1  0
 20  2  1  0
  9  3  1  0
 15 10  1  0
 20 16  1  0
  1 21  1  0
  4 22  1  0
  5 23  1  0
  8 24  1  0
  9 25  1  0
 11 26  1  0
 12 27  1  0
 13 28  1  0
 14 29  1  0
 18 30  1  0
 19 31  1  0
M  END
>  <meeko>  (1) 
{"is_sidechain": [false], "free_energy": -9.125, "intermolecular_energy": -9.925, "internal_energy": -0.632}

$$$$
4mme_ligand
     RDKit          3D

 31 34  0  0  0  0  0  0  0  0999 V2000
  102.8450   33.2430   34.5620 O   0  0  0  0  0  0  0  0  0  0  0  0
  103.0290   32.7340   33.2420 C   0  0  2  0  0  0  0  0  0  0  0  0
  102.5770   33.7180   32.1690 C   0  0  0  0  0  0  0  0  0  0  0  0
  102.6310   33.3780   30.8040 C   0  0  0  0  0  0  0  0  0  0  0  0
  102.2190   34.2800   29.8180 C   0  0  0  0  0  0  0  0  0  0  0  0
  101.7440   35.5360   30.1830 C   0  0  0  0  0  0  0  0  0  0  0  0
  101.2370   36.6440   28.9690 Cl  0  0  0  0  0  0  0  0  0  0  0  0
  101.6770   35.8990   31.5240 C   0  0  0  0  0  0  0  0  0  0  0  0
  102.0890   34.9970   32.5100 C   0  0  0  0  0  0  0  0  0  0  0  0
  102.3920   31.3410   33.1400 C   0  0  0  0  0  0  0  0  0  0  0  0
  101.0570   30.9780   33.2150 C   0  0  0  0  0  0  0  0  0  0  0  0
  100.7420   29.6200   33.0970 C   0  0  0  0  0  0  0  0  0  0  0  0
  101.7500   28.6530   32.9090 C   0  0  0  0  0  0  0  0  0  0  0  0
  103.0960   29.0190   32.8380 C   0  0  0  0  0  0  0  0  0  0  0  0
  103.3940   30.3590   32.9550 C   0  0  0  0  0  0  0  0  0  0  0  0
  104.6540   31.0410   32.9340 C   0  0  0  0  0  0  0  0  0  0  0  0
  105.9230   30.7560   32.8210 N   0  0  0  0  0  0  0  0  0  0  0  0
  106.5510   31.9890   32.9300 C   0  0  0  0  0  0  0  0  0  0  0  0
  105.6410   33.0180   33.1130 C   0  0  0  0  0  0  0  0  0  0  0  0
  104.4490   32.3880   33.0940 N   0  0  0  0  0  0  0  0  0  0  0  0
  103.6690   33.0590   35.0450 H   0  0  0  0  0  0  0  0  0  0  0  0
  103.0035   32.3862   30.5080 H   0  0  0  0  0  0  0  0  0  0  0  0
  102.2703   33.9973   28.7562 H   0  0  0  0  0  0  0  0  0  0  0  0
  101.3010   36.8929   31.8082 H   0  0  0  0  0  0  0  0  0  0  0  0
  102.0316   35.2895   33.5688 H   0  0  0  0  0  0  0  0  0  0  0  0
  100.2705   31.7328   33.3625 H   0  0  0  0  0  0  0  0  0  0  0  0
   99.6905   29.3018   33.1518 H   0  0  0  0  0  0  0  0  0  0  0  0
  101.4721   27.5927   32.8167 H   0  0  0  0  0  0  0  0  0  0  0  0
  103.8864   28.2676   32.6944 H   0  0  0  0  0  0  0  0  0  0  0  0
  107.6404   32.1322   32.8774 H   0  0  0  0  0  0  0  0  0  0  0  0
  105.8428   34.0915   33.2427 H   0  0  0  0  0  0  0  0  0  0  0  0
  2  1  1  1
  2  3  1  0
  3  4  2  0
  4  5  1  0
  5  6  2  0
  6  7  1  0
  6  8  1  0
  8  9  2  0
  2 10  1  0
 10 11  2  0
 11 12  1  0
 12 13  2  0
 13 14  1  0
 14 15  2  0
 15 16  1  0
 16 17  2  0
 17 18  1  0
 18 19  2  0
 19 20  1  0
 20  2  1  0
  9  3  1  0
 15 10  1  0
 20 16  1  0
  1 21  1  0
  4 22  1  0
  5 23  1  0
  8 24  1  0
  9 25  1  0
 11 26  1  0
 12 27  1  0
 13 28  1  0
 14 29  1  0
 18 30  1  0
 19 31  1  0
M  END
>  <meeko>  (2) 
{"is_sidechain": [false], "free_energy": -7.955, "intermolecular_energy": -8.653, "internal_energy": -0.632}

$$$$
4mme_ligand
     RDKit          3D

 31 34  0  0  0  0  0  0  0  0999 V2000
  100.2330   26.9240   35.0810 O   0  0  0  0  0  0  0  0  0  0  0  0
  101.5130   27.0920   35.6890 C   0  0  2  0  0  0  0  0  0  0  0  0
  102.4990   27.8190   34.7820 C   0  0  0  0  0  0  0  0  0  0  0  0
  103.8620   27.9160   35.1220 C   0  0  0  0  0  0  0  0  0  0  0  0
  104.7670   28.5840   34.2920 C   0  0  0  0  0  0  0  0  0  0  0  0
  104.3240   29.1660   33.1080 C   0  0  0  0  0  0  0  0  0  0  0  0
  105.4380   29.9880   32.0880 Cl  0  0  0  0  0  0  0  0  0  0  0  0
  102.9830   29.0850   32.7460 C   0  0  0  0  0  0  0  0  0  0  0  0
  102.0770   28.4160   33.5750 C   0  0  0  0  0  0  0  0  0  0  0  0
  102.0090   25.7370   36.2130 C   0  0  0  0  0  0  0  0  0  0  0  0
  102.3670   24.5990   35.5080 C   0  0  0  0  0  0  0  0  0  0  0  0
  102.7830   23.4810   36.2400 C   0  0  0  0  0  0  0  0  0  0  0  0
  102.8330   23.5110   37.6470 C   0  0  0  0  0  0  0  0  0  0  0  0
  102.4680   24.6570   38.3580 C   0  0  0  0  0  0  0  0  0  0  0  0
  102.0610   25.7510   37.6270 C   0  0  0  0  0  0  0  0  0  0  0  0
  101.6210   27.0470   38.0520 C   0  0  0  0  0  0  0  0  0  0  0  0
  101.4200   27.7000   39.1650 N   0  0  0  0  0  0  0  0  0  0  0  0
  100.9450   28.9340   38.7450 C   0  0  0  0  0  0  0  0  0  0  0  0
  100.8620   29.0120   37.3640 C   0  0  0  0  0  0  0  0  0  0  0  0
  101.3130   27.8090   36.9550 N   0  0  0  0  0  0  0  0  0  0  0  0
   99.6780   26.4610   35.7320 H   0  0  0  0  0  0  0  0  0  0  0  0
  104.2205   27.4587   36.0560 H   0  0  0  0  0  0  0  0  0  0  0  0
  105.8281   28.6496   34.5744 H   0  0  0  0  0  0  0  0  0  0  0  0
  102.6362   29.5463   31.8096 H   0  0  0  0  0  0  0  0  0  0  0  0
  101.0187   28.3542   33.2816 H   0  0  0  0  0  0  0  0  0  0  0  0
  102.3256   24.5751   34.4090 H   0  0  0  0  0  0  0  0  0  0  0  0
  103.0756   22.5640   35.7076 H   0  0  0  0  0  0  0  0  0  0  0  0
  103.1650   22.6172   38.1955 H   0  0  0  0  0  0  0  0  0  0  0  0
  102.5042   24.6844   39.4571 H   0  0  0  0  0  0  0  0  0  0  0  0
  100.6677   29.7520   39.4262 H   0  0  0  0  0  0  0  0  0  0  0  0
  100.5119   29.8539   36.7487 H   0  0  0  0  0  0  0  0  0  0  0  0
  2  1  1  6
  2  3  1  0
  3  4  2  0
  4  5  1  0
  5  6  2  0
  6  7  1  0
  6  8  1  0
  8  9  2  0
  2 10  1  0
 10 11  2  0
 11 12  1  0
 12 13  2  0
 13 14  1  0
 14 15  2  0
 15 16  1  0
 16 17  2  0
 17 18  1  0
 18 19  2  0
 19 20  1  0
 20  2  1  0
  9  3  1  0
 15 10  1  0
 20 16  1  0
  1 21  1  0
  4 22  1  0
  5 23  1  0
  8 24  1  0
  9 25  1  0
 11 26  1  0
 12 27  1  0
 13 28  1  0
 14 29  1  0
 18 30  1  0
 19 31  1  0
M  END
>  <meeko>  (3) 
{"is_sidechain": [false], "free_energy": -7.828, "intermolecular_energy": -8.523, "internal_energy": -0.624}

$$$$
4mme_ligand
     RDKit          3D

 31 34  0  0  0  0  0  0  0  0999 V2000
  103.7530   31.0410   31.7360 O   0  0  0  0  0  0  0  0  0  0  0  0
  103.5530   32.1510   32.6100 C   0  0  2  0  0  0  0  0  0  0  0  0
  102.9070   33.3380   31.9040 C   0  0  0  0  0  0  0  0  0  0  0  0
  102.7500   33.3530   30.5060 C   0  0  0  0  0  0  0  0  0  0  0  0
  102.1600   34.4420   29.8570 C   0  0  0  0  0  0  0  0  0  0  0  0
  101.7170   35.5330   30.5980 C   0  0  0  0  0  0  0  0  0  0  0  0
  100.9910   36.8730   29.7980 Cl  0  0  0  0  0  0  0  0  0  0  0  0
  101.8570   35.5460   31.9810 C   0  0  0  0  0  0  0  0  0  0  0  0
  102.4470   34.4570   32.6310 C   0  0  0  0  0  0  0  0  0  0  0  0
  104.8690   32.4760   33.3300 C   0  0  0  0  0  0  0  0  0  0  0  0
  106.0610   32.9540   32.8100 C   0  0  0  0  0  0  0  0  0  0  0  0
  107.1240   33.1610   33.6960 C   0  0  0  0  0  0  0  0  0  0  0  0
  106.9880   32.8880   35.0720 C   0  0  0  0  0  0  0  0  0  0  0  0
  105.7870   32.4010   35.5950 C   0  0  0  0  0  0  0  0  0  0  0  0
  104.7480   32.2030   34.7130 C   0  0  0  0  0  0  0  0  0  0  0  0
  103.4190   31.7130   34.9310 C   0  0  0  0  0  0  0  0  0  0  0  0
  102.6810   31.2810   35.9170 N   0  0  0  0  0  0  0  0  0  0  0  0
  101.4770   30.9490   35.3120 C   0  0  0  0  0  0  0  0  0  0  0  0
  101.5040   31.1870   33.9470 C   0  0  0  0  0  0  0  0  0  0  0  0
  102.7390   31.6860   33.7400 N   0  0  0  0  0  0  0  0  0  0  0  0
  102.9340   30.9460   31.2190 H   0  0  0  0  0  0  0  0  0  0  0  0
  103.0972   32.4937   29.9136 H   0  0  0  0  0  0  0  0  0  0  0  0
  102.0464   34.4361   28.7629 H   0  0  0  0  0  0  0  0  0  0  0  0
  101.5047   36.4105   32.5627 H   0  0  0  0  0  0  0  0  0  0  0  0
  102.5541   34.4729   33.7257 H   0  0  0  0  0  0  0  0  0  0  0  0
  106.1682   33.1639   31.7356 H   0  0  0  0  0  0  0  0  0  0  0  0
  108.0815   33.5431   33.3123 H   0  0  0  0  0  0  0  0  0  0  0  0
  107.8407   33.0610   35.7450 H   0  0  0  0  0  0  0  0  0  0  0  0
  105.6761   32.1846   36.6678 H   0  0  0  0  0  0  0  0  0  0  0  0
  100.6067   30.5458   35.8506 H   0  0  0  0  0  0  0  0  0  0  0  0
  100.7078   31.0108   33.2088 H   0  0  0  0  0  0  0  0  0  0  0  0
  2  1  1  6
  2  3  1  0
  3  4  2  0
  4  5  1  0
  5  6  2  0
  6  7  1  0
  6  8  1  0
  8  9  2  0
  2 10  1  0
 10 11  2  0
 11 12  1  0
 12 13  2  0
 13 14  1  0
 14 15  2  0
 15 16  1  0
 16 17  2  0
 17 18  1  0
 18 19  2  0
 19 20  1  0
 20  2  1  0
  9  3  1  0
 15 10  1  0
 20 16  1  0
  1 21  1  0
  4 22  1  0
  5 23  1  0
  8 24  1  0
  9 25  1  0
 11 26  1  0
 12 27  1  0
 13 28  1  0
 14 29  1  0
 18 30  1  0
 19 31  1  0
M  END
>  <meeko>  (4) 
{"is_sidechain": [false], "free_energy": -7.649, "intermolecular_energy": -8.353, "internal_energy": -0.599}

$$$$
4mme_ligand
     RDKit          3D

 31 34  0  0  0  0  0  0  0  0999 V2000
  100.2620   27.1720   34.9110 O   0  0  0  0  0  0  0  0  0  0  0  0
  101.2470   27.0800   35.9400 C   0  0  2  0  0  0  0  0  0  0  0  0
  101.7000   25.6450   36.1870 C   0  0  0  0  0  0  0  0  0  0  0  0
  101.4040   24.6220   35.2660 C   0  0  0  0  0  0  0  0  0  0  0  0
  101.8160   23.3060   35.4920 C   0  0  0  0  0  0  0  0  0  0  0  0
  102.5330   22.9920   36.6420 C   0  0  0  0  0  0  0  0  0  0  0  0
  103.0400   21.3720   36.9200 Cl  0  0  0  0  0  0  0  0  0  0  0  0
  102.8410   23.9820   37.5700 C   0  0  0  0  0  0  0  0  0  0  0  0
  102.4290   25.2990   37.3440 C   0  0  0  0  0  0  0  0  0  0  0  0
  100.7470   27.8150   37.1900 C   0  0  0  0  0  0  0  0  0  0  0  0
   99.6840   27.5090   38.0250 C   0  0  0  0  0  0  0  0  0  0  0  0
   99.4370   28.3600   39.1070 C   0  0  0  0  0  0  0  0  0  0  0  0
  100.2400   29.4940   39.3390 C   0  0  0  0  0  0  0  0  0  0  0  0
  101.3090   29.8060   38.4940 C   0  0  0  0  0  0  0  0  0  0  0  0
  101.5430   28.9600   37.4330 C   0  0  0  0  0  0  0  0  0  0  0  0
  102.5360   29.0090   36.4010 C   0  0  0  0  0  0  0  0  0  0  0  0
  103.5300   29.7700   36.0300 N   0  0  0  0  0  0  0  0  0  0  0  0
  104.0070   29.1570   34.8800 C   0  0  0  0  0  0  0  0  0  0  0  0
  103.2830   28.0180   34.5650 C   0  0  0  0  0  0  0  0  0  0  0  0
  102.3710   27.9430   35.5550 N   0  0  0  0  0  0  0  0  0  0  0  0
  100.2060   28.1110   34.6670 H   0  0  0  0  0  0  0  0  0  0  0  0
  100.8390   24.8627   34.3534 H   0  0  0  0  0  0  0  0  0  0  0  0
  101.5738   22.5197   34.7618 H   0  0  0  0  0  0  0  0  0  0  0  0
  103.4070   23.7293   38.4788 H   0  0  0  0  0  0  0  0  0  0  0  0
  102.6773   26.0777   38.0802 H   0  0  0  0  0  0  0  0  0  0  0  0
   99.0549   26.6253   37.8426 H   0  0  0  0  0  0  0  0  0  0  0  0
   98.6018   28.1402   39.7882 H   0  0  0  0  0  0  0  0  0  0  0  0
  100.0223   30.1444   40.1990 H   0  0  0  0  0  0  0  0  0  0  0  0
  101.9377   30.6914   38.6695 H   0  0  0  0  0  0  0  0  0  0  0  0
  104.8570   29.5300   34.2898 H   0  0  0  0  0  0  0  0  0  0  0  0
  103.4198   27.3378   33.7114 H   0  0  0  0  0  0  0  0  0  0  0  0
  2  1  1  6
  2  3  1  0
  3  4  2  0
  4  5  1  0
  5  6  2  0
  6  7  1  0
  6  8  1  0
  8  9  2  0
  2 10  1  0
 10 11  2  0
 11 12  1  0
 12 13  2  0
 13 14  1  0
 14 15  2  0
 15 16  1  0
 16 17  2  0
 17 18  1  0
 18 19  2  0
 19 20  1  0
 20  2  1  0
  9  3  1  0
 15 10  1  0
 20 16  1  0
  1 21  1  0
  4 22  1  0
  5 23  1  0
  8 24  1  0
  9 25  1  0
 11 26  1  0
 12 27  1  0
 13 28  1  0
 14 29  1  0
 18 30  1  0
 19 31  1  0
M  END
>  <meeko>  (5) 
{"is_sidechain": [false], "free_energy": -7.568, "intermolecular_energy": -8.261, "internal_energy": -0.603}

$$$$
4mme_ligand
     RDKit          3D

 31 34  0  0  0  0  0  0  0  0999 V2000
  100.5460   25.4900   37.1580 O   0  0  0  0  0  0  0  0  0  0  0  0
  101.7730   25.5180   36.4300 C   0  0  2  0  0  0  0  0  0  0  0  0
  102.0890   24.1810   35.7690 C   0  0  0  0  0  0  0  0  0  0  0  0
  101.0710   23.2480   35.4960 C   0  0  0  0  0  0  0  0  0  0  0  0
  101.3590   22.0210   34.8920 C   0  0  0  0  0  0  0  0  0  0  0  0
  102.6710   21.7080   34.5500 C   0  0  0  0  0  0  0  0  0  0  0  0
  103.0250   20.1970   33.8070 Cl  0  0  0  0  0  0  0  0  0  0  0  0
  103.6980   22.6110   34.8060 C   0  0  0  0  0  0  0  0  0  0  0  0
  103.4100   23.8390   35.4100 C   0  0  0  0  0  0  0  0  0  0  0  0
  102.8890   26.0640   37.3310 C   0  0  0  0  0  0  0  0  0  0  0  0
  103.4480   25.5090   38.4720 C   0  0  0  0  0  0  0  0  0  0  0  0
  104.4600   26.2260   39.1180 C   0  0  0  0  0  0  0  0  0  0  0  0
  104.8940   27.4740   38.6270 C   0  0  0  0  0  0  0  0  0  0  0  0
  104.3270   28.0350   37.4800 C   0  0  0  0  0  0  0  0  0  0  0  0
  103.3320   27.3190   36.8520 C   0  0  0  0  0  0  0  0  0  0  0  0
  102.5600   27.6210   35.6840 C   0  0  0  0  0  0  0  0  0  0  0  0
  102.4450   28.5780   34.8030 N   0  0  0  0  0  0  0  0  0  0  0  0
  101.4250   28.1420   33.9700 C   0  0  0  0  0  0  0  0  0  0  0  0
  100.9270   26.9100   34.3640 C   0  0  0  0  0  0  0  0  0  0  0  0
  101.6770   26.6000   35.4410 N   0  0  0  0  0  0  0  0  0  0  0  0
  100.6240   26.1670   37.8530 H   0  0  0  0  0  0  0  0  0  0  0  0
  100.0313   23.4887   35.7625 H   0  0  0  0  0  0  0  0  0  0  0  0
  100.5501   21.3041   34.6874 H   0  0  0  0  0  0  0  0  0  0  0  0
  104.7338   22.3597   34.5340 H   0  0  0  0  0  0  0  0  0  0  0  0
  104.2261   24.5494   35.6083 H   0  0  0  0  0  0  0  0  0  0  0  0
  103.1066   24.5366   38.8565 H   0  0  0  0  0  0  0  0  0  0  0  0
  104.9248   25.8094   40.0238 H   0  0  0  0  0  0  0  0  0  0  0  0
  105.6924   28.0152   39.1558 H   0  0  0  0  0  0  0  0  0  0  0  0
  104.6617   29.0092   37.0940 H   0  0  0  0  0  0  0  0  0  0  0  0
  101.0557   28.7063   33.1010 H   0  0  0  0  0  0  0  0  0  0  0  0
  100.1147   26.3253   33.9076 H   0  0  0  0  0  0  0  0  0  0  0  0
  2  1  1  1
  2  3  1  0
  3  4  2  0
  4  5  1  0
  5  6  2  0
  6  7  1  0
  6  8  1  0
  8  9  2  0
  2 10  1  0
 10 11  2  0
 11 12  1  0
 12 13  2  0
 13 14  1  0
 14 15  2  0
 15 16  1  0
 16 17  2  0
 17 18  1  0
 18 19  2  0
 19 20  1  0
 20  2  1  0
  9  3  1  0
 15 10  1  0
 20 16  1  0
  1 21  1  0
  4 22  1  0
  5 23  1  0
  8 24  1  0
  9 25  1  0
 11 26  1  0
 12 27  1  0
 13 28  1  0
 14 29  1  0
 18 30  1  0
 19 31  1  0
M  END
>  <meeko>  (6) 
{"is_sidechain": [false], "free_energy": -7.43, "intermolecular_energy": -8.159, "internal_energy": -0.555}

$$$$
4mme_ligand
     RDKit          3D

 31 34  0  0  0  0  0  0  0  0999 V2000
  104.0750   26.3780   37.7350 O   0  0  0  0  0  0  0  0  0  0  0  0
  103.0730   26.8910   36.8580 C   0  0  2  0  0  0  0  0  0  0  0  0
  103.6570   27.7510   35.7440 C   0  0  0  0  0  0  0  0  0  0  0  0
  102.8540   28.2060   34.6810 C   0  0  0  0  0  0  0  0  0  0  0  0
  103.3890   28.9930   33.6570 C   0  0  0  0  0  0  0  0  0  0  0  0
  104.7360   29.3380   33.6790 C   0  0  0  0  0  0  0  0  0  0  0  0
  105.3930   30.3060   32.4190 Cl  0  0  0  0  0  0  0  0  0  0  0  0
  105.5550   28.9040   34.7170 C   0  0  0  0  0  0  0  0  0  0  0  0
  105.0200   28.1170   35.7430 C   0  0  0  0  0  0  0  0  0  0  0  0
  101.9770   27.5770   37.6850 C   0  0  0  0  0  0  0  0  0  0  0  0
  102.0480   28.7240   38.4590 C   0  0  0  0  0  0  0  0  0  0  0  0
  100.8880   29.1360   39.1250 C   0  0  0  0  0  0  0  0  0  0  0  0
   99.6880   28.4060   39.0140 C   0  0  0  0  0  0  0  0  0  0  0  0
   99.6180   27.2470   38.2370 C   0  0  0  0  0  0  0  0  0  0  0  0
  100.7660   26.8520   37.5860 C   0  0  0  0  0  0  0  0  0  0  0  0
  101.0180   25.7250   36.7380 C   0  0  0  0  0  0  0  0  0  0  0  0
  100.3770   24.6910   36.2620 N   0  0  0  0  0  0  0  0  0  0  0  0
  101.3370   24.0190   35.5200 C   0  0  0  0  0  0  0  0  0  0  0  0
  102.5640   24.6620   35.5570 C   0  0  0  0  0  0  0  0  0  0  0  0
  102.3240   25.7470   36.3220 N   0  0  0  0  0  0  0  0  0  0  0  0
  104.1290   26.9960   38.4830 H   0  0  0  0  0  0  0  0  0  0  0  0
  101.7875   27.9377   34.6557 H   0  0  0  0  0  0  0  0  0  0  0  0
  102.7453   29.3390   32.8348 H   0  0  0  0  0  0  0  0  0  0  0  0
  106.6200   29.1788   34.7310 H   0  0  0  0  0  0  0  0  0  0  0  0
  105.6721   27.7783   36.5616 H   0  0  0  0  0  0  0  0  0  0  0  0
  102.9856   29.2924   38.5472 H   0  0  0  0  0  0  0  0  0  0  0  0
  100.9136   30.0443   39.7450 H   0  0  0  0  0  0  0  0  0  0  0  0
   98.7915   28.7543   39.5479 H   0  0  0  0  0  0  0  0  0  0  0  0
   98.6838   26.6730   38.1486 H   0  0  0  0  0  0  0  0  0  0  0  0
  101.1470   23.0867   34.9679 H   0  0  0  0  0  0  0  0  0  0  0  0
  103.5070   24.3603   35.0778 H   0  0  0  0  0  0  0  0  0  0  0  0
  2  1  1  1
  2  3  1  0
  3  4  2  0
  4  5  1  0
  5  6  2  0
  6  7  1  0
  6  8  1  0
  8  9  2  0
  2 10  1  0
 10 11  2  0
 11 12  1  0
 12 13  2  0
 13 14  1  0
 14 15  2  0
 15 16  1  0
 16 17  2  0
 17 18  1  0
 18 19  2  0
 19 20  1  0
 20  2  1  0
  9  3  1  0
 15 10  1  0
 20 16  1  0
  1 21  1  0
  4 22  1  0
  5 23  1  0
  8 24  1  0
  9 25  1  0
 11 26  1  0
 12 27  1  0
 13 28  1  0
 14 29  1  0
 18 30  1  0
 19 31  1  0
M  END
>  <meeko>  (7) 
{"is_sidechain": [false], "free_energy": -7.191, "intermolecular_energy": -7.851, "internal_energy": -0.603}

$$$$
4mme_ligand
     RDKit          3D

 31 34  0  0  0  0  0  0  0  0999 V2000
  104.7210   32.9160   32.5860 O   0  0  0  0  0  0  0  0  0  0  0  0
  103.3110   32.9310   32.8070 C   0  0  2  0  0  0  0  0  0  0  0  0
  102.7460   31.5390   33.0620 C   0  0  0  0  0  0  0  0  0  0  0  0
  101.3700   31.3450   33.2880 C   0  0  0  0  0  0  0  0  0  0  0  0
  100.8500   30.0690   33.5240 C   0  0  0  0  0  0  0  0  0  0  0  0
  101.6980   28.9660   33.5380 C   0  0  0  0  0  0  0  0  0  0  0  0
  101.0570   27.3970   33.8280 Cl  0  0  0  0  0  0  0  0  0  0  0  0
  103.0620   29.1270   33.3160 C   0  0  0  0  0  0  0  0  0  0  0  0
  103.5820   30.4030   33.0790 C   0  0  0  0  0  0  0  0  0  0  0  0
  102.6250   33.7000   31.6690 C   0  0  0  0  0  0  0  0  0  0  0  0
  102.5240   33.3760   30.3260 C   0  0  0  0  0  0  0  0  0  0  0  0
  101.8420   34.2650   29.4890 C   0  0  0  0  0  0  0  0  0  0  0  0
  101.2780   35.4530   29.9950 C   0  0  0  0  0  0  0  0  0  0  0  0
  101.3830   35.7820   31.3490 C   0  0  0  0  0  0  0  0  0  0  0  0
  102.0570   34.8980   32.1630 C   0  0  0  0  0  0  0  0  0  0  0  0
  102.3400   34.9510   33.5670 C   0  0  0  0  0  0  0  0  0  0  0  0
  102.1340   35.7470   34.5810 N   0  0  0  0  0  0  0  0  0  0  0  0
  102.7590   35.1050   35.6400 C   0  0  0  0  0  0  0  0  0  0  0  0
  103.3460   33.9130   35.2470 C   0  0  0  0  0  0  0  0  0  0  0  0
  103.0490   33.8360   33.9340 N   0  0  0  0  0  0  0  0  0  0  0  0
  104.8950   33.5620   31.8800 H   0  0  0  0  0  0  0  0  0  0  0  0
  100.6929   32.2118   33.2787 H   0  0  0  0  0  0  0  0  0  0  0  0
   99.7719   29.9372   33.6984 H   0  0  0  0  0  0  0  0  0  0  0  0
  103.7295   28.2527   33.3269 H   0  0  0  0  0  0  0  0  0  0  0  0
  104.6611   30.5230   32.9028 H   0  0  0  0  0  0  0  0  0  0  0  0
  102.9659   32.4495   29.9306 H   0  0  0  0  0  0  0  0  0  0  0  0
  101.7443   34.0330   28.4182 H   0  0  0  0  0  0  0  0  0  0  0  0
  100.7463   36.1327   29.3129 H   0  0  0  0  0  0  0  0  0  0  0  0
  100.9455   36.7088   31.7486 H   0  0  0  0  0  0  0  0  0  0  0  0
  102.7854   35.4953   36.6681 H   0  0  0  0  0  0  0  0  0  0  0  0
  103.9175   33.2001   35.8595 H   0  0  0  0  0  0  0  0  0  0  0  0
  2  1  1  6
  2  3  1  0
  3  4  2  0
  4  5  1  0
  5  6  2  0
  6  7  1  0
  6  8  1  0
  8  9  2  0
  2 10  1  0
 10 11  2  0
 11 12  1  0
 12 13  2  0
 13 14  1  0
 14 15  2  0
 15 16  1  0
 16 17  2  0
 17 18  1  0
 18 19  2  0
 19 20  1  0
 20  2  1  0
  9  3  1  0
 15 10  1  0
 20 16  1  0
  1 21  1  0
  4 22  1  0
  5 23  1  0
  8 24  1  0
  9 25  1  0
 11 26  1  0
 12 27  1  0
 13 28  1  0
 14 29  1  0
 18 30  1  0
 19 31  1  0
M  END
>  <meeko>  (8) 
{"is_sidechain": [false], "free_energy": -7.167, "intermolecular_energy": -7.796, "internal_energy": -0.631}

$$$$
4mme_ligand
     RDKit          3D

 31 34  0  0  0  0  0  0  0  0999 V2000
  103.7510   29.1260   32.2830 O   0  0  0  0  0  0  0  0  0  0  0  0
  103.7230   30.0730   33.3500 C   0  0  2  0  0  0  0  0  0  0  0  0
  102.3870   30.8000   33.4500 C   0  0  0  0  0  0  0  0  0  0  0  0
  102.2910   32.0560   34.0790 C   0  0  0  0  0  0  0  0  0  0  0  0
  101.0660   32.7240   34.1730 C   0  0  0  0  0  0  0  0  0  0  0  0
   99.9180   32.1460   33.6400 C   0  0  0  0  0  0  0  0  0  0  0  0
   98.4120   32.9680   33.7570 Cl  0  0  0  0  0  0  0  0  0  0  0  0
   99.9830   30.9060   33.0120 C   0  0  0  0  0  0  0  0  0  0  0  0
  101.2090   30.2380   32.9160 C   0  0  0  0  0  0  0  0  0  0  0  0
  104.9450   30.9950   33.2440 C   0  0  0  0  0  0  0  0  0  0  0  0
  105.2590   31.9310   32.2710 C   0  0  0  0  0  0  0  0  0  0  0  0
  106.4550   32.6430   32.4110 C   0  0  0  0  0  0  0  0  0  0  0  0
  107.3140   32.4130   33.5030 C   0  0  0  0  0  0  0  0  0  0  0  0
  107.0010   31.4660   34.4810 C   0  0  0  0  0  0  0  0  0  0  0  0
  105.8200   30.7720   34.3330 C   0  0  0  0  0  0  0  0  0  0  0  0
  105.2310   29.7490   35.1440 C   0  0  0  0  0  0  0  0  0  0  0  0
  105.5000   29.0840   36.2360 N   0  0  0  0  0  0  0  0  0  0  0  0
  104.4280   28.2120   36.3660 C   0  0  0  0  0  0  0  0  0  0  0  0
  103.5130   28.3620   35.3370 C   0  0  0  0  0  0  0  0  0  0  0  0
  104.0410   29.3520   34.5900 N   0  0  0  0  0  0  0  0  0  0  0  0
  104.3280   28.3990   32.5740 H   0  0  0  0  0  0  0  0  0  0  0  0
  103.1940   32.5192   34.5033 H   0  0  0  0  0  0  0  0  0  0  0  0
  101.0101   33.7049   34.6676 H   0  0  0  0  0  0  0  0  0  0  0  0
   99.0732   30.4521   32.5922 H   0  0  0  0  0  0  0  0  0  0  0  0
  101.2545   29.2592   32.4162 H   0  0  0  0  0  0  0  0  0  0  0  0
  104.5894   32.1082   31.4164 H   0  0  0  0  0  0  0  0  0  0  0  0
  106.7289   33.3946   31.6560 H   0  0  0  0  0  0  0  0  0  0  0  0
  108.2474   32.9889   33.5872 H   0  0  0  0  0  0  0  0  0  0  0  0
  107.6701   31.2819   35.3345 H   0  0  0  0  0  0  0  0  0  0  0  0
  104.3183   27.4887   37.1875 H   0  0  0  0  0  0  0  0  0  0  0  0
  102.5787   27.8061   35.1695 H   0  0  0  0  0  0  0  0  0  0  0  0
  2  1  1  6
  2  3  1  0
  3  4  2  0
  4  5  1  0
  5  6  2  0
  6  7  1  0
  6  8  1  0
  8  9  2  0
  2 10  1  0
 10 11  2  0
 11 12  1  0
 12 13  2  0
 13 14  1  0
 14 15  2  0
 15 16  1  0
 16 17  2  0
 17 18  1  0
 18 19  2  0
 19 20  1  0
 20  2  1  0
  9  3  1  0
 15 10  1  0
 20 16  1  0
  1 21  1  0
  4 22  1  0
  5 23  1  0
  8 24  1  0
  9 25  1  0
 11 26  1  0
 12 27  1  0
 13 28  1  0
 14 29  1  0
 18 30  1  0
 19 31  1  0
M  END
>  <meeko>  (9) 
{"is_sidechain": [false], "free_energy": -7.05, "intermolecular_energy": -7.752, "internal_energy": -0.547}

$$$$
