3gnw_ligand
     RDKit          3D

 76 81  0  0  0  0  0  0  0  0999 V2000
   27.3350    8.8290   41.1600 C   0  0  0  0  0  0  0  0  0  0  0  0
   28.4600    8.3170   40.3110 C   0  0  0  0  0  0  0  0  0  0  0  0
   29.3850    9.2050   39.7660 C   0  0  0  0  0  0  0  0  0  0  0  0
   30.4270    8.7060   38.9900 C   0  0  0  0  0  0  0  0  0  0  0  0
   30.5200    7.3360   38.7760 C   0  0  0  0  0  0  0  0  0  0  0  0
   29.5520    6.5190   39.3490 C   0  0  0  0  0  0  0  0  0  0  0  0
   29.6150    5.0370   39.1560 C   0  0  0  0  0  0  0  0  0  0  0  0
   30.0890    4.3510   40.0610 O   0  0  0  0  0  0  0  0  0  0  0  0
   29.2220    4.5180   37.9110 N   0  0  0  0  0  0  0  0  0  0  0  0
   30.1150    3.7770   37.0780 C   0  0  0  0  0  0  0  0  0  0  0  0
   31.4550    4.1940   36.9580 C   0  0  0  0  0  0  0  0  0  0  0  0
   32.3640    3.4870   36.1680 C   0  0  0  0  0  0  0  0  0  0  0  0
   31.9510    2.3480   35.4880 C   0  0  0  0  0  0  0  0  0  0  0  0
   30.6280    1.9350   35.6040 C   0  0  0  0  0  0  0  0  0  0  0  0
   30.1980    0.8020   34.9510 O   0  0  0  0  0  0  0  0  0  0  0  0
   29.6820    2.6380   36.3830 C   0  0  0  0  0  0  0  0  0  0  0  0
   28.3850    2.0870   36.4730 N   0  0  0  0  0  0  0  0  0  0  0  0
   27.1800    2.7090   36.7280 C   0  0  0  0  0  0  0  0  0  0  0  0
   26.9930    4.0160   37.0210 C   0  0  0  0  0  0  0  0  0  0  0  0
   28.0170    5.0880   37.2680 C   0  0  2  0  0  0  0  0  0  0  0  0
   28.3770    6.0250   36.1150 C   0  0  0  0  0  0  0  0  0  0  0  0
   28.9450    5.4760   34.9490 C   0  0  0  0  0  0  0  0  0  0  0  0
   29.2680    6.2770   33.8470 C   0  0  0  0  0  0  0  0  0  0  0  0
   29.0350    7.6490   33.8860 C   0  0  0  0  0  0  0  0  0  0  0  0
   29.2910    8.5430   32.8850 O   0  0  0  0  0  0  0  0  0  0  0  0
   28.8470    9.8930   33.0480 C   0  0  0  0  0  0  0  0  0  0  0  0
   27.8190   10.3120   32.0200 C   0  0  0  0  0  0  0  0  0  0  0  0
   27.0370   11.4610   32.2020 C   0  0  0  0  0  0  0  0  0  0  0  0
   26.1120   11.8510   31.2320 C   0  0  0  0  0  0  0  0  0  0  0  0
   25.9680   11.1050   30.0640 C   0  0  0  0  0  0  0  0  0  0  0  0
   26.7510    9.9710   29.8640 C   0  0  0  0  0  0  0  0  0  0  0  0
   27.6770    9.5790   30.8330 C   0  0  0  0  0  0  0  0  0  0  0  0
   28.4650    8.2050   35.0300 C   0  0  0  0  0  0  0  0  0  0  0  0
   28.1450    7.4020   36.1250 C   0  0  0  0  0  0  0  0  0  0  0  0
   27.6120    8.0040   37.1960 F   0  0  0  0  0  0  0  0  0  0  0  0
   25.3370    4.5550   37.1680 S   0  0  0  0  0  0  0  0  0  0  0  0
   25.2520    5.9860   36.9490 O   0  0  0  0  0  0  0  0  0  0  0  0
   24.7350    3.9690   38.3510 O   0  0  0  0  0  0  0  0  0  0  0  0
   24.6050    3.7820   35.7420 C   0  0  0  0  0  0  0  0  0  0  0  0
   24.8630    2.2630   35.6550 C   0  0  0  0  0  0  0  0  0  0  0  0
   23.5660    1.5010   35.9900 C   0  0  0  0  0  0  0  0  0  0  0  0
   25.2580    1.9110   34.2050 C   0  0  0  0  0  0  0  0  0  0  0  0
   25.9740    1.7790   36.6210 C   0  0  0  0  0  0  0  0  0  0  0  0
   28.5260    6.9810   40.1120 N   0  0  0  0  0  0  0  0  0  0  0  0
   27.5943    8.7110   42.2225 H   0  0  0  0  0  0  0  0  0  0  0  0
   27.1647    9.8933   40.9402 H   0  0  0  0  0  0  0  0  0  0  0  0
   26.4207    8.2583   40.9402 H   0  0  0  0  0  0  0  0  0  0  0  0
   29.2929   10.2862   39.9467 H   0  0  0  0  0  0  0  0  0  0  0  0
   31.1691    9.3888   38.5507 H   0  0  0  0  0  0  0  0  0  0  0  0
   31.3348    6.9109   38.1716 H   0  0  0  0  0  0  0  0  0  0  0  0
   31.7915    5.0925   37.4961 H   0  0  0  0  0  0  0  0  0  0  0  0
   33.4053    3.8314   36.0842 H   0  0  0  0  0  0  0  0  0  0  0  0
   32.6601    1.7811   34.8669 H   0  0  0  0  0  0  0  0  0  0  0  0
   30.2170    0.0620   35.5810 H   0  0  0  0  0  0  0  0  0  0  0  0
   28.3310    1.2500   35.8870 H   0  0  0  0  0  0  0  0  0  0  0  0
   27.4964    5.7742   37.9522 H   0  0  0  0  0  0  0  0  0  0  0  0
   29.1391    4.3942   34.9031 H   0  0  0  0  0  0  0  0  0  0  0  0
   29.7072    5.8208   32.9476 H   0  0  0  0  0  0  0  0  0  0  0  0
   28.4023    9.9961   34.0488 H   0  0  0  0  0  0  0  0  0  0  0  0
   29.7244   10.5432   32.9159 H   0  0  0  0  0  0  0  0  0  0  0  0
   27.1532   12.0604   33.1170 H   0  0  0  0  0  0  0  0  0  0  0  0
   25.4959   12.7485   31.3899 H   0  0  0  0  0  0  0  0  0  0  0  0
   25.2370   11.4113   29.3012 H   0  0  0  0  0  0  0  0  0  0  0  0
   26.6399    9.3829   28.9411 H   0  0  0  0  0  0  0  0  0  0  0  0
   28.2999    8.6883   30.6638 H   0  0  0  0  0  0  0  0  0  0  0  0
   28.2658    9.2861   35.0698 H   0  0  0  0  0  0  0  0  0  0  0  0
   23.5181    3.9476   35.7775 H   0  0  0  0  0  0  0  0  0  0  0  0
   25.0718    4.2373   34.8561 H   0  0  0  0  0  0  0  0  0  0  0  0
   23.4518    1.4339   37.0820 H   0  0  0  0  0  0  0  0  0  0  0  0
   22.7053    2.0370   35.5636 H   0  0  0  0  0  0  0  0  0  0  0  0
   23.6152    0.4882   35.5636 H   0  0  0  0  0  0  0  0  0  0  0  0
   26.0792    1.1792   34.2160 H   0  0  0  0  0  0  0  0  0  0  0  0
   24.3906    1.4809   33.6828 H   0  0  0  0  0  0  0  0  0  0  0  0
   25.5857    2.8220   33.6828 H   0  0  0  0  0  0  0  0  0  0  0  0
   25.5335    1.6733   37.6234 H   0  0  0  0  0  0  0  0  0  0  0  0
   26.3501    0.8307   36.2096 H   0  0  0  0  0  0  0  0  0  0  0  0
  1  2  1  0
  2  3  2  0
  3  4  1  0
  4  5  2  0
  5  6  1  0
  6  7  1  0
  7  8  2  0
  7  9  1  0
  9 10  1  0
 10 11  2  0
 11 12  1  0
 12 13  2  0
 13 14  1  0
 14 15  1  0
 14 16  2  0
 16 17  1  0
 17 18  1  0
 18 19  2  0
 19 20  1  0
 20 21  1  0
 21 22  2  0
 22 23  1  0
 23 24  2  0
 24 25  1  0
 25 26  1  0
 26 27  1  0
 27 28  2  0
 28 29  1  0
 29 30  2  0
 30 31  1  0
 31 32  2  0
 24 33  1  0
 33 34  2  0
 34 35  1  0
 19 36  1  0
 36 37  2  0
 36 38  2  0
 36 39  1  0
 39 40  1  0
 40 41  1  0
 40 42  1  0
 40 43  1  0
  6 44  2  0
 44  2  1  0
 20  9  1  0
 34 21  1  0
 16 10  1  0
 43 18  1  0
 32 27  1  0
  1 45  1  0
  1 46  1  0
  1 47  1  0
  3 48  1  0
  4 49  1  0
  5 50  1  0
 11 51  1  0
 12 52  1  0
 13 53  1  0
 15 54  1  0
 17 55  1  0
 20 56  1  1
 22 57  1  0
 23 58  1  0
 26 59  1  0
 26 60  1  0
 28 61  1  0
 29 62  1  0
 30 63  1  0
 31 64  1  0
 32 65  1  0
 33 66  1  0
 39 67  1  0
 39 68  1  0
 41 69  1  0
 41 70  1  0
 41 71  1  0
 42 72  1  0
 42 73  1  0
 42 74  1  0
 43 75  1  0
 43 76  1  0
M  END
>  <meeko>  (1) 
{"is_sidechain": [false], "free_energy": -8.782, "intermolecular_energy": -14.173, "internal_energy": -1.064}

$$$$
3gnw_ligand
     RDKit          3D

 76 81  0  0  0  0  0  0  0  0999 V2000
   24.4650    1.9570   34.6190 C   0  0  0  0  0  0  0  0  0  0  0  0
   24.6930    3.3190   35.2020 C   0  0  0  0  0  0  0  0  0  0  0  0
   24.2280    4.4510   34.5380 C   0  0  0  0  0  0  0  0  0  0  0  0
   24.4420    5.7050   35.1030 C   0  0  0  0  0  0  0  0  0  0  0  0
   25.1140    5.7990   36.3150 C   0  0  0  0  0  0  0  0  0  0  0  0
   25.5540    4.6210   36.9100 C   0  0  0  0  0  0  0  0  0  0  0  0
   26.2730    4.6690   38.2210 C   0  0  0  0  0  0  0  0  0  0  0  0
   25.6470    4.3820   39.2410 O   0  0  0  0  0  0  0  0  0  0  0  0
   27.5990    5.1350   38.2260 N   0  0  0  0  0  0  0  0  0  0  0  0
   28.0000    6.2830   38.9760 C   0  0  0  0  0  0  0  0  0  0  0  0
   27.1600    7.4130   39.0120 C   0  0  0  0  0  0  0  0  0  0  0  0
   27.5070    8.5480   39.7470 C   0  0  0  0  0  0  0  0  0  0  0  0
   28.6960    8.5720   40.4650 C   0  0  0  0  0  0  0  0  0  0  0  0
   29.5280    7.4570   40.4300 C   0  0  0  0  0  0  0  0  0  0  0  0
   30.7050    7.4510   41.1440 O   0  0  0  0  0  0  0  0  0  0  0  0
   29.2110    6.3010   39.6830 C   0  0  0  0  0  0  0  0  0  0  0  0
   30.1040    5.2100   39.7760 N   0  0  0  0  0  0  0  0  0  0  0  0
   30.3860    4.2240   38.8540 C   0  0  0  0  0  0  0  0  0  0  0  0
   29.7440    4.0040   37.6840 C   0  0  0  0  0  0  0  0  0  0  0  0
   28.4960    4.6960   37.1350 C   0  0  2  0  0  0  0  0  0  0  0  0
   28.6570    5.7740   36.0620 C   0  0  0  0  0  0  0  0  0  0  0  0
   29.2880    6.9840   36.4080 C   0  0  0  0  0  0  0  0  0  0  0  0
   29.4930    7.9970   35.4640 C   0  0  0  0  0  0  0  0  0  0  0  0
   29.0650    7.8270   34.1500 C   0  0  0  0  0  0  0  0  0  0  0  0
   29.2070    8.7240   33.1290 O   0  0  0  0  0  0  0  0  0  0  0  0
   28.6110   10.0170   33.2720 C   0  0  0  0  0  0  0  0  0  0  0  0
   27.6890   10.3800   32.1290 C   0  0  0  0  0  0  0  0  0  0  0  0
   26.8210   11.4780   32.2150 C   0  0  0  0  0  0  0  0  0  0  0  0
   25.9970   11.8170   31.1420 C   0  0  0  0  0  0  0  0  0  0  0  0
   26.0380   11.0720   29.9660 C   0  0  0  0  0  0  0  0  0  0  0  0
   26.9080    9.9880   29.8610 C   0  0  0  0  0  0  0  0  0  0  0  0
   27.7340    9.6470   30.9340 C   0  0  0  0  0  0  0  0  0  0  0  0
   28.4450    6.6310   33.7910 C   0  0  0  0  0  0  0  0  0  0  0  0
   28.2450    5.6250   34.7360 C   0  0  0  0  0  0  0  0  0  0  0  0
   27.6320    4.5070   34.3260 F   0  0  0  0  0  0  0  0  0  0  0  0
   30.4050    2.7600   36.6490 S   0  0  0  0  0  0  0  0  0  0  0  0
   29.9960    2.9780   35.2750 O   0  0  0  0  0  0  0  0  0  0  0  0
   30.2110    1.4590   37.2630 O   0  0  0  0  0  0  0  0  0  0  0  0
   32.1400    3.1470   36.7260 C   0  0  0  0  0  0  0  0  0  0  0  0
   32.6910    3.2580   38.1640 C   0  0  0  0  0  0  0  0  0  0  0  0
   33.5630    2.0250   38.4750 C   0  0  0  0  0  0  0  0  0  0  0  0
   33.5890    4.5090   38.2540 C   0  0  0  0  0  0  0  0  0  0  0  0
   31.5770    3.3470   39.2370 C   0  0  0  0  0  0  0  0  0  0  0  0
   25.3560    3.3850   36.3800 N   0  0  0  0  0  0  0  0  0  0  0  0
   24.3426    1.2260   35.4318 H   0  0  0  0  0  0  0  0  0  0  0  0
   23.5567    1.9710   33.9987 H   0  0  0  0  0  0  0  0  0  0  0  0
   25.3283    1.6745   33.9987 H   0  0  0  0  0  0  0  0  0  0  0  0
   23.6981    4.3555   33.5788 H   0  0  0  0  0  0  0  0  0  0  0  0
   24.0827    6.6121   34.5950 H   0  0  0  0  0  0  0  0  0  0  0  0
   25.2928    6.7750   36.7898 H   0  0  0  0  0  0  0  0  0  0  0  0
   26.2138    7.4010   38.4511 H   0  0  0  0  0  0  0  0  0  0  0  0
   26.8397    9.4224   39.7576 H   0  0  0  0  0  0  0  0  0  0  0  0
   28.9756    9.4590   41.0524 H   0  0  0  0  0  0  0  0  0  0  0  0
   31.3280    8.0570   40.7090 H   0  0  0  0  0  0  0  0  0  0  0  0
   30.8710    5.4520   40.4070 H   0  0  0  0  0  0  0  0  0  0  0  0
   28.0316    3.8867   36.5525 H   0  0  0  0  0  0  0  0  0  0  0  0
   29.6274    7.1367   37.4431 H   0  0  0  0  0  0  0  0  0  0  0  0
   29.9938    8.9302   35.7612 H   0  0  0  0  0  0  0  0  0  0  0  0
   28.0314   10.0330   34.2068 H   0  0  0  0  0  0  0  0  0  0  0  0
   29.4279   10.7536   33.2785 H   0  0  0  0  0  0  0  0  0  0  0  0
   26.7897   12.0773   33.1369 H   0  0  0  0  0  0  0  0  0  0  0  0
   25.3132   12.6747   31.2247 H   0  0  0  0  0  0  0  0  0  0  0  0
   25.3851   11.3385   29.1217 H   0  0  0  0  0  0  0  0  0  0  0  0
   26.9439    9.4005   28.9317 H   0  0  0  0  0  0  0  0  0  0  0  0
   28.4256    8.7966   30.8413 H   0  0  0  0  0  0  0  0  0  0  0  0
   28.1108    6.4796   32.7540 H   0  0  0  0  0  0  0  0  0  0  0  0
   32.6954    2.3552   36.2020 H   0  0  0  0  0  0  0  0  0  0  0  0
   32.2691    4.1334   36.2567 H   0  0  0  0  0  0  0  0  0  0  0  0
   33.6496    1.9026   39.5647 H   0  0  0  0  0  0  0  0  0  0  0  0
   33.0975    1.1278   38.0411 H   0  0  0  0  0  0  0  0  0  0  0  0
   34.5641    2.1650   38.0411 H   0  0  0  0  0  0  0  0  0  0  0  0
   33.7672    4.7572   39.3107 H   0  0  0  0  0  0  0  0  0  0  0  0
   34.5497    4.3072   37.7577 H   0  0  0  0  0  0  0  0  0  0  0  0
   33.0905    5.3547   37.7577 H   0  0  0  0  0  0  0  0  0  0  0  0
   31.2050    2.3298   39.4290 H   0  0  0  0  0  0  0  0  0  0  0  0
   32.0351    3.8160   40.1203 H   0  0  0  0  0  0  0  0  0  0  0  0
  1  2  1  0
  2  3  2  0
  3  4  1  0
  4  5  2  0
  5  6  1  0
  6  7  1  0
  7  8  2  0
  7  9  1  0
  9 10  1  0
 10 11  2  0
 11 12  1  0
 12 13  2  0
 13 14  1  0
 14 15  1  0
 14 16  2  0
 16 17  1  0
 17 18  1  0
 18 19  2  0
 19 20  1  0
 20 21  1  0
 21 22  2  0
 22 23  1  0
 23 24  2  0
 24 25  1  0
 25 26  1  0
 26 27  1  0
 27 28  2  0
 28 29  1  0
 29 30  2  0
 30 31  1  0
 31 32  2  0
 24 33  1  0
 33 34  2  0
 34 35  1  0
 19 36  1  0
 36 37  2  0
 36 38  2  0
 36 39  1  0
 39 40  1  0
 40 41  1  0
 40 42  1  0
 40 43  1  0
  6 44  2  0
 44  2  1  0
 20  9  1  0
 34 21  1  0
 16 10  1  0
 43 18  1  0
 32 27  1  0
  1 45  1  0
  1 46  1  0
  1 47  1  0
  3 48  1  0
  4 49  1  0
  5 50  1  0
 11 51  1  0
 12 52  1  0
 13 53  1  0
 15 54  1  0
 17 55  1  0
 20 56  1  6
 22 57  1  0
 23 58  1  0
 26 59  1  0
 26 60  1  0
 28 61  1  0
 29 62  1  0
 30 63  1  0
 31 64  1  0
 32 65  1  0
 33 66  1  0
 39 67  1  0
 39 68  1  0
 41 69  1  0
 41 70  1  0
 41 71  1  0
 42 72  1  0
 42 73  1  0
 42 74  1  0
 43 75  1  0
 43 76  1  0
M  END
>  <meeko>  (2) 
{"is_sidechain": [false], "free_energy": -8.765, "intermolecular_energy": -14.133, "internal_energy": -1.076}

$$$$
3gnw_ligand
     RDKit          3D

 76 81  0  0  0  0  0  0  0  0999 V2000
   31.7180    7.3980   43.5330 C   0  0  0  0  0  0  0  0  0  0  0  0
   31.0150    6.4000   42.6620 C   0  0  0  0  0  0  0  0  0  0  0  0
   31.2370    5.0370   42.8410 C   0  0  0  0  0  0  0  0  0  0  0  0
   30.5650    4.1290   42.0270 C   0  0  0  0  0  0  0  0  0  0  0  0
   29.6910    4.6020   41.0570 C   0  0  0  0  0  0  0  0  0  0  0  0
   29.5320    5.9780   40.9370 C   0  0  0  0  0  0  0  0  0  0  0  0
   28.5940    6.5360   39.9140 C   0  0  0  0  0  0  0  0  0  0  0  0
   27.6410    7.2120   40.3030 O   0  0  0  0  0  0  0  0  0  0  0  0
   28.7950    6.1750   38.5710 N   0  0  0  0  0  0  0  0  0  0  0  0
   30.0950    5.9200   38.0380 C   0  0  0  0  0  0  0  0  0  0  0  0
   31.1740    6.7390   38.4240 C   0  0  0  0  0  0  0  0  0  0  0  0
   32.4640    6.5120   37.9390 C   0  0  0  0  0  0  0  0  0  0  0  0
   32.6990    5.4590   37.0650 C   0  0  0  0  0  0  0  0  0  0  0  0
   31.6350    4.6480   36.6820 C   0  0  0  0  0  0  0  0  0  0  0  0
   31.8460    3.5900   35.8270 O   0  0  0  0  0  0  0  0  0  0  0  0
   30.3180    4.8640   37.1420 C   0  0  0  0  0  0  0  0  0  0  0  0
   29.3340    3.9370   36.7330 N   0  0  0  0  0  0  0  0  0  0  0  0
   27.9680    4.0990   36.6140 C   0  0  0  0  0  0  0  0  0  0  0  0
   27.2540    5.1980   36.9450 C   0  0  0  0  0  0  0  0  0  0  0  0
   27.7140    6.4640   37.6030 C   0  0  2  0  0  0  0  0  0  0  0  0
   28.0500    7.6640   36.7160 C   0  0  0  0  0  0  0  0  0  0  0  0
   28.5000    7.4310   35.4030 C   0  0  0  0  0  0  0  0  0  0  0  0
   28.7940    8.4870   34.5330 C   0  0  0  0  0  0  0  0  0  0  0  0
   28.6490    9.8050   34.9580 C   0  0  0  0  0  0  0  0  0  0  0  0
   28.8900   10.9270   34.2150 O   0  0  0  0  0  0  0  0  0  0  0  0
   29.2690   10.7670   32.8450 C   0  0  0  0  0  0  0  0  0  0  0  0
   28.0900   10.7490   31.8970 C   0  0  0  0  0  0  0  0  0  0  0  0
   26.9670   11.5580   32.1200 C   0  0  0  0  0  0  0  0  0  0  0  0
   25.8980   11.5510   31.2220 C   0  0  0  0  0  0  0  0  0  0  0  0
   25.9460   10.7470   30.0860 C   0  0  0  0  0  0  0  0  0  0  0  0
   27.0630    9.9510   29.8440 C   0  0  0  0  0  0  0  0  0  0  0  0
   28.1330    9.9560   30.7410 C   0  0  0  0  0  0  0  0  0  0  0  0
   28.1970   10.0510   36.2530 C   0  0  0  0  0  0  0  0  0  0  0  0
   27.9050    8.9940   37.1150 C   0  0  0  0  0  0  0  0  0  0  0  0
   27.4870    9.3040   38.3500 F   0  0  0  0  0  0  0  0  0  0  0  0
   25.5490    5.1690   36.5630 S   0  0  0  0  0  0  0  0  0  0  0  0
   25.0310    6.5200   36.4610 O   0  0  0  0  0  0  0  0  0  0  0  0
   24.8760    4.1990   37.4060 O   0  0  0  0  0  0  0  0  0  0  0  0
   25.5880    4.5180   34.9060 C   0  0  0  0  0  0  0  0  0  0  0  0
   26.3800    3.2000   34.7730 C   0  0  0  0  0  0  0  0  0  0  0  0
   25.3980    2.0290   34.5700 C   0  0  0  0  0  0  0  0  0  0  0  0
   27.2780    3.2880   33.5220 C   0  0  0  0  0  0  0  0  0  0  0  0
   27.2560    2.8890   36.0130 C   0  0  0  0  0  0  0  0  0  0  0  0
   30.1740    6.8850   41.7200 N   0  0  0  0  0  0  0  0  0  0  0  0
   31.5430    7.1496   44.5902 H   0  0  0  0  0  0  0  0  0  0  0  0
   32.7976    7.3710   43.3239 H   0  0  0  0  0  0  0  0  0  0  0  0
   31.3291    8.4055   43.3239 H   0  0  0  0  0  0  0  0  0  0  0  0
   31.9337    4.6825   43.6149 H   0  0  0  0  0  0  0  0  0  0  0  0
   30.7248    3.0478   42.1510 H   0  0  0  0  0  0  0  0  0  0  0  0
   29.1411    3.9089   40.4033 H   0  0  0  0  0  0  0  0  0  0  0  0
   30.9975    7.5724   39.1199 H   0  0  0  0  0  0  0  0  0  0  0  0
   33.2922    7.1662   38.2489 H   0  0  0  0  0  0  0  0  0  0  0  0
   33.7120    5.2685   36.6808 H   0  0  0  0  0  0  0  0  0  0  0  0
   31.2300    2.8770   36.0680 H   0  0  0  0  0  0  0  0  0  0  0  0
   29.7510    3.2590   36.0910 H   0  0  0  0  0  0  0  0  0  0  0  0
   26.8093    6.8230   38.1156 H   0  0  0  0  0  0  0  0  0  0  0  0
   28.6234    6.3956   35.0527 H   0  0  0  0  0  0  0  0  0  0  0  0
   29.1406    8.2753   33.5107 H   0  0  0  0  0  0  0  0  0  0  0  0
   29.9292   11.6012   32.5655 H   0  0  0  0  0  0  0  0  0  0  0  0
   29.7728    9.7931   32.7575 H   0  0  0  0  0  0  0  0  0  0  0  0
   26.9278   12.2036   33.0098 H   0  0  0  0  0  0  0  0  0  0  0  0
   25.0168   12.1813   31.4121 H   0  0  0  0  0  0  0  0  0  0  0  0
   25.1023   10.7406   29.3802 H   0  0  0  0  0  0  0  0  0  0  0  0
   27.1023    9.3178   28.9454 H   0  0  0  0  0  0  0  0  0  0  0  0
   29.0168    9.3330   30.5394 H   0  0  0  0  0  0  0  0  0  0  0  0
   28.0694   11.0875   36.5984 H   0  0  0  0  0  0  0  0  0  0  0  0
   24.5532    4.3351   34.5808 H   0  0  0  0  0  0  0  0  0  0  0  0
   26.1002    5.2640   34.2807 H   0  0  0  0  0  0  0  0  0  0  0  0
   25.0767    1.6459   35.5498 H   0  0  0  0  0  0  0  0  0  0  0  0
   24.5201    2.3799   34.0077 H   0  0  0  0  0  0  0  0  0  0  0  0
   25.8965    1.2257   34.0077 H   0  0  0  0  0  0  0  0  0  0  0  0
   28.3286    3.3910   33.8313 H   0  0  0  0  0  0  0  0  0  0  0  0
   27.1605    2.3740   32.9213 H   0  0  0  0  0  0  0  0  0  0  0  0
   26.9853    4.1618   32.9213 H   0  0  0  0  0  0  0  0  0  0  0  0
   26.6090    2.4528   36.7883 H   0  0  0  0  0  0  0  0  0  0  0  0
   28.0454    2.2039   35.6704 H   0  0  0  0  0  0  0  0  0  0  0  0
  1  2  1  0
  2  3  2  0
  3  4  1  0
  4  5  2  0
  5  6  1  0
  6  7  1  0
  7  8  2  0
  7  9  1  0
  9 10  1  0
 10 11  2  0
 11 12  1  0
 12 13  2  0
 13 14  1  0
 14 15  1  0
 14 16  2  0
 16 17  1  0
 17 18  1  0
 18 19  2  0
 19 20  1  0
 20 21  1  0
 21 22  2  0
 22 23  1  0
 23 24  2  0
 24 25  1  0
 25 26  1  0
 26 27  1  0
 27 28  2  0
 28 29  1  0
 29 30  2  0
 30 31  1  0
 31 32  2  0
 24 33  1  0
 33 34  2  0
 34 35  1  0
 19 36  1  0
 36 37  2  0
 36 38  2  0
 36 39  1  0
 39 40  1  0
 40 41  1  0
 40 42  1  0
 40 43  1  0
  6 44  2  0
 44  2  1  0
 20  9  1  0
 34 21  1  0
 16 10  1  0
 43 18  1  0
 32 27  1  0
  1 45  1  0
  1 46  1  0
  1 47  1  0
  3 48  1  0
  4 49  1  0
  5 50  1  0
 11 51  1  0
 12 52  1  0
 13 53  1  0
 15 54  1  0
 17 55  1  0
 20 56  1  1
 22 57  1  0
 23 58  1  0
 26 59  1  0
 26 60  1  0
 28 61  1  0
 29 62  1  0
 30 63  1  0
 31 64  1  0
 32 65  1  0
 33 66  1  0
 39 67  1  0
 39 68  1  0
 41 69  1  0
 41 70  1  0
 41 71  1  0
 42 72  1  0
 42 73  1  0
 42 74  1  0
 43 75  1  0
 43 76  1  0
M  END
>  <meeko>  (3) 
{"is_sidechain": [false], "free_energy": -8.692, "intermolecular_energy": -14.348, "internal_energy": -0.743}

$$$$
3gnw_ligand
     RDKit          3D

 76 81  0  0  0  0  0  0  0  0999 V2000
   24.5080    0.2110   37.2580 C   0  0  0  0  0  0  0  0  0  0  0  0
   24.6020    1.5520   36.5940 C   0  0  0  0  0  0  0  0  0  0  0  0
   24.2270    1.7020   35.2610 C   0  0  0  0  0  0  0  0  0  0  0  0
   24.3140    2.9590   34.6690 C   0  0  0  0  0  0  0  0  0  0  0  0
   24.7720    4.0340   35.4200 C   0  0  0  0  0  0  0  0  0  0  0  0
   25.1340    3.7990   36.7420 C   0  0  0  0  0  0  0  0  0  0  0  0
   25.6230    4.9270   37.5950 C   0  0  0  0  0  0  0  0  0  0  0  0
   24.7900    5.6500   38.1400 O   0  0  0  0  0  0  0  0  0  0  0  0
   27.0090    5.1590   37.6470 N   0  0  0  0  0  0  0  0  0  0  0  0
   27.5850    6.1350   38.5160 C   0  0  0  0  0  0  0  0  0  0  0  0
   26.9420    7.3770   38.6840 C   0  0  0  0  0  0  0  0  0  0  0  0
   27.4640    8.3510   39.5380 C   0  0  0  0  0  0  0  0  0  0  0  0
   28.6340    8.0990   40.2440 C   0  0  0  0  0  0  0  0  0  0  0  0
   29.2710    6.8730   40.0790 C   0  0  0  0  0  0  0  0  0  0  0  0
   30.4240    6.5940   40.7770 O   0  0  0  0  0  0  0  0  0  0  0  0
   28.7760    5.8750   39.2100 C   0  0  0  0  0  0  0  0  0  0  0  0
   29.4750    4.6490   39.1740 N   0  0  0  0  0  0  0  0  0  0  0  0
   29.5880    3.7300   38.1510 C   0  0  0  0  0  0  0  0  0  0  0  0
   28.9290    3.7510   36.9710 C   0  0  0  0  0  0  0  0  0  0  0  0
   27.8360    4.6950   36.5110 C   0  0  2  0  0  0  0  0  0  0  0  0
   28.2150    5.8450   35.5770 C   0  0  0  0  0  0  0  0  0  0  0  0
   29.2910    6.6800   35.9330 C   0  0  0  0  0  0  0  0  0  0  0  0
   29.7060    7.7300   35.1060 C   0  0  0  0  0  0  0  0  0  0  0  0
   29.0510    7.9750   33.9020 C   0  0  0  0  0  0  0  0  0  0  0  0
   29.3540    8.9540   32.9990 O   0  0  0  0  0  0  0  0  0  0  0  0
   28.6700   10.2060   33.0980 C   0  0  0  0  0  0  0  0  0  0  0  0
   27.6920   10.4440   31.9680 C   0  0  0  0  0  0  0  0  0  0  0  0
   26.8230   11.5450   31.9780 C   0  0  0  0  0  0  0  0  0  0  0  0
   25.9460   11.7660   30.9160 C   0  0  0  0  0  0  0  0  0  0  0  0
   25.9350   10.8980   29.8270 C   0  0  0  0  0  0  0  0  0  0  0  0
   26.8040    9.8100   29.7960 C   0  0  0  0  0  0  0  0  0  0  0  0
   27.6820    9.5860   30.8580 C   0  0  0  0  0  0  0  0  0  0  0  0
   27.9880    7.1510   33.5330 C   0  0  0  0  0  0  0  0  0  0  0  0
   27.5790    6.1060   34.3610 C   0  0  0  0  0  0  0  0  0  0  0  0
   26.5440    5.3620   33.9500 F   0  0  0  0  0  0  0  0  0  0  0  0
   29.3680    2.5250   35.8060 S   0  0  0  0  0  0  0  0  0  0  0  0
   29.0200    2.9550   34.4650 O   0  0  0  0  0  0  0  0  0  0  0  0
   28.9400    1.2230   36.2810 O   0  0  0  0  0  0  0  0  0  0  0  0
   31.1440    2.5860   35.9090 C   0  0  0  0  0  0  0  0  0  0  0  0
   31.6910    2.4460   37.3460 C   0  0  0  0  0  0  0  0  0  0  0  0
   32.3260    1.0520   37.5180 C   0  0  0  0  0  0  0  0  0  0  0  0
   32.7960    3.5000   37.5590 C   0  0  0  0  0  0  0  0  0  0  0  0
   30.5990    2.6190   38.4300 C   0  0  0  0  0  0  0  0  0  0  0  0
   25.0570    2.5820   37.3440 N   0  0  0  0  0  0  0  0  0  0  0  0
   24.5171    0.3412   38.3502 H   0  0  0  0  0  0  0  0  0  0  0  0
   23.5730   -0.2832   36.9555 H   0  0  0  0  0  0  0  0  0  0  0  0
   25.3649   -0.4088   36.9555 H   0  0  0  0  0  0  0  0  0  0  0  0
   23.8666    0.8381   34.6833 H   0  0  0  0  0  0  0  0  0  0  0  0
   24.0231    3.0994   33.6175 H   0  0  0  0  0  0  0  0  0  0  0  0
   24.8461    5.0405   34.9824 H   0  0  0  0  0  0  0  0  0  0  0  0
   26.0126    7.5833   38.1330 H   0  0  0  0  0  0  0  0  0  0  0  0
   26.9495    9.3166   39.6516 H   0  0  0  0  0  0  0  0  0  0  0  0
   29.0504    8.8574   40.9232 H   0  0  0  0  0  0  0  0  0  0  0  0
   31.0270    6.1110   40.1880 H   0  0  0  0  0  0  0  0  0  0  0  0
   30.2750    4.6950   39.8110 H   0  0  0  0  0  0  0  0  0  0  0  0
   27.2417    4.0534   35.8438 H   0  0  0  0  0  0  0  0  0  0  0  0
   29.8174    6.5032   36.8825 H   0  0  0  0  0  0  0  0  0  0  0  0
   30.5526    8.3639   35.4082 H   0  0  0  0  0  0  0  0  0  0  0  0
   28.1172   10.2278   34.0488 H   0  0  0  0  0  0  0  0  0  0  0  0
   29.4309   10.9985   33.0431 H   0  0  0  0  0  0  0  0  0  0  0  0
   26.8332   12.2400   32.8305 H   0  0  0  0  0  0  0  0  0  0  0  0
   25.2620   12.6272   30.9387 H   0  0  0  0  0  0  0  0  0  0  0  0
   25.2404   11.0716   28.9919 H   0  0  0  0  0  0  0  0  0  0  0  0
   26.7985    9.1267   28.9340 H   0  0  0  0  0  0  0  0  0  0  0  0
   28.3717    8.7297   30.8242 H   0  0  0  0  0  0  0  0  0  0  0  0
   27.4674    7.3270   32.5801 H   0  0  0  0  0  0  0  0  0  0  0  0
   31.5548    1.7670   35.3004 H   0  0  0  0  0  0  0  0  0  0  0  0
   31.4518    3.5772   35.5447 H   0  0  0  0  0  0  0  0  0  0  0  0
   32.4291    0.8257   38.5895 H   0  0  0  0  0  0  0  0  0  0  0  0
   31.6837    0.2954   37.0436 H   0  0  0  0  0  0  0  0  0  0  0  0
   33.3184    1.0401   37.0436 H   0  0  0  0  0  0  0  0  0  0  0  0
   32.9551    3.6518   38.6368 H   0  0  0  0  0  0  0  0  0  0  0  0
   33.7305    3.1502   37.0961 H   0  0  0  0  0  0  0  0  0  0  0  0
   32.4907    4.4500   37.0961 H   0  0  0  0  0  0  0  0  0  0  0  0
   30.0493    1.6701   38.5161 H   0  0  0  0  0  0  0  0  0  0  0  0
   31.1233    2.9031   39.3544 H   0  0  0  0  0  0  0  0  0  0  0  0
  1  2  1  0
  2  3  2  0
  3  4  1  0
  4  5  2  0
  5  6  1  0
  6  7  1  0
  7  8  2  0
  7  9  1  0
  9 10  1  0
 10 11  2  0
 11 12  1  0
 12 13  2  0
 13 14  1  0
 14 15  1  0
 14 16  2  0
 16 17  1  0
 17 18  1  0
 18 19  2  0
 19 20  1  0
 20 21  1  0
 21 22  2  0
 22 23  1  0
 23 24  2  0
 24 25  1  0
 25 26  1  0
 26 27  1  0
 27 28  2  0
 28 29  1  0
 29 30  2  0
 30 31  1  0
 31 32  2  0
 24 33  1  0
 33 34  2  0
 34 35  1  0
 19 36  1  0
 36 37  2  0
 36 38  2  0
 36 39  1  0
 39 40  1  0
 40 41  1  0
 40 42  1  0
 40 43  1  0
  6 44  2  0
 44  2  1  0
 20  9  1  0
 34 21  1  0
 16 10  1  0
 43 18  1  0
 32 27  1  0
  1 45  1  0
  1 46  1  0
  1 47  1  0
  3 48  1  0
  4 49  1  0
  5 50  1  0
 11 51  1  0
 12 52  1  0
 13 53  1  0
 15 54  1  0
 17 55  1  0
 20 56  1  6
 22 57  1  0
 23 58  1  0
 26 59  1  0
 26 60  1  0
 28 61  1  0
 29 62  1  0
 30 63  1  0
 31 64  1  0
 32 65  1  0
 33 66  1  0
 39 67  1  0
 39 68  1  0
 41 69  1  0
 41 70  1  0
 41 71  1  0
 42 72  1  0
 42 73  1  0
 42 74  1  0
 43 75  1  0
 43 76  1  0
M  END
>  <meeko>  (4) 
{"is_sidechain": [false], "free_energy": -8.588, "intermolecular_energy": -14.806, "internal_energy": -0.117}

$$$$
3gnw_ligand
     RDKit          3D

 76 81  0  0  0  0  0  0  0  0999 V2000
   24.2270    1.0190   37.2130 C   0  0  0  0  0  0  0  0  0  0  0  0
   24.8820    1.9340   36.2220 C   0  0  0  0  0  0  0  0  0  0  0  0
   25.5290    1.4080   35.1060 C   0  0  0  0  0  0  0  0  0  0  0  0
   26.1210    2.2780   34.1940 C   0  0  0  0  0  0  0  0  0  0  0  0
   26.0520    3.6470   34.4170 C   0  0  0  0  0  0  0  0  0  0  0  0
   25.3950    4.0900   35.5590 C   0  0  0  0  0  0  0  0  0  0  0  0
   25.2860    5.5560   35.8380 C   0  0  0  0  0  0  0  0  0  0  0  0
   24.1810    6.0880   35.7360 O   0  0  0  0  0  0  0  0  0  0  0  0
   26.4700    6.2650   36.1050 N   0  0  0  0  0  0  0  0  0  0  0  0
   27.0210    7.2020   35.1780 C   0  0  0  0  0  0  0  0  0  0  0  0
   27.0100    6.9020   33.8020 C   0  0  0  0  0  0  0  0  0  0  0  0
   27.5230    7.7980   32.8620 C   0  0  0  0  0  0  0  0  0  0  0  0
   28.0520    9.0120   33.2810 C   0  0  0  0  0  0  0  0  0  0  0  0
   28.0650    9.3110   34.6400 C   0  0  0  0  0  0  0  0  0  0  0  0
   28.5710   10.5130   35.0790 O   0  0  0  0  0  0  0  0  0  0  0  0
   27.5680    8.4170   35.6140 C   0  0  0  0  0  0  0  0  0  0  0  0
   27.5790    8.8580   36.9560 N   0  0  0  0  0  0  0  0  0  0  0  0
   27.6490    8.1240   38.1230 C   0  0  0  0  0  0  0  0  0  0  0  0
   27.6120    6.7760   38.2320 C   0  0  0  0  0  0  0  0  0  0  0  0
   27.3730    5.7420   37.1540 C   0  0  2  0  0  0  0  0  0  0  0  0
   28.5960    5.0470   36.5560 C   0  0  0  0  0  0  0  0  0  0  0  0
   29.5680    5.8280   35.9030 C   0  0  0  0  0  0  0  0  0  0  0  0
   30.7250    5.2540   35.3630 C   0  0  0  0  0  0  0  0  0  0  0  0
   30.9360    3.8810   35.4580 C   0  0  0  0  0  0  0  0  0  0  0  0
   32.0180    3.1930   34.9860 O   0  0  0  0  0  0  0  0  0  0  0  0
   32.2280    1.8550   35.4480 C   0  0  0  0  0  0  0  0  0  0  0  0
   33.3550    1.7390   36.4500 C   0  0  0  0  0  0  0  0  0  0  0  0
   34.2610    2.7910   36.6500 C   0  0  0  0  0  0  0  0  0  0  0  0
   35.2790    2.6800   37.5970 C   0  0  0  0  0  0  0  0  0  0  0  0
   35.3970    1.5230   38.3640 C   0  0  0  0  0  0  0  0  0  0  0  0
   34.4940    0.4770   38.1870 C   0  0  0  0  0  0  0  0  0  0  0  0
   33.4740    0.5860   37.2390 C   0  0  0  0  0  0  0  0  0  0  0  0
   29.9860    3.0960   36.1090 C   0  0  0  0  0  0  0  0  0  0  0  0
   28.8360    3.6730   36.6460 C   0  0  0  0  0  0  0  0  0  0  0  0
   27.9600    2.8580   37.2480 F   0  0  0  0  0  0  0  0  0  0  0  0
   27.8540    6.1140   39.8310 S   0  0  0  0  0  0  0  0  0  0  0  0
   28.3160    4.7420   39.7440 O   0  0  0  0  0  0  0  0  0  0  0  0
   26.7180    6.4410   40.6730 O   0  0  0  0  0  0  0  0  0  0  0  0
   29.2430    7.0780   40.3870 C   0  0  0  0  0  0  0  0  0  0  0  0
   29.0320    8.6030   40.2620 C   0  0  0  0  0  0  0  0  0  0  0  0
   28.8150    9.2070   41.6630 C   0  0  0  0  0  0  0  0  0  0  0  0
   30.3100    9.2300   39.6680 C   0  0  0  0  0  0  0  0  0  0  0  0
   27.8170    8.9780   39.3770 C   0  0  0  0  0  0  0  0  0  0  0  0
   24.8080    3.2630   36.4640 N   0  0  0  0  0  0  0  0  0  0  0  0
   24.4658    1.3526   38.2336 H   0  0  0  0  0  0  0  0  0  0  0  0
   23.1370    1.0394   37.0662 H   0  0  0  0  0  0  0  0  0  0  0  0
   24.5977   -0.0062   37.0662 H   0  0  0  0  0  0  0  0  0  0  0  0
   25.5716    0.3203   34.9474 H   0  0  0  0  0  0  0  0  0  0  0  0
   26.6379    1.8850   33.3061 H   0  0  0  0  0  0  0  0  0  0  0  0
   26.5037    4.3594   33.7110 H   0  0  0  0  0  0  0  0  0  0  0  0
   26.5895    5.9442   33.4616 H   0  0  0  0  0  0  0  0  0  0  0  0
   27.5082    7.5430   31.7921 H   0  0  0  0  0  0  0  0  0  0  0  0
   28.4551    9.7271   32.5488 H   0  0  0  0  0  0  0  0  0  0  0  0
   27.8250   11.0860   35.3240 H   0  0  0  0  0  0  0  0  0  0  0  0
   27.9870    9.7940   37.0030 H   0  0  0  0  0  0  0  0  0  0  0  0
   26.8832    4.9221   37.6997 H   0  0  0  0  0  0  0  0  0  0  0  0
   29.4151    6.9138   35.8150 H   0  0  0  0  0  0  0  0  0  0  0  0
   31.4699    5.8897   34.8620 H   0  0  0  0  0  0  0  0  0  0  0  0
   31.3012    1.4996   35.9220 H   0  0  0  0  0  0  0  0  0  0  0  0
   32.5051    1.2477   34.5737 H   0  0  0  0  0  0  0  0  0  0  0  0
   34.1679    3.7114   36.0549 H   0  0  0  0  0  0  0  0  0  0  0  0
   35.9899    3.5074   37.7385 H   0  0  0  0  0  0  0  0  0  0  0  0
   36.2021    1.4355   39.1084 H   0  0  0  0  0  0  0  0  0  0  0  0
   34.5844   -0.4356   38.7944 H   0  0  0  0  0  0  0  0  0  0  0  0
   32.7583   -0.2394   37.1103 H   0  0  0  0  0  0  0  0  0  0  0  0
   30.1450    2.0114   36.1999 H   0  0  0  0  0  0  0  0  0  0  0  0
   29.4302    6.8391   41.4443 H   0  0  0  0  0  0  0  0  0  0  0  0
   30.0937    6.8177   39.7401 H   0  0  0  0  0  0  0  0  0  0  0  0
   29.0822    8.4634   42.4283 H   0  0  0  0  0  0  0  0  0  0  0  0
   29.4492   10.0981   41.7804 H   0  0  0  0  0  0  0  0  0  0  0  0
   27.7587    9.4907   41.7804 H   0  0  0  0  0  0  0  0  0  0  0  0
   30.9723    9.5550   40.4839 H   0  0  0  0  0  0  0  0  0  0  0  0
   30.8301    8.4848   39.0482 H   0  0  0  0  0  0  0  0  0  0  0  0
   30.0389   10.0974   39.0482 H   0  0  0  0  0  0  0  0  0  0  0  0
   26.9062    8.8752   39.9852 H   0  0  0  0  0  0  0  0  0  0  0  0
   27.9937   10.0065   39.0291 H   0  0  0  0  0  0  0  0  0  0  0  0
  1  2  1  0
  2  3  2  0
  3  4  1  0
  4  5  2  0
  5  6  1  0
  6  7  1  0
  7  8  2  0
  7  9  1  0
  9 10  1  0
 10 11  2  0
 11 12  1  0
 12 13  2  0
 13 14  1  0
 14 15  1  0
 14 16  2  0
 16 17  1  0
 17 18  1  0
 18 19  2  0
 19 20  1  0
 20 21  1  0
 21 22  2  0
 22 23  1  0
 23 24  2  0
 24 25  1  0
 25 26  1  0
 26 27  1  0
 27 28  2  0
 28 29  1  0
 29 30  2  0
 30 31  1  0
 31 32  2  0
 24 33  1  0
 33 34  2  0
 34 35  1  0
 19 36  1  0
 36 37  2  0
 36 38  2  0
 36 39  1  0
 39 40  1  0
 40 41  1  0
 40 42  1  0
 40 43  1  0
  6 44  2  0
 44  2  1  0
 20  9  1  0
 34 21  1  0
 16 10  1  0
 43 18  1  0
 32 27  1  0
  1 45  1  0
  1 46  1  0
  1 47  1  0
  3 48  1  0
  4 49  1  0
  5 50  1  0
 11 51  1  0
 12 52  1  0
 13 53  1  0
 15 54  1  0
 17 55  1  0
 20 56  1  1
 22 57  1  0
 23 58  1  0
 26 59  1  0
 26 60  1  0
 28 61  1  0
 29 62  1  0
 30 63  1  0
 31 64  1  0
 32 65  1  0
 33 66  1  0
 39 67  1  0
 39 68  1  0
 41 69  1  0
 41 70  1  0
 41 71  1  0
 42 72  1  0
 42 73  1  0
 42 74  1  0
 43 75  1  0
 43 76  1  0
M  END
>  <meeko>  (5) 
{"is_sidechain": [false], "free_energy": -8.569, "intermolecular_energy": -13.686, "internal_energy": -1.207}

$$$$
3gnw_ligand
     RDKit          3D

 76 81  0  0  0  0  0  0  0  0999 V2000
   27.7070   -0.3560   40.7700 C   0  0  0  0  0  0  0  0  0  0  0  0
   27.1980    1.0280   41.0430 C   0  0  0  0  0  0  0  0  0  0  0  0
   26.7780    1.3780   42.3240 C   0  0  0  0  0  0  0  0  0  0  0  0
   26.3200    2.6720   42.5560 C   0  0  0  0  0  0  0  0  0  0  0  0
   26.2920    3.5820   41.5070 C   0  0  0  0  0  0  0  0  0  0  0  0
   26.7210    3.1500   40.2580 C   0  0  0  0  0  0  0  0  0  0  0  0
   26.7190    4.0970   39.0980 C   0  0  0  0  0  0  0  0  0  0  0  0
   25.6820    4.2210   38.4480 O   0  0  0  0  0  0  0  0  0  0  0  0
   27.9330    4.7170   38.7540 N   0  0  0  0  0  0  0  0  0  0  0  0
   28.2730    6.0290   39.2070 C   0  0  0  0  0  0  0  0  0  0  0  0
   27.2810    7.0290   39.2350 C   0  0  0  0  0  0  0  0  0  0  0  0
   27.5690    8.3190   39.6870 C   0  0  0  0  0  0  0  0  0  0  0  0
   28.8500    8.6300   40.1250 C   0  0  0  0  0  0  0  0  0  0  0  0
   29.8310    7.6430   40.0980 C   0  0  0  0  0  0  0  0  0  0  0  0
   31.1040    7.9220   40.5390 O   0  0  0  0  0  0  0  0  0  0  0  0
   29.5740    6.3350   39.6310 C   0  0  0  0  0  0  0  0  0  0  0  0
   30.6330    5.4040   39.7100 N   0  0  0  0  0  0  0  0  0  0  0  0
   30.8850    4.2900   38.9360 C   0  0  0  0  0  0  0  0  0  0  0  0
   30.0750    3.7660   37.9880 C   0  0  0  0  0  0  0  0  0  0  0  0
   28.6770    4.1930   37.5880 C   0  0  2  0  0  0  0  0  0  0  0  0
   28.5440    5.1080   36.3700 C   0  0  0  0  0  0  0  0  0  0  0  0
   29.4790    6.1460   36.1980 C   0  0  0  0  0  0  0  0  0  0  0  0
   29.4290    6.9970   35.0870 C   0  0  0  0  0  0  0  0  0  0  0  0
   28.4380    6.8340   34.1230 C   0  0  0  0  0  0  0  0  0  0  0  0
   28.2770    7.5830   32.9920 O   0  0  0  0  0  0  0  0  0  0  0  0
   28.4920    8.9950   33.0740 C   0  0  0  0  0  0  0  0  0  0  0  0
   27.6210    9.7880   32.1260 C   0  0  0  0  0  0  0  0  0  0  0  0
   27.1330    9.2200   30.9400 C   0  0  0  0  0  0  0  0  0  0  0  0
   26.3070    9.9550   30.0880 C   0  0  0  0  0  0  0  0  0  0  0  0
   25.9500   11.2600   30.4170 C   0  0  0  0  0  0  0  0  0  0  0  0
   26.4140   11.8310   31.6000 C   0  0  0  0  0  0  0  0  0  0  0  0
   27.2410   11.0980   32.4540 C   0  0  0  0  0  0  0  0  0  0  0  0
   27.5100    5.8050   34.2770 C   0  0  0  0  0  0  0  0  0  0  0  0
   27.5650    4.9600   35.3850 C   0  0  0  0  0  0  0  0  0  0  0  0
   26.6340    4.0000   35.4750 F   0  0  0  0  0  0  0  0  0  0  0  0
   30.7120    2.4220   37.0700 S   0  0  0  0  0  0  0  0  0  0  0  0
   30.0240    2.3090   35.7980 O   0  0  0  0  0  0  0  0  0  0  0  0
   30.8370    1.2590   37.9290 O   0  0  0  0  0  0  0  0  0  0  0  0
   32.3510    3.0110   36.7050 C   0  0  0  0  0  0  0  0  0  0  0  0
   33.1390    3.4720   37.9500 C   0  0  0  0  0  0  0  0  0  0  0  0
   34.2310    2.4360   38.2790 C   0  0  0  0  0  0  0  0  0  0  0  0
   33.8360    4.8100   37.6260 C   0  0  0  0  0  0  0  0  0  0  0  0
   32.2450    3.6500   39.2030 C   0  0  0  0  0  0  0  0  0  0  0  0
   27.1750    1.8940   40.0050 N   0  0  0  0  0  0  0  0  0  0  0  0
   27.8966   -0.8716   41.7230 H   0  0  0  0  0  0  0  0  0  0  0  0
   26.9559   -0.9158   40.1934 H   0  0  0  0  0  0  0  0  0  0  0  0
   28.6418   -0.2958   40.1934 H   0  0  0  0  0  0  0  0  0  0  0  0
   26.8078    0.6421   43.1411 H   0  0  0  0  0  0  0  0  0  0  0  0
   25.9837    2.9707   43.5598 H   0  0  0  0  0  0  0  0  0  0  0  0
   25.9409    4.6131   41.6603 H   0  0  0  0  0  0  0  0  0  0  0  0
   26.2625    6.7899   38.8952 H   0  0  0  0  0  0  0  0  0  0  0  0
   26.7822    9.0877   39.6961 H   0  0  0  0  0  0  0  0  0  0  0  0
   29.0856    9.6414   40.4878 H   0  0  0  0  0  0  0  0  0  0  0  0
   31.4680    7.1190   40.9460 H   0  0  0  0  0  0  0  0  0  0  0  0
   31.4600    5.8630   40.0980 H   0  0  0  0  0  0  0  0  0  0  0  0
   28.2148    3.2603   37.2324 H   0  0  0  0  0  0  0  0  0  0  0  0
   30.2660    6.2919   36.9526 H   0  0  0  0  0  0  0  0  0  0  0  0
   30.1755    7.7972   34.9756 H   0  0  0  0  0  0  0  0  0  0  0  0
   28.2770    9.3219   34.1021 H   0  0  0  0  0  0  0  0  0  0  0  0
   29.5380    9.1826   32.7900 H   0  0  0  0  0  0  0  0  0  0  0  0
   27.4036    8.1862   30.6790 H   0  0  0  0  0  0  0  0  0  0  0  0
   25.9377    9.5028   29.1557 H   0  0  0  0  0  0  0  0  0  0  0  0
   25.3020   11.8398   29.7432 H   0  0  0  0  0  0  0  0  0  0  0  0
   26.1286   12.8606   31.8618 H   0  0  0  0  0  0  0  0  0  0  0  0
   27.5971   11.5513   33.3909 H   0  0  0  0  0  0  0  0  0  0  0  0
   26.7276    5.6584   33.5179 H   0  0  0  0  0  0  0  0  0  0  0  0
   32.9119    2.1979   36.2210 H   0  0  0  0  0  0  0  0  0  0  0  0
   32.2379    3.8902   36.0537 H   0  0  0  0  0  0  0  0  0  0  0  0
   34.3302    2.3419   39.3705 H   0  0  0  0  0  0  0  0  0  0  0  0
   33.9530    1.4617   37.8507 H   0  0  0  0  0  0  0  0  0  0  0  0
   35.1894    2.7648   37.8507 H   0  0  0  0  0  0  0  0  0  0  0  0
   34.1022    5.3211   38.5630 H   0  0  0  0  0  0  0  0  0  0  0  0
   34.7479    4.6164   37.0420 H   0  0  0  0  0  0  0  0  0  0  0  0
   33.1548    5.4463   37.0420 H   0  0  0  0  0  0  0  0  0  0  0  0
   32.0747    2.6573   39.6452 H   0  0  0  0  0  0  0  0  0  0  0  0
   32.7838    4.3375   39.8715 H   0  0  0  0  0  0  0  0  0  0  0  0
  1  2  1  0
  2  3  2  0
  3  4  1  0
  4  5  2  0
  5  6  1  0
  6  7  1  0
  7  8  2  0
  7  9  1  0
  9 10  1  0
 10 11  2  0
 11 12  1  0
 12 13  2  0
 13 14  1  0
 14 15  1  0
 14 16  2  0
 16 17  1  0
 17 18  1  0
 18 19  2  0
 19 20  1  0
 20 21  1  0
 21 22  2  0
 22 23  1  0
 23 24  2  0
 24 25  1  0
 25 26  1  0
 26 27  1  0
 27 28  2  0
 28 29  1  0
 29 30  2  0
 30 31  1  0
 31 32  2  0
 24 33  1  0
 33 34  2  0
 34 35  1  0
 19 36  1  0
 36 37  2  0
 36 38  2  0
 36 39  1  0
 39 40  1  0
 40 41  1  0
 40 42  1  0
 40 43  1  0
  6 44  2  0
 44  2  1  0
 20  9  1  0
 34 21  1  0
 16 10  1  0
 43 18  1  0
 32 27  1  0
  1 45  1  0
  1 46  1  0
  1 47  1  0
  3 48  1  0
  4 49  1  0
  5 50  1  0
 11 51  1  0
 12 52  1  0
 13 53  1  0
 15 54  1  0
 17 55  1  0
 20 56  1  6
 22 57  1  0
 23 58  1  0
 26 59  1  0
 26 60  1  0
 28 61  1  0
 29 62  1  0
 30 63  1  0
 31 64  1  0
 32 65  1  0
 33 66  1  0
 39 67  1  0
 39 68  1  0
 41 69  1  0
 41 70  1  0
 41 71  1  0
 42 72  1  0
 42 73  1  0
 42 74  1  0
 43 75  1  0
 43 76  1  0
M  END
>  <meeko>  (6) 
{"is_sidechain": [false], "free_energy": -8.289, "intermolecular_energy": -13.388, "internal_energy": -1.054}

$$$$
3gnw_ligand
     RDKit          3D

 76 81  0  0  0  0  0  0  0  0999 V2000
   25.1510    3.7010   33.5490 C   0  0  0  0  0  0  0  0  0  0  0  0
   25.1120    2.7620   34.7170 C   0  0  0  0  0  0  0  0  0  0  0  0
   23.8930    2.2770   35.1850 C   0  0  0  0  0  0  0  0  0  0  0  0
   23.8830    1.3980   36.2650 C   0  0  0  0  0  0  0  0  0  0  0  0
   25.0860    1.0250   36.8500 C   0  0  0  0  0  0  0  0  0  0  0  0
   26.2590    1.5600   36.3280 C   0  0  0  0  0  0  0  0  0  0  0  0
   27.5810    1.1800   36.9160 C   0  0  0  0  0  0  0  0  0  0  0  0
   27.8280   -0.0150   37.0740 O   0  0  0  0  0  0  0  0  0  0  0  0
   28.4290    2.2140   37.3490 N   0  0  0  0  0  0  0  0  0  0  0  0
   27.9970    3.2190   38.2690 C   0  0  0  0  0  0  0  0  0  0  0  0
   26.7000    3.7560   38.1470 C   0  0  0  0  0  0  0  0  0  0  0  0
   26.2340    4.7260   39.0360 C   0  0  0  0  0  0  0  0  0  0  0  0
   27.0520    5.1730   40.0660 C   0  0  0  0  0  0  0  0  0  0  0  0
   28.3330    4.6440   40.1870 C   0  0  0  0  0  0  0  0  0  0  0  0
   29.1590    5.0610   41.2080 O   0  0  0  0  0  0  0  0  0  0  0  0
   28.8380    3.6740   39.2940 C   0  0  0  0  0  0  0  0  0  0  0  0
   30.1300    3.1680   39.5570 N   0  0  0  0  0  0  0  0  0  0  0  0
   31.0760    2.6720   38.6830 C   0  0  0  0  0  0  0  0  0  0  0  0
   30.9030    2.4180   37.3650 C   0  0  0  0  0  0  0  0  0  0  0  0
   29.6320    2.5120   36.5420 C   0  0  2  0  0  0  0  0  0  0  0  0
   29.4340    3.7450   35.6590 C   0  0  0  0  0  0  0  0  0  0  0  0
   29.6310    5.0200   36.2220 C   0  0  0  0  0  0  0  0  0  0  0  0
   29.4950    6.1850   35.4580 C   0  0  0  0  0  0  0  0  0  0  0  0
   29.1540    6.1030   34.1110 C   0  0  0  0  0  0  0  0  0  0  0  0
   28.9980    7.1520   33.2490 O   0  0  0  0  0  0  0  0  0  0  0  0
   28.6030    8.4190   33.7850 C   0  0  0  0  0  0  0  0  0  0  0  0
   27.9010    9.3020   32.7770 C   0  0  0  0  0  0  0  0  0  0  0  0
   27.3590    8.7690   31.5980 C   0  0  0  0  0  0  0  0  0  0  0  0
   26.6900    9.5910   30.6900 C   0  0  0  0  0  0  0  0  0  0  0  0
   26.5440   10.9510   30.9550 C   0  0  0  0  0  0  0  0  0  0  0  0
   27.0640   11.4900   32.1300 C   0  0  0  0  0  0  0  0  0  0  0  0
   27.7340   10.6690   33.0400 C   0  0  0  0  0  0  0  0  0  0  0  0
   28.9640    4.8470   33.5380 C   0  0  0  0  0  0  0  0  0  0  0  0
   29.1010    3.6890   34.3040 C   0  0  0  0  0  0  0  0  0  0  0  0
   28.8930    2.5160   33.6910 F   0  0  0  0  0  0  0  0  0  0  0  0
   32.3180    1.9150   36.4720 S   0  0  0  0  0  0  0  0  0  0  0  0
   32.1460    2.1900   35.0580 O   0  0  0  0  0  0  0  0  0  0  0  0
   32.7260    0.5920   36.9070 O   0  0  0  0  0  0  0  0  0  0  0  0
   33.5230    3.0820   37.0690 C   0  0  0  0  0  0  0  0  0  0  0  0
   33.6240    3.1410   38.6080 C   0  0  0  0  0  0  0  0  0  0  0  0
   34.9330    2.4660   39.0620 C   0  0  0  0  0  0  0  0  0  0  0  0
   33.6780    4.6200   39.0430 C   0  0  0  0  0  0  0  0  0  0  0  0
   32.4430    2.4380   39.3220 C   0  0  0  0  0  0  0  0  0  0  0  0
   26.2960    2.4180   35.2740 N   0  0  0  0  0  0  0  0  0  0  0  0
   25.1941    4.7380   33.9135 H   0  0  0  0  0  0  0  0  0  0  0  0
   26.0411    3.4897   32.9383 H   0  0  0  0  0  0  0  0  0  0  0  0
   24.2464    3.5643   32.9383 H   0  0  0  0  0  0  0  0  0  0  0  0
   22.9507    2.5843   34.7078 H   0  0  0  0  0  0  0  0  0  0  0  0
   22.9317    1.0030   36.6509 H   0  0  0  0  0  0  0  0  0  0  0  0
   25.1105    0.3276   37.7003 H   0  0  0  0  0  0  0  0  0  0  0  0
   26.0435    3.4048   37.3373 H   0  0  0  0  0  0  0  0  0  0  0  0
   25.2198    5.1362   38.9211 H   0  0  0  0  0  0  0  0  0  0  0  0
   26.6924    5.9334   40.7749 H   0  0  0  0  0  0  0  0  0  0  0  0
   29.0600    4.4420   41.9510 H   0  0  0  0  0  0  0  0  0  0  0  0
   30.5040    3.6110   40.4000 H   0  0  0  0  0  0  0  0  0  0  0  0
   29.7856    1.7188   35.7955 H   0  0  0  0  0  0  0  0  0  0  0  0
   29.8977    5.1027   37.2860 H   0  0  0  0  0  0  0  0  0  0  0  0
   29.6581    7.1682   35.9235 H   0  0  0  0  0  0  0  0  0  0  0  0
   27.9212    8.2434   34.6302 H   0  0  0  0  0  0  0  0  0  0  0  0
   29.5198    8.9423   34.0942 H   0  0  0  0  0  0  0  0  0  0  0  0
   27.4621    7.6943   31.3874 H   0  0  0  0  0  0  0  0  0  0  0  0
   26.2774    9.1645   29.7638 H   0  0  0  0  0  0  0  0  0  0  0  0
   26.0188   11.5985   30.2374 H   0  0  0  0  0  0  0  0  0  0  0  0
   26.9468   12.5632   32.3412 H   0  0  0  0  0  0  0  0  0  0  0  0
   28.1338   11.0984   33.9705 H   0  0  0  0  0  0  0  0  0  0  0  0
   28.7037    4.7679   32.4722 H   0  0  0  0  0  0  0  0  0  0  0  0
   34.5075    2.8000   36.6674 H   0  0  0  0  0  0  0  0  0  0  0  0
   33.1997    4.0775   36.7308 H   0  0  0  0  0  0  0  0  0  0  0  0
   34.9729    2.4454   40.1611 H   0  0  0  0  0  0  0  0  0  0  0  0
   34.9686    1.4371   38.6745 H   0  0  0  0  0  0  0  0  0  0  0  0
   35.7918    3.0337   38.6745 H   0  0  0  0  0  0  0  0  0  0  0  0
   33.6802    4.6793   40.1414 H   0  0  0  0  0  0  0  0  0  0  0  0
   34.5937    5.0849   38.6489 H   0  0  0  0  0  0  0  0  0  0  0  0
   32.7986    5.1505   38.6489 H   0  0  0  0  0  0  0  0  0  0  0  0
   32.6393    1.3557   39.3228 H   0  0  0  0  0  0  0  0  0  0  0  0
   32.3904    2.8710   40.3318 H   0  0  0  0  0  0  0  0  0  0  0  0
  1  2  1  0
  2  3  2  0
  3  4  1  0
  4  5  2  0
  5  6  1  0
  6  7  1  0
  7  8  2  0
  7  9  1  0
  9 10  1  0
 10 11  2  0
 11 12  1  0
 12 13  2  0
 13 14  1  0
 14 15  1  0
 14 16  2  0
 16 17  1  0
 17 18  1  0
 18 19  2  0
 19 20  1  0
 20 21  1  0
 21 22  2  0
 22 23  1  0
 23 24  2  0
 24 25  1  0
 25 26  1  0
 26 27  1  0
 27 28  2  0
 28 29  1  0
 29 30  2  0
 30 31  1  0
 31 32  2  0
 24 33  1  0
 33 34  2  0
 34 35  1  0
 19 36  1  0
 36 37  2  0
 36 38  2  0
 36 39  1  0
 39 40  1  0
 40 41  1  0
 40 42  1  0
 40 43  1  0
  6 44  2  0
 44  2  1  0
 20  9  1  0
 34 21  1  0
 16 10  1  0
 43 18  1  0
 32 27  1  0
  1 45  1  0
  1 46  1  0
  1 47  1  0
  3 48  1  0
  4 49  1  0
  5 50  1  0
 11 51  1  0
 12 52  1  0
 13 53  1  0
 15 54  1  0
 17 55  1  0
 20 56  1  6
 22 57  1  0
 23 58  1  0
 26 59  1  0
 26 60  1  0
 28 61  1  0
 29 62  1  0
 30 63  1  0
 31 64  1  0
 32 65  1  0
 33 66  1  0
 39 67  1  0
 39 68  1  0
 41 69  1  0
 41 70  1  0
 41 71  1  0
 42 72  1  0
 42 73  1  0
 42 74  1  0
 43 75  1  0
 43 76  1  0
M  END
>  <meeko>  (7) 
{"is_sidechain": [false], "free_energy": -8.239, "intermolecular_energy": -14.156, "internal_energy": -0.203}

$$$$
3gnw_ligand
     RDKit          3D

 76 81  0  0  0  0  0  0  0  0999 V2000
   25.8240    4.7760   33.2450 C   0  0  0  0  0  0  0  0  0  0  0  0
   25.6570    3.6360   34.2050 C   0  0  0  0  0  0  0  0  0  0  0  0
   24.3890    3.2830   34.6580 C   0  0  0  0  0  0  0  0  0  0  0  0
   24.2580    2.2150   35.5420 C   0  0  0  0  0  0  0  0  0  0  0  0
   25.3930    1.5270   35.9500 C   0  0  0  0  0  0  0  0  0  0  0  0
   26.6230    1.9470   35.4580 C   0  0  0  0  0  0  0  0  0  0  0  0
   27.8740    1.2320   35.8600 C   0  0  0  0  0  0  0  0  0  0  0  0
   28.0580    0.0930   35.4320 O   0  0  0  0  0  0  0  0  0  0  0  0
   28.7240    1.8620   36.7860 N   0  0  0  0  0  0  0  0  0  0  0  0
   28.2730    2.2680   38.0790 C   0  0  0  0  0  0  0  0  0  0  0  0
   26.9950    2.8450   38.2170 C   0  0  0  0  0  0  0  0  0  0  0  0
   26.5110    3.2380   39.4660 C   0  0  0  0  0  0  0  0  0  0  0  0
   27.2920    3.0570   40.6000 C   0  0  0  0  0  0  0  0  0  0  0  0
   28.5540    2.4870   40.4660 C   0  0  0  0  0  0  0  0  0  0  0  0
   29.3420    2.2840   41.5770 O   0  0  0  0  0  0  0  0  0  0  0  0
   29.0770    2.0950   39.2150 C   0  0  0  0  0  0  0  0  0  0  0  0
   30.3450    1.4720   39.2140 N   0  0  0  0  0  0  0  0  0  0  0  0
   31.3050    1.4320   38.2240 C   0  0  0  0  0  0  0  0  0  0  0  0
   31.1840    1.9060   36.9630 C   0  0  0  0  0  0  0  0  0  0  0  0
   29.9660    2.4850   36.2790 C   0  0  2  0  0  0  0  0  0  0  0  0
   29.8480    4.0070   36.1990 C   0  0  0  0  0  0  0  0  0  0  0  0
   30.0980    4.7680   37.3570 C   0  0  0  0  0  0  0  0  0  0  0  0
   30.0360    6.1670   37.3390 C   0  0  0  0  0  0  0  0  0  0  0  0
   29.7170    6.8390   36.1630 C   0  0  0  0  0  0  0  0  0  0  0  0
   29.6300    8.1930   36.0020 O   0  0  0  0  0  0  0  0  0  0  0  0
   28.5270    8.8810   36.6010 C   0  0  0  0  0  0  0  0  0  0  0  0
   28.5570    8.8540   38.1130 C   0  0  0  0  0  0  0  0  0  0  0  0
   29.6440    9.3760   38.8280 C   0  0  0  0  0  0  0  0  0  0  0  0
   29.6450    9.3700   40.2230 C   0  0  0  0  0  0  0  0  0  0  0  0
   28.5540    8.8540   40.9200 C   0  0  0  0  0  0  0  0  0  0  0  0
   27.4610    8.3470   40.2220 C   0  0  0  0  0  0  0  0  0  0  0  0
   27.4580    8.3520   38.8260 C   0  0  0  0  0  0  0  0  0  0  0  0
   29.4740    6.0990   35.0070 C   0  0  0  0  0  0  0  0  0  0  0  0
   29.5380    4.7060   35.0300 C   0  0  0  0  0  0  0  0  0  0  0  0
   29.2820    4.0590   33.8850 F   0  0  0  0  0  0  0  0  0  0  0  0
   32.6140    1.8370   35.9600 S   0  0  0  0  0  0  0  0  0  0  0  0
   32.5270    2.8120   34.8900 O   0  0  0  0  0  0  0  0  0  0  0  0
   32.9310    0.4550   35.6540 O   0  0  0  0  0  0  0  0  0  0  0  0
   33.8470    2.4410   37.0930 C   0  0  0  0  0  0  0  0  0  0  0  0
   33.8750    1.6910   38.4420 C   0  0  0  0  0  0  0  0  0  0  0  0
   35.1230    0.7890   38.5010 C   0  0  0  0  0  0  0  0  0  0  0  0
   33.9840    2.7270   39.5810 C   0  0  0  0  0  0  0  0  0  0  0  0
   32.6240    0.8060   38.6710 C   0  0  0  0  0  0  0  0  0  0  0  0
   26.7780    2.9850   34.5940 N   0  0  0  0  0  0  0  0  0  0  0  0
   25.9611    5.7116   33.8070 H   0  0  0  0  0  0  0  0  0  0  0  0
   26.7054    4.5961   32.6119 H   0  0  0  0  0  0  0  0  0  0  0  0
   24.9281    4.8565   32.6119 H   0  0  0  0  0  0  0  0  0  0  0  0
   23.5021    3.8403   34.3221 H   0  0  0  0  0  0  0  0  0  0  0  0
   23.2656    1.9195   35.9132 H   0  0  0  0  0  0  0  0  0  0  0  0
   25.3207    0.6750   36.6420 H   0  0  0  0  0  0  0  0  0  0  0  0
   26.3676    2.9883   37.3249 H   0  0  0  0  0  0  0  0  0  0  0  0
   25.5121    3.6906   39.5519 H   0  0  0  0  0  0  0  0  0  0  0  0
   26.9184    3.3598   41.5893 H   0  0  0  0  0  0  0  0  0  0  0  0
   29.3760    3.1140   42.0820 H   0  0  0  0  0  0  0  0  0  0  0  0
   30.7010    1.4260   40.1710 H   0  0  0  0  0  0  0  0  0  0  0  0
   30.1241    2.2132   35.2249 H   0  0  0  0  0  0  0  0  0  0  0  0
   30.3474    4.2525   38.2962 H   0  0  0  0  0  0  0  0  0  0  0  0
   30.2402    6.7366   38.2576 H   0  0  0  0  0  0  0  0  0  0  0  0
   28.5478    9.9297   36.2697 H   0  0  0  0  0  0  0  0  0  0  0  0
   27.6089    8.3650   36.2834 H   0  0  0  0  0  0  0  0  0  0  0  0
   30.5039    9.7941   38.2841 H   0  0  0  0  0  0  0  0  0  0  0  0
   30.5079    9.7730   40.7735 H   0  0  0  0  0  0  0  0  0  0  0  0
   28.5563    8.8473   42.0200 H   0  0  0  0  0  0  0  0  0  0  0  0
   26.5985    7.9419   40.7715 H   0  0  0  0  0  0  0  0  0  0  0  0
   26.5871    7.9592   38.2808 H   0  0  0  0  0  0  0  0  0  0  0  0
   29.2297    6.6182   34.0685 H   0  0  0  0  0  0  0  0  0  0  0  0
   34.8340    2.3380   36.6185 H   0  0  0  0  0  0  0  0  0  0  0  0
   33.5931    3.4882   37.3141 H   0  0  0  0  0  0  0  0  0  0  0  0
   35.3878    0.5976   39.5514 H   0  0  0  0  0  0  0  0  0  0  0  0
   34.9099   -0.1652   37.9969 H   0  0  0  0  0  0  0  0  0  0  0  0
   35.9622    1.2907   37.9969 H   0  0  0  0  0  0  0  0  0  0  0  0
   33.9298    2.2120   40.5515 H   0  0  0  0  0  0  0  0  0  0  0  0
   34.9431    3.2597   39.5016 H   0  0  0  0  0  0  0  0  0  0  0  0
   33.1567    3.4476   39.5016 H   0  0  0  0  0  0  0  0  0  0  0  0
   32.7628   -0.1329   38.1149 H   0  0  0  0  0  0  0  0  0  0  0  0
   32.5439    0.6593   39.7582 H   0  0  0  0  0  0  0  0  0  0  0  0
  1  2  1  0
  2  3  2  0
  3  4  1  0
  4  5  2  0
  5  6  1  0
  6  7  1  0
  7  8  2  0
  7  9  1  0
  9 10  1  0
 10 11  2  0
 11 12  1  0
 12 13  2  0
 13 14  1  0
 14 15  1  0
 14 16  2  0
 16 17  1  0
 17 18  1  0
 18 19  2  0
 19 20  1  0
 20 21  1  0
 21 22  2  0
 22 23  1  0
 23 24  2  0
 24 25  1  0
 25 26  1  0
 26 27  1  0
 27 28  2  0
 28 29  1  0
 29 30  2  0
 30 31  1  0
 31 32  2  0
 24 33  1  0
 33 34  2  0
 34 35  1  0
 19 36  1  0
 36 37  2  0
 36 38  2  0
 36 39  1  0
 39 40  1  0
 40 41  1  0
 40 42  1  0
 40 43  1  0
  6 44  2  0
 44  2  1  0
 20  9  1  0
 34 21  1  0
 16 10  1  0
 43 18  1  0
 32 27  1  0
  1 45  1  0
  1 46  1  0
  1 47  1  0
  3 48  1  0
  4 49  1  0
  5 50  1  0
 11 51  1  0
 12 52  1  0
 13 53  1  0
 15 54  1  0
 17 55  1  0
 20 56  1  6
 22 57  1  0
 23 58  1  0
 26 59  1  0
 26 60  1  0
 28 61  1  0
 29 62  1  0
 30 63  1  0
 31 64  1  0
 32 65  1  0
 33 66  1  0
 39 67  1  0
 39 68  1  0
 41 69  1  0
 41 70  1  0
 41 71  1  0
 42 72  1  0
 42 73  1  0
 42 74  1  0
 43 75  1  0
 43 76  1  0
M  END
>  <meeko>  (8) 
{"is_sidechain": [false], "free_energy": -7.732, "intermolecular_energy": -13.209, "internal_energy": -0.334}

$$$$
3gnw_ligand
     RDKit          3D

 76 81  0  0  0  0  0  0  0  0999 V2000
   30.1350    9.2950   43.9130 C   0  0  0  0  0  0  0  0  0  0  0  0
   30.1110    9.3140   42.4140 C   0  0  0  0  0  0  0  0  0  0  0  0
   30.9610   10.1640   41.7110 C   0  0  0  0  0  0  0  0  0  0  0  0
   30.9280   10.1570   40.3190 C   0  0  0  0  0  0  0  0  0  0  0  0
   30.0500    9.3030   39.6640 C   0  0  0  0  0  0  0  0  0  0  0  0
   29.2290    8.4920   40.4400 C   0  0  0  0  0  0  0  0  0  0  0  0
   28.2730    7.5480   39.7810 C   0  0  0  0  0  0  0  0  0  0  0  0
   27.1110    7.5190   40.1830 O   0  0  0  0  0  0  0  0  0  0  0  0
   28.7810    6.6730   38.8050 N   0  0  0  0  0  0  0  0  0  0  0  0
   28.4640    6.8120   37.4180 C   0  0  0  0  0  0  0  0  0  0  0  0
   27.1530    7.1620   37.0400 C   0  0  0  0  0  0  0  0  0  0  0  0
   26.8070    7.3250   35.6970 C   0  0  0  0  0  0  0  0  0  0  0  0
   27.7670    7.1480   34.7090 C   0  0  0  0  0  0  0  0  0  0  0  0
   29.0630    6.8020   35.0800 C   0  0  0  0  0  0  0  0  0  0  0  0
   30.0350    6.6340   34.1200 O   0  0  0  0  0  0  0  0  0  0  0  0
   29.4380    6.6140   36.4290 C   0  0  0  0  0  0  0  0  0  0  0  0
   30.7960    6.3260   36.6850 N   0  0  0  0  0  0  0  0  0  0  0  0
   31.3680    5.6530   37.7450 C   0  0  0  0  0  0  0  0  0  0  0  0
   30.7310    5.1850   38.8420 C   0  0  0  0  0  0  0  0  0  0  0  0
   29.3020    5.3610   39.2480 C   0  0  2  0  0  0  0  0  0  0  0  0
   28.3300    4.2250   38.9300 C   0  0  0  0  0  0  0  0  0  0  0  0
   28.5670    3.4300   37.7920 C   0  0  0  0  0  0  0  0  0  0  0  0
   27.7310    2.3560   37.4650 C   0  0  0  0  0  0  0  0  0  0  0  0
   26.6320    2.0530   38.2650 C   0  0  0  0  0  0  0  0  0  0  0  0
   25.7440    1.0340   38.0700 O   0  0  0  0  0  0  0  0  0  0  0  0
   24.5550    1.3030   37.3190 C   0  0  0  0  0  0  0  0  0  0  0  0
   24.7910    2.2090   36.1310 C   0  0  0  0  0  0  0  0  0  0  0  0
   24.5740    3.5910   36.2170 C   0  0  0  0  0  0  0  0  0  0  0  0
   24.8220    4.4180   35.1210 C   0  0  0  0  0  0  0  0  0  0  0  0
   25.3020    3.8760   33.9310 C   0  0  0  0  0  0  0  0  0  0  0  0
   25.5370    2.5060   33.8370 C   0  0  0  0  0  0  0  0  0  0  0  0
   25.2890    1.6770   34.9330 C   0  0  0  0  0  0  0  0  0  0  0  0
   26.3900    2.8270   39.3990 C   0  0  0  0  0  0  0  0  0  0  0  0
   27.2270    3.8960   39.7210 C   0  0  0  0  0  0  0  0  0  0  0  0
   26.9280    4.6040   40.8180 F   0  0  0  0  0  0  0  0  0  0  0  0
   31.6900    4.2530   39.9670 S   0  0  0  0  0  0  0  0  0  0  0  0
   30.8380    3.3940   40.7660 O   0  0  0  0  0  0  0  0  0  0  0  0
   32.6580    5.1170   40.6180 O   0  0  0  0  0  0  0  0  0  0  0  0
   32.5750    3.1870   38.8500 C   0  0  0  0  0  0  0  0  0  0  0  0
   33.3140    3.9400   37.7230 C   0  0  0  0  0  0  0  0  0  0  0  0
   34.8300    3.9160   37.9980 C   0  0  0  0  0  0  0  0  0  0  0  0
   33.0620    3.2050   36.3900 C   0  0  0  0  0  0  0  0  0  0  0  0
   32.8690    5.4180   37.5870 C   0  0  0  0  0  0  0  0  0  0  0  0
   29.2430    8.4780   41.7990 N   0  0  0  0  0  0  0  0  0  0  0  0
   29.3279    9.9339   44.3008 H   0  0  0  0  0  0  0  0  0  0  0  0
   29.9899    8.2644   44.2690 H   0  0  0  0  0  0  0  0  0  0  0  0
   31.1048    9.6727   44.2690 H   0  0  0  0  0  0  0  0  0  0  0  0
   31.6497   10.8324   42.2485 H   0  0  0  0  0  0  0  0  0  0  0  0
   31.5904   10.8209   39.7441 H   0  0  0  0  0  0  0  0  0  0  0  0
   30.0054    9.2692   38.5654 H   0  0  0  0  0  0  0  0  0  0  0  0
   26.3881    7.3096   37.8166 H   0  0  0  0  0  0  0  0  0  0  0  0
   25.7762    7.5930   35.4221 H   0  0  0  0  0  0  0  0  0  0  0  0
   27.5067    7.2794   33.6484 H   0  0  0  0  0  0  0  0  0  0  0  0
   29.7330    7.0640   33.3030 H   0  0  0  0  0  0  0  0  0  0  0  0
   31.3010    6.2550   35.7980 H   0  0  0  0  0  0  0  0  0  0  0  0
   29.3482    5.3245   40.3464 H   0  0  0  0  0  0  0  0  0  0  0  0
   29.4277    3.6580   37.1461 H   0  0  0  0  0  0  0  0  0  0  0  0
   27.9429    1.7489   36.5725 H   0  0  0  0  0  0  0  0  0  0  0  0
   24.1484    0.3480   36.9547 H   0  0  0  0  0  0  0  0  0  0  0  0
   23.8552    1.8216   37.9908 H   0  0  0  0  0  0  0  0  0  0  0  0
   24.2049    4.0275   37.1568 H   0  0  0  0  0  0  0  0  0  0  0  0
   24.6382    5.4999   35.1968 H   0  0  0  0  0  0  0  0  0  0  0  0
   25.4952    4.5286   33.0669 H   0  0  0  0  0  0  0  0  0  0  0  0
   25.9182    2.0770   32.8986 H   0  0  0  0  0  0  0  0  0  0  0  0
   25.4860    0.5975   34.8559 H   0  0  0  0  0  0  0  0  0  0  0  0
   25.5315    2.5929   40.0457 H   0  0  0  0  0  0  0  0  0  0  0  0
   33.3158    2.6162   39.4293 H   0  0  0  0  0  0  0  0  0  0  0  0
   31.8286    2.5397   38.3664 H   0  0  0  0  0  0  0  0  0  0  0  0
   35.0057    3.9132   39.0839 H   0  0  0  0  0  0  0  0  0  0  0  0
   35.2691    3.0108   37.5532 H   0  0  0  0  0  0  0  0  0  0  0  0
   35.2975    4.8069   37.5532 H   0  0  0  0  0  0  0  0  0  0  0  0
   32.7115    2.1828   36.5955 H   0  0  0  0  0  0  0  0  0  0  0  0
   32.2978    3.7454   35.8121 H   0  0  0  0  0  0  0  0  0  0  0  0
   33.9970    3.1628   35.8121 H   0  0  0  0  0  0  0  0  0  0  0  0
   33.3901    6.0044   38.3581 H   0  0  0  0  0  0  0  0  0  0  0  0
   33.1238    5.7247   36.5618 H   0  0  0  0  0  0  0  0  0  0  0  0
  1  2  1  0
  2  3  2  0
  3  4  1  0
  4  5  2  0
  5  6  1  0
  6  7  1  0
  7  8  2  0
  7  9  1  0
  9 10  1  0
 10 11  2  0
 11 12  1  0
 12 13  2  0
 13 14  1  0
 14 15  1  0
 14 16  2  0
 16 17  1  0
 17 18  1  0
 18 19  2  0
 19 20  1  0
 20 21  1  0
 21 22  2  0
 22 23  1  0
 23 24  2  0
 24 25  1  0
 25 26  1  0
 26 27  1  0
 27 28  2  0
 28 29  1  0
 29 30  2  0
 30 31  1  0
 31 32  2  0
 24 33  1  0
 33 34  2  0
 34 35  1  0
 19 36  1  0
 36 37  2  0
 36 38  2  0
 36 39  1  0
 39 40  1  0
 40 41  1  0
 40 42  1  0
 40 43  1  0
  6 44  2  0
 44  2  1  0
 20  9  1  0
 34 21  1  0
 16 10  1  0
 43 18  1  0
 32 27  1  0
  1 45  1  0
  1 46  1  0
  1 47  1  0
  3 48  1  0
  4 49  1  0
  5 50  1  0
 11 51  1  0
 12 52  1  0
 13 53  1  0
 15 54  1  0
 17 55  1  0
 20 56  1  1
 22 57  1  0
 23 58  1  0
 26 59  1  0
 26 60  1  0
 28 61  1  0
 29 62  1  0
 30 63  1  0
 31 64  1  0
 32 65  1  0
 33 66  1  0
 39 67  1  0
 39 68  1  0
 41 69  1  0
 41 70  1  0
 41 71  1  0
 42 72  1  0
 42 73  1  0
 42 74  1  0
 43 75  1  0
 43 76  1  0
M  END
>  <meeko>  (9) 
{"is_sidechain": [false], "free_energy": -7.514, "intermolecular_energy": -11.576, "internal_energy": -1.614}

$$$$
