4gid_ligand
     RDKit          3D

 95 97  0  0  0  0  0  0  0  0999 V2000
   50.0790   -4.6760    8.8190 C   0  0  0  0  0  0  0  0  0  0  0  0
   49.0350   -3.5840    8.5760 C   0  0  0  0  0  0  0  0  0  0  0  0
   49.6790   -2.4080    7.8410 C   0  0  0  0  0  0  0  0  0  0  0  0
   48.4030   -3.1690    9.9130 C   0  0  0  0  0  0  0  0  0  0  0  0
   47.2820   -2.2520    9.7580 N   0  0  0  0  0  0  0  0  0  0  0  0
   46.4790   -1.9060   10.8220 C   0  0  0  0  0  0  0  0  0  0  0  0
   46.5930   -2.4110   11.9380 O   0  0  0  0  0  0  0  0  0  0  0  0
   45.3360   -0.9300   10.5080 C   0  0  1  0  0  0  0  0  0  0  0  0
   44.0400   -1.2370   11.2680 N   0  0  0  0  0  0  0  0  0  0  0  0
   42.9770   -2.0520   10.5860 C   0  0  0  0  0  0  0  0  0  0  0  0
   42.9920   -3.5300   11.0690 C   0  0  2  0  0  0  0  0  0  0  0  0
   43.2870   -4.5100    9.9090 C   0  0  0  0  0  0  0  0  0  0  0  0
   42.2960   -5.6430    9.7780 C   0  0  0  0  0  0  0  0  0  0  0  0
   41.5110   -5.7570    8.6190 C   0  0  0  0  0  0  0  0  0  0  0  0
   40.6380   -6.8310    8.4580 C   0  0  0  0  0  0  0  0  0  0  0  0
   40.5310   -7.7980    9.4550 C   0  0  0  0  0  0  0  0  0  0  0  0
   41.2850   -7.6810   10.6200 C   0  0  0  0  0  0  0  0  0  0  0  0
   42.1590   -6.6050   10.7860 C   0  0  0  0  0  0  0  0  0  0  0  0
   41.7490   -3.8940   11.7800 N   0  0  0  0  0  0  0  0  0  0  0  0
   41.0800   -2.9950   12.5780 C   0  0  0  0  0  0  0  0  0  0  0  0
   41.5280   -1.8610   12.7400 O   0  0  0  0  0  0  0  0  0  0  0  0
   39.7160   -3.3450   13.0510 C   0  0  0  0  0  0  0  0  0  0  0  0
   38.8980   -4.2930   12.4290 C   0  0  0  0  0  0  0  0  0  0  0  0
   37.5630   -4.4160   12.8360 C   0  0  0  0  0  0  0  0  0  0  0  0
   36.6310   -5.3890   12.2080 C   0  0  0  0  0  0  0  0  0  0  0  0
   35.8280   -5.9870   12.9140 O   0  0  0  0  0  0  0  0  0  0  0  0
   36.7050   -5.5290   10.8420 N   0  0  0  0  0  0  0  0  0  0  0  0
   35.7730   -6.3890   10.1190 C   0  0  2  0  0  0  0  0  0  0  0  0
   36.5270   -7.5450    9.4530 C   0  0  0  0  0  0  0  0  0  0  0  0
   34.9380   -5.5320    9.1800 C   0  0  0  0  0  0  0  0  0  0  0  0
   33.6170   -5.1480    9.4520 C   0  0  0  0  0  0  0  0  0  0  0  0
   32.8990   -4.3620    8.5450 C   0  0  0  0  0  0  0  0  0  0  0  0
   33.4870   -3.9560    7.3500 C   0  0  0  0  0  0  0  0  0  0  0  0
   34.7930   -4.3340    7.0570 C   0  0  0  0  0  0  0  0  0  0  0  0
   35.5130   -5.1140    7.9640 C   0  0  0  0  0  0  0  0  0  0  0  0
   37.0580   -3.6070   13.8660 C   0  0  0  0  0  0  0  0  0  0  0  0
   37.8920   -2.7040   14.5240 C   0  0  0  0  0  0  0  0  0  0  0  0
   37.3940   -1.7490   15.4890 N   0  0  0  0  0  0  0  0  0  0  0  0
   36.8660   -0.4780   14.9290 C   0  0  0  0  0  0  0  0  0  0  0  0
   38.4220   -1.5790   16.8570 S   0  0  0  0  0  0  0  0  0  0  0  0
   37.4580   -0.5290   17.9270 C   0  0  0  0  0  0  0  0  0  0  0  0
   39.6120   -0.8710   16.4410 O   0  0  0  0  0  0  0  0  0  0  0  0
   38.5390   -2.8770   17.5090 O   0  0  0  0  0  0  0  0  0  0  0  0
   39.2200   -2.5890   14.1210 C   0  0  0  0  0  0  0  0  0  0  0  0
   45.7050    0.5300   10.8610 C   0  0  1  0  0  0  0  0  0  0  0  0
   44.6800    1.1680   11.7860 C   0  0  0  0  0  0  0  0  0  0  0  0
   46.9940    0.5030   11.5120 O   0  0  0  0  0  0  0  0  0  0  0  0
   50.2154   -4.8186    9.9012 H   0  0  0  0  0  0  0  0  0  0  0  0
   49.7369   -5.6178    8.3653 H   0  0  0  0  0  0  0  0  0  0  0  0
   51.0353   -4.3765    8.3653 H   0  0  0  0  0  0  0  0  0  0  0  0
   48.2262   -3.9646    7.9349 H   0  0  0  0  0  0  0  0  0  0  0  0
   50.0729   -1.6887    8.5742 H   0  0  0  0  0  0  0  0  0  0  0  0
   50.5015   -2.7760    7.2100 H   0  0  0  0  0  0  0  0  0  0  0  0
   48.9260   -1.9132    7.2100 H   0  0  0  0  0  0  0  0  0  0  0  0
   48.0460   -4.0738   10.4267 H   0  0  0  0  0  0  0  0  0  0  0  0
   49.1773   -2.6437   10.4913 H   0  0  0  0  0  0  0  0  0  0  0  0
   47.3200   -1.6640    8.9200 H   0  0  0  0  0  0  0  0  0  0  0  0
   45.1755   -1.0558    9.4271 H   0  0  0  0  0  0  0  0  0  0  0  0
   44.3630   -1.7470   12.1100 H   0  0  0  0  0  0  0  0  0  0  0  0
   43.6450   -0.3550   11.6450 H   0  0  0  0  0  0  0  0  0  0  0  0
   41.9930   -1.6135   10.8086 H   0  0  0  0  0  0  0  0  0  0  0  0
   43.1758   -2.0412    9.5042 H   0  0  0  0  0  0  0  0  0  0  0  0
   43.8162   -3.6182   11.7921 H   0  0  0  0  0  0  0  0  0  0  0  0
   43.2832   -3.9399    8.9683 H   0  0  0  0  0  0  0  0  0  0  0  0
   44.2613   -4.9707   10.1291 H   0  0  0  0  0  0  0  0  0  0  0  0
   41.5860   -4.9922    7.8319 H   0  0  0  0  0  0  0  0  0  0  0  0
   40.0330   -6.9153    7.5432 H   0  0  0  0  0  0  0  0  0  0  0  0
   39.8517   -8.6530    9.3222 H   0  0  0  0  0  0  0  0  0  0  0  0
   41.1917   -8.4387   11.4119 H   0  0  0  0  0  0  0  0  0  0  0  0
   42.7430   -6.5126   11.7136 H   0  0  0  0  0  0  0  0  0  0  0  0
   41.2420   -4.6970   11.4230 H   0  0  0  0  0  0  0  0  0  0  0  0
   39.2977   -4.9345   11.6298 H   0  0  0  0  0  0  0  0  0  0  0  0
   37.2620   -4.8980   10.2840 H   0  0  0  0  0  0  0  0  0  0  0  0
   35.0608   -6.8768   10.8008 H   0  0  0  0  0  0  0  0  0  0  0  0
   36.9536   -8.1991   10.2277 H   0  0  0  0  0  0  0  0  0  0  0  0
   35.8320   -8.1235    8.8266 H   0  0  0  0  0  0  0  0  0  0  0  0
   37.3366   -7.1422    8.8266 H   0  0  0  0  0  0  0  0  0  0  0  0
   33.1399   -5.4688   10.3898 H   0  0  0  0  0  0  0  0  0  0  0  0
   31.8659   -4.0634    8.7766 H   0  0  0  0  0  0  0  0  0  0  0  0
   32.9197   -3.3374    6.6390 H   0  0  0  0  0  0  0  0  0  0  0  0
   35.2583   -4.0187    6.1114 H   0  0  0  0  0  0  0  0  0  0  0  0
   36.5460   -5.4068    7.7251 H   0  0  0  0  0  0  0  0  0  0  0  0
   35.9996   -3.6858   14.1553 H   0  0  0  0  0  0  0  0  0  0  0  0
   36.5858    0.1966   15.7514 H   0  0  0  0  0  0  0  0  0  0  0  0
   37.6401   -0.0003   14.3105 H   0  0  0  0  0  0  0  0  0  0  0  0
   35.9813   -0.6894   14.3105 H   0  0  0  0  0  0  0  0  0  0  0  0
   37.6808   -0.7716   18.9765 H   0  0  0  0  0  0  0  0  0  0  0  0
   37.7107    0.5237   17.7324 H   0  0  0  0  0  0  0  0  0  0  0  0
   36.3875   -0.6911   17.7324 H   0  0  0  0  0  0  0  0  0  0  0  0
   39.8891   -1.8947   14.6504 H   0  0  0  0  0  0  0  0  0  0  0  0
   45.7272    1.1319    9.9405 H   0  0  0  0  0  0  0  0  0  0  0  0
   44.9684    0.9885   12.8322 H   0  0  0  0  0  0  0  0  0  0  0  0
   44.6398    2.2510   11.5974 H   0  0  0  0  0  0  0  0  0  0  0  0
   43.6905    0.7260   11.5974 H   0  0  0  0  0  0  0  0  0  0  0  0
   47.4580   -0.3030   11.2070 H   0  0  0  0  0  0  0  0  0  0  0  0
  1  2  1  0
  2  3  1  0
  2  4  1  0
  4  5  1  0
  5  6  1  0
  6  7  2  0
  6  8  1  0
  8  9  1  0
  9 10  1  0
 10 11  1  0
 11 12  1  0
 12 13  1  0
 13 14  2  0
 14 15  1  0
 15 16  2  0
 16 17  1  0
 17 18  2  0
 11 19  1  0
 19 20  1  0
 20 21  2  0
 20 22  1  0
 22 23  2  0
 23 24  1  0
 24 25  1  0
 25 26  2  0
 25 27  1  0
 27 28  1  0
 28 29  1  0
 28 30  1  0
 30 31  2  0
 31 32  1  0
 32 33  2  0
 33 34  1  0
 34 35  2  0
 24 36  2  0
 36 37  1  0
 37 38  1  0
 38 39  1  0
 38 40  1  0
 40 41  1  0
 40 42  2  0
 40 43  2  0
 37 44  2  0
  8 45  1  0
 45 46  1  0
 45 47  1  0
 18 13  1  0
 44 22  1  0
 35 30  1  0
  1 48  1  0
  1 49  1  0
  1 50  1  0
  2 51  1  0
  3 52  1  0
  3 53  1  0
  3 54  1  0
  4 55  1  0
  4 56  1  0
  5 57  1  0
  8 58  1  6
  9 59  1  0
  9 60  1  0
 10 61  1  0
 10 62  1  0
 11 63  1  1
 12 64  1  0
 12 65  1  0
 14 66  1  0
 15 67  1  0
 16 68  1  0
 17 69  1  0
 18 70  1  0
 19 71  1  0
 23 72  1  0
 27 73  1  0
 28 74  1  1
 29 75  1  0
 29 76  1  0
 29 77  1  0
 31 78  1  0
 32 79  1  0
 33 80  1  0
 34 81  1  0
 35 82  1  0
 36 83  1  0
 39 84  1  0
 39 85  1  0
 39 86  1  0
 41 87  1  0
 41 88  1  0
 41 89  1  0
 44 90  1  0
 45 91  1  6
 46 92  1  0
 46 93  1  0
 46 94  1  0
 47 95  1  0
M  CHG  1   9   1
M  END
>  <meeko>  (1) 
{"is_sidechain": [false], "free_energy": -10.938, "intermolecular_energy": -21.489, "internal_energy": -1.566}

$$$$
4gid_ligand
     RDKit          3D

 95 97  0  0  0  0  0  0  0  0999 V2000
   44.3370    1.3010   11.6080 C   0  0  0  0  0  0  0  0  0  0  0  0
   45.4990    1.8400   12.4460 C   0  0  0  0  0  0  0  0  0  0  0  0
   45.5300    3.3670   12.3650 C   0  0  0  0  0  0  0  0  0  0  0  0
   46.8130    1.1980   11.9760 C   0  0  0  0  0  0  0  0  0  0  0  0
   46.6140   -0.0160   11.1980 N   0  0  0  0  0  0  0  0  0  0  0  0
   46.6600   -1.2630   11.7790 C   0  0  0  0  0  0  0  0  0  0  0  0
   46.9590   -1.4410   12.9580 O   0  0  0  0  0  0  0  0  0  0  0  0
   46.4310   -2.4510   10.8330 C   0  0  1  0  0  0  0  0  0  0  0  0
   45.1710   -2.3130    9.9700 N   0  0  0  0  0  0  0  0  0  0  0  0
   43.8260   -2.4750   10.6220 C   0  0  0  0  0  0  0  0  0  0  0  0
   43.4320   -3.9740   10.7560 C   0  0  2  0  0  0  0  0  0  0  0  0
   43.2330   -4.6400    9.3740 C   0  0  0  0  0  0  0  0  0  0  0  0
   42.2540   -5.7920    9.3700 C   0  0  0  0  0  0  0  0  0  0  0  0
   42.3190   -6.7710   10.3730 C   0  0  0  0  0  0  0  0  0  0  0  0
   41.3840   -7.8040   10.4160 C   0  0  0  0  0  0  0  0  0  0  0  0
   40.3790   -7.8750    9.4540 C   0  0  0  0  0  0  0  0  0  0  0  0
   40.3200   -6.9230    8.4390 C   0  0  0  0  0  0  0  0  0  0  0  0
   41.2560   -5.8890    8.3910 C   0  0  0  0  0  0  0  0  0  0  0  0
   42.2500   -4.1610   11.6220 N   0  0  0  0  0  0  0  0  0  0  0  0
   41.5610   -3.0950   12.1500 C   0  0  0  0  0  0  0  0  0  0  0  0
   41.9410   -1.9450   11.9330 O   0  0  0  0  0  0  0  0  0  0  0  0
   40.2470   -3.3480   12.7940 C   0  0  0  0  0  0  0  0  0  0  0  0
   39.2850   -4.2210   12.2770 C   0  0  0  0  0  0  0  0  0  0  0  0
   38.0070   -4.2500   12.8520 C   0  0  0  0  0  0  0  0  0  0  0  0
   36.9300   -5.1390   12.3450 C   0  0  0  0  0  0  0  0  0  0  0  0
   35.9780   -5.3980   13.0700 O   0  0  0  0  0  0  0  0  0  0  0  0
   37.0560   -5.5920   11.0520 N   0  0  0  0  0  0  0  0  0  0  0  0
   36.0080   -6.3960   10.4280 C   0  0  2  0  0  0  0  0  0  0  0  0
   36.6190   -7.6220    9.7420 C   0  0  0  0  0  0  0  0  0  0  0  0
   35.1690   -5.5000    9.5300 C   0  0  0  0  0  0  0  0  0  0  0  0
   35.6890   -4.8030    8.4290 C   0  0  0  0  0  0  0  0  0  0  0  0
   34.8660   -3.9910    7.6430 C   0  0  0  0  0  0  0  0  0  0  0  0
   33.5150   -3.8550    7.9500 C   0  0  0  0  0  0  0  0  0  0  0  0
   32.9820   -4.5310    9.0430 C   0  0  0  0  0  0  0  0  0  0  0  0
   33.8010   -5.3470    9.8250 C   0  0  0  0  0  0  0  0  0  0  0  0
   37.7030   -3.4210   13.9430 C   0  0  0  0  0  0  0  0  0  0  0  0
   38.6810   -2.5950   14.4940 C   0  0  0  0  0  0  0  0  0  0  0  0
   38.3860   -1.6200   15.5210 N   0  0  0  0  0  0  0  0  0  0  0  0
   38.8060   -1.9820   16.8990 C   0  0  0  0  0  0  0  0  0  0  0  0
   36.8040   -0.9590   15.3840 S   0  0  0  0  0  0  0  0  0  0  0  0
   35.8180   -2.1520   16.2680 C   0  0  0  0  0  0  0  0  0  0  0  0
   36.4300   -0.9730   13.9870 O   0  0  0  0  0  0  0  0  0  0  0  0
   36.7590    0.2880   16.1360 O   0  0  0  0  0  0  0  0  0  0  0  0
   39.9520   -2.5740   13.9230 C   0  0  0  0  0  0  0  0  0  0  0  0
   47.6080   -2.6430    9.8470 C   0  0  1  0  0  0  0  0  0  0  0  0
   48.7720   -3.3840   10.4890 C   0  0  0  0  0  0  0  0  0  0  0  0
   47.1090   -3.4040    8.7250 O   0  0  0  0  0  0  0  0  0  0  0  0
   43.5436    0.9330   12.2751 H   0  0  0  0  0  0  0  0  0  0  0  0
   43.9382    2.1061   10.9733 H   0  0  0  0  0  0  0  0  0  0  0  0
   44.6941    0.4766   10.9733 H   0  0  0  0  0  0  0  0  0  0  0  0
   45.3629    1.5734   13.5045 H   0  0  0  0  0  0  0  0  0  0  0  0
   45.5385    3.7880   13.3812 H   0  0  0  0  0  0  0  0  0  0  0  0
   46.4348    3.6874   11.8278 H   0  0  0  0  0  0  0  0  0  0  0  0
   44.6389    3.7239   11.8278 H   0  0  0  0  0  0  0  0  0  0  0  0
   47.3548    1.9262   11.3546 H   0  0  0  0  0  0  0  0  0  0  0  0
   47.3799    0.9190   12.8764 H   0  0  0  0  0  0  0  0  0  0  0  0
   46.1470    0.1230   10.2960 H   0  0  0  0  0  0  0  0  0  0  0  0
   46.3286   -3.3105   11.5118 H   0  0  0  0  0  0  0  0  0  0  0  0
   45.2410   -1.3560    9.5830 H   0  0  0  0  0  0  0  0  0  0  0  0
   45.2540   -2.9280    9.1380 H   0  0  0  0  0  0  0  0  0  0  0  0
   43.8584   -2.0233   11.6245 H   0  0  0  0  0  0  0  0  0  0  0  0
   43.0753   -1.9768    9.9910 H   0  0  0  0  0  0  0  0  0  0  0  0
   44.2755   -4.4815   11.2470 H   0  0  0  0  0  0  0  0  0  0  0  0
   42.8669   -3.8752    8.6733 H   0  0  0  0  0  0  0  0  0  0  0  0
   44.2087   -5.0567    9.0834 H   0  0  0  0  0  0  0  0  0  0  0  0
   43.1142   -6.7230   11.1315 H   0  0  0  0  0  0  0  0  0  0  0  0
   41.4398   -8.5634   11.2099 H   0  0  0  0  0  0  0  0  0  0  0  0
   39.6328   -8.6821    9.4959 H   0  0  0  0  0  0  0  0  0  0  0  0
   39.5332   -6.9864    7.6729 H   0  0  0  0  0  0  0  0  0  0  0  0
   41.2102   -5.1465    7.5807 H   0  0  0  0  0  0  0  0  0  0  0  0
   41.7810   -5.0580   11.5580 H   0  0  0  0  0  0  0  0  0  0  0  0
   39.5283   -4.8776   11.4287 H   0  0  0  0  0  0  0  0  0  0  0  0
   37.7670   -5.2220   10.4370 H   0  0  0  0  0  0  0  0  0  0  0  0
   35.3168   -6.8113   11.1762 H   0  0  0  0  0  0  0  0  0  0  0  0
   36.9724   -8.3311   10.5051 H   0  0  0  0  0  0  0  0  0  0  0  0
   35.8578   -8.1082    9.1142 H   0  0  0  0  0  0  0  0  0  0  0  0
   37.4655   -7.3070    9.1142 H   0  0  0  0  0  0  0  0  0  0  0  0
   36.7567   -4.8965    8.1813 H   0  0  0  0  0  0  0  0  0  0  0  0
   35.2877   -3.4574    6.7785 H   0  0  0  0  0  0  0  0  0  0  0  0
   32.8704   -3.2146    7.3299 H   0  0  0  0  0  0  0  0  0  0  0  0
   31.9158   -4.4224    9.2907 H   0  0  0  0  0  0  0  0  0  0  0  0
   33.3705   -5.8793   10.6860 H   0  0  0  0  0  0  0  0  0  0  0  0
   36.6874   -3.4232   14.3654 H   0  0  0  0  0  0  0  0  0  0  0  0
   38.1809   -1.4432   17.6263 H   0  0  0  0  0  0  0  0  0  0  0  0
   38.6877   -3.0657   17.0456 H   0  0  0  0  0  0  0  0  0  0  0  0
   39.8604   -1.7051   17.0456 H   0  0  0  0  0  0  0  0  0  0  0  0
   35.9428   -2.0009   17.3504 H   0  0  0  0  0  0  0  0  0  0  0  0
   34.7590   -2.0235   15.9996 H   0  0  0  0  0  0  0  0  0  0  0  0
   36.1436   -3.1678   15.9996 H   0  0  0  0  0  0  0  0  0  0  0  0
   40.7347   -1.9403   14.3655 H   0  0  0  0  0  0  0  0  0  0  0  0
   47.9857   -1.6583    9.5344 H   0  0  0  0  0  0  0  0  0  0  0  0
   48.6834   -3.3276   11.5840 H   0  0  0  0  0  0  0  0  0  0  0  0
   48.7547   -4.4376   10.1735 H   0  0  0  0  0  0  0  0  0  0  0  0
   49.7193   -2.9224   10.1735 H   0  0  0  0  0  0  0  0  0  0  0  0
   47.1980   -4.3520    8.9540 H   0  0  0  0  0  0  0  0  0  0  0  0
  1  2  1  0
  2  3  1  0
  2  4  1  0
  4  5  1  0
  5  6  1  0
  6  7  2  0
  6  8  1  0
  8  9  1  0
  9 10  1  0
 10 11  1  0
 11 12  1  0
 12 13  1  0
 13 14  2  0
 14 15  1  0
 15 16  2  0
 16 17  1  0
 17 18  2  0
 11 19  1  0
 19 20  1  0
 20 21  2  0
 20 22  1  0
 22 23  2  0
 23 24  1  0
 24 25  1  0
 25 26  2  0
 25 27  1  0
 27 28  1  0
 28 29  1  0
 28 30  1  0
 30 31  2  0
 31 32  1  0
 32 33  2  0
 33 34  1  0
 34 35  2  0
 24 36  2  0
 36 37  1  0
 37 38  1  0
 38 39  1  0
 38 40  1  0
 40 41  1  0
 40 42  2  0
 40 43  2  0
 37 44  2  0
  8 45  1  0
 45 46  1  0
 45 47  1  0
 18 13  1  0
 44 22  1  0
 35 30  1  0
  1 48  1  0
  1 49  1  0
  1 50  1  0
  2 51  1  0
  3 52  1  0
  3 53  1  0
  3 54  1  0
  4 55  1  0
  4 56  1  0
  5 57  1  0
  8 58  1  1
  9 59  1  0
  9 60  1  0
 10 61  1  0
 10 62  1  0
 11 63  1  1
 12 64  1  0
 12 65  1  0
 14 66  1  0
 15 67  1  0
 16 68  1  0
 17 69  1  0
 18 70  1  0
 19 71  1  0
 23 72  1  0
 27 73  1  0
 28 74  1  1
 29 75  1  0
 29 76  1  0
 29 77  1  0
 31 78  1  0
 32 79  1  0
 33 80  1  0
 34 81  1  0
 35 82  1  0
 36 83  1  0
 39 84  1  0
 39 85  1  0
 39 86  1  0
 41 87  1  0
 41 88  1  0
 41 89  1  0
 44 90  1  0
 45 91  1  6
 46 92  1  0
 46 93  1  0
 46 94  1  0
 47 95  1  0
M  CHG  1   9   1
M  END
>  <meeko>  (2) 
{"is_sidechain": [false], "free_energy": -10.357, "intermolecular_energy": -21.649, "internal_energy": -0.264}

$$$$
4gid_ligand
     RDKit          3D

 95 97  0  0  0  0  0  0  0  0999 V2000
   35.3720   -4.9740    9.1250 C   0  0  0  0  0  0  0  0  0  0  0  0
   36.3630   -5.9480    9.7650 C   0  0  0  0  0  0  0  0  0  0  0  0
   35.9890   -7.3830    9.3940 C   0  0  0  0  0  0  0  0  0  0  0  0
   36.4000   -5.7220   11.2840 C   0  0  0  0  0  0  0  0  0  0  0  0
   37.6820   -5.2190   11.7590 N   0  0  0  0  0  0  0  0  0  0  0  0
   37.7610   -4.2200   12.7040 C   0  0  0  0  0  0  0  0  0  0  0  0
   36.7730   -3.6290   13.1370 O   0  0  0  0  0  0  0  0  0  0  0  0
   39.1790   -3.7930   13.1070 C   0  0  1  0  0  0  0  0  0  0  0  0
   40.1610   -3.7380   11.9300 N   0  0  0  0  0  0  0  0  0  0  0  0
   41.1980   -4.8180   11.8030 C   0  0  0  0  0  0  0  0  0  0  0  0
   42.0940   -4.6060   10.5490 C   0  0  2  0  0  0  0  0  0  0  0  0
   42.3520   -5.9330    9.7980 C   0  0  0  0  0  0  0  0  0  0  0  0
   41.3320   -7.0150   10.0710 C   0  0  0  0  0  0  0  0  0  0  0  0
   40.3020   -7.2570    9.1470 C   0  0  0  0  0  0  0  0  0  0  0  0
   39.3920   -8.2910    9.3560 C   0  0  0  0  0  0  0  0  0  0  0  0
   39.4940   -9.0910   10.4920 C   0  0  0  0  0  0  0  0  0  0  0  0
   40.4960   -8.8430   11.4280 C   0  0  0  0  0  0  0  0  0  0  0  0
   41.4070   -7.8070   11.2240 C   0  0  0  0  0  0  0  0  0  0  0  0
   43.3590   -3.9180   10.8810 N   0  0  0  0  0  0  0  0  0  0  0  0
   44.0400   -3.1650    9.9520 C   0  0  0  0  0  0  0  0  0  0  0  0
   43.6170   -3.0750    8.8000 O   0  0  0  0  0  0  0  0  0  0  0  0
   45.1550   -2.3020   10.4190 C   0  0  0  0  0  0  0  0  0  0  0  0
   46.4870   -2.7240   10.4870 C   0  0  0  0  0  0  0  0  0  0  0  0
   47.4320   -1.9030   11.1160 C   0  0  0  0  0  0  0  0  0  0  0  0
   48.8610   -2.2930   11.2410 C   0  0  0  0  0  0  0  0  0  0  0  0
   49.3740   -2.9690   10.3580 O   0  0  0  0  0  0  0  0  0  0  0  0
   49.5380   -1.8280   12.3440 N   0  0  0  0  0  0  0  0  0  0  0  0
   50.9670   -2.0780   12.5140 C   0  0  2  0  0  0  0  0  0  0  0  0
   51.2680   -2.4700   13.9640 C   0  0  0  0  0  0  0  0  0  0  0  0
   51.7430   -0.8790   11.9910 C   0  0  0  0  0  0  0  0  0  0  0  0
   51.7560    0.3700   12.6270 C   0  0  0  0  0  0  0  0  0  0  0  0
   52.4860    1.4370   12.0930 C   0  0  0  0  0  0  0  0  0  0  0  0
   53.2060    1.2730   10.9130 C   0  0  0  0  0  0  0  0  0  0  0  0
   53.1990    0.0440   10.2620 C   0  0  0  0  0  0  0  0  0  0  0  0
   52.4750   -1.0230   10.7960 C   0  0  0  0  0  0  0  0  0  0  0  0
   47.0490   -0.6660   11.6570 C   0  0  0  0  0  0  0  0  0  0  0  0
   45.7330   -0.2220   11.5360 C   0  0  0  0  0  0  0  0  0  0  0  0
   45.2520    0.9710   12.1970 N   0  0  0  0  0  0  0  0  0  0  0  0
   43.8590    1.3730   11.8740 C   0  0  0  0  0  0  0  0  0  0  0  0
   46.4040    2.2480   12.1980 S   0  0  0  0  0  0  0  0  0  0  0  0
   45.3670    3.6940   12.3020 C   0  0  0  0  0  0  0  0  0  0  0  0
   47.0860    2.2410   10.9230 O   0  0  0  0  0  0  0  0  0  0  0  0
   47.1740    2.1730   13.4330 O   0  0  0  0  0  0  0  0  0  0  0  0
   44.7970   -1.0380   10.9050 C   0  0  0  0  0  0  0  0  0  0  0  0
   39.2010   -2.3860   13.7510 C   0  0  1  0  0  0  0  0  0  0  0  0
   39.1770   -2.4560   15.2710 C   0  0  0  0  0  0  0  0  0  0  0  0
   40.4130   -1.7320   13.3150 O   0  0  0  0  0  0  0  0  0  0  0  0
   34.8251   -4.4364    9.9136 H   0  0  0  0  0  0  0  0  0  0  0  0
   35.9188   -4.2521    8.5006 H   0  0  0  0  0  0  0  0  0  0  0  0
   34.6596   -5.5332    8.5006 H   0  0  0  0  0  0  0  0  0  0  0  0
   37.3781   -5.7669    9.3818 H   0  0  0  0  0  0  0  0  0  0  0  0
   35.8358   -7.9708   10.3111 H   0  0  0  0  0  0  0  0  0  0  0  0
   35.0619   -7.3789    8.8020 H   0  0  0  0  0  0  0  0  0  0  0  0
   36.8001   -7.8319    8.8020 H   0  0  0  0  0  0  0  0  0  0  0  0
   35.6192   -4.9935   11.5480 H   0  0  0  0  0  0  0  0  0  0  0  0
   36.2342   -6.6980   11.7635 H   0  0  0  0  0  0  0  0  0  0  0  0
   38.4780   -5.8410   11.5890 H   0  0  0  0  0  0  0  0  0  0  0  0
   39.4925   -4.5688   13.8211 H   0  0  0  0  0  0  0  0  0  0  0  0
   39.5480   -3.7640   11.0960 H   0  0  0  0  0  0  0  0  0  0  0  0
   40.5990   -2.7980   11.8910 H   0  0  0  0  0  0  0  0  0  0  0  0
   41.8331   -4.8106   12.7011 H   0  0  0  0  0  0  0  0  0  0  0  0
   40.6796   -5.7824   11.6968 H   0  0  0  0  0  0  0  0  0  0  0  0
   41.5361   -3.9459    9.8686 H   0  0  0  0  0  0  0  0  0  0  0  0
   42.3498   -5.7230    8.7182 H   0  0  0  0  0  0  0  0  0  0  0  0
   43.3183   -6.3148   10.1593 H   0  0  0  0  0  0  0  0  0  0  0  0
   40.2132   -6.6249    8.2511 H   0  0  0  0  0  0  0  0  0  0  0  0
   38.5924   -8.4759    8.6236 H   0  0  0  0  0  0  0  0  0  0  0  0
   38.7848   -9.9169   10.6498 H   0  0  0  0  0  0  0  0  0  0  0  0
   40.5687   -9.4667   12.3312 H   0  0  0  0  0  0  0  0  0  0  0  0
   42.1887   -7.6107   11.9726 H   0  0  0  0  0  0  0  0  0  0  0  0
   43.5400   -3.7530   11.8650 H   0  0  0  0  0  0  0  0  0  0  0  0
   46.7886   -3.6883   10.0521 H   0  0  0  0  0  0  0  0  0  0  0  0
   49.1250   -1.1410   12.9570 H   0  0  0  0  0  0  0  0  0  0  0  0
   51.3000   -2.9405   11.9179 H   0  0  0  0  0  0  0  0  0  0  0  0
   50.7422   -1.7852   14.6456 H   0  0  0  0  0  0  0  0  0  0  0  0
   50.9266   -3.5001   14.1438 H   0  0  0  0  0  0  0  0  0  0  0  0
   52.3513   -2.4061   14.1438 H   0  0  0  0  0  0  0  0  0  0  0  0
   51.1856    0.5127   13.5567 H   0  0  0  0  0  0  0  0  0  0  0  0
   52.4911    2.4093   12.6074 H   0  0  0  0  0  0  0  0  0  0  0  0
   53.7795    2.1140   10.4961 H   0  0  0  0  0  0  0  0  0  0  0  0
   53.7636   -0.0869    9.3271 H   0  0  0  0  0  0  0  0  0  0  0  0
   52.4759   -1.9920   10.2754 H   0  0  0  0  0  0  0  0  0  0  0  0
   47.7908   -0.0437   12.1791 H   0  0  0  0  0  0  0  0  0  0  0  0
   43.2985    1.5348   12.8065 H   0  0  0  0  0  0  0  0  0  0  0  0
   43.8725    2.3039   11.2881 H   0  0  0  0  0  0  0  0  0  0  0  0
   43.3744    0.5780   11.2881 H   0  0  0  0  0  0  0  0  0  0  0  0
   45.1889    3.9423   13.3587 H   0  0  0  0  0  0  0  0  0  0  0  0
   45.8659    4.5395   11.8057 H   0  0  0  0  0  0  0  0  0  0  0  0
   44.4062    3.4926   11.8057 H   0  0  0  0  0  0  0  0  0  0  0  0
   43.7620   -0.6848   10.7867 H   0  0  0  0  0  0  0  0  0  0  0  0
   38.3047   -1.8294   13.4399 H   0  0  0  0  0  0  0  0  0  0  0  0
   39.5072   -1.4930   15.6877 H   0  0  0  0  0  0  0  0  0  0  0  0
   38.1536   -2.6715   15.6120 H   0  0  0  0  0  0  0  0  0  0  0  0
   39.8528   -3.2541   15.6120 H   0  0  0  0  0  0  0  0  0  0  0  0
   41.1480   -2.3680   13.4390 H   0  0  0  0  0  0  0  0  0  0  0  0
  1  2  1  0
  2  3  1  0
  2  4  1  0
  4  5  1  0
  5  6  1  0
  6  7  2  0
  6  8  1  0
  8  9  1  0
  9 10  1  0
 10 11  1  0
 11 12  1  0
 12 13  1  0
 13 14  2  0
 14 15  1  0
 15 16  2  0
 16 17  1  0
 17 18  2  0
 11 19  1  0
 19 20  1  0
 20 21  2  0
 20 22  1  0
 22 23  2  0
 23 24  1  0
 24 25  1  0
 25 26  2  0
 25 27  1  0
 27 28  1  0
 28 29  1  0
 28 30  1  0
 30 31  2  0
 31 32  1  0
 32 33  2  0
 33 34  1  0
 34 35  2  0
 24 36  2  0
 36 37  1  0
 37 38  1  0
 38 39  1  0
 38 40  1  0
 40 41  1  0
 40 42  2  0
 40 43  2  0
 37 44  2  0
  8 45  1  0
 45 46  1  0
 45 47  1  0
 18 13  1  0
 44 22  1  0
 35 30  1  0
  1 48  1  0
  1 49  1  0
  1 50  1  0
  2 51  1  0
  3 52  1  0
  3 53  1  0
  3 54  1  0
  4 55  1  0
  4 56  1  0
  5 57  1  0
  8 58  1  1
  9 59  1  0
  9 60  1  0
 10 61  1  0
 10 62  1  0
 11 63  1  6
 12 64  1  0
 12 65  1  0
 14 66  1  0
 15 67  1  0
 16 68  1  0
 17 69  1  0
 18 70  1  0
 19 71  1  0
 23 72  1  0
 27 73  1  0
 28 74  1  6
 29 75  1  0
 29 76  1  0
 29 77  1  0
 31 78  1  0
 32 79  1  0
 33 80  1  0
 34 81  1  0
 35 82  1  0
 36 83  1  0
 39 84  1  0
 39 85  1  0
 39 86  1  0
 41 87  1  0
 41 88  1  0
 41 89  1  0
 44 90  1  0
 45 91  1  6
 46 92  1  0
 46 93  1  0
 46 94  1  0
 47 95  1  0
M  CHG  1   9   1
M  END
>  <meeko>  (3) 
{"is_sidechain": [false], "free_energy": -9.743, "intermolecular_energy": -19.054, "internal_energy": -1.653}

$$$$
4gid_ligand
     RDKit          3D

 95 97  0  0  0  0  0  0  0  0999 V2000
   50.6860   -1.6360   13.6820 C   0  0  0  0  0  0  0  0  0  0  0  0
   49.7670   -1.3850   14.8800 C   0  0  0  0  0  0  0  0  0  0  0  0
   48.7410   -2.5130   14.9900 C   0  0  0  0  0  0  0  0  0  0  0  0
   49.1100   -0.0030   14.7440 C   0  0  0  0  0  0  0  0  0  0  0  0
   48.2980    0.1320   13.5420 N   0  0  0  0  0  0  0  0  0  0  0  0
   47.0440    0.6990   13.5770 C   0  0  0  0  0  0  0  0  0  0  0  0
   46.4930    1.0390   14.6210 O   0  0  0  0  0  0  0  0  0  0  0  0
   46.3070    0.7730   12.2320 C   0  0  1  0  0  0  0  0  0  0  0  0
   44.7890    0.5890   12.3540 N   0  0  0  0  0  0  0  0  0  0  0  0
   44.0490   -0.0800   11.2290 C   0  0  0  0  0  0  0  0  0  0  0  0
   43.8400   -1.5960   11.5020 C   0  0  2  0  0  0  0  0  0  0  0  0
   44.3580   -2.4660   10.3330 C   0  0  0  0  0  0  0  0  0  0  0  0
   45.8480   -2.7190   10.3540 C   0  0  0  0  0  0  0  0  0  0  0  0
   46.5080   -3.1190    9.1810 C   0  0  0  0  0  0  0  0  0  0  0  0
   47.8900   -3.2960    9.1700 C   0  0  0  0  0  0  0  0  0  0  0  0
   48.6290   -3.0840   10.3320 C   0  0  0  0  0  0  0  0  0  0  0  0
   47.9810   -2.7120   11.5090 C   0  0  0  0  0  0  0  0  0  0  0  0
   46.5970   -2.5370   11.5240 C   0  0  0  0  0  0  0  0  0  0  0  0
   42.4350   -1.9120   11.8300 N   0  0  0  0  0  0  0  0  0  0  0  0
   42.0550   -3.1600   12.2700 C   0  0  0  0  0  0  0  0  0  0  0  0
   42.8890   -4.0590   12.3700 O   0  0  0  0  0  0  0  0  0  0  0  0
   40.6860   -3.3320   12.8200 C   0  0  0  0  0  0  0  0  0  0  0  0
   39.7570   -4.2470   12.3160 C   0  0  0  0  0  0  0  0  0  0  0  0
   38.4350   -4.2040   12.7780 C   0  0  0  0  0  0  0  0  0  0  0  0
   37.3900   -5.1340   12.2750 C   0  0  0  0  0  0  0  0  0  0  0  0
   36.3790   -5.3130   12.9430 O   0  0  0  0  0  0  0  0  0  0  0  0
   37.6140   -5.7160   11.0490 N   0  0  0  0  0  0  0  0  0  0  0  0
   36.6080   -6.5720   10.4250 C   0  0  2  0  0  0  0  0  0  0  0  0
   37.2870   -7.6690    9.5980 C   0  0  0  0  0  0  0  0  0  0  0  0
   35.6230   -5.7000    9.6630 C   0  0  0  0  0  0  0  0  0  0  0  0
   35.9920   -4.8600    8.6020 C   0  0  0  0  0  0  0  0  0  0  0  0
   35.0390   -4.0780    7.9430 C   0  0  0  0  0  0  0  0  0  0  0  0
   33.7050   -4.1170    8.3390 C   0  0  0  0  0  0  0  0  0  0  0  0
   33.3190   -4.9370    9.3940 C   0  0  0  0  0  0  0  0  0  0  0  0
   34.2690   -5.7230   10.0490 C   0  0  0  0  0  0  0  0  0  0  0  0
   38.0530   -3.2610   13.7440 C   0  0  0  0  0  0  0  0  0  0  0  0
   38.9940   -2.3880   14.2870 C   0  0  0  0  0  0  0  0  0  0  0  0
   38.6290   -1.3070   15.1750 N   0  0  0  0  0  0  0  0  0  0  0  0
   39.3850   -1.2330   16.4520 C   0  0  0  0  0  0  0  0  0  0  0  0
   36.9280   -1.0990   15.3150 S   0  0  0  0  0  0  0  0  0  0  0  0
   36.4570   -2.4910   16.3230 C   0  0  0  0  0  0  0  0  0  0  0  0
   36.3470   -1.2450   13.9990 O   0  0  0  0  0  0  0  0  0  0  0  0
   36.6730    0.1080   16.0910 O   0  0  0  0  0  0  0  0  0  0  0  0
   40.3090   -2.4390   13.8300 C   0  0  0  0  0  0  0  0  0  0  0  0
   46.5180    2.1340   11.5280 C   0  0  1  0  0  0  0  0  0  0  0  0
   45.6300    3.2210   12.1130 C   0  0  0  0  0  0  0  0  0  0  0  0
   47.9060    2.4970   11.7000 O   0  0  0  0  0  0  0  0  0  0  0  0
   51.6892   -1.9100   14.0405 H   0  0  0  0  0  0  0  0  0  0  0  0
   50.2780   -2.4556   13.0723 H   0  0  0  0  0  0  0  0  0  0  0  0
   50.7513   -0.7228   13.0723 H   0  0  0  0  0  0  0  0  0  0  0  0
   50.3490   -1.3824   15.8134 H   0  0  0  0  0  0  0  0  0  0  0  0
   48.5451   -2.7283   16.0508 H   0  0  0  0  0  0  0  0  0  0  0  0
   47.8054   -2.2068   14.4992 H   0  0  0  0  0  0  0  0  0  0  0  0
   49.1342   -3.4155   14.4992 H   0  0  0  0  0  0  0  0  0  0  0  0
   48.4673    0.1661   15.6206 H   0  0  0  0  0  0  0  0  0  0  0  0
   49.9200    0.7381   14.6755 H   0  0  0  0  0  0  0  0  0  0  0  0
   48.8190    0.0720   12.6620 H   0  0  0  0  0  0  0  0  0  0  0  0
   46.7406   -0.0540   11.6506 H   0  0  0  0  0  0  0  0  0  0  0  0
   44.6770    0.0190   13.2110 H   0  0  0  0  0  0  0  0  0  0  0  0
   44.3500    1.4970   12.5960 H   0  0  0  0  0  0  0  0  0  0  0  0
   43.0663    0.4004   11.1128 H   0  0  0  0  0  0  0  0  0  0  0  0
   44.6488    0.0247   10.3129 H   0  0  0  0  0  0  0  0  0  0  0  0
   44.4421   -1.8443   12.3884 H   0  0  0  0  0  0  0  0  0  0  0  0
   43.8437   -3.4375   10.3733 H   0  0  0  0  0  0  0  0  0  0  0  0
   44.1480   -1.9069    9.4092 H   0  0  0  0  0  0  0  0  0  0  0  0
   45.9288   -3.2942    8.2624 H   0  0  0  0  0  0  0  0  0  0  0  0
   48.3977   -3.6032    8.2438 H   0  0  0  0  0  0  0  0  0  0  0  0
   49.7217   -3.2099   10.3207 H   0  0  0  0  0  0  0  0  0  0  0  0
   48.5631   -2.5559   12.4292 H   0  0  0  0  0  0  0  0  0  0  0  0
   46.0912   -2.2547   12.4591 H   0  0  0  0  0  0  0  0  0  0  0  0
   41.8270   -1.1240   12.0270 H   0  0  0  0  0  0  0  0  0  0  0  0
   40.0603   -4.9919   11.5656 H   0  0  0  0  0  0  0  0  0  0  0  0
   38.3770   -5.4140   10.4610 H   0  0  0  0  0  0  0  0  0  0  0  0
   36.0158   -7.1151   11.1762 H   0  0  0  0  0  0  0  0  0  0  0  0
   37.7440   -8.4074   10.2732 H   0  0  0  0  0  0  0  0  0  0  0  0
   36.5385   -8.1662    8.9636 H   0  0  0  0  0  0  0  0  0  0  0  0
   38.0659   -7.2208    8.9636 H   0  0  0  0  0  0  0  0  0  0  0  0
   37.0443   -4.8161    8.2846 H   0  0  0  0  0  0  0  0  0  0  0  0
   35.3443   -3.4295    7.1086 H   0  0  0  0  0  0  0  0  0  0  0  0
   32.9575   -3.5004    7.8184 H   0  0  0  0  0  0  0  0  0  0  0  0
   32.2664   -4.9662    9.7120 H   0  0  0  0  0  0  0  0  0  0  0  0
   33.9545   -6.3710   10.8804 H   0  0  0  0  0  0  0  0  0  0  0  0
   37.0051   -3.2104   14.0746 H   0  0  0  0  0  0  0  0  0  0  0  0
   38.6845   -1.3016   17.2973 H   0  0  0  0  0  0  0  0  0  0  0  0
   40.1026   -2.0652   16.5020 H   0  0  0  0  0  0  0  0  0  0  0  0
   39.9276   -0.2775   16.5020 H   0  0  0  0  0  0  0  0  0  0  0  0
   36.5481   -2.2217   17.3856 H   0  0  0  0  0  0  0  0  0  0  0  0
   35.4153   -2.7674   16.1028 H   0  0  0  0  0  0  0  0  0  0  0  0
   37.1168   -3.3431   16.1028 H   0  0  0  0  0  0  0  0  0  0  0  0
   41.0619   -1.7679   14.2691 H   0  0  0  0  0  0  0  0  0  0  0  0
   46.2517    2.0385   10.4650 H   0  0  0  0  0  0  0  0  0  0  0  0
   45.6683    3.1741   13.2113 H   0  0  0  0  0  0  0  0  0  0  0  0
   45.9852    4.2058   11.7754 H   0  0  0  0  0  0  0  0  0  0  0  0
   44.5941    3.0694   11.7754 H   0  0  0  0  0  0  0  0  0  0  0  0
   48.3060    2.5490   10.8070 H   0  0  0  0  0  0  0  0  0  0  0  0
  1  2  1  0
  2  3  1  0
  2  4  1  0
  4  5  1  0
  5  6  1  0
  6  7  2  0
  6  8  1  0
  8  9  1  0
  9 10  1  0
 10 11  1  0
 11 12  1  0
 12 13  1  0
 13 14  2  0
 14 15  1  0
 15 16  2  0
 16 17  1  0
 17 18  2  0
 11 19  1  0
 19 20  1  0
 20 21  2  0
 20 22  1  0
 22 23  2  0
 23 24  1  0
 24 25  1  0
 25 26  2  0
 25 27  1  0
 27 28  1  0
 28 29  1  0
 28 30  1  0
 30 31  2  0
 31 32  1  0
 32 33  2  0
 33 34  1  0
 34 35  2  0
 24 36  2  0
 36 37  1  0
 37 38  1  0
 38 39  1  0
 38 40  1  0
 40 41  1  0
 40 42  2  0
 40 43  2  0
 37 44  2  0
  8 45  1  0
 45 46  1  0
 45 47  1  0
 18 13  1  0
 44 22  1  0
 35 30  1  0
  1 48  1  0
  1 49  1  0
  1 50  1  0
  2 51  1  0
  3 52  1  0
  3 53  1  0
  3 54  1  0
  4 55  1  0
  4 56  1  0
  5 57  1  0
  8 58  1  6
  9 59  1  0
  9 60  1  0
 10 61  1  0
 10 62  1  0
 11 63  1  1
 12 64  1  0
 12 65  1  0
 14 66  1  0
 15 67  1  0
 16 68  1  0
 17 69  1  0
 18 70  1  0
 19 71  1  0
 23 72  1  0
 27 73  1  0
 28 74  1  1
 29 75  1  0
 29 76  1  0
 29 77  1  0
 31 78  1  0
 32 79  1  0
 33 80  1  0
 34 81  1  0
 35 82  1  0
 36 83  1  0
 39 84  1  0
 39 85  1  0
 39 86  1  0
 41 87  1  0
 41 88  1  0
 41 89  1  0
 44 90  1  0
 45 91  1  6
 46 92  1  0
 46 93  1  0
 46 94  1  0
 47 95  1  0
M  CHG  1   9   1
M  END
>  <meeko>  (4) 
{"is_sidechain": [false], "free_energy": -9.323, "intermolecular_energy": -18.538, "internal_energy": -1.344}

$$$$
4gid_ligand
     RDKit          3D

 95 97  0  0  0  0  0  0  0  0999 V2000
   48.1520   -0.0050   14.4080 C   0  0  0  0  0  0  0  0  0  0  0  0
   49.5660    0.5800   14.3960 C   0  0  0  0  0  0  0  0  0  0  0  0
   49.5170    2.0410   13.9470 C   0  0  0  0  0  0  0  0  0  0  0  0
   50.4730   -0.2810   13.5040 C   0  0  0  0  0  0  0  0  0  0  0  0
   49.7590   -0.9270   12.4120 N   0  0  0  0  0  0  0  0  0  0  0  0
   50.0660   -2.2050   12.0020 C   0  0  0  0  0  0  0  0  0  0  0  0
   51.0110   -2.8450   12.4600 O   0  0  0  0  0  0  0  0  0  0  0  0
   49.2280   -2.7530   10.8380 C   0  0  1  0  0  0  0  0  0  0  0  0
   47.9620   -1.9350   10.5550 N   0  0  0  0  0  0  0  0  0  0  0  0
   46.6550   -2.4030   11.1310 C   0  0  0  0  0  0  0  0  0  0  0  0
   45.4560   -2.0110   10.2220 C   0  0  2  0  0  0  0  0  0  0  0  0
   45.5520   -0.5420    9.7480 C   0  0  0  0  0  0  0  0  0  0  0  0
   45.3730    0.4830   10.8450 C   0  0  0  0  0  0  0  0  0  0  0  0
   46.4640    1.2600   11.2640 C   0  0  0  0  0  0  0  0  0  0  0  0
   46.3000    2.2510   12.2300 C   0  0  0  0  0  0  0  0  0  0  0  0
   45.0460    2.4710   12.7960 C   0  0  0  0  0  0  0  0  0  0  0  0
   43.9610    1.6890   12.4070 C   0  0  0  0  0  0  0  0  0  0  0  0
   44.1230    0.6940   11.4420 C   0  0  0  0  0  0  0  0  0  0  0  0
   44.1560   -2.2870   10.8680 N   0  0  0  0  0  0  0  0  0  0  0  0
   43.2050   -3.0850   10.2740 C   0  0  0  0  0  0  0  0  0  0  0  0
   43.4110   -3.5660    9.1610 O   0  0  0  0  0  0  0  0  0  0  0  0
   42.0400   -3.5230   11.0840 C   0  0  0  0  0  0  0  0  0  0  0  0
   41.4320   -2.7290   12.0610 C   0  0  0  0  0  0  0  0  0  0  0  0
   40.4630   -3.2980   12.8990 C   0  0  0  0  0  0  0  0  0  0  0  0
   39.7870   -2.5200   13.9700 C   0  0  0  0  0  0  0  0  0  0  0  0
   40.1210   -1.3580   14.1640 O   0  0  0  0  0  0  0  0  0  0  0  0
   38.7830   -3.1570   14.6620 N   0  0  0  0  0  0  0  0  0  0  0  0
   37.9950   -2.4520   15.6690 C   0  0  2  0  0  0  0  0  0  0  0  0
   37.3290   -1.2180   15.0520 C   0  0  0  0  0  0  0  0  0  0  0  0
   38.8740   -2.1780   16.8800 C   0  0  0  0  0  0  0  0  0  0  0  0
   39.0000   -0.9150   17.4740 C   0  0  0  0  0  0  0  0  0  0  0  0
   39.8290   -0.7260   18.5840 C   0  0  0  0  0  0  0  0  0  0  0  0
   40.5510   -1.7940   19.1110 C   0  0  0  0  0  0  0  0  0  0  0  0
   40.4460   -3.0540   18.5300 C   0  0  0  0  0  0  0  0  0  0  0  0
   39.6150   -3.2450   17.4250 C   0  0  0  0  0  0  0  0  0  0  0  0
   40.1000   -4.6450   12.7490 C   0  0  0  0  0  0  0  0  0  0  0  0
   40.6650   -5.4180   11.7360 C   0  0  0  0  0  0  0  0  0  0  0  0
   40.4370   -6.8420   11.6260 N   0  0  0  0  0  0  0  0  0  0  0  0
   41.5890   -7.6490   11.1490 C   0  0  0  0  0  0  0  0  0  0  0  0
   38.9230   -7.2240   10.9060 S   0  0  0  0  0  0  0  0  0  0  0  0
   38.7680   -8.9660   11.2500 C   0  0  0  0  0  0  0  0  0  0  0  0
   39.0420   -7.0300    9.4780 O   0  0  0  0  0  0  0  0  0  0  0  0
   37.8730   -6.5380   11.6470 O   0  0  0  0  0  0  0  0  0  0  0  0
   41.6230   -4.8470   10.9010 C   0  0  0  0  0  0  0  0  0  0  0  0
   50.0240   -2.7830    9.5120 C   0  0  1  0  0  0  0  0  0  0  0  0
   49.1520   -2.4290    8.3170 C   0  0  0  0  0  0  0  0  0  0  0  0
   51.0960   -1.8220    9.6310 O   0  0  0  0  0  0  0  0  0  0  0  0
   47.8207   -0.1421   15.4479 H   0  0  0  0  0  0  0  0  0  0  0  0
   47.4661    0.6832   13.8923 H   0  0  0  0  0  0  0  0  0  0  0  0
   48.1528   -0.9766   13.8923 H   0  0  0  0  0  0  0  0  0  0  0  0
   49.9936    0.5653   15.4094 H   0  0  0  0  0  0  0  0  0  0  0  0
   49.4950    2.6956   14.8307 H   0  0  0  0  0  0  0  0  0  0  0  0
   50.4080    2.2693   13.3437 H   0  0  0  0  0  0  0  0  0  0  0  0
   48.6127    2.2090   13.3437 H   0  0  0  0  0  0  0  0  0  0  0  0
   51.2560    0.3629   13.0770 H   0  0  0  0  0  0  0  0  0  0  0  0
   50.8917   -1.0776   14.1366 H   0  0  0  0  0  0  0  0  0  0  0  0
   48.8490   -0.5110   12.1880 H   0  0  0  0  0  0  0  0  0  0  0  0
   48.9548   -3.7661   11.1680 H   0  0  0  0  0  0  0  0  0  0  0  0
   48.1810   -1.0000   10.9420 H   0  0  0  0  0  0  0  0  0  0  0  0
   47.8780   -1.7720    9.5340 H   0  0  0  0  0  0  0  0  0  0  0  0
   46.6819   -3.4978   11.2340 H   0  0  0  0  0  0  0  0  0  0  0  0
   46.5174   -1.9197   12.1095 H   0  0  0  0  0  0  0  0  0  0  0  0
   45.5142   -2.6495    9.3282 H   0  0  0  0  0  0  0  0  0  0  0  0
   46.5429   -0.3911    9.2950 H   0  0  0  0  0  0  0  0  0  0  0  0
   44.7266   -0.3876    9.0374 H   0  0  0  0  0  0  0  0  0  0  0  0
   47.4577    1.0852   10.8259 H   0  0  0  0  0  0  0  0  0  0  0  0
   47.1604    2.8594   12.5456 H   0  0  0  0  0  0  0  0  0  0  0  0
   44.9130    3.2615   13.5493 H   0  0  0  0  0  0  0  0  0  0  0  0
   42.9735    1.8562   12.8618 H   0  0  0  0  0  0  0  0  0  0  0  0
   43.2646    0.0719   11.1484 H   0  0  0  0  0  0  0  0  0  0  0  0
   44.1100   -2.1430   11.8710 H   0  0  0  0  0  0  0  0  0  0  0  0
   41.7107   -1.6706   12.1708 H   0  0  0  0  0  0  0  0  0  0  0  0
   38.4290   -4.0530   14.3580 H   0  0  0  0  0  0  0  0  0  0  0  0
   37.1588   -3.0677   16.0319 H   0  0  0  0  0  0  0  0  0  0  0  0
   36.9712   -0.5551   15.8536 H   0  0  0  0  0  0  0  0  0  0  0  0
   38.0592   -0.6799   14.4297 H   0  0  0  0  0  0  0  0  0  0  0  0
   36.4784   -1.5330   14.4297 H   0  0  0  0  0  0  0  0  0  0  0  0
   38.4402   -0.0623   17.0622 H   0  0  0  0  0  0  0  0  0  0  0  0
   39.9113    0.2703   19.0429 H   0  0  0  0  0  0  0  0  0  0  0  0
   41.2025   -1.6419   19.9842 H   0  0  0  0  0  0  0  0  0  0  0  0
   41.0176   -3.8990   18.9413 H   0  0  0  0  0  0  0  0  0  0  0  0
   39.5374   -4.2446   16.9725 H   0  0  0  0  0  0  0  0  0  0  0  0
   39.3657   -5.0933   13.4344 H   0  0  0  0  0  0  0  0  0  0  0  0
   42.1462   -8.0393   12.0134 H   0  0  0  0  0  0  0  0  0  0  0  0
   41.2217   -8.4883   10.5402 H   0  0  0  0  0  0  0  0  0  0  0  0
   42.2523   -7.0171   10.5402 H   0  0  0  0  0  0  0  0  0  0  0  0
   38.7539   -9.1250   12.3384 H   0  0  0  0  0  0  0  0  0  0  0  0
   37.8326   -9.3444   10.8120 H   0  0  0  0  0  0  0  0  0  0  0  0
   39.6219   -9.5036   10.8120 H   0  0  0  0  0  0  0  0  0  0  0  0
   42.0579   -5.4448   10.0865 H   0  0  0  0  0  0  0  0  0  0  0  0
   50.4073   -3.7998    9.3413 H   0  0  0  0  0  0  0  0  0  0  0  0
   48.1869   -2.0372    8.6706 H   0  0  0  0  0  0  0  0  0  0  0  0
   49.6571   -1.6647    7.7081 H   0  0  0  0  0  0  0  0  0  0  0  0
   48.9814   -3.3291    7.7081 H   0  0  0  0  0  0  0  0  0  0  0  0
   51.9340   -2.2970    9.4530 H   0  0  0  0  0  0  0  0  0  0  0  0
  1  2  1  0
  2  3  1  0
  2  4  1  0
  4  5  1  0
  5  6  1  0
  6  7  2  0
  6  8  1  0
  8  9  1  0
  9 10  1  0
 10 11  1  0
 11 12  1  0
 12 13  1  0
 13 14  2  0
 14 15  1  0
 15 16  2  0
 16 17  1  0
 17 18  2  0
 11 19  1  0
 19 20  1  0
 20 21  2  0
 20 22  1  0
 22 23  2  0
 23 24  1  0
 24 25  1  0
 25 26  2  0
 25 27  1  0
 27 28  1  0
 28 29  1  0
 28 30  1  0
 30 31  2  0
 31 32  1  0
 32 33  2  0
 33 34  1  0
 34 35  2  0
 24 36  2  0
 36 37  1  0
 37 38  1  0
 38 39  1  0
 38 40  1  0
 40 41  1  0
 40 42  2  0
 40 43  2  0
 37 44  2  0
  8 45  1  0
 45 46  1  0
 45 47  1  0
 18 13  1  0
 44 22  1  0
 35 30  1  0
  1 48  1  0
  1 49  1  0
  1 50  1  0
  2 51  1  0
  3 52  1  0
  3 53  1  0
  3 54  1  0
  4 55  1  0
  4 56  1  0
  5 57  1  0
  8 58  1  1
  9 59  1  0
  9 60  1  0
 10 61  1  0
 10 62  1  0
 11 63  1  6
 12 64  1  0
 12 65  1  0
 14 66  1  0
 15 67  1  0
 16 68  1  0
 17 69  1  0
 18 70  1  0
 19 71  1  0
 23 72  1  0
 27 73  1  0
 28 74  1  1
 29 75  1  0
 29 76  1  0
 29 77  1  0
 31 78  1  0
 32 79  1  0
 33 80  1  0
 34 81  1  0
 35 82  1  0
 36 83  1  0
 39 84  1  0
 39 85  1  0
 39 86  1  0
 41 87  1  0
 41 88  1  0
 41 89  1  0
 44 90  1  0
 45 91  1  6
 46 92  1  0
 46 93  1  0
 46 94  1  0
 47 95  1  0
M  CHG  1   9   1
M  END
>  <meeko>  (5) 
{"is_sidechain": [false], "free_energy": -9.263, "intermolecular_energy": -17.563, "internal_energy": -2.202}

$$$$
4gid_ligand
     RDKit          3D

 95 97  0  0  0  0  0  0  0  0999 V2000
   38.1400   -7.5840   11.3650 C   0  0  0  0  0  0  0  0  0  0  0  0
   36.8620   -6.9200   10.8460 C   0  0  0  0  0  0  0  0  0  0  0  0
   36.8370   -6.9730    9.3180 C   0  0  0  0  0  0  0  0  0  0  0  0
   36.7690   -5.4860   11.3880 C   0  0  0  0  0  0  0  0  0  0  0  0
   38.0520   -4.9520   11.8250 N   0  0  0  0  0  0  0  0  0  0  0  0
   38.1340   -3.8770   12.6810 C   0  0  0  0  0  0  0  0  0  0  0  0
   37.1480   -3.2450   13.0580 O   0  0  0  0  0  0  0  0  0  0  0  0
   39.5530   -3.4250   13.0530 C   0  0  1  0  0  0  0  0  0  0  0  0
   40.4490   -3.1570   11.8370 N   0  0  0  0  0  0  0  0  0  0  0  0
   41.6970   -3.9770   11.6630 C   0  0  0  0  0  0  0  0  0  0  0  0
   42.5960   -3.4150   10.5250 C   0  0  2  0  0  0  0  0  0  0  0  0
   42.3570   -4.1540    9.1870 C   0  0  0  0  0  0  0  0  0  0  0  0
   41.8810   -5.5810    9.3360 C   0  0  0  0  0  0  0  0  0  0  0  0
   42.3200   -6.3570   10.4210 C   0  0  0  0  0  0  0  0  0  0  0  0
   41.8420   -7.6530   10.6050 C   0  0  0  0  0  0  0  0  0  0  0  0
   40.9260   -8.1920    9.7040 C   0  0  0  0  0  0  0  0  0  0  0  0
   40.5030   -7.4410    8.6100 C   0  0  0  0  0  0  0  0  0  0  0  0
   40.9820   -6.1440    8.4210 C   0  0  0  0  0  0  0  0  0  0  0  0
   44.0260   -3.4180   10.8960 N   0  0  0  0  0  0  0  0  0  0  0  0
   44.9460   -2.6280   10.2460 C   0  0  0  0  0  0  0  0  0  0  0  0
   44.5930   -1.9150    9.3070 O   0  0  0  0  0  0  0  0  0  0  0  0
   46.3030   -2.4900   10.8320 C   0  0  0  0  0  0  0  0  0  0  0  0
   46.5430   -2.0690   12.1440 C   0  0  0  0  0  0  0  0  0  0  0  0
   47.8570   -1.7910   12.5440 C   0  0  0  0  0  0  0  0  0  0  0  0
   48.1850   -1.3240   13.9160 C   0  0  0  0  0  0  0  0  0  0  0  0
   47.4000   -0.5880   14.4990 O   0  0  0  0  0  0  0  0  0  0  0  0
   49.3560   -1.7910   14.4680 N   0  0  0  0  0  0  0  0  0  0  0  0
   49.7230   -1.4660   15.8440 C   0  0  2  0  0  0  0  0  0  0  0  0
   51.1780   -0.9900   15.9040 C   0  0  0  0  0  0  0  0  0  0  0  0
   49.3900   -2.6520   16.7370 C   0  0  0  0  0  0  0  0  0  0  0  0
   48.9280   -2.5220   18.0540 C   0  0  0  0  0  0  0  0  0  0  0  0
   48.6430   -3.6520   18.8270 C   0  0  0  0  0  0  0  0  0  0  0  0
   48.8240   -4.9270   18.2980 C   0  0  0  0  0  0  0  0  0  0  0  0
   49.2900   -5.0770   16.9960 C   0  0  0  0  0  0  0  0  0  0  0  0
   49.5690   -3.9500   16.2220 C   0  0  0  0  0  0  0  0  0  0  0  0
   48.9200   -1.9460   11.6400 C   0  0  0  0  0  0  0  0  0  0  0  0
   48.6850   -2.4220   10.3520 C   0  0  0  0  0  0  0  0  0  0  0  0
   49.7170   -2.4640    9.3390 N   0  0  0  0  0  0  0  0  0  0  0  0
   49.2430   -2.5060    7.9320 C   0  0  0  0  0  0  0  0  0  0  0  0
   50.9860   -3.5600    9.7210 S   0  0  0  0  0  0  0  0  0  0  0  0
   50.7480   -4.8510    8.5150 C   0  0  0  0  0  0  0  0  0  0  0  0
   50.7400   -4.0920   11.0420 O   0  0  0  0  0  0  0  0  0  0  0  0
   52.2580   -2.9140    9.4230 O   0  0  0  0  0  0  0  0  0  0  0  0
   47.3780   -2.7030    9.9600 C   0  0  0  0  0  0  0  0  0  0  0  0
   39.5500   -2.1190   13.8800 C   0  0  1  0  0  0  0  0  0  0  0  0
   39.6430   -2.3910   15.3740 C   0  0  0  0  0  0  0  0  0  0  0  0
   40.6890   -1.3380   13.4580 O   0  0  0  0  0  0  0  0  0  0  0  0
   38.1341   -7.5809   12.4650 H   0  0  0  0  0  0  0  0  0  0  0  0
   38.1880   -8.6211   11.0015 H   0  0  0  0  0  0  0  0  0  0  0  0
   39.0162   -7.0271   11.0015 H   0  0  0  0  0  0  0  0  0  0  0  0
   35.9760   -7.4639   11.2053 H   0  0  0  0  0  0  0  0  0  0  0  0
   36.3889   -7.9230    8.9914 H   0  0  0  0  0  0  0  0  0  0  0  0
   36.2397   -6.1339    8.9317 H   0  0  0  0  0  0  0  0  0  0  0  0
   37.8644   -6.9002    8.9317 H   0  0  0  0  0  0  0  0  0  0  0  0
   36.3730   -4.8370   10.5930 H   0  0  0  0  0  0  0  0  0  0  0  0
   36.1095   -5.5119   12.2680 H   0  0  0  0  0  0  0  0  0  0  0  0
   38.8440   -5.5910   11.7120 H   0  0  0  0  0  0  0  0  0  0  0  0
   39.9515   -4.2691   13.6351 H   0  0  0  0  0  0  0  0  0  0  0  0
   39.8240   -3.3240   11.0280 H   0  0  0  0  0  0  0  0  0  0  0  0
   40.6630   -2.1430   11.7840 H   0  0  0  0  0  0  0  0  0  0  0  0
   42.2651   -3.9670   12.6049 H   0  0  0  0  0  0  0  0  0  0  0  0
   41.4012   -5.0018   11.3941 H   0  0  0  0  0  0  0  0  0  0  0  0
   42.3021   -2.3653   10.3778 H   0  0  0  0  0  0  0  0  0  0  0  0
   41.5990   -3.5966    8.6172 H   0  0  0  0  0  0  0  0  0  0  0  0
   43.3304   -4.2003    8.6767 H   0  0  0  0  0  0  0  0  0  0  0  0
   43.0475   -5.9382   11.1318 H   0  0  0  0  0  0  0  0  0  0  0  0
   42.1878   -8.2504   11.4615 H   0  0  0  0  0  0  0  0  0  0  0  0
   40.5373   -9.2097    9.8566 H   0  0  0  0  0  0  0  0  0  0  0  0
   39.7890   -7.8717    7.8926 H   0  0  0  0  0  0  0  0  0  0  0  0
   40.6519   -5.5606    7.5488 H   0  0  0  0  0  0  0  0  0  0  0  0
   44.2530   -3.7630   11.8220 H   0  0  0  0  0  0  0  0  0  0  0  0
   45.7100   -1.9574   12.8537 H   0  0  0  0  0  0  0  0  0  0  0  0
   49.8860   -2.5240   14.0210 H   0  0  0  0  0  0  0  0  0  0  0  0
   49.1360   -0.6199   16.2307 H   0  0  0  0  0  0  0  0  0  0  0  0
   51.4876   -0.8887   16.9547 H   0  0  0  0  0  0  0  0  0  0  0  0
   51.8248   -1.7234   15.4002 H   0  0  0  0  0  0  0  0  0  0  0  0
   51.2663   -0.0161   15.4002 H   0  0  0  0  0  0  0  0  0  0  0  0
   48.7880   -1.5195   18.4845 H   0  0  0  0  0  0  0  0  0  0  0  0
   48.2745   -3.5330   19.8566 H   0  0  0  0  0  0  0  0  0  0  0  0
   48.5990   -5.8140   18.9084 H   0  0  0  0  0  0  0  0  0  0  0  0
   49.4384   -6.0831   16.5769 H   0  0  0  0  0  0  0  0  0  0  0  0
   49.9348   -4.0778   15.1925 H   0  0  0  0  0  0  0  0  0  0  0  0
   49.9438   -1.6902   11.9504 H   0  0  0  0  0  0  0  0  0  0  0  0
   48.1474   -2.6031    7.9169 H   0  0  0  0  0  0  0  0  0  0  0  0
   49.5360   -1.5784    7.4185 H   0  0  0  0  0  0  0  0  0  0  0  0
   49.6946   -3.3677    7.4185 H   0  0  0  0  0  0  0  0  0  0  0  0
   50.5718   -5.8065    9.0307 H   0  0  0  0  0  0  0  0  0  0  0  0
   49.8794   -4.6087    7.8851 H   0  0  0  0  0  0  0  0  0  0  0  0
   51.6459   -4.9344    7.8851 H   0  0  0  0  0  0  0  0  0  0  0  0
   47.1876   -3.0978    8.9511 H   0  0  0  0  0  0  0  0  0  0  0  0
   38.6048   -1.5832   13.7083 H   0  0  0  0  0  0  0  0  0  0  0  0
   39.3359   -1.4929   15.9300 H   0  0  0  0  0  0  0  0  0  0  0  0
   38.9803   -3.2290   15.6361 H   0  0  0  0  0  0  0  0  0  0  0  0
   40.6800   -2.6478   15.6361 H   0  0  0  0  0  0  0  0  0  0  0  0
   41.4750   -1.9210   13.5070 H   0  0  0  0  0  0  0  0  0  0  0  0
  1  2  1  0
  2  3  1  0
  2  4  1  0
  4  5  1  0
  5  6  1  0
  6  7  2  0
  6  8  1  0
  8  9  1  0
  9 10  1  0
 10 11  1  0
 11 12  1  0
 12 13  1  0
 13 14  2  0
 14 15  1  0
 15 16  2  0
 16 17  1  0
 17 18  2  0
 11 19  1  0
 19 20  1  0
 20 21  2  0
 20 22  1  0
 22 23  2  0
 23 24  1  0
 24 25  1  0
 25 26  2  0
 25 27  1  0
 27 28  1  0
 28 29  1  0
 28 30  1  0
 30 31  2  0
 31 32  1  0
 32 33  2  0
 33 34  1  0
 34 35  2  0
 24 36  2  0
 36 37  1  0
 37 38  1  0
 38 39  1  0
 38 40  1  0
 40 41  1  0
 40 42  2  0
 40 43  2  0
 37 44  2  0
  8 45  1  0
 45 46  1  0
 45 47  1  0
 18 13  1  0
 44 22  1  0
 35 30  1  0
  1 48  1  0
  1 49  1  0
  1 50  1  0
  2 51  1  0
  3 52  1  0
  3 53  1  0
  3 54  1  0
  4 55  1  0
  4 56  1  0
  5 57  1  0
  8 58  1  1
  9 59  1  0
  9 60  1  0
 10 61  1  0
 10 62  1  0
 11 63  1  6
 12 64  1  0
 12 65  1  0
 14 66  1  0
 15 67  1  0
 16 68  1  0
 17 69  1  0
 18 70  1  0
 19 71  1  0
 23 72  1  0
 27 73  1  0
 28 74  1  1
 29 75  1  0
 29 76  1  0
 29 77  1  0
 31 78  1  0
 32 79  1  0
 33 80  1  0
 34 81  1  0
 35 82  1  0
 36 83  1  0
 39 84  1  0
 39 85  1  0
 39 86  1  0
 41 87  1  0
 41 88  1  0
 41 89  1  0
 44 90  1  0
 45 91  1  1
 46 92  1  0
 46 93  1  0
 46 94  1  0
 47 95  1  0
M  CHG  1   9   1
M  END
>  <meeko>  (6) 
{"is_sidechain": [false], "free_energy": -9.262, "intermolecular_energy": -18.801, "internal_energy": -0.961}

$$$$
4gid_ligand
     RDKit          3D

 95 97  0  0  0  0  0  0  0  0999 V2000
   39.5440   -2.0940   14.2090 C   0  0  0  0  0  0  0  0  0  0  0  0
   38.5060   -3.2140   14.1050 C   0  0  0  0  0  0  0  0  0  0  0  0
   38.5410   -3.8220   12.7030 C   0  0  0  0  0  0  0  0  0  0  0  0
   37.1190   -2.6670   14.4760 C   0  0  0  0  0  0  0  0  0  0  0  0
   36.3370   -3.5870   15.2910 N   0  0  0  0  0  0  0  0  0  0  0  0
   35.1590   -3.2000   15.8890 C   0  0  0  0  0  0  0  0  0  0  0  0
   34.7380   -2.0460   15.8530 O   0  0  0  0  0  0  0  0  0  0  0  0
   34.4450   -4.2780   16.7180 C   0  0  1  0  0  0  0  0  0  0  0  0
   34.5110   -5.6770   16.0920 N   0  0  0  0  0  0  0  0  0  0  0  0
   33.4950   -6.0510   15.0490 C   0  0  0  0  0  0  0  0  0  0  0  0
   33.7600   -7.4720   14.4760 C   0  0  2  0  0  0  0  0  0  0  0  0
   34.6640   -8.3080   15.4120 C   0  0  0  0  0  0  0  0  0  0  0  0
   34.1080   -9.6680   15.7690 C   0  0  0  0  0  0  0  0  0  0  0  0
   32.7240   -9.8950   15.7150 C   0  0  0  0  0  0  0  0  0  0  0  0
   32.2030  -11.1600   15.9820 C   0  0  0  0  0  0  0  0  0  0  0  0
   33.0560  -12.2100   16.3140 C   0  0  0  0  0  0  0  0  0  0  0  0
   34.4290  -11.9890   16.3960 C   0  0  0  0  0  0  0  0  0  0  0  0
   34.9550  -10.7230   16.1330 C   0  0  0  0  0  0  0  0  0  0  0  0
   34.2990   -7.4250   13.1020 N   0  0  0  0  0  0  0  0  0  0  0  0
   35.2250   -6.4820   12.7180 C   0  0  0  0  0  0  0  0  0  0  0  0
   35.6040   -5.6270   13.5170 O   0  0  0  0  0  0  0  0  0  0  0  0
   35.9080   -6.6510   11.4100 C   0  0  0  0  0  0  0  0  0  0  0  0
   37.2540   -7.0060   11.2770 C   0  0  0  0  0  0  0  0  0  0  0  0
   37.8530   -6.9560   10.0110 C   0  0  0  0  0  0  0  0  0  0  0  0
   39.2820   -7.3020    9.7980 C   0  0  0  0  0  0  0  0  0  0  0  0
   39.5640   -8.3450    9.2210 O   0  0  0  0  0  0  0  0  0  0  0  0
   40.2150   -6.3920   10.2380 N   0  0  0  0  0  0  0  0  0  0  0  0
   41.6410   -6.5940    9.9940 C   0  0  2  0  0  0  0  0  0  0  0  0
   42.1790   -7.7110   10.8950 C   0  0  0  0  0  0  0  0  0  0  0  0
   42.3570   -5.2580   10.1190 C   0  0  0  0  0  0  0  0  0  0  0  0
   43.0570   -4.6550    9.0640 C   0  0  0  0  0  0  0  0  0  0  0  0
   43.6990   -3.4260    9.2420 C   0  0  0  0  0  0  0  0  0  0  0  0
   43.6600   -2.7860   10.4780 C   0  0  0  0  0  0  0  0  0  0  0  0
   42.9790   -3.3730   11.5400 C   0  0  0  0  0  0  0  0  0  0  0  0
   42.3320   -4.5970   11.3620 C   0  0  0  0  0  0  0  0  0  0  0  0
   37.1060   -6.5670    8.8890 C   0  0  0  0  0  0  0  0  0  0  0  0
   35.7500   -6.2700    9.0140 C   0  0  0  0  0  0  0  0  0  0  0  0
   34.9690   -5.7270    7.9240 N   0  0  0  0  0  0  0  0  0  0  0  0
   35.7160   -5.4410    6.6720 C   0  0  0  0  0  0  0  0  0  0  0  0
   33.8790   -4.4960    8.4280 S   0  0  0  0  0  0  0  0  0  0  0  0
   33.6030   -3.5930    6.9170 C   0  0  0  0  0  0  0  0  0  0  0  0
   34.5670   -3.6450    9.3730 O   0  0  0  0  0  0  0  0  0  0  0  0
   32.6170   -5.1220    8.7990 O   0  0  0  0  0  0  0  0  0  0  0  0
   35.1560   -6.3270   10.2730 C   0  0  0  0  0  0  0  0  0  0  0  0
   35.0480   -4.4140   18.1360 C   0  0  1  0  0  0  0  0  0  0  0  0
   35.1720   -5.8690   18.5640 C   0  0  0  0  0  0  0  0  0  0  0  0
   36.3570   -3.8040   18.1090 O   0  0  0  0  0  0  0  0  0  0  0  0
   39.7448   -1.8774   15.2686 H   0  0  0  0  0  0  0  0  0  0  0  0
   40.4754   -2.4104   13.7166 H   0  0  0  0  0  0  0  0  0  0  0  0
   39.1579   -1.1893   13.7166 H   0  0  0  0  0  0  0  0  0  0  0  0
   38.7417   -4.0203   14.8152 H   0  0  0  0  0  0  0  0  0  0  0  0
   38.6041   -4.9175   12.7799 H   0  0  0  0  0  0  0  0  0  0  0  0
   37.6254   -3.5446   12.1601 H   0  0  0  0  0  0  0  0  0  0  0  0
   39.4187   -3.4414   12.1601 H   0  0  0  0  0  0  0  0  0  0  0  0
   37.2515   -1.7299   15.0366 H   0  0  0  0  0  0  0  0  0  0  0  0
   36.5671   -2.5131   13.5370 H   0  0  0  0  0  0  0  0  0  0  0  0
   36.5450   -4.5790   15.1400 H   0  0  0  0  0  0  0  0  0  0  0  0
   33.4016   -3.9316   16.7542 H   0  0  0  0  0  0  0  0  0  0  0  0
   35.4540   -5.7130   15.6670 H   0  0  0  0  0  0  0  0  0  0  0  0
   34.5460   -6.3900   16.8450 H   0  0  0  0  0  0  0  0  0  0  0  0
   32.4932   -6.0301   15.5028 H   0  0  0  0  0  0  0  0  0  0  0  0
   33.5672   -5.3279   14.2232 H   0  0  0  0  0  0  0  0  0  0  0  0
   32.7853   -7.9789   14.4219 H   0  0  0  0  0  0  0  0  0  0  0  0
   35.6338   -8.4532   14.9137 H   0  0  0  0  0  0  0  0  0  0  0  0
   34.7448   -7.7456   16.3539 H   0  0  0  0  0  0  0  0  0  0  0  0
   32.0450   -9.0680   15.4599 H   0  0  0  0  0  0  0  0  0  0  0  0
   31.1173  -11.3293   15.9305 H   0  0  0  0  0  0  0  0  0  0  0  0
   32.6463  -13.2117   16.5110 H   0  0  0  0  0  0  0  0  0  0  0  0
   35.1015  -12.8156   16.6691 H   0  0  0  0  0  0  0  0  0  0  0  0
   36.0389  -10.5530   16.2119 H   0  0  0  0  0  0  0  0  0  0  0  0
   34.2170   -8.2750   12.5540 H   0  0  0  0  0  0  0  0  0  0  0  0
   37.8359   -7.3208   12.1558 H   0  0  0  0  0  0  0  0  0  0  0  0
   39.9380   -5.4750   10.5560 H   0  0  0  0  0  0  0  0  0  0  0  0
   41.8300   -6.9464    8.9693 H   0  0  0  0  0  0  0  0  0  0  0  0
   42.0431   -7.4289   11.9495 H   0  0  0  0  0  0  0  0  0  0  0  0
   41.6308   -8.6426   10.6911 H   0  0  0  0  0  0  0  0  0  0  0  0
   43.2492   -7.8631   10.6911 H   0  0  0  0  0  0  0  0  0  0  0  0
   43.1014   -5.1548    8.0851 H   0  0  0  0  0  0  0  0  0  0  0  0
   44.2373   -2.9626    8.4021 H   0  0  0  0  0  0  0  0  0  0  0  0
   44.1662   -1.8190   10.6145 H   0  0  0  0  0  0  0  0  0  0  0  0
   42.9505   -2.8728   12.5193 H   0  0  0  0  0  0  0  0  0  0  0  0
   41.7939   -5.0525   12.2064 H   0  0  0  0  0  0  0  0  0  0  0  0
   37.5931   -6.4960    7.9053 H   0  0  0  0  0  0  0  0  0  0  0  0
   36.7165   -5.0579    6.9214 H   0  0  0  0  0  0  0  0  0  0  0  0
   35.8134   -6.3654    6.0838 H   0  0  0  0  0  0  0  0  0  0  0  0
   35.1711   -4.6879    6.0838 H   0  0  0  0  0  0  0  0  0  0  0  0
   33.2891   -2.5661    7.1557 H   0  0  0  0  0  0  0  0  0  0  0  0
   34.5337   -3.5652    6.3313 H   0  0  0  0  0  0  0  0  0  0  0  0
   32.8158   -4.0902    6.3313 H   0  0  0  0  0  0  0  0  0  0  0  0
   34.0816   -6.1147   10.3758 H   0  0  0  0  0  0  0  0  0  0  0  0
   34.3850   -3.9196   18.8613 H   0  0  0  0  0  0  0  0  0  0  0  0
   35.1771   -5.9289   19.6624 H   0  0  0  0  0  0  0  0  0  0  0  0
   34.3194   -6.4412   18.1695 H   0  0  0  0  0  0  0  0  0  0  0  0
   36.1092   -6.2886   18.1695 H   0  0  0  0  0  0  0  0  0  0  0  0
   36.2260   -2.8330   18.1110 H   0  0  0  0  0  0  0  0  0  0  0  0
  1  2  1  0
  2  3  1  0
  2  4  1  0
  4  5  1  0
  5  6  1  0
  6  7  2  0
  6  8  1  0
  8  9  1  0
  9 10  1  0
 10 11  1  0
 11 12  1  0
 12 13  1  0
 13 14  2  0
 14 15  1  0
 15 16  2  0
 16 17  1  0
 17 18  2  0
 11 19  1  0
 19 20  1  0
 20 21  2  0
 20 22  1  0
 22 23  2  0
 23 24  1  0
 24 25  1  0
 25 26  2  0
 25 27  1  0
 27 28  1  0
 28 29  1  0
 28 30  1  0
 30 31  2  0
 31 32  1  0
 32 33  2  0
 33 34  1  0
 34 35  2  0
 24 36  2  0
 36 37  1  0
 37 38  1  0
 38 39  1  0
 38 40  1  0
 40 41  1  0
 40 42  2  0
 40 43  2  0
 37 44  2  0
  8 45  1  0
 45 46  1  0
 45 47  1  0
 18 13  1  0
 44 22  1  0
 35 30  1  0
  1 48  1  0
  1 49  1  0
  1 50  1  0
  2 51  1  0
  3 52  1  0
  3 53  1  0
  3 54  1  0
  4 55  1  0
  4 56  1  0
  5 57  1  0
  8 58  1  1
  9 59  1  0
  9 60  1  0
 10 61  1  0
 10 62  1  0
 11 63  1  6
 12 64  1  0
 12 65  1  0
 14 66  1  0
 15 67  1  0
 16 68  1  0
 17 69  1  0
 18 70  1  0
 19 71  1  0
 23 72  1  0
 27 73  1  0
 28 74  1  6
 29 75  1  0
 29 76  1  0
 29 77  1  0
 31 78  1  0
 32 79  1  0
 33 80  1  0
 34 81  1  0
 35 82  1  0
 36 83  1  0
 39 84  1  0
 39 85  1  0
 39 86  1  0
 41 87  1  0
 41 88  1  0
 41 89  1  0
 44 90  1  0
 45 91  1  1
 46 92  1  0
 46 93  1  0
 46 94  1  0
 47 95  1  0
M  CHG  1   9   1
M  END
>  <meeko>  (7) 
{"is_sidechain": [false], "free_energy": -9.198, "intermolecular_energy": -17.387, "internal_energy": -2.249}

$$$$
4gid_ligand
     RDKit          3D

 95 97  0  0  0  0  0  0  0  0999 V2000
   34.8750   -7.5480   16.5240 C   0  0  0  0  0  0  0  0  0  0  0  0
   33.8740   -7.2120   15.4160 C   0  0  0  0  0  0  0  0  0  0  0  0
   33.4510   -8.4930   14.6960 C   0  0  0  0  0  0  0  0  0  0  0  0
   34.4890   -6.1760   14.4630 C   0  0  0  0  0  0  0  0  0  0  0  0
   35.2680   -5.1550   15.1500 N   0  0  0  0  0  0  0  0  0  0  0  0
   34.7010   -3.9720   15.5690 C   0  0  0  0  0  0  0  0  0  0  0  0
   33.5390   -3.6610   15.3150 O   0  0  0  0  0  0  0  0  0  0  0  0
   35.6460   -2.9920   16.2780 C   0  0  1  0  0  0  0  0  0  0  0  0
   35.8300   -1.6660   15.5290 N   0  0  0  0  0  0  0  0  0  0  0  0
   37.0140   -1.5100   14.6160 C   0  0  0  0  0  0  0  0  0  0  0  0
   38.2710   -2.2320   15.1790 C   0  0  2  0  0  0  0  0  0  0  0  0
   39.1660   -1.2720   15.9970 C   0  0  0  0  0  0  0  0  0  0  0  0
   39.5870   -1.8050   17.3470 C   0  0  0  0  0  0  0  0  0  0  0  0
   39.8540   -0.9160   18.4000 C   0  0  0  0  0  0  0  0  0  0  0  0
   40.1820   -1.3960   19.6670 C   0  0  0  0  0  0  0  0  0  0  0  0
   40.2560   -2.7680   19.8940 C   0  0  0  0  0  0  0  0  0  0  0  0
   40.0190   -3.6600   18.8500 C   0  0  0  0  0  0  0  0  0  0  0  0
   39.6930   -3.1830   17.5800 C   0  0  0  0  0  0  0  0  0  0  0  0
   39.0390   -2.9170   14.1200 N   0  0  0  0  0  0  0  0  0  0  0  0
   40.1010   -2.3130   13.4870 C   0  0  0  0  0  0  0  0  0  0  0  0
   40.4170   -1.1600   13.7760 O   0  0  0  0  0  0  0  0  0  0  0  0
   40.9780   -3.1440   12.6230 C   0  0  0  0  0  0  0  0  0  0  0  0
   42.1740   -2.6860   12.0630 C   0  0  0  0  0  0  0  0  0  0  0  0
   42.8330   -3.4790   11.1140 C   0  0  0  0  0  0  0  0  0  0  0  0
   44.0980   -3.0490   10.4640 C   0  0  0  0  0  0  0  0  0  0  0  0
   44.2250   -3.1860    9.2540 O   0  0  0  0  0  0  0  0  0  0  0  0
   45.0510   -2.4770   11.2760 N   0  0  0  0  0  0  0  0  0  0  0  0
   46.2900   -1.9380   10.7230 C   0  0  2  0  0  0  0  0  0  0  0  0
   47.4130   -2.9740   10.8320 C   0  0  0  0  0  0  0  0  0  0  0  0
   46.5790   -0.5950   11.3760 C   0  0  0  0  0  0  0  0  0  0  0  0
   45.9520    0.6000   10.9960 C   0  0  0  0  0  0  0  0  0  0  0  0
   46.2640    1.8050   11.6330 C   0  0  0  0  0  0  0  0  0  0  0  0
   47.2130    1.8350   12.6510 C   0  0  0  0  0  0  0  0  0  0  0  0
   47.8530    0.6620   13.0360 C   0  0  0  0  0  0  0  0  0  0  0  0
   47.5380   -0.5430   12.4060 C   0  0  0  0  0  0  0  0  0  0  0  0
   42.3030   -4.7240   10.7410 C   0  0  0  0  0  0  0  0  0  0  0  0
   41.1420   -5.2040   11.3430 C   0  0  0  0  0  0  0  0  0  0  0  0
   40.4760   -6.4080   10.8970 N   0  0  0  0  0  0  0  0  0  0  0  0
   40.1250   -7.3860   11.9590 C   0  0  0  0  0  0  0  0  0  0  0  0
   41.1840   -7.0810    9.4820 S   0  0  0  0  0  0  0  0  0  0  0  0
   40.1500   -8.5010    9.1790 C   0  0  0  0  0  0  0  0  0  0  0  0
   42.5190   -7.5260    9.8140 O   0  0  0  0  0  0  0  0  0  0  0  0
   40.9820   -6.1510    8.3780 O   0  0  0  0  0  0  0  0  0  0  0  0
   40.4940   -4.4160   12.2910 C   0  0  0  0  0  0  0  0  0  0  0  0
   35.1430   -2.6190   17.6920 C   0  0  1  0  0  0  0  0  0  0  0  0
   36.2400   -1.9910   18.5390 C   0  0  0  0  0  0  0  0  0  0  0  0
   34.0580   -1.6780   17.5300 O   0  0  0  0  0  0  0  0  0  0  0  0
   34.4031   -7.3896   17.5049 H   0  0  0  0  0  0  0  0  0  0  0  0
   35.1849   -8.5994   16.4317 H   0  0  0  0  0  0  0  0  0  0  0  0
   35.7565   -6.8965   16.4317 H   0  0  0  0  0  0  0  0  0  0  0  0
   32.9653   -6.7647   15.8452 H   0  0  0  0  0  0  0  0  0  0  0  0
   33.1965   -9.2639   15.4383 H   0  0  0  0  0  0  0  0  0  0  0  0
   32.5733   -8.2867   14.0659 H   0  0  0  0  0  0  0  0  0  0  0  0
   34.2790   -8.8499   14.0659 H   0  0  0  0  0  0  0  0  0  0  0  0
   35.1473   -6.7002   13.7546 H   0  0  0  0  0  0  0  0  0  0  0  0
   33.6576   -5.6656   13.9548 H   0  0  0  0  0  0  0  0  0  0  0  0
   36.1450   -5.4880   15.5610 H   0  0  0  0  0  0  0  0  0  0  0  0
   36.6014   -3.5356   16.3197 H   0  0  0  0  0  0  0  0  0  0  0  0
   34.9640   -1.5770   14.9690 H   0  0  0  0  0  0  0  0  0  0  0  0
   35.7770   -0.8790   16.2030 H   0  0  0  0  0  0  0  0  0  0  0  0
   36.7662   -1.9388   13.6338 H   0  0  0  0  0  0  0  0  0  0  0  0
   37.2431   -0.4375   14.5304 H   0  0  0  0  0  0  0  0  0  0  0  0
   37.9076   -3.0091   15.8675 H   0  0  0  0  0  0  0  0  0  0  0  0
   40.0737   -1.0654   15.4109 H   0  0  0  0  0  0  0  0  0  0  0  0
   38.5643   -0.3716   16.1900 H   0  0  0  0  0  0  0  0  0  0  0  0
   39.8040    0.1687   18.2239 H   0  0  0  0  0  0  0  0  0  0  0  0
   40.3823   -0.6911   20.4874 H   0  0  0  0  0  0  0  0  0  0  0  0
   40.5014   -3.1474   20.8969 H   0  0  0  0  0  0  0  0  0  0  0  0
   40.0891   -4.7433   19.0276 H   0  0  0  0  0  0  0  0  0  0  0  0
   39.5183   -3.8921   16.7574 H   0  0  0  0  0  0  0  0  0  0  0  0
   38.9710   -3.9290   14.0950 H   0  0  0  0  0  0  0  0  0  0  0  0
   42.5930   -1.7144   12.3637 H   0  0  0  0  0  0  0  0  0  0  0  0
   44.8400   -2.2320   12.2330 H   0  0  0  0  0  0  0  0  0  0  0  0
   46.1987   -1.7387    9.6451 H   0  0  0  0  0  0  0  0  0  0  0  0
   47.6276   -3.1719   11.8926 H   0  0  0  0  0  0  0  0  0  0  0  0
   47.0999   -3.9072   10.3409 H   0  0  0  0  0  0  0  0  0  0  0  0
   48.3179   -2.5869   10.3409 H   0  0  0  0  0  0  0  0  0  0  0  0
   45.2061    0.5895   10.1876 H   0  0  0  0  0  0  0  0  0  0  0  0
   45.7576    2.7328   11.3285 H   0  0  0  0  0  0  0  0  0  0  0  0
   47.4562    2.7847   13.1499 H   0  0  0  0  0  0  0  0  0  0  0  0
   48.6071    0.6838   13.8366 H   0  0  0  0  0  0  0  0  0  0  0  0
   48.0469   -1.4666   12.7190 H   0  0  0  0  0  0  0  0  0  0  0  0
   42.8071   -5.3240    9.9691 H   0  0  0  0  0  0  0  0  0  0  0  0
   40.2888   -6.9296   12.9464 H   0  0  0  0  0  0  0  0  0  0  0  0
   39.0678   -7.6728   11.8584 H   0  0  0  0  0  0  0  0  0  0  0  0
   40.7585   -8.2796   11.8584 H   0  0  0  0  0  0  0  0  0  0  0  0
   39.8335   -8.9356   10.1387 H   0  0  0  0  0  0  0  0  0  0  0  0
   39.2631   -8.1932    8.6057 H   0  0  0  0  0  0  0  0  0  0  0  0
   40.7152   -9.2505    8.6057 H   0  0  0  0  0  0  0  0  0  0  0  0
   39.5891   -4.7979   12.7862 H   0  0  0  0  0  0  0  0  0  0  0  0
   34.8154   -3.5309   18.2128 H   0  0  0  0  0  0  0  0  0  0  0  0
   36.0033   -2.1265   19.6047 H   0  0  0  0  0  0  0  0  0  0  0  0
   37.2011   -2.4757   18.3123 H   0  0  0  0  0  0  0  0  0  0  0  0
   36.3086   -0.9168   18.3123 H   0  0  0  0  0  0  0  0  0  0  0  0
   34.4000   -0.9290   16.9990 H   0  0  0  0  0  0  0  0  0  0  0  0
  1  2  1  0
  2  3  1  0
  2  4  1  0
  4  5  1  0
  5  6  1  0
  6  7  2  0
  6  8  1  0
  8  9  1  0
  9 10  1  0
 10 11  1  0
 11 12  1  0
 12 13  1  0
 13 14  2  0
 14 15  1  0
 15 16  2  0
 16 17  1  0
 17 18  2  0
 11 19  1  0
 19 20  1  0
 20 21  2  0
 20 22  1  0
 22 23  2  0
 23 24  1  0
 24 25  1  0
 25 26  2  0
 25 27  1  0
 27 28  1  0
 28 29  1  0
 28 30  1  0
 30 31  2  0
 31 32  1  0
 32 33  2  0
 33 34  1  0
 34 35  2  0
 24 36  2  0
 36 37  1  0
 37 38  1  0
 38 39  1  0
 38 40  1  0
 40 41  1  0
 40 42  2  0
 40 43  2  0
 37 44  2  0
  8 45  1  0
 45 46  1  0
 45 47  1  0
 18 13  1  0
 44 22  1  0
 35 30  1  0
  1 48  1  0
  1 49  1  0
  1 50  1  0
  2 51  1  0
  3 52  1  0
  3 53  1  0
  3 54  1  0
  4 55  1  0
  4 56  1  0
  5 57  1  0
  8 58  1  1
  9 59  1  0
  9 60  1  0
 10 61  1  0
 10 62  1  0
 11 63  1  1
 12 64  1  0
 12 65  1  0
 14 66  1  0
 15 67  1  0
 16 68  1  0
 17 69  1  0
 18 70  1  0
 19 71  1  0
 23 72  1  0
 27 73  1  0
 28 74  1  6
 29 75  1  0
 29 76  1  0
 29 77  1  0
 31 78  1  0
 32 79  1  0
 33 80  1  0
 34 81  1  0
 35 82  1  0
 36 83  1  0
 39 84  1  0
 39 85  1  0
 39 86  1  0
 41 87  1  0
 41 88  1  0
 41 89  1  0
 44 90  1  0
 45 91  1  1
 46 92  1  0
 46 93  1  0
 46 94  1  0
 47 95  1  0
M  CHG  1   9   1
M  END
>  <meeko>  (8) 
{"is_sidechain": [false], "free_energy": -9.119, "intermolecular_energy": -17.948, "internal_energy": -1.532}

$$$$
4gid_ligand
     RDKit          3D

 95 97  0  0  0  0  0  0  0  0999 V2000
   37.2170   -2.4650   20.9450 C   0  0  0  0  0  0  0  0  0  0  0  0
   36.7510   -2.1510   19.5220 C   0  0  0  0  0  0  0  0  0  0  0  0
   36.5310   -0.6460   19.3700 C   0  0  0  0  0  0  0  0  0  0  0  0
   35.4900   -2.9670   19.2010 C   0  0  0  0  0  0  0  0  0  0  0  0
   35.4210   -3.3970   17.8110 N   0  0  0  0  0  0  0  0  0  0  0  0
   34.7200   -2.6810   16.8660 C   0  0  0  0  0  0  0  0  0  0  0  0
   34.0370   -1.6970   17.1440 O   0  0  0  0  0  0  0  0  0  0  0  0
   34.7380   -3.2570   15.4430 C   0  0  1  0  0  0  0  0  0  0  0  0
   36.0040   -2.9010   14.6530 N   0  0  0  0  0  0  0  0  0  0  0  0
   36.9180   -1.8370   15.1940 C   0  0  0  0  0  0  0  0  0  0  0  0
   38.2830   -2.4300   15.6440 C   0  0  2  0  0  0  0  0  0  0  0  0
   39.1560   -1.3760   16.3650 C   0  0  0  0  0  0  0  0  0  0  0  0
   39.7760   -1.8550   17.6580 C   0  0  0  0  0  0  0  0  0  0  0  0
   39.9470   -3.2300   17.8860 C   0  0  0  0  0  0  0  0  0  0  0  0
   40.5730   -3.6830   19.0460 C   0  0  0  0  0  0  0  0  0  0  0  0
   41.0270   -2.7690   19.9950 C   0  0  0  0  0  0  0  0  0  0  0  0
   40.8390   -1.4040   19.7910 C   0  0  0  0  0  0  0  0  0  0  0  0
   40.2100   -0.9470   18.6330 C   0  0  0  0  0  0  0  0  0  0  0  0
   39.0110   -3.0600   14.5240 N   0  0  0  0  0  0  0  0  0  0  0  0
   39.9660   -2.3800   13.8050 C   0  0  0  0  0  0  0  0  0  0  0  0
   40.2150   -1.2040   14.0660 O   0  0  0  0  0  0  0  0  0  0  0  0
   40.8300   -3.1460   12.8710 C   0  0  0  0  0  0  0  0  0  0  0  0
   41.9960   -2.6330   12.2930 C   0  0  0  0  0  0  0  0  0  0  0  0
   42.6370   -3.3620   11.2830 C   0  0  0  0  0  0  0  0  0  0  0  0
   43.8690   -2.8700   10.6120 C   0  0  0  0  0  0  0  0  0  0  0  0
   43.9550   -2.9440    9.3930 O   0  0  0  0  0  0  0  0  0  0  0  0
   44.8370   -2.3170   11.4190 N   0  0  0  0  0  0  0  0  0  0  0  0
   46.0430   -1.7210   10.8500 C   0  0  2  0  0  0  0  0  0  0  0  0
   47.2140   -2.7050   10.9450 C   0  0  0  0  0  0  0  0  0  0  0  0
   46.2780   -0.3670   11.5000 C   0  0  0  0  0  0  0  0  0  0  0  0
   45.4630    0.7510   11.2750 C   0  0  0  0  0  0  0  0  0  0  0  0
   45.7340    1.9720   11.8990 C   0  0  0  0  0  0  0  0  0  0  0  0
   46.8280    2.0960   12.7510 C   0  0  0  0  0  0  0  0  0  0  0  0
   47.6550    1.0010   12.9820 C   0  0  0  0  0  0  0  0  0  0  0  0
   47.3820   -0.2200   12.3630 C   0  0  0  0  0  0  0  0  0  0  0  0
   42.1220   -4.5990   10.8670 C   0  0  0  0  0  0  0  0  0  0  0  0
   40.9940   -5.1360   11.4850 C   0  0  0  0  0  0  0  0  0  0  0  0
   40.3400   -6.3320   11.0020 N   0  0  0  0  0  0  0  0  0  0  0  0
   39.8430   -7.2650   12.0460 C   0  0  0  0  0  0  0  0  0  0  0  0
   41.1730   -7.0710    9.6920 S   0  0  0  0  0  0  0  0  0  0  0  0
   40.1180   -8.4530    9.3020 C   0  0  0  0  0  0  0  0  0  0  0  0
   42.4400   -7.5640   10.1850 O   0  0  0  0  0  0  0  0  0  0  0  0
   41.1410   -6.1620    8.5530 O   0  0  0  0  0  0  0  0  0  0  0  0
   40.3630   -4.4120   12.4930 C   0  0  0  0  0  0  0  0  0  0  0  0
   34.6500   -4.8010   15.4390 C   0  0  1  0  0  0  0  0  0  0  0  0
   33.2300   -5.2900   15.1960 C   0  0  0  0  0  0  0  0  0  0  0  0
   35.5140   -5.2790   14.3850 O   0  0  0  0  0  0  0  0  0  0  0  0
   36.5287   -2.0012   21.6669 H   0  0  0  0  0  0  0  0  0  0  0  0
   37.2268   -3.5546   21.0956 H   0  0  0  0  0  0  0  0  0  0  0  0
   38.2305   -2.0649   21.0956 H   0  0  0  0  0  0  0  0  0  0  0  0
   37.5235   -2.4412   18.7947 H   0  0  0  0  0  0  0  0  0  0  0  0
   36.4633   -0.1829   20.3655 H   0  0  0  0  0  0  0  0  0  0  0  0
   37.3744   -0.2061   18.8176 H   0  0  0  0  0  0  0  0  0  0  0  0
   35.5970   -0.4659   18.8176 H   0  0  0  0  0  0  0  0  0  0  0  0
   35.4786   -3.8596   19.8437 H   0  0  0  0  0  0  0  0  0  0  0  0
   34.6238   -2.3140   19.3837 H   0  0  0  0  0  0  0  0  0  0  0  0
   36.1510   -4.0580   17.5290 H   0  0  0  0  0  0  0  0  0  0  0  0
   33.8573   -2.8017   14.9665 H   0  0  0  0  0  0  0  0  0  0  0  0
   36.5240   -3.7940   14.6050 H   0  0  0  0  0  0  0  0  0  0  0  0
   35.7500   -2.7030   13.6670 H   0  0  0  0  0  0  0  0  0  0  0  0
   37.0959   -1.0866   14.4096 H   0  0  0  0  0  0  0  0  0  0  0  0
   36.4348   -1.3815   16.0709 H   0  0  0  0  0  0  0  0  0  0  0  0
   38.0589   -3.2248   16.3707 H   0  0  0  0  0  0  0  0  0  0  0  0
   39.9672   -1.0780   15.6845 H   0  0  0  0  0  0  0  0  0  0  0  0
   38.4878   -0.5427   16.6279 H   0  0  0  0  0  0  0  0  0  0  0  0
   39.5840   -3.9555   17.1431 H   0  0  0  0  0  0  0  0  0  0  0  0
   40.7087   -4.7618   19.2124 H   0  0  0  0  0  0  0  0  0  0  0  0
   41.5333   -3.1252   20.9043 H   0  0  0  0  0  0  0  0  0  0  0  0
   41.1878   -0.6839   20.5458 H   0  0  0  0  0  0  0  0  0  0  0  0
   40.0538    0.1317   18.4844 H   0  0  0  0  0  0  0  0  0  0  0  0
   39.0210   -4.0750   14.5040 H   0  0  0  0  0  0  0  0  0  0  0  0
   42.4049   -1.6682   12.6277 H   0  0  0  0  0  0  0  0  0  0  0  0
   44.6550   -2.1250   12.3930 H   0  0  0  0  0  0  0  0  0  0  0  0
   45.9291   -1.5257    9.7735 H   0  0  0  0  0  0  0  0  0  0  0  0
   47.4450   -2.8991   12.0028 H   0  0  0  0  0  0  0  0  0  0  0  0
   46.9410   -3.6487   10.4502 H   0  0  0  0  0  0  0  0  0  0  0  0
   48.0966   -2.2735   10.4502 H   0  0  0  0  0  0  0  0  0  0  0  0
   44.5994    0.6664   10.5989 H   0  0  0  0  0  0  0  0  0  0  0  0
   45.0806    2.8379   11.7163 H   0  0  0  0  0  0  0  0  0  0  0  0
   47.0384    3.0582   13.2409 H   0  0  0  0  0  0  0  0  0  0  0  0
   48.5226    1.0974   13.6514 H   0  0  0  0  0  0  0  0  0  0  0  0
   48.0395   -1.0814   12.5520 H   0  0  0  0  0  0  0  0  0  0  0  0
   42.6111   -5.1479   10.0488 H   0  0  0  0  0  0  0  0  0  0  0  0
   40.0630   -6.8521   13.0415 H   0  0  0  0  0  0  0  0  0  0  0  0
   38.7563   -7.3946   11.9347 H   0  0  0  0  0  0  0  0  0  0  0  0
   40.3417   -8.2391   11.9347 H   0  0  0  0  0  0  0  0  0  0  0  0
   39.7632   -8.9178   10.2337 H   0  0  0  0  0  0  0  0  0  0  0  0
   39.2559   -8.1022    8.7158 H   0  0  0  0  0  0  0  0  0  0  0  0
   40.6837   -9.1922    8.7158 H   0  0  0  0  0  0  0  0  0  0  0  0
   39.4855   -4.8398   12.9999 H   0  0  0  0  0  0  0  0  0  0  0  0
   34.9586   -5.1847   16.4226 H   0  0  0  0  0  0  0  0  0  0  0  0
   32.7311   -5.4618   16.1612 H   0  0  0  0  0  0  0  0  0  0  0  0
   32.6736   -4.5317   14.6255 H   0  0  0  0  0  0  0  0  0  0  0  0
   33.2585   -6.2301   14.6255 H   0  0  0  0  0  0  0  0  0  0  0  0
   35.9950   -6.0580   14.7330 H   0  0  0  0  0  0  0  0  0  0  0  0
  1  2  1  0
  2  3  1  0
  2  4  1  0
  4  5  1  0
  5  6  1  0
  6  7  2  0
  6  8  1  0
  8  9  1  0
  9 10  1  0
 10 11  1  0
 11 12  1  0
 12 13  1  0
 13 14  2  0
 14 15  1  0
 15 16  2  0
 16 17  1  0
 17 18  2  0
 11 19  1  0
 19 20  1  0
 20 21  2  0
 20 22  1  0
 22 23  2  0
 23 24  1  0
 24 25  1  0
 25 26  2  0
 25 27  1  0
 27 28  1  0
 28 29  1  0
 28 30  1  0
 30 31  2  0
 31 32  1  0
 32 33  2  0
 33 34  1  0
 34 35  2  0
 24 36  2  0
 36 37  1  0
 37 38  1  0
 38 39  1  0
 38 40  1  0
 40 41  1  0
 40 42  2  0
 40 43  2  0
 37 44  2  0
  8 45  1  0
 45 46  1  0
 45 47  1  0
 18 13  1  0
 44 22  1  0
 35 30  1  0
  1 48  1  0
  1 49  1  0
  1 50  1  0
  2 51  1  0
  3 52  1  0
  3 53  1  0
  3 54  1  0
  4 55  1  0
  4 56  1  0
  5 57  1  0
  8 58  1  6
  9 59  1  0
  9 60  1  0
 10 61  1  0
 10 62  1  0
 11 63  1  1
 12 64  1  0
 12 65  1  0
 14 66  1  0
 15 67  1  0
 16 68  1  0
 17 69  1  0
 18 70  1  0
 19 71  1  0
 23 72  1  0
 27 73  1  0
 28 74  1  6
 29 75  1  0
 29 76  1  0
 29 77  1  0
 31 78  1  0
 32 79  1  0
 33 80  1  0
 34 81  1  0
 35 82  1  0
 36 83  1  0
 39 84  1  0
 39 85  1  0
 39 86  1  0
 41 87  1  0
 41 88  1  0
 41 89  1  0
 44 90  1  0
 45 91  1  1
 46 92  1  0
 46 93  1  0
 46 94  1  0
 47 95  1  0
M  CHG  1   9   1
M  END
>  <meeko>  (9) 
{"is_sidechain": [false], "free_energy": -9.044, "intermolecular_energy": -17.395, "internal_energy": -1.94}

$$$$
