3ary_ligand
     RDKit          3D

 27 29  0  0  0  0  0  0  0  0999 V2000
   12.6030   -8.2930   22.6810 S   0  0  0  0  0  0  0  0  0  0  0  0
   14.3790   -8.5620   22.7730 C   0  0  0  0  0  0  0  0  0  0  0  0
   15.5410   -8.7330   22.8230 N   0  0  0  0  0  0  0  0  0  0  0  0
   16.0110   -9.5010   21.7460 C   0  0  0  0  0  0  0  0  0  0  0  0
   17.3860   -9.5600   21.4660 C   0  0  0  0  0  0  0  0  0  0  0  0
   17.8880  -10.2910   20.3810 C   0  0  0  0  0  0  0  0  0  0  0  0
   16.9480  -10.9380   19.5860 C   0  0  0  0  0  0  0  0  0  0  0  0
   17.2250  -11.6940   18.4900 O   0  0  0  0  0  0  0  0  0  0  0  0
   16.0340  -12.1440   17.9860 C   0  0  0  0  0  0  0  0  0  0  0  0
   15.9490  -12.9740   16.8170 C   0  0  0  0  0  0  0  0  0  0  0  0
   15.9510  -12.4500   15.6120 N   0  0  0  0  0  0  0  0  0  0  0  0
   15.8560  -13.5050   14.6000 C   0  0  0  0  0  0  0  0  0  0  0  0
   15.7960  -14.7900   15.4470 C   0  0  0  0  0  0  0  0  0  0  0  0
   15.8650  -14.2880   16.8260 N   0  0  0  0  0  0  0  0  0  0  0  0
   14.9940  -11.6730   18.7670 C   0  0  0  0  0  0  0  0  0  0  0  0
   15.5780  -10.8950   19.8050 C   0  0  0  0  0  0  0  0  0  0  0  0
   15.0950  -10.1560   20.9000 C   0  0  0  0  0  0  0  0  0  0  0  0
   18.0881   -9.0175   22.1162 H   0  0  0  0  0  0  0  0  0  0  0  0
   18.9659  -10.3498   20.1698 H   0  0  0  0  0  0  0  0  0  0  0  0
   16.0130  -11.4400   15.5120 H   0  0  0  0  0  0  0  0  0  0  0  0
   14.9468  -13.3892   13.9917 H   0  0  0  0  0  0  0  0  0  0  0  0
   16.6904  -13.4958   13.8833 H   0  0  0  0  0  0  0  0  0  0  0  0
   14.8561  -15.3340   15.2720 H   0  0  0  0  0  0  0  0  0  0  0  0
   16.5992  -15.5022   15.2070 H   0  0  0  0  0  0  0  0  0  0  0  0
   15.8540  -14.8100   17.6920 H   0  0  0  0  0  0  0  0  0  0  0  0
   13.9214  -11.8635   18.6147 H   0  0  0  0  0  0  0  0  0  0  0  0
   14.0141  -10.0904   21.0934 H   0  0  0  0  0  0  0  0  0  0  0  0
  1  2  2  0
  2  3  2  0
  3  4  1  0
  4  5  2  0
  5  6  1  0
  6  7  2  0
  7  8  1  0
  8  9  1  0
  9 10  1  0
 10 11  2  0
 11 12  1  0
 12 13  1  0
 13 14  1  0
  9 15  2  0
 15 16  1  0
 16 17  2  0
 17  4  1  0
 16  7  1  0
 14 10  1  0
  5 18  1  0
  6 19  1  0
 11 20  1  0
 12 21  1  0
 12 22  1  0
 13 23  1  0
 13 24  1  0
 14 25  1  0
 15 26  1  0
 17 27  1  0
M  CHG  1  11   1
M  END
>  <meeko>  (1) 
{"is_sidechain": [false], "free_energy": -7.67, "intermolecular_energy": -8.567, "internal_energy": -0.132}

$$$$
3ary_ligand
     RDKit          3D

 27 29  0  0  0  0  0  0  0  0999 V2000
   21.5990  -10.9350   22.4170 S   0  0  0  0  0  0  0  0  0  0  0  0
   20.1010   -9.9390   22.4350 C   0  0  0  0  0  0  0  0  0  0  0  0
   19.1170   -9.2970   22.4490 N   0  0  0  0  0  0  0  0  0  0  0  0
   18.1690   -9.7600   21.5220 C   0  0  0  0  0  0  0  0  0  0  0  0
   16.8070   -9.4610   21.6930 C   0  0  0  0  0  0  0  0  0  0  0  0
   15.8300   -9.9320   20.8050 C   0  0  0  0  0  0  0  0  0  0  0  0
   16.2820  -10.7280   19.7570 C   0  0  0  0  0  0  0  0  0  0  0  0
   15.5010  -11.2840   18.7930 O   0  0  0  0  0  0  0  0  0  0  0  0
   16.3190  -11.9970   17.9580 C   0  0  0  0  0  0  0  0  0  0  0  0
   15.8260  -12.7230   16.8210 C   0  0  0  0  0  0  0  0  0  0  0  0
   15.4990  -12.1010   15.7100 N   0  0  0  0  0  0  0  0  0  0  0  0
   15.0280  -13.0630   14.7110 C   0  0  0  0  0  0  0  0  0  0  0  0
   15.1380  -14.4090   15.4490 C   0  0  0  0  0  0  0  0  0  0  0  0
   15.6570  -14.0270   16.7700 N   0  0  0  0  0  0  0  0  0  0  0  0
   17.6280  -11.8920   18.3930 C   0  0  0  0  0  0  0  0  0  0  0  0
   17.6110  -11.0710   19.5540 C   0  0  0  0  0  0  0  0  0  0  0  0
   18.5760  -10.5870   20.4570 C   0  0  0  0  0  0  0  0  0  0  0  0
   16.4988   -8.8402   22.5472 H   0  0  0  0  0  0  0  0  0  0  0  0
   14.7651   -9.6860   20.9297 H   0  0  0  0  0  0  0  0  0  0  0  0
   15.5980  -11.0910   15.6620 H   0  0  0  0  0  0  0  0  0  0  0  0
   13.9875  -12.8547   14.4212 H   0  0  0  0  0  0  0  0  0  0  0  0
   15.6044  -13.0333   13.7746 H   0  0  0  0  0  0  0  0  0  0  0  0
   14.1537  -14.8922   15.5367 H   0  0  0  0  0  0  0  0  0  0  0  0
   15.7787  -15.1354   14.9277 H   0  0  0  0  0  0  0  0  0  0  0  0
   15.8730  -14.6190   17.5620 H   0  0  0  0  0  0  0  0  0  0  0  0
   18.5120  -12.3546   17.9299 H   0  0  0  0  0  0  0  0  0  0  0  0
   19.6364  -10.8517   20.3324 H   0  0  0  0  0  0  0  0  0  0  0  0
  1  2  2  0
  2  3  2  0
  3  4  1  0
  4  5  2  0
  5  6  1  0
  6  7  2  0
  7  8  1  0
  8  9  1  0
  9 10  1  0
 10 11  2  0
 11 12  1  0
 12 13  1  0
 13 14  1  0
  9 15  2  0
 15 16  1  0
 16 17  2  0
 17  4  1  0
 16  7  1  0
 14 10  1  0
  5 18  1  0
  6 19  1  0
 11 20  1  0
 12 21  1  0
 12 22  1  0
 13 23  1  0
 13 24  1  0
 14 25  1  0
 15 26  1  0
 17 27  1  0
M  CHG  1  11   1
M  END
>  <meeko>  (2) 
{"is_sidechain": [false], "free_energy": -7.668, "intermolecular_energy": -8.545, "internal_energy": -0.152}

$$$$
3ary_ligand
     RDKit          3D

 27 29  0  0  0  0  0  0  0  0999 V2000
   16.9120   -5.9930   24.0600 S   0  0  0  0  0  0  0  0  0  0  0  0
   17.6860   -7.4980   23.4490 C   0  0  0  0  0  0  0  0  0  0  0  0
   18.1910   -8.4770   23.0400 N   0  0  0  0  0  0  0  0  0  0  0  0
   17.3990   -9.1190   22.0750 C   0  0  0  0  0  0  0  0  0  0  0  0
   15.9980   -9.0740   22.1660 C   0  0  0  0  0  0  0  0  0  0  0  0
   15.1760   -9.7290   21.2380 C   0  0  0  0  0  0  0  0  0  0  0  0
   15.8260  -10.4420   20.2350 C   0  0  0  0  0  0  0  0  0  0  0  0
   15.2160  -11.1450   19.2440 O   0  0  0  0  0  0  0  0  0  0  0  0
   16.1970  -11.7060   18.4720 C   0  0  0  0  0  0  0  0  0  0  0  0
   15.9120  -12.5260   17.3270 C   0  0  0  0  0  0  0  0  0  0  0  0
   15.3860  -12.0100   16.2380 N   0  0  0  0  0  0  0  0  0  0  0  0
   15.1950  -13.0510   15.2260 C   0  0  0  0  0  0  0  0  0  0  0  0
   15.7180  -14.3160   15.9290 C   0  0  0  0  0  0  0  0  0  0  0  0
   16.1350  -13.8210   17.2480 N   0  0  0  0  0  0  0  0  0  0  0  0
   17.4380  -11.3560   18.9730 C   0  0  0  0  0  0  0  0  0  0  0  0
   17.2040  -10.5370   20.1120 C   0  0  0  0  0  0  0  0  0  0  0  0
   18.0110   -9.8710   21.0540 C   0  0  0  0  0  0  0  0  0  0  0  0
   15.5331   -8.5095   22.9877 H   0  0  0  0  0  0  0  0  0  0  0  0
   14.0787   -9.6820   21.2993 H   0  0  0  0  0  0  0  0  0  0  0  0
   15.1800  -11.0150   16.2130 H   0  0  0  0  0  0  0  0  0  0  0  0
   14.1323  -13.1559   14.9622 H   0  0  0  0  0  0  0  0  0  0  0  0
   15.7119  -12.8357   14.2792 H   0  0  0  0  0  0  0  0  0  0  0  0
   14.9236  -15.0709   16.0244 H   0  0  0  0  0  0  0  0  0  0  0  0
   16.5315  -14.8101   15.3775 H   0  0  0  0  0  0  0  0  0  0  0  0
   16.5370  -14.3360   18.0210 H   0  0  0  0  0  0  0  0  0  0  0  0
   18.4167  -11.6536   18.5686 H   0  0  0  0  0  0  0  0  0  0  0  0
   19.1073   -9.9374   20.9930 H   0  0  0  0  0  0  0  0  0  0  0  0
  1  2  2  0
  2  3  2  0
  3  4  1  0
  4  5  2  0
  5  6  1  0
  6  7  2  0
  7  8  1  0
  8  9  1  0
  9 10  1  0
 10 11  2  0
 11 12  1  0
 12 13  1  0
 13 14  1  0
  9 15  2  0
 15 16  1  0
 16 17  2  0
 17  4  1  0
 16  7  1  0
 14 10  1  0
  5 18  1  0
  6 19  1  0
 11 20  1  0
 12 21  1  0
 12 22  1  0
 13 23  1  0
 13 24  1  0
 14 25  1  0
 15 26  1  0
 17 27  1  0
M  CHG  1  11   1
M  END
>  <meeko>  (3) 
{"is_sidechain": [false], "free_energy": -7.634, "intermolecular_energy": -8.467, "internal_energy": -0.192}

$$$$
3ary_ligand
     RDKit          3D

 27 29  0  0  0  0  0  0  0  0999 V2000
   15.1630   -7.9800   23.5610 S   0  0  0  0  0  0  0  0  0  0  0  0
   16.8390   -8.4280   23.0850 C   0  0  0  0  0  0  0  0  0  0  0  0
   17.9320   -8.7180   22.7650 N   0  0  0  0  0  0  0  0  0  0  0  0
   17.9490   -9.6020   21.6740 C   0  0  0  0  0  0  0  0  0  0  0  0
   19.1520  -10.2020   21.2680 C   0  0  0  0  0  0  0  0  0  0  0  0
   19.2120  -11.0650   20.1650 C   0  0  0  0  0  0  0  0  0  0  0  0
   18.0170  -11.2780   19.4840 C   0  0  0  0  0  0  0  0  0  0  0  0
   17.8610  -12.0730   18.3920 O   0  0  0  0  0  0  0  0  0  0  0  0
   16.5450  -12.0070   18.0180 C   0  0  0  0  0  0  0  0  0  0  0  0
   16.0220  -12.7270   16.8910 C   0  0  0  0  0  0  0  0  0  0  0  0
   15.5430  -12.0920   15.8440 N   0  0  0  0  0  0  0  0  0  0  0  0
   15.0750  -13.0500   14.8400 C   0  0  0  0  0  0  0  0  0  0  0  0
   15.3690  -14.4100   15.4980 C   0  0  0  0  0  0  0  0  0  0  0  0
   15.9660  -14.0380   16.7890 N   0  0  0  0  0  0  0  0  0  0  0  0
   15.8620  -11.1670   18.8780 C   0  0  0  0  0  0  0  0  0  0  0  0
   16.8070  -10.6940   19.8290 C   0  0  0  0  0  0  0  0  0  0  0  0
   16.7690   -9.8310   20.9400 C   0  0  0  0  0  0  0  0  0  0  0  0
   20.0726   -9.9889   21.8310 H   0  0  0  0  0  0  0  0  0  0  0  0
   20.1510  -11.5469   19.8550 H   0  0  0  0  0  0  0  0  0  0  0  0
   15.5470  -11.0750   15.8390 H   0  0  0  0  0  0  0  0  0  0  0  0
   13.9988  -12.9278   14.6480 H   0  0  0  0  0  0  0  0  0  0  0  0
   15.5626  -12.9266   13.8617 H   0  0  0  0  0  0  0  0  0  0  0  0
   14.4432  -14.9860   15.6432 H   0  0  0  0  0  0  0  0  0  0  0  0
   16.0239  -15.0506   14.8891 H   0  0  0  0  0  0  0  0  0  0  0  0
   16.3020  -14.6400   17.5290 H   0  0  0  0  0  0  0  0  0  0  0  0
   14.7925  -10.9133   18.8347 H   0  0  0  0  0  0  0  0  0  0  0  0
   15.8284   -9.3409   21.2318 H   0  0  0  0  0  0  0  0  0  0  0  0
  1  2  2  0
  2  3  2  0
  3  4  1  0
  4  5  2  0
  5  6  1  0
  6  7  2  0
  7  8  1  0
  8  9  1  0
  9 10  1  0
 10 11  2  0
 11 12  1  0
 12 13  1  0
 13 14  1  0
  9 15  2  0
 15 16  1  0
 16 17  2  0
 17  4  1  0
 16  7  1  0
 14 10  1  0
  5 18  1  0
  6 19  1  0
 11 20  1  0
 12 21  1  0
 12 22  1  0
 13 23  1  0
 13 24  1  0
 14 25  1  0
 15 26  1  0
 17 27  1  0
M  CHG  1  11   1
M  END
>  <meeko>  (4) 
{"is_sidechain": [false], "free_energy": -7.565, "intermolecular_energy": -8.448, "internal_energy": -0.134}

$$$$
3ary_ligand
     RDKit          3D

 27 29  0  0  0  0  0  0  0  0999 V2000
    8.2310   -8.2650   31.8890 S   0  0  0  0  0  0  0  0  0  0  0  0
    9.0790   -7.5270   30.4830 C   0  0  0  0  0  0  0  0  0  0  0  0
    9.6240   -7.0460   29.5600 N   0  0  0  0  0  0  0  0  0  0  0  0
    9.4870   -7.8230   28.3990 C   0  0  0  0  0  0  0  0  0  0  0  0
    9.0610   -9.1580   28.4870 C   0  0  0  0  0  0  0  0  0  0  0  0
    8.9430   -9.9720   27.3530 C   0  0  0  0  0  0  0  0  0  0  0  0
    9.2880   -9.3900   26.1380 C   0  0  0  0  0  0  0  0  0  0  0  0
    9.2460  -10.0050   24.9250 O   0  0  0  0  0  0  0  0  0  0  0  0
    9.6690   -9.1010   23.9880 C   0  0  0  0  0  0  0  0  0  0  0  0
    9.7550   -9.4150   22.5890 C   0  0  0  0  0  0  0  0  0  0  0  0
    9.2060   -8.6350   21.6850 N   0  0  0  0  0  0  0  0  0  0  0  0
    9.4350   -9.1750   20.3430 C   0  0  0  0  0  0  0  0  0  0  0  0
   10.2430  -10.4560   20.6200 C   0  0  0  0  0  0  0  0  0  0  0  0
   10.3630  -10.4680   22.0850 N   0  0  0  0  0  0  0  0  0  0  0  0
    9.9800   -7.9040   24.6070 C   0  0  0  0  0  0  0  0  0  0  0  0
    9.7330   -8.0830   25.9960 C   0  0  0  0  0  0  0  0  0  0  0  0
    9.8450   -7.2830   27.1480 C   0  0  0  0  0  0  0  0  0  0  0  0
    8.8131   -9.5763   29.4737 H   0  0  0  0  0  0  0  0  0  0  0  0
    8.5966  -11.0139   27.4199 H   0  0  0  0  0  0  0  0  0  0  0  0
    8.7150   -7.7980   21.9870 H   0  0  0  0  0  0  0  0  0  0  0  0
    8.4835   -9.4079   19.8426 H   0  0  0  0  0  0  0  0  0  0  0  0
    9.9526   -8.4713   19.6745 H   0  0  0  0  0  0  0  0  0  0  0  0
    9.7059  -11.3463   20.2610 H   0  0  0  0  0  0  0  0  0  0  0  0
   11.2162  -10.4711   20.1076 H   0  0  0  0  0  0  0  0  0  0  0  0
   10.8240  -11.1460   22.6780 H   0  0  0  0  0  0  0  0  0  0  0  0
   10.3477   -6.9894   24.1188 H   0  0  0  0  0  0  0  0  0  0  0  0
   10.2081   -6.2474   27.0727 H   0  0  0  0  0  0  0  0  0  0  0  0
  1  2  2  0
  2  3  2  0
  3  4  1  0
  4  5  2  0
  5  6  1  0
  6  7  2  0
  7  8  1  0
  8  9  1  0
  9 10  1  0
 10 11  2  0
 11 12  1  0
 12 13  1  0
 13 14  1  0
  9 15  2  0
 15 16  1  0
 16 17  2  0
 17  4  1  0
 16  7  1  0
 14 10  1  0
  5 18  1  0
  6 19  1  0
 11 20  1  0
 12 21  1  0
 12 22  1  0
 13 23  1  0
 13 24  1  0
 14 25  1  0
 15 26  1  0
 17 27  1  0
M  CHG  1  11   1
M  END
>  <meeko>  (5) 
{"is_sidechain": [false], "free_energy": -7.495, "intermolecular_energy": -8.359, "internal_energy": -0.145}

$$$$
3ary_ligand
     RDKit          3D

 27 29  0  0  0  0  0  0  0  0999 V2000
   20.1550   -5.5600   23.6110 S   0  0  0  0  0  0  0  0  0  0  0  0
   19.0290   -6.9360   23.8890 C   0  0  0  0  0  0  0  0  0  0  0  0
   18.3020   -7.8410   24.0690 N   0  0  0  0  0  0  0  0  0  0  0  0
   18.2760   -8.7260   22.9790 C   0  0  0  0  0  0  0  0  0  0  0  0
   19.4540   -9.3680   22.5620 C   0  0  0  0  0  0  0  0  0  0  0  0
   19.4720  -10.2330   21.4600 C   0  0  0  0  0  0  0  0  0  0  0  0
   18.2640  -10.4060   20.7920 C   0  0  0  0  0  0  0  0  0  0  0  0
   18.0690  -11.1970   19.7020 O   0  0  0  0  0  0  0  0  0  0  0  0
   16.7530  -11.0870   19.3420 C   0  0  0  0  0  0  0  0  0  0  0  0
   16.1930  -11.7890   18.2220 C   0  0  0  0  0  0  0  0  0  0  0  0
   16.9330  -12.1070   17.1830 N   0  0  0  0  0  0  0  0  0  0  0  0
   16.1280  -12.8150   16.1850 C   0  0  0  0  0  0  0  0  0  0  0  0
   14.7340  -12.8620   16.8370 C   0  0  0  0  0  0  0  0  0  0  0  0
   14.9380  -12.1730   18.1190 N   0  0  0  0  0  0  0  0  0  0  0  0
   16.1070  -10.2230   20.2080 C   0  0  0  0  0  0  0  0  0  0  0  0
   17.0780   -9.7810   21.1490 C   0  0  0  0  0  0  0  0  0  0  0  0
   17.0810   -8.9160   22.2590 C   0  0  0  0  0  0  0  0  0  0  0  0
   20.3872   -9.1867   23.1155 H   0  0  0  0  0  0  0  0  0  0  0  0
   20.3906  -10.7470   21.1406 H   0  0  0  0  0  0  0  0  0  0  0  0
   17.9160  -11.8480   17.1790 H   0  0  0  0  0  0  0  0  0  0  0  0
   16.1016  -12.2629   15.2340 H   0  0  0  0  0  0  0  0  0  0  0  0
   16.5239  -13.8102   15.9345 H   0  0  0  0  0  0  0  0  0  0  0  0
   13.9920  -12.3344   16.2196 H   0  0  0  0  0  0  0  0  0  0  0  0
   14.3476  -13.8852   16.9545 H   0  0  0  0  0  0  0  0  0  0  0  0
   14.2670  -11.9870   18.8530 H   0  0  0  0  0  0  0  0  0  0  0  0
   15.0463   -9.9334   20.1753 H   0  0  0  0  0  0  0  0  0  0  0  0
   16.1607   -8.3945   22.5606 H   0  0  0  0  0  0  0  0  0  0  0  0
  1  2  2  0
  2  3  2  0
  3  4  1  0
  4  5  2  0
  5  6  1  0
  6  7  2  0
  7  8  1  0
  8  9  1  0
  9 10  1  0
 10 11  2  0
 11 12  1  0
 12 13  1  0
 13 14  1  0
  9 15  2  0
 15 16  1  0
 16 17  2  0
 17  4  1  0
 16  7  1  0
 14 10  1  0
  5 18  1  0
  6 19  1  0
 11 20  1  0
 12 21  1  0
 12 22  1  0
 13 23  1  0
 13 24  1  0
 14 25  1  0
 15 26  1  0
 17 27  1  0
M  CHG  1  11   1
M  END
>  <meeko>  (6) 
{"is_sidechain": [false], "free_energy": -7.399, "intermolecular_energy": -8.16, "internal_energy": -0.236}

$$$$
3ary_ligand
     RDKit          3D

 27 29  0  0  0  0  0  0  0  0999 V2000
    4.1970   -6.3720   34.0630 S   0  0  0  0  0  0  0  0  0  0  0  0
    5.9950   -6.4230   34.1130 C   0  0  0  0  0  0  0  0  0  0  0  0
    7.1700   -6.4500   34.1370 N   0  0  0  0  0  0  0  0  0  0  0  0
    7.7150   -6.8980   32.9230 C   0  0  0  0  0  0  0  0  0  0  0  0
    7.5360   -8.2300   32.5150 C   0  0  0  0  0  0  0  0  0  0  0  0
    8.0920   -8.7190   31.3250 C   0  0  0  0  0  0  0  0  0  0  0  0
    8.8450   -7.8180   30.5810 C   0  0  0  0  0  0  0  0  0  0  0  0
    9.4690   -8.0910   29.4030 O   0  0  0  0  0  0  0  0  0  0  0  0
   10.1070   -6.9490   28.9990 C   0  0  0  0  0  0  0  0  0  0  0  0
   10.8750   -6.8760   27.7870 C   0  0  0  0  0  0  0  0  0  0  0  0
   10.8660   -7.8640   26.9190 N   0  0  0  0  0  0  0  0  0  0  0  0
   11.7240   -7.5420   25.7770 C   0  0  0  0  0  0  0  0  0  0  0  0
   12.2620   -6.1440   26.1330 C   0  0  0  0  0  0  0  0  0  0  0  0
   11.6340   -5.8620   27.4310 N   0  0  0  0  0  0  0  0  0  0  0  0
    9.8880   -5.9440   29.9230 C   0  0  0  0  0  0  0  0  0  0  0  0
    9.0710   -6.4980   30.9470 C   0  0  0  0  0  0  0  0  0  0  0  0
    8.5030   -6.0270   32.1460 C   0  0  0  0  0  0  0  0  0  0  0  0
    6.9432   -8.9079   33.1467 H   0  0  0  0  0  0  0  0  0  0  0  0
    7.9409   -9.7583   30.9979 H   0  0  0  0  0  0  0  0  0  0  0  0
   10.3050   -8.6890   27.1150 H   0  0  0  0  0  0  0  0  0  0  0  0
   12.5441   -8.2688   25.6810 H   0  0  0  0  0  0  0  0  0  0  0  0
   11.1934   -7.5705   24.8139 H   0  0  0  0  0  0  0  0  0  0  0  0
   13.3586   -6.1538   26.2194 H   0  0  0  0  0  0  0  0  0  0  0  0
   12.0321   -5.3864   25.3693 H   0  0  0  0  0  0  0  0  0  0  0  0
   11.7260   -5.0410   28.0140 H   0  0  0  0  0  0  0  0  0  0  0  0
   10.2718   -4.9142   29.8753 H   0  0  0  0  0  0  0  0  0  0  0  0
    8.6728   -4.9903   32.4722 H   0  0  0  0  0  0  0  0  0  0  0  0
  1  2  2  0
  2  3  2  0
  3  4  1  0
  4  5  2  0
  5  6  1  0
  6  7  2  0
  7  8  1  0
  8  9  1  0
  9 10  1  0
 10 11  2  0
 11 12  1  0
 12 13  1  0
 13 14  1  0
  9 15  2  0
 15 16  1  0
 16 17  2  0
 17  4  1  0
 16  7  1  0
 14 10  1  0
  5 18  1  0
  6 19  1  0
 11 20  1  0
 12 21  1  0
 12 22  1  0
 13 23  1  0
 13 24  1  0
 14 25  1  0
 15 26  1  0
 17 27  1  0
M  CHG  1  11   1
M  END
>  <meeko>  (7) 
{"is_sidechain": [false], "free_energy": -7.398, "intermolecular_energy": -8.168, "internal_energy": -0.228}

$$$$
3ary_ligand
     RDKit          3D

 27 29  0  0  0  0  0  0  0  0999 V2000
   16.1480  -12.9630   15.2810 S   0  0  0  0  0  0  0  0  0  0  0  0
   17.0040  -12.6960   16.8410 C   0  0  0  0  0  0  0  0  0  0  0  0
   17.5550  -12.5260   17.8650 N   0  0  0  0  0  0  0  0  0  0  0  0
   16.7920  -11.7550   18.7560 C   0  0  0  0  0  0  0  0  0  0  0  0
   17.3960  -10.7280   19.4990 C   0  0  0  0  0  0  0  0  0  0  0  0
   16.6720   -9.9580   20.4200 C   0  0  0  0  0  0  0  0  0  0  0  0
   15.3280  -10.2820   20.5710 C   0  0  0  0  0  0  0  0  0  0  0  0
   14.4550   -9.6620   21.4100 O   0  0  0  0  0  0  0  0  0  0  0  0
   13.2400  -10.2780   21.2710 C   0  0  0  0  0  0  0  0  0  0  0  0
   12.0770   -9.8800   22.0150 C   0  0  0  0  0  0  0  0  0  0  0  0
   10.9850  -10.6110   22.0070 N   0  0  0  0  0  0  0  0  0  0  0  0
    9.9530   -9.9890   22.8390 C   0  0  0  0  0  0  0  0  0  0  0  0
   10.6490   -8.7190   23.3600 C   0  0  0  0  0  0  0  0  0  0  0  0
   11.9850   -8.7920   22.7500 N   0  0  0  0  0  0  0  0  0  0  0  0
   13.3400  -11.2930   20.3370 C   0  0  0  0  0  0  0  0  0  0  0  0
   14.6870  -11.2990   19.8790 C   0  0  0  0  0  0  0  0  0  0  0  0
   15.4320  -12.0590   18.9580 C   0  0  0  0  0  0  0  0  0  0  0  0
   18.4668  -10.5219   19.3544 H   0  0  0  0  0  0  0  0  0  0  0  0
   17.1407   -9.1432   20.9913 H   0  0  0  0  0  0  0  0  0  0  0  0
   10.9690  -11.4700   21.4630 H   0  0  0  0  0  0  0  0  0  0  0  0
    9.0635   -9.7365   22.2431 H   0  0  0  0  0  0  0  0  0  0  0  0
    9.5898  -10.6458   23.6432 H   0  0  0  0  0  0  0  0  0  0  0  0
   10.1152   -7.8145   23.0329 H   0  0  0  0  0  0  0  0  0  0  0  0
   10.6793   -8.6640   24.4582 H   0  0  0  0  0  0  0  0  0  0  0  0
   12.7580   -8.1460   22.8380 H   0  0  0  0  0  0  0  0  0  0  0  0
   12.5334  -11.9661   20.0110 H   0  0  0  0  0  0  0  0  0  0  0  0
   14.9573  -12.8811   18.4023 H   0  0  0  0  0  0  0  0  0  0  0  0
  1  2  2  0
  2  3  2  0
  3  4  1  0
  4  5  2  0
  5  6  1  0
  6  7  2  0
  7  8  1  0
  8  9  1  0
  9 10  1  0
 10 11  2  0
 11 12  1  0
 12 13  1  0
 13 14  1  0
  9 15  2  0
 15 16  1  0
 16 17  2  0
 17  4  1  0
 16  7  1  0
 14 10  1  0
  5 18  1  0
  6 19  1  0
 11 20  1  0
 12 21  1  0
 12 22  1  0
 13 23  1  0
 13 24  1  0
 14 25  1  0
 15 26  1  0
 17 27  1  0
M  CHG  1  11   1
M  END
>  <meeko>  (8) 
{"is_sidechain": [false], "free_energy": -7.381, "intermolecular_energy": -8.143, "internal_energy": -0.234}

$$$$
3ary_ligand
     RDKit          3D

 27 29  0  0  0  0  0  0  0  0999 V2000
    6.9210  -11.3360   20.5310 S   0  0  0  0  0  0  0  0  0  0  0  0
    8.5270  -10.5260   20.5420 C   0  0  0  0  0  0  0  0  0  0  0  0
    9.5790  -10.0010   20.5580 N   0  0  0  0  0  0  0  0  0  0  0  0
    9.7700   -9.2330   21.7180 C   0  0  0  0  0  0  0  0  0  0  0  0
   10.4690   -8.0160   21.6530 C   0  0  0  0  0  0  0  0  0  0  0  0
   10.7060   -7.2390   22.7950 C   0  0  0  0  0  0  0  0  0  0  0  0
   10.2270   -7.7490   23.9980 C   0  0  0  0  0  0  0  0  0  0  0  0
   10.3540   -7.1550   25.2140 O   0  0  0  0  0  0  0  0  0  0  0  0
    9.7620   -7.9750   26.1380 C   0  0  0  0  0  0  0  0  0  0  0  0
    9.7130   -7.6580   27.5380 C   0  0  0  0  0  0  0  0  0  0  0  0
   10.1430   -6.5000   27.9870 N   0  0  0  0  0  0  0  0  0  0  0  0
    9.9830   -6.4290   29.4410 C   0  0  0  0  0  0  0  0  0  0  0  0
    9.3620   -7.7940   29.7870 C   0  0  0  0  0  0  0  0  0  0  0  0
    9.2540   -8.4560   28.4790 N   0  0  0  0  0  0  0  0  0  0  0  0
    9.2550   -9.0950   25.5050 C   0  0  0  0  0  0  0  0  0  0  0  0
    9.5510   -8.9540   24.1210 C   0  0  0  0  0  0  0  0  0  0  0  0
    9.3230   -9.7190   22.9620 C   0  0  0  0  0  0  0  0  0  0  0  0
   10.8403   -7.6635   20.6794 H   0  0  0  0  0  0  0  0  0  0  0  0
   11.2410   -6.2792   22.7434 H   0  0  0  0  0  0  0  0  0  0  0  0
   10.5150   -5.8220   27.3270 H   0  0  0  0  0  0  0  0  0  0  0  0
   10.9546   -6.2986   29.9399 H   0  0  0  0  0  0  0  0  0  0  0  0
    9.3689   -5.5773   29.7688 H   0  0  0  0  0  0  0  0  0  0  0  0
   10.0148   -8.3638   30.4646 H   0  0  0  0  0  0  0  0  0  0  0  0
    8.3970   -7.7089   30.3080 H   0  0  0  0  0  0  0  0  0  0  0  0
    8.8950   -9.3770   28.2620 H   0  0  0  0  0  0  0  0  0  0  0  0
    8.7249   -9.9335   25.9803 H   0  0  0  0  0  0  0  0  0  0  0  0
    8.8017  -10.6854   23.0269 H   0  0  0  0  0  0  0  0  0  0  0  0
  1  2  2  0
  2  3  2  0
  3  4  1  0
  4  5  2  0
  5  6  1  0
  6  7  2  0
  7  8  1  0
  8  9  1  0
  9 10  1  0
 10 11  2  0
 11 12  1  0
 12 13  1  0
 13 14  1  0
  9 15  2  0
 15 16  1  0
 16 17  2  0
 17  4  1  0
 16  7  1  0
 14 10  1  0
  5 18  1  0
  6 19  1  0
 11 20  1  0
 12 21  1  0
 12 22  1  0
 13 23  1  0
 13 24  1  0
 14 25  1  0
 15 26  1  0
 17 27  1  0
M  CHG  1  11   1
M  END
>  <meeko>  (9) 
{"is_sidechain": [false], "free_energy": -7.315, "intermolecular_energy": -8.077, "internal_energy": -0.225}

$$$$
