1sqa_ligand
     RDKit          3D

 54 57  0  0  0  0  0  0  0  0999 V2000
   17.0000   19.6850   33.9580 N   0  0  0  0  0  0  0  0  0  0  0  0
   18.2930   19.9190   34.0210 C   0  0  0  0  0  0  0  0  0  0  0  0
   18.7580   21.1210   34.2860 N   0  0  0  0  0  0  0  0  0  0  0  0
   19.2360   18.8150   33.7980 C   0  0  0  0  0  0  0  0  0  0  0  0
   18.8190   17.6350   33.1770 C   0  0  0  0  0  0  0  0  0  0  0  0
   19.7170   16.5850   32.9860 C   0  0  0  0  0  0  0  0  0  0  0  0
   21.0530   16.6870   33.4040 C   0  0  0  0  0  0  0  0  0  0  0  0
   21.9250   15.6070   33.2210 C   0  0  0  0  0  0  0  0  0  0  0  0
   23.2530   15.6760   33.6490 C   0  0  0  0  0  0  0  0  0  0  0  0
   24.1340   14.4940   33.4190 C   0  0  0  0  0  0  0  0  0  0  0  0
   25.2920   14.5540   33.8150 O   0  0  0  0  0  0  0  0  0  0  0  0
   23.5600   13.4410   32.7270 N   0  0  0  0  0  0  0  0  0  0  0  0
   24.1510   12.1900   32.4490 C   0  0  0  0  0  0  0  0  0  0  0  0
   23.5330   11.0500   32.9740 C   0  0  0  0  0  0  0  0  0  0  0  0
   24.0650    9.7730   32.7460 C   0  0  0  0  0  0  0  0  0  0  0  0
   25.2390    9.6160   31.9960 C   0  0  0  0  0  0  0  0  0  0  0  0
   25.8010    8.2540   31.7150 C   0  0  0  0  0  0  0  0  0  0  0  0
   26.1620    8.1130   30.2890 N   0  0  0  0  0  0  0  0  0  0  0  0
   25.8590   10.7590   31.4760 C   0  0  0  0  0  0  0  0  0  0  0  0
   25.3190   12.0300   31.7020 C   0  0  0  0  0  0  0  0  0  0  0  0
   23.7280   16.8520   34.2320 C   0  0  0  0  0  0  0  0  0  0  0  0
   22.8900   17.9650   34.4130 C   0  0  0  0  0  0  0  0  0  0  0  0
   23.3670   19.1430   35.0230 N   0  0  0  0  0  0  0  0  0  0  0  0
   24.1810   19.3630   36.1330 C   0  0  0  0  0  0  0  0  0  0  0  0
   25.0290   20.4040   36.1930 N   0  0  0  0  0  0  0  0  0  0  0  0
   25.7970   20.5010   37.2970 C   0  0  0  0  0  0  0  0  0  0  0  0
   25.7520   19.6070   38.3360 C   0  0  0  0  0  0  0  0  0  0  0  0
   24.8610   18.5770   38.1810 C   0  0  0  0  0  0  0  0  0  0  0  0
   24.0760   18.4320   37.0960 N   0  0  0  0  0  0  0  0  0  0  0  0
   21.5190   17.8770   34.0170 C   0  0  0  0  0  0  0  0  0  0  0  0
   20.5770   18.9210   34.2100 C   0  0  0  0  0  0  0  0  0  0  0  0
   16.6620   18.7560   33.7270 H   0  0  0  0  0  0  0  0  0  0  0  0
   16.3060   20.4060   34.1070 H   0  0  0  0  0  0  0  0  0  0  0  0
   19.7600   21.2740   34.3570 H   0  0  0  0  0  0  0  0  0  0  0  0
   18.1550   21.9150   34.4520 H   0  0  0  0  0  0  0  0  0  0  0  0
   17.7777   17.5336   32.8372 H   0  0  0  0  0  0  0  0  0  0  0  0
   19.3721   15.6608   32.4993 H   0  0  0  0  0  0  0  0  0  0  0  0
   21.5593   14.6913   32.7334 H   0  0  0  0  0  0  0  0  0  0  0  0
   22.6440   13.6000   32.3230 H   0  0  0  0  0  0  0  0  0  0  0  0
   22.6172   11.1570   33.5739 H   0  0  0  0  0  0  0  0  0  0  0  0
   23.5578    8.8883   33.1584 H   0  0  0  0  0  0  0  0  0  0  0  0
   26.7001    8.1021   32.3302 H   0  0  0  0  0  0  0  0  0  0  0  0
   25.0355    7.5024   31.9583 H   0  0  0  0  0  0  0  0  0  0  0  0
   25.3740    8.3800   29.6870 H   0  0  0  0  0  0  0  0  0  0  0  0
   26.9660    8.7010   30.0400 H   0  0  0  0  0  0  0  0  0  0  0  0
   26.3940    7.1380   30.0670 H   0  0  0  0  0  0  0  0  0  0  0  0
   26.7802   10.6566   30.8836 H   0  0  0  0  0  0  0  0  0  0  0  0
   25.8219   12.9151   31.2852 H   0  0  0  0  0  0  0  0  0  0  0  0
   24.7778   16.9083   34.5557 H   0  0  0  0  0  0  0  0  0  0  0  0
   23.4880   19.9370   34.4110 H   0  0  0  0  0  0  0  0  0  0  0  0
   26.4992   21.3447   37.3683 H   0  0  0  0  0  0  0  0  0  0  0  0
   26.3854   19.7092   39.2295 H   0  0  0  0  0  0  0  0  0  0  0  0
   24.7829   17.8299   38.9845 H   0  0  0  0  0  0  0  0  0  0  0  0
   20.9081   19.8483   34.7004 H   0  0  0  0  0  0  0  0  0  0  0  0
  1  2  1  0
  2  3  2  0
  2  4  1  0
  4  5  2  0
  5  6  1  0
  6  7  2  0
  7  8  1  0
  8  9  2  0
  9 10  1  0
 10 11  2  0
 10 12  1  0
 12 13  1  0
 13 14  2  0
 14 15  1  0
 15 16  2  0
 16 17  1  0
 17 18  1  0
 16 19  1  0
 19 20  2  0
  9 21  1  0
 21 22  2  0
 22 23  1  0
 23 24  1  0
 24 25  2  0
 25 26  1  0
 26 27  2  0
 27 28  1  0
 28 29  2  0
 22 30  1  0
 30 31  2  0
 31  4  1  0
 30  7  1  0
 20 13  1  0
 29 24  1  0
  1 32  1  0
  1 33  1  0
  3 34  1  0
  3 35  1  0
  5 36  1  0
  6 37  1  0
  8 38  1  0
 12 39  1  0
 14 40  1  0
 15 41  1  0
 17 42  1  0
 17 43  1  0
 18 44  1  0
 18 45  1  0
 18 46  1  0
 19 47  1  0
 20 48  1  0
 21 49  1  0
 23 50  1  0
 26 51  1  0
 27 52  1  0
 28 53  1  0
 31 54  1  0
M  CHG  2   3   1  18   1
M  END
>  <meeko>  (1) 
{"is_sidechain": [false], "free_energy": -9.402, "intermolecular_energy": -12.975, "internal_energy": -0.687}

$$$$
1sqa_ligand
     RDKit          3D

 54 57  0  0  0  0  0  0  0  0999 V2000
   16.9410   19.7720   33.9580 N   0  0  0  0  0  0  0  0  0  0  0  0
   18.2460   19.9330   33.9530 C   0  0  0  0  0  0  0  0  0  0  0  0
   18.7970   21.0720   34.3120 N   0  0  0  0  0  0  0  0  0  0  0  0
   19.1080   18.8150   33.5420 C   0  0  0  0  0  0  0  0  0  0  0  0
   18.5680   17.6950   32.9060 C   0  0  0  0  0  0  0  0  0  0  0  0
   19.3910   16.6310   32.5370 C   0  0  0  0  0  0  0  0  0  0  0  0
   20.7710   16.6610   32.7860 C   0  0  0  0  0  0  0  0  0  0  0  0
   21.5680   15.5670   32.4270 C   0  0  0  0  0  0  0  0  0  0  0  0
   22.9410   15.5630   32.6850 C   0  0  0  0  0  0  0  0  0  0  0  0
   23.7370   14.3700   32.2700 C   0  0  0  0  0  0  0  0  0  0  0  0
   23.2610   13.2610   32.4760 O   0  0  0  0  0  0  0  0  0  0  0  0
   24.9810   14.6380   31.7230 N   0  0  0  0  0  0  0  0  0  0  0  0
   25.8890   13.7000   31.1880 C   0  0  0  0  0  0  0  0  0  0  0  0
   26.1260   13.7410   29.8100 C   0  0  0  0  0  0  0  0  0  0  0  0
   27.0100   12.8370   29.2040 C   0  0  0  0  0  0  0  0  0  0  0  0
   27.6630   11.8610   29.9700 C   0  0  0  0  0  0  0  0  0  0  0  0
   28.6370   10.9090   29.3420 C   0  0  0  0  0  0  0  0  0  0  0  0
   28.0200   10.1890   28.2090 N   0  0  0  0  0  0  0  0  0  0  0  0
   27.4190   11.8170   31.3480 C   0  0  0  0  0  0  0  0  0  0  0  0
   26.5410   12.7270   31.9470 C   0  0  0  0  0  0  0  0  0  0  0  0
   23.5340   16.6810   33.2750 C   0  0  0  0  0  0  0  0  0  0  0  0
   22.7720   17.8060   33.6310 C   0  0  0  0  0  0  0  0  0  0  0  0
   23.3700   18.9230   34.2480 N   0  0  0  0  0  0  0  0  0  0  0  0
   23.9880   19.0950   35.4850 C   0  0  0  0  0  0  0  0  0  0  0  0
   24.7060   20.1950   35.7710 N   0  0  0  0  0  0  0  0  0  0  0  0
   25.2930   20.2410   36.9840 C   0  0  0  0  0  0  0  0  0  0  0  0
   25.1910   19.2410   37.9160 C   0  0  0  0  0  0  0  0  0  0  0  0
   24.4420   18.1590   37.5320 C   0  0  0  0  0  0  0  0  0  0  0  0
   23.8410   18.0610   36.3300 N   0  0  0  0  0  0  0  0  0  0  0  0
   21.3590   17.7900   33.4080 C   0  0  0  0  0  0  0  0  0  0  0  0
   20.4930   18.8490   33.7850 C   0  0  0  0  0  0  0  0  0  0  0  0
   16.5360   18.8930   33.6520 H   0  0  0  0  0  0  0  0  0  0  0  0
   16.3010   20.5050   34.2350 H   0  0  0  0  0  0  0  0  0  0  0  0
   19.8080   21.1670   34.3270 H   0  0  0  0  0  0  0  0  0  0  0  0
   18.2530   21.8720   34.6070 H   0  0  0  0  0  0  0  0  0  0  0  0
   17.4893   17.6518   32.6952 H   0  0  0  0  0  0  0  0  0  0  0  0
   18.9501   15.7531   32.0421 H   0  0  0  0  0  0  0  0  0  0  0  0
   21.1064   14.6983   31.9348 H   0  0  0  0  0  0  0  0  0  0  0  0
   25.3050   15.5980   31.7640 H   0  0  0  0  0  0  0  0  0  0  0  0
   25.6118   14.4928   29.1933 H   0  0  0  0  0  0  0  0  0  0  0  0
   27.1924   12.8939   28.1207 H   0  0  0  0  0  0  0  0  0  0  0  0
   29.5077   11.4739   28.9776 H   0  0  0  0  0  0  0  0  0  0  0  0
   28.9440   10.1724   30.0991 H   0  0  0  0  0  0  0  0  0  0  0  0
   27.4300    9.4190   28.5460 H   0  0  0  0  0  0  0  0  0  0  0  0
   27.4360   10.8100   27.6360 H   0  0  0  0  0  0  0  0  0  0  0  0
   28.7400    9.7750   27.6040 H   0  0  0  0  0  0  0  0  0  0  0  0
   27.9227   11.0592   31.9661 H   0  0  0  0  0  0  0  0  0  0  0  0
   26.3622   12.6748   33.0311 H   0  0  0  0  0  0  0  0  0  0  0  0
   24.6176   16.6807   33.4644 H   0  0  0  0  0  0  0  0  0  0  0  0
   23.7740   19.6070   33.6230 H   0  0  0  0  0  0  0  0  0  0  0  0
   25.8870   21.1308   37.2400 H   0  0  0  0  0  0  0  0  0  0  0  0
   25.6756   19.3024   38.9016 H   0  0  0  0  0  0  0  0  0  0  0  0
   24.3255   17.3272   38.2423 H   0  0  0  0  0  0  0  0  0  0  0  0
   20.9210   19.7297   34.2862 H   0  0  0  0  0  0  0  0  0  0  0  0
  1  2  1  0
  2  3  2  0
  2  4  1  0
  4  5  2  0
  5  6  1  0
  6  7  2  0
  7  8  1  0
  8  9  2  0
  9 10  1  0
 10 11  2  0
 10 12  1  0
 12 13  1  0
 13 14  2  0
 14 15  1  0
 15 16  2  0
 16 17  1  0
 17 18  1  0
 16 19  1  0
 19 20  2  0
  9 21  1  0
 21 22  2  0
 22 23  1  0
 23 24  1  0
 24 25  2  0
 25 26  1  0
 26 27  2  0
 27 28  1  0
 28 29  2  0
 22 30  1  0
 30 31  2  0
 31  4  1  0
 30  7  1  0
 20 13  1  0
 29 24  1  0
  1 32  1  0
  1 33  1  0
  3 34  1  0
  3 35  1  0
  5 36  1  0
  6 37  1  0
  8 38  1  0
 12 39  1  0
 14 40  1  0
 15 41  1  0
 17 42  1  0
 17 43  1  0
 18 44  1  0
 18 45  1  0
 18 46  1  0
 19 47  1  0
 20 48  1  0
 21 49  1  0
 23 50  1  0
 26 51  1  0
 27 52  1  0
 28 53  1  0
 31 54  1  0
M  CHG  2   3   1  18   1
M  END
>  <meeko>  (2) 
{"is_sidechain": [false], "free_energy": -9.162, "intermolecular_energy": -12.533, "internal_energy": -0.797}

$$$$
1sqa_ligand
     RDKit          3D

 54 57  0  0  0  0  0  0  0  0999 V2000
   28.8870    9.5650   30.0080 N   0  0  0  0  0  0  0  0  0  0  0  0
   28.1430   10.3090   29.2190 C   0  0  0  0  0  0  0  0  0  0  0  0
   28.1600   10.1490   27.9130 N   0  0  0  0  0  0  0  0  0  0  0  0
   27.2720   11.3350   29.8080 C   0  0  0  0  0  0  0  0  0  0  0  0
   27.3020   12.6510   29.3380 C   0  0  0  0  0  0  0  0  0  0  0  0
   26.4850   13.6220   29.9160 C   0  0  0  0  0  0  0  0  0  0  0  0
   25.6150   13.3060   30.9690 C   0  0  0  0  0  0  0  0  0  0  0  0
   24.8250   14.3080   31.5460 C   0  0  0  0  0  0  0  0  0  0  0  0
   23.9670   14.0240   32.6110 C   0  0  0  0  0  0  0  0  0  0  0  0
   23.1460   15.1340   33.1770 C   0  0  0  0  0  0  0  0  0  0  0  0
   23.6310   15.8070   34.0780 O   0  0  0  0  0  0  0  0  0  0  0  0
   21.8730   15.2700   32.6480 N   0  0  0  0  0  0  0  0  0  0  0  0
   20.9340   16.2780   32.9550 C   0  0  0  0  0  0  0  0  0  0  0  0
   21.4240   17.5590   33.2280 C   0  0  0  0  0  0  0  0  0  0  0  0
   20.5530   18.6100   33.5460 C   0  0  0  0  0  0  0  0  0  0  0  0
   19.1700   18.3920   33.6120 C   0  0  0  0  0  0  0  0  0  0  0  0
   18.2230   19.5140   33.9180 C   0  0  0  0  0  0  0  0  0  0  0  0
   18.7400   20.3600   35.0140 N   0  0  0  0  0  0  0  0  0  0  0  0
   18.6820   17.1070   33.3460 C   0  0  0  0  0  0  0  0  0  0  0  0
   19.5570   16.0630   33.0210 C   0  0  0  0  0  0  0  0  0  0  0  0
   23.8670   12.7130   33.0830 C   0  0  0  0  0  0  0  0  0  0  0  0
   24.6270   11.6760   32.5170 C   0  0  0  0  0  0  0  0  0  0  0  0
   24.5420   10.3590   33.0110 N   0  0  0  0  0  0  0  0  0  0  0  0
   25.1560    9.7160   34.0850 C   0  0  0  0  0  0  0  0  0  0  0  0
   26.2750   10.1990   34.6520 N   0  0  0  0  0  0  0  0  0  0  0  0
   26.8070    9.4770   35.6590 C   0  0  0  0  0  0  0  0  0  0  0  0
   26.2700    8.3030   36.1200 C   0  0  0  0  0  0  0  0  0  0  0  0
   25.1320    7.8900   35.4760 C   0  0  0  0  0  0  0  0  0  0  0  0
   24.5650    8.5700   34.4610 N   0  0  0  0  0  0  0  0  0  0  0  0
   25.5390   11.9780   31.4570 C   0  0  0  0  0  0  0  0  0  0  0  0
   26.3940   11.0160   30.8590 C   0  0  0  0  0  0  0  0  0  0  0  0
   28.8790    9.7220   31.0110 H   0  0  0  0  0  0  0  0  0  0  0  0
   29.5020    8.8420   29.6570 H   0  0  0  0  0  0  0  0  0  0  0  0
   27.5570   10.7160   27.3240 H   0  0  0  0  0  0  0  0  0  0  0  0
   28.7360    9.4560   27.4550 H   0  0  0  0  0  0  0  0  0  0  0  0
   27.9726   12.9217   28.5091 H   0  0  0  0  0  0  0  0  0  0  0  0
   26.5238   14.6546   29.5389 H   0  0  0  0  0  0  0  0  0  0  0  0
   24.8810   15.3345   31.1545 H   0  0  0  0  0  0  0  0  0  0  0  0
   21.5540   14.5400   32.0220 H   0  0  0  0  0  0  0  0  0  0  0  0
   22.5077   17.7443   33.1927 H   0  0  0  0  0  0  0  0  0  0  0  0
   20.9577   19.6132   33.7452 H   0  0  0  0  0  0  0  0  0  0  0  0
   18.0942   20.1317   33.0170 H   0  0  0  0  0  0  0  0  0  0  0  0
   17.2603   19.0841   34.2317 H   0  0  0  0  0  0  0  0  0  0  0  0
   19.7450   20.5340   34.8960 H   0  0  0  0  0  0  0  0  0  0  0  0
   18.2620   21.2680   35.0510 H   0  0  0  0  0  0  0  0  0  0  0  0
   18.6180   19.8950   35.9220 H   0  0  0  0  0  0  0  0  0  0  0  0
   17.5998   16.9154   33.3928 H   0  0  0  0  0  0  0  0  0  0  0  0
   19.1535   15.0606   32.8151 H   0  0  0  0  0  0  0  0  0  0  0  0
   23.1807   12.4887   33.9129 H   0  0  0  0  0  0  0  0  0  0  0  0
   23.6630    9.8860   32.8530 H   0  0  0  0  0  0  0  0  0  0  0  0
   27.7239    9.8513   36.1377 H   0  0  0  0  0  0  0  0  0  0  0  0
   26.7195    7.7334   36.9468 H   0  0  0  0  0  0  0  0  0  0  0  0
   24.6572    6.9541   35.8057 H   0  0  0  0  0  0  0  0  0  0  0  0
   26.3689    9.9814   31.2319 H   0  0  0  0  0  0  0  0  0  0  0  0
  1  2  1  0
  2  3  2  0
  2  4  1  0
  4  5  2  0
  5  6  1  0
  6  7  2  0
  7  8  1  0
  8  9  2  0
  9 10  1  0
 10 11  2  0
 10 12  1  0
 12 13  1  0
 13 14  2  0
 14 15  1  0
 15 16  2  0
 16 17  1  0
 17 18  1  0
 16 19  1  0
 19 20  2  0
  9 21  1  0
 21 22  2  0
 22 23  1  0
 23 24  1  0
 24 25  2  0
 25 26  1  0
 26 27  2  0
 27 28  1  0
 28 29  2  0
 22 30  1  0
 30 31  2  0
 31  4  1  0
 30  7  1  0
 20 13  1  0
 29 24  1  0
  1 32  1  0
  1 33  1  0
  3 34  1  0
  3 35  1  0
  5 36  1  0
  6 37  1  0
  8 38  1  0
 12 39  1  0
 14 40  1  0
 15 41  1  0
 17 42  1  0
 17 43  1  0
 18 44  1  0
 18 45  1  0
 18 46  1  0
 19 47  1  0
 20 48  1  0
 21 49  1  0
 23 50  1  0
 26 51  1  0
 27 52  1  0
 28 53  1  0
 31 54  1  0
M  CHG  2   3   1  18   1
M  END
>  <meeko>  (3) 
{"is_sidechain": [false], "free_energy": -8.315, "intermolecular_energy": -11.63, "internal_energy": -0.53}

$$$$
1sqa_ligand
     RDKit          3D

 54 57  0  0  0  0  0  0  0  0999 V2000
   26.9960    7.8900   34.2320 N   0  0  0  0  0  0  0  0  0  0  0  0
   26.7790    8.5110   33.0930 C   0  0  0  0  0  0  0  0  0  0  0  0
   27.2410    8.0370   31.9560 N   0  0  0  0  0  0  0  0  0  0  0  0
   26.0020    9.7580   33.0900 C   0  0  0  0  0  0  0  0  0  0  0  0
   24.8420    9.8770   33.8600 C   0  0  0  0  0  0  0  0  0  0  0  0
   24.1000   11.0580   33.8360 C   0  0  0  0  0  0  0  0  0  0  0  0
   24.4980   12.1500   33.0500 C   0  0  0  0  0  0  0  0  0  0  0  0
   23.7200   13.3130   33.0270 C   0  0  0  0  0  0  0  0  0  0  0  0
   24.0820   14.4050   32.2350 C   0  0  0  0  0  0  0  0  0  0  0  0
   23.2150   15.6190   32.2590 C   0  0  0  0  0  0  0  0  0  0  0  0
   23.6280   16.6330   31.7090 O   0  0  0  0  0  0  0  0  0  0  0  0
   22.0230   15.4920   32.9530 N   0  0  0  0  0  0  0  0  0  0  0  0
   21.0010   16.4600   33.0610 C   0  0  0  0  0  0  0  0  0  0  0  0
   21.2550   17.5850   33.8530 C   0  0  0  0  0  0  0  0  0  0  0  0
   20.2860   18.5850   34.0120 C   0  0  0  0  0  0  0  0  0  0  0  0
   19.0350   18.4690   33.3920 C   0  0  0  0  0  0  0  0  0  0  0  0
   18.0010   19.5480   33.5260 C   0  0  0  0  0  0  0  0  0  0  0  0
   18.5870   20.7750   34.1030 N   0  0  0  0  0  0  0  0  0  0  0  0
   18.7810   17.3390   32.6050 C   0  0  0  0  0  0  0  0  0  0  0  0
   19.7540   16.3470   32.4440 C   0  0  0  0  0  0  0  0  0  0  0  0
   25.2590   14.3510   31.4850 C   0  0  0  0  0  0  0  0  0  0  0  0
   26.0780   13.2100   31.4980 C   0  0  0  0  0  0  0  0  0  0  0  0
   27.2530   13.1490   30.7220 N   0  0  0  0  0  0  0  0  0  0  0  0
   27.4740   12.8850   29.3710 C   0  0  0  0  0  0  0  0  0  0  0  0
   27.0950   11.7270   28.8050 N   0  0  0  0  0  0  0  0  0  0  0  0
   27.3920   11.5600   27.5000 C   0  0  0  0  0  0  0  0  0  0  0  0
   28.0470   12.4980   26.7440 C   0  0  0  0  0  0  0  0  0  0  0  0
   28.3970   13.6440   27.4100 C   0  0  0  0  0  0  0  0  0  0  0  0
   28.1290   13.8560   28.7130 N   0  0  0  0  0  0  0  0  0  0  0  0
   25.6810   12.0750   32.2730 C   0  0  0  0  0  0  0  0  0  0  0  0
   26.4060   10.8550   32.3080 C   0  0  0  0  0  0  0  0  0  0  0  0
   26.6520    8.2860   35.1010 H   0  0  0  0  0  0  0  0  0  0  0  0
   27.5210    7.0270   34.2920 H   0  0  0  0  0  0  0  0  0  0  0  0
   27.0400    8.5180   31.0850 H   0  0  0  0  0  0  0  0  0  0  0  0
   27.7780    7.1820   31.9000 H   0  0  0  0  0  0  0  0  0  0  0  0
   24.5126    9.0359   34.4877 H   0  0  0  0  0  0  0  0  0  0  0  0
   23.1866   11.1345   34.4441 H   0  0  0  0  0  0  0  0  0  0  0  0
   22.8096   13.3680   33.6420 H   0  0  0  0  0  0  0  0  0  0  0  0
   21.8910   14.6440   33.4910 H   0  0  0  0  0  0  0  0  0  0  0  0
   22.2274   17.6859   34.3572 H   0  0  0  0  0  0  0  0  0  0  0  0
   20.5095   19.4681   34.6286 H   0  0  0  0  0  0  0  0  0  0  0  0
   17.5909   19.7786   32.5317 H   0  0  0  0  0  0  0  0  0  0  0  0
   17.2065   19.1902   34.1974 H   0  0  0  0  0  0  0  0  0  0  0  0
   18.3570   20.8520   35.1020 H   0  0  0  0  0  0  0  0  0  0  0  0
   19.6100   20.7890   34.0100 H   0  0  0  0  0  0  0  0  0  0  0  0
   18.2100   21.6110   33.6410 H   0  0  0  0  0  0  0  0  0  0  0  0
   17.8057   17.2302   32.1080 H   0  0  0  0  0  0  0  0  0  0  0  0
   19.5335   15.4662   31.8230 H   0  0  0  0  0  0  0  0  0  0  0  0
   25.5498   15.2176   30.8731 H   0  0  0  0  0  0  0  0  0  0  0  0
   28.0170   13.7320   31.0340 H   0  0  0  0  0  0  0  0  0  0  0  0
   27.0922   10.6192   27.0152 H   0  0  0  0  0  0  0  0  0  0  0  0
   28.2753   12.3420   25.6793 H   0  0  0  0  0  0  0  0  0  0  0  0
   28.9241   14.4314   26.8513 H   0  0  0  0  0  0  0  0  0  0  0  0
   27.3185   10.7642   31.7004 H   0  0  0  0  0  0  0  0  0  0  0  0
  1  2  1  0
  2  3  2  0
  2  4  1  0
  4  5  2  0
  5  6  1  0
  6  7  2  0
  7  8  1  0
  8  9  2  0
  9 10  1  0
 10 11  2  0
 10 12  1  0
 12 13  1  0
 13 14  2  0
 14 15  1  0
 15 16  2  0
 16 17  1  0
 17 18  1  0
 16 19  1  0
 19 20  2  0
  9 21  1  0
 21 22  2  0
 22 23  1  0
 23 24  1  0
 24 25  2  0
 25 26  1  0
 26 27  2  0
 27 28  1  0
 28 29  2  0
 22 30  1  0
 30 31  2  0
 31  4  1  0
 30  7  1  0
 20 13  1  0
 29 24  1  0
  1 32  1  0
  1 33  1  0
  3 34  1  0
  3 35  1  0
  5 36  1  0
  6 37  1  0
  8 38  1  0
 12 39  1  0
 14 40  1  0
 15 41  1  0
 17 42  1  0
 17 43  1  0
 18 44  1  0
 18 45  1  0
 18 46  1  0
 19 47  1  0
 20 48  1  0
 21 49  1  0
 23 50  1  0
 26 51  1  0
 27 52  1  0
 28 53  1  0
 31 54  1  0
M  CHG  2   3   1  18   1
M  END
>  <meeko>  (4) 
{"is_sidechain": [false], "free_energy": -7.746, "intermolecular_energy": -10.471, "internal_energy": -0.904}

$$$$
1sqa_ligand
     RDKit          3D

 54 57  0  0  0  0  0  0  0  0999 V2000
   24.7000   19.8440   37.8720 N   0  0  0  0  0  0  0  0  0  0  0  0
   24.6350   18.5310   37.8650 C   0  0  0  0  0  0  0  0  0  0  0  0
   24.3350   17.8550   38.9530 N   0  0  0  0  0  0  0  0  0  0  0  0
   24.8980   17.8030   36.6150 C   0  0  0  0  0  0  0  0  0  0  0  0
   25.9860   16.9330   36.5130 C   0  0  0  0  0  0  0  0  0  0  0  0
   26.2380   16.2610   35.3170 C   0  0  0  0  0  0  0  0  0  0  0  0
   25.4100   16.4340   34.1980 C   0  0  0  0  0  0  0  0  0  0  0  0
   25.7030   15.7650   33.0030 C   0  0  0  0  0  0  0  0  0  0  0  0
   24.9070   15.9390   31.8690 C   0  0  0  0  0  0  0  0  0  0  0  0
   25.2670   15.1920   30.6280 C   0  0  0  0  0  0  0  0  0  0  0  0
   24.4430   15.1480   29.7230 O   0  0  0  0  0  0  0  0  0  0  0  0
   26.5050   14.5720   30.6370 N   0  0  0  0  0  0  0  0  0  0  0  0
   27.1090   13.8730   29.5700 C   0  0  0  0  0  0  0  0  0  0  0  0
   26.6610   12.5740   29.3100 C   0  0  0  0  0  0  0  0  0  0  0  0
   27.2160   11.8160   28.2700 C   0  0  0  0  0  0  0  0  0  0  0  0
   28.2450   12.3420   27.4780 C   0  0  0  0  0  0  0  0  0  0  0  0
   28.8260   11.5560   26.3400 C   0  0  0  0  0  0  0  0  0  0  0  0
   30.2520   11.2510   26.5790 N   0  0  0  0  0  0  0  0  0  0  0  0
   28.6970   13.6410   27.7440 C   0  0  0  0  0  0  0  0  0  0  0  0
   28.1330   14.3950   28.7790 C   0  0  0  0  0  0  0  0  0  0  0  0
   23.7810   16.7610   31.9370 C   0  0  0  0  0  0  0  0  0  0  0  0
   23.4410   17.4330   33.1240 C   0  0  0  0  0  0  0  0  0  0  0  0
   22.3170   18.2810   33.1830 N   0  0  0  0  0  0  0  0  0  0  0  0
   20.9470   18.0300   33.1390 C   0  0  0  0  0  0  0  0  0  0  0  0
   20.4530   16.8890   32.6290 N   0  0  0  0  0  0  0  0  0  0  0  0
   19.1100   16.7650   32.6000 C   0  0  0  0  0  0  0  0  0  0  0  0
   18.2480   17.7280   33.0590 C   0  0  0  0  0  0  0  0  0  0  0  0
   18.8460   18.8570   33.5570 C   0  0  0  0  0  0  0  0  0  0  0  0
   20.1810   19.0320   33.6020 N   0  0  0  0  0  0  0  0  0  0  0  0
   24.2840   17.2910   34.2710 C   0  0  0  0  0  0  0  0  0  0  0  0
   24.0620   17.9710   35.4970 C   0  0  0  0  0  0  0  0  0  0  0  0
   24.9590   20.3450   37.0270 H   0  0  0  0  0  0  0  0  0  0  0  0
   24.5250   20.3950   38.7020 H   0  0  0  0  0  0  0  0  0  0  0  0
   24.2640   16.8420   38.9200 H   0  0  0  0  0  0  0  0  0  0  0  0
   24.1410   18.3030   39.8380 H   0  0  0  0  0  0  0  0  0  0  0  0
   26.6463   16.7773   37.3789 H   0  0  0  0  0  0  0  0  0  0  0  0
   27.1017   15.5831   35.2501 H   0  0  0  0  0  0  0  0  0  0  0  0
   26.5726   15.0929   32.9571 H   0  0  0  0  0  0  0  0  0  0  0  0
   27.0090   14.5630   31.5170 H   0  0  0  0  0  0  0  0  0  0  0  0
   25.8622   12.1413   29.9302 H   0  0  0  0  0  0  0  0  0  0  0  0
   26.8409   10.8006   28.0741 H   0  0  0  0  0  0  0  0  0  0  0  0
   28.2697   10.6131   26.2334 H   0  0  0  0  0  0  0  0  0  0  0  0
   28.7458   12.1574   25.4224 H   0  0  0  0  0  0  0  0  0  0  0  0
   30.6910   11.9870   27.1450 H   0  0  0  0  0  0  0  0  0  0  0  0
   30.3730   10.3570   27.0690 H   0  0  0  0  0  0  0  0  0  0  0  0
   30.7680   11.2050   25.6920 H   0  0  0  0  0  0  0  0  0  0  0  0
   29.5035   14.0726   27.1330 H   0  0  0  0  0  0  0  0  0  0  0  0
   28.5020   15.4132   28.9717 H   0  0  0  0  0  0  0  0  0  0  0  0
   23.1483   16.8852   31.0458 H   0  0  0  0  0  0  0  0  0  0  0  0
   22.4400   19.1380   33.7040 H   0  0  0  0  0  0  0  0  0  0  0  0
   18.6825   15.8402   32.1852 H   0  0  0  0  0  0  0  0  0  0  0  0
   17.1554   17.6036   33.0297 H   0  0  0  0  0  0  0  0  0  0  0  0
   18.2017   19.6622   33.9399 H   0  0  0  0  0  0  0  0  0  0  0  0
   23.2040   18.6549   35.5754 H   0  0  0  0  0  0  0  0  0  0  0  0
  1  2  1  0
  2  3  2  0
  2  4  1  0
  4  5  2  0
  5  6  1  0
  6  7  2  0
  7  8  1  0
  8  9  2  0
  9 10  1  0
 10 11  2  0
 10 12  1  0
 12 13  1  0
 13 14  2  0
 14 15  1  0
 15 16  2  0
 16 17  1  0
 17 18  1  0
 16 19  1  0
 19 20  2  0
  9 21  1  0
 21 22  2  0
 22 23  1  0
 23 24  1  0
 24 25  2  0
 25 26  1  0
 26 27  2  0
 27 28  1  0
 28 29  2  0
 22 30  1  0
 30 31  2  0
 31  4  1  0
 30  7  1  0
 20 13  1  0
 29 24  1  0
  1 32  1  0
  1 33  1  0
  3 34  1  0
  3 35  1  0
  5 36  1  0
  6 37  1  0
  8 38  1  0
 12 39  1  0
 14 40  1  0
 15 41  1  0
 17 42  1  0
 17 43  1  0
 18 44  1  0
 18 45  1  0
 18 46  1  0
 19 47  1  0
 20 48  1  0
 21 49  1  0
 23 50  1  0
 26 51  1  0
 27 52  1  0
 28 53  1  0
 31 54  1  0
M  CHG  2   3   1  18   1
M  END
>  <meeko>  (5) 
{"is_sidechain": [false], "free_energy": -7.717, "intermolecular_energy": -10.534, "internal_energy": -0.802}

$$$$
1sqa_ligand
     RDKit          3D

 54 57  0  0  0  0  0  0  0  0999 V2000
   22.9790   11.7140   32.8200 N   0  0  0  0  0  0  0  0  0  0  0  0
   24.1310   12.2790   32.5330 C   0  0  0  0  0  0  0  0  0  0  0  0
   24.9870   11.7060   31.7140 N   0  0  0  0  0  0  0  0  0  0  0  0
   24.4670   13.5770   33.1330 C   0  0  0  0  0  0  0  0  0  0  0  0
   25.7640   13.8420   33.5800 C   0  0  0  0  0  0  0  0  0  0  0  0
   26.0690   15.0700   34.1650 C   0  0  0  0  0  0  0  0  0  0  0  0
   25.0920   16.0670   34.3130 C   0  0  0  0  0  0  0  0  0  0  0  0
   25.4220   17.2810   34.9270 C   0  0  0  0  0  0  0  0  0  0  0  0
   24.4620   18.2790   35.1070 C   0  0  0  0  0  0  0  0  0  0  0  0
   24.8780   19.5540   35.7610 C   0  0  0  0  0  0  0  0  0  0  0  0
   24.8280   20.5840   35.1000 O   0  0  0  0  0  0  0  0  0  0  0  0
   25.3320   19.4410   37.0650 N   0  0  0  0  0  0  0  0  0  0  0  0
   25.7090   20.4960   37.9230 C   0  0  0  0  0  0  0  0  0  0  0  0
   27.0750   20.7640   38.0600 C   0  0  0  0  0  0  0  0  0  0  0  0
   27.5270   21.7920   38.8990 C   0  0  0  0  0  0  0  0  0  0  0  0
   26.6140   22.5640   39.6310 C   0  0  0  0  0  0  0  0  0  0  0  0
   27.0800   23.6890   40.5060 C   0  0  0  0  0  0  0  0  0  0  0  0
   25.9620   24.2440   41.2970 N   0  0  0  0  0  0  0  0  0  0  0  0
   25.2470   22.2890   39.4980 C   0  0  0  0  0  0  0  0  0  0  0  0
   24.8030   21.2660   38.6530 C   0  0  0  0  0  0  0  0  0  0  0  0
   23.1640   18.0790   34.6330 C   0  0  0  0  0  0  0  0  0  0  0  0
   22.7990   16.8830   33.9920 C   0  0  0  0  0  0  0  0  0  0  0  0
   21.4820   16.6750   33.5360 N   0  0  0  0  0  0  0  0  0  0  0  0
   20.3700   17.5130   33.4600 C   0  0  0  0  0  0  0  0  0  0  0  0
   20.3270   18.6900   34.1070 N   0  0  0  0  0  0  0  0  0  0  0  0
   19.1880   19.4040   33.9970 C   0  0  0  0  0  0  0  0  0  0  0  0
   18.1000   18.9920   33.2700 C   0  0  0  0  0  0  0  0  0  0  0  0
   18.2380   17.7770   32.6500 C   0  0  0  0  0  0  0  0  0  0  0  0
   19.3510   17.0230   32.7350 N   0  0  0  0  0  0  0  0  0  0  0  0
   23.7710   15.8440   33.8510 C   0  0  0  0  0  0  0  0  0  0  0  0
   23.4890   14.5790   33.2730 C   0  0  0  0  0  0  0  0  0  0  0  0
   22.3430   12.1610   33.4750 H   0  0  0  0  0  0  0  0  0  0  0  0
   22.6950   10.8240   32.4340 H   0  0  0  0  0  0  0  0  0  0  0  0
   25.8600   12.1720   31.4840 H   0  0  0  0  0  0  0  0  0  0  0  0
   24.8060   10.8160   31.2700 H   0  0  0  0  0  0  0  0  0  0  0  0
   26.5479   13.0782   33.4698 H   0  0  0  0  0  0  0  0  0  0  0  0
   27.0935   15.2611   34.5169 H   0  0  0  0  0  0  0  0  0  0  0  0
   26.4523   17.4512   35.2726 H   0  0  0  0  0  0  0  0  0  0  0  0
   25.4680   18.5030   37.4250 H   0  0  0  0  0  0  0  0  0  0  0  0
   27.8048   20.1595   37.5015 H   0  0  0  0  0  0  0  0  0  0  0  0
   28.6049   21.9942   38.9836 H   0  0  0  0  0  0  0  0  0  0  0  0
   27.8543   23.3142   41.1916 H   0  0  0  0  0  0  0  0  0  0  0  0
   27.4850   24.4861   39.8653 H   0  0  0  0  0  0  0  0  0  0  0  0
   25.9710   23.8680   42.2530 H   0  0  0  0  0  0  0  0  0  0  0  0
   26.0110   25.2680   41.3580 H   0  0  0  0  0  0  0  0  0  0  0  0
   25.0590   23.9890   40.8800 H   0  0  0  0  0  0  0  0  0  0  0  0
   24.5148   22.8836   40.0639 H   0  0  0  0  0  0  0  0  0  0  0  0
   23.7251   21.0661   38.5630 H   0  0  0  0  0  0  0  0  0  0  0  0
   22.4133   18.8723   34.7638 H   0  0  0  0  0  0  0  0  0  0  0  0
   21.3720   15.9790   32.8120 H   0  0  0  0  0  0  0  0  0  0  0  0
   19.1282   20.3703   34.5192 H   0  0  0  0  0  0  0  0  0  0  0  0
   17.1825   19.5935   33.1902 H   0  0  0  0  0  0  0  0  0  0  0  0
   17.3960   17.3982   32.0520 H   0  0  0  0  0  0  0  0  0  0  0  0
   22.4672   14.3740   32.9211 H   0  0  0  0  0  0  0  0  0  0  0  0
  1  2  1  0
  2  3  2  0
  2  4  1  0
  4  5  2  0
  5  6  1  0
  6  7  2  0
  7  8  1  0
  8  9  2  0
  9 10  1  0
 10 11  2  0
 10 12  1  0
 12 13  1  0
 13 14  2  0
 14 15  1  0
 15 16  2  0
 16 17  1  0
 17 18  1  0
 16 19  1  0
 19 20  2  0
  9 21  1  0
 21 22  2  0
 22 23  1  0
 23 24  1  0
 24 25  2  0
 25 26  1  0
 26 27  2  0
 27 28  1  0
 28 29  2  0
 22 30  1  0
 30 31  2  0
 31  4  1  0
 30  7  1  0
 20 13  1  0
 29 24  1  0
  1 32  1  0
  1 33  1  0
  3 34  1  0
  3 35  1  0
  5 36  1  0
  6 37  1  0
  8 38  1  0
 12 39  1  0
 14 40  1  0
 15 41  1  0
 17 42  1  0
 17 43  1  0
 18 44  1  0
 18 45  1  0
 18 46  1  0
 19 47  1  0
 20 48  1  0
 21 49  1  0
 23 50  1  0
 26 51  1  0
 27 52  1  0
 28 53  1  0
 31 54  1  0
M  CHG  2   3   1  18   1
M  END
>  <meeko>  (6) 
{"is_sidechain": [false], "free_energy": -7.57, "intermolecular_energy": -10.74, "internal_energy": -0.393}

$$$$
1sqa_ligand
     RDKit          3D

 54 57  0  0  0  0  0  0  0  0999 V2000
   24.2590   19.5610   39.1680 N   0  0  0  0  0  0  0  0  0  0  0  0
   24.5270   18.3100   38.8680 C   0  0  0  0  0  0  0  0  0  0  0  0
   24.4600   17.3590   39.7750 N   0  0  0  0  0  0  0  0  0  0  0  0
   24.9060   17.9650   37.4910 C   0  0  0  0  0  0  0  0  0  0  0  0
   26.1310   17.3490   37.2210 C   0  0  0  0  0  0  0  0  0  0  0  0
   26.4900   17.0420   35.9090 C   0  0  0  0  0  0  0  0  0  0  0  0
   25.6360   17.3350   34.8350 C   0  0  0  0  0  0  0  0  0  0  0  0
   26.0350   17.0380   33.5260 C   0  0  0  0  0  0  0  0  0  0  0  0
   25.2120   17.3410   32.4390 C   0  0  0  0  0  0  0  0  0  0  0  0
   25.6910   16.9920   31.0680 C   0  0  0  0  0  0  0  0  0  0  0  0
   24.8510   16.7520   30.2090 O   0  0  0  0  0  0  0  0  0  0  0  0
   27.0650   16.9290   30.9090 N   0  0  0  0  0  0  0  0  0  0  0  0
   27.7660   16.6960   29.7070 C   0  0  0  0  0  0  0  0  0  0  0  0
   28.0840   15.3720   29.3880 C   0  0  0  0  0  0  0  0  0  0  0  0
   28.7850   15.0630   28.2130 C   0  0  0  0  0  0  0  0  0  0  0  0
   29.1950   16.0810   27.3420 C   0  0  0  0  0  0  0  0  0  0  0  0
   29.9150   15.7640   26.0650 C   0  0  0  0  0  0  0  0  0  0  0  0
   31.3720   15.9620   26.2140 N   0  0  0  0  0  0  0  0  0  0  0  0
   28.8810   17.4070   27.6670 C   0  0  0  0  0  0  0  0  0  0  0  0
   28.1750   17.7080   28.8370 C   0  0  0  0  0  0  0  0  0  0  0  0
   23.9580   17.9130   32.6620 C   0  0  0  0  0  0  0  0  0  0  0  0
   23.5130   18.2060   33.9620 C   0  0  0  0  0  0  0  0  0  0  0  0
   22.2570   18.8060   34.1820 N   0  0  0  0  0  0  0  0  0  0  0  0
   20.9580   18.4110   33.8630 C   0  0  0  0  0  0  0  0  0  0  0  0
   19.9780   19.3070   33.6590 N   0  0  0  0  0  0  0  0  0  0  0  0
   18.7500   18.8160   33.3940 C   0  0  0  0  0  0  0  0  0  0  0  0
   18.4660   17.4760   33.3240 C   0  0  0  0  0  0  0  0  0  0  0  0
   19.5290   16.6420   33.5510 C   0  0  0  0  0  0  0  0  0  0  0  0
   20.7720   17.0820   33.8260 N   0  0  0  0  0  0  0  0  0  0  0  0
   24.3760   17.9380   35.0710 C   0  0  0  0  0  0  0  0  0  0  0  0
   24.0460   18.2510   36.4150 C   0  0  0  0  0  0  0  0  0  0  0  0
   24.3420   20.2840   38.4590 H   0  0  0  0  0  0  0  0  0  0  0  0
   23.9890   19.8550   40.0980 H   0  0  0  0  0  0  0  0  0  0  0  0
   24.6450   16.3950   39.5160 H   0  0  0  0  0  0  0  0  0  0  0  0
   24.2000   17.5390   40.7350 H   0  0  0  0  0  0  0  0  0  0  0  0
   26.8151   17.1052   38.0472 H   0  0  0  0  0  0  0  0  0  0  0  0
   27.4599   16.5616   35.7126 H   0  0  0  0  0  0  0  0  0  0  0  0
   27.0100   16.5595   33.3514 H   0  0  0  0  0  0  0  0  0  0  0  0
   27.6290   16.9950   31.7480 H   0  0  0  0  0  0  0  0  0  0  0  0
   27.7803   14.5621   30.0676 H   0  0  0  0  0  0  0  0  0  0  0  0
   29.0144   14.0141   27.9737 H   0  0  0  0  0  0  0  0  0  0  0  0
   29.7205   14.7160   25.7933 H   0  0  0  0  0  0  0  0  0  0  0  0
   29.5484   16.4409   25.2792 H   0  0  0  0  0  0  0  0  0  0  0  0
   31.6770   15.7140   27.1630 H   0  0  0  0  0  0  0  0  0  0  0  0
   31.9030   15.3880   25.5490 H   0  0  0  0  0  0  0  0  0  0  0  0
   31.6230   16.9460   26.0630 H   0  0  0  0  0  0  0  0  0  0  0  0
   29.1928   18.2203   26.9952 H   0  0  0  0  0  0  0  0  0  0  0  0
   27.9392   18.7559   29.0743 H   0  0  0  0  0  0  0  0  0  0  0  0
   23.3068   18.1383   31.8045 H   0  0  0  0  0  0  0  0  0  0  0  0
   22.1890   19.3980   34.9980 H   0  0  0  0  0  0  0  0  0  0  0  0
   17.9306   19.5301   33.2246 H   0  0  0  0  0  0  0  0  0  0  0  0
   17.4572   17.0981   33.1016 H   0  0  0  0  0  0  0  0  0  0  0  0
   19.3584   15.5562   33.5063 H   0  0  0  0  0  0  0  0  0  0  0  0
   23.0809   18.7358   36.6236 H   0  0  0  0  0  0  0  0  0  0  0  0
  1  2  1  0
  2  3  2  0
  2  4  1  0
  4  5  2  0
  5  6  1  0
  6  7  2  0
  7  8  1  0
  8  9  2  0
  9 10  1  0
 10 11  2  0
 10 12  1  0
 12 13  1  0
 13 14  2  0
 14 15  1  0
 15 16  2  0
 16 17  1  0
 17 18  1  0
 16 19  1  0
 19 20  2  0
  9 21  1  0
 21 22  2  0
 22 23  1  0
 23 24  1  0
 24 25  2  0
 25 26  1  0
 26 27  2  0
 27 28  1  0
 28 29  2  0
 22 30  1  0
 30 31  2  0
 31  4  1  0
 30  7  1  0
 20 13  1  0
 29 24  1  0
  1 32  1  0
  1 33  1  0
  3 34  1  0
  3 35  1  0
  5 36  1  0
  6 37  1  0
  8 38  1  0
 12 39  1  0
 14 40  1  0
 15 41  1  0
 17 42  1  0
 17 43  1  0
 18 44  1  0
 18 45  1  0
 18 46  1  0
 19 47  1  0
 20 48  1  0
 21 49  1  0
 23 50  1  0
 26 51  1  0
 27 52  1  0
 28 53  1  0
 31 54  1  0
M  CHG  2   3   1  18   1
M  END
>  <meeko>  (7) 
{"is_sidechain": [false], "free_energy": -7.478, "intermolecular_energy": -10.111, "internal_energy": -0.895}

$$$$
1sqa_ligand
     RDKit          3D

 54 57  0  0  0  0  0  0  0  0999 V2000
   19.0440   20.1940   34.9510 N   0  0  0  0  0  0  0  0  0  0  0  0
   18.6110   19.2830   34.1070 C   0  0  0  0  0  0  0  0  0  0  0  0
   17.3990   19.3450   33.5970 N   0  0  0  0  0  0  0  0  0  0  0  0
   19.4980   18.1760   33.7220 C   0  0  0  0  0  0  0  0  0  0  0  0
   18.9850   16.8960   33.4990 C   0  0  0  0  0  0  0  0  0  0  0  0
   19.8370   15.8480   33.1520 C   0  0  0  0  0  0  0  0  0  0  0  0
   21.2190   16.0510   33.0130 C   0  0  0  0  0  0  0  0  0  0  0  0
   22.0520   14.9750   32.6880 C   0  0  0  0  0  0  0  0  0  0  0  0
   23.4330   15.1460   32.5670 C   0  0  0  0  0  0  0  0  0  0  0  0
   24.2670   13.9600   32.2110 C   0  0  0  0  0  0  0  0  0  0  0  0
   24.9030   13.9970   31.1650 O   0  0  0  0  0  0  0  0  0  0  0  0
   24.2060   12.8950   33.0940 N   0  0  0  0  0  0  0  0  0  0  0  0
   24.9500   11.6980   33.0270 C   0  0  0  0  0  0  0  0  0  0  0  0
   26.3120   11.7980   32.7250 C   0  0  0  0  0  0  0  0  0  0  0  0
   27.1150   10.6520   32.6360 C   0  0  0  0  0  0  0  0  0  0  0  0
   26.5620    9.3800   32.8330 C   0  0  0  0  0  0  0  0  0  0  0  0
   27.4160    8.1480   32.7730 C   0  0  0  0  0  0  0  0  0  0  0  0
   28.8190    8.4890   32.4590 N   0  0  0  0  0  0  0  0  0  0  0  0
   25.1970    9.2820   33.1280 C   0  0  0  0  0  0  0  0  0  0  0  0
   24.4020   10.4300   33.2230 C   0  0  0  0  0  0  0  0  0  0  0  0
   23.9860   16.4170   32.7340 C   0  0  0  0  0  0  0  0  0  0  0  0
   23.1810   17.5270   33.0390 C   0  0  0  0  0  0  0  0  0  0  0  0
   23.7450   18.8040   33.2310 N   0  0  0  0  0  0  0  0  0  0  0  0
   25.0580   19.2680   33.1850 C   0  0  0  0  0  0  0  0  0  0  0  0
   25.7630   19.5070   34.3040 N   0  0  0  0  0  0  0  0  0  0  0  0
   27.0120   19.9910   34.1460 C   0  0  0  0  0  0  0  0  0  0  0  0
   27.5810   20.2420   32.9230 C   0  0  0  0  0  0  0  0  0  0  0  0
   26.7830   19.9700   31.8420 C   0  0  0  0  0  0  0  0  0  0  0  0
   25.5280   19.4930   31.9470 N   0  0  0  0  0  0  0  0  0  0  0  0
   21.7730   17.3410   33.2090 C   0  0  0  0  0  0  0  0  0  0  0  0
   20.8810   18.3820   33.5750 C   0  0  0  0  0  0  0  0  0  0  0  0
   19.9740   20.1130   35.3530 H   0  0  0  0  0  0  0  0  0  0  0  0
   18.4780   20.9780   35.2470 H   0  0  0  0  0  0  0  0  0  0  0  0
   17.0930   18.6460   32.9270 H   0  0  0  0  0  0  0  0  0  0  0  0
   16.7490   20.0850   33.8240 H   0  0  0  0  0  0  0  0  0  0  0  0
   17.9046   16.7140   33.5975 H   0  0  0  0  0  0  0  0  0  0  0  0
   19.4187   14.8446   32.9842 H   0  0  0  0  0  0  0  0  0  0  0  0
   21.6129   13.9796   32.5254 H   0  0  0  0  0  0  0  0  0  0  0  0
   23.5130   12.9480   33.8320 H   0  0  0  0  0  0  0  0  0  0  0  0
   26.7590   12.7886   32.5551 H   0  0  0  0  0  0  0  0  0  0  0  0
   28.1868   10.7524   32.4099 H   0  0  0  0  0  0  0  0  0  0  0  0
   27.3795    7.6376   33.7467 H   0  0  0  0  0  0  0  0  0  0  0  0
   27.0292    7.4927   31.9787 H   0  0  0  0  0  0  0  0  0  0  0  0
   29.1420    9.2700   33.0420 H   0  0  0  0  0  0  0  0  0  0  0  0
   29.4480    7.6920   32.6160 H   0  0  0  0  0  0  0  0  0  0  0  0
   28.9110    8.7840   31.4800 H   0  0  0  0  0  0  0  0  0  0  0  0
   24.7444    8.2921   33.2868 H   0  0  0  0  0  0  0  0  0  0  0  0
   23.3313   10.3312   33.4552 H   0  0  0  0  0  0  0  0  0  0  0  0
   25.0722   16.5517   32.6247 H   0  0  0  0  0  0  0  0  0  0  0  0
   23.1510   19.5870   32.9950 H   0  0  0  0  0  0  0  0  0  0  0  0
   27.6076   20.1959   35.0478 H   0  0  0  0  0  0  0  0  0  0  0  0
   28.6036   20.6332   32.8175 H   0  0  0  0  0  0  0  0  0  0  0  0
   27.1892   20.1509   30.8359 H   0  0  0  0  0  0  0  0  0  0  0  0
   21.2872   19.3891   33.7505 H   0  0  0  0  0  0  0  0  0  0  0  0
  1  2  1  0
  2  3  2  0
  2  4  1  0
  4  5  2  0
  5  6  1  0
  6  7  2  0
  7  8  1  0
  8  9  2  0
  9 10  1  0
 10 11  2  0
 10 12  1  0
 12 13  1  0
 13 14  2  0
 14 15  1  0
 15 16  2  0
 16 17  1  0
 17 18  1  0
 16 19  1  0
 19 20  2  0
  9 21  1  0
 21 22  2  0
 22 23  1  0
 23 24  1  0
 24 25  2  0
 25 26  1  0
 26 27  2  0
 27 28  1  0
 28 29  2  0
 22 30  1  0
 30 31  2  0
 31  4  1  0
 30  7  1  0
 20 13  1  0
 29 24  1  0
  1 32  1  0
  1 33  1  0
  3 34  1  0
  3 35  1  0
  5 36  1  0
  6 37  1  0
  8 38  1  0
 12 39  1  0
 14 40  1  0
 15 41  1  0
 17 42  1  0
 17 43  1  0
 18 44  1  0
 18 45  1  0
 18 46  1  0
 19 47  1  0
 20 48  1  0
 21 49  1  0
 23 50  1  0
 26 51  1  0
 27 52  1  0
 28 53  1  0
 31 54  1  0
M  CHG  2   3   1  18   1
M  END
>  <meeko>  (8) 
{"is_sidechain": [false], "free_energy": -7.382, "intermolecular_energy": -10.29, "internal_energy": -0.583}

$$$$
1sqa_ligand
     RDKit          3D

 54 57  0  0  0  0  0  0  0  0999 V2000
   24.0260    9.8310   35.1970 N   0  0  0  0  0  0  0  0  0  0  0  0
   23.4120   10.4610   34.2190 C   0  0  0  0  0  0  0  0  0  0  0  0
   22.2690   10.0230   33.7360 N   0  0  0  0  0  0  0  0  0  0  0  0
   24.0110   11.6800   33.6580 C   0  0  0  0  0  0  0  0  0  0  0  0
   25.3490   11.6960   33.2570 C   0  0  0  0  0  0  0  0  0  0  0  0
   25.9150   12.8630   32.7430 C   0  0  0  0  0  0  0  0  0  0  0  0
   25.1600   14.0390   32.6110 C   0  0  0  0  0  0  0  0  0  0  0  0
   25.7610   15.2020   32.1160 C   0  0  0  0  0  0  0  0  0  0  0  0
   25.0370   16.3900   31.9960 C   0  0  0  0  0  0  0  0  0  0  0  0
   25.7330   17.5940   31.4540 C   0  0  0  0  0  0  0  0  0  0  0  0
   25.4810   17.9350   30.3050 O   0  0  0  0  0  0  0  0  0  0  0  0
   26.6480   18.1940   32.3040 N   0  0  0  0  0  0  0  0  0  0  0  0
   27.3760   19.3780   32.0610 C   0  0  0  0  0  0  0  0  0  0  0  0
   28.5430   19.2770   31.2980 C   0  0  0  0  0  0  0  0  0  0  0  0
   29.3220   20.4090   31.0210 C   0  0  0  0  0  0  0  0  0  0  0  0
   28.9520   21.6660   31.5180 C   0  0  0  0  0  0  0  0  0  0  0  0
   29.7560   22.8910   31.2010 C   0  0  0  0  0  0  0  0  0  0  0  0
   29.6570   23.2360   29.7670 N   0  0  0  0  0  0  0  0  0  0  0  0
   27.7860   21.7640   32.2880 C   0  0  0  0  0  0  0  0  0  0  0  0
   27.0090   20.6310   32.5550 C   0  0  0  0  0  0  0  0  0  0  0  0
   23.6840   16.4090   32.3400 C   0  0  0  0  0  0  0  0  0  0  0  0
   23.0390   15.2580   32.8210 C   0  0  0  0  0  0  0  0  0  0  0  0
   21.6790   15.2870   33.1890 N   0  0  0  0  0  0  0  0  0  0  0  0
   20.7480   16.3210   33.2660 C   0  0  0  0  0  0  0  0  0  0  0  0
   20.8380   17.2850   34.1980 N   0  0  0  0  0  0  0  0  0  0  0  0
   19.8620   18.2170   34.2080 C   0  0  0  0  0  0  0  0  0  0  0  0
   18.8090   18.2230   33.3290 C   0  0  0  0  0  0  0  0  0  0  0  0
   18.8020   17.1980   32.4190 C   0  0  0  0  0  0  0  0  0  0  0  0
   19.7480   16.2400   32.3730 N   0  0  0  0  0  0  0  0  0  0  0  0
   23.7930   14.0540   32.9860 C   0  0  0  0  0  0  0  0  0  0  0  0
   23.2520   12.8550   33.5190 C   0  0  0  0  0  0  0  0  0  0  0  0
   24.9210   10.1710   35.5380 H   0  0  0  0  0  0  0  0  0  0  0  0
   23.6580    8.9900   35.6220 H   0  0  0  0  0  0  0  0  0  0  0  0
   21.7980   10.5400   32.9990 H   0  0  0  0  0  0  0  0  0  0  0  0
   21.8100    9.1940   34.0860 H   0  0  0  0  0  0  0  0  0  0  0  0
   25.9588   10.7849   33.3468 H   0  0  0  0  0  0  0  0  0  0  0  0
   26.9712   12.8615   32.4358 H   0  0  0  0  0  0  0  0  0  0  0  0
   26.8194   15.1799   31.8171 H   0  0  0  0  0  0  0  0  0  0  0  0
   26.8670   17.7050   33.1640 H   0  0  0  0  0  0  0  0  0  0  0  0
   28.8542   18.2960   30.9097 H   0  0  0  0  0  0  0  0  0  0  0  0
   30.2306   20.3099   30.4089 H   0  0  0  0  0  0  0  0  0  0  0  0
   29.3791   23.7331   31.8000 H   0  0  0  0  0  0  0  0  0  0  0  0
   30.8105   22.6883   31.4397 H   0  0  0  0  0  0  0  0  0  0  0  0
   30.5100   23.7110   29.4480 H   0  0  0  0  0  0  0  0  0  0  0  0
   29.5200   22.4010   29.1850 H   0  0  0  0  0  0  0  0  0  0  0  0
   28.8730   23.8780   29.6010 H   0  0  0  0  0  0  0  0  0  0  0  0
   27.4778   22.7417   32.6870 H   0  0  0  0  0  0  0  0  0  0  0  0
   26.0970   20.7291   33.1622 H   0  0  0  0  0  0  0  0  0  0  0  0
   23.1127   17.3428   32.2323 H   0  0  0  0  0  0  0  0  0  0  0  0
   21.1580   14.4380   33.0150 H   0  0  0  0  0  0  0  0  0  0  0  0
   19.9138   19.0157   34.9625 H   0  0  0  0  0  0  0  0  0  0  0  0
   18.0260   18.9953   33.3527 H   0  0  0  0  0  0  0  0  0  0  0  0
   17.9811   17.1554   31.6881 H   0  0  0  0  0  0  0  0  0  0  0  0
   22.1985   12.8448   33.8354 H   0  0  0  0  0  0  0  0  0  0  0  0
  1  2  1  0
  2  3  2  0
  2  4  1  0
  4  5  2  0
  5  6  1  0
  6  7  2  0
  7  8  1  0
  8  9  2  0
  9 10  1  0
 10 11  2  0
 10 12  1  0
 12 13  1  0
 13 14  2  0
 14 15  1  0
 15 16  2  0
 16 17  1  0
 17 18  1  0
 16 19  1  0
 19 20  2  0
  9 21  1  0
 21 22  2  0
 22 23  1  0
 23 24  1  0
 24 25  2  0
 25 26  1  0
 26 27  2  0
 27 28  1  0
 28 29  2  0
 22 30  1  0
 30 31  2  0
 31  4  1  0
 30  7  1  0
 20 13  1  0
 29 24  1  0
  1 32  1  0
  1 33  1  0
  3 34  1  0
  3 35  1  0
  5 36  1  0
  6 37  1  0
  8 38  1  0
 12 39  1  0
 14 40  1  0
 15 41  1  0
 17 42  1  0
 17 43  1  0
 18 44  1  0
 18 45  1  0
 18 46  1  0
 19 47  1  0
 20 48  1  0
 21 49  1  0
 23 50  1  0
 26 51  1  0
 27 52  1  0
 28 53  1  0
 31 54  1  0
M  CHG  2   3   1  18   1
M  END
>  <meeko>  (9) 
{"is_sidechain": [false], "free_energy": -7.272, "intermolecular_energy": -9.891, "internal_energy": -0.831}

$$$$
