3coy_ligand
     RDKit          3D

 57 59  0  0  0  0  0  0  0  0999 V2000
   13.7100    9.8850    8.0620 C   0  0  0  0  0  0  0  0  0  0  0  0
   14.3020    8.8790    7.0500 C   0  0  0  0  0  0  0  0  0  0  0  0
   14.0410    7.4620    7.6090 C   0  0  0  0  0  0  0  0  0  0  0  0
   13.5410    9.0310    5.7190 C   0  0  0  0  0  0  0  0  0  0  0  0
   15.8320    9.1190    6.8940 C   0  0  1  0  0  0  0  0  0  0  0  0
   16.6180    7.9000    7.3180 N   0  0  0  0  0  0  0  0  0  0  0  0
   16.2460    9.5410    5.4630 C   0  0  0  0  0  0  0  0  0  0  0  0
   16.5820    8.6880    4.6470 O   0  0  0  0  0  0  0  0  0  0  0  0
   16.2850   10.9130    5.2020 N   0  0  0  0  0  0  0  0  0  0  0  0
   16.4460   11.5610    3.6820 S   0  0  0  0  0  0  0  0  0  0  0  0
   17.8270   11.3210    3.3320 O   0  0  0  0  0  0  0  0  0  0  0  0
   15.9000   12.8950    3.7350 O   0  0  0  0  0  0  0  0  0  0  0  0
   15.4900   10.6560    2.7400 O   0  0  0  0  0  0  0  0  0  0  0  0
   14.4520   11.3040    2.0140 C   0  0  0  0  0  0  0  0  0  0  0  0
   13.2860   10.3400    1.7530 C   0  0  1  0  0  0  0  0  0  0  0  0
   12.8800   10.4550    0.3700 O   0  0  0  0  0  0  0  0  0  0  0  0
   13.3570    9.3100   -0.3590 C   0  0  1  0  0  0  0  0  0  0  0  0
   14.1440    9.7290   -1.5170 N   0  0  0  0  0  0  0  0  0  0  0  0
   15.3670   10.3630   -1.4180 C   0  0  0  0  0  0  0  0  0  0  0  0
   15.8120   10.7830   -2.5860 N   0  0  0  0  0  0  0  0  0  0  0  0
   14.8970   10.2800   -3.4860 C   0  0  0  0  0  0  0  0  0  0  0  0
   14.8210   10.4100   -4.8810 C   0  0  0  0  0  0  0  0  0  0  0  0
   15.7990   11.1050   -5.6200 N   0  0  0  0  0  0  0  0  0  0  0  0
   13.7230    9.9760   -5.5190 N   0  0  0  0  0  0  0  0  0  0  0  0
   12.7700    9.3510   -4.7870 C   0  0  0  0  0  0  0  0  0  0  0  0
   12.7400    9.1770   -3.4550 N   0  0  0  0  0  0  0  0  0  0  0  0
   13.8350    9.6640   -2.8510 C   0  0  0  0  0  0  0  0  0  0  0  0
   14.1780    8.4480    0.6140 C   0  0  2  0  0  0  0  0  0  0  0  0
   14.0190    7.0460    0.3890 O   0  0  0  0  0  0  0  0  0  0  0  0
   13.6260    8.8670    1.9620 C   0  0  2  0  0  0  0  0  0  0  0  0
   12.4220    8.1380    2.2370 O   0  0  0  0  0  0  0  0  0  0  0  0
   13.9140    9.5383    9.0858 H   0  0  0  0  0  0  0  0  0  0  0  0
   14.1713   10.8720    7.9104 H   0  0  0  0  0  0  0  0  0  0  0  0
   12.6232    9.9610    7.9104 H   0  0  0  0  0  0  0  0  0  0  0  0
   14.0470    7.4947    8.7085 H   0  0  0  0  0  0  0  0  0  0  0  0
   13.0618    7.1041    7.2582 H   0  0  0  0  0  0  0  0  0  0  0  0
   14.8284    6.7787    7.2582 H   0  0  0  0  0  0  0  0  0  0  0  0
   12.4813    9.2427    5.9246 H   0  0  0  0  0  0  0  0  0  0  0  0
   13.9751    9.8602    5.1411 H   0  0  0  0  0  0  0  0  0  0  0  0
   13.6233    8.0987    5.1411 H   0  0  0  0  0  0  0  0  0  0  0  0
   16.0712    9.9617    7.5593 H   0  0  0  0  0  0  0  0  0  0  0  0
   17.5360    7.7810    6.8820 H   0  0  0  0  0  0  0  0  0  0  0  0
   16.7710    7.8950    8.3470 H   0  0  0  0  0  0  0  0  0  0  0  0
   16.0640    7.0380    7.1490 H   0  0  0  0  0  0  0  0  0  0  0  0
   16.0490   11.6310    5.8810 H   0  0  0  0  0  0  0  0  0  0  0  0
   14.0866   12.1628    2.5961 H   0  0  0  0  0  0  0  0  0  0  0  0
   14.8547   11.6405    1.0472 H   0  0  0  0  0  0  0  0  0  0  0  0
   12.5067   10.6263    2.4746 H   0  0  0  0  0  0  0  0  0  0  0  0
   12.5172    8.7185   -0.7525 H   0  0  0  0  0  0  0  0  0  0  0  0
   15.9090   10.5020   -0.4710 H   0  0  0  0  0  0  0  0  0  0  0  0
   15.4440   11.2040   -6.5780 H   0  0  0  0  0  0  0  0  0  0  0  0
   15.8530   12.0340   -5.1890 H   0  0  0  0  0  0  0  0  0  0  0  0
   11.9202    8.9369   -5.3495 H   0  0  0  0  0  0  0  0  0  0  0  0
   15.2619    8.6028    0.5077 H   0  0  0  0  0  0  0  0  0  0  0  0
   14.6830    6.5830    0.9370 H   0  0  0  0  0  0  0  0  0  0  0  0
   14.3223    8.6870    2.7943 H   0  0  0  0  0  0  0  0  0  0  0  0
   12.5140    7.7270    3.1180 H   0  0  0  0  0  0  0  0  0  0  0  0
  1  2  1  0
  2  3  1  0
  2  4  1  0
  2  5  1  0
  5  6  1  0
  5  7  1  0
  7  8  2  0
  7  9  1  0
  9 10  1  0
 10 11  2  0
 10 12  2  0
 10 13  1  0
 13 14  1  0
 14 15  1  0
 15 16  1  0
 16 17  1  0
 17 18  1  0
 18 19  1  0
 19 20  2  0
 20 21  1  0
 21 22  2  0
 22 23  1  0
 22 24  1  0
 24 25  2  0
 25 26  1  0
 26 27  2  0
 17 28  1  0
 28 29  1  0
 28 30  1  0
 30 31  1  0
 30 15  1  0
 27 18  1  0
 27 21  1  0
  1 32  1  0
  1 33  1  0
  1 34  1  0
  3 35  1  0
  3 36  1  0
  3 37  1  0
  4 38  1  0
  4 39  1  0
  4 40  1  0
  5 41  1  1
  6 42  1  0
  6 43  1  0
  6 44  1  0
  9 45  1  0
 14 46  1  0
 14 47  1  0
 15 48  1  1
 17 49  1  6
 19 50  1  0
 23 51  1  0
 23 52  1  0
 25 53  1  0
 28 54  1  1
 29 55  1  0
 30 56  1  1
 31 57  1  0
M  CHG  1   6   1
M  END
>  <meeko>  (1) 
{"is_sidechain": [false], "free_energy": -9.713, "intermolecular_energy": -14.823, "internal_energy": -0.838}

$$$$
3coy_ligand
     RDKit          3D

 57 59  0  0  0  0  0  0  0  0999 V2000
   21.4210   10.2840    0.5930 C   0  0  0  0  0  0  0  0  0  0  0  0
   20.8340   11.5630    1.2320 C   0  0  0  0  0  0  0  0  0  0  0  0
   20.7170   11.3030    2.7500 C   0  0  0  0  0  0  0  0  0  0  0  0
   21.8300   12.7160    1.0050 C   0  0  0  0  0  0  0  0  0  0  0  0
   19.4290   11.8620    0.6290 C   0  0  1  0  0  0  0  0  0  0  0  0
   19.3300   11.3550   -0.7910 N   0  0  0  0  0  0  0  0  0  0  0  0
   18.2630   11.2930    1.4730 C   0  0  0  0  0  0  0  0  0  0  0  0
   17.9850   10.1000    1.4070 O   0  0  0  0  0  0  0  0  0  0  0  0
   17.5280   12.2140    2.2240 N   0  0  0  0  0  0  0  0  0  0  0  0
   16.4200   11.7860    3.3850 S   0  0  0  0  0  0  0  0  0  0  0  0
   15.7950   13.0320    3.7620 O   0  0  0  0  0  0  0  0  0  0  0  0
   17.1160   10.9660    4.3460 O   0  0  0  0  0  0  0  0  0  0  0  0
   15.3420   10.8600    2.6100 O   0  0  0  0  0  0  0  0  0  0  0  0
   14.1920   11.4860    2.0540 C   0  0  0  0  0  0  0  0  0  0  0  0
   13.0910   10.4530    1.7740 C   0  0  1  0  0  0  0  0  0  0  0  0
   12.7170   10.5300    0.3790 O   0  0  0  0  0  0  0  0  0  0  0  0
   13.2790    9.4060   -0.3220 C   0  0  1  0  0  0  0  0  0  0  0  0
   14.0720    9.8570   -1.4640 N   0  0  0  0  0  0  0  0  0  0  0  0
   15.2150   10.6230   -1.3430 C   0  0  0  0  0  0  0  0  0  0  0  0
   15.6680   11.0380   -2.5100 N   0  0  0  0  0  0  0  0  0  0  0  0
   14.8560   10.4000   -3.4230 C   0  0  0  0  0  0  0  0  0  0  0  0
   14.8350   10.4600   -4.8240 C   0  0  0  0  0  0  0  0  0  0  0  0
   15.7670   11.2240   -5.5540 N   0  0  0  0  0  0  0  0  0  0  0  0
   13.8210    9.8810   -5.4870 N   0  0  0  0  0  0  0  0  0  0  0  0
   12.9060    9.1890   -4.7680 C   0  0  0  0  0  0  0  0  0  0  0  0
   12.8300    9.0720   -3.4320 N   0  0  0  0  0  0  0  0  0  0  0  0
   13.8370    9.7010   -2.8050 C   0  0  0  0  0  0  0  0  0  0  0  0
   14.1220    8.6040    0.6830 C   0  0  2  0  0  0  0  0  0  0  0  0
   14.0500    7.1920    0.4720 O   0  0  0  0  0  0  0  0  0  0  0  0
   13.5090    9.0050    2.0110 C   0  0  2  0  0  0  0  0  0  0  0  0
   12.3420    8.2100    2.2620 O   0  0  0  0  0  0  0  0  0  0  0  0
   21.7391    9.5909    1.3857 H   0  0  0  0  0  0  0  0  0  0  0  0
   20.6546    9.8008   -0.0307 H   0  0  0  0  0  0  0  0  0  0  0  0
   22.2871   10.5501   -0.0307 H   0  0  0  0  0  0  0  0  0  0  0  0
   21.1075   12.1708    3.3018 H   0  0  0  0  0  0  0  0  0  0  0  0
   19.6610   11.1451    3.0146 H   0  0  0  0  0  0  0  0  0  0  0  0
   21.2991   10.4080    3.0146 H   0  0  0  0  0  0  0  0  0  0  0  0
   22.1670   13.1061    1.9767 H   0  0  0  0  0  0  0  0  0  0  0  0
   22.6968   12.3455    0.4381 H   0  0  0  0  0  0  0  0  0  0  0  0
   21.3375   13.5197    0.4381 H   0  0  0  0  0  0  0  0  0  0  0  0
   19.3274   12.9573    0.6380 H   0  0  0  0  0  0  0  0  0  0  0  0
   20.2150   11.1340   -1.2550 H   0  0  0  0  0  0  0  0  0  0  0  0
   18.7430   10.4960   -0.8400 H   0  0  0  0  0  0  0  0  0  0  0  0
   18.8140   12.0360   -1.3820 H   0  0  0  0  0  0  0  0  0  0  0  0
   17.7210   13.2110    2.2560 H   0  0  0  0  0  0  0  0  0  0  0  0
   13.8112   12.2358    2.7631 H   0  0  0  0  0  0  0  0  0  0  0  0
   14.4753   11.9654    1.1054 H   0  0  0  0  0  0  0  0  0  0  0  0
   12.2768   10.7010    2.4708 H   0  0  0  0  0  0  0  0  0  0  0  0
   12.4855    8.7623   -0.7294 H   0  0  0  0  0  0  0  0  0  0  0  0
   15.6936   10.8602   -0.3814 H   0  0  0  0  0  0  0  0  0  0  0  0
   16.3540   11.7210   -4.8740 H   0  0  0  0  0  0  0  0  0  0  0  0
   16.3460   10.5380   -6.0530 H   0  0  0  0  0  0  0  0  0  0  0  0
   12.1338    8.6603   -5.3460 H   0  0  0  0  0  0  0  0  0  0  0  0
   15.1976    8.8204    0.6032 H   0  0  0  0  0  0  0  0  0  0  0  0
   14.6200    6.7650    1.1410 H   0  0  0  0  0  0  0  0  0  0  0  0
   14.1906    8.8750    2.8646 H   0  0  0  0  0  0  0  0  0  0  0  0
   12.3840    7.4240    1.6830 H   0  0  0  0  0  0  0  0  0  0  0  0
  1  2  1  0
  2  3  1  0
  2  4  1  0
  2  5  1  0
  5  6  1  0
  5  7  1  0
  7  8  2  0
  7  9  1  0
  9 10  1  0
 10 11  2  0
 10 12  2  0
 10 13  1  0
 13 14  1  0
 14 15  1  0
 15 16  1  0
 16 17  1  0
 17 18  1  0
 18 19  1  0
 19 20  2  0
 20 21  1  0
 21 22  2  0
 22 23  1  0
 22 24  1  0
 24 25  2  0
 25 26  1  0
 26 27  2  0
 17 28  1  0
 28 29  1  0
 28 30  1  0
 30 31  1  0
 30 15  1  0
 27 18  1  0
 27 21  1  0
  1 32  1  0
  1 33  1  0
  1 34  1  0
  3 35  1  0
  3 36  1  0
  3 37  1  0
  4 38  1  0
  4 39  1  0
  4 40  1  0
  5 41  1  6
  6 42  1  0
  6 43  1  0
  6 44  1  0
  9 45  1  0
 14 46  1  0
 14 47  1  0
 15 48  1  1
 17 49  1  6
 19 50  1  0
 23 51  1  0
 23 52  1  0
 25 53  1  0
 28 54  1  1
 29 55  1  0
 30 56  1  1
 31 57  1  0
M  CHG  1   6   1
M  END
>  <meeko>  (2) 
{"is_sidechain": [false], "free_energy": -9.131, "intermolecular_energy": -13.88, "internal_energy": -0.893}

$$$$
3coy_ligand
     RDKit          3D

 57 59  0  0  0  0  0  0  0  0999 V2000
   14.4150   10.7730    7.2210 C   0  0  0  0  0  0  0  0  0  0  0  0
   15.0140   10.0010    6.0240 C   0  0  0  0  0  0  0  0  0  0  0  0
   13.9830    8.9270    5.6110 C   0  0  0  0  0  0  0  0  0  0  0  0
   15.1920   10.9880    4.8550 C   0  0  0  0  0  0  0  0  0  0  0  0
   16.3530    9.3250    6.4440 C   0  0  1  0  0  0  0  0  0  0  0  0
   16.1030    8.1550    7.3670 N   0  0  0  0  0  0  0  0  0  0  0  0
   17.2170    8.8720    5.2420 C   0  0  0  0  0  0  0  0  0  0  0  0
   16.6770    8.5440    4.1900 O   0  0  0  0  0  0  0  0  0  0  0  0
   18.5940    8.7890    5.4590 N   0  0  0  0  0  0  0  0  0  0  0  0
   19.7100    8.5790    4.2470 S   0  0  0  0  0  0  0  0  0  0  0  0
   19.5330    7.2090    3.8260 O   0  0  0  0  0  0  0  0  0  0  0  0
   20.9730    9.0580    4.7530 O   0  0  0  0  0  0  0  0  0  0  0  0
   19.2280    9.5700    3.0610 O   0  0  0  0  0  0  0  0  0  0  0  0
   19.8460   10.8470    2.9570 C   0  0  0  0  0  0  0  0  0  0  0  0
   20.4110   11.0670    1.5470 C   0  0  1  0  0  0  0  0  0  0  0  0
   19.5530   10.4070    0.5880 O   0  0  0  0  0  0  0  0  0  0  0  0
   18.7640   11.3960   -0.0970 C   0  0  1  0  0  0  0  0  0  0  0  0
   17.3410   11.0790    0.0050 N   0  0  0  0  0  0  0  0  0  0  0  0
   16.7020   10.8260    1.2030 C   0  0  0  0  0  0  0  0  0  0  0  0
   15.4610   10.4120    1.0330 N   0  0  0  0  0  0  0  0  0  0  0  0
   15.2580   10.5330   -0.3250 C   0  0  0  0  0  0  0  0  0  0  0  0
   14.1380   10.2250   -1.1120 C   0  0  0  0  0  0  0  0  0  0  0  0
   12.9380    9.7470   -0.5490 N   0  0  0  0  0  0  0  0  0  0  0  0
   14.2500   10.2600   -2.4490 N   0  0  0  0  0  0  0  0  0  0  0  0
   15.4250   10.6780   -2.9770 C   0  0  0  0  0  0  0  0  0  0  0  0
   16.5550   10.9900   -2.3190 N   0  0  0  0  0  0  0  0  0  0  0  0
   16.4140   10.9000   -0.9880 C   0  0  0  0  0  0  0  0  0  0  0  0
   19.0950   12.7660    0.5190 C   0  0  2  0  0  0  0  0  0  0  0  0
   19.1080   13.8230   -0.4430 O   0  0  0  0  0  0  0  0  0  0  0  0
   20.4700   12.5290    1.1120 C   0  0  2  0  0  0  0  0  0  0  0  0
   21.4670   12.6790    0.0920 O   0  0  0  0  0  0  0  0  0  0  0  0
   14.7654   10.3215    8.1609 H   0  0  0  0  0  0  0  0  0  0  0  0
   14.7362   11.8241    7.1771 H   0  0  0  0  0  0  0  0  0  0  0  0
   13.3170   10.7230    7.1771 H   0  0  0  0  0  0  0  0  0  0  0  0
   13.5463    8.4721    6.5123 H   0  0  0  0  0  0  0  0  0  0  0  0
   13.1864    9.3941    5.0133 H   0  0  0  0  0  0  0  0  0  0  0  0
   14.4822    8.1501    5.0133 H   0  0  0  0  0  0  0  0  0  0  0  0
   15.3741   11.9976    5.2520 H   0  0  0  0  0  0  0  0  0  0  0  0
   16.0484   10.6762    4.2391 H   0  0  0  0  0  0  0  0  0  0  0  0
   14.2806   10.9951    4.2391 H   0  0  0  0  0  0  0  0  0  0  0  0
   16.9244   10.0995    6.9766 H   0  0  0  0  0  0  0  0  0  0  0  0
   15.6660    7.3320    6.9450 H   0  0  0  0  0  0  0  0  0  0  0  0
   16.9900    7.8330    7.8070 H   0  0  0  0  0  0  0  0  0  0  0  0
   15.5240    8.4530    8.1760 H   0  0  0  0  0  0  0  0  0  0  0  0
   19.0510    9.0170    6.3370 H   0  0  0  0  0  0  0  0  0  0  0  0
   19.1006   11.6268    3.1723 H   0  0  0  0  0  0  0  0  0  0  0  0
   20.6736   10.8976    3.6799 H   0  0  0  0  0  0  0  0  0  0  0  0
   21.4361   10.6693    1.5797 H   0  0  0  0  0  0  0  0  0  0  0  0
   19.0024   11.4115   -1.1708 H   0  0  0  0  0  0  0  0  0  0  0  0
   17.1746   10.9551    2.1879 H   0  0  0  0  0  0  0  0  0  0  0  0
   12.3690    9.3700   -1.3150 H   0  0  0  0  0  0  0  0  0  0  0  0
   13.2180    8.9750    0.0670 H   0  0  0  0  0  0  0  0  0  0  0  0
   15.4587   10.7734   -4.0723 H   0  0  0  0  0  0  0  0  0  0  0  0
   18.3431   13.0958    1.2511 H   0  0  0  0  0  0  0  0  0  0  0  0
   18.1860   13.9680   -0.7330 H   0  0  0  0  0  0  0  0  0  0  0  0
   20.7198   13.2240    1.9272 H   0  0  0  0  0  0  0  0  0  0  0  0
   21.0090   12.8630   -0.7510 H   0  0  0  0  0  0  0  0  0  0  0  0
  1  2  1  0
  2  3  1  0
  2  4  1  0
  2  5  1  0
  5  6  1  0
  5  7  1  0
  7  8  2  0
  7  9  1  0
  9 10  1  0
 10 11  2  0
 10 12  2  0
 10 13  1  0
 13 14  1  0
 14 15  1  0
 15 16  1  0
 16 17  1  0
 17 18  1  0
 18 19  1  0
 19 20  2  0
 20 21  1  0
 21 22  2  0
 22 23  1  0
 22 24  1  0
 24 25  2  0
 25 26  1  0
 26 27  2  0
 17 28  1  0
 28 29  1  0
 28 30  1  0
 30 31  1  0
 30 15  1  0
 27 18  1  0
 27 21  1  0
  1 32  1  0
  1 33  1  0
  1 34  1  0
  3 35  1  0
  3 36  1  0
  3 37  1  0
  4 38  1  0
  4 39  1  0
  4 40  1  0
  5 41  1  1
  6 42  1  0
  6 43  1  0
  6 44  1  0
  9 45  1  0
 14 46  1  0
 14 47  1  0
 15 48  1  1
 17 49  1  6
 19 50  1  0
 23 51  1  0
 23 52  1  0
 25 53  1  0
 28 54  1  1
 29 55  1  0
 30 56  1  1
 31 57  1  0
M  CHG  1   6   1
M  END
>  <meeko>  (3) 
{"is_sidechain": [false], "free_energy": -8.846, "intermolecular_energy": -13.732, "internal_energy": -0.605}

$$$$
3coy_ligand
     RDKit          3D

 57 59  0  0  0  0  0  0  0  0999 V2000
   13.2210   11.0090   -0.8160 C   0  0  0  0  0  0  0  0  0  0  0  0
   14.2160    9.9570   -0.2770 C   0  0  0  0  0  0  0  0  0  0  0  0
   14.3910    8.8880   -1.3790 C   0  0  0  0  0  0  0  0  0  0  0  0
   15.5710   10.6510   -0.0440 C   0  0  0  0  0  0  0  0  0  0  0  0
   13.6500    9.3040    1.0180 C   0  0  1  0  0  0  0  0  0  0  0  0
   14.0730    7.8570    1.1250 N   0  0  0  0  0  0  0  0  0  0  0  0
   14.0380   10.0620    2.3100 C   0  0  0  0  0  0  0  0  0  0  0  0
   13.6060   11.1930    2.5100 O   0  0  0  0  0  0  0  0  0  0  0  0
   14.9450    9.4240    3.1600 N   0  0  0  0  0  0  0  0  0  0  0  0
   15.2880    9.9390    4.7020 S   0  0  0  0  0  0  0  0  0  0  0  0
   13.9990   10.0310    5.3460 O   0  0  0  0  0  0  0  0  0  0  0  0
   16.1550   11.0860    4.5770 O   0  0  0  0  0  0  0  0  0  0  0  0
   16.1350    8.7310    5.3660 O   0  0  0  0  0  0  0  0  0  0  0  0
   17.5250    8.9260    5.5910 C   0  0  0  0  0  0  0  0  0  0  0  0
   18.3530    7.8750    4.8380 C   0  0  1  0  0  0  0  0  0  0  0  0
   18.3690    8.2080    3.4310 O   0  0  0  0  0  0  0  0  0  0  0  0
   19.6530    8.7610    3.0920 C   0  0  1  0  0  0  0  0  0  0  0  0
   19.4980   10.0660    2.4530 N   0  0  0  0  0  0  0  0  0  0  0  0
   19.3200   11.2420    3.1560 C   0  0  0  0  0  0  0  0  0  0  0  0
   19.0480   12.2620    2.3670 N   0  0  0  0  0  0  0  0  0  0  0  0
   19.1890   11.7440    1.0970 C   0  0  0  0  0  0  0  0  0  0  0  0
   19.0080   12.3410   -0.1590 C   0  0  0  0  0  0  0  0  0  0  0  0
   18.6680   13.7020   -0.2970 N   0  0  0  0  0  0  0  0  0  0  0  0
   19.0290   11.5700   -1.2580 N   0  0  0  0  0  0  0  0  0  0  0  0
   19.3110   10.2550   -1.1040 C   0  0  0  0  0  0  0  0  0  0  0  0
   19.4950    9.5830    0.0450 N   0  0  0  0  0  0  0  0  0  0  0  0
   19.4230   10.3820    1.1220 C   0  0  0  0  0  0  0  0  0  0  0  0
   20.4800    8.8470    4.3860 C   0  0  2  0  0  0  0  0  0  0  0  0
   21.8660    8.5660    4.1830 O   0  0  0  0  0  0  0  0  0  0  0  0
   19.8170    7.8030    5.2630 C   0  0  2  0  0  0  0  0  0  0  0  0
   20.3390    6.5060    4.9440 O   0  0  0  0  0  0  0  0  0  0  0  0
   12.7363   11.5215    0.0280 H   0  0  0  0  0  0  0  0  0  0  0  0
   13.7617   11.7444   -1.4299 H   0  0  0  0  0  0  0  0  0  0  0  0
   12.4567   10.5101   -1.4299 H   0  0  0  0  0  0  0  0  0  0  0  0
   14.5520    7.9045   -0.9135 H   0  0  0  0  0  0  0  0  0  0  0  0
   13.4864    8.8542   -2.0040 H   0  0  0  0  0  0  0  0  0  0  0  0
   15.2591    9.1444   -2.0040 H   0  0  0  0  0  0  0  0  0  0  0  0
   15.7539   10.7447    1.0366 H   0  0  0  0  0  0  0  0  0  0  0  0
   16.3729   10.0526   -0.5011 H   0  0  0  0  0  0  0  0  0  0  0  0
   15.5540   11.6514   -0.5011 H   0  0  0  0  0  0  0  0  0  0  0  0
   12.5553    9.3629    0.9275 H   0  0  0  0  0  0  0  0  0  0  0  0
   13.3230    7.1770    1.2770 H   0  0  0  0  0  0  0  0  0  0  0  0
   14.5840    7.5550    0.2690 H   0  0  0  0  0  0  0  0  0  0  0  0
   14.7740    7.7420    1.8820 H   0  0  0  0  0  0  0  0  0  0  0  0
   15.3430    8.5060    2.9870 H   0  0  0  0  0  0  0  0  0  0  0  0
   17.8098    9.9287    5.2396 H   0  0  0  0  0  0  0  0  0  0  0  0
   17.7248    8.8261    6.6681 H   0  0  0  0  0  0  0  0  0  0  0  0
   17.8741    6.9110    5.0648 H   0  0  0  0  0  0  0  0  0  0  0  0
   20.1759    8.1206    2.3664 H   0  0  0  0  0  0  0  0  0  0  0  0
   19.3967   11.3183    4.2507 H   0  0  0  0  0  0  0  0  0  0  0  0
   19.4560   14.2520    0.0640 H   0  0  0  0  0  0  0  0  0  0  0  0
   18.5900   13.8580   -1.3080 H   0  0  0  0  0  0  0  0  0  0  0  0
   19.4001    9.6667   -2.0292 H   0  0  0  0  0  0  0  0  0  0  0  0
   20.4852    9.8574    4.8207 H   0  0  0  0  0  0  0  0  0  0  0  0
   22.0980    8.8620    3.2810 H   0  0  0  0  0  0  0  0  0  0  0  0
   19.9744    7.9711    6.3386 H   0  0  0  0  0  0  0  0  0  0  0  0
   19.5860    5.9290    4.7080 H   0  0  0  0  0  0  0  0  0  0  0  0
  1  2  1  0
  2  3  1  0
  2  4  1  0
  2  5  1  0
  5  6  1  0
  5  7  1  0
  7  8  2  0
  7  9  1  0
  9 10  1  0
 10 11  2  0
 10 12  2  0
 10 13  1  0
 13 14  1  0
 14 15  1  0
 15 16  1  0
 16 17  1  0
 17 18  1  0
 18 19  1  0
 19 20  2  0
 20 21  1  0
 21 22  2  0
 22 23  1  0
 22 24  1  0
 24 25  2  0
 25 26  1  0
 26 27  2  0
 17 28  1  0
 28 29  1  0
 28 30  1  0
 30 31  1  0
 30 15  1  0
 27 18  1  0
 27 21  1  0
  1 32  1  0
  1 33  1  0
  1 34  1  0
  3 35  1  0
  3 36  1  0
  3 37  1  0
  4 38  1  0
  4 39  1  0
  4 40  1  0
  5 41  1  6
  6 42  1  0
  6 43  1  0
  6 44  1  0
  9 45  1  0
 14 46  1  0
 14 47  1  0
 15 48  1  6
 17 49  1  6
 19 50  1  0
 23 51  1  0
 23 52  1  0
 25 53  1  0
 28 54  1  1
 29 55  1  0
 30 56  1  1
 31 57  1  0
M  CHG  1   6   1
M  END
>  <meeko>  (4) 
{"is_sidechain": [false], "free_energy": -8.379, "intermolecular_energy": -12.093, "internal_energy": -1.533}

$$$$
3coy_ligand
     RDKit          3D

 57 59  0  0  0  0  0  0  0  0999 V2000
   14.1190    9.5430    3.5780 C   0  0  0  0  0  0  0  0  0  0  0  0
   13.4020    9.5140    2.2100 C   0  0  0  0  0  0  0  0  0  0  0  0
   12.0810    8.7370    2.4020 C   0  0  0  0  0  0  0  0  0  0  0  0
   13.0670   10.9640    1.8110 C   0  0  0  0  0  0  0  0  0  0  0  0
   14.2960    8.7980    1.1550 C   0  0  1  0  0  0  0  0  0  0  0  0
   13.9650    7.3250    1.0750 N   0  0  0  0  0  0  0  0  0  0  0  0
   14.2150    9.4320   -0.2540 C   0  0  0  0  0  0  0  0  0  0  0  0
   13.1420    9.4670   -0.8490 O   0  0  0  0  0  0  0  0  0  0  0  0
   15.4180    9.8720   -0.8120 N   0  0  0  0  0  0  0  0  0  0  0  0
   15.5160   10.8060   -2.1820 S   0  0  0  0  0  0  0  0  0  0  0  0
   14.8140   12.0210   -1.8400 O   0  0  0  0  0  0  0  0  0  0  0  0
   15.0990    9.9750   -3.2850 O   0  0  0  0  0  0  0  0  0  0  0  0
   17.0930   11.1280   -2.3540 O   0  0  0  0  0  0  0  0  0  0  0  0
   17.9660   10.8190   -1.2740 C   0  0  0  0  0  0  0  0  0  0  0  0
   17.9100   11.9130   -0.1980 C   0  0  1  0  0  0  0  0  0  0  0  0
   18.0020   11.2950    1.1060 O   0  0  0  0  0  0  0  0  0  0  0  0
   19.3210   11.5120    1.6380 C   0  0  1  0  0  0  0  0  0  0  0  0
   19.9400   10.2430    2.0140 N   0  0  0  0  0  0  0  0  0  0  0  0
   21.0730    9.7390    1.4070 C   0  0  0  0  0  0  0  0  0  0  0  0
   21.3530    8.5130    1.8030 N   0  0  0  0  0  0  0  0  0  0  0  0
   20.4360    8.2730    2.8040 C   0  0  0  0  0  0  0  0  0  0  0  0
   20.2200    7.1330    3.5910 C   0  0  0  0  0  0  0  0  0  0  0  0
   21.0280    5.9840    3.4790 N   0  0  0  0  0  0  0  0  0  0  0  0
   19.1360    7.0800    4.3800 N   0  0  0  0  0  0  0  0  0  0  0  0
   18.3420    8.1750    4.4420 C   0  0  0  0  0  0  0  0  0  0  0  0
   18.4540    9.3110    3.7320 N   0  0  0  0  0  0  0  0  0  0  0  0
   19.5240    9.3060    2.9240 C   0  0  0  0  0  0  0  0  0  0  0  0
   20.1380   12.2580    0.5700 C   0  0  2  0  0  0  0  0  0  0  0  0
   21.0400   13.2170    1.1240 O   0  0  0  0  0  0  0  0  0  0  0  0
   19.0560   12.9180   -0.2610 C   0  0  2  0  0  0  0  0  0  0  0  0
   18.6470   14.1410    0.3660 O   0  0  0  0  0  0  0  0  0  0  0  0
   13.3715    9.5128    4.3845 H   0  0  0  0  0  0  0  0  0  0  0  0
   14.7843    8.6710    3.6618 H   0  0  0  0  0  0  0  0  0  0  0  0
   14.7117   10.4659    3.6618 H   0  0  0  0  0  0  0  0  0  0  0  0
   11.8785    8.6179    3.4766 H   0  0  0  0  0  0  0  0  0  0  0  0
   11.2565    9.2940    1.9331 H   0  0  0  0  0  0  0  0  0  0  0  0
   12.1672    7.7457    1.9331 H   0  0  0  0  0  0  0  0  0  0  0  0
   12.9268   11.5707    2.7178 H   0  0  0  0  0  0  0  0  0  0  0  0
   13.8926   11.3804    1.2152 H   0  0  0  0  0  0  0  0  0  0  0  0
   12.1424   10.9761    1.2152 H   0  0  0  0  0  0  0  0  0  0  0  0
   15.3308    8.9262    1.5052 H   0  0  0  0  0  0  0  0  0  0  0  0
   14.7590    6.6800    1.1260 H   0  0  0  0  0  0  0  0  0  0  0  0
   13.3060    7.0500    1.8330 H   0  0  0  0  0  0  0  0  0  0  0  0
   13.4360    7.1220    0.2050 H   0  0  0  0  0  0  0  0  0  0  0  0
   16.3200    9.8110   -0.3480 H   0  0  0  0  0  0  0  0  0  0  0  0
   17.6637    9.8595   -0.8290 H   0  0  0  0  0  0  0  0  0  0  0  0
   18.9945   10.7551   -1.6589 H   0  0  0  0  0  0  0  0  0  0  0  0
   16.9649   12.4471   -0.3754 H   0  0  0  0  0  0  0  0  0  0  0  0
   19.2777   12.1187    2.5545 H   0  0  0  0  0  0  0  0  0  0  0  0
   21.6747   10.2977    0.6750 H   0  0  0  0  0  0  0  0  0  0  0  0
   20.5230    5.2100    3.9250 H   0  0  0  0  0  0  0  0  0  0  0  0
   21.0960    5.7990    2.4720 H   0  0  0  0  0  0  0  0  0  0  0  0
   17.5075    8.1297    5.1572 H   0  0  0  0  0  0  0  0  0  0  0  0
   20.7973   11.5901   -0.0037 H   0  0  0  0  0  0  0  0  0  0  0  0
   21.8590   13.1930    0.5920 H   0  0  0  0  0  0  0  0  0  0  0  0
   19.3776   13.1587   -1.2850 H   0  0  0  0  0  0  0  0  0  0  0  0
   19.4180   14.5070    0.8410 H   0  0  0  0  0  0  0  0  0  0  0  0
  1  2  1  0
  2  3  1  0
  2  4  1  0
  2  5  1  0
  5  6  1  0
  5  7  1  0
  7  8  2  0
  7  9  1  0
  9 10  1  0
 10 11  2  0
 10 12  2  0
 10 13  1  0
 13 14  1  0
 14 15  1  0
 15 16  1  0
 16 17  1  0
 17 18  1  0
 18 19  1  0
 19 20  2  0
 20 21  1  0
 21 22  2  0
 22 23  1  0
 22 24  1  0
 24 25  2  0
 25 26  1  0
 26 27  2  0
 17 28  1  0
 28 29  1  0
 28 30  1  0
 30 31  1  0
 30 15  1  0
 27 18  1  0
 27 21  1  0
  1 32  1  0
  1 33  1  0
  1 34  1  0
  3 35  1  0
  3 36  1  0
  3 37  1  0
  4 38  1  0
  4 39  1  0
  4 40  1  0
  5 41  1  1
  6 42  1  0
  6 43  1  0
  6 44  1  0
  9 45  1  0
 14 46  1  0
 14 47  1  0
 15 48  1  1
 17 49  1  1
 19 50  1  0
 23 51  1  0
 23 52  1  0
 25 53  1  0
 28 54  1  6
 29 55  1  0
 30 56  1  6
 31 57  1  0
M  CHG  1   6   1
M  END
>  <meeko>  (5) 
{"is_sidechain": [false], "free_energy": -8.29, "intermolecular_energy": -12.526, "internal_energy": -0.964}

$$$$
3coy_ligand
     RDKit          3D

 57 59  0  0  0  0  0  0  0  0999 V2000
   15.1090   10.9110    5.0460 C   0  0  0  0  0  0  0  0  0  0  0  0
   14.8820    9.9300    6.2180 C   0  0  0  0  0  0  0  0  0  0  0  0
   14.2900   10.7450    7.3890 C   0  0  0  0  0  0  0  0  0  0  0  0
   13.8450    8.8810    5.7740 C   0  0  0  0  0  0  0  0  0  0  0  0
   16.2350    9.2870    6.6430 C   0  0  1  0  0  0  0  0  0  0  0  0
   16.0090    8.0990    7.5500 N   0  0  0  0  0  0  0  0  0  0  0  0
   17.1230    8.8720    5.4450 C   0  0  0  0  0  0  0  0  0  0  0  0
   16.6030    8.5220    4.3900 O   0  0  0  0  0  0  0  0  0  0  0  0
   18.5020    8.8490    5.6680 N   0  0  0  0  0  0  0  0  0  0  0  0
   19.6320    8.6900    4.4610 S   0  0  0  0  0  0  0  0  0  0  0  0
   19.2730    7.4610    3.7920 O   0  0  0  0  0  0  0  0  0  0  0  0
   20.9260    8.8690    5.0720 O   0  0  0  0  0  0  0  0  0  0  0  0
   19.3590    9.9390    3.4680 O   0  0  0  0  0  0  0  0  0  0  0  0
   18.9030    9.6640    2.1490 C   0  0  0  0  0  0  0  0  0  0  0  0
   19.8780   10.2290    1.1050 C   0  0  1  0  0  0  0  0  0  0  0  0
   19.3770    9.9280   -0.2180 O   0  0  0  0  0  0  0  0  0  0  0  0
   18.8230   11.1240   -0.7940 C   0  0  1  0  0  0  0  0  0  0  0  0
   17.4470   10.8960   -1.2280 N   0  0  0  0  0  0  0  0  0  0  0  0
   17.0520   10.9130   -2.5510 C   0  0  0  0  0  0  0  0  0  0  0  0
   15.7430   10.8380   -2.6860 N   0  0  0  0  0  0  0  0  0  0  0  0
   15.2900   10.6310   -1.4010 C   0  0  0  0  0  0  0  0  0  0  0  0
   13.9870   10.4930   -0.9020 C   0  0  0  0  0  0  0  0  0  0  0  0
   12.8590   10.5040   -1.7460 N   0  0  0  0  0  0  0  0  0  0  0  0
   13.7940   10.4820    0.4260 N   0  0  0  0  0  0  0  0  0  0  0  0
   14.8860   10.5190    1.2270 C   0  0  0  0  0  0  0  0  0  0  0  0
   16.1700   10.6550    0.8560 N   0  0  0  0  0  0  0  0  0  0  0  0
   16.3160   10.7060   -0.4770 C   0  0  0  0  0  0  0  0  0  0  0  0
   18.9180   12.2380    0.2610 C   0  0  2  0  0  0  0  0  0  0  0  0
   19.2110   13.5180   -0.3020 O   0  0  0  0  0  0  0  0  0  0  0  0
   20.0420   11.7450    1.1510 C   0  0  2  0  0  0  0  0  0  0  0  0
   21.3050   12.1010    0.5740 O   0  0  0  0  0  0  0  0  0  0  0  0
   15.3402   11.9102    5.4437 H   0  0  0  0  0  0  0  0  0  0  0  0
   15.9492   10.5581    4.4300 H   0  0  0  0  0  0  0  0  0  0  0  0
   14.1992   10.9631    4.4300 H   0  0  0  0  0  0  0  0  0  0  0  0
   14.6115   10.3023    8.3433 H   0  0  0  0  0  0  0  0  0  0  0  0
   14.6451   11.7844    7.3288 H   0  0  0  0  0  0  0  0  0  0  0  0
   13.1918   10.7287    7.3288 H   0  0  0  0  0  0  0  0  0  0  0  0
   13.3880    8.4187    6.6614 H   0  0  0  0  0  0  0  0  0  0  0  0
   13.0645    9.3690    5.1718 H   0  0  0  0  0  0  0  0  0  0  0  0
   14.3420    8.1062    5.1718 H   0  0  0  0  0  0  0  0  0  0  0  0
   16.7791   10.0713    7.1897 H   0  0  0  0  0  0  0  0  0  0  0  0
   15.0450    7.9370    7.8500 H   0  0  0  0  0  0  0  0  0  0  0  0
   16.3350    7.2190    7.0990 H   0  0  0  0  0  0  0  0  0  0  0  0
   16.6060    8.1740    8.3970 H   0  0  0  0  0  0  0  0  0  0  0  0
   18.9440    9.0970    6.5490 H   0  0  0  0  0  0  0  0  0  0  0  0
   18.8226    8.5751    2.0151 H   0  0  0  0  0  0  0  0  0  0  0  0
   17.9217   10.1409    2.0090 H   0  0  0  0  0  0  0  0  0  0  0  0
   20.8488    9.7647    1.3328 H   0  0  0  0  0  0  0  0  0  0  0  0
   19.3854   11.4226   -1.6910 H   0  0  0  0  0  0  0  0  0  0  0  0
   17.7513   10.9815   -3.3973 H   0  0  0  0  0  0  0  0  0  0  0  0
   13.1800   10.2530   -2.6880 H   0  0  0  0  0  0  0  0  0  0  0  0
   12.2510    9.7560   -1.3930 H   0  0  0  0  0  0  0  0  0  0  0  0
   14.6995   10.4269    2.3072 H   0  0  0  0  0  0  0  0  0  0  0  0
   17.9682   12.4033    0.7907 H   0  0  0  0  0  0  0  0  0  0  0  0
   19.8990   13.3900   -0.9840 H   0  0  0  0  0  0  0  0  0  0  0  0
   20.0099   12.1639    2.1676 H   0  0  0  0  0  0  0  0  0  0  0  0
   21.4440   11.5400   -0.2140 H   0  0  0  0  0  0  0  0  0  0  0  0
  1  2  1  0
  2  3  1  0
  2  4  1  0
  2  5  1  0
  5  6  1  0
  5  7  1  0
  7  8  2  0
  7  9  1  0
  9 10  1  0
 10 11  2  0
 10 12  2  0
 10 13  1  0
 13 14  1  0
 14 15  1  0
 15 16  1  0
 16 17  1  0
 17 18  1  0
 18 19  1  0
 19 20  2  0
 20 21  1  0
 21 22  2  0
 22 23  1  0
 22 24  1  0
 24 25  2  0
 25 26  1  0
 26 27  2  0
 17 28  1  0
 28 29  1  0
 28 30  1  0
 30 31  1  0
 30 15  1  0
 27 18  1  0
 27 21  1  0
  1 32  1  0
  1 33  1  0
  1 34  1  0
  3 35  1  0
  3 36  1  0
  3 37  1  0
  4 38  1  0
  4 39  1  0
  4 40  1  0
  5 41  1  1
  6 42  1  0
  6 43  1  0
  6 44  1  0
  9 45  1  0
 14 46  1  0
 14 47  1  0
 15 48  1  1
 17 49  1  6
 19 50  1  0
 23 51  1  0
 23 52  1  0
 25 53  1  0
 28 54  1  1
 29 55  1  0
 30 56  1  1
 31 57  1  0
M  CHG  1   6   1
M  END
>  <meeko>  (6) 
{"is_sidechain": [false], "free_energy": -8.259, "intermolecular_energy": -13.238, "internal_energy": -0.205}

$$$$
3coy_ligand
     RDKit          3D

 57 59  0  0  0  0  0  0  0  0999 V2000
   13.0180    9.1510    8.9890 C   0  0  0  0  0  0  0  0  0  0  0  0
   14.0110    9.0850    7.8070 C   0  0  0  0  0  0  0  0  0  0  0  0
   15.4160    8.8470    8.4040 C   0  0  0  0  0  0  0  0  0  0  0  0
   13.6370    7.8750    6.9310 C   0  0  0  0  0  0  0  0  0  0  0  0
   13.9850   10.4260    7.0150 C   0  0  1  0  0  0  0  0  0  0  0  0
   14.5530   11.5550    7.8430 N   0  0  0  0  0  0  0  0  0  0  0  0
   14.7190   10.3510    5.6540 C   0  0  0  0  0  0  0  0  0  0  0  0
   15.9440   10.2760    5.6230 O   0  0  0  0  0  0  0  0  0  0  0  0
   13.9250   10.4520    4.5090 N   0  0  0  0  0  0  0  0  0  0  0  0
   14.4720   10.1370    2.9730 S   0  0  0  0  0  0  0  0  0  0  0  0
   13.3130   10.3260    2.1320 O   0  0  0  0  0  0  0  0  0  0  0  0
   15.1710    8.8770    3.0280 O   0  0  0  0  0  0  0  0  0  0  0  0
   15.5510   11.3050    2.6680 O   0  0  0  0  0  0  0  0  0  0  0  0
   16.8230   10.9290    2.1550 C   0  0  0  0  0  0  0  0  0  0  0  0
   17.7620   12.1420    2.0810 C   0  0  1  0  0  0  0  0  0  0  0  0
   18.8280   11.9720    3.0420 O   0  0  0  0  0  0  0  0  0  0  0  0
   20.0340   11.6050    2.3480 C   0  0  1  0  0  0  0  0  0  0  0  0
   20.5880   10.3700    2.8990 N   0  0  0  0  0  0  0  0  0  0  0  0
   21.9400   10.0880    2.9270 C   0  0  0  0  0  0  0  0  0  0  0  0
   22.1880    8.8560    3.3250 N   0  0  0  0  0  0  0  0  0  0  0  0
   20.9500    8.3730    3.6940 C   0  0  0  0  0  0  0  0  0  0  0  0
   20.5680    7.1140    4.1770 C   0  0  0  0  0  0  0  0  0  0  0  0
   21.5050    6.0900    4.4180 N   0  0  0  0  0  0  0  0  0  0  0  0
   19.2610    6.8280    4.2930 N   0  0  0  0  0  0  0  0  0  0  0  0
   18.3700    7.8080    4.0140 C   0  0  0  0  0  0  0  0  0  0  0  0
   18.6260    9.0400    3.5430 N   0  0  0  0  0  0  0  0  0  0  0  0
   19.9410    9.2710    3.4000 C   0  0  0  0  0  0  0  0  0  0  0  0
   19.6890   11.4670    0.8560 C   0  0  2  0  0  0  0  0  0  0  0  0
   20.7370   11.9190   -0.0040 O   0  0  0  0  0  0  0  0  0  0  0  0
   18.4470   12.3270    0.7300 C   0  0  2  0  0  0  0  0  0  0  0  0
   18.8280   13.7020    0.5770 O   0  0  0  0  0  0  0  0  0  0  0  0
   13.5740    9.1140    9.9374 H   0  0  0  0  0  0  0  0  0  0  0  0
   12.4461   10.0891    8.9355 H   0  0  0  0  0  0  0  0  0  0  0  0
   12.3270    8.2968    8.9355 H   0  0  0  0  0  0  0  0  0  0  0  0
   15.3543    8.8574    9.5022 H   0  0  0  0  0  0  0  0  0  0  0  0
   15.7970    7.8715    8.0674 H   0  0  0  0  0  0  0  0  0  0  0  0
   16.0970    9.6426    8.0674 H   0  0  0  0  0  0  0  0  0  0  0  0
   13.3737    7.0232    7.5754 H   0  0  0  0  0  0  0  0  0  0  0  0
   12.7770    8.1339    6.2959 H   0  0  0  0  0  0  0  0  0  0  0  0
   14.4931    7.6035    6.2959 H   0  0  0  0  0  0  0  0  0  0  0  0
   12.9250   10.6243    6.7981 H   0  0  0  0  0  0  0  0  0  0  0  0
   15.5740   11.6210    7.8780 H   0  0  0  0  0  0  0  0  0  0  0  0
   14.2040   12.4760    7.5060 H   0  0  0  0  0  0  0  0  0  0  0  0
   14.1970   11.5010    8.8170 H   0  0  0  0  0  0  0  0  0  0  0  0
   12.9150   10.5570    4.5210 H   0  0  0  0  0  0  0  0  0  0  0  0
   17.2673   10.1688    2.8143 H   0  0  0  0  0  0  0  0  0  0  0  0
   16.6885   10.5251    1.1407 H   0  0  0  0  0  0  0  0  0  0  0  0
   17.1225   13.0163    2.2725 H   0  0  0  0  0  0  0  0  0  0  0  0
   20.8087   12.3757    2.4739 H   0  0  0  0  0  0  0  0  0  0  0  0
   22.7216   10.8102    2.6485 H   0  0  0  0  0  0  0  0  0  0  0  0
   22.1440    6.0650    3.6150 H   0  0  0  0  0  0  0  0  0  0  0  0
   22.0270    6.3920    5.2480 H   0  0  0  0  0  0  0  0  0  0  0  0
   17.3118    7.5675    4.1941 H   0  0  0  0  0  0  0  0  0  0  0  0
   19.5403   10.4211    0.5493 H   0  0  0  0  0  0  0  0  0  0  0  0
   20.3190   12.3190   -0.7920 H   0  0  0  0  0  0  0  0  0  0  0  0
   17.8137   12.0584   -0.1283 H   0  0  0  0  0  0  0  0  0  0  0  0
   18.1720   14.1310   -0.0060 H   0  0  0  0  0  0  0  0  0  0  0  0
  1  2  1  0
  2  3  1  0
  2  4  1  0
  2  5  1  0
  5  6  1  0
  5  7  1  0
  7  8  2  0
  7  9  1  0
  9 10  1  0
 10 11  2  0
 10 12  2  0
 10 13  1  0
 13 14  1  0
 14 15  1  0
 15 16  1  0
 16 17  1  0
 17 18  1  0
 18 19  1  0
 19 20  2  0
 20 21  1  0
 21 22  2  0
 22 23  1  0
 22 24  1  0
 24 25  2  0
 25 26  1  0
 26 27  2  0
 17 28  1  0
 28 29  1  0
 28 30  1  0
 30 31  1  0
 30 15  1  0
 27 18  1  0
 27 21  1  0
  1 32  1  0
  1 33  1  0
  1 34  1  0
  3 35  1  0
  3 36  1  0
  3 37  1  0
  4 38  1  0
  4 39  1  0
  4 40  1  0
  5 41  1  6
  6 42  1  0
  6 43  1  0
  6 44  1  0
  9 45  1  0
 14 46  1  0
 14 47  1  0
 15 48  1  1
 17 49  1  6
 19 50  1  0
 23 51  1  0
 23 52  1  0
 25 53  1  0
 28 54  1  6
 29 55  1  0
 30 56  1  6
 31 57  1  0
M  CHG  1   6   1
M  END
>  <meeko>  (7) 
{"is_sidechain": [false], "free_energy": -8.16, "intermolecular_energy": -12.799, "internal_energy": -0.493}

$$$$
3coy_ligand
     RDKit          3D

 57 59  0  0  0  0  0  0  0  0999 V2000
   21.6370    7.3570    3.2630 C   0  0  0  0  0  0  0  0  0  0  0  0
   20.9470    8.6650    3.7110 C   0  0  0  0  0  0  0  0  0  0  0  0
   20.5590    8.4910    5.1960 C   0  0  0  0  0  0  0  0  0  0  0  0
   21.9700    9.8110    3.6000 C   0  0  0  0  0  0  0  0  0  0  0  0
   19.6730    8.9170    2.8500 C   0  0  1  0  0  0  0  0  0  0  0  0
   18.5760    9.5450    3.6790 N   0  0  0  0  0  0  0  0  0  0  0  0
   19.9410    9.7780    1.5920 C   0  0  0  0  0  0  0  0  0  0  0  0
   20.5030    9.2830    0.6200 O   0  0  0  0  0  0  0  0  0  0  0  0
   19.5840   11.1260    1.6700 N   0  0  0  0  0  0  0  0  0  0  0  0
   19.5440   12.1490    0.3630 S   0  0  0  0  0  0  0  0  0  0  0  0
   20.9340   12.3820    0.0450 O   0  0  0  0  0  0  0  0  0  0  0  0
   18.6550   13.2320    0.7050 O   0  0  0  0  0  0  0  0  0  0  0  0
   18.8610   11.2840   -0.8220 O   0  0  0  0  0  0  0  0  0  0  0  0
   17.7880   11.8690   -1.5510 C   0  0  0  0  0  0  0  0  0  0  0  0
   16.9230   10.7860   -2.2110 C   0  0  1  0  0  0  0  0  0  0  0  0
   16.5750    9.7920   -1.2190 O   0  0  0  0  0  0  0  0  0  0  0  0
   15.2020    9.9740   -0.8310 C   0  0  1  0  0  0  0  0  0  0  0  0
   15.0920   10.1190    0.6180 N   0  0  0  0  0  0  0  0  0  0  0  0
   16.0280   10.7780    1.3910 C   0  0  0  0  0  0  0  0  0  0  0  0
   15.7980   10.6450    2.6820 N   0  0  0  0  0  0  0  0  0  0  0  0
   14.5890    9.9850    2.7350 C   0  0  0  0  0  0  0  0  0  0  0  0
   13.8370    9.5420    3.8320 C   0  0  0  0  0  0  0  0  0  0  0  0
   14.2400    9.7830    5.1610 N   0  0  0  0  0  0  0  0  0  0  0  0
   12.7710    8.7550    3.6190 N   0  0  0  0  0  0  0  0  0  0  0  0
   12.4210    8.4940    2.3370 C   0  0  0  0  0  0  0  0  0  0  0  0
   13.0700    8.8610    1.2190 N   0  0  0  0  0  0  0  0  0  0  0  0
   14.1530    9.6100    1.4770 C   0  0  0  0  0  0  0  0  0  0  0  0
   14.6660   11.2070   -1.5770 C   0  0  2  0  0  0  0  0  0  0  0  0
   13.3010   11.0690   -1.9780 O   0  0  0  0  0  0  0  0  0  0  0  0
   15.5970   11.2930   -2.7700 C   0  0  2  0  0  0  0  0  0  0  0  0
   15.1450   10.4010   -3.7980 O   0  0  0  0  0  0  0  0  0  0  0  0
   21.9410    6.7807    4.1492 H   0  0  0  0  0  0  0  0  0  0  0  0
   20.9362    6.7605    2.6604 H   0  0  0  0  0  0  0  0  0  0  0  0
   22.5250    7.5987    2.6604 H   0  0  0  0  0  0  0  0  0  0  0  0
   21.3766    8.8577    5.8340 H   0  0  0  0  0  0  0  0  0  0  0  0
   19.6445    9.0652    5.4058 H   0  0  0  0  0  0  0  0  0  0  0  0
   20.3795    7.4262    5.4058 H   0  0  0  0  0  0  0  0  0  0  0  0
   22.2633   10.1396    4.6080 H   0  0  0  0  0  0  0  0  0  0  0  0
   22.8587    9.4578    3.0564 H   0  0  0  0  0  0  0  0  0  0  0  0
   21.5186   10.6541    3.0564 H   0  0  0  0  0  0  0  0  0  0  0  0
   19.3489    7.9267    2.4976 H   0  0  0  0  0  0  0  0  0  0  0  0
   18.2850    9.0250    4.5110 H   0  0  0  0  0  0  0  0  0  0  0  0
   18.8500   10.4970    3.9990 H   0  0  0  0  0  0  0  0  0  0  0  0
   17.7360    9.7170    3.0920 H   0  0  0  0  0  0  0  0  0  0  0  0
   19.1560   11.5590    2.4840 H   0  0  0  0  0  0  0  0  0  0  0  0
   17.1644   12.4593   -0.8634 H   0  0  0  0  0  0  0  0  0  0  0  0
   18.2065   12.5140   -2.3377 H   0  0  0  0  0  0  0  0  0  0  0  0
   17.5291   10.3968   -3.0424 H   0  0  0  0  0  0  0  0  0  0  0  0
   14.5993    9.0942   -1.1005 H   0  0  0  0  0  0  0  0  0  0  0  0
   16.8710   11.3498    0.9757 H   0  0  0  0  0  0  0  0  0  0  0  0
   13.5950   10.4770    5.5550 H   0  0  0  0  0  0  0  0  0  0  0  0
   14.1070    8.8900    5.6490 H   0  0  0  0  0  0  0  0  0  0  0  0
   11.4975    7.9137    2.1942 H   0  0  0  0  0  0  0  0  0  0  0  0
   14.6576   12.1115   -0.9511 H   0  0  0  0  0  0  0  0  0  0  0  0
   13.2650   10.3740   -2.6640 H   0  0  0  0  0  0  0  0  0  0  0  0
   15.6571   12.3013   -3.2055 H   0  0  0  0  0  0  0  0  0  0  0  0
   14.4280    9.8520   -3.4250 H   0  0  0  0  0  0  0  0  0  0  0  0
  1  2  1  0
  2  3  1  0
  2  4  1  0
  2  5  1  0
  5  6  1  0
  5  7  1  0
  7  8  2  0
  7  9  1  0
  9 10  1  0
 10 11  2  0
 10 12  2  0
 10 13  1  0
 13 14  1  0
 14 15  1  0
 15 16  1  0
 16 17  1  0
 17 18  1  0
 18 19  1  0
 19 20  2  0
 20 21  1  0
 21 22  2  0
 22 23  1  0
 22 24  1  0
 24 25  2  0
 25 26  1  0
 26 27  2  0
 17 28  1  0
 28 29  1  0
 28 30  1  0
 30 31  1  0
 30 15  1  0
 27 18  1  0
 27 21  1  0
  1 32  1  0
  1 33  1  0
  1 34  1  0
  3 35  1  0
  3 36  1  0
  3 37  1  0
  4 38  1  0
  4 39  1  0
  4 40  1  0
  5 41  1  6
  6 42  1  0
  6 43  1  0
  6 44  1  0
  9 45  1  0
 14 46  1  0
 14 47  1  0
 15 48  1  6
 17 49  1  6
 19 50  1  0
 23 51  1  0
 23 52  1  0
 25 53  1  0
 28 54  1  1
 29 55  1  0
 30 56  1  6
 31 57  1  0
M  CHG  1   6   1
M  END
>  <meeko>  (8) 
{"is_sidechain": [false], "free_energy": -8.067, "intermolecular_energy": -11.726, "internal_energy": -1.423}

$$$$
3coy_ligand
     RDKit          3D

 57 59  0  0  0  0  0  0  0  0999 V2000
   21.3610    8.7310    5.1150 C   0  0  0  0  0  0  0  0  0  0  0  0
   20.6210    8.2980    3.8310 C   0  0  0  0  0  0  0  0  0  0  0  0
   20.6840    6.7560    3.7640 C   0  0  0  0  0  0  0  0  0  0  0  0
   19.1460    8.7250    3.9580 C   0  0  0  0  0  0  0  0  0  0  0  0
   21.3150    8.9180    2.5820 C   0  0  1  0  0  0  0  0  0  0  0  0
   21.1340    8.0360    1.3680 N   0  0  0  0  0  0  0  0  0  0  0  0
   20.8380   10.3560    2.2630 C   0  0  0  0  0  0  0  0  0  0  0  0
   21.1390   11.2800    3.0120 O   0  0  0  0  0  0  0  0  0  0  0  0
   20.0080   10.5070    1.1500 N   0  0  0  0  0  0  0  0  0  0  0  0
   19.6040   11.9760    0.4890 S   0  0  0  0  0  0  0  0  0  0  0  0
   20.8580   12.5160    0.0170 O   0  0  0  0  0  0  0  0  0  0  0  0
   18.8020   12.6690    1.4680 O   0  0  0  0  0  0  0  0  0  0  0  0
   18.6640   11.6180   -0.7780 O   0  0  0  0  0  0  0  0  0  0  0  0
   17.2540   11.7220   -0.6220 C   0  0  0  0  0  0  0  0  0  0  0  0
   16.5260   10.8060   -1.6160 C   0  0  1  0  0  0  0  0  0  0  0  0
   16.1320    9.5920   -0.9370 O   0  0  0  0  0  0  0  0  0  0  0  0
   14.7170    9.6330   -0.6800 C   0  0  1  0  0  0  0  0  0  0  0  0
   14.4460    9.4190    0.7400 N   0  0  0  0  0  0  0  0  0  0  0  0
   13.6000    8.4360    1.2140 C   0  0  0  0  0  0  0  0  0  0  0  0
   13.3910    8.5360    2.5120 N   0  0  0  0  0  0  0  0  0  0  0  0
   14.2440    9.5440    2.9060 C   0  0  0  0  0  0  0  0  0  0  0  0
   14.4580   10.1190    4.1670 C   0  0  0  0  0  0  0  0  0  0  0  0
   13.7920    9.6590    5.3200 N   0  0  0  0  0  0  0  0  0  0  0  0
   15.2170   11.2220    4.2620 N   0  0  0  0  0  0  0  0  0  0  0  0
   15.8150   11.6800    3.1360 C   0  0  0  0  0  0  0  0  0  0  0  0
   15.6750   11.2110    1.8840 N   0  0  0  0  0  0  0  0  0  0  0  0
   14.8740   10.1360    1.8270 C   0  0  0  0  0  0  0  0  0  0  0  0
   14.1940   10.9940   -1.1680 C   0  0  2  0  0  0  0  0  0  0  0  0
   12.8900   10.9170   -1.7470 O   0  0  0  0  0  0  0  0  0  0  0  0
   15.2400   11.3940   -2.1900 C   0  0  2  0  0  0  0  0  0  0  0  0
   14.9510   10.7650   -3.4460 O   0  0  0  0  0  0  0  0  0  0  0  0
   20.7923    8.3982    5.9958 H   0  0  0  0  0  0  0  0  0  0  0  0
   22.3625    8.2764    5.1320 H   0  0  0  0  0  0  0  0  0  0  0  0
   21.4554    9.8268    5.1320 H   0  0  0  0  0  0  0  0  0  0  0  0
   20.7008    6.3450    4.7842 H   0  0  0  0  0  0  0  0  0  0  0  0
   19.8006    6.3758    3.2300 H   0  0  0  0  0  0  0  0  0  0  0  0
   21.5954    6.4491    3.2300 H   0  0  0  0  0  0  0  0  0  0  0  0
   18.8771    8.8028    5.0218 H   0  0  0  0  0  0  0  0  0  0  0  0
   19.0037    9.7012    3.4714 H   0  0  0  0  0  0  0  0  0  0  0  0
   18.5042    7.9758    3.4714 H   0  0  0  0  0  0  0  0  0  0  0  0
   22.3834    8.9826    2.8356 H   0  0  0  0  0  0  0  0  0  0  0  0
   20.8080    8.5010    0.5170 H   0  0  0  0  0  0  0  0  0  0  0  0
   22.0220    7.5510    1.1250 H   0  0  0  0  0  0  0  0  0  0  0  0
   20.4810    7.2570    1.5840 H   0  0  0  0  0  0  0  0  0  0  0  0
   19.7170    9.7440    0.5450 H   0  0  0  0  0  0  0  0  0  0  0  0
   16.9822   11.4300    0.4031 H   0  0  0  0  0  0  0  0  0  0  0  0
   16.9537   12.7622   -0.8164 H   0  0  0  0  0  0  0  0  0  0  0  0
   17.2382   10.6480   -2.4393 H   0  0  0  0  0  0  0  0  0  0  0  0
   14.1976    8.8273   -1.2196 H   0  0  0  0  0  0  0  0  0  0  0  0
   13.1510    7.6572    0.5801 H   0  0  0  0  0  0  0  0  0  0  0  0
   14.0640    8.6800    5.4610 H   0  0  0  0  0  0  0  0  0  0  0  0
   14.1680   10.2230    6.0910 H   0  0  0  0  0  0  0  0  0  0  0  0
   16.4947   12.5358    3.2608 H   0  0  0  0  0  0  0  0  0  0  0  0
   14.0679   11.7188   -0.3502 H   0  0  0  0  0  0  0  0  0  0  0  0
   12.2790   11.4070   -1.1630 H   0  0  0  0  0  0  0  0  0  0  0  0
   15.2887   12.4791   -2.3640 H   0  0  0  0  0  0  0  0  0  0  0  0
   15.2610    9.8400   -3.3970 H   0  0  0  0  0  0  0  0  0  0  0  0
  1  2  1  0
  2  3  1  0
  2  4  1  0
  2  5  1  0
  5  6  1  0
  5  7  1  0
  7  8  2  0
  7  9  1  0
  9 10  1  0
 10 11  2  0
 10 12  2  0
 10 13  1  0
 13 14  1  0
 14 15  1  0
 15 16  1  0
 16 17  1  0
 17 18  1  0
 18 19  1  0
 19 20  2  0
 20 21  1  0
 21 22  2  0
 22 23  1  0
 22 24  1  0
 24 25  2  0
 25 26  1  0
 26 27  2  0
 17 28  1  0
 28 29  1  0
 28 30  1  0
 30 31  1  0
 30 15  1  0
 27 18  1  0
 27 21  1  0
  1 32  1  0
  1 33  1  0
  1 34  1  0
  3 35  1  0
  3 36  1  0
  3 37  1  0
  4 38  1  0
  4 39  1  0
  4 40  1  0
  5 41  1  1
  6 42  1  0
  6 43  1  0
  6 44  1  0
  9 45  1  0
 14 46  1  0
 14 47  1  0
 15 48  1  6
 17 49  1  6
 19 50  1  0
 23 51  1  0
 23 52  1  0
 25 53  1  0
 28 54  1  1
 29 55  1  0
 30 56  1  6
 31 57  1  0
M  CHG  1   6   1
M  END
>  <meeko>  (9) 
{"is_sidechain": [false], "free_energy": -7.924, "intermolecular_energy": -12.105, "internal_energy": -0.827}

$$$$
