3pxf_ligand
     RDKit          3D

 33 35  0  0  0  0  0  0  0  0999 V2000
  113.4390  133.2460   59.9720 O   0  0  0  0  0  0  0  0  0  0  0  0
  112.5460  133.3910   61.1210 S   0  0  0  0  0  0  0  0  0  0  0  0
  112.7910  132.4140   62.1820 O   0  0  0  0  0  0  0  0  0  0  0  0
  111.1490  133.6330   60.7870 O   0  0  0  0  0  0  0  0  0  0  0  0
  113.0470  134.9810   61.8770 C   0  0  0  0  0  0  0  0  0  0  0  0
  112.0050  135.9310   61.9540 C   0  0  0  0  0  0  0  0  0  0  0  0
  112.2320  137.1930   62.4670 C   0  0  0  0  0  0  0  0  0  0  0  0
  113.5050  137.5170   62.9070 C   0  0  0  0  0  0  0  0  0  0  0  0
  114.5630  136.5950   62.8520 C   0  0  0  0  0  0  0  0  0  0  0  0
  115.8010  137.0430   63.3400 C   0  0  0  0  0  0  0  0  0  0  0  0
  116.9150  136.2230   63.3480 C   0  0  0  0  0  0  0  0  0  0  0  0
  116.7980  134.9310   62.8680 C   0  0  0  0  0  0  0  0  0  0  0  0
  115.5780  134.4300   62.3640 C   0  0  0  0  0  0  0  0  0  0  0  0
  115.5650  133.0850   61.9370 N   0  0  0  0  0  0  0  0  0  0  0  0
  116.5830  132.1650   61.6300 C   0  0  0  0  0  0  0  0  0  0  0  0
  117.3060  132.3340   60.4410 C   0  0  0  0  0  0  0  0  0  0  0  0
  118.3600  131.4790   60.1060 C   0  0  0  0  0  0  0  0  0  0  0  0
  118.7090  130.4390   60.9620 C   0  0  0  0  0  0  0  0  0  0  0  0
  118.0020  130.2530   62.1470 C   0  0  0  0  0  0  0  0  0  0  0  0
  116.9480  131.1120   62.4770 C   0  0  0  0  0  0  0  0  0  0  0  0
  114.3920  135.2710   62.3330 C   0  0  0  0  0  0  0  0  0  0  0  0
  110.9986  135.6621   61.6005 H   0  0  0  0  0  0  0  0  0  0  0  0
  111.4160  137.9283   62.5252 H   0  0  0  0  0  0  0  0  0  0  0  0
  113.6921  138.5232   63.3102 H   0  0  0  0  0  0  0  0  0  0  0  0
  115.8870  138.0699   63.7249 H   0  0  0  0  0  0  0  0  0  0  0  0
  117.8782  136.5924   63.7298 H   0  0  0  0  0  0  0  0  0  0  0  0
  117.6809  134.2750   62.8793 H   0  0  0  0  0  0  0  0  0  0  0  0
  114.6160  132.6820   61.8820 H   0  0  0  0  0  0  0  0  0  0  0  0
  117.0390  133.1547   59.7589 H   0  0  0  0  0  0  0  0  0  0  0  0
  118.9128  131.6282   59.1668 H   0  0  0  0  0  0  0  0  0  0  0  0
  119.5402  129.7664   60.7035 H   0  0  0  0  0  0  0  0  0  0  0  0
  118.2724  129.4297   62.8246 H   0  0  0  0  0  0  0  0  0  0  0  0
  116.3976  130.9574   63.4168 H   0  0  0  0  0  0  0  0  0  0  0  0
  1  2  2  0
  2  3  2  0
  2  4  1  0
  2  5  1  0
  5  6  2  0
  6  7  1  0
  7  8  2  0
  8  9  1  0
  9 10  2  0
 10 11  1  0
 11 12  2  0
 12 13  1  0
 13 14  1  0
 14 15  1  0
 15 16  2  0
 16 17  1  0
 17 18  2  0
 18 19  1  0
 19 20  2  0
 13 21  2  0
 21  5  1  0
 21  9  1  0
 20 15  1  0
  6 22  1  0
  7 23  1  0
  8 24  1  0
 10 25  1  0
 11 26  1  0
 12 27  1  0
 14 28  1  0
 16 29  1  0
 17 30  1  0
 18 31  1  0
 19 32  1  0
 20 33  1  0
M  CHG  1   4  -1
M  END
>  <meeko>  (1) 
{"is_sidechain": [false], "free_energy": -10.355, "intermolecular_energy": -12.171, "internal_energy": -1.078}

$$$$
3pxf_ligand
     RDKit          3D

 33 35  0  0  0  0  0  0  0  0999 V2000
  116.1020  135.5820   64.1000 O   0  0  0  0  0  0  0  0  0  0  0  0
  115.8820  136.4720   62.9600 S   0  0  0  0  0  0  0  0  0  0  0  0
  116.6460  136.0990   61.7700 O   0  0  0  0  0  0  0  0  0  0  0  0
  115.8590  137.8920   63.2850 O   0  0  0  0  0  0  0  0  0  0  0  0
  114.1460  136.1550   62.4760 C   0  0  0  0  0  0  0  0  0  0  0  0
  113.3090  137.2880   62.5740 C   0  0  0  0  0  0  0  0  0  0  0  0
  111.9630  137.2030   62.2770 C   0  0  0  0  0  0  0  0  0  0  0  0
  111.4410  135.9830   61.8810 C   0  0  0  0  0  0  0  0  0  0  0  0
  112.2450  134.8360   61.7650 C   0  0  0  0  0  0  0  0  0  0  0  0
  111.5980  133.6650   61.3420 C   0  0  0  0  0  0  0  0  0  0  0  0
  112.2860  132.4760   61.1820 C   0  0  0  0  0  0  0  0  0  0  0  0
  113.6450  132.4490   61.4390 C   0  0  0  0  0  0  0  0  0  0  0  0
  114.3460  133.5980   61.8690 C   0  0  0  0  0  0  0  0  0  0  0  0
  115.7370  133.4640   62.0640 N   0  0  0  0  0  0  0  0  0  0  0  0
  116.6750  132.4980   61.6600 C   0  0  0  0  0  0  0  0  0  0  0  0
  117.3300  132.6690   60.4330 C   0  0  0  0  0  0  0  0  0  0  0  0
  118.3060  131.7660   60.0000 C   0  0  0  0  0  0  0  0  0  0  0  0
  118.6440  130.6760   60.7950 C   0  0  0  0  0  0  0  0  0  0  0  0
  118.0040  130.4880   62.0170 C   0  0  0  0  0  0  0  0  0  0  0  0
  117.0280  131.3940   62.4440 C   0  0  0  0  0  0  0  0  0  0  0  0
  113.6480  134.8600   62.0570 C   0  0  0  0  0  0  0  0  0  0  0  0
  113.7348  138.2513   62.8912 H   0  0  0  0  0  0  0  0  0  0  0  0
  111.3163  138.0895   62.3537 H   0  0  0  0  0  0  0  0  0  0  0  0
  110.3678  135.9096   61.6510 H   0  0  0  0  0  0  0  0  0  0  0  0
  110.5185  133.6933   61.1328 H   0  0  0  0  0  0  0  0  0  0  0  0
  111.7609  131.5662   60.8556 H   0  0  0  0  0  0  0  0  0  0  0  0
  114.1956  131.5062   61.3048 H   0  0  0  0  0  0  0  0  0  0  0  0
  116.1580  134.2610   62.5670 H   0  0  0  0  0  0  0  0  0  0  0  0
  117.0716  133.5297   59.7986 H   0  0  0  0  0  0  0  0  0  0  0  0
  118.8058  131.9176   59.0319 H   0  0  0  0  0  0  0  0  0  0  0  0
  119.4138  129.9654   60.4596 H   0  0  0  0  0  0  0  0  0  0  0  0
  118.2664  129.6257   62.6475 H   0  0  0  0  0  0  0  0  0  0  0  0
  116.5297  131.2362   63.4119 H   0  0  0  0  0  0  0  0  0  0  0  0
  1  2  2  0
  2  3  2  0
  2  4  1  0
  2  5  1  0
  5  6  2  0
  6  7  1  0
  7  8  2  0
  8  9  1  0
  9 10  2  0
 10 11  1  0
 11 12  2  0
 12 13  1  0
 13 14  1  0
 14 15  1  0
 15 16  2  0
 16 17  1  0
 17 18  2  0
 18 19  1  0
 19 20  2  0
 13 21  2  0
 21  5  1  0
 21  9  1  0
 20 15  1  0
  6 22  1  0
  7 23  1  0
  8 24  1  0
 10 25  1  0
 11 26  1  0
 12 27  1  0
 14 28  1  0
 16 29  1  0
 17 30  1  0
 18 31  1  0
 19 32  1  0
 20 33  1  0
M  CHG  1   4  -1
M  END
>  <meeko>  (2) 
{"is_sidechain": [false], "free_energy": -9.397, "intermolecular_energy": -11.033, "internal_energy": -1.089}

$$$$
3pxf_ligand
     RDKit          3D

 33 35  0  0  0  0  0  0  0  0999 V2000
  116.5190  134.0470   60.4820 O   0  0  0  0  0  0  0  0  0  0  0  0
  116.6500  132.7590   61.1630 S   0  0  0  0  0  0  0  0  0  0  0  0
  117.1620  131.6920   60.3030 O   0  0  0  0  0  0  0  0  0  0  0  0
  115.5310  132.4030   62.0250 O   0  0  0  0  0  0  0  0  0  0  0  0
  118.0020  133.0280   62.3680 C   0  0  0  0  0  0  0  0  0  0  0  0
  119.0890  132.1400   62.2130 C   0  0  0  0  0  0  0  0  0  0  0  0
  120.1730  132.1910   63.0680 C   0  0  0  0  0  0  0  0  0  0  0  0
  120.1780  133.1300   64.0860 C   0  0  0  0  0  0  0  0  0  0  0  0
  119.1170  134.0340   64.2650 C   0  0  0  0  0  0  0  0  0  0  0  0
  119.2500  134.9430   65.3250 C   0  0  0  0  0  0  0  0  0  0  0  0
  118.2750  135.8880   65.5950 C   0  0  0  0  0  0  0  0  0  0  0  0
  117.1500  135.9350   64.7910 C   0  0  0  0  0  0  0  0  0  0  0  0
  116.9650  135.0430   63.7120 C   0  0  0  0  0  0  0  0  0  0  0  0
  115.7980  135.2090   62.9370 N   0  0  0  0  0  0  0  0  0  0  0  0
  114.8550  136.2460   62.8300 C   0  0  0  0  0  0  0  0  0  0  0  0
  113.5050  135.9130   62.6610 C   0  0  0  0  0  0  0  0  0  0  0  0
  112.5170  136.9010   62.5950 C   0  0  0  0  0  0  0  0  0  0  0  0
  112.8690  138.2430   62.7010 C   0  0  0  0  0  0  0  0  0  0  0  0
  114.2060  138.5940   62.8670 C   0  0  0  0  0  0  0  0  0  0  0  0
  115.1890  137.6020   62.9320 C   0  0  0  0  0  0  0  0  0  0  0  0
  117.9660  134.0330   63.4110 C   0  0  0  0  0  0  0  0  0  0  0  0
  119.0724  131.3981   61.4010 H   0  0  0  0  0  0  0  0  0  0  0  0
  121.0177  131.4976   62.9424 H   0  0  0  0  0  0  0  0  0  0  0  0
  121.0360  133.1693   64.7733 H   0  0  0  0  0  0  0  0  0  0  0  0
  120.1499  134.9041   65.9564 H   0  0  0  0  0  0  0  0  0  0  0  0
  118.3927  136.5893   66.4342 H   0  0  0  0  0  0  0  0  0  0  0  0
  116.3769  136.6895   64.9984 H   0  0  0  0  0  0  0  0  0  0  0  0
  115.6270  134.4290   62.2840 H   0  0  0  0  0  0  0  0  0  0  0  0
  113.2164  134.8547   62.5786 H   0  0  0  0  0  0  0  0  0  0  0  0
  111.4629  136.6173   62.4594 H   0  0  0  0  0  0  0  0  0  0  0  0
  112.0946  139.0228   62.6539 H   0  0  0  0  0  0  0  0  0  0  0  0
  114.4895  139.6538   62.9472 H   0  0  0  0  0  0  0  0  0  0  0  0
  116.2418  137.8914   63.0654 H   0  0  0  0  0  0  0  0  0  0  0  0
  1  2  2  0
  2  3  2  0
  2  4  1  0
  2  5  1  0
  5  6  2  0
  6  7  1  0
  7  8  2  0
  8  9  1  0
  9 10  2  0
 10 11  1  0
 11 12  2  0
 12 13  1  0
 13 14  1  0
 14 15  1  0
 15 16  2  0
 16 17  1  0
 17 18  2  0
 18 19  1  0
 19 20  2  0
 13 21  2  0
 21  5  1  0
 21  9  1  0
 20 15  1  0
  6 22  1  0
  7 23  1  0
  8 24  1  0
 10 25  1  0
 11 26  1  0
 12 27  1  0
 14 28  1  0
 16 29  1  0
 17 30  1  0
 18 31  1  0
 19 32  1  0
 20 33  1  0
M  CHG  1   4  -1
M  END
>  <meeko>  (3) 
{"is_sidechain": [false], "free_energy": -9.095, "intermolecular_energy": -11.021, "internal_energy": -0.747}

$$$$
3pxf_ligand
     RDKit          3D

 33 35  0  0  0  0  0  0  0  0999 V2000
  112.7370  132.1550   60.3870 O   0  0  0  0  0  0  0  0  0  0  0  0
  113.8740  132.8630   60.9730 S   0  0  0  0  0  0  0  0  0  0  0  0
  114.8700  133.2880   59.9880 O   0  0  0  0  0  0  0  0  0  0  0  0
  114.3980  132.2770   62.1990 O   0  0  0  0  0  0  0  0  0  0  0  0
  113.1580  134.4390   61.5680 C   0  0  0  0  0  0  0  0  0  0  0  0
  111.7520  134.5050   61.4560 C   0  0  0  0  0  0  0  0  0  0  0  0
  111.0640  135.6440   61.8300 C   0  0  0  0  0  0  0  0  0  0  0  0
  111.7770  136.7260   62.3190 C   0  0  0  0  0  0  0  0  0  0  0  0
  113.1760  136.6920   62.4510 C   0  0  0  0  0  0  0  0  0  0  0  0
  113.7770  137.8490   62.9700 C   0  0  0  0  0  0  0  0  0  0  0  0
  115.1460  137.9310   63.1560 C   0  0  0  0  0  0  0  0  0  0  0  0
  115.9320  136.8430   62.8260 C   0  0  0  0  0  0  0  0  0  0  0  0
  115.3790  135.6550   62.2980 C   0  0  0  0  0  0  0  0  0  0  0  0
  116.2720  134.5940   62.0340 N   0  0  0  0  0  0  0  0  0  0  0  0
  117.3360  134.0310   62.7610 C   0  0  0  0  0  0  0  0  0  0  0  0
  117.6350  134.5520   64.0270 C   0  0  0  0  0  0  0  0  0  0  0  0
  118.6510  134.0020   64.8160 C   0  0  0  0  0  0  0  0  0  0  0  0
  119.3820  132.9160   64.3470 C   0  0  0  0  0  0  0  0  0  0  0  0
  119.1010  132.3850   63.0910 C   0  0  0  0  0  0  0  0  0  0  0  0
  118.0850  132.9390   62.3070 C   0  0  0  0  0  0  0  0  0  0  0  0
  113.9460  135.5410   62.0820 C   0  0  0  0  0  0  0  0  0  0  0  0
  111.1971  133.6389   61.0661 H   0  0  0  0  0  0  0  0  0  0  0  0
  109.9686  135.6903   61.7408 H   0  0  0  0  0  0  0  0  0  0  0  0
  111.2338  137.6365   62.6120 H   0  0  0  0  0  0  0  0  0  0  0  0
  113.1459  138.7101   63.2350 H   0  0  0  0  0  0  0  0  0  0  0  0
  115.6012  138.8473   63.5600 H   0  0  0  0  0  0  0  0  0  0  0  0
  117.0196  136.9039   62.9789 H   0  0  0  0  0  0  0  0  0  0  0  0
  116.0750  134.1040   61.1480 H   0  0  0  0  0  0  0  0  0  0  0  0
  117.0603  135.4093   64.4075 H   0  0  0  0  0  0  0  0  0  0  0  0
  118.8713  134.4280   65.8059 H   0  0  0  0  0  0  0  0  0  0  0  0
  120.1791  132.4782   64.9659 H   0  0  0  0  0  0  0  0  0  0  0  0
  119.6794  131.5282   62.7151 H   0  0  0  0  0  0  0  0  0  0  0  0
  117.8705  132.5099   61.3171 H   0  0  0  0  0  0  0  0  0  0  0  0
  1  2  2  0
  2  3  2  0
  2  4  1  0
  2  5  1  0
  5  6  2  0
  6  7  1  0
  7  8  2  0
  8  9  1  0
  9 10  2  0
 10 11  1  0
 11 12  2  0
 12 13  1  0
 13 14  1  0
 14 15  1  0
 15 16  2  0
 16 17  1  0
 17 18  2  0
 18 19  1  0
 19 20  2  0
 13 21  2  0
 21  5  1  0
 21  9  1  0
 20 15  1  0
  6 22  1  0
  7 23  1  0
  8 24  1  0
 10 25  1  0
 11 26  1  0
 12 27  1  0
 14 28  1  0
 16 29  1  0
 17 30  1  0
 18 31  1  0
 19 32  1  0
 20 33  1  0
M  CHG  1   4  -1
M  END
>  <meeko>  (4) 
{"is_sidechain": [false], "free_energy": -8.719, "intermolecular_energy": -10.604, "internal_energy": -0.722}

$$$$
3pxf_ligand
     RDKit          3D

 33 35  0  0  0  0  0  0  0  0999 V2000
  120.4960  134.5560   64.7110 O   0  0  0  0  0  0  0  0  0  0  0  0
  119.0780  134.3570   65.0070 S   0  0  0  0  0  0  0  0  0  0  0  0
  118.4490  135.5060   65.6590 O   0  0  0  0  0  0  0  0  0  0  0  0
  118.7420  133.0500   65.5540 O   0  0  0  0  0  0  0  0  0  0  0  0
  118.2820  134.3080   63.3600 C   0  0  0  0  0  0  0  0  0  0  0  0
  117.3590  135.3530   63.1400 C   0  0  0  0  0  0  0  0  0  0  0  0
  116.6480  135.4350   61.9580 C   0  0  0  0  0  0  0  0  0  0  0  0
  116.8540  134.4710   60.9860 C   0  0  0  0  0  0  0  0  0  0  0  0
  117.7700  133.4210   61.1670 C   0  0  0  0  0  0  0  0  0  0  0  0
  117.8950  132.5170   60.1010 C   0  0  0  0  0  0  0  0  0  0  0  0
  118.7720  131.4480   60.1580 C   0  0  0  0  0  0  0  0  0  0  0  0
  119.5450  131.2770   61.2930 C   0  0  0  0  0  0  0  0  0  0  0  0
  119.4580  132.1560   62.3950 C   0  0  0  0  0  0  0  0  0  0  0  0
  120.3220  131.9070   63.4830 N   0  0  0  0  0  0  0  0  0  0  0  0
  121.4480  131.0820   63.6450 C   0  0  0  0  0  0  0  0  0  0  0  0
  122.7110  131.6810   63.7500 C   0  0  0  0  0  0  0  0  0  0  0  0
  123.8620  130.9140   63.9600 C   0  0  0  0  0  0  0  0  0  0  0  0
  123.7640  129.5310   64.0720 C   0  0  0  0  0  0  0  0  0  0  0  0
  122.5180  128.9170   63.9680 C   0  0  0  0  0  0  0  0  0  0  0  0
  121.3710  129.6890   63.7580 C   0  0  0  0  0  0  0  0  0  0  0  0
  118.5390  133.2820   62.3690 C   0  0  0  0  0  0  0  0  0  0  0  0
  117.2036  136.1126   63.9203 H   0  0  0  0  0  0  0  0  0  0  0  0
  115.9306  136.2522   61.7922 H   0  0  0  0  0  0  0  0  0  0  0  0
  116.2850  134.5286   60.0463 H   0  0  0  0  0  0  0  0  0  0  0  0
  117.2817  132.6614   59.1993 H   0  0  0  0  0  0  0  0  0  0  0  0
  118.8533  130.7459   59.3151 H   0  0  0  0  0  0  0  0  0  0  0  0
  120.2476  130.4319   61.3382 H   0  0  0  0  0  0  0  0  0  0  0  0
  120.1100  132.4830   64.3130 H   0  0  0  0  0  0  0  0  0  0  0  0
  122.7987  132.7743   63.6657 H   0  0  0  0  0  0  0  0  0  0  0  0
  124.8437  131.4042   64.0365 H   0  0  0  0  0  0  0  0  0  0  0  0
  124.6662  128.9250   64.2419 H   0  0  0  0  0  0  0  0  0  0  0  0
  122.4361  127.8232   64.0512 H   0  0  0  0  0  0  0  0  0  0  0  0
  120.3921  129.1933   63.6803 H   0  0  0  0  0  0  0  0  0  0  0  0
  1  2  2  0
  2  3  2  0
  2  4  1  0
  2  5  1  0
  5  6  2  0
  6  7  1  0
  7  8  2  0
  8  9  1  0
  9 10  2  0
 10 11  1  0
 11 12  2  0
 12 13  1  0
 13 14  1  0
 14 15  1  0
 15 16  2  0
 16 17  1  0
 17 18  2  0
 18 19  1  0
 19 20  2  0
 13 21  2  0
 21  5  1  0
 21  9  1  0
 20 15  1  0
  6 22  1  0
  7 23  1  0
  8 24  1  0
 10 25  1  0
 11 26  1  0
 12 27  1  0
 14 28  1  0
 16 29  1  0
 17 30  1  0
 18 31  1  0
 19 32  1  0
 20 33  1  0
M  CHG  1   4  -1
M  END
>  <meeko>  (5) 
{"is_sidechain": [false], "free_energy": -8.409, "intermolecular_energy": -9.976, "internal_energy": -0.986}

$$$$
3pxf_ligand
     RDKit          3D

 33 35  0  0  0  0  0  0  0  0999 V2000
  118.0070  130.4660   61.7960 O   0  0  0  0  0  0  0  0  0  0  0  0
  118.3840  131.5120   60.8460 S   0  0  0  0  0  0  0  0  0  0  0  0
  117.6570  131.4420   59.5780 O   0  0  0  0  0  0  0  0  0  0  0  0
  119.8140  131.7680   60.7480 O   0  0  0  0  0  0  0  0  0  0  0  0
  117.7630  133.0540   61.6120 C   0  0  0  0  0  0  0  0  0  0  0  0
  116.8270  133.7510   60.8170 C   0  0  0  0  0  0  0  0  0  0  0  0
  116.2910  134.9520   61.2400 C   0  0  0  0  0  0  0  0  0  0  0  0
  116.6880  135.4670   62.4630 C   0  0  0  0  0  0  0  0  0  0  0  0
  117.6110  134.7980   63.2840 C   0  0  0  0  0  0  0  0  0  0  0  0
  117.9210  135.4190   64.5030 C   0  0  0  0  0  0  0  0  0  0  0  0
  118.8090  134.8520   65.4000 C   0  0  0  0  0  0  0  0  0  0  0  0
  119.3960  133.6400   65.0830 C   0  0  0  0  0  0  0  0  0  0  0  0
  119.1220  132.9720   63.8690 C   0  0  0  0  0  0  0  0  0  0  0  0
  119.7480  131.7240   63.6680 N   0  0  0  0  0  0  0  0  0  0  0  0
  121.0690  131.2740   63.8380 C   0  0  0  0  0  0  0  0  0  0  0  0
  121.2940  129.9020   64.0170 C   0  0  0  0  0  0  0  0  0  0  0  0
  122.5900  129.3910   64.1440 C   0  0  0  0  0  0  0  0  0  0  0  0
  123.6830  130.2490   64.0890 C   0  0  0  0  0  0  0  0  0  0  0  0
  123.4800  131.6150   63.9130 C   0  0  0  0  0  0  0  0  0  0  0  0
  122.1820  132.1200   63.7870 C   0  0  0  0  0  0  0  0  0  0  0  0
  118.2010  133.5480   62.9020 C   0  0  0  0  0  0  0  0  0  0  0  0
  116.5203  133.3319   59.8473 H   0  0  0  0  0  0  0  0  0  0  0  0
  115.5617  135.4899   60.6165 H   0  0  0  0  0  0  0  0  0  0  0  0
  116.2690  136.4263   62.8007 H   0  0  0  0  0  0  0  0  0  0  0  0
  117.4468  136.3798   64.7518 H   0  0  0  0  0  0  0  0  0  0  0  0
  119.0442  135.3563   66.3489 H   0  0  0  0  0  0  0  0  0  0  0  0
  120.0967  133.1831   65.7974 H   0  0  0  0  0  0  0  0  0  0  0  0
  119.0930  130.9790   63.3830 H   0  0  0  0  0  0  0  0  0  0  0  0
  120.4360  129.2148   64.0583 H   0  0  0  0  0  0  0  0  0  0  0  0
  122.7444  128.3114   64.2873 H   0  0  0  0  0  0  0  0  0  0  0  0
  124.7037  129.8500   64.1842 H   0  0  0  0  0  0  0  0  0  0  0  0
  124.3415  132.2978   63.8730 H   0  0  0  0  0  0  0  0  0  0  0  0
  122.0337  133.2007   63.6454 H   0  0  0  0  0  0  0  0  0  0  0  0
  1  2  2  0
  2  3  2  0
  2  4  1  0
  2  5  1  0
  5  6  2  0
  6  7  1  0
  7  8  2  0
  8  9  1  0
  9 10  2  0
 10 11  1  0
 11 12  2  0
 12 13  1  0
 13 14  1  0
 14 15  1  0
 15 16  2  0
 16 17  1  0
 17 18  2  0
 18 19  1  0
 19 20  2  0
 13 21  2  0
 21  5  1  0
 21  9  1  0
 20 15  1  0
  6 22  1  0
  7 23  1  0
  8 24  1  0
 10 25  1  0
 11 26  1  0
 12 27  1  0
 14 28  1  0
 16 29  1  0
 17 30  1  0
 18 31  1  0
 19 32  1  0
 20 33  1  0
M  CHG  1   4  -1
M  END
>  <meeko>  (6) 
{"is_sidechain": [false], "free_energy": -8.355, "intermolecular_energy": -9.917, "internal_energy": -0.982}

$$$$
3pxf_ligand
     RDKit          3D

 33 35  0  0  0  0  0  0  0  0999 V2000
  117.3170  132.6030   60.3480 O   0  0  0  0  0  0  0  0  0  0  0  0
  117.6140  131.6280   61.3980 S   0  0  0  0  0  0  0  0  0  0  0  0
  118.5810  130.6070   60.9930 O   0  0  0  0  0  0  0  0  0  0  0  0
  116.4550  131.1520   62.1400 O   0  0  0  0  0  0  0  0  0  0  0  0
  118.5160  132.5970   62.6620 C   0  0  0  0  0  0  0  0  0  0  0  0
  119.8050  132.0990   62.9500 C   0  0  0  0  0  0  0  0  0  0  0  0
  120.5990  132.6990   63.9090 C   0  0  0  0  0  0  0  0  0  0  0  0
  120.1090  133.8030   64.5880 C   0  0  0  0  0  0  0  0  0  0  0  0
  118.8340  134.3290   64.3220 C   0  0  0  0  0  0  0  0  0  0  0  0
  118.4610  135.4560   65.0700 C   0  0  0  0  0  0  0  0  0  0  0  0
  117.2340  136.0700   64.8900 C   0  0  0  0  0  0  0  0  0  0  0  0
  116.3630  135.5590   63.9450 C   0  0  0  0  0  0  0  0  0  0  0  0
  116.6870  134.4260   63.1660 C   0  0  0  0  0  0  0  0  0  0  0  0
  115.7380  134.0160   62.2050 N   0  0  0  0  0  0  0  0  0  0  0  0
  114.3330  134.0500   62.1680 C   0  0  0  0  0  0  0  0  0  0  0  0
  113.6950  135.2790   61.9540 C   0  0  0  0  0  0  0  0  0  0  0  0
  112.3030  135.3670   61.8610 C   0  0  0  0  0  0  0  0  0  0  0  0
  111.5250  134.2190   61.9770 C   0  0  0  0  0  0  0  0  0  0  0  0
  112.1400  132.9880   62.1910 C   0  0  0  0  0  0  0  0  0  0  0  0
  113.5330  132.9070   62.2840 C   0  0  0  0  0  0  0  0  0  0  0  0
  117.9640  133.7540   63.3390 C   0  0  0  0  0  0  0  0  0  0  0  0
  120.1825  131.2219   62.4040 H   0  0  0  0  0  0  0  0  0  0  0  0
  121.6028  132.3068   64.1295 H   0  0  0  0  0  0  0  0  0  0  0  0
  120.7353  134.2804   65.3560 H   0  0  0  0  0  0  0  0  0  0  0  0
  119.1600  135.8608   65.8167 H   0  0  0  0  0  0  0  0  0  0  0  0
  116.9560  136.9500   65.4886 H   0  0  0  0  0  0  0  0  0  0  0  0
  115.3896  136.0491   63.7956 H   0  0  0  0  0  0  0  0  0  0  0  0
  116.1650  133.6620   61.3350 H   0  0  0  0  0  0  0  0  0  0  0  0
  114.3010  136.1919   61.8573 H   0  0  0  0  0  0  0  0  0  0  0  0
  111.8230  136.3429   61.6963 H   0  0  0  0  0  0  0  0  0  0  0  0
  110.4296  134.2836   61.9000 H   0  0  0  0  0  0  0  0  0  0  0  0
  111.5293  132.0782   62.2870 H   0  0  0  0  0  0  0  0  0  0  0  0
  114.0080  131.9290   62.4511 H   0  0  0  0  0  0  0  0  0  0  0  0
  1  2  2  0
  2  3  2  0
  2  4  1  0
  2  5  1  0
  5  6  2  0
  6  7  1  0
  7  8  2  0
  8  9  1  0
  9 10  2  0
 10 11  1  0
 11 12  2  0
 12 13  1  0
 13 14  1  0
 14 15  1  0
 15 16  2  0
 16 17  1  0
 17 18  2  0
 18 19  1  0
 19 20  2  0
 13 21  2  0
 21  5  1  0
 21  9  1  0
 20 15  1  0
  6 22  1  0
  7 23  1  0
  8 24  1  0
 10 25  1  0
 11 26  1  0
 12 27  1  0
 14 28  1  0
 16 29  1  0
 17 30  1  0
 18 31  1  0
 19 32  1  0
 20 33  1  0
M  CHG  1   4  -1
M  END
>  <meeko>  (7) 
{"is_sidechain": [false], "free_energy": -8.228, "intermolecular_energy": -9.846, "internal_energy": -0.903}

$$$$
3pxf_ligand
     RDKit          3D

 33 35  0  0  0  0  0  0  0  0999 V2000
  118.2970  135.7170   64.4940 O   0  0  0  0  0  0  0  0  0  0  0  0
  116.9490  135.7980   63.9340 S   0  0  0  0  0  0  0  0  0  0  0  0
  116.7380  136.9670   63.0800 O   0  0  0  0  0  0  0  0  0  0  0  0
  115.8760  135.4880   64.8690 O   0  0  0  0  0  0  0  0  0  0  0  0
  116.8670  134.3910   62.7660 C   0  0  0  0  0  0  0  0  0  0  0  0
  118.0730  133.6620   62.6650 C   0  0  0  0  0  0  0  0  0  0  0  0
  118.1840  132.5910   61.7980 C   0  0  0  0  0  0  0  0  0  0  0  0
  117.0900  132.2420   61.0230 C   0  0  0  0  0  0  0  0  0  0  0  0
  115.8740  132.9410   61.1030 C   0  0  0  0  0  0  0  0  0  0  0  0
  114.8390  132.4800   60.2740 C   0  0  0  0  0  0  0  0  0  0  0  0
  113.5930  133.0800   60.2700 C   0  0  0  0  0  0  0  0  0  0  0  0
  113.3660  134.1550   61.1110 C   0  0  0  0  0  0  0  0  0  0  0  0
  114.3720  134.6610   61.9640 C   0  0  0  0  0  0  0  0  0  0  0  0
  114.0170  135.7360   62.8060 N   0  0  0  0  0  0  0  0  0  0  0  0
  113.2610  136.9040   62.6060 C   0  0  0  0  0  0  0  0  0  0  0  0
  113.8030  138.1320   63.0080 C   0  0  0  0  0  0  0  0  0  0  0  0
  113.1180  139.3320   62.7910 C   0  0  0  0  0  0  0  0  0  0  0  0
  111.8770  139.3200   62.1630 C   0  0  0  0  0  0  0  0  0  0  0  0
  111.3210  138.1100   61.7570 C   0  0  0  0  0  0  0  0  0  0  0  0
  112.0110  136.9130   61.9760 C   0  0  0  0  0  0  0  0  0  0  0  0
  115.6940  134.0580   61.9830 C   0  0  0  0  0  0  0  0  0  0  0  0
  118.9350  133.9504   63.2844 H   0  0  0  0  0  0  0  0  0  0  0  0
  119.1247  132.0257   61.7247 H   0  0  0  0  0  0  0  0  0  0  0  0
  117.1758  131.3950   60.3264 H   0  0  0  0  0  0  0  0  0  0  0  0
  115.0235  131.6212   59.6119 H   0  0  0  0  0  0  0  0  0  0  0  0
  112.7957  132.7088   59.6093 H   0  0  0  0  0  0  0  0  0  0  0  0
  112.3735  134.6293   61.1155 H   0  0  0  0  0  0  0  0  0  0  0  0
  114.3400  135.6170   63.7790 H   0  0  0  0  0  0  0  0  0  0  0  0
  114.7850  138.1527   63.5032 H   0  0  0  0  0  0  0  0  0  0  0  0
  113.5606  140.2849   63.1169 H   0  0  0  0  0  0  0  0  0  0  0  0
  111.3373  140.2624   61.9879 H   0  0  0  0  0  0  0  0  0  0  0  0
  110.3380  138.0952   61.2635 H   0  0  0  0  0  0  0  0  0  0  0  0
  111.5639  135.9631   61.6477 H   0  0  0  0  0  0  0  0  0  0  0  0
  1  2  2  0
  2  3  2  0
  2  4  1  0
  2  5  1  0
  5  6  2  0
  6  7  1  0
  7  8  2  0
  8  9  1  0
  9 10  2  0
 10 11  1  0
 11 12  2  0
 12 13  1  0
 13 14  1  0
 14 15  1  0
 15 16  2  0
 16 17  1  0
 17 18  2  0
 18 19  1  0
 19 20  2  0
 13 21  2  0
 21  5  1  0
 21  9  1  0
 20 15  1  0
  6 22  1  0
  7 23  1  0
  8 24  1  0
 10 25  1  0
 11 26  1  0
 12 27  1  0
 14 28  1  0
 16 29  1  0
 17 30  1  0
 18 31  1  0
 19 32  1  0
 20 33  1  0
M  CHG  1   4  -1
M  END
>  <meeko>  (8) 
{"is_sidechain": [false], "free_energy": -8.192, "intermolecular_energy": -10.068, "internal_energy": -0.638}

$$$$
3pxf_ligand
     RDKit          3D

 33 35  0  0  0  0  0  0  0  0999 V2000
  117.1200  130.1240   62.6540 O   0  0  0  0  0  0  0  0  0  0  0  0
  118.3310  130.4790   61.9140 S   0  0  0  0  0  0  0  0  0  0  0  0
  118.0650  131.0900   60.6120 O   0  0  0  0  0  0  0  0  0  0  0  0
  119.3860  129.4750   61.9440 O   0  0  0  0  0  0  0  0  0  0  0  0
  119.0640  131.8440   62.8890 C   0  0  0  0  0  0  0  0  0  0  0  0
  120.3980  131.6090   63.2880 C   0  0  0  0  0  0  0  0  0  0  0  0
  121.0800  132.5300   64.0600 C   0  0  0  0  0  0  0  0  0  0  0  0
  120.4330  133.6940   64.4410 C   0  0  0  0  0  0  0  0  0  0  0  0
  119.1090  133.9630   64.0560 C   0  0  0  0  0  0  0  0  0  0  0  0
  118.5720  135.1830   64.4970 C   0  0  0  0  0  0  0  0  0  0  0  0
  117.2810  135.5640   64.1750 C   0  0  0  0  0  0  0  0  0  0  0  0
  116.5110  134.7220   63.3930 C   0  0  0  0  0  0  0  0  0  0  0  0
  117.0010  133.4830   62.9240 C   0  0  0  0  0  0  0  0  0  0  0  0
  116.1410  132.7240   62.1020 N   0  0  0  0  0  0  0  0  0  0  0  0
  114.7730  132.8230   61.7930 C   0  0  0  0  0  0  0  0  0  0  0  0
  113.8420  132.2540   62.6730 C   0  0  0  0  0  0  0  0  0  0  0  0
  112.4670  132.3610   62.4420 C   0  0  0  0  0  0  0  0  0  0  0  0
  112.0020  133.0460   61.3240 C   0  0  0  0  0  0  0  0  0  0  0  0
  112.9110  133.6170   60.4380 C   0  0  0  0  0  0  0  0  0  0  0  0
  114.2850  133.5070   60.6730 C   0  0  0  0  0  0  0  0  0  0  0  0
  118.3480  133.0500   63.2550 C   0  0  0  0  0  0  0  0  0  0  0  0
  120.9009  130.6804   62.9802 H   0  0  0  0  0  0  0  0  0  0  0  0
  122.1194  132.3419   64.3669 H   0  0  0  0  0  0  0  0  0  0  0  0
  120.9699  134.4269   65.0612 H   0  0  0  0  0  0  0  0  0  0  0  0
  119.1917  135.8515   65.1127 H   0  0  0  0  0  0  0  0  0  0  0  0
  116.8740  136.5205   64.5350 H   0  0  0  0  0  0  0  0  0  0  0  0
  115.4874  135.0261   63.1287 H   0  0  0  0  0  0  0  0  0  0  0  0
  116.6250  131.9710   61.5890 H   0  0  0  0  0  0  0  0  0  0  0  0
  114.1996  131.7133   63.5617 H   0  0  0  0  0  0  0  0  0  0  0  0
  111.7537  131.9039   63.1436 H   0  0  0  0  0  0  0  0  0  0  0  0
  110.9211  133.1360   61.1411 H   0  0  0  0  0  0  0  0  0  0  0  0
  112.5476  134.1561   59.5507 H   0  0  0  0  0  0  0  0  0  0  0  0
  114.9935  133.9649   59.9670 H   0  0  0  0  0  0  0  0  0  0  0  0
  1  2  2  0
  2  3  2  0
  2  4  1  0
  2  5  1  0
  5  6  2  0
  6  7  1  0
  7  8  2  0
  8  9  1  0
  9 10  2  0
 10 11  1  0
 11 12  2  0
 12 13  1  0
 13 14  1  0
 14 15  1  0
 15 16  2  0
 16 17  1  0
 17 18  2  0
 18 19  1  0
 19 20  2  0
 13 21  2  0
 21  5  1  0
 21  9  1  0
 20 15  1  0
  6 22  1  0
  7 23  1  0
  8 24  1  0
 10 25  1  0
 11 26  1  0
 12 27  1  0
 14 28  1  0
 16 29  1  0
 17 30  1  0
 18 31  1  0
 19 32  1  0
 20 33  1  0
M  CHG  1   4  -1
M  END
>  <meeko>  (9) 
{"is_sidechain": [false], "free_energy": -7.984, "intermolecular_energy": -9.372, "internal_energy": -1.09}

$$$$
