1gpn_ligand
     RDKit          3D

 40 43  0  0  0  0  0  0  0  0999 V2000
    5.9200   69.4710   65.8160 C   0  0  0  0  0  0  0  0  0  0  0  0
    4.9510   68.9890   64.7730 C   0  0  0  0  0  0  0  0  0  0  0  0
    5.2230   69.0660   63.4540 C   0  0  0  0  0  0  0  0  0  0  0  0
    4.2620   68.6210   62.3600 C   0  0  1  0  0  0  0  0  0  0  0  0
    4.6590   67.2340   61.8260 C   0  0  0  0  0  0  0  0  0  0  0  0
    4.2780   66.1210   62.7760 C   0  0  0  0  0  0  0  0  0  0  0  0
    4.7970   64.8770   62.4990 N   0  0  0  0  0  0  0  0  0  0  0  0
    4.5970   63.7560   63.2630 C   0  0  0  0  0  0  0  0  0  0  0  0
    5.0530   62.6590   62.9760 O   0  0  0  0  0  0  0  0  0  0  0  0
    3.7860   63.9590   64.4870 C   0  0  0  0  0  0  0  0  0  0  0  0
    3.2790   65.1690   64.7590 C   0  0  0  0  0  0  0  0  0  0  0  0
    3.4910   66.3030   63.8600 C   0  0  0  0  0  0  0  0  0  0  0  0
    2.8420   67.6660   64.1740 C   0  0  2  0  0  0  0  0  0  0  0  0
    3.6520   68.3920   65.2910 C   0  0  0  0  0  0  0  0  0  0  0  0
    1.3980   67.4650   64.6300 N   0  0  0  0  0  0  0  0  0  0  0  0
    0.3960   68.4410   64.1160 C   0  0  0  0  0  0  0  0  0  0  0  0
    0.3480   68.3630   62.5950 C   0  0  0  0  0  0  0  0  0  0  0  0
    1.7300   68.2420   61.9400 C   0  0  0  0  0  0  0  0  0  0  0  0
    2.8350   68.6080   62.9350 C   0  0  2  0  0  0  0  0  0  0  0  0
    5.5120   69.2681   66.8172 H   0  0  0  0  0  0  0  0  0  0  0  0
    6.8786   68.9447   65.6971 H   0  0  0  0  0  0  0  0  0  0  0  0
    6.0786   70.5530   65.6971 H   0  0  0  0  0  0  0  0  0  0  0  0
    6.1980   69.4750   63.1504 H   0  0  0  0  0  0  0  0  0  0  0  0
    4.3055   69.3226   61.5139 H   0  0  0  0  0  0  0  0  0  0  0  0
    4.1517   67.0670   60.8643 H   0  0  0  0  0  0  0  0  0  0  0  0
    5.7530   67.2185   61.7121 H   0  0  0  0  0  0  0  0  0  0  0  0
    5.3860   64.7320   61.6840 H   0  0  0  0  0  0  0  0  0  0  0  0
    3.6007   63.1176   65.1709 H   0  0  0  0  0  0  0  0  0  0  0  0
    2.6911   65.3125   65.6776 H   0  0  0  0  0  0  0  0  0  0  0  0
    3.0330   69.2007   65.7067 H   0  0  0  0  0  0  0  0  0  0  0  0
    3.9090   67.6453   66.0568 H   0  0  0  0  0  0  0  0  0  0  0  0
    1.0960   66.5310   64.3190 H   0  0  0  0  0  0  0  0  0  0  0  0
    1.3600   67.4390   65.6560 H   0  0  0  0  0  0  0  0  0  0  0  0
   -0.5954   68.2003   64.5273 H   0  0  0  0  0  0  0  0  0  0  0  0
    0.6822   69.4578   64.4230 H   0  0  0  0  0  0  0  0  0  0  0  0
   -0.2491   67.4839   62.3110 H   0  0  0  0  0  0  0  0  0  0  0  0
   -0.0955   69.3044   62.2386 H   0  0  0  0  0  0  0  0  0  0  0  0
    1.8789   67.2065   61.5999 H   0  0  0  0  0  0  0  0  0  0  0  0
    1.7788   68.9348   61.0870 H   0  0  0  0  0  0  0  0  0  0  0  0
    2.5753   69.6394   63.2157 H   0  0  0  0  0  0  0  0  0  0  0  0
  1  2  1  0
  2  3  2  0
  3  4  1  0
  4  5  1  0
  5  6  1  0
  6  7  1  0
  7  8  1  0
  8  9  2  0
  8 10  1  0
 10 11  2  0
 11 12  1  0
 12 13  1  0
 13 14  1  1
 13 15  1  0
 15 16  1  0
 16 17  1  0
 17 18  1  0
 18 19  1  0
 14  2  1  0
 19  4  1  0
 12  6  2  0
 19 13  1  0
  1 20  1  0
  1 21  1  0
  1 22  1  0
  3 23  1  0
  4 24  1  6
  5 25  1  0
  5 26  1  0
  7 27  1  0
 10 28  1  0
 11 29  1  0
 14 30  1  0
 14 31  1  0
 15 32  1  0
 15 33  1  0
 16 34  1  0
 16 35  1  0
 17 36  1  0
 17 37  1  0
 18 38  1  0
 18 39  1  0
 19 40  1  1
M  CHG  1  15   1
M  END
>  <meeko>  (1) 
{"is_sidechain": [false], "free_energy": -11.56, "intermolecular_energy": -11.56, "internal_energy": 0.0}

$$$$
1gpn_ligand
     RDKit          3D

 40 43  0  0  0  0  0  0  0  0999 V2000
    3.4460   63.8980   64.4410 C   0  0  0  0  0  0  0  0  0  0  0  0
    3.9320   65.2790   64.0990 C   0  0  0  0  0  0  0  0  0  0  0  0
    4.7700   65.5070   63.0660 C   0  0  0  0  0  0  0  0  0  0  0  0
    5.3130   66.8810   62.6990 C   0  0  1  0  0  0  0  0  0  0  0  0
    4.5310   67.4710   61.5120 C   0  0  0  0  0  0  0  0  0  0  0  0
    3.1710   67.9890   61.9200 C   0  0  0  0  0  0  0  0  0  0  0  0
    2.3100   68.3160   60.8970 N   0  0  0  0  0  0  0  0  0  0  0  0
    1.0250   68.7640   61.0670 C   0  0  0  0  0  0  0  0  0  0  0  0
    0.2940   69.0710   60.1370 O   0  0  0  0  0  0  0  0  0  0  0  0
    0.5630   68.8490   62.4720 C   0  0  0  0  0  0  0  0  0  0  0  0
    1.3990   68.5320   63.4710 C   0  0  0  0  0  0  0  0  0  0  0  0
    2.7760   68.1160   63.2070 C   0  0  0  0  0  0  0  0  0  0  0  0
    3.7270   67.8160   64.3830 C   0  0  2  0  0  0  0  0  0  0  0  0
    3.4100   66.4080   64.9720 C   0  0  0  0  0  0  0  0  0  0  0  0
    3.5700   68.8790   65.4670 N   0  0  0  0  0  0  0  0  0  0  0  0
    4.8230   69.3520   66.1220 C   0  0  0  0  0  0  0  0  0  0  0  0
    5.7340   69.9820   65.0750 C   0  0  0  0  0  0  0  0  0  0  0  0
    5.7870   69.2030   63.7550 C   0  0  0  0  0  0  0  0  0  0  0  0
    5.2180   67.7930   63.9350 C   0  0  2  0  0  0  0  0  0  0  0  0
    3.4058   63.7837   65.5343 H   0  0  0  0  0  0  0  0  0  0  0  0
    2.4411   63.7481   64.0195 H   0  0  0  0  0  0  0  0  0  0  0  0
    4.1355   63.1518   64.0195 H   0  0  0  0  0  0  0  0  0  0  0  0
    5.0793   64.6482   62.4522 H   0  0  0  0  0  0  0  0  0  0  0  0
    6.3651   66.7977   62.3891 H   0  0  0  0  0  0  0  0  0  0  0  0
    5.1117   68.3014   61.0839 H   0  0  0  0  0  0  0  0  0  0  0  0
    4.3776   66.6665   60.7776 H   0  0  0  0  0  0  0  0  0  0  0  0
    2.6010   68.2270   59.9280 H   0  0  0  0  0  0  0  0  0  0  0  0
   -0.4646   69.1718   62.6953 H   0  0  0  0  0  0  0  0  0  0  0  0
    1.0421   68.5859   64.5101 H   0  0  0  0  0  0  0  0  0  0  0  0
    3.8749   66.3289   65.9658 H   0  0  0  0  0  0  0  0  0  0  0  0
    2.3159   66.3083   65.0272 H   0  0  0  0  0  0  0  0  0  0  0  0
    3.1250   69.7020   65.0400 H   0  0  0  0  0  0  0  0  0  0  0  0
    2.9110   68.5490   66.1830 H   0  0  0  0  0  0  0  0  0  0  0  0
    4.5760   70.0989   66.8909 H   0  0  0  0  0  0  0  0  0  0  0  0
    5.3366   68.5001   66.5916 H   0  0  0  0  0  0  0  0  0  0  0  0
    5.3698   70.9983   64.8641 H   0  0  0  0  0  0  0  0  0  0  0  0
    6.7522   69.9790   65.4912 H   0  0  0  0  0  0  0  0  0  0  0  0
    5.1955   69.7369   62.9967 H   0  0  0  0  0  0  0  0  0  0  0  0
    6.8360   69.1225   63.4339 H   0  0  0  0  0  0  0  0  0  0  0  0
    5.8655   67.3693   64.7168 H   0  0  0  0  0  0  0  0  0  0  0  0
  1  2  1  0
  2  3  2  0
  3  4  1  0
  4  5  1  0
  5  6  1  0
  6  7  1  0
  7  8  1  0
  8  9  2  0
  8 10  1  0
 10 11  2  0
 11 12  1  0
 12 13  1  0
 13 14  1  1
 13 15  1  0
 15 16  1  0
 16 17  1  0
 17 18  1  0
 18 19  1  0
 14  2  1  0
 19  4  1  0
 12  6  2  0
 19 13  1  0
  1 20  1  0
  1 21  1  0
  1 22  1  0
  3 23  1  0
  4 24  1  6
  5 25  1  0
  5 26  1  0
  7 27  1  0
 10 28  1  0
 11 29  1  0
 14 30  1  0
 14 31  1  0
 15 32  1  0
 15 33  1  0
 16 34  1  0
 16 35  1  0
 17 36  1  0
 17 37  1  0
 18 38  1  0
 18 39  1  0
 19 40  1  1
M  CHG  1  15   1
M  END
>  <meeko>  (2) 
{"is_sidechain": [false], "free_energy": -10.525, "intermolecular_energy": -10.525, "internal_energy": 0.0}

$$$$
1gpn_ligand
     RDKit          3D

 40 43  0  0  0  0  0  0  0  0999 V2000
    5.9130   70.0510   65.4430 C   0  0  0  0  0  0  0  0  0  0  0  0
    4.9730   68.9030   65.2080 C   0  0  0  0  0  0  0  0  0  0  0  0
    3.8340   68.7530   65.9160 C   0  0  0  0  0  0  0  0  0  0  0  0
    2.8670   67.5920   65.7370 C   0  0  1  0  0  0  0  0  0  0  0  0
    1.6600   68.0220   64.8840 C   0  0  0  0  0  0  0  0  0  0  0  0
    2.0000   68.1200   63.4140 C   0  0  0  0  0  0  0  0  0  0  0  0
    1.0600   68.7210   62.6080 N   0  0  0  0  0  0  0  0  0  0  0  0
    1.2020   68.9350   61.2620 C   0  0  0  0  0  0  0  0  0  0  0  0
    0.3370   69.4490   60.5690 O   0  0  0  0  0  0  0  0  0  0  0  0
    2.4980   68.5050   60.6850 C   0  0  0  0  0  0  0  0  0  0  0  0
    3.4160   67.9190   61.4670 C   0  0  0  0  0  0  0  0  0  0  0  0
    3.1620   67.6740   62.8850 C   0  0  0  0  0  0  0  0  0  0  0  0
    4.2170   66.9440   63.7410 C   0  0  2  0  0  0  0  0  0  0  0  0
    5.3690   67.9270   64.1110 C   0  0  0  0  0  0  0  0  0  0  0  0
    4.7800   65.7520   62.9710 N   0  0  0  0  0  0  0  0  0  0  0  0
    5.0070   64.5030   63.7520 C   0  0  0  0  0  0  0  0  0  0  0  0
    3.6820   64.0160   64.3250 C   0  0  0  0  0  0  0  0  0  0  0  0
    2.8030   65.1410   64.8870 C   0  0  0  0  0  0  0  0  0  0  0  0
    3.6210   66.4220   65.0810 C   0  0  2  0  0  0  0  0  0  0  0  0
    6.0397   70.2057   66.5247 H   0  0  0  0  0  0  0  0  0  0  0  0
    6.8887   69.8250   64.9882 H   0  0  0  0  0  0  0  0  0  0  0  0
    5.4989   70.9630   64.9882 H   0  0  0  0  0  0  0  0  0  0  0  0
    3.5897   69.5170   66.6687 H   0  0  0  0  0  0  0  0  0  0  0  0
    2.4798   67.2721   66.7156 H   0  0  0  0  0  0  0  0  0  0  0  0
    0.8554   67.2830   65.0122 H   0  0  0  0  0  0  0  0  0  0  0  0
    1.3474   69.0204   65.2237 H   0  0  0  0  0  0  0  0  0  0  0  0
    0.1830   69.0550   62.9970 H   0  0  0  0  0  0  0  0  0  0  0  0
    2.7062   68.6664   59.6170 H   0  0  0  0  0  0  0  0  0  0  0  0
    4.3801   67.6165   61.0322 H   0  0  0  0  0  0  0  0  0  0  0  0
    6.2348   67.3421   64.4551 H   0  0  0  0  0  0  0  0  0  0  0  0
    5.6085   68.5142   63.2122 H   0  0  0  0  0  0  0  0  0  0  0  0
    4.1170   65.5200   62.2190 H   0  0  0  0  0  0  0  0  0  0  0  0
    5.6500   66.0260   62.4980 H   0  0  0  0  0  0  0  0  0  0  0  0
    5.4281   63.7296   63.0929 H   0  0  0  0  0  0  0  0  0  0  0  0
    5.7098   64.7062   64.5735 H   0  0  0  0  0  0  0  0  0  0  0  0
    3.1244   63.5059   63.5257 H   0  0  0  0  0  0  0  0  0  0  0  0
    3.9212   63.3453   65.1634 H   0  0  0  0  0  0  0  0  0  0  0  0
    1.9800   65.3410   64.1851 H   0  0  0  0  0  0  0  0  0  0  0  0
    2.4046   64.8247   65.8623 H   0  0  0  0  0  0  0  0  0  0  0  0
    4.4127   66.1013   65.7740 H   0  0  0  0  0  0  0  0  0  0  0  0
  1  2  1  0
  2  3  2  0
  3  4  1  0
  4  5  1  0
  5  6  1  0
  6  7  1  0
  7  8  1  0
  8  9  2  0
  8 10  1  0
 10 11  2  0
 11 12  1  0
 12 13  1  0
 13 14  1  1
 13 15  1  0
 15 16  1  0
 16 17  1  0
 17 18  1  0
 18 19  1  0
 14  2  1  0
 19  4  1  0
 12  6  2  0
 19 13  1  0
  1 20  1  0
  1 21  1  0
  1 22  1  0
  3 23  1  0
  4 24  1  1
  5 25  1  0
  5 26  1  0
  7 27  1  0
 10 28  1  0
 11 29  1  0
 14 30  1  0
 14 31  1  0
 15 32  1  0
 15 33  1  0
 16 34  1  0
 16 35  1  0
 17 36  1  0
 17 37  1  0
 18 38  1  0
 18 39  1  0
 19 40  1  1
M  CHG  1  15   1
M  END
>  <meeko>  (3) 
{"is_sidechain": [false], "free_energy": -10.506, "intermolecular_energy": -10.506, "internal_energy": 0.0}

$$$$
1gpn_ligand
     RDKit          3D

 40 43  0  0  0  0  0  0  0  0999 V2000
    1.0450   68.5530   60.9960 C   0  0  0  0  0  0  0  0  0  0  0  0
    1.8170   68.4650   62.2820 C   0  0  0  0  0  0  0  0  0  0  0  0
    1.2050   68.4210   63.4830 C   0  0  0  0  0  0  0  0  0  0  0  0
    1.9430   68.3640   64.8130 C   0  0  1  0  0  0  0  0  0  0  0  0
    1.9620   66.9240   65.3580 C   0  0  0  0  0  0  0  0  0  0  0  0
    2.9580   66.0480   64.6320 C   0  0  0  0  0  0  0  0  0  0  0  0
    2.8810   64.6970   64.8850 N   0  0  0  0  0  0  0  0  0  0  0  0
    3.6700   63.7430   64.2970 C   0  0  0  0  0  0  0  0  0  0  0  0
    3.5940   62.5530   64.5620 O   0  0  0  0  0  0  0  0  0  0  0  0
    4.6360   64.2490   63.2930 C   0  0  0  0  0  0  0  0  0  0  0  0
    4.7140   65.5640   63.0450 C   0  0  0  0  0  0  0  0  0  0  0  0
    3.8740   66.5240   63.7600 C   0  0  0  0  0  0  0  0  0  0  0  0
    4.0330   68.0350   63.4920 C   0  0  2  0  0  0  0  0  0  0  0  0
    3.3310   68.4090   62.1510 C   0  0  0  0  0  0  0  0  0  0  0  0
    5.5140   68.4000   63.4200 N   0  0  0  0  0  0  0  0  0  0  0  0
    5.9160   69.6780   64.0720 C   0  0  0  0  0  0  0  0  0  0  0  0
    5.5940   69.6100   65.5600 C   0  0  0  0  0  0  0  0  0  0  0  0
    4.2350   68.9690   65.8680 C   0  0  0  0  0  0  0  0  0  0  0  0
    3.3710   68.8980   64.6050 C   0  0  2  0  0  0  0  0  0  0  0  0
   -0.0253   68.6750   61.2185 H   0  0  0  0  0  0  0  0  0  0  0  0
    1.3993   69.4166   60.4140 H   0  0  0  0  0  0  0  0  0  0  0  0
    1.1958   67.6318   60.4140 H   0  0  0  0  0  0  0  0  0  0  0  0
    0.1052   68.4266   63.5026 H   0  0  0  0  0  0  0  0  0  0  0  0
    1.4261   68.9888   65.5562 H   0  0  0  0  0  0  0  0  0  0  0  0
    2.2284   66.9532   66.4248 H   0  0  0  0  0  0  0  0  0  0  0  0
    0.9614   66.4934   65.2051 H   0  0  0  0  0  0  0  0  0  0  0  0
    2.1980   64.3320   65.5430 H   0  0  0  0  0  0  0  0  0  0  0  0
    5.2876   63.5467   62.7525 H   0  0  0  0  0  0  0  0  0  0  0  0
    5.4243   65.9284   62.2883 H   0  0  0  0  0  0  0  0  0  0  0  0
    3.6937   69.3954   61.8261 H   0  0  0  0  0  0  0  0  0  0  0  0
    3.5742   67.6267   61.4169 H   0  0  0  0  0  0  0  0  0  0  0  0
    6.0470   67.6480   63.8780 H   0  0  0  0  0  0  0  0  0  0  0  0
    5.8240   68.4000   62.4410 H   0  0  0  0  0  0  0  0  0  0  0  0
    6.9964   69.8349   63.9370 H   0  0  0  0  0  0  0  0  0  0  0  0
    5.3652   70.5131   63.6146 H   0  0  0  0  0  0  0  0  0  0  0  0
    6.3773   69.0198   66.0582 H   0  0  0  0  0  0  0  0  0  0  0  0
    5.5515   70.6460   65.9274 H   0  0  0  0  0  0  0  0  0  0  0  0
    4.3949   67.9513   66.2538 H   0  0  0  0  0  0  0  0  0  0  0  0
    3.7157   69.5841   66.6176 H   0  0  0  0  0  0  0  0  0  0  0  0
    3.2953   69.9531   64.3034 H   0  0  0  0  0  0  0  0  0  0  0  0
  1  2  1  0
  2  3  2  0
  3  4  1  0
  4  5  1  0
  5  6  1  0
  6  7  1  0
  7  8  1  0
  8  9  2  0
  8 10  1  0
 10 11  2  0
 11 12  1  0
 12 13  1  0
 13 14  1  6
 13 15  1  0
 15 16  1  0
 16 17  1  0
 17 18  1  0
 18 19  1  0
 14  2  1  0
 19  4  1  0
 12  6  2  0
 19 13  1  0
  1 20  1  0
  1 21  1  0
  1 22  1  0
  3 23  1  0
  4 24  1  1
  5 25  1  0
  5 26  1  0
  7 27  1  0
 10 28  1  0
 11 29  1  0
 14 30  1  0
 14 31  1  0
 15 32  1  0
 15 33  1  0
 16 34  1  0
 16 35  1  0
 17 36  1  0
 17 37  1  0
 18 38  1  0
 18 39  1  0
 19 40  1  6
M  CHG  1  15   1
M  END
>  <meeko>  (4) 
{"is_sidechain": [false], "free_energy": -10.21, "intermolecular_energy": -10.21, "internal_energy": 0.0}

$$$$
1gpn_ligand
     RDKit          3D

 40 43  0  0  0  0  0  0  0  0999 V2000
    0.8840   69.2230   61.5600 C   0  0  0  0  0  0  0  0  0  0  0  0
    2.0450   68.3760   61.9980 C   0  0  0  0  0  0  0  0  0  0  0  0
    3.1740   68.2770   61.2660 C   0  0  0  0  0  0  0  0  0  0  0  0
    4.3640   67.4080   61.6510 C   0  0  1  0  0  0  0  0  0  0  0  0
    5.4740   68.2640   62.2850 C   0  0  0  0  0  0  0  0  0  0  0  0
    5.1540   68.6610   63.7080 C   0  0  0  0  0  0  0  0  0  0  0  0
    5.9680   69.6160   64.2740 N   0  0  0  0  0  0  0  0  0  0  0  0
    5.8130   70.1290   65.5360 C   0  0  0  0  0  0  0  0  0  0  0  0
    6.5690   70.9590   66.0190 O   0  0  0  0  0  0  0  0  0  0  0  0
    4.6470   69.6150   66.2920 C   0  0  0  0  0  0  0  0  0  0  0  0
    3.8520   68.6850   65.7430 C   0  0  0  0  0  0  0  0  0  0  0  0
    4.1200   68.1460   64.4110 C   0  0  0  0  0  0  0  0  0  0  0  0
    3.2200   67.0340   63.8360 C   0  0  2  0  0  0  0  0  0  0  0  0
    1.8820   67.6500   63.3240 C   0  0  0  0  0  0  0  0  0  0  0  0
    2.9300   65.9880   64.9100 N   0  0  0  0  0  0  0  0  0  0  0  0
    2.9480   64.5630   64.4730 C   0  0  0  0  0  0  0  0  0  0  0  0
    4.3330   64.2140   63.9400 C   0  0  0  0  0  0  0  0  0  0  0  0
    4.9490   65.3100   63.0610 C   0  0  0  0  0  0  0  0  0  0  0  0
    3.8810   66.3170   62.6230 C   0  0  2  0  0  0  0  0  0  0  0  0
    0.3564   69.6079   62.4451 H   0  0  0  0  0  0  0  0  0  0  0  0
    1.2521   70.0662   60.9571 H   0  0  0  0  0  0  0  0  0  0  0  0
    0.1934   68.6150   60.9571 H   0  0  0  0  0  0  0  0  0  0  0  0
    3.2389   68.8591   60.3349 H   0  0  0  0  0  0  0  0  0  0  0  0
    4.7880   66.9337   60.7537 H   0  0  0  0  0  0  0  0  0  0  0  0
    6.4106   67.6871   62.2814 H   0  0  0  0  0  0  0  0  0  0  0  0
    5.5662   69.1861   61.6923 H   0  0  0  0  0  0  0  0  0  0  0  0
    6.7490   70.0040   63.7540 H   0  0  0  0  0  0  0  0  0  0  0  0
    4.4338   69.9956   67.3018 H   0  0  0  0  0  0  0  0  0  0  0  0
    2.9805   68.3204   66.3065 H   0  0  0  0  0  0  0  0  0  0  0  0
    1.1477   66.8411   63.1954 H   0  0  0  0  0  0  0  0  0  0  0  0
    1.5463   68.3863   64.0691 H   0  0  0  0  0  0  0  0  0  0  0  0
    3.6430   66.0850   65.6460 H   0  0  0  0  0  0  0  0  0  0  0  0
    2.0330   66.1980   65.3650 H   0  0  0  0  0  0  0  0  0  0  0  0
    2.7097   63.9138   65.3284 H   0  0  0  0  0  0  0  0  0  0  0  0
    2.2006   64.4125   63.6801 H   0  0  0  0  0  0  0  0  0  0  0  0
    5.0009   64.0392   64.7964 H   0  0  0  0  0  0  0  0  0  0  0  0
    4.2189   63.3209   63.3080 H   0  0  0  0  0  0  0  0  0  0  0  0
    5.7282   65.8357   63.6324 H   0  0  0  0  0  0  0  0  0  0  0  0
    5.3828   64.8424   62.1648 H   0  0  0  0  0  0  0  0  0  0  0  0
    3.1573   65.6848   62.0877 H   0  0  0  0  0  0  0  0  0  0  0  0
  1  2  1  0
  2  3  2  0
  3  4  1  0
  4  5  1  0
  5  6  1  0
  6  7  1  0
  7  8  1  0
  8  9  2  0
  8 10  1  0
 10 11  2  0
 11 12  1  0
 12 13  1  0
 13 14  1  6
 13 15  1  0
 15 16  1  0
 16 17  1  0
 17 18  1  0
 18 19  1  0
 14  2  1  0
 19  4  1  0
 12  6  2  0
 19 13  1  0
  1 20  1  0
  1 21  1  0
  1 22  1  0
  3 23  1  0
  4 24  1  6
  5 25  1  0
  5 26  1  0
  7 27  1  0
 10 28  1  0
 11 29  1  0
 14 30  1  0
 14 31  1  0
 15 32  1  0
 15 33  1  0
 16 34  1  0
 16 35  1  0
 17 36  1  0
 17 37  1  0
 18 38  1  0
 18 39  1  0
 19 40  1  6
M  CHG  1  15   1
M  END
>  <meeko>  (5) 
{"is_sidechain": [false], "free_energy": -9.881, "intermolecular_energy": -9.881, "internal_energy": 0.0}

$$$$
1gpn_ligand
     RDKit          3D

 40 43  0  0  0  0  0  0  0  0999 V2000
    3.8720   64.0730   64.6920 C   0  0  0  0  0  0  0  0  0  0  0  0
    3.2050   65.4010   64.4680 C   0  0  0  0  0  0  0  0  0  0  0  0
    2.2650   65.8800   65.3090 C   0  0  0  0  0  0  0  0  0  0  0  0
    1.5390   67.2030   65.1090 C   0  0  1  0  0  0  0  0  0  0  0  0
    2.1480   68.2940   66.0070 C   0  0  0  0  0  0  0  0  0  0  0  0
    3.4690   68.8040   65.4770 C   0  0  0  0  0  0  0  0  0  0  0  0
    4.2000   69.6030   66.3260 N   0  0  0  0  0  0  0  0  0  0  0  0
    5.4340   70.1280   66.0410 C   0  0  0  0  0  0  0  0  0  0  0  0
    6.0460   70.8560   66.8080 O   0  0  0  0  0  0  0  0  0  0  0  0
    5.9970   69.7460   64.7250 C   0  0  0  0  0  0  0  0  0  0  0  0
    5.2880   68.9680   63.8950 C   0  0  0  0  0  0  0  0  0  0  0  0
    3.9510   68.4960   64.2520 C   0  0  0  0  0  0  0  0  0  0  0  0
    3.1390   67.6520   63.2480 C   0  0  2  0  0  0  0  0  0  0  0  0
    3.6640   66.1830   63.2480 C   0  0  0  0  0  0  0  0  0  0  0  0
    3.2620   68.2450   61.8470 N   0  0  0  0  0  0  0  0  0  0  0  0
    2.0210   68.2640   61.0210 C   0  0  0  0  0  0  0  0  0  0  0  0
    0.9610   69.1070   61.7200 C   0  0  0  0  0  0  0  0  0  0  0  0
    0.8900   68.8760   63.2340 C   0  0  0  0  0  0  0  0  0  0  0  0
    1.6300   67.5920   63.6220 C   0  0  2  0  0  0  0  0  0  0  0  0
    3.9654   63.8871   65.7722 H   0  0  0  0  0  0  0  0  0  0  0  0
    3.2668   63.2768   64.2339 H   0  0  0  0  0  0  0  0  0  0  0  0
    4.8720   64.0830   64.2339 H   0  0  0  0  0  0  0  0  0  0  0  0
    2.0076   65.2780   66.1929 H   0  0  0  0  0  0  0  0  0  0  0  0
    0.4816   67.0979   65.3935 H   0  0  0  0  0  0  0  0  0  0  0  0
    1.4428   69.1360   66.0680 H   0  0  0  0  0  0  0  0  0  0  0  0
    2.3318   67.8505   66.9967 H   0  0  0  0  0  0  0  0  0  0  0  0
    3.8430   69.8420   67.2470 H   0  0  0  0  0  0  0  0  0  0  0  0
    6.9955   70.1003   64.4294 H   0  0  0  0  0  0  0  0  0  0  0  0
    5.7207   68.6789   62.9259 H   0  0  0  0  0  0  0  0  0  0  0  0
    3.2942   65.6762   62.3445 H   0  0  0  0  0  0  0  0  0  0  0  0
    4.7631   66.2208   63.2692 H   0  0  0  0  0  0  0  0  0  0  0  0
    3.5730   69.2210   61.9440 H   0  0  0  0  0  0  0  0  0  0  0  0
    4.0110   67.7670   61.3320 H   0  0  0  0  0  0  0  0  0  0  0  0
    2.2431   68.6975   60.0347 H   0  0  0  0  0  0  0  0  0  0  0  0
    1.6486   67.2369   60.8934 H   0  0  0  0  0  0  0  0  0  0  0  0
    1.1876   70.1684   61.5408 H   0  0  0  0  0  0  0  0  0  0  0  0
   -0.0126   68.8097   61.3033 H   0  0  0  0  0  0  0  0  0  0  0  0
    1.3524   69.7295   63.7514 H   0  0  0  0  0  0  0  0  0  0  0  0
   -0.1656   68.7777   63.5273 H   0  0  0  0  0  0  0  0  0  0  0  0
    1.1024   66.8222   63.0397 H   0  0  0  0  0  0  0  0  0  0  0  0
  1  2  1  0
  2  3  2  0
  3  4  1  0
  4  5  1  0
  5  6  1  0
  6  7  1  0
  7  8  1  0
  8  9  2  0
  8 10  1  0
 10 11  2  0
 11 12  1  0
 12 13  1  0
 13 14  1  6
 13 15  1  0
 15 16  1  0
 16 17  1  0
 17 18  1  0
 18 19  1  0
 14  2  1  0
 19  4  1  0
 12  6  2  0
 19 13  1  0
  1 20  1  0
  1 21  1  0
  1 22  1  0
  3 23  1  0
  4 24  1  1
  5 25  1  0
  5 26  1  0
  7 27  1  0
 10 28  1  0
 11 29  1  0
 14 30  1  0
 14 31  1  0
 15 32  1  0
 15 33  1  0
 16 34  1  0
 16 35  1  0
 17 36  1  0
 17 37  1  0
 18 38  1  0
 18 39  1  0
 19 40  1  6
M  CHG  1  15   1
M  END
>  <meeko>  (6) 
{"is_sidechain": [false], "free_energy": -9.732, "intermolecular_energy": -9.732, "internal_energy": 0.0}

$$$$
1gpn_ligand
     RDKit          3D

 40 43  0  0  0  0  0  0  0  0999 V2000
    3.5840   63.7430   64.6550 C   0  0  0  0  0  0  0  0  0  0  0  0
    3.6520   65.2390   64.7760 C   0  0  0  0  0  0  0  0  0  0  0  0
    4.6930   65.9500   64.2940 C   0  0  0  0  0  0  0  0  0  0  0  0
    4.8210   67.4620   64.4200 C   0  0  1  0  0  0  0  0  0  0  0  0
    4.4210   68.1480   63.1020 C   0  0  0  0  0  0  0  0  0  0  0  0
    2.9230   68.1750   62.8990 C   0  0  0  0  0  0  0  0  0  0  0  0
    2.4820   68.5520   61.6510 N   0  0  0  0  0  0  0  0  0  0  0  0
    1.1680   68.6000   61.2650 C   0  0  0  0  0  0  0  0  0  0  0  0
    0.8070   68.9640   60.1550 O   0  0  0  0  0  0  0  0  0  0  0  0
    0.1890   68.1680   62.2900 C   0  0  0  0  0  0  0  0  0  0  0  0
    0.6150   67.8000   63.5070 C   0  0  0  0  0  0  0  0  0  0  0  0
    2.0340   67.8320   63.8580 C   0  0  0  0  0  0  0  0  0  0  0  0
    2.4820   67.4600   65.2860 C   0  0  2  0  0  0  0  0  0  0  0  0
    2.4690   65.9100   65.4560 C   0  0  0  0  0  0  0  0  0  0  0  0
    1.5490   68.1010   66.3100 N   0  0  0  0  0  0  0  0  0  0  0  0
    2.1890   68.6660   67.5320 C   0  0  0  0  0  0  0  0  0  0  0  0
    3.1580   69.7720   67.1290 C   0  0  0  0  0  0  0  0  0  0  0  0
    3.9970   69.4340   65.8900 C   0  0  0  0  0  0  0  0  0  0  0  0
    3.9340   67.9350   65.5840 C   0  0  2  0  0  0  0  0  0  0  0  0
    3.5636   63.2945   65.6592 H   0  0  0  0  0  0  0  0  0  0  0  0
    2.6721   63.4604   64.1086 H   0  0  0  0  0  0  0  0  0  0  0  0
    4.4665   63.3788   64.1086 H   0  0  0  0  0  0  0  0  0  0  0  0
    5.4974   65.4043   63.7791 H   0  0  0  0  0  0  0  0  0  0  0  0
    5.8665   67.7341   64.6272 H   0  0  0  0  0  0  0  0  0  0  0  0
    4.7947   69.1825   63.1144 H   0  0  0  0  0  0  0  0  0  0  0  0
    4.8615   67.5707   62.2757 H   0  0  0  0  0  0  0  0  0  0  0  0
    3.1440   68.8140   60.9260 H   0  0  0  0  0  0  0  0  0  0  0  0
   -0.8850   68.1492   62.0530 H   0  0  0  0  0  0  0  0  0  0  0  0
   -0.1181   67.4673   64.2566 H   0  0  0  0  0  0  0  0  0  0  0  0
    2.4984   65.6728   66.5297 H   0  0  0  0  0  0  0  0  0  0  0  0
    1.5519   65.5298   64.9824 H   0  0  0  0  0  0  0  0  0  0  0  0
    1.0530   68.8730   65.8460 H   0  0  0  0  0  0  0  0  0  0  0  0
    0.8200   67.4290   66.5830 H   0  0  0  0  0  0  0  0  0  0  0  0
    1.4144   69.0797   68.1944 H   0  0  0  0  0  0  0  0  0  0  0  0
    2.7362   67.8721   68.0615 H   0  0  0  0  0  0  0  0  0  0  0  0
    2.5778   70.6824   66.9180 H   0  0  0  0  0  0  0  0  0  0  0  0
    3.8592   69.9064   67.9658 H   0  0  0  0  0  0  0  0  0  0  0  0
    3.6085   69.9950   65.0272 H   0  0  0  0  0  0  0  0  0  0  0  0
    5.0435   69.7104   66.0863 H   0  0  0  0  0  0  0  0  0  0  0  0
    4.3230   67.4827   66.5082 H   0  0  0  0  0  0  0  0  0  0  0  0
  1  2  1  0
  2  3  2  0
  3  4  1  0
  4  5  1  0
  5  6  1  0
  6  7  1  0
  7  8  1  0
  8  9  2  0
  8 10  1  0
 10 11  2  0
 11 12  1  0
 12 13  1  0
 13 14  1  6
 13 15  1  0
 15 16  1  0
 16 17  1  0
 17 18  1  0
 18 19  1  0
 14  2  1  0
 19  4  1  0
 12  6  2  0
 19 13  1  0
  1 20  1  0
  1 21  1  0
  1 22  1  0
  3 23  1  0
  4 24  1  1
  5 25  1  0
  5 26  1  0
  7 27  1  0
 10 28  1  0
 11 29  1  0
 14 30  1  0
 14 31  1  0
 15 32  1  0
 15 33  1  0
 16 34  1  0
 16 35  1  0
 17 36  1  0
 17 37  1  0
 18 38  1  0
 18 39  1  0
 19 40  1  1
M  CHG  1  15   1
M  END
>  <meeko>  (7) 
{"is_sidechain": [false], "free_energy": -8.907, "intermolecular_energy": -8.907, "internal_energy": 0.0}

$$$$
