3zsx_ligand
     RDKit          3D

 60 63  0  0  0  0  0  0  0  0999 V2000
  -13.8290   44.9540   -2.8840 C   0  0  0  0  0  0  0  0  0  0  0  0
  -13.8420   43.7910   -2.2190 C   0  0  0  0  0  0  0  0  0  0  0  0
  -12.6240   43.0700   -1.7210 C   0  0  0  0  0  0  0  0  0  0  0  0
  -11.4960   43.9480   -1.3240 N   0  0  2  0  0  0  0  0  0  0  0  0
  -10.1040   43.5650   -1.7260 C   0  0  0  0  0  0  0  0  0  0  0  0
   -9.3130   42.6810   -0.7910 C   0  0  0  0  0  0  0  0  0  0  0  0
   -9.5800   41.2950   -0.7950 C   0  0  0  0  0  0  0  0  0  0  0  0
   -8.8760   40.4180    0.0320 C   0  0  0  0  0  0  0  0  0  0  0  0
   -7.8810   40.9020    0.8730 C   0  0  0  0  0  0  0  0  0  0  0  0
   -7.5960   42.2660    0.8960 C   0  0  0  0  0  0  0  0  0  0  0  0
   -8.3140   43.1590    0.0800 C   0  0  0  0  0  0  0  0  0  0  0  0
   -7.9690   44.6000    0.1400 C   0  0  0  0  0  0  0  0  0  0  0  0
   -7.5060   45.1620   -0.8430 O   0  0  0  0  0  0  0  0  0  0  0  0
   -8.2470   45.2320    1.3300 N   0  0  0  0  0  0  0  0  0  0  0  0
   -7.7720   46.5690    1.6150 C   0  0  0  0  0  0  0  0  0  0  0  0
   -8.8910   47.4110    2.1690 C   0  0  0  0  0  0  0  0  0  0  0  0
   -9.9780   46.8020    2.8120 C   0  0  0  0  0  0  0  0  0  0  0  0
  -11.0330   47.5720    3.3030 C   0  0  0  0  0  0  0  0  0  0  0  0
  -11.0120   48.9580    3.1520 C   0  0  0  0  0  0  0  0  0  0  0  0
   -9.9410   49.5730    2.5080 C   0  0  0  0  0  0  0  0  0  0  0  0
   -8.8850   48.8050    2.0140 C   0  0  0  0  0  0  0  0  0  0  0  0
  -11.6050   44.6970   -0.0270 C   0  0  0  0  0  0  0  0  0  0  0  0
  -11.7960   46.1990   -0.1560 C   0  0  0  0  0  0  0  0  0  0  0  0
  -10.7770   46.9780   -0.7580 C   0  0  0  0  0  0  0  0  0  0  0  0
  -10.9250   48.3580   -0.9140 C   0  0  0  0  0  0  0  0  0  0  0  0
  -12.0940   48.9340   -0.4670 C   0  0  0  0  0  0  0  0  0  0  0  0
  -13.1000   48.1980    0.1170 C   0  0  0  0  0  0  0  0  0  0  0  0
  -12.9960   46.8270    0.2840 C   0  0  0  0  0  0  0  0  0  0  0  0
  -14.0960   46.0360    0.9140 C   0  0  0  0  0  0  0  0  0  0  0  0
  -13.9620   45.8550    2.1730 O   0  0  0  0  0  0  0  0  0  0  0  0
  -14.9710   45.5160    0.1740 O   0  0  0  0  0  0  0  0  0  0  0  0
  -14.1350   48.9910    0.5110 O   0  0  0  0  0  0  0  0  0  0  0  0
  -13.7110   50.2760    0.0300 C   0  0  0  0  0  0  0  0  0  0  0  0
  -12.3850   50.2620   -0.5370 O   0  0  0  0  0  0  0  0  0  0  0  0
  -14.7745   45.4108   -3.2117 H   0  0  0  0  0  0  0  0  0  0  0  0
  -12.8728   45.4521   -3.1023 H   0  0  0  0  0  0  0  0  0  0  0  0
  -14.8209   43.3292   -2.0230 H   0  0  0  0  0  0  0  0  0  0  0  0
  -12.9156   42.4716   -0.8453 H   0  0  0  0  0  0  0  0  0  0  0  0
  -12.2600   42.4624   -2.5626 H   0  0  0  0  0  0  0  0  0  0  0  0
  -11.6400   44.7520   -1.9920 H   0  0  0  0  0  0  0  0  0  0  0  0
  -10.1748   43.0404   -2.6902 H   0  0  0  0  0  0  0  0  0  0  0  0
   -9.5507   44.5156   -1.7386 H   0  0  0  0  0  0  0  0  0  0  0  0
  -10.3584   40.8980   -1.4632 H   0  0  0  0  0  0  0  0  0  0  0  0
   -9.1089   39.3430    0.0180 H   0  0  0  0  0  0  0  0  0  0  0  0
   -7.3200   40.2104    1.5187 H   0  0  0  0  0  0  0  0  0  0  0  0
   -6.8037   42.6471    1.5571 H   0  0  0  0  0  0  0  0  0  0  0  0
   -8.6000   44.6970    2.1110 H   0  0  0  0  0  0  0  0  0  0  0  0
   -6.9577   46.5158    2.3526 H   0  0  0  0  0  0  0  0  0  0  0  0
   -7.4058   47.0261    0.6839 H   0  0  0  0  0  0  0  0  0  0  0  0
   -9.9993   45.7086    2.9303 H   0  0  0  0  0  0  0  0  0  0  0  0
  -11.8804   47.0861    3.8087 H   0  0  0  0  0  0  0  0  0  0  0  0
  -11.8417   49.5660    3.5417 H   0  0  0  0  0  0  0  0  0  0  0  0
   -9.9272   50.6664    2.3884 H   0  0  0  0  0  0  0  0  0  0  0  0
   -8.0445   49.2953    1.5009 H   0  0  0  0  0  0  0  0  0  0  0  0
  -12.4643   44.2920    0.5276 H   0  0  0  0  0  0  0  0  0  0  0  0
  -10.6421   44.5568    0.4859 H   0  0  0  0  0  0  0  0  0  0  0  0
   -9.8559   46.4887   -1.1076 H   0  0  0  0  0  0  0  0  0  0  0  0
  -10.1341   48.9651   -1.3786 H   0  0  0  0  0  0  0  0  0  0  0  0
  -14.4182   50.6104   -0.7433 H   0  0  0  0  0  0  0  0  0  0  0  0
  -13.6897   50.9571    0.8935 H   0  0  0  0  0  0  0  0  0  0  0  0
  1  2  2  0
  2  3  1  0
  3  4  1  0
  4  5  1  0
  5  6  1  0
  6  7  2  0
  7  8  1  0
  8  9  2  0
  9 10  1  0
 10 11  2  0
 11 12  1  0
 12 13  2  0
 12 14  1  0
 14 15  1  0
 15 16  1  0
 16 17  2  0
 17 18  1  0
 18 19  2  0
 19 20  1  0
 20 21  2  0
  4 22  1  0
 22 23  1  0
 23 24  2  0
 24 25  1  0
 25 26  2  0
 26 27  1  0
 27 28  2  0
 28 29  1  0
 29 30  2  0
 29 31  1  0
 27 32  1  0
 32 33  1  0
 33 34  1  0
 11  6  1  0
 21 16  1  0
 28 23  1  0
 34 26  1  0
  1 35  1  0
  1 36  1  0
  2 37  1  0
  3 38  1  0
  3 39  1  0
  4 40  1  6
  5 41  1  0
  5 42  1  0
  7 43  1  0
  8 44  1  0
  9 45  1  0
 10 46  1  0
 14 47  1  0
 15 48  1  0
 15 49  1  0
 17 50  1  0
 18 51  1  0
 19 52  1  0
 20 53  1  0
 21 54  1  0
 22 55  1  0
 22 56  1  0
 24 57  1  0
 25 58  1  0
 33 59  1  0
 33 60  1  0
M  CHG  2   4   1  31  -1
M  END
>  <meeko>  (1) 
{"is_sidechain": [false], "free_energy": -7.506, "intermolecular_energy": -11.894, "internal_energy": -3.586}

$$$$
3zsx_ligand
     RDKit          3D

 60 63  0  0  0  0  0  0  0  0999 V2000
   -9.7510   49.1930   -1.5000 C   0  0  0  0  0  0  0  0  0  0  0  0
   -9.6110   48.2300   -0.5790 C   0  0  0  0  0  0  0  0  0  0  0  0
  -10.6260   47.8900    0.4720 C   0  0  0  0  0  0  0  0  0  0  0  0
  -10.2780   46.7260    1.3240 N   0  0  2  0  0  0  0  0  0  0  0  0
   -8.8410   46.4860    1.6710 C   0  0  0  0  0  0  0  0  0  0  0  0
   -8.4290   46.6140    3.1190 C   0  0  0  0  0  0  0  0  0  0  0  0
   -9.1510   47.5050    3.9430 C   0  0  0  0  0  0  0  0  0  0  0  0
   -8.8350   47.6610    5.2940 C   0  0  0  0  0  0  0  0  0  0  0  0
   -7.7990   46.9240    5.8560 C   0  0  0  0  0  0  0  0  0  0  0  0
   -7.0710   46.0380    5.0660 C   0  0  0  0  0  0  0  0  0  0  0  0
   -7.3710   45.8880    3.6990 C   0  0  0  0  0  0  0  0  0  0  0  0
   -6.5670   44.9290    2.9030 C   0  0  0  0  0  0  0  0  0  0  0  0
   -5.5290   45.2920    2.3690 O   0  0  0  0  0  0  0  0  0  0  0  0
   -7.0480   43.6400    2.8580 N   0  0  0  0  0  0  0  0  0  0  0  0
   -6.5010   42.6520    1.9540 C   0  0  0  0  0  0  0  0  0  0  0  0
   -7.4910   42.3400    0.8630 C   0  0  0  0  0  0  0  0  0  0  0  0
   -7.7890   43.3020   -0.1130 C   0  0  0  0  0  0  0  0  0  0  0  0
   -8.7260   43.0320   -1.1110 C   0  0  0  0  0  0  0  0  0  0  0  0
   -9.3780   41.8000   -1.1390 C   0  0  0  0  0  0  0  0  0  0  0  0
   -9.0960   40.8400   -0.1710 C   0  0  0  0  0  0  0  0  0  0  0  0
   -8.1590   41.1080    0.8300 C   0  0  0  0  0  0  0  0  0  0  0  0
  -11.1260   45.4910    1.2150 C   0  0  0  0  0  0  0  0  0  0  0  0
  -11.9770   45.3930   -0.0420 C   0  0  0  0  0  0  0  0  0  0  0  0
  -11.3870   44.9270   -1.2430 C   0  0  0  0  0  0  0  0  0  0  0  0
  -12.1410   44.8030   -2.4120 C   0  0  0  0  0  0  0  0  0  0  0  0
  -13.4740   45.1460   -2.3570 C   0  0  0  0  0  0  0  0  0  0  0  0
  -14.0700   45.5980   -1.2010 C   0  0  0  0  0  0  0  0  0  0  0  0
  -13.3600   45.7280   -0.0190 C   0  0  0  0  0  0  0  0  0  0  0  0
  -14.0170   46.2140    1.2320 C   0  0  0  0  0  0  0  0  0  0  0  0
  -14.5760   45.2960    1.9260 O   0  0  0  0  0  0  0  0  0  0  0  0
  -14.0830   47.4530    1.4410 O   0  0  0  0  0  0  0  0  0  0  0  0
  -15.3800   45.9090   -1.4030 O   0  0  0  0  0  0  0  0  0  0  0  0
  -15.5600   45.5180   -2.7730 C   0  0  0  0  0  0  0  0  0  0  0  0
  -14.3370   45.0920   -3.4080 O   0  0  0  0  0  0  0  0  0  0  0  0
   -8.9517   49.3722   -2.2342 H   0  0  0  0  0  0  0  0  0  0  0  0
  -10.6652   49.8044   -1.5219 H   0  0  0  0  0  0  0  0  0  0  0  0
   -8.6804   47.6437   -0.5947 H   0  0  0  0  0  0  0  0  0  0  0  0
  -10.7485   48.7668    1.1249 H   0  0  0  0  0  0  0  0  0  0  0  0
  -11.5457   47.6149   -0.0652 H   0  0  0  0  0  0  0  0  0  0  0  0
  -10.6130   47.0740    2.2620 H   0  0  0  0  0  0  0  0  0  0  0  0
   -8.5935   45.4634    1.3499 H   0  0  0  0  0  0  0  0  0  0  0  0
   -8.2966   47.2929    1.1586 H   0  0  0  0  0  0  0  0  0  0  0  0
   -9.9786   48.0876    3.5120 H   0  0  0  0  0  0  0  0  0  0  0  0
   -9.4062   48.3676    5.9141 H   0  0  0  0  0  0  0  0  0  0  0  0
   -7.5548   47.0404    6.9222 H   0  0  0  0  0  0  0  0  0  0  0  0
   -6.2555   45.4510    5.5136 H   0  0  0  0  0  0  0  0  0  0  0  0
   -7.9310   43.4190    3.2970 H   0  0  0  0  0  0  0  0  0  0  0  0
   -5.5764   43.0433    1.5045 H   0  0  0  0  0  0  0  0  0  0  0  0
   -6.2851   41.7317    2.5165 H   0  0  0  0  0  0  0  0  0  0  0  0
   -7.2801   44.2770   -0.0916 H   0  0  0  0  0  0  0  0  0  0  0  0
   -8.9501   43.7907   -1.8752 H   0  0  0  0  0  0  0  0  0  0  0  0
  -10.1157   41.5863   -1.9265 H   0  0  0  0  0  0  0  0  0  0  0  0
   -9.6119   39.8687   -0.1943 H   0  0  0  0  0  0  0  0  0  0  0  0
   -7.9443   40.3484    1.5961 H   0  0  0  0  0  0  0  0  0  0  0  0
  -10.4582   44.6173    1.2417 H   0  0  0  0  0  0  0  0  0  0  0  0
  -11.8326   45.5331    2.0570 H   0  0  0  0  0  0  0  0  0  0  0  0
  -10.3202   44.6591   -1.2548 H   0  0  0  0  0  0  0  0  0  0  0  0
  -11.6853   44.4432   -3.3462 H   0  0  0  0  0  0  0  0  0  0  0  0
  -16.2797   44.6869   -2.8076 H   0  0  0  0  0  0  0  0  0  0  0  0
  -15.9218   46.4011   -3.3200 H   0  0  0  0  0  0  0  0  0  0  0  0
  1  2  2  0
  2  3  1  0
  3  4  1  0
  4  5  1  0
  5  6  1  0
  6  7  2  0
  7  8  1  0
  8  9  2  0
  9 10  1  0
 10 11  2  0
 11 12  1  0
 12 13  2  0
 12 14  1  0
 14 15  1  0
 15 16  1  0
 16 17  2  0
 17 18  1  0
 18 19  2  0
 19 20  1  0
 20 21  2  0
  4 22  1  0
 22 23  1  0
 23 24  2  0
 24 25  1  0
 25 26  2  0
 26 27  1  0
 27 28  2  0
 28 29  1  0
 29 30  2  0
 29 31  1  0
 27 32  1  0
 32 33  1  0
 33 34  1  0
 11  6  1  0
 21 16  1  0
 28 23  1  0
 34 26  1  0
  1 35  1  0
  1 36  1  0
  2 37  1  0
  3 38  1  0
  3 39  1  0
  4 40  1  1
  5 41  1  0
  5 42  1  0
  7 43  1  0
  8 44  1  0
  9 45  1  0
 10 46  1  0
 14 47  1  0
 15 48  1  0
 15 49  1  0
 17 50  1  0
 18 51  1  0
 19 52  1  0
 20 53  1  0
 21 54  1  0
 22 55  1  0
 22 56  1  0
 24 57  1  0
 25 58  1  0
 33 59  1  0
 33 60  1  0
M  CHG  2   4   1  31  -1
M  END
>  <meeko>  (2) 
{"is_sidechain": [false], "free_energy": -7.328, "intermolecular_energy": -12.894, "internal_energy": -2.304}

$$$$
3zsx_ligand
     RDKit          3D

 60 63  0  0  0  0  0  0  0  0999 V2000
   -6.8220   47.4130    1.7690 C   0  0  0  0  0  0  0  0  0  0  0  0
   -7.6360   46.4070    1.4220 C   0  0  0  0  0  0  0  0  0  0  0  0
   -8.6880   45.8060    2.3060 C   0  0  0  0  0  0  0  0  0  0  0  0
   -9.9780   45.5120    1.6350 N   0  0  2  0  0  0  0  0  0  0  0  0
  -10.0010   45.3660    0.1440 C   0  0  0  0  0  0  0  0  0  0  0  0
  -10.4550   44.0460   -0.4330 C   0  0  0  0  0  0  0  0  0  0  0  0
  -11.7870   43.9360   -0.8850 C   0  0  0  0  0  0  0  0  0  0  0  0
  -12.2690   42.7510   -1.4440 C   0  0  0  0  0  0  0  0  0  0  0  0
  -11.4290   41.6510   -1.5730 C   0  0  0  0  0  0  0  0  0  0  0  0
  -10.1090   41.7320   -1.1360 C   0  0  0  0  0  0  0  0  0  0  0  0
   -9.6210   42.9170   -0.5550 C   0  0  0  0  0  0  0  0  0  0  0  0
   -8.2070   42.9520   -0.1090 C   0  0  0  0  0  0  0  0  0  0  0  0
   -7.3660   43.5380   -0.7770 O   0  0  0  0  0  0  0  0  0  0  0  0
   -7.9430   42.3350    1.0920 N   0  0  0  0  0  0  0  0  0  0  0  0
   -6.5910   42.0970    1.5490 C   0  0  0  0  0  0  0  0  0  0  0  0
   -6.2470   43.0440    2.6680 C   0  0  0  0  0  0  0  0  0  0  0  0
   -5.1650   43.9260    2.5360 C   0  0  0  0  0  0  0  0  0  0  0  0
   -4.8210   44.7880    3.5790 C   0  0  0  0  0  0  0  0  0  0  0  0
   -5.5530   44.7710    4.7650 C   0  0  0  0  0  0  0  0  0  0  0  0
   -6.6260   43.8940    4.9110 C   0  0  0  0  0  0  0  0  0  0  0  0
   -6.9710   43.0310    3.8690 C   0  0  0  0  0  0  0  0  0  0  0  0
  -11.2350   46.0640    2.2450 C   0  0  0  0  0  0  0  0  0  0  0  0
  -11.6850   47.4110    1.7020 C   0  0  0  0  0  0  0  0  0  0  0  0
  -10.8180   48.5260    1.8110 C   0  0  0  0  0  0  0  0  0  0  0  0
  -11.1870   49.7750    1.3050 C   0  0  0  0  0  0  0  0  0  0  0  0
  -12.4180   49.8840    0.6960 C   0  0  0  0  0  0  0  0  0  0  0  0
  -13.2760   48.8130    0.5740 C   0  0  0  0  0  0  0  0  0  0  0  0
  -12.9450   47.5580    1.0560 C   0  0  0  0  0  0  0  0  0  0  0  0
  -13.8800   46.4000    0.9140 C   0  0  0  0  0  0  0  0  0  0  0  0
  -14.0780   46.0260   -0.2930 O   0  0  0  0  0  0  0  0  0  0  0  0
  -14.4810   45.9760    1.9360 O   0  0  0  0  0  0  0  0  0  0  0  0
  -14.4430   49.1750   -0.0270 O   0  0  0  0  0  0  0  0  0  0  0  0
  -14.1860   50.5500   -0.3480 C   0  0  0  0  0  0  0  0  0  0  0  0
  -12.9260   51.0290    0.1650 O   0  0  0  0  0  0  0  0  0  0  0  0
   -6.0777   47.7904    1.0524 H   0  0  0  0  0  0  0  0  0  0  0  0
   -6.8980   47.8615    2.7705 H   0  0  0  0  0  0  0  0  0  0  0  0
   -7.5241   45.9895    0.4105 H   0  0  0  0  0  0  0  0  0  0  0  0
   -8.2932   44.8639    2.7142 H   0  0  0  0  0  0  0  0  0  0  0  0
   -8.9075   46.5585    3.0778 H   0  0  0  0  0  0  0  0  0  0  0  0
  -10.0990   44.4970    1.8970 H   0  0  0  0  0  0  0  0  0  0  0  0
  -10.6721   46.1433   -0.2503 H   0  0  0  0  0  0  0  0  0  0  0  0
   -8.9459   45.4483   -0.1561 H   0  0  0  0  0  0  0  0  0  0  0  0
  -12.4596   44.8018   -0.7951 H   0  0  0  0  0  0  0  0  0  0  0  0
  -13.3137   42.6878   -1.7824 H   0  0  0  0  0  0  0  0  0  0  0  0
  -11.8059   40.7188   -2.0191 H   0  0  0  0  0  0  0  0  0  0  0  0
   -9.4432   40.8633   -1.2459 H   0  0  0  0  0  0  0  0  0  0  0  0
   -8.6820   41.8420    1.5750 H   0  0  0  0  0  0  0  0  0  0  0  0
   -6.5064   41.0614    1.9102 H   0  0  0  0  0  0  0  0  0  0  0  0
   -5.8951   42.2607    0.7130 H   0  0  0  0  0  0  0  0  0  0  0  0
   -4.5824   43.9389    1.6030 H   0  0  0  0  0  0  0  0  0  0  0  0
   -3.9733   45.4797    3.4649 H   0  0  0  0  0  0  0  0  0  0  0  0
   -5.2833   45.4507    5.5868 H   0  0  0  0  0  0  0  0  0  0  0  0
   -7.2018   43.8816    5.8482 H   0  0  0  0  0  0  0  0  0  0  0  0
   -7.8156   42.3369    3.9908 H   0  0  0  0  0  0  0  0  0  0  0  0
  -12.0441   45.3397    2.0696 H   0  0  0  0  0  0  0  0  0  0  0  0
  -11.0103   46.2255    3.3096 H   0  0  0  0  0  0  0  0  0  0  0  0
   -9.8404   48.4068    2.3010 H   0  0  0  0  0  0  0  0  0  0  0  0
  -10.5166   50.6429    1.3901 H   0  0  0  0  0  0  0  0  0  0  0  0
  -14.1812   50.6581   -1.4427 H   0  0  0  0  0  0  0  0  0  0  0  0
  -14.9790   51.1488    0.1238 H   0  0  0  0  0  0  0  0  0  0  0  0
  1  2  2  0
  2  3  1  0
  3  4  1  0
  4  5  1  0
  5  6  1  0
  6  7  2  0
  7  8  1  0
  8  9  2  0
  9 10  1  0
 10 11  2  0
 11 12  1  0
 12 13  2  0
 12 14  1  0
 14 15  1  0
 15 16  1  0
 16 17  2  0
 17 18  1  0
 18 19  2  0
 19 20  1  0
 20 21  2  0
  4 22  1  0
 22 23  1  0
 23 24  2  0
 24 25  1  0
 25 26  2  0
 26 27  1  0
 27 28  2  0
 28 29  1  0
 29 30  2  0
 29 31  1  0
 27 32  1  0
 32 33  1  0
 33 34  1  0
 11  6  1  0
 21 16  1  0
 28 23  1  0
 34 26  1  0
  1 35  1  0
  1 36  1  0
  2 37  1  0
  3 38  1  0
  3 39  1  0
  4 40  1  1
  5 41  1  0
  5 42  1  0
  7 43  1  0
  8 44  1  0
  9 45  1  0
 10 46  1  0
 14 47  1  0
 15 48  1  0
 15 49  1  0
 17 50  1  0
 18 51  1  0
 19 52  1  0
 20 53  1  0
 21 54  1  0
 22 55  1  0
 22 56  1  0
 24 57  1  0
 25 58  1  0
 33 59  1  0
 33 60  1  0
M  CHG  2   4   1  31  -1
M  END
>  <meeko>  (3) 
{"is_sidechain": [false], "free_energy": -7.199, "intermolecular_energy": -12.336, "internal_energy": -2.657}

$$$$
3zsx_ligand
     RDKit          3D

 60 63  0  0  0  0  0  0  0  0999 V2000
  -10.6910   47.6460    3.9350 C   0  0  0  0  0  0  0  0  0  0  0  0
  -10.3010   47.2240    2.7250 C   0  0  0  0  0  0  0  0  0  0  0  0
   -9.9850   45.8010    2.3690 C   0  0  0  0  0  0  0  0  0  0  0  0
   -9.9880   45.5040    0.9150 N   0  0  2  0  0  0  0  0  0  0  0  0
   -8.8020   44.8150    0.3140 C   0  0  0  0  0  0  0  0  0  0  0  0
   -8.8210   43.3060    0.2370 C   0  0  0  0  0  0  0  0  0  0  0  0
   -9.7040   42.6950   -0.6790 C   0  0  0  0  0  0  0  0  0  0  0  0
   -9.7630   41.3070   -0.8140 C   0  0  0  0  0  0  0  0  0  0  0  0
   -8.9340   40.4970   -0.0450 C   0  0  0  0  0  0  0  0  0  0  0  0
   -8.0540   41.0740    0.8660 C   0  0  0  0  0  0  0  0  0  0  0  0
   -8.0020   42.4710    1.0220 C   0  0  0  0  0  0  0  0  0  0  0  0
   -7.0440   43.0350    2.0040 C   0  0  0  0  0  0  0  0  0  0  0  0
   -5.8690   43.1870    1.6990 O   0  0  0  0  0  0  0  0  0  0  0  0
   -7.5780   43.4000    3.2180 N   0  0  0  0  0  0  0  0  0  0  0  0
   -6.7420   43.7580    4.3440 C   0  0  0  0  0  0  0  0  0  0  0  0
   -6.8200   45.2400    4.5990 C   0  0  0  0  0  0  0  0  0  0  0  0
   -6.5910   46.1470    3.5540 C   0  0  0  0  0  0  0  0  0  0  0  0
   -6.6340   47.5220    3.7860 C   0  0  0  0  0  0  0  0  0  0  0  0
   -6.8990   48.0030    5.0670 C   0  0  0  0  0  0  0  0  0  0  0  0
   -7.1200   47.1120    6.1150 C   0  0  0  0  0  0  0  0  0  0  0  0
   -7.0780   45.7360    5.8850 C   0  0  0  0  0  0  0  0  0  0  0  0
  -10.7090   46.4530    0.0010 C   0  0  0  0  0  0  0  0  0  0  0  0
  -11.8200   45.8360   -0.8340 C   0  0  0  0  0  0  0  0  0  0  0  0
  -11.5140   45.3080   -2.1130 C   0  0  0  0  0  0  0  0  0  0  0  0
  -12.5030   44.7140   -2.9000 C   0  0  0  0  0  0  0  0  0  0  0  0
  -13.7810   44.6560   -2.3910 C   0  0  0  0  0  0  0  0  0  0  0  0
  -14.1020   45.1580   -1.1490 C   0  0  0  0  0  0  0  0  0  0  0  0
  -13.1510   45.7480   -0.3350 C   0  0  0  0  0  0  0  0  0  0  0  0
  -13.5070   46.2860    1.0130 C   0  0  0  0  0  0  0  0  0  0  0  0
  -13.6480   45.3920    1.9170 O   0  0  0  0  0  0  0  0  0  0  0  0
  -13.7590   47.5130    1.1310 O   0  0  0  0  0  0  0  0  0  0  0  0
  -15.4310   45.0210   -0.8840 O   0  0  0  0  0  0  0  0  0  0  0  0
  -15.8820   44.3010   -2.0420 C   0  0  0  0  0  0  0  0  0  0  0  0
  -14.8540   44.1210   -3.0370 O   0  0  0  0  0  0  0  0  0  0  0  0
  -10.9016   48.7123    4.1041 H   0  0  0  0  0  0  0  0  0  0  0  0
  -10.8007   46.9262    4.7596 H   0  0  0  0  0  0  0  0  0  0  0  0
  -10.2050   47.9791    1.9309 H   0  0  0  0  0  0  0  0  0  0  0  0
   -8.9861   45.5640    2.7639 H   0  0  0  0  0  0  0  0  0  0  0  0
  -10.7850   45.1883    2.8101 H   0  0  0  0  0  0  0  0  0  0  0  0
  -10.6710   44.7000    0.8890 H   0  0  0  0  0  0  0  0  0  0  0  0
   -8.6897   45.1934   -0.7128 H   0  0  0  0  0  0  0  0  0  0  0  0
   -7.9742   45.0443    1.0011 H   0  0  0  0  0  0  0  0  0  0  0  0
  -10.3587   43.3252   -1.2988 H   0  0  0  0  0  0  0  0  0  0  0  0
  -10.4654   40.8535   -1.5288 H   0  0  0  0  0  0  0  0  0  0  0  0
   -8.9738   39.4034   -0.1565 H   0  0  0  0  0  0  0  0  0  0  0  0
   -7.3941   40.4326    1.4686 H   0  0  0  0  0  0  0  0  0  0  0  0
   -8.5520   43.2160    3.4130 H   0  0  0  0  0  0  0  0  0  0  0  0
   -7.0853   43.2169    5.2380 H   0  0  0  0  0  0  0  0  0  0  0  0
   -5.7001   43.4870    4.1181 H   0  0  0  0  0  0  0  0  0  0  0  0
   -6.3757   45.7710    2.5429 H   0  0  0  0  0  0  0  0  0  0  0  0
   -6.4590   48.2257    2.9589 H   0  0  0  0  0  0  0  0  0  0  0  0
   -6.9337   49.0870    5.2507 H   0  0  0  0  0  0  0  0  0  0  0  0
   -7.3280   47.4936    7.1255 H   0  0  0  0  0  0  0  0  0  0  0  0
   -7.2482   45.0369    6.7170 H   0  0  0  0  0  0  0  0  0  0  0  0
  -11.1505   47.2493    0.6182 H   0  0  0  0  0  0  0  0  0  0  0  0
   -9.9566   46.8150   -0.7151 H   0  0  0  0  0  0  0  0  0  0  0  0
  -10.4828   45.3669   -2.4913 H   0  0  0  0  0  0  0  0  0  0  0  0
  -12.2686   44.3058   -3.8942 H   0  0  0  0  0  0  0  0  0  0  0  0
  -16.2351   43.3098   -1.7214 H   0  0  0  0  0  0  0  0  0  0  0  0
  -16.6830   44.8963   -2.5046 H   0  0  0  0  0  0  0  0  0  0  0  0
  1  2  2  0
  2  3  1  0
  3  4  1  0
  4  5  1  0
  5  6  1  0
  6  7  2  0
  7  8  1  0
  8  9  2  0
  9 10  1  0
 10 11  2  0
 11 12  1  0
 12 13  2  0
 12 14  1  0
 14 15  1  0
 15 16  1  0
 16 17  2  0
 17 18  1  0
 18 19  2  0
 19 20  1  0
 20 21  2  0
  4 22  1  0
 22 23  1  0
 23 24  2  0
 24 25  1  0
 25 26  2  0
 26 27  1  0
 27 28  2  0
 28 29  1  0
 29 30  2  0
 29 31  1  0
 27 32  1  0
 32 33  1  0
 33 34  1  0
 11  6  1  0
 21 16  1  0
 28 23  1  0
 34 26  1  0
  1 35  1  0
  1 36  1  0
  2 37  1  0
  3 38  1  0
  3 39  1  0
  4 40  1  1
  5 41  1  0
  5 42  1  0
  7 43  1  0
  8 44  1  0
  9 45  1  0
 10 46  1  0
 14 47  1  0
 15 48  1  0
 15 49  1  0
 17 50  1  0
 18 51  1  0
 19 52  1  0
 20 53  1  0
 21 54  1  0
 22 55  1  0
 22 56  1  0
 24 57  1  0
 25 58  1  0
 33 59  1  0
 33 60  1  0
M  CHG  2   4   1  31  -1
M  END
>  <meeko>  (4) 
{"is_sidechain": [false], "free_energy": -7.127, "intermolecular_energy": -12.06, "internal_energy": -2.819}

$$$$
3zsx_ligand
     RDKit          3D

 60 63  0  0  0  0  0  0  0  0999 V2000
   -9.5770   50.2240   -1.8340 C   0  0  0  0  0  0  0  0  0  0  0  0
  -10.0240   49.0210   -1.4460 C   0  0  0  0  0  0  0  0  0  0  0  0
  -11.2310   48.7870   -0.5880 C   0  0  0  0  0  0  0  0  0  0  0  0
  -10.9620   48.0930    0.6950 N   0  0  2  0  0  0  0  0  0  0  0  0
   -9.9800   48.6970    1.6530 C   0  0  0  0  0  0  0  0  0  0  0  0
  -10.2540   48.5580    3.1320 C   0  0  0  0  0  0  0  0  0  0  0  0
  -11.3580   49.2500    3.6760 C   0  0  0  0  0  0  0  0  0  0  0  0
  -11.6780   49.1540    5.0310 C   0  0  0  0  0  0  0  0  0  0  0  0
  -10.9110   48.3570    5.8730 C   0  0  0  0  0  0  0  0  0  0  0  0
   -9.8160   47.6630    5.3620 C   0  0  0  0  0  0  0  0  0  0  0  0
   -9.4760   47.7690    4.0010 C   0  0  0  0  0  0  0  0  0  0  0  0
   -8.3030   47.0070    3.5080 C   0  0  0  0  0  0  0  0  0  0  0  0
   -7.1830   47.4960    3.5660 O   0  0  0  0  0  0  0  0  0  0  0  0
   -8.5670   45.7400    3.0410 N   0  0  0  0  0  0  0  0  0  0  0  0
   -7.5720   44.9640    2.3320 C   0  0  0  0  0  0  0  0  0  0  0  0
   -8.2170   44.1920    1.2110 C   0  0  0  0  0  0  0  0  0  0  0  0
   -9.2930   43.3320    1.4750 C   0  0  0  0  0  0  0  0  0  0  0  0
   -9.8780   42.5930    0.4470 C   0  0  0  0  0  0  0  0  0  0  0  0
   -9.3900   42.7010   -0.8540 C   0  0  0  0  0  0  0  0  0  0  0  0
   -8.3160   43.5470   -1.1270 C   0  0  0  0  0  0  0  0  0  0  0  0
   -7.7280   44.2870   -0.1000 C   0  0  0  0  0  0  0  0  0  0  0  0
  -11.0400   46.5930    0.7200 C   0  0  0  0  0  0  0  0  0  0  0  0
  -11.9500   45.9720   -0.3280 C   0  0  0  0  0  0  0  0  0  0  0  0
  -11.3960   45.5420   -1.5590 C   0  0  0  0  0  0  0  0  0  0  0  0
  -12.1960   44.9460   -2.5380 C   0  0  0  0  0  0  0  0  0  0  0  0
  -13.5370   44.7890   -2.2640 C   0  0  0  0  0  0  0  0  0  0  0  0
  -14.0970   45.1950   -1.0730 C   0  0  0  0  0  0  0  0  0  0  0  0
  -13.3390   45.7830   -0.0750 C   0  0  0  0  0  0  0  0  0  0  0  0
  -13.9550   46.2150    1.2160 C   0  0  0  0  0  0  0  0  0  0  0  0
  -13.8970   47.4750    1.4330 O   0  0  0  0  0  0  0  0  0  0  0  0
  -14.3550   45.3360    2.0220 O   0  0  0  0  0  0  0  0  0  0  0  0
  -15.4410   44.9710   -1.0520 O   0  0  0  0  0  0  0  0  0  0  0  0
  -15.6400   44.3030   -2.3070 C   0  0  0  0  0  0  0  0  0  0  0  0
  -14.4470   44.2400   -3.1140 O   0  0  0  0  0  0  0  0  0  0  0  0
   -8.6797   50.2998   -2.4657 H   0  0  0  0  0  0  0  0  0  0  0  0
  -10.1076   51.1352   -1.5206 H   0  0  0  0  0  0  0  0  0  0  0  0
   -9.4619   48.1376   -1.7832 H   0  0  0  0  0  0  0  0  0  0  0  0
  -11.6822   49.7639   -0.3597 H   0  0  0  0  0  0  0  0  0  0  0  0
  -11.8939   48.1241   -1.1635 H   0  0  0  0  0  0  0  0  0  0  0  0
  -11.8510   48.3140    1.2190 H   0  0  0  0  0  0  0  0  0  0  0  0
   -9.0028   48.2317    1.4563 H   0  0  0  0  0  0  0  0  0  0  0  0
  -10.0411   49.7787    1.4630 H   0  0  0  0  0  0  0  0  0  0  0  0
  -11.9782   49.8772    3.0187 H   0  0  0  0  0  0  0  0  0  0  0  0
  -12.5380   49.7096    5.4332 H   0  0  0  0  0  0  0  0  0  0  0  0
  -11.1677   48.2744    6.9394 H   0  0  0  0  0  0  0  0  0  0  0  0
   -9.2131   47.0277    6.0276 H   0  0  0  0  0  0  0  0  0  0  0  0
   -9.5220   45.4120    2.9920 H   0  0  0  0  0  0  0  0  0  0  0  0
   -6.8114   45.6412    1.9163 H   0  0  0  0  0  0  0  0  0  0  0  0
   -7.1027   44.2567    3.0316 H   0  0  0  0  0  0  0  0  0  0  0  0
   -9.6786   43.2396    2.5011 H   0  0  0  0  0  0  0  0  0  0  0  0
  -10.7247   41.9248    0.6631 H   0  0  0  0  0  0  0  0  0  0  0  0
   -9.8520   42.1190   -1.6651 H   0  0  0  0  0  0  0  0  0  0  0  0
   -7.9312   43.6315   -2.1540 H   0  0  0  0  0  0  0  0  0  0  0  0
   -6.8768   44.9480   -0.3200 H   0  0  0  0  0  0  0  0  0  0  0  0
  -10.0252   46.1973    0.5663 H   0  0  0  0  0  0  0  0  0  0  0  0
  -11.4737   46.3272    1.6953 H   0  0  0  0  0  0  0  0  0  0  0  0
  -10.3209   45.6791   -1.7470 H   0  0  0  0  0  0  0  0  0  0  0  0
  -11.7690   44.6133   -3.4956 H   0  0  0  0  0  0  0  0  0  0  0  0
  -15.9805   43.2765   -2.1062 H   0  0  0  0  0  0  0  0  0  0  0  0
  -16.3850   44.8835   -2.8709 H   0  0  0  0  0  0  0  0  0  0  0  0
  1  2  2  0
  2  3  1  0
  3  4  1  0
  4  5  1  0
  5  6  1  0
  6  7  2  0
  7  8  1  0
  8  9  2  0
  9 10  1  0
 10 11  2  0
 11 12  1  0
 12 13  2  0
 12 14  1  0
 14 15  1  0
 15 16  1  0
 16 17  2  0
 17 18  1  0
 18 19  2  0
 19 20  1  0
 20 21  2  0
  4 22  1  0
 22 23  1  0
 23 24  2  0
 24 25  1  0
 25 26  2  0
 26 27  1  0
 27 28  2  0
 28 29  1  0
 29 30  2  0
 29 31  1  0
 27 32  1  0
 32 33  1  0
 33 34  1  0
 11  6  1  0
 21 16  1  0
 28 23  1  0
 34 26  1  0
  1 35  1  0
  1 36  1  0
  2 37  1  0
  3 38  1  0
  3 39  1  0
  4 40  1  1
  5 41  1  0
  5 42  1  0
  7 43  1  0
  8 44  1  0
  9 45  1  0
 10 46  1  0
 14 47  1  0
 15 48  1  0
 15 49  1  0
 17 50  1  0
 18 51  1  0
 19 52  1  0
 20 53  1  0
 21 54  1  0
 22 55  1  0
 22 56  1  0
 24 57  1  0
 25 58  1  0
 33 59  1  0
 33 60  1  0
M  CHG  2   4   1  31  -1
M  END
>  <meeko>  (5) 
{"is_sidechain": [false], "free_energy": -6.993, "intermolecular_energy": -11.838, "internal_energy": -2.83}

$$$$
3zsx_ligand
     RDKit          3D

 60 63  0  0  0  0  0  0  0  0999 V2000
  -10.0880   41.3350   -1.3220 C   0  0  0  0  0  0  0  0  0  0  0  0
   -9.3340   41.5060   -0.2270 C   0  0  0  0  0  0  0  0  0  0  0  0
   -9.6320   42.4730    0.8800 C   0  0  0  0  0  0  0  0  0  0  0  0
   -9.5790   43.9040    0.4930 N   0  0  2  0  0  0  0  0  0  0  0  0
   -8.2520   44.5990    0.4730 C   0  0  0  0  0  0  0  0  0  0  0  0
   -7.2960   44.3390    1.6130 C   0  0  0  0  0  0  0  0  0  0  0  0
   -6.5490   43.1420    1.5990 C   0  0  0  0  0  0  0  0  0  0  0  0
   -5.6360   42.8450    2.6130 C   0  0  0  0  0  0  0  0  0  0  0  0
   -5.4400   43.7410    3.6580 C   0  0  0  0  0  0  0  0  0  0  0  0
   -6.1640   44.9300    3.6960 C   0  0  0  0  0  0  0  0  0  0  0  0
   -7.1000   45.2280    2.6880 C   0  0  0  0  0  0  0  0  0  0  0  0
   -7.8420   46.5100    2.7740 C   0  0  0  0  0  0  0  0  0  0  0  0
   -8.9020   46.5660    3.3820 O   0  0  0  0  0  0  0  0  0  0  0  0
   -7.2390   47.5910    2.1750 N   0  0  0  0  0  0  0  0  0  0  0  0
   -7.9330   48.8470    1.9870 C   0  0  0  0  0  0  0  0  0  0  0  0
   -9.0290   48.6860    0.9670 C   0  0  0  0  0  0  0  0  0  0  0  0
   -8.7550   48.0940   -0.2740 C   0  0  0  0  0  0  0  0  0  0  0  0
   -9.7580   47.9670   -1.2360 C   0  0  0  0  0  0  0  0  0  0  0  0
  -11.0430   48.4360   -0.9670 C   0  0  0  0  0  0  0  0  0  0  0  0
  -11.3260   49.0330    0.2590 C   0  0  0  0  0  0  0  0  0  0  0  0
  -10.3230   49.1630    1.2230 C   0  0  0  0  0  0  0  0  0  0  0  0
  -10.7530   44.7750    0.8380 C   0  0  0  0  0  0  0  0  0  0  0  0
  -11.7750   44.9590   -0.2720 C   0  0  0  0  0  0  0  0  0  0  0  0
  -11.4340   44.5890   -1.5960 C   0  0  0  0  0  0  0  0  0  0  0  0
  -12.3530   44.7240   -2.6390 C   0  0  0  0  0  0  0  0  0  0  0  0
  -13.6010   45.2240   -2.3360 C   0  0  0  0  0  0  0  0  0  0  0  0
  -13.9570   45.5870   -1.0560 C   0  0  0  0  0  0  0  0  0  0  0  0
  -13.0780   45.4620    0.0060 C   0  0  0  0  0  0  0  0  0  0  0  0
  -13.4760   45.8530    1.3930 C   0  0  0  0  0  0  0  0  0  0  0  0
  -14.4150   45.1430    1.8930 O   0  0  0  0  0  0  0  0  0  0  0  0
  -12.9710   46.8880    1.9000 O   0  0  0  0  0  0  0  0  0  0  0  0
  -15.2220   46.0880   -1.0140 O   0  0  0  0  0  0  0  0  0  0  0  0
  -15.6460   45.9140   -2.3750 C   0  0  0  0  0  0  0  0  0  0  0  0
  -14.6000   45.4250   -3.2390 O   0  0  0  0  0  0  0  0  0  0  0  0
   -9.7913   40.6002   -2.0849 H   0  0  0  0  0  0  0  0  0  0  0  0
  -11.0035   41.9295   -1.4577 H   0  0  0  0  0  0  0  0  0  0  0  0
   -8.4275   40.8901   -0.1332 H   0  0  0  0  0  0  0  0  0  0  0  0
  -10.6427   42.2587    1.2575 H   0  0  0  0  0  0  0  0  0  0  0  0
   -8.8446   42.3290    1.6345 H   0  0  0  0  0  0  0  0  0  0  0  0
   -9.7330   43.8230   -0.5470 H   0  0  0  0  0  0  0  0  0  0  0  0
   -7.7418   44.3024   -0.4553 H   0  0  0  0  0  0  0  0  0  0  0  0
   -8.5007   45.6668    0.5623 H   0  0  0  0  0  0  0  0  0  0  0  0
   -6.6886   42.4289    0.7732 H   0  0  0  0  0  0  0  0  0  0  0  0
   -5.0714   41.9014    2.5850 H   0  0  0  0  0  0  0  0  0  0  0  0
   -4.7149   43.5113    4.4527 H   0  0  0  0  0  0  0  0  0  0  0  0
   -6.0032   45.6413    4.5196 H   0  0  0  0  0  0  0  0  0  0  0  0
   -6.3770   47.4640    1.6620 H   0  0  0  0  0  0  0  0  0  0  0  0
   -8.3709   49.1673    2.9439 H   0  0  0  0  0  0  0  0  0  0  0  0
   -7.2180   49.6031    1.6304 H   0  0  0  0  0  0  0  0  0  0  0  0
   -7.7412   47.7266   -0.4912 H   0  0  0  0  0  0  0  0  0  0  0  0
   -9.5349   47.4974   -2.2054 H   0  0  0  0  0  0  0  0  0  0  0  0
  -11.8345   48.3344   -1.7241 H   0  0  0  0  0  0  0  0  0  0  0  0
  -12.3406   49.4027    0.4687 H   0  0  0  0  0  0  0  0  0  0  0  0
  -10.5492   49.6417    2.1872 H   0  0  0  0  0  0  0  0  0  0  0  0
  -11.2664   44.3267    1.7014 H   0  0  0  0  0  0  0  0  0  0  0  0
  -10.3406   45.7746    1.0399 H   0  0  0  0  0  0  0  0  0  0  0  0
  -10.4308   44.1895   -1.8058 H   0  0  0  0  0  0  0  0  0  0  0  0
  -12.0893   44.4405   -3.6686 H   0  0  0  0  0  0  0  0  0  0  0  0
  -16.4783   45.1949   -2.3924 H   0  0  0  0  0  0  0  0  0  0  0  0
  -15.9455   46.9029   -2.7525 H   0  0  0  0  0  0  0  0  0  0  0  0
  1  2  2  0
  2  3  1  0
  3  4  1  0
  4  5  1  0
  5  6  1  0
  6  7  2  0
  7  8  1  0
  8  9  2  0
  9 10  1  0
 10 11  2  0
 11 12  1  0
 12 13  2  0
 12 14  1  0
 14 15  1  0
 15 16  1  0
 16 17  2  0
 17 18  1  0
 18 19  2  0
 19 20  1  0
 20 21  2  0
  4 22  1  0
 22 23  1  0
 23 24  2  0
 24 25  1  0
 25 26  2  0
 26 27  1  0
 27 28  2  0
 28 29  1  0
 29 30  2  0
 29 31  1  0
 27 32  1  0
 32 33  1  0
 33 34  1  0
 11  6  1  0
 21 16  1  0
 28 23  1  0
 34 26  1  0
  1 35  1  0
  1 36  1  0
  2 37  1  0
  3 38  1  0
  3 39  1  0
  4 40  1  6
  5 41  1  0
  5 42  1  0
  7 43  1  0
  8 44  1  0
  9 45  1  0
 10 46  1  0
 14 47  1  0
 15 48  1  0
 15 49  1  0
 17 50  1  0
 18 51  1  0
 19 52  1  0
 20 53  1  0
 21 54  1  0
 22 55  1  0
 22 56  1  0
 24 57  1  0
 25 58  1  0
 33 59  1  0
 33 60  1  0
M  CHG  2   4   1  31  -1
M  END
>  <meeko>  (6) 
{"is_sidechain": [false], "free_energy": -6.878, "intermolecular_energy": -11.813, "internal_energy": -2.672}

$$$$
3zsx_ligand
     RDKit          3D

 60 63  0  0  0  0  0  0  0  0999 V2000
   -8.4420   39.9620    0.4770 C   0  0  0  0  0  0  0  0  0  0  0  0
   -9.1740   41.0240    0.1110 C   0  0  0  0  0  0  0  0  0  0  0  0
   -9.1960   42.3420    0.8260 C   0  0  0  0  0  0  0  0  0  0  0  0
   -8.3830   43.4100    0.1950 N   0  0  2  0  0  0  0  0  0  0  0  0
   -7.0160   43.6970    0.7370 C   0  0  0  0  0  0  0  0  0  0  0  0
   -6.8800   43.9510    2.2200 C   0  0  0  0  0  0  0  0  0  0  0  0
   -6.6870   42.8440    3.0730 C   0  0  0  0  0  0  0  0  0  0  0  0
   -6.5370   43.0070    4.4520 C   0  0  0  0  0  0  0  0  0  0  0  0
   -6.5670   44.2810    5.0090 C   0  0  0  0  0  0  0  0  0  0  0  0
   -6.7560   45.3910    4.1890 C   0  0  0  0  0  0  0  0  0  0  0  0
   -6.9260   45.2340    2.8020 C   0  0  0  0  0  0  0  0  0  0  0  0
   -7.1210   46.4490    1.9740 C   0  0  0  0  0  0  0  0  0  0  0  0
   -6.4660   46.6080    0.9530 O   0  0  0  0  0  0  0  0  0  0  0  0
   -8.0910   47.3210    2.4100 N   0  0  0  0  0  0  0  0  0  0  0  0
   -8.2470   48.6400    1.8390 C   0  0  0  0  0  0  0  0  0  0  0  0
   -9.5450   48.7290    1.0810 C   0  0  0  0  0  0  0  0  0  0  0  0
   -9.5870   48.4110   -0.2840 C   0  0  0  0  0  0  0  0  0  0  0  0
  -10.7800   48.5180   -1.0010 C   0  0  0  0  0  0  0  0  0  0  0  0
  -11.9400   48.9480   -0.3600 C   0  0  0  0  0  0  0  0  0  0  0  0
  -11.9100   49.2740    0.9940 C   0  0  0  0  0  0  0  0  0  0  0  0
  -10.7170   49.1700    1.7130 C   0  0  0  0  0  0  0  0  0  0  0  0
   -9.1010   44.5930   -0.3910 C   0  0  0  0  0  0  0  0  0  0  0  0
  -10.4660   44.8890    0.2090 C   0  0  0  0  0  0  0  0  0  0  0  0
  -10.5500   45.3220    1.5560 C   0  0  0  0  0  0  0  0  0  0  0  0
  -11.7840   45.6250    2.1370 C   0  0  0  0  0  0  0  0  0  0  0  0
  -12.9120   45.4920    1.3570 C   0  0  0  0  0  0  0  0  0  0  0  0
  -12.8550   45.0770    0.0450 C   0  0  0  0  0  0  0  0  0  0  0  0
  -11.6520   44.7740   -0.5700 C   0  0  0  0  0  0  0  0  0  0  0  0
  -11.5990   44.3300   -1.9960 C   0  0  0  0  0  0  0  0  0  0  0  0
  -11.5640   43.0620   -2.1530 O   0  0  0  0  0  0  0  0  0  0  0  0
  -11.4690   45.1990   -2.8980 O   0  0  0  0  0  0  0  0  0  0  0  0
  -14.0970   44.9860   -0.5040 O   0  0  0  0  0  0  0  0  0  0  0  0
  -14.9210   45.4730    0.5660 C   0  0  0  0  0  0  0  0  0  0  0  0
  -14.1830   45.7370    1.7780 O   0  0  0  0  0  0  0  0  0  0  0  0
   -8.4892   39.0328   -0.1098 H   0  0  0  0  0  0  0  0  0  0  0  0
   -7.7942   40.0199    1.3641 H   0  0  0  0  0  0  0  0  0  0  0  0
   -9.8072   40.9205   -0.7825 H   0  0  0  0  0  0  0  0  0  0  0  0
  -10.2390   42.6885    0.8712 H   0  0  0  0  0  0  0  0  0  0  0  0
   -8.7527   42.1623    1.8166 H   0  0  0  0  0  0  0  0  0  0  0  0
   -8.1020   42.9280   -0.7010 H   0  0  0  0  0  0  0  0  0  0  0  0
   -6.3796   42.8335    0.4933 H   0  0  0  0  0  0  0  0  0  0  0  0
   -6.7287   44.6495    0.2676 H   0  0  0  0  0  0  0  0  0  0  0  0
   -6.6540   41.8319    2.6433 H   0  0  0  0  0  0  0  0  0  0  0  0
   -6.3951   42.1277    5.0975 H   0  0  0  0  0  0  0  0  0  0  0  0
   -6.4418   44.4117    6.0940 H   0  0  0  0  0  0  0  0  0  0  0  0
   -6.7724   46.3986    4.6300 H   0  0  0  0  0  0  0  0  0  0  0  0
   -8.5720   47.1410    3.2810 H   0  0  0  0  0  0  0  0  0  0  0  0
   -8.2456   49.3876    2.6459 H   0  0  0  0  0  0  0  0  0  0  0  0
   -7.4137   48.8321    1.1471 H   0  0  0  0  0  0  0  0  0  0  0  0
   -8.6724   48.0744   -0.7941 H   0  0  0  0  0  0  0  0  0  0  0  0
  -10.8042   48.2631   -2.0708 H   0  0  0  0  0  0  0  0  0  0  0  0
  -12.8808   49.0302   -0.9240 H   0  0  0  0  0  0  0  0  0  0  0  0
  -12.8270   49.6138    1.4976 H   0  0  0  0  0  0  0  0  0  0  0  0
  -10.6965   49.4353    2.7803 H   0  0  0  0  0  0  0  0  0  0  0  0
   -8.4671   45.4804   -0.2469 H   0  0  0  0  0  0  0  0  0  0  0  0
   -9.2811   44.3458   -1.4476 H   0  0  0  0  0  0  0  0  0  0  0  0
   -9.6309   45.4209    2.1522 H   0  0  0  0  0  0  0  0  0  0  0  0
  -11.8527   45.9588    3.1829 H   0  0  0  0  0  0  0  0  0  0  0  0
  -15.4021   46.4067    0.2394 H   0  0  0  0  0  0  0  0  0  0  0  0
  -15.6559   44.6874    0.7957 H   0  0  0  0  0  0  0  0  0  0  0  0
  1  2  2  0
  2  3  1  0
  3  4  1  0
  4  5  1  0
  5  6  1  0
  6  7  2  0
  7  8  1  0
  8  9  2  0
  9 10  1  0
 10 11  2  0
 11 12  1  0
 12 13  2  0
 12 14  1  0
 14 15  1  0
 15 16  1  0
 16 17  2  0
 17 18  1  0
 18 19  2  0
 19 20  1  0
 20 21  2  0
  4 22  1  0
 22 23  1  0
 23 24  2  0
 24 25  1  0
 25 26  2  0
 26 27  1  0
 27 28  2  0
 28 29  1  0
 29 30  2  0
 29 31  1  0
 27 32  1  0
 32 33  1  0
 33 34  1  0
 11  6  1  0
 21 16  1  0
 28 23  1  0
 34 26  1  0
  1 35  1  0
  1 36  1  0
  2 37  1  0
  3 38  1  0
  3 39  1  0
  4 40  1  6
  5 41  1  0
  5 42  1  0
  7 43  1  0
  8 44  1  0
  9 45  1  0
 10 46  1  0
 14 47  1  0
 15 48  1  0
 15 49  1  0
 17 50  1  0
 18 51  1  0
 19 52  1  0
 20 53  1  0
 21 54  1  0
 22 55  1  0
 22 56  1  0
 24 57  1  0
 25 58  1  0
 33 59  1  0
 33 60  1  0
M  CHG  2   4   1  31  -1
M  END
>  <meeko>  (7) 
{"is_sidechain": [false], "free_energy": -6.873, "intermolecular_energy": -11.255, "internal_energy": -3.221}

$$$$
3zsx_ligand
     RDKit          3D

 60 63  0  0  0  0  0  0  0  0999 V2000
   -5.9530   48.1050   -0.9580 C   0  0  0  0  0  0  0  0  0  0  0  0
   -6.8730   47.6420   -0.1010 C   0  0  0  0  0  0  0  0  0  0  0  0
   -7.5230   48.4500    0.9840 C   0  0  0  0  0  0  0  0  0  0  0  0
   -8.2970   47.6620    1.9730 N   0  0  2  0  0  0  0  0  0  0  0  0
   -7.8470   46.2720    2.3040 C   0  0  0  0  0  0  0  0  0  0  0  0
   -7.4060   45.9880    3.7210 C   0  0  0  0  0  0  0  0  0  0  0  0
   -7.7860   46.8940    4.7340 C   0  0  0  0  0  0  0  0  0  0  0  0
   -7.4270   46.6850    6.0670 C   0  0  0  0  0  0  0  0  0  0  0  0
   -6.6890   45.5600    6.4210 C   0  0  0  0  0  0  0  0  0  0  0  0
   -6.3010   44.6500    5.4410 C   0  0  0  0  0  0  0  0  0  0  0  0
   -6.6430   44.8630    4.0930 C   0  0  0  0  0  0  0  0  0  0  0  0
   -6.2080   43.8610    3.0890 C   0  0  0  0  0  0  0  0  0  0  0  0
   -5.0440   43.8330    2.7140 O   0  0  0  0  0  0  0  0  0  0  0  0
   -7.1750   42.9770    2.6700 N   0  0  0  0  0  0  0  0  0  0  0  0
   -6.9640   42.0900    1.5460 C   0  0  0  0  0  0  0  0  0  0  0  0
   -7.9850   42.3610    0.4720 C   0  0  0  0  0  0  0  0  0  0  0  0
   -7.9780   43.5840   -0.2140 C   0  0  0  0  0  0  0  0  0  0  0  0
   -8.9370   43.8540   -1.1910 C   0  0  0  0  0  0  0  0  0  0  0  0
   -9.9150   42.9070   -1.4870 C   0  0  0  0  0  0  0  0  0  0  0  0
   -9.9380   41.6910   -0.8060 C   0  0  0  0  0  0  0  0  0  0  0  0
   -8.9790   41.4190    0.1730 C   0  0  0  0  0  0  0  0  0  0  0  0
   -9.7790   47.8920    2.0570 C   0  0  0  0  0  0  0  0  0  0  0  0
  -10.6400   46.8650    1.3380 C   0  0  0  0  0  0  0  0  0  0  0  0
  -10.9270   45.6340    1.9780 C   0  0  0  0  0  0  0  0  0  0  0  0
  -11.7320   44.6740    1.3590 C   0  0  0  0  0  0  0  0  0  0  0  0
  -12.2370   44.9660    0.1110 C   0  0  0  0  0  0  0  0  0  0  0  0
  -11.9750   46.1570   -0.5280 C   0  0  0  0  0  0  0  0  0  0  0  0
  -11.1890   47.1370    0.0530 C   0  0  0  0  0  0  0  0  0  0  0  0
  -10.9140   48.4290   -0.6460 C   0  0  0  0  0  0  0  0  0  0  0  0
  -11.7620   49.3540   -0.3980 O   0  0  0  0  0  0  0  0  0  0  0  0
   -9.9840   48.4760   -1.4920 O   0  0  0  0  0  0  0  0  0  0  0  0
  -12.5490   46.1980   -1.7620 O   0  0  0  0  0  0  0  0  0  0  0  0
  -13.2690   44.9550   -1.7860 C   0  0  0  0  0  0  0  0  0  0  0  0
  -13.0240   44.1340   -0.6250 O   0  0  0  0  0  0  0  0  0  0  0  0
   -5.5298   47.4383   -1.7238 H   0  0  0  0  0  0  0  0  0  0  0  0
   -5.6209   49.1518   -0.8958 H   0  0  0  0  0  0  0  0  0  0  0  0
   -7.1751   46.5890   -0.2002 H   0  0  0  0  0  0  0  0  0  0  0  0
   -6.7340   48.9944    1.5235 H   0  0  0  0  0  0  0  0  0  0  0  0
   -8.2458   49.1115    0.4840 H   0  0  0  0  0  0  0  0  0  0  0  0
   -8.0050   48.1420    2.8660 H   0  0  0  0  0  0  0  0  0  0  0  0
   -8.6846   45.5950    2.0801 H   0  0  0  0  0  0  0  0  0  0  0  0
   -6.9399   46.1254    1.6992 H   0  0  0  0  0  0  0  0  0  0  0  0
   -8.3770   47.7828    4.4681 H   0  0  0  0  0  0  0  0  0  0  0  0
   -7.7278   47.4101    6.8376 H   0  0  0  0  0  0  0  0  0  0  0  0
   -6.4128   45.3898    7.4721 H   0  0  0  0  0  0  0  0  0  0  0  0
   -5.7227   43.7578    5.7229 H   0  0  0  0  0  0  0  0  0  0  0  0
   -8.1250   43.0790    2.9990 H   0  0  0  0  0  0  0  0  0  0  0  0
   -5.9555   42.2533    1.1384 H   0  0  0  0  0  0  0  0  0  0  0  0
   -7.0672   41.0488    1.8855 H   0  0  0  0  0  0  0  0  0  0  0  0
   -7.2105   44.3365    0.0199 H   0  0  0  0  0  0  0  0  0  0  0  0
   -8.9208   44.8143   -1.7273 H   0  0  0  0  0  0  0  0  0  0  0  0
  -10.6696   43.1191   -2.2587 H   0  0  0  0  0  0  0  0  0  0  0  0
  -10.7118   40.9449   -1.0395 H   0  0  0  0  0  0  0  0  0  0  0  0
   -9.0042   40.4605    0.7120 H   0  0  0  0  0  0  0  0  0  0  0  0
  -10.0633   47.8890    3.1196 H   0  0  0  0  0  0  0  0  0  0  0  0
   -9.9661   48.8513    1.5522 H   0  0  0  0  0  0  0  0  0  0  0  0
  -10.5105   45.4312    2.9757 H   0  0  0  0  0  0  0  0  0  0  0  0
  -11.9552   43.7164    1.8522 H   0  0  0  0  0  0  0  0  0  0  0  0
  -14.3455   45.1754   -1.8376 H   0  0  0  0  0  0  0  0  0  0  0  0
  -12.9201   44.3919   -2.6642 H   0  0  0  0  0  0  0  0  0  0  0  0
  1  2  2  0
  2  3  1  0
  3  4  1  0
  4  5  1  0
  5  6  1  0
  6  7  2  0
  7  8  1  0
  8  9  2  0
  9 10  1  0
 10 11  2  0
 11 12  1  0
 12 13  2  0
 12 14  1  0
 14 15  1  0
 15 16  1  0
 16 17  2  0
 17 18  1  0
 18 19  2  0
 19 20  1  0
 20 21  2  0
  4 22  1  0
 22 23  1  0
 23 24  2  0
 24 25  1  0
 25 26  2  0
 26 27  1  0
 27 28  2  0
 28 29  1  0
 29 30  2  0
 29 31  1  0
 27 32  1  0
 32 33  1  0
 33 34  1  0
 11  6  1  0
 21 16  1  0
 28 23  1  0
 34 26  1  0
  1 35  1  0
  1 36  1  0
  2 37  1  0
  3 38  1  0
  3 39  1  0
  4 40  1  1
  5 41  1  0
  5 42  1  0
  7 43  1  0
  8 44  1  0
  9 45  1  0
 10 46  1  0
 14 47  1  0
 15 48  1  0
 15 49  1  0
 17 50  1  0
 18 51  1  0
 19 52  1  0
 20 53  1  0
 21 54  1  0
 22 55  1  0
 22 56  1  0
 24 57  1  0
 25 58  1  0
 33 59  1  0
 33 60  1  0
M  CHG  2   4   1  31  -1
M  END
>  <meeko>  (8) 
{"is_sidechain": [false], "free_energy": -6.74, "intermolecular_energy": -11.418, "internal_energy": -2.848}

$$$$
3zsx_ligand
     RDKit          3D

 60 63  0  0  0  0  0  0  0  0999 V2000
   -5.1040   48.1400    0.4090 C   0  0  0  0  0  0  0  0  0  0  0  0
   -5.9460   47.9900   -0.6230 C   0  0  0  0  0  0  0  0  0  0  0  0
   -7.4180   47.7310   -0.5030 C   0  0  0  0  0  0  0  0  0  0  0  0
   -7.8260   46.9850    0.7130 N   0  0  2  0  0  0  0  0  0  0  0  0
   -7.7050   45.4920    0.7200 C   0  0  0  0  0  0  0  0  0  0  0  0
   -7.3250   44.8170    2.0180 C   0  0  0  0  0  0  0  0  0  0  0  0
   -6.8640   45.6240    3.0810 C   0  0  0  0  0  0  0  0  0  0  0  0
   -6.5110   45.0690    4.3120 C   0  0  0  0  0  0  0  0  0  0  0  0
   -6.6190   43.6980    4.5150 C   0  0  0  0  0  0  0  0  0  0  0  0
   -7.0720   42.8790    3.4830 C   0  0  0  0  0  0  0  0  0  0  0  0
   -7.4120   43.4280    2.2330 C   0  0  0  0  0  0  0  0  0  0  0  0
   -7.8920   42.5120    1.1680 C   0  0  0  0  0  0  0  0  0  0  0  0
   -7.0950   41.8220    0.5470 O   0  0  0  0  0  0  0  0  0  0  0  0
   -9.2540   42.4750    0.9810 N   0  0  0  0  0  0  0  0  0  0  0  0
   -9.8520   41.8040   -0.1520 C   0  0  0  0  0  0  0  0  0  0  0  0
  -10.6510   42.7800   -0.9730 C   0  0  0  0  0  0  0  0  0  0  0  0
  -10.0850   44.0030   -1.3620 C   0  0  0  0  0  0  0  0  0  0  0  0
  -10.8270   44.9260   -2.0990 C   0  0  0  0  0  0  0  0  0  0  0  0
  -12.1450   44.6380   -2.4490 C   0  0  0  0  0  0  0  0  0  0  0  0
  -12.7220   43.4300   -2.0620 C   0  0  0  0  0  0  0  0  0  0  0  0
  -11.9810   42.5050   -1.3240 C   0  0  0  0  0  0  0  0  0  0  0  0
   -8.9490   47.5410    1.5410 C   0  0  0  0  0  0  0  0  0  0  0  0
  -10.3070   46.8980    1.3120 C   0  0  0  0  0  0  0  0  0  0  0  0
  -10.6230   45.6890    1.9810 C   0  0  0  0  0  0  0  0  0  0  0  0
  -11.8680   45.0800    1.8130 C   0  0  0  0  0  0  0  0  0  0  0  0
  -12.7780   45.6940    0.9810 C   0  0  0  0  0  0  0  0  0  0  0  0
  -12.4960   46.8710    0.3230 C   0  0  0  0  0  0  0  0  0  0  0  0
  -11.2770   47.5100    0.4680 C   0  0  0  0  0  0  0  0  0  0  0  0
  -10.9820   48.7900   -0.2450 C   0  0  0  0  0  0  0  0  0  0  0  0
  -11.3620   49.8410    0.3770 O   0  0  0  0  0  0  0  0  0  0  0  0
  -10.5160   48.7410   -1.4140 O   0  0  0  0  0  0  0  0  0  0  0  0
  -13.5320   47.2600   -0.4700 O   0  0  0  0  0  0  0  0  0  0  0  0
  -14.5170   46.2600   -0.1670 C   0  0  0  0  0  0  0  0  0  0  0  0
  -14.0250   45.2220    0.7050 O   0  0  0  0  0  0  0  0  0  0  0  0
   -4.0359   48.3278    0.2246 H   0  0  0  0  0  0  0  0  0  0  0  0
   -5.4810   48.0753    1.4403 H   0  0  0  0  0  0  0  0  0  0  0  0
   -5.5245   48.0625   -1.6365 H   0  0  0  0  0  0  0  0  0  0  0  0
   -7.9360   48.7014   -0.4979 H   0  0  0  0  0  0  0  0  0  0  0  0
   -7.6893   47.0958   -1.3591 H   0  0  0  0  0  0  0  0  0  0  0  0
   -7.0190   47.2140    1.3530 H   0  0  0  0  0  0  0  0  0  0  0  0
   -8.6787   45.0835    0.4117 H   0  0  0  0  0  0  0  0  0  0  0  0
   -6.8631   45.2814    0.0440 H   0  0  0  0  0  0  0  0  0  0  0  0
   -6.7815   46.7113    2.9361 H   0  0  0  0  0  0  0  0  0  0  0  0
   -6.1469   45.7173    5.1226 H   0  0  0  0  0  0  0  0  0  0  0  0
   -6.3476   43.2612    5.4874 H   0  0  0  0  0  0  0  0  0  0  0  0
   -7.1645   41.7952    3.6467 H   0  0  0  0  0  0  0  0  0  0  0  0
   -9.8500   43.0980    1.5100 H   0  0  0  0  0  0  0  0  0  0  0  0
   -9.0582   41.3685   -0.7766 H   0  0  0  0  0  0  0  0  0  0  0  0
  -10.5209   41.0108    0.2132 H   0  0  0  0  0  0  0  0  0  0  0  0
   -9.0468   44.2363   -1.0834 H   0  0  0  0  0  0  0  0  0  0  0  0
  -10.3724   45.8802   -2.4037 H   0  0  0  0  0  0  0  0  0  0  0  0
  -12.7303   45.3649   -3.0313 H   0  0  0  0  0  0  0  0  0  0  0  0
  -13.7627   43.2049   -2.3383 H   0  0  0  0  0  0  0  0  0  0  0  0
  -12.4427   41.5553   -1.0161 H   0  0  0  0  0  0  0  0  0  0  0  0
   -8.6860   47.4106    2.6011 H   0  0  0  0  0  0  0  0  0  0  0  0
   -9.0566   48.5932    1.2389 H   0  0  0  0  0  0  0  0  0  0  0  0
   -9.8767   45.2240    2.6419 H   0  0  0  0  0  0  0  0  0  0  0  0
  -12.1143   44.1400    2.3285 H   0  0  0  0  0  0  0  0  0  0  0  0
  -15.3730   46.7493    0.3206 H   0  0  0  0  0  0  0  0  0  0  0  0
  -14.7994   45.7818   -1.1165 H   0  0  0  0  0  0  0  0  0  0  0  0
  1  2  2  0
  2  3  1  0
  3  4  1  0
  4  5  1  0
  5  6  1  0
  6  7  2  0
  7  8  1  0
  8  9  2  0
  9 10  1  0
 10 11  2  0
 11 12  1  0
 12 13  2  0
 12 14  1  0
 14 15  1  0
 15 16  1  0
 16 17  2  0
 17 18  1  0
 18 19  2  0
 19 20  1  0
 20 21  2  0
  4 22  1  0
 22 23  1  0
 23 24  2  0
 24 25  1  0
 25 26  2  0
 26 27  1  0
 27 28  2  0
 28 29  1  0
 29 30  2  0
 29 31  1  0
 27 32  1  0
 32 33  1  0
 33 34  1  0
 11  6  1  0
 21 16  1  0
 28 23  1  0
 34 26  1  0
  1 35  1  0
  1 36  1  0
  2 37  1  0
  3 38  1  0
  3 39  1  0
  4 40  1  1
  5 41  1  0
  5 42  1  0
  7 43  1  0
  8 44  1  0
  9 45  1  0
 10 46  1  0
 14 47  1  0
 15 48  1  0
 15 49  1  0
 17 50  1  0
 18 51  1  0
 19 52  1  0
 20 53  1  0
 21 54  1  0
 22 55  1  0
 22 56  1  0
 24 57  1  0
 25 58  1  0
 33 59  1  0
 33 60  1  0
M  CHG  2   4   1  31  -1
M  END
>  <meeko>  (9) 
{"is_sidechain": [false], "free_energy": -6.679, "intermolecular_energy": -11.037, "internal_energy": -3.131}

$$$$
